#	Name:			2wfg_ligand
#	Creating user name:	wangrx
#	Creation time:		Wed Aug  4 16:34:27 2021

#	Modifying user name:	wangrx
#	Modification time:	Wed Aug  4 16:35:33 2021

@<TRIPOS>MOLECULE
2wfg_ligand
   56    61     1     0     0
SMALL
GAST_HUCK


@<TRIPOS>ATOM
      1 CB         16.5290    0.3930   10.0710 C.3       1 ZZB        -0.1289 
      2 CG         17.3600   -0.6000    9.7110 C.ar      1 ZZB        -0.1731 
      3 CD1        17.6880   -1.1150    8.4580 C.ar      1 ZZB        -0.1548 
      4 CD2        17.9580   -1.1370   10.8470 C.ar      1 ZZB        -0.2031 
      5 CE1        18.6050   -2.1580    8.3420 C.ar      1 ZZB         0.0229 
      6 CE2        18.8740   -2.1870   10.7510 C.ar      1 ZZB        -0.1728 
      7 CZ         19.2040   -2.7010    9.4910 C.ar      1 ZZB        -0.0374 
      8 P          21.2340   -2.2680   17.6250 P.3       1 ZZB         0.2008 
      9 O1P        21.1570   -3.7520   18.2580 O.co2     1 ZZB        -0.5537 
     10 O2P        22.3950   -2.3180   16.4720 O.co2     1 ZZB        -0.5537 
     11 O3P        21.4450   -1.1850   18.6260 O.co2     1 ZZB        -0.5537 
     12 N9         15.9490   -1.1840   16.4910 N.pl3     1 ZZB        -0.1957 
     13 C8         15.8480    0.0170   17.0550 C.2       1 ZZB         0.1121 
     14 N7         15.1670   -0.0840   18.1880 N.2       1 ZZB        -0.2958 
     15 C5         14.8480   -1.3640   18.3530 C.ar      1 ZZB         0.1045 
     16 C6         14.1500   -2.0420   19.3430 C.ar      1 ZZB         0.1298 
     17 N6         13.6500   -1.3800   20.3920 N.pl3     1 ZZB        -0.3152 
     18 N1         13.9850   -3.3640   19.2240 N.ar      1 ZZB        -0.2698 
     19 C2         14.4840   -4.0210   18.1850 C.ar      1 ZZB         0.0533 
     20 N3         15.1590   -3.4010   17.2230 N.ar      1 ZZB        -0.2714 
     21 C4         15.3560   -2.0750   17.2770 C.ar      1 ZZB         0.1612 
     22 O5'        19.8740   -2.0450   16.8070 O.3       1 ZZB        -0.2735 
     23 C5'        19.6730   -0.8740   15.9850 C.3       1 ZZB         0.1036 
     24 C4'        18.7800   -1.2800   14.8180 C.3       1 ZZB         0.0767 
     25 O4'        17.7340   -2.2360   15.2590 O.3       1 ZZB        -0.3438 
     26 C3'        18.0240   -0.0760   14.2320 C.3       1 ZZB        -0.1046 
     27 O3'        18.4050    0.1880   12.8890 O.3       1 ZZB        -0.8522 
     28 C2'        16.5850   -0.5660   14.1260 C.3       1 ZZB        -0.0794 
     29 O2'        16.5960   -1.2490   12.8750 O.3       1 ZZB        -0.8504 
     30 C1'        16.6090   -1.4530   15.3570 C.3       1 ZZB         0.1596 
     31 F          18.8950   -2.6410    7.1060 F         1 ZZB        -0.2647 
     32 O1         16.5100    0.5970   11.4270 O.3       1 ZZB        -0.8473 
     33 B          17.3710   -0.3700   12.0360 B         1 ZZB         3.0000 
     34 CF         21.8910   -5.2430    9.8930 C.3       1 ZZB        -0.0460 
     35 CK         20.7440   -4.3900   10.4740 C.3       1 ZZB         0.0173 
     36 ND         20.0760   -3.7120    9.3460 N.pl3     1 ZZB        -0.3439 
     37 H1         15.5116    0.1395    9.7383 H         1 ZZB         0.0199 
     38 H2         16.8550    1.3214    9.5793 H         1 ZZB         0.0199 
     39 H3         17.2270   -0.7017    7.5682 H         1 ZZB        -0.0241 
     40 H5         19.3260   -2.6009   11.6451 H         1 ZZB        -0.0298 
     41 H6         16.2606    0.9394   16.6490 H         1 ZZB         0.1349 
     42 H7         13.1330   -1.8888   21.1233 H         1 ZZB         0.1820 
     43 H8         13.7819   -0.3614   20.4686 H         1 ZZB         0.1820 
     44 H9         14.3370   -5.0930   18.1191 H         1 ZZB         0.0996 
     45 H10        20.6400   -0.5091   15.6085 H         1 ZZB         0.0638 
     46 H11        19.1858   -0.0820   16.5726 H         1 ZZB         0.0638 
     47 H12        19.4049   -1.7412   14.0390 H         1 ZZB         0.0612 
     48 H13        18.1321    0.8172   14.8649 H         1 ZZB         0.0129 
     49 H15        15.8053    0.2088   14.1676 H         1 ZZB         0.0156 
     50 H17        15.8809   -2.2029   15.0142 H         1 ZZB         0.0956 
     51 H19        22.4112   -5.7635   10.7106 H         1 ZZB         0.0248 
     52 H20        22.6009   -4.5909    9.3632 H         1 ZZB         0.0248 
     53 H21        21.4786   -5.9828    9.1912 H         1 ZZB         0.0248 
     54 H22        21.1488   -3.6437   11.1735 H         1 ZZB         0.0503 
     55 H23        20.0265   -5.0357   11.0014 H         1 ZZB         0.0503 
     56 H24        20.2913   -4.0332    8.3913 H         1 ZZB         0.1706 
@<TRIPOS>BOND
     1    2    1 1    
     2   32    1 1    
     3    3    2 ar   
     4    4    2 ar   
     5    5    3 ar   
     6    6    4 ar   
     7    4   33 1    
     8    7    5 ar   
     9    5   31 1    
    10    7    6 ar   
    11   36    7 1    
    12    8    9 ar   
    13    8   10 ar   
    14    8   11 ar   
    15   22    8 1    
    16   12   13 1    
    17   12   21 1    
    18   30   12 1    
    19   13   14 2    
    20   15   14 1    
    21   15   16 ar   
    22   21   15 ar   
    23   16   17 1    
    24   16   18 ar   
    25   19   18 ar   
    26   20   19 ar   
    27   21   20 ar   
    28   23   22 1    
    29   24   23 1    
    30   25   24 1    
    31   26   24 1    
    32   30   25 1    
    33   26   27 1    
    34   28   26 1    
    35   29   28 1    
    36   28   30 1    
    37   33   29 1    
    38   33   32 1    
    39   35   34 1    
    40   35   36 1    
    41    1   37 1    
    42    1   38 1    
    43    3   39 1    
    44   27   33 1    
    45    6   40 1    
    46   13   41 1    
    47   17   42 1    
    48   17   43 1    
    49   19   44 1    
    50   23   45 1    
    51   23   46 1    
    52   24   47 1    
    53   26   48 1    
    54   28   49 1    
    55   30   50 1    
    56   34   51 1    
    57   34   52 1    
    58   34   53 1    
    59   35   54 1    
    60   35   55 1    
    61   36   56 1    
@<TRIPOS>SUBSTRUCTURE
     1 ZZB         1 PERM              0 ****  ****    0 ROOT 
