#	Name:			3zjt_ligand
#	Creating user name:	wangrx
#	Creation time:		Wed Aug  4 17:02:15 2021

#	Modifying user name:	wangrx
#	Modification time:	Wed Aug  4 17:02:28 2021

@<TRIPOS>MOLECULE
3zjt_ligand
   54    59     1     0     0
SMALL
GAST_HUCK


@<TRIPOS>ATOM
      1 B          28.6000   27.3910   32.3800 B         1 NON         3.0000 
      2 P          21.6260   27.0840   31.9140 P.3       1 NON         0.1064 
      3 N1         24.2470   33.7920   28.4730 N.ar      1 NON        -0.2698 
      4 C2         24.6620   32.6650   27.8650 C.ar      1 NON         0.0533 
      5 N3         25.1260   31.6450   28.5960 N.ar      1 NON        -0.2714 
      6 C4         25.1790   31.7110   29.9450 C.ar      1 NON         0.1612 
      7 C5         24.7510   32.8610   30.5920 C.ar      1 NON         0.1045 
      8 C6         24.2620   33.9090   29.8300 C.ar      1 NON         0.1298 
      9 N6         23.8260   35.0430   30.4340 N.pl3     1 NON        -0.3152 
     10 N7         24.9340   32.6940   31.9100 N.2       1 NON        -0.2958 
     11 C8         25.4370   31.4540   32.0750 C.2       1 NON         0.1121 
     12 N9         25.5670   30.8400   30.8770 N.pl3     1 NON        -0.1957 
     13 C1'        26.2620   29.5400   30.6460 C.3       1 NON         0.1596 
     14 C10        30.9550   26.7680   32.9290 C.3       1 NON        -0.0669 
     15 C11        30.2940   25.7470   32.0750 C.ar      1 NON        -0.1529 
     16 C12        28.9960   26.0850   31.7640 C.ar      1 NON        -0.1872 
     17 C13        30.8630   24.5660   31.5850 C.ar      1 NON        -0.1760 
     18 C14        30.0880   23.7210   30.7910 C.ar      1 NON        -0.1827 
     19 C15        28.7710   24.0590   30.4800 C.ar      1 NON        -0.1687 
     20 C16        28.2120   25.2510   30.9750 C.ar      1 NON        -0.1858 
     21 C17        31.9550   27.5830   32.0860 C.3       1 NON        -0.0395 
     22 N18        31.3000   28.2190   30.9480 N.4       1 NON         0.2192 
     23 C2'        27.2420   29.3220   31.8120 C.3       1 NON        -0.0794 
     24 O2'        28.3830   28.5410   31.4480 O.3       1 NON        -0.8504 
     25 C3'        26.4800   28.4650   32.8020 C.3       1 NON        -0.1045 
     26 O3'        27.3730   27.4650   33.2660 O.3       1 NON        -0.8522 
     27 C4'        25.4370   27.7930   31.9390 C.3       1 NON         0.0776 
     28 O4'        25.4140   28.4330   30.6680 O.3       1 NON        -0.3437 
     29 C5'        24.0450   27.9110   32.5160 C.3       1 NON         0.1069 
     30 O5'        23.1950   27.2890   31.5730 O.3       1 NON        -0.2804 
     31 O1P        21.4100   27.5620   33.3260 O.co2     1 NON        -0.6222 
     32 O2P        21.2120   25.7140   31.4680 O.co2     1 NON        -0.6222 
     33 O1         29.8890   27.6890   33.1990 O.3       1 NON        -0.8395 
     34 H1         21.0969   27.7176   31.3354 H         1 NON         0.1780 
     35 H2         24.6203   32.5840   26.7848 H         1 NON         0.0996 
     36 H3         23.8427   35.1185   31.4611 H         1 NON         0.1820 
     37 H4         23.4783   35.8283   29.8654 H         1 NON         0.1820 
     38 H5         25.7005   31.0109   33.0342 H         1 NON         0.1349 
     39 H6         26.7952   29.5797   29.6847 H         1 NON         0.0956 
     40 H7         31.4151   26.3382   33.8310 H         1 NON         0.0315 
     41 H9         31.8905   24.3119   31.8190 H         1 NON        -0.0190 
     42 H10        30.5112   22.7971   30.4137 H         1 NON        -0.0146 
     43 H11        28.1770   23.4016   29.8555 H         1 NON         0.0333 
     44 H12        27.1862   25.5152   30.7449 H         1 NON        -0.0149 
     45 H13        32.7421   26.9100   31.7152 H         1 NON         0.0826 
     46 H14        32.4061   28.3609   32.7195 H         1 NON         0.0826 
     47 H15        31.9796   28.7426   30.4188 H         1 NON         0.1995 
     48 H16        30.5801   28.8417   31.2796 H         1 NON         0.1995 
     49 H17        30.8879   27.5121   30.3593 H         1 NON         0.1995 
     50 H18        27.5527   30.2848   32.2438 H         1 NON         0.0156 
     51 H20        26.0434   29.0453   33.6282 H         1 NON         0.0129 
     52 H22        25.6963   26.7302   31.8242 H         1 NON         0.0613 
     53 H23        23.7696   28.9682   32.6441 H         1 NON         0.0648 
     54 H24        23.9855   27.3964   33.4863 H         1 NON         0.0648 
@<TRIPOS>BOND
     1    1   16 1    
     2    1   24 1    
     3   26    1 1    
     4   30    2 1    
     5    2   31 ar   
     6    2   32 ar   
     7    4    3 ar   
     8    8    3 ar   
     9    5    4 ar   
    10    6    5 ar   
    11    6    7 ar   
    12   12    6 1    
    13    7    8 ar   
    14   10    7 1    
    15    8    9 1    
    16   11   10 2    
    17   12   11 1    
    18   13   12 1    
    19   13   23 1    
    20   28   13 1    
    21   15   14 1    
    22   14   21 1    
    23   14   33 1    
    24   16   15 ar   
    25   15   17 ar   
    26   16   20 ar   
    27   17   18 ar   
    28   19   18 ar   
    29   20   19 ar   
    30   21   22 1    
    31   23   24 1    
    32   25   23 1    
    33   25   26 1    
    34   27   25 1    
    35   27   28 1    
    36   29   27 1    
    37   29   30 1    
    38    2   34 1    
    39    4   35 1    
    40    9   36 1    
    41    9   37 1    
    42   11   38 1    
    43   13   39 1    
    44   14   40 1    
    45   17   41 1    
    46   18   42 1    
    47   19   43 1    
    48   20   44 1    
    49   21   45 1    
    50   21   46 1    
    51   22   47 1    
    52   22   48 1    
    53   22   49 1    
    54   23   50 1    
    55   25   51 1    
    56   27   52 1    
    57   29   53 1    
    58   29   54 1    
    59   33    1 du   
@<TRIPOS>SUBSTRUCTURE
     1 NON         1 PERM              0 ****  ****    0 ROOT 
