#	Name:			3zju_ligand
#	Creating user name:	wangrx
#	Creation time:		Wed Aug  4 17:01:02 2021

#	Modifying user name:	wangrx
#	Modification time:	Wed Aug  4 17:01:38 2021

@<TRIPOS>MOLECULE
3zju_ligand
   59    64     1     0     0
SMALL
GAST_HUCK


@<TRIPOS>ATOM
      1 B          28.6260   27.8430   33.2230 B         1 NON         3.0000 
      2 P          22.0150   27.5550   32.4090 P.3       1 NON         0.1064 
      3 N1         24.2560   34.3610   29.2690 N.ar      1 NON        -0.2698 
      4 O1         29.5940   28.5610   34.1650 O.3       1 NON        -0.8503 
      5 C2         24.8360   33.3630   28.5630 C.ar      1 NON         0.0533 
      6 N3         25.3400   32.2810   29.1700 N.ar      1 NON        -0.2714 
      7 C4         25.2690   32.1450   30.5270 C.ar      1 NON         0.1612 
      8 C5         24.6410   33.1360   31.2530 C.ar      1 NON         0.1045 
      9 C6         24.1430   34.2720   30.6040 C.ar      1 NON         0.1298 
     10 N6         23.5220   35.2810   31.2830 N.pl3     1 NON        -0.3152 
     11 N7         24.6950   32.7620   32.5300 N.2       1 NON        -0.2958 
     12 C8         25.3340   31.5630   32.6170 C.2       1 NON         0.1121 
     13 N9         25.6630   31.1740   31.3890 N.pl3     1 NON        -0.1957 
     14 C1'        26.4690   29.9690   31.0870 C.3       1 NON         0.1596 
     15 C10        30.8820   27.9160   34.2490 C.3       1 NON        -0.1389 
     16 C11        30.6880   26.6960   33.3710 C.ar      1 NON        -0.1742 
     17 C12        29.4340   26.6450   32.7970 C.ar      1 NON        -0.1618 
     18 C13        31.6490   25.6950   33.1720 C.ar      1 NON        -0.1780 
     19 C14        31.3220   24.5960   32.3660 C.ar      1 NON        -0.2053 
     20 C15        30.0500   24.5230   31.7780 C.ar      1 NON        -0.1539 
     21 C16        29.0820   25.5370   32.0040 C.ar      1 NON        -0.0161 
     22 O17        27.8600   25.3830   31.3970 O.3       1 NON        -0.3446 
     23 C18        27.7580   24.3310   30.4170 C.3       1 NON         0.0685 
     24 C19        26.3120   23.9850   30.1000 C.3       1 NON        -0.0021 
     25 C2'        27.1780   29.5810   32.3790 C.3       1 NON        -0.0794 
     26 O2'        28.3950   28.9120   32.1380 O.3       1 NON        -0.8504 
     27 C20        25.6900   25.0520   29.2060 C.3       1 NON         0.0466 
     28 O21        24.2930   25.1170   29.5060 O.3       1 NON        -0.3949 
     29 C3'        26.3920   28.4430   32.9640 C.3       1 NON        -0.1045 
     30 O3'        27.3630   27.6260   33.6070 O.3       1 NON        -0.8522 
     31 C4'        25.8750   27.8030   31.6790 C.3       1 NON         0.0776 
     32 O4'        25.7070   28.8490   30.7060 O.3       1 NON        -0.3437 
     33 C5'        24.5430   27.0990   31.8700 C.3       1 NON         0.1069 
     34 O5'        23.5290   28.0490   32.1870 O.3       1 NON        -0.2804 
     35 OP1        21.7590   26.1730   31.8830 O.co2     1 NON        -0.6222 
     36 OP2        21.6860   27.8760   33.8400 O.co2     1 NON        -0.6222 
     37 H1         21.4236   28.1502   31.8505 H         1 NON         0.1780 
     38 H3         24.8939   33.4410   27.4834 H         1 NON         0.0996 
     39 H4         23.4262   35.2298   32.3073 H         1 NON         0.1820 
     40 H5         23.1494   36.0933   30.7709 H         1 NON         0.1820 
     41 H6         25.5404   31.0159   33.5357 H         1 NON         0.1349 
     42 H7         27.1950   30.2049   30.2950 H         1 NON         0.0956 
     43 H8         31.1172   27.6286   35.2844 H         1 NON         0.0155 
     44 H9         31.6793   28.5654   33.8585 H         1 NON         0.0155 
     45 H11        32.6272   25.7696   33.6331 H         1 NON         0.0138 
     46 H12        32.0468   23.8077   32.1980 H         1 NON        -0.0380 
     47 H13        29.8028   23.6805   31.1422 H         1 NON        -0.0074 
     48 H14        28.2606   23.4333   30.8062 H         1 NON         0.0610 
     49 H15        28.2557   24.6580   29.4921 H         1 NON         0.0610 
     50 H16        25.7412   23.9214   31.0381 H         1 NON         0.0313 
     51 H17        26.2771   23.0147   29.5831 H         1 NON         0.0313 
     52 H18        27.2902   30.4438   33.0520 H         1 NON         0.0156 
     53 H20        25.8331   24.7838   28.1489 H         1 NON         0.0558 
     54 H21        26.1605   26.0264   29.4041 H         1 NON         0.0558 
     55 H22        23.8833   25.7771   28.9594 H         1 NON         0.2094 
     56 H23        25.5868   28.7463   33.6493 H         1 NON         0.0129 
     57 H25        26.6147   27.0728   31.3189 H         1 NON         0.0613 
     58 H26        24.6300   26.3719   32.6908 H         1 NON         0.0648 
     59 H27        24.2725   26.5739   30.9421 H         1 NON         0.0648 
@<TRIPOS>BOND
     1    1    4 1    
     2    1   17 1    
     3   30    1 1    
     4   34    2 1    
     5    2   35 ar   
     6    2   36 ar   
     7    5    3 ar   
     8    9    3 ar   
     9    4   15 1    
    10    6    5 ar   
    11    7    6 ar   
    12    7    8 ar   
    13   13    7 1    
    14    8    9 ar   
    15   11    8 1    
    16    9   10 1    
    17   12   11 2    
    18   13   12 1    
    19   14   13 1    
    20   14   25 1    
    21   32   14 1    
    22   16   15 1    
    23   17   16 ar   
    24   16   18 ar   
    25   17   21 ar   
    26   18   19 ar   
    27   20   19 ar   
    28   21   20 ar   
    29   21   22 1    
    30   22   23 1    
    31   23   24 1    
    32   24   27 1    
    33   25   26 1    
    34   29   25 1    
    35   27   28 1    
    36   29   30 1    
    37   31   29 1    
    38   31   32 1    
    39   33   31 1    
    40   33   34 1    
    41    2   37 1    
    42    1   26 1    
    43    5   38 1    
    44   10   39 1    
    45   10   40 1    
    46   12   41 1    
    47   14   42 1    
    48   15   43 1    
    49   15   44 1    
    50   18   45 1    
    51   19   46 1    
    52   20   47 1    
    53   23   48 1    
    54   23   49 1    
    55   24   50 1    
    56   24   51 1    
    57   25   52 1    
    58   27   53 1    
    59   27   54 1    
    60   28   55 1    
    61   29   56 1    
    62   31   57 1    
    63   33   58 1    
    64   33   59 1    
@<TRIPOS>SUBSTRUCTURE
     1 NON         1 PERM              0 ****  ****    0 ROOT 
