#	Name:			3zjv_ligand
#	Creating user name:	wangrx
#	Creation time:		Wed Aug  4 17:03:04 2021

#	Modifying user name:	wangrx
#	Modification time:	Wed Aug  4 17:07:50 2021

@<TRIPOS>MOLECULE
3zjv_ligand
   65    70     1     0     0
SMALL
GAST_HUCK


@<TRIPOS>ATOM
      1 O3P        52.5130  -19.4390   32.7400 O.co2     1 NON        -0.5537 
      2 B          53.6970  -26.6350   32.8890 B         1 NON         3.0000 
      3 P          51.6520  -20.0430   31.6710 P.3       1 NON         0.2008 
      4 N1         57.0390  -22.0300   26.3200 N.ar      1 NON        -0.2698 
      5 O1         54.5700  -27.5530   33.5350 O.3       1 NON        -0.8443 
      6 C2         55.9640  -22.8450   26.2920 C.ar      1 NON         0.0533 
      7 N3         55.4450  -23.4000   27.3980 N.ar      1 NON        -0.2714 
      8 C4         56.0370  -23.1260   28.5750 C.ar      1 NON         0.1612 
      9 C5         57.1260  -22.2690   28.6390 C.ar      1 NON         0.1045 
     10 C6         57.6370  -21.7220   27.4830 C.ar      1 NON         0.1298 
     11 N6         58.7030  -20.8850   27.5340 N.pl3     1 NON        -0.3152 
     12 N7         57.4970  -22.1590   29.9240 N.2       1 NON        -0.2958 
     13 C8         56.6530  -22.9360   30.6300 C.2       1 NON         0.1121 
     14 N9         55.7630  -23.5270   29.8100 N.pl3     1 NON        -0.1957 
     15 C1'        54.6740  -24.4820   30.1380 C.3       1 NON         0.1596 
     16 C10        53.9910  -28.8400   33.7900 C.3       1 NON        -0.0837 
     17 C11        52.5840  -28.6410   33.4160 C.ar      1 NON        -0.1663 
     18 C12        52.3980  -27.3360   32.8260 C.ar      1 NON        -0.1614 
     19 C13        51.5460  -29.5510   33.5280 C.ar      1 NON        -0.1776 
     20 C14        50.2840  -29.1690   33.0910 C.ar      1 NON        -0.2052 
     21 C16        51.1250  -26.9810   32.3970 C.ar      1 NON        -0.0161 
     22 C17        54.5870  -29.8830   32.8600 C.3       1 NON        -0.0444 
     23 N18        54.6070  -29.4090   31.4690 N.4       1 NON         0.2187 
     24 O19        50.8680  -25.7550   31.8410 O.3       1 NON        -0.3446 
     25 O1P        50.1400  -19.8390   31.7360 O.co2     1 NON        -0.5537 
     26 C2'        54.9430  -25.2440   31.4160 C.3       1 NON        -0.0794 
     27 O2'        54.1800  -26.4670   31.5610 O.3       1 NON        -0.8504 
     28 C20        49.5120  -25.3010   31.7520 C.3       1 NON         0.0685 
     29 C21        49.4530  -24.0050   30.9730 C.3       1 NON        -0.0021 
     30 C22        48.8370  -24.2660   29.6090 C.3       1 NON         0.0466 
     31 O23        48.0220  -23.1440   29.2670 O.3       1 NON        -0.3949 
     32 C3'        54.3510  -24.3650   32.4670 C.3       1 NON        -0.1046 
     33 O3'        53.8370  -25.3000   33.3860 O.3       1 NON        -0.8522 
     34 C4'        53.2540  -23.5950   31.7510 C.3       1 NON         0.0767 
     35 O4'        53.4260  -23.8390   30.3420 O.3       1 NON        -0.3438 
     36 C5'        53.2530  -22.1030   31.9740 C.3       1 NON         0.1036 
     37 O5'        52.0350  -21.5680   31.4250 O.3       1 NON        -0.2735 
     38 O2         52.0576  -19.3255   30.4297 O.co2     1 NON        -0.5537 
     39 C3         50.0764  -27.8276   32.5267 C.ar      1 NON        -0.1539 
     40 H2         55.5003  -23.0604   25.3362 H         1 NON         0.0996 
     41 H3         59.1427  -20.6657   28.4392 H         1 NON         0.1820 
     42 H4         59.0728  -20.4687   26.6675 H         1 NON         0.1820 
     43 H5         56.6857  -23.0676   31.7105 H         1 NON         0.1349 
     44 H6         54.5842  -25.1920   29.3026 H         1 NON         0.0956 
     45 H7         54.1066  -29.1416   34.8415 H         1 NON         0.0245 
     46 H9         51.7142  -30.5368   33.9463 H         1 NON         0.0138 
     47 H10        49.4522  -29.8601   33.1661 H         1 NON        -0.0380 
     48 H11        53.9834  -30.8008   32.9171 H         1 NON         0.0819 
     49 H12        55.6169  -30.1010   33.1791 H         1 NON         0.0819 
     50 H13        55.0067  -30.1205   30.8773 H         1 NON         0.1995 
     51 H14        55.1625  -28.5701   31.4078 H         1 NON         0.1995 
     52 H15        53.6656  -29.2114   31.1678 H         1 NON         0.1995 
     53 H16        56.0194  -25.4276   31.5491 H         1 NON         0.0156 
     54 H18        49.1153  -25.1362   32.7646 H         1 NON         0.0610 
     55 H19        48.9053  -26.0623   31.2398 H         1 NON         0.0610 
     56 H20        50.4702  -23.6059   30.8464 H         1 NON         0.0313 
     57 H21        48.8382  -23.2752   31.5201 H         1 NON         0.0313 
     58 H22        48.2209  -25.1765   29.6464 H         1 NON         0.0558 
     59 H23        49.6318  -24.3916   28.8590 H         1 NON         0.0558 
     60 H24        47.6266  -23.2877   28.4152 H         1 NON         0.2094 
     61 H25        55.0797  -23.6867   32.9349 H         1 NON         0.0129 
     62 H27        52.2821  -23.9896   32.0820 H         1 NON         0.0612 
     63 H28        54.1193  -21.6503   31.4695 H         1 NON         0.0638 
     64 H29        53.3022  -21.8873   33.0515 H         1 NON         0.0638 
     65 H30        49.0858  -27.5168   32.2151 H         1 NON        -0.0074 
@<TRIPOS>BOND
     1    3    1 ar   
     2    2    5 1    
     3    2   27 1    
     4   33    2 1    
     5    3   25 ar   
     6   37    3 1    
     7    6    4 ar   
     8   10    4 ar   
     9    5   16 1    
    10    7    6 ar   
    11    8    7 ar   
    12    8    9 ar   
    13   14    8 1    
    14    9   10 ar   
    15   12    9 1    
    16   10   11 1    
    17   13   12 2    
    18   14   13 1    
    19   15   14 1    
    20   15   26 1    
    21   35   15 1    
    22   16   17 1    
    23   16   22 1    
    24   17   18 ar   
    25   17   19 ar   
    26   18   21 ar   
    27   19   20 ar   
    28   21   24 1    
    29   22   23 1    
    30   24   28 1    
    31   26   27 1    
    32   32   26 1    
    33   28   29 1    
    34   29   30 1    
    35   30   31 1    
    36   32   33 1    
    37   34   32 1    
    38   34   35 1    
    39   36   34 1    
    40   36   37 1    
    41    3   38 ar   
    42   20   39 ar   
    43   21   39 ar   
    44   18    2 1    
    45    6   40 1    
    46   11   41 1    
    47   11   42 1    
    48   13   43 1    
    49   15   44 1    
    50   16   45 1    
    51   19   46 1    
    52   20   47 1    
    53   22   48 1    
    54   22   49 1    
    55   23   50 1    
    56   23   51 1    
    57   23   52 1    
    58   26   53 1    
    59   28   54 1    
    60   28   55 1    
    61   29   56 1    
    62   29   57 1    
    63   30   58 1    
    64   30   59 1    
    65   31   60 1    
    66   32   61 1    
    67   34   62 1    
    68   36   63 1    
    69   36   64 1    
    70   39   65 1    
@<TRIPOS>SUBSTRUCTURE
     1 NON         1 PERM              0 ****  ****    0 ROOT 
