11gs_ligand
                    3D
 Schrodinger Suite 2020-3.
 66 66  0  0  1  0            999 V2000
   14.7090   10.7820   23.2520 N   0  3  0  0  0  0
   14.6200    9.9440   24.4710 C   0  0  2  0  0  0
   15.7480    8.9120   24.4560 C   0  0  0  0  0  0
   16.0850    8.4010   25.5410 O   0  0  0  0  0  0
   16.3130    8.6420   23.3670 O   0  5  0  0  0  0
   13.2690    9.2400   24.5300 C   0  0  0  0  0  0
   12.9530    8.6610   25.9060 C   0  0  0  0  0  0
   11.5780    8.0220   25.9870 C   0  0  0  0  0  0
   10.7970    8.0380   25.0250 O   0  0  0  0  0  0
   11.2470    7.5340   27.1750 N   0  0  0  0  0  0
    9.9720    6.8700   27.4160 C   0  0  2  0  0  0
    9.3670    7.3930   28.7190 C   0  0  0  0  0  0
   10.0850    7.8880   29.5910 O   0  0  0  0  0  0
   10.2030    5.3550   27.5530 C   0  0  0  0  0  0
   11.4450    4.7020   26.3760 S   0  0  0  0  0  0
    8.0510    7.2770   28.8380 N   0  0  0  0  0  0
    7.3820    7.6900   30.0580 C   0  0  0  0  0  0
    6.9000    9.1180   30.0690 C   0  0  0  0  0  0
    6.0060    9.4220   30.8870 O   0  0  0  0  0  0
    7.3950    9.9270   29.2540 O   0  5  0  0  0  0
    5.7920    2.7370   28.0810 C   0  0  0  0  0  0
    5.1050    2.1790   29.1650 O   0  0  0  0  0  0
    7.1260    2.3100   27.8760 C   0  0  0  0  0  0
    7.8880    2.8040   26.8050 C   0  0  0  0  0  0
    7.3230    3.7760   25.8990 C   0  0  0  0  0  0
    5.9880    4.1980   26.1300 C   0  0  0  0  0  0
    5.2430    3.6890   27.1990 C   0  0  0  0  0  0
    8.0950    4.3720   24.7030 C   0  0  0  0  0  0
    7.5850    5.1970   23.9310 O   0  0  0  0  0  0
    9.6100    3.9850   24.4110 C   0  0  1  0  0  0
    9.8770    3.3130   23.0520 C   0  0  0  0  0  0
   11.1860    2.5160   22.9220 C   0  0  0  0  0  0
   10.6730    5.0250   24.7730 C   0  0  0  0  0  0
    4.0210    1.1970   29.0350 C   0  0  0  0  0  0
    3.8530    0.2730   30.2430 C   0  0  0  0  0  0
    4.7490   -0.5720   30.4860 O   0  5  0  0  0  0
    2.8040    0.3540   30.9250 O   0  0  0  0  0  0
    7.8760    1.1450   28.9840 Cl  0  0  0  0  0  0
    9.5230    2.1350   26.6450 Cl  0  0  0  0  0  0
   13.8990   11.5262   23.2587 H   0  0  0  0  0  0
   14.6136   10.1442   22.3609 H   0  0  0  0  0  0
   15.6805   11.2976   23.2317 H   0  0  0  0  0  0
   14.7193   10.6092   25.3414 H   0  0  0  0  0  0
   12.4717    9.9551   24.2792 H   0  0  0  0  0  0
   13.2566    8.4093   23.8090 H   0  0  0  0  0  0
   13.6934    7.8871   26.1570 H   0  0  0  0  0  0
   12.9908    9.4624   26.6585 H   0  0  0  0  0  0
   11.9732    7.6441   27.9938 H   0  0  0  0  0  0
    9.3264    7.1050   26.5569 H   0  0  0  0  0  0
   10.5586    5.1287   28.5691 H   0  0  0  0  0  0
    9.2588    4.8219   27.3678 H   0  0  0  0  0  0
    7.4662    6.8640   28.0028 H   0  0  0  0  0  0
    6.4970    7.0579   30.2229 H   0  0  0  0  0  0
    8.0718    7.5841   30.9083 H   0  0  0  0  0  0
    5.5352    4.9315   25.4629 H   0  0  0  0  0  0
    4.2207    4.0346   27.3523 H   0  0  0  0  0  0
    9.8039    3.1936   25.1500 H   0  0  0  0  0  0
    9.0694    2.5997   22.8307 H   0  0  0  0  0  0
    9.9146    4.0802   22.2646 H   0  0  0  0  0  0
   11.2565    2.0891   21.9107 H   0  0  0  0  0  0
   11.1962    1.7042   23.6642 H   0  0  0  0  0  0
   12.0414    3.1847   23.0982 H   0  0  0  0  0  0
   10.1871    6.0117   24.7922 H   0  0  0  0  0  0
   11.4416    5.0100   23.9862 H   0  0  0  0  0  0
    3.0644    1.7227   28.8992 H   0  0  0  0  0  0
    4.2122    0.5529   28.1641 H   0  0  0  0  0  0
  1  2  1  0  0  0
  1 40  1  0  0  0
  1 41  1  0  0  0
  1 42  1  0  0  0
  2  6  1  0  0  0
  2  3  1  0  0  0
  2 43  1  0  0  0
  3  5  1  0  0  0
  3  4  2  0  0  0
  6  7  1  0  0  0
  6 44  1  0  0  0
  6 45  1  0  0  0
  7  8  1  0  0  0
  7 46  1  0  0  0
  7 47  1  0  0  0
  8 10  1  0  0  0
  8  9  2  0  0  0
 10 11  1  0  0  0
 10 48  1  0  0  0
 11 14  1  0  0  0
 11 12  1  0  0  0
 11 49  1  0  0  0
 12 16  1  0  0  0
 12 13  2  0  0  0
 14 15  1  0  0  0
 14 50  1  0  0  0
 14 51  1  0  0  0
 15 33  1  0  0  0
 16 17  1  0  0  0
 16 52  1  0  0  0
 17 18  1  0  0  0
 17 53  1  0  0  0
 17 54  1  0  0  0
 18 20  1  0  0  0
 18 19  2  0  0  0
 21 27  2  0  0  0
 21 23  1  0  0  0
 21 22  1  0  0  0
 22 34  1  0  0  0
 23 24  2  0  0  0
 23 38  1  0  0  0
 24 25  1  0  0  0
 24 39  1  0  0  0
 25 28  1  0  0  0
 25 26  2  0  0  0
 26 27  1  0  0  0
 26 55  1  0  0  0
 27 56  1  0  0  0
 28 30  1  0  0  0
 28 29  2  0  0  0
 30 33  1  0  0  0
 30 31  1  0  0  0
 30 57  1  0  0  0
 31 32  1  0  0  0
 31 58  1  0  0  0
 31 59  1  0  0  0
 32 60  1  0  0  0
 32 61  1  0  0  0
 32 62  1  0  0  0
 33 63  1  0  0  0
 33 64  1  0  0  0
 34 35  1  0  0  0
 34 65  1  0  0  0
 34 66  1  0  0  0
 35 37  2  0  0  0
 35 36  1  0  0  0
M  CHG  4   1   1   5  -1  20  -1  36  -1
M  END
> <s_m_source_file>
../11gs_ligand.sdf

> <i_m_source_file_index>
1

> <s_epik_input>
Tz1DKFtPSF0pW0NAQEhdKFtOSDMrXSlbQ0gyXVtDSDJdQyg9TylbTkhdW0NASF0oQyg9TylbTkhdW0NIMl1DKD1PKVtPSF0pW0NIMl1TW0NIMl1bQ0BIXShbQ0gyXVtDSDNdKUMoPU8pYyhbY0hdW2NIXTEpYyhDbCljKENsKWMxT1tDSDJdQyg9TylbT0hd

> <s_epik_cmdline>
J2VwaWtfYXBwJywgJy1pbWFlJywgJ2xpZ2FuZF9wcm8ubWFlJywgJy1vbWFlJywgJ2xpZ2FuZF9wcmVwLm1hZScsICctbXMnLCAnMScsICctcGgnLCAnNycsICctcGh0JywgJzAuNScsICctbnQn

> <r_lp_tautomer_probability>
1

> <r_epik_Ionization_Penalty>
  0.0026

> <r_epik_Ionization_Penalty_Charging>
  0.0026

> <r_epik_Ionization_Penalty_Neutral>
  0.0000

> <r_epik_State_Penalty>
 -0.0000

> <r_epik_Charging_Adjusted_Penalty>
0.00258300423118647

> <i_epik_Tot_Q>
-2

> <i_epik_Tot_abs_Q>
4

$$$$
