16pk_ligand
                    3D
 Schrodinger Suite 2020-3.
 57 59  0  0  1  0            999 V2000
  -10.9500   43.3720    1.3240 P   0  0  1  0  0  0
  -10.7050   44.1560    2.7080 O   0  5  0  0  0  0
  -12.3570   42.9850    1.0240 O   0  0  0  0  0  0
  -10.5430   44.7100   -1.2360 P   0  0  1  0  0  0
   -9.2280   44.3240   -1.7890 O   0  5  0  0  0  0
  -11.6620   44.1010   -1.9750 O   0  0  0  0  0  0
  -10.5050   44.4330    0.3040 O   0  0  0  0  0  0
  -10.6830   46.2930   -1.1960 O   0  0  0  0  0  0
   -9.7680   47.0560   -0.3860 C   0  0  0  0  0  0
   -9.2850   48.1550   -1.2910 C   0  0  1  0  0  0
  -10.3940   48.8990   -1.8350 O   0  0  0  0  0  0
   -8.3010   49.1040   -0.6250 C   0  0  1  0  0  0
   -7.0060   49.1130   -1.2160 O   0  0  0  0  0  0
   -9.0170   50.4470   -0.6620 C   0  0  1  0  0  0
   -8.1400   51.5930   -0.7490 O   0  0  0  0  0  0
   -9.9620   50.2590   -1.8420 C   0  0  2  0  0  0
  -11.0720   51.2710   -1.8030 N   0  0  0  0  0  0
  -11.9620   51.4490   -0.8210 C   0  0  0  0  0  0
  -12.7130   52.5090   -1.1270 N   0  0  0  0  0  0
  -12.3120   53.0210   -2.2690 C   0  0  0  0  0  0
  -12.6830   54.1210   -3.0360 C   0  0  0  0  0  0
  -13.6790   54.9520   -2.6120 N   0  0  0  0  0  0
  -12.0100   54.3360   -4.2050 N   0  0  0  0  0  0
  -11.0210   53.5330   -4.6310 C   0  0  0  0  0  0
  -10.6510   52.4780   -3.8870 N   0  0  0  0  0  0
  -11.2600   52.1990   -2.7250 C   0  0  0  0  0  0
   -9.8530   41.9250    1.2870 C   0  0  0  0  0  0
   -9.8770   41.4200    0.0380 F   0  0  0  0  0  0
  -10.3230   41.0660    2.1810 F   0  0  0  0  0  0
   -8.4430   42.3490    1.6950 C   0  0  0  0  0  0
   -7.4780   41.1570    1.6240 C   0  0  0  0  0  0
   -6.5430   41.1960    2.8350 C   0  0  0  0  0  0
   -5.2750   40.3280    2.6630 C   0  0  0  0  0  0
   -4.9130   40.0900    1.4110 F   0  0  0  0  0  0
   -4.2630   40.9560    3.2220 F   0  0  0  0  0  0
   -5.4520   38.7220    3.4960 P   0  0  0  0  0  0
   -6.3420   37.7990    2.6560 O   0  5  0  0  0  0
   -4.0650   38.0680    3.6150 O   0  5  0  0  0  0
   -5.9400   38.9810    4.9200 O   0  0  0  0  0  0
  -10.2988   47.4527    0.4920 H   0  0  0  0  0  0
   -8.9438   46.4076   -0.0541 H   0  0  0  0  0  0
   -8.7833   47.6649   -2.1384 H   0  0  0  0  0  0
   -7.9861   48.7906    0.3813 H   0  0  0  0  0  0
   -6.4060   48.1914   -1.2400 H   0  0  0  0  0  0
   -9.5111   50.7406    0.2759 H   0  0  0  0  0  0
   -7.4260   51.8019    0.0613 H   0  0  0  0  0  0
   -9.4837   50.3872   -2.8242 H   0  0  0  0  0  0
  -12.0576   50.8347    0.0743 H   0  0  0  0  0  0
  -14.1996   54.7479   -1.6647 H   0  0  0  0  0  0
  -13.9612   55.8259   -3.2175 H   0  0  0  0  0  0
  -10.5204   53.7371   -5.5775 H   0  0  0  0  0  0
   -8.0861   43.1371    1.0157 H   0  0  0  0  0  0
   -8.4594   42.7331    2.7256 H   0  0  0  0  0  0
   -8.0527   40.2191    1.6306 H   0  0  0  0  0  0
   -6.8869   41.2183    0.6983 H   0  0  0  0  0  0
   -6.2127   42.2305    3.0100 H   0  0  0  0  0  0
   -7.0772   40.8265    3.7228 H   0  0  0  0  0  0
  1  3  2  0  0  0
  1 27  1  0  0  0
  1  7  1  0  0  0
  1  2  1  0  0  0
  4  6  2  0  0  0
  4  7  1  0  0  0
  4  5  1  0  0  0
  4  8  1  0  0  0
  8  9  1  0  0  0
  9 10  1  0  0  0
  9 40  1  0  0  0
  9 41  1  0  0  0
 10 11  1  0  0  0
 10 12  1  0  0  0
 10 42  1  0  0  0
 11 16  1  0  0  0
 12 14  1  0  0  0
 12 13  1  0  0  0
 12 43  1  0  0  0
 13 44  1  0  0  0
 14 16  1  0  0  0
 14 15  1  0  0  0
 14 45  1  0  0  0
 15 46  1  0  0  0
 16 17  1  0  0  0
 16 47  1  0  0  0
 17 18  1  0  0  0
 17 26  1  0  0  0
 18 19  2  0  0  0
 18 48  1  0  0  0
 19 20  1  0  0  0
 20 26  2  0  0  0
 20 21  1  0  0  0
 21 22  1  0  0  0
 21 23  2  0  0  0
 22 49  1  0  0  0
 22 50  1  0  0  0
 23 24  1  0  0  0
 24 25  2  0  0  0
 24 51  1  0  0  0
 25 26  1  0  0  0
 27 28  1  0  0  0
 27 30  1  0  0  0
 27 29  1  0  0  0
 30 31  1  0  0  0
 30 52  1  0  0  0
 30 53  1  0  0  0
 31 32  1  0  0  0
 31 54  1  0  0  0
 31 55  1  0  0  0
 32 33  1  0  0  0
 32 56  1  0  0  0
 32 57  1  0  0  0
 33 36  1  0  0  0
 33 34  1  0  0  0
 33 35  1  0  0  0
 36 37  1  0  0  0
 36 39  2  0  0  0
 36 38  1  0  0  0
M  CHG  4   2  -1   5  -1  37  -1  38  -1
M  END
> <s_m_source_file>
../16pk_ligand.sdf

> <i_m_source_file_index>
1

> <s_epik_input>
W09IXVAoPU8pKFtPSF0pQyhGKShGKVtDSDJdW0NIMl1bQ0gyXUMoRikoRilbUEBAXSg9TykoW09IXSlPW1BAXSg9TykoW09IXSlPW0NIMl1bQ0BIXTFPW0NASF0oW0NASF0oW09IXSlbQ0BASF0xW09IXSluKFtjSF1uMiljKGMyMyluW2NIXW5jM1tOSDJd

> <s_epik_cmdline>
J2VwaWtfYXBwJywgJy1pbWFlJywgJ2xpZ2FuZF9wcm8ubWFlJywgJy1vbWFlJywgJ2xpZ2FuZF9wcmVwLm1hZScsICctbXMnLCAnMScsICctcGgnLCAnNycsICctcGh0JywgJzAuNScsICctbnQn

> <r_lp_tautomer_probability>
0.999997216410988

> <r_epik_Ionization_Penalty>
  0.0254

> <r_epik_Ionization_Penalty_Charging>
  0.0249

> <r_epik_Ionization_Penalty_Neutral>
  0.0004

> <r_epik_State_Penalty>
  0.0201

> <r_epik_Charging_Adjusted_Penalty>
0.0450236471283993

> <i_epik_Tot_Q>
-4

> <i_epik_Tot_abs_Q>
4

> <s_epik_Chemistry_Notes>
This compound contains an acetal/aminal-like group ( X-CH(R)-Y where X, Y are N, S, or O) that may be acid/base labile, releasing an aldehyde.

$$$$
