184l_ligand
                    3D
 Schrodinger Suite 2020-3.
 24 24  0  0  1  0            999 V2000
   27.3570    6.7720    3.3880 C   0  0  0  0  0  0
   27.3210    7.2930    4.6580 C   0  0  0  0  0  0
   26.5680    6.6500    5.6700 C   0  0  0  0  0  0
   25.8310    5.5260    5.3590 C   0  0  0  0  0  0
   25.8870    4.9870    4.0770 C   0  0  0  0  0  0
   26.6640    5.6070    3.0880 C   0  0  0  0  0  0
   28.1350    7.4950    2.3350 C   0  0  0  0  0  0
   27.1650    8.3380    1.5330 C   0  0  0  0  0  0
   27.8680    8.7990    0.2910 C   0  0  0  0  0  0
   26.6640    9.5080    2.3390 C   0  0  0  0  0  0
   27.8736    8.2040    4.8876 H   0  0  0  0  0  0
   26.5706    7.0403    6.6877 H   0  0  0  0  0  0
   25.2038    5.0593    6.1185 H   0  0  0  0  0  0
   25.3265    4.0823    3.8416 H   0  0  0  0  0  0
   26.7236    5.1763    2.0885 H   0  0  0  0  0  0
   28.8907    8.1360    2.8126 H   0  0  0  0  0  0
   28.6341    6.7645    1.6814 H   0  0  0  0  0  0
   26.2813    7.7439    1.2570 H   0  0  0  0  0  0
   28.2219    7.9252   -0.2758 H   0  0  0  0  0  0
   28.7264    9.4287    0.5679 H   0  0  0  0  0  0
   27.1713    9.3813   -0.3300 H   0  0  0  0  0  0
   26.1541    9.1400    3.2416 H   0  0  0  0  0  0
   25.9585   10.0954    1.7330 H   0  0  0  0  0  0
   27.5136   10.1428    2.6309 H   0  0  0  0  0  0
  1  2  2  0  0  0
  1  6  1  0  0  0
  1  7  1  0  0  0
  2  3  1  0  0  0
  2 11  1  0  0  0
  3  4  2  0  0  0
  3 12  1  0  0  0
  4  5  1  0  0  0
  4 13  1  0  0  0
  5  6  2  0  0  0
  5 14  1  0  0  0
  6 15  1  0  0  0
  7  8  1  0  0  0
  7 16  1  0  0  0
  7 17  1  0  0  0
  8  9  1  0  0  0
  8 10  1  0  0  0
  8 18  1  0  0  0
  9 19  1  0  0  0
  9 20  1  0  0  0
  9 21  1  0  0  0
 10 22  1  0  0  0
 10 23  1  0  0  0
 10 24  1  0  0  0
M  END
> <s_m_source_file>
../184l_ligand.sdf

> <i_m_source_file_index>
1

> <s_epik_input>
W0NIM11bQ0hdKFtDSDNdKVtDSDJdYzFbY0hdW2NIXVtjSF1bY0hdW2NIXTE=

> <s_epik_cmdline>
J2VwaWtfYXBwJywgJy1pbWFlJywgJ2xpZ2FuZF9wcm8ubWFlJywgJy1vbWFlJywgJ2xpZ2FuZF9wcmVwLm1hZScsICctbXMnLCAnMScsICctcGgnLCAnNycsICctcGh0JywgJzAuNScsICctbnQn

> <r_lp_tautomer_probability>
1

> <r_epik_Ionization_Penalty>
  0.0000

> <r_epik_Ionization_Penalty_Charging>
  0.0000

> <r_epik_Ionization_Penalty_Neutral>
  0.0000

> <r_epik_State_Penalty>
 -0.0000

> <r_epik_Charging_Adjusted_Penalty>
0

> <i_epik_Tot_Q>
0

> <i_epik_Tot_abs_Q>
0

$$$$
