185l_ligand
                    3D
 Schrodinger Suite 2020-3.
 15 16  0  0  1  0            999 V2000
   28.5560    7.3580    3.1830 N   0  0  0  0  0  0
   28.3670    6.5900    2.0680 C   0  0  0  0  0  0
   27.4810    5.6010    2.3230 C   0  0  0  0  0  0
   26.1410    5.1180    4.4680 C   0  0  0  0  0  0
   26.0020    5.5250    5.7650 C   0  0  0  0  0  0
   26.7180    6.5870    6.2770 C   0  0  0  0  0  0
   27.5970    7.2920    5.5050 C   0  0  0  0  0  0
   27.7470    6.8770    4.1890 C   0  0  0  0  0  0
   27.0540    5.7730    3.6750 C   0  0  0  0  0  0
   28.9079    6.8257    1.1396 H   0  0  0  0  0  0
   27.0790    4.7732    1.7204 H   0  0  0  0  0  0
   25.5312    4.2869    4.0840 H   0  0  0  0  0  0
   25.3030    5.0014    6.4338 H   0  0  0  0  0  0
   26.5793    6.8698    7.3205 H   0  0  0  0  0  0
   28.1724    8.1513    5.8797 H   0  0  0  0  0  0
  1  2  2  0  0  0
  1  8  1  0  0  0
  2  3  1  0  0  0
  2 10  1  0  0  0
  3  9  2  0  0  0
  3 11  1  0  0  0
  4  5  2  0  0  0
  4  9  1  0  0  0
  4 12  1  0  0  0
  5  6  1  0  0  0
  5 13  1  0  0  0
  6  7  1  0  0  0
  6 14  1  0  0  0
  7  8  2  0  0  0
  7 15  1  0  0  0
  8  9  1  0  0  0
M  END
> <s_m_source_file>
../185l_ligand.sdf

> <i_m_source_file_index>
1

> <s_epik_input>
TjE9W0NIXVtDSF09QyhDMTIpW0NIXT1bQ0hdW0NIMl1bQ0hdPTI=

> <s_epik_cmdline>
J2VwaWtfYXBwJywgJy1pbWFlJywgJ2xpZ2FuZF9wcm8ubWFlJywgJy1vbWFlJywgJ2xpZ2FuZF9wcmVwLm1hZScsICctbXMnLCAnMScsICctcGgnLCAnNycsICctcGh0JywgJzAuNScsICctbnQn

> <r_lp_tautomer_probability>
1

> <r_epik_Ionization_Penalty>
  0.0000

> <r_epik_Ionization_Penalty_Charging>
  0.0000

> <r_epik_Ionization_Penalty_Neutral>
  0.0000

> <r_epik_State_Penalty>
 -0.0000

> <r_epik_Charging_Adjusted_Penalty>
0

> <i_epik_Tot_Q>
0

> <i_epik_Tot_abs_Q>
0

> <s_epik_Chemistry_Notes>
This compound has an imine and may undergo hydrolysis.

$$$$
