186l_ligand
                    3D
 Schrodinger Suite 2020-3.
 24 24  0  0  1  0            999 V2000
   27.5330    7.0610    3.9520 C   0  0  0  0  0  0
   26.9940    7.0690    5.2570 C   0  0  0  0  0  0
   26.1900    6.0370    5.6740 C   0  0  0  0  0  0
   25.8970    5.0000    4.8010 C   0  0  0  0  0  0
   26.4420    4.9870    3.5500 C   0  0  0  0  0  0
   27.2550    6.0160    3.1200 C   0  0  0  0  0  0
   28.3470    8.2100    3.4230 C   0  0  0  0  0  0
   27.4170    9.3750    3.0960 C   0  0  0  0  0  0
   26.6450    9.1420    1.8090 C   0  0  0  0  0  0
   27.5330    9.0850    0.6020 C   0  0  0  0  0  0
   27.2161    7.8944    5.9334 H   0  0  0  0  0  0
   25.7842    6.0328    6.6857 H   0  0  0  0  0  0
   25.2315    4.1955    5.1140 H   0  0  0  0  0  0
   26.2323    4.1523    2.8811 H   0  0  0  0  0  0
   27.6755    5.9938    2.1146 H   0  0  0  0  0  0
   29.0773    8.5229    4.1838 H   0  0  0  0  0  0
   28.8780    7.8947    2.5127 H   0  0  0  0  0  0
   26.6919    9.5058    3.9128 H   0  0  0  0  0  0
   28.0086   10.2951    2.9801 H   0  0  0  0  0  0
   26.1039    8.1865    1.8739 H   0  0  0  0  0  0
   25.9261    9.9610    1.6592 H   0  0  0  0  0  0
   26.9207    8.9151   -0.2959 H   0  0  0  0  0  0
   28.2537    8.2618    0.7156 H   0  0  0  0  0  0
   28.0759   10.0363    0.5010 H   0  0  0  0  0  0
  1  2  2  0  0  0
  1  6  1  0  0  0
  1  7  1  0  0  0
  2  3  1  0  0  0
  2 11  1  0  0  0
  3  4  2  0  0  0
  3 12  1  0  0  0
  4  5  1  0  0  0
  4 13  1  0  0  0
  5  6  2  0  0  0
  5 14  1  0  0  0
  6 15  1  0  0  0
  7  8  1  0  0  0
  7 16  1  0  0  0
  7 17  1  0  0  0
  8  9  1  0  0  0
  8 18  1  0  0  0
  8 19  1  0  0  0
  9 10  1  0  0  0
  9 20  1  0  0  0
  9 21  1  0  0  0
 10 22  1  0  0  0
 10 23  1  0  0  0
 10 24  1  0  0  0
M  END
> <s_m_source_file>
../186l_ligand.sdf

> <i_m_source_file_index>
1

> <s_epik_input>
W0NIM11bQ0gyXVtDSDJdW0NIMl1jMVtjSF1bY0hdW2NIXVtjSF1bY0hdMQ==

> <s_epik_cmdline>
J2VwaWtfYXBwJywgJy1pbWFlJywgJ2xpZ2FuZF9wcm8ubWFlJywgJy1vbWFlJywgJ2xpZ2FuZF9wcmVwLm1hZScsICctbXMnLCAnMScsICctcGgnLCAnNycsICctcGh0JywgJzAuNScsICctbnQn

> <r_lp_tautomer_probability>
1

> <r_epik_Ionization_Penalty>
  0.0000

> <r_epik_Ionization_Penalty_Charging>
  0.0000

> <r_epik_Ionization_Penalty_Neutral>
  0.0000

> <r_epik_State_Penalty>
 -0.0000

> <r_epik_Charging_Adjusted_Penalty>
0

> <i_epik_Tot_Q>
0

> <i_epik_Tot_abs_Q>
0

$$$$
