187l_ligand
                    3D
 Schrodinger Suite 2020-3.
 18 18  0  0  1  0            999 V2000
   26.6450    6.1410    4.6680 C   0  0  0  0  0  0
   26.7810    5.6710    3.4440 C   0  0  0  0  0  0
   27.2700    6.4720    2.4350 C   0  0  0  0  0  0
   27.5830    7.7750    2.6860 C   0  0  0  0  0  0
   27.4420    8.2660    3.9390 C   0  0  0  0  0  0
   26.9790    7.4340    4.9470 C   0  0  0  0  0  0
   26.1370    5.2260    5.7700 C   0  0  0  0  0  0
   28.1020    8.6640    1.5520 C   0  0  0  0  0  0
   26.5041    4.6391    3.2280 H   0  0  0  0  0  0
   27.4069    6.0630    1.4340 H   0  0  0  0  0  0
   27.6900    9.3054    4.1539 H   0  0  0  0  0  0
   26.8817    7.8137    5.9641 H   0  0  0  0  0  0
   25.9228    4.2316    5.3513 H   0  0  0  0  0  0
   25.2175    5.6478    6.2020 H   0  0  0  0  0  0
   26.9030    5.1364    6.5543 H   0  0  0  0  0  0
   28.1434    8.0820    0.6195 H   0  0  0  0  0  0
   29.1096    9.0271    1.8026 H   0  0  0  0  0  0
   27.4257    9.5214    1.4195 H   0  0  0  0  0  0
  1  2  2  0  0  0
  1  6  1  0  0  0
  1  7  1  0  0  0
  2  3  1  0  0  0
  2  9  1  0  0  0
  3  4  2  0  0  0
  3 10  1  0  0  0
  4  5  1  0  0  0
  4  8  1  0  0  0
  5  6  2  0  0  0
  5 11  1  0  0  0
  6 12  1  0  0  0
  7 13  1  0  0  0
  7 14  1  0  0  0
  7 15  1  0  0  0
  8 16  1  0  0  0
  8 17  1  0  0  0
  8 18  1  0  0  0
M  END
> <s_m_source_file>
../187l_ligand.sdf

> <i_m_source_file_index>
1

> <s_epik_input>
W0NIM11jMVtjSF1bY0hdYyhbQ0gzXSlbY0hdW2NIXTE=

> <s_epik_cmdline>
J2VwaWtfYXBwJywgJy1pbWFlJywgJ2xpZ2FuZF9wcm8ubWFlJywgJy1vbWFlJywgJ2xpZ2FuZF9wcmVwLm1hZScsICctbXMnLCAnMScsICctcGgnLCAnNycsICctcGh0JywgJzAuNScsICctbnQn

> <r_lp_tautomer_probability>
1

> <r_epik_Ionization_Penalty>
  0.0000

> <r_epik_Ionization_Penalty_Charging>
  0.0000

> <r_epik_Ionization_Penalty_Neutral>
  0.0000

> <r_epik_State_Penalty>
 -0.0000

> <r_epik_Charging_Adjusted_Penalty>
0

> <i_epik_Tot_Q>
0

> <i_epik_Tot_abs_Q>
0

$$$$
