188l_ligand
                    3D
 Schrodinger Suite 2020-3.
 18 18  0  0  1  0            999 V2000
   27.2140    7.4650    4.4890 C   0  0  0  0  0  0
   27.5750    6.9460    3.2690 C   0  0  0  0  0  0
   27.2520    5.6280    2.9580 C   0  0  0  0  0  0
   26.4320    4.8790    3.8100 C   0  0  0  0  0  0
   26.0190    5.4030    5.0400 C   0  0  0  0  0  0
   26.4360    6.6760    5.4130 C   0  0  0  0  0  0
   27.6430    8.8780    4.7960 C   0  0  0  0  0  0
   28.4530    7.7660    2.3490 C   0  0  0  0  0  0
   27.6402    5.1764    2.0451 H   0  0  0  0  0  0
   26.1127    3.8800    3.5131 H   0  0  0  0  0  0
   25.3767    4.8190    5.6992 H   0  0  0  0  0  0
   26.1775    7.0741    6.3942 H   0  0  0  0  0  0
   28.2224    9.2772    3.9505 H   0  0  0  0  0  0
   28.2661    8.8832    5.7025 H   0  0  0  0  0  0
   26.7533    9.5041    4.9589 H   0  0  0  0  0  0
   28.5873    8.7727    2.7714 H   0  0  0  0  0  0
   27.9766    7.8437    1.3605 H   0  0  0  0  0  0
   29.4333    7.2777    2.2463 H   0  0  0  0  0  0
  1  2  2  0  0  0
  1  6  1  0  0  0
  1  7  1  0  0  0
  2  3  1  0  0  0
  2  8  1  0  0  0
  3  4  2  0  0  0
  3  9  1  0  0  0
  4  5  1  0  0  0
  4 10  1  0  0  0
  5  6  2  0  0  0
  5 11  1  0  0  0
  6 12  1  0  0  0
  7 13  1  0  0  0
  7 14  1  0  0  0
  7 15  1  0  0  0
  8 16  1  0  0  0
  8 17  1  0  0  0
  8 18  1  0  0  0
M  END
> <s_m_source_file>
../188l_ligand.sdf

> <i_m_source_file_index>
1

> <s_epik_input>
W0NIM11jMWMoW0NIM10pW2NIXVtjSF1bY0hdW2NIXTE=

> <s_epik_cmdline>
J2VwaWtfYXBwJywgJy1pbWFlJywgJ2xpZ2FuZF9wcm8ubWFlJywgJy1vbWFlJywgJ2xpZ2FuZF9wcmVwLm1hZScsICctbXMnLCAnMScsICctcGgnLCAnNycsICctcGh0JywgJzAuNScsICctbnQn

> <r_lp_tautomer_probability>
1

> <r_epik_Ionization_Penalty>
  0.0000

> <r_epik_Ionization_Penalty_Charging>
  0.0000

> <r_epik_Ionization_Penalty_Neutral>
  0.0000

> <r_epik_State_Penalty>
 -0.0000

> <r_epik_Charging_Adjusted_Penalty>
0

> <i_epik_Tot_Q>
0

> <i_epik_Tot_abs_Q>
0

$$$$
