1a07_ligand
                    3D
 Schrodinger Suite 2020-3.
 74 74  0  0  1  0            999 V2000
   44.2370   -8.2120   37.7350 C   0  0  0  0  0  0
   44.7330   -7.0880   37.6820 O   0  0  0  0  0  0
   44.5630   -9.2310   36.6600 C   0  0  0  0  0  0
   43.2450   -8.6020   38.5290 N   0  0  0  0  0  0
   42.7180   -7.8550   39.6520 C   0  0  2  0  0  0
   43.0310   -8.5870   40.9380 C   0  0  0  0  0  0
   42.9840   -9.8300   41.0350 O   0  0  0  0  0  0
   41.2230   -7.7330   39.5770 C   0  0  0  0  0  0
   40.7870   -7.0350   38.3170 C   0  0  0  0  0  0
   40.1550   -7.7460   37.3250 C   0  0  0  0  0  0
   40.9540   -5.6820   38.1710 C   0  0  0  0  0  0
   39.6750   -7.0980   36.2050 C   0  0  0  0  0  0
   40.4900   -5.0230   37.0660 C   0  0  0  0  0  0
   39.8380   -5.7310   36.0960 C   0  0  0  0  0  0
   43.2610   -7.7270   41.8960 N   0  0  0  0  0  0
   43.5320   -8.1320   43.2420 C   0  0  2  0  0  0
   42.2220   -8.5590   43.8920 C   0  0  0  0  0  0
   41.1700   -8.1200   43.4080 O   0  0  0  0  0  0
   44.1300   -6.9690   43.9910 C   0  0  0  0  0  0
   45.3750   -6.4380   43.3250 C   0  0  0  0  0  0
   46.5620   -7.3880   43.2880 C   0  0  0  0  0  0
   46.9350   -7.9210   44.3350 O   0  5  0  0  0  0
   47.1520   -7.5390   42.2180 O   0  0  0  0  0  0
   42.1750   -9.3920   44.9650 N   0  0  0  0  0  0
   43.3590  -10.0850   45.4580 C   0  0  0  0  0  0
   43.3090  -11.3700   44.6620 C   0  0  0  0  0  0
   44.6400  -12.0510   44.6530 C   0  0  0  0  0  0
   44.4660  -12.8770   43.4050 C   0  0  0  0  0  0
   45.6740  -13.7880   43.1090 C   0  0  0  0  0  0
   40.9270   -9.5980   45.6950 C   0  0  0  0  0  0
   41.0950   -8.9380   47.0430 C   0  0  0  0  0  0
   41.0080   -7.4330   47.0000 C   0  0  0  0  0  0
   41.1620   -6.9710   48.4190 C   0  0  0  0  0  0
   41.1630   -5.4480   48.4790 C   0  0  0  0  0  0
   45.3877   -8.8552   36.0366 H   0  0  0  0  0  0
   43.6754   -9.3983   36.0321 H   0  0  0  0  0  0
   44.8623  -10.1786   37.1317 H   0  0  0  0  0  0
   42.8188   -9.5831   38.2724 H   0  0  0  0  0  0
   43.1953   -6.8660   39.5879 H   0  0  0  0  0  0
   40.7721   -8.7362   39.5921 H   0  0  0  0  0  0
   40.8586   -7.1542   40.4385 H   0  0  0  0  0  0
   40.0325   -8.8246   37.4231 H   0  0  0  0  0  0
   41.4670   -5.1201   38.9515 H   0  0  0  0  0  0
   39.1733   -7.6584   35.4161 H   0  0  0  0  0  0
   40.6382   -3.9483   36.9606 H   0  0  0  0  0  0
   39.4413   -5.2099   35.2247 H   0  0  0  0  0  0
   43.2408   -6.6582   41.6367 H   0  0  0  0  0  0
   44.2495   -8.9649   43.2033 H   0  0  0  0  0  0
   43.3967   -6.1508   44.0437 H   0  0  0  0  0  0
   44.3979   -7.2874   45.0092 H   0  0  0  0  0  0
   45.1512   -6.1847   42.2782 H   0  0  0  0  0  0
   45.7185   -5.5373   43.8548 H   0  0  0  0  0  0
   44.2525   -9.4783   45.2493 H   0  0  0  0  0  0
   43.2672  -10.2413   46.5430 H   0  0  0  0  0  0
   42.5694  -12.0501   45.1097 H   0  0  0  0  0  0
   43.0212  -11.1473   43.6239 H   0  0  0  0  0  0
   45.4378  -11.2960   44.5936 H   0  0  0  0  0  0
   44.7581  -12.6374   45.5762 H   0  0  0  0  0  0
   43.5812  -13.5216   43.5124 H   0  0  0  0  0  0
   44.3315  -12.2108   42.5401 H   0  0  0  0  0  0
   45.4843  -14.3613   42.1896 H   0  0  0  0  0  0
   45.8246  -14.4818   43.9492 H   0  0  0  0  0  0
   46.5750  -13.1709   42.9770 H   0  0  0  0  0  0
   40.0963   -9.1407   45.1374 H   0  0  0  0  0  0
   40.7425  -10.6764   45.8088 H   0  0  0  0  0  0
   40.3071   -9.2908   47.7247 H   0  0  0  0  0  0
   42.0808   -9.1959   47.4573 H   0  0  0  0  0  0
   41.8128   -7.0373   46.3630 H   0  0  0  0  0  0
   40.0332   -7.1337   46.5875 H   0  0  0  0  0  0
   40.3261   -7.3547   49.0223 H   0  0  0  0  0  0
   42.1116   -7.3482   48.8264 H   0  0  0  0  0  0
   41.2764   -5.1223   49.5235 H   0  0  0  0  0  0
   40.2139   -5.0646   48.0763 H   0  0  0  0  0  0
   41.9994   -5.0580   47.8804 H   0  0  0  0  0  0
  1  2  2  0  0  0
  1  3  1  0  0  0
  1  4  1  0  0  0
  3 35  1  0  0  0
  3 36  1  0  0  0
  3 37  1  0  0  0
  4  5  1  0  0  0
  4 38  1  0  0  0
  5  8  1  0  0  0
  5  6  1  0  0  0
  5 39  1  0  0  0
  6  7  2  0  0  0
  6 15  1  0  0  0
  8  9  1  0  0  0
  8 40  1  0  0  0
  8 41  1  0  0  0
  9 11  2  0  0  0
  9 10  1  0  0  0
 10 12  2  0  0  0
 10 42  1  0  0  0
 11 13  1  0  0  0
 11 43  1  0  0  0
 12 14  1  0  0  0
 12 44  1  0  0  0
 13 14  2  0  0  0
 13 45  1  0  0  0
 14 46  1  0  0  0
 15 16  1  0  0  0
 15 47  1  0  0  0
 16 17  1  0  0  0
 16 19  1  0  0  0
 16 48  1  0  0  0
 17 18  2  0  0  0
 17 24  1  0  0  0
 19 20  1  0  0  0
 19 49  1  0  0  0
 19 50  1  0  0  0
 20 21  1  0  0  0
 20 51  1  0  0  0
 20 52  1  0  0  0
 21 22  1  0  0  0
 21 23  2  0  0  0
 24 30  1  0  0  0
 24 25  1  0  0  0
 25 26  1  0  0  0
 25 53  1  0  0  0
 25 54  1  0  0  0
 26 27  1  0  0  0
 26 55  1  0  0  0
 26 56  1  0  0  0
 27 28  1  0  0  0
 27 57  1  0  0  0
 27 58  1  0  0  0
 28 29  1  0  0  0
 28 59  1  0  0  0
 28 60  1  0  0  0
 29 61  1  0  0  0
 29 62  1  0  0  0
 29 63  1  0  0  0
 30 31  1  0  0  0
 30 64  1  0  0  0
 30 65  1  0  0  0
 31 32  1  0  0  0
 31 66  1  0  0  0
 31 67  1  0  0  0
 32 33  1  0  0  0
 32 68  1  0  0  0
 32 69  1  0  0  0
 33 34  1  0  0  0
 33 70  1  0  0  0
 33 71  1  0  0  0
 34 72  1  0  0  0
 34 73  1  0  0  0
 34 74  1  0  0  0
M  CHG  1  22  -1
M  END
> <s_m_source_file>
../1a07_ligand.sdf

> <i_m_source_file_index>
1

> <s_epik_input>
W2NIXTFbY0hdW2NIXVtjSF1bY0hdYzFbQ0gyXVtDQEhdKFtOSF1DKD1PKVtDSDNdKUMoPU8pW05IXVtDQEBIXShbQ0gyXVtDSDJdQyg9TylbT0hdKUMoPU8pTihbQ0gyXVtDSDJdW0NIMl1bQ0gyXVtDSDNdKVtDSDJdW0NIMl1bQ0gyXVtDSDJdW0NIM10=

> <s_epik_cmdline>
J2VwaWtfYXBwJywgJy1pbWFlJywgJ2xpZ2FuZF9wcm8ubWFlJywgJy1vbWFlJywgJ2xpZ2FuZF9wcmVwLm1hZScsICctbXMnLCAnMScsICctcGgnLCAnNycsICctcGh0JywgJzAuNScsICctbnQn

> <r_lp_tautomer_probability>
1

> <r_epik_Ionization_Penalty>
  0.0015

> <r_epik_Ionization_Penalty_Charging>
  0.0015

> <r_epik_Ionization_Penalty_Neutral>
  0.0000

> <r_epik_State_Penalty>
 -0.0000

> <r_epik_Charging_Adjusted_Penalty>
0.0014723018410839

> <i_epik_Tot_Q>
-1

> <i_epik_Tot_abs_Q>
1

$$$$
