1a08_ligand
                    3D
 Schrodinger Suite 2020-3.
 80 80  0  0  1  0            999 V2000
   41.3330    7.6410   24.6710 C   0  0  0  0  0  0
   41.0370    8.8260   24.9230 O   0  0  0  0  0  0
   41.5940    6.6140   25.7620 C   0  0  0  0  0  0
   41.6110    7.1210   23.4750 N   0  0  0  0  0  0
   41.4640    7.8470   22.2290 C   0  0  2  0  0  0
   40.2360    7.3890   21.4600 C   0  0  0  0  0  0
   39.7050    6.2960   21.6760 O   0  0  0  0  0  0
   42.7500    7.6550   21.4040 C   0  0  0  0  0  0
   43.9840    8.0510   22.2010 C   0  0  0  0  0  0
   44.7090    7.1450   23.0070 C   0  0  0  0  0  0
   44.3870    9.3440   22.1140 C   0  0  0  0  0  0
   45.8310    7.5360   23.7220 C   0  0  0  0  0  0
   45.4940    9.7320   22.8140 C   0  0  0  0  0  0
   46.2270    8.8610   23.6100 C   0  0  0  0  0  0
   47.4870    9.4350   24.2980 C   0  0  0  0  0  0
   48.6090    8.6190   24.1110 F   0  0  0  0  0  0
   47.8940   10.4980   23.4710 F   0  0  0  0  0  0
   47.4770    9.8790   26.0920 P   0  0  0  0  0  0
   48.7700   10.5430   26.2560 O   0  0  0  0  0  0
   47.4560    8.5560   26.7380 O   0  5  0  0  0  0
   46.2490   10.7280   26.2340 O   0  5  0  0  0  0
   39.8530    8.2640   20.5620 N   0  0  0  0  0  0
   38.7410    8.0620   19.6740 C   0  0  2  0  0  0
   39.1750    7.3110   18.4070 C   0  0  0  0  0  0
   40.3620    7.4490   18.0940 O   0  0  0  0  0  0
   38.1900    9.3900   19.3050 C   0  0  0  0  0  0
   37.6290   10.1980   20.4590 C   0  0  0  0  0  0
   36.4230    9.5560   21.1200 C   0  0  0  0  0  0
   35.4870    9.1800   20.4000 O   0  5  0  0  0  0
   36.4150    9.4710   22.3470 O   0  0  0  0  0  0
   38.3400    6.4580   17.6920 N   0  0  0  0  0  0
   37.0330    6.0690   18.2190 C   0  0  0  0  0  0
   37.3680    5.0290   19.2960 C   0  0  0  0  0  0
   36.2460    4.7760   20.2680 C   0  0  0  0  0  0
   35.1220    3.9400   19.7130 C   0  0  0  0  0  0
   35.2460    2.4610   20.1590 C   0  0  0  0  0  0
   38.6840    5.9690   16.3670 C   0  0  0  0  0  0
   37.8280    6.7260   15.3260 C   0  0  0  0  0  0
   38.3260    8.2080   15.1210 C   0  0  0  0  0  0
   37.7080    9.0520   13.9690 C   0  0  0  0  0  0
   38.5800   10.3120   13.7740 C   0  0  0  0  0  0
   41.3614    7.0540   26.7430 H   0  0  0  0  0  0
   42.6517    6.3129   25.7367 H   0  0  0  0  0  0
   40.9577    5.7323   25.5954 H   0  0  0  0  0  0
   41.9698    6.0812   23.4667 H   0  0  0  0  0  0
   41.3068    8.9025   22.4959 H   0  0  0  0  0  0
   42.8454    6.5981   21.1144 H   0  0  0  0  0  0
   42.7025    8.2800   20.5001 H   0  0  0  0  0  0
   44.3768    6.1087   23.0686 H   0  0  0  0  0  0
   43.8391   10.0576   21.4987 H   0  0  0  0  0  0
   46.3796    6.8310   24.3466 H   0  0  0  0  0  0
   45.8164   10.7709   22.7449 H   0  0  0  0  0  0
   40.4361    9.1953   20.5102 H   0  0  0  0  0  0
   37.9957    7.4785   20.2343 H   0  0  0  0  0  0
   38.9824   10.0021   18.8496 H   0  0  0  0  0  0
   37.3685    9.2590   18.5852 H   0  0  0  0  0  0
   38.4021   10.3186   21.2322 H   0  0  0  0  0  0
   37.3163   11.1880   20.0956 H   0  0  0  0  0  0
   36.5282    6.9527   18.6364 H   0  0  0  0  0  0
   36.4216    5.6464   17.4081 H   0  0  0  0  0  0
   37.6067    4.0683   18.8163 H   0  0  0  0  0  0
   38.2344    5.3723   19.8804 H   0  0  0  0  0  0
   36.6367    4.2459   21.1491 H   0  0  0  0  0  0
   35.8090    5.7356   20.5814 H   0  0  0  0  0  0
   34.1599    4.3341   20.0724 H   0  0  0  0  0  0
   35.1457    3.9769   18.6139 H   0  0  0  0  0  0
   34.4124    1.8799   19.7378 H   0  0  0  0  0  0
   35.2139    2.4053   21.2571 H   0  0  0  0  0  0
   36.1997    2.0481   19.7986 H   0  0  0  0  0  0
   39.7523    6.1484   16.1759 H   0  0  0  0  0  0
   38.4774    4.8901   16.3092 H   0  0  0  0  0  0
   37.8841    6.2068   14.3579 H   0  0  0  0  0  0
   36.7820    6.7579   15.6648 H   0  0  0  0  0  0
   38.1260    8.7913   16.0319 H   0  0  0  0  0  0
   39.4068    8.2067   14.9164 H   0  0  0  0  0  0
   37.6928    8.4555   13.0449 H   0  0  0  0  0  0
   36.6806    9.3404   14.2361 H   0  0  0  0  0  0
   38.1614   10.9256   12.9626 H   0  0  0  0  0  0
   39.6058   10.0114   13.5146 H   0  0  0  0  0  0
   38.5936   10.8963   14.7059 H   0  0  0  0  0  0
  1  2  2  0  0  0
  1  3  1  0  0  0
  1  4  1  0  0  0
  3 42  1  0  0  0
  3 43  1  0  0  0
  3 44  1  0  0  0
  4  5  1  0  0  0
  4 45  1  0  0  0
  5  6  1  0  0  0
  5  8  1  0  0  0
  5 46  1  0  0  0
  6  7  2  0  0  0
  6 22  1  0  0  0
  8  9  1  0  0  0
  8 47  1  0  0  0
  8 48  1  0  0  0
  9 10  2  0  0  0
  9 11  1  0  0  0
 10 12  1  0  0  0
 10 49  1  0  0  0
 11 13  2  0  0  0
 11 50  1  0  0  0
 12 14  2  0  0  0
 12 51  1  0  0  0
 13 14  1  0  0  0
 13 52  1  0  0  0
 14 15  1  0  0  0
 15 16  1  0  0  0
 15 17  1  0  0  0
 15 18  1  0  0  0
 18 19  2  0  0  0
 18 20  1  0  0  0
 18 21  1  0  0  0
 22 23  1  0  0  0
 22 53  1  0  0  0
 23 26  1  0  0  0
 23 24  1  0  0  0
 23 54  1  0  0  0
 24 25  2  0  0  0
 24 31  1  0  0  0
 26 27  1  0  0  0
 26 55  1  0  0  0
 26 56  1  0  0  0
 27 28  1  0  0  0
 27 57  1  0  0  0
 27 58  1  0  0  0
 28 30  2  0  0  0
 28 29  1  0  0  0
 31 32  1  0  0  0
 31 37  1  0  0  0
 32 33  1  0  0  0
 32 59  1  0  0  0
 32 60  1  0  0  0
 33 34  1  0  0  0
 33 61  1  0  0  0
 33 62  1  0  0  0
 34 35  1  0  0  0
 34 63  1  0  0  0
 34 64  1  0  0  0
 35 36  1  0  0  0
 35 65  1  0  0  0
 35 66  1  0  0  0
 36 67  1  0  0  0
 36 68  1  0  0  0
 36 69  1  0  0  0
 37 38  1  0  0  0
 37 70  1  0  0  0
 37 71  1  0  0  0
 38 39  1  0  0  0
 38 72  1  0  0  0
 38 73  1  0  0  0
 39 40  1  0  0  0
 39 74  1  0  0  0
 39 75  1  0  0  0
 40 41  1  0  0  0
 40 76  1  0  0  0
 40 77  1  0  0  0
 41 78  1  0  0  0
 41 79  1  0  0  0
 41 80  1  0  0  0
M  CHG  3  20  -1  21  -1  29  -1
M  END
> <s_m_source_file>
../1a08_ligand.sdf

> <i_m_source_file_index>
1

> <s_epik_input>
Tz1QKFtPSF0pKFtPSF0pQyhGKShGKWMoW2NIXVtjSF0xKVtjSF1bY0hdYzFbQ0gyXVtDQEhdKFtOSF1DKD1PKVtDSDNdKUMoPU8pW05IXVtDQEBIXShbQ0gyXVtDSDJdQyg9TylbT0hdKUMoPU8pTihbQ0gyXVtDSDJdW0NIMl1bQ0gyXVtDSDNdKVtDSDJdW0NIMl1bQ0gyXVtDSDJdW0NIM10=

> <s_epik_cmdline>
J2VwaWtfYXBwJywgJy1pbWFlJywgJ2xpZ2FuZF9wcm8ubWFlJywgJy1vbWFlJywgJ2xpZ2FuZF9wcmVwLm1hZScsICctbXMnLCAnMScsICctcGgnLCAnNycsICctcGh0JywgJzAuNScsICctbnQn

> <r_epik_Ionization_Penalty>
  0.0158

> <r_epik_Ionization_Penalty_Charging>
  0.0158

> <r_epik_Ionization_Penalty_Neutral>
  0.0000

> <r_epik_State_Penalty>
  0.0112

> <r_epik_Charging_Adjusted_Penalty>
0.0270355801346174

> <i_epik_Tot_Q>
-3

> <i_epik_Tot_abs_Q>
3

$$$$
