1a09_ligand
                    3D
 Schrodinger Suite 2020-3.
 82 82  0  0  1  0            999 V2000
   41.5690    7.6580   23.9860 C   0  0  0  0  0  0
   41.1850    8.8370   24.0740 O   0  0  0  0  0  0
   41.6080    6.7520   25.1990 C   0  0  0  0  0  0
   41.9470    7.1470   22.8190 N   0  0  0  0  0  0
   42.0200    7.9800   21.6280 C   0  0  2  0  0  0
   40.9030    7.5910   20.6760 C   0  0  0  0  0  0
   40.4140    6.4590   20.6570 O   0  0  0  0  0  0
   43.4150    7.8260   20.9730 C   0  0  0  0  0  0
   44.5820    8.2860   21.8500 C   0  0  0  0  0  0
   45.3280    9.4170   21.5490 C   0  0  0  0  0  0
   44.9450    7.5470   22.9810 C   0  0  0  0  0  0
   46.3990    9.8200   22.3110 C   0  0  0  0  0  0
   46.0060    7.9400   23.7790 C   0  0  0  0  0  0
   46.7240    9.0770   23.4160 C   0  0  0  0  0  0
   47.3460   11.0080   22.0440 C   0  0  0  0  0  0
   47.8280    9.5570   24.1510 O   0  0  0  0  0  0
   47.4170   10.2450   25.7320 P   0  0  0  0  0  0
   47.5280    8.9350   26.4310 O   0  5  0  0  0  0
   46.0720   10.8710   25.5970 O   0  5  0  0  0  0
   48.5930   11.1150   25.9320 O   0  0  0  0  0  0
   47.5820   11.1630   20.6750 O   0  0  0  0  0  0
   40.4140    8.5720   19.9380 N   0  0  0  0  0  0
   39.3000    8.4030   19.0260 C   0  0  2  0  0  0
   39.6240    7.6770   17.7320 C   0  0  0  0  0  0
   40.7900    7.7110   17.3230 O   0  0  0  0  0  0
   38.7290    9.7400   18.6680 C   0  0  0  0  0  0
   38.1620   10.5010   19.8320 C   0  0  0  0  0  0
   36.9900    9.8410   20.5210 C   0  0  0  0  0  0
   35.9880    9.5130   19.8810 O   0  5  0  0  0  0
   37.0870    9.6910   21.7320 O   0  0  0  0  0  0
   38.6700    6.9840   17.0660 N   0  0  0  0  0  0
   37.3700    6.6720   17.6660 C   0  0  0  0  0  0
   37.6030    5.4210   18.5170 C   0  0  0  0  0  0
   36.2730    5.0170   19.0110 C   0  0  0  0  0  0
   36.4210    3.9430   20.0280 C   0  0  0  0  0  0
   34.9920    3.5810   20.4620 C   0  0  0  0  0  0
   38.9310    6.4700   15.7140 C   0  0  0  0  0  0
   38.2520    7.3850   14.6720 C   0  0  0  0  0  0
   39.0020    8.6740   14.3820 C   0  0  0  0  0  0
   38.2860    9.4370   13.2880 C   0  0  0  0  0  0
   38.9860   10.7990   13.0860 C   0  0  0  0  0  0
   41.2700    7.3102   26.0845 H   0  0  0  0  0  0
   42.6371    6.3981   25.3594 H   0  0  0  0  0  0
   40.9453    5.8897   25.0340 H   0  0  0  0  0  0
   42.2065    6.0797   22.7604 H   0  0  0  0  0  0
   41.8647    9.0224   21.9431 H   0  0  0  0  0  0
   43.5927    6.7672   20.7335 H   0  0  0  0  0  0
   43.4544    8.4224   20.0495 H   0  0  0  0  0  0
   45.0543   10.0083   20.6752 H   0  0  0  0  0  0
   44.3841    6.6483   23.2378 H   0  0  0  0  0  0
   46.2732    7.3728   24.6706 H   0  0  0  0  0  0
   46.8923   11.9326   22.4305 H   0  0  0  0  0  0
   48.3068   10.8319   22.5497 H   0  0  0  0  0  0
   48.2396   11.9693   20.3181 H   0  0  0  0  0  0
   40.8960    9.5554   20.0413 H   0  0  0  0  0  0
   38.6095    7.7818   19.6153 H   0  0  0  0  0  0
   39.5160   10.3682   18.2253 H   0  0  0  0  0  0
   37.9135    9.6079   17.9417 H   0  0  0  0  0  0
   38.9410   10.6347   20.5971 H   0  0  0  0  0  0
   37.8109   11.4858   19.4902 H   0  0  0  0  0  0
   37.0371    7.5207   18.2815 H   0  0  0  0  0  0
   36.6341    6.4854   16.8700 H   0  0  0  0  0  0
   38.0538    4.6334   17.8953 H   0  0  0  0  0  0
   38.2805    5.6643   19.3488 H   0  0  0  0  0  0
   35.7722    5.8840   19.4666 H   0  0  0  0  0  0
   35.6680    4.6434   18.1717 H   0  0  0  0  0  0
   36.9329    3.0797   19.5778 H   0  0  0  0  0  0
   37.0130    4.3194   20.8753 H   0  0  0  0  0  0
   35.0297    2.7850   21.2202 H   0  0  0  0  0  0
   34.4217    3.2296   19.5895 H   0  0  0  0  0  0
   34.5018    4.4693   20.8870 H   0  0  0  0  0  0
   40.0157    6.4509   15.5321 H   0  0  0  0  0  0
   38.5263    5.4511   15.6246 H   0  0  0  0  0  0
   38.1591    6.8471   13.7170 H   0  0  0  0  0  0
   37.2521    7.6704   15.0308 H   0  0  0  0  0  0
   39.0409    9.2886   15.2935 H   0  0  0  0  0  0
   40.0254    8.4373   14.0554 H   0  0  0  0  0  0
   38.3225    8.8583   12.3532 H   0  0  0  0  0  0
   37.2374    9.5978   13.5790 H   0  0  0  0  0  0
   38.4723   11.3611   12.2922 H   0  0  0  0  0  0
   40.0346   10.6332   12.7981 H   0  0  0  0  0  0
   38.9496   11.3726   14.0239 H   0  0  0  0  0  0
  1  2  2  0  0  0
  1  3  1  0  0  0
  1  4  1  0  0  0
  3 42  1  0  0  0
  3 43  1  0  0  0
  3 44  1  0  0  0
  4  5  1  0  0  0
  4 45  1  0  0  0
  5  6  1  0  0  0
  5  8  1  0  0  0
  5 46  1  0  0  0
  6  7  2  0  0  0
  6 22  1  0  0  0
  8  9  1  0  0  0
  8 47  1  0  0  0
  8 48  1  0  0  0
  9 10  2  0  0  0
  9 11  1  0  0  0
 10 12  1  0  0  0
 10 49  1  0  0  0
 11 13  2  0  0  0
 11 50  1  0  0  0
 12 14  2  0  0  0
 12 15  1  0  0  0
 13 14  1  0  0  0
 13 51  1  0  0  0
 14 16  1  0  0  0
 15 21  1  0  0  0
 15 52  1  0  0  0
 15 53  1  0  0  0
 16 17  1  0  0  0
 17 18  1  0  0  0
 17 19  1  0  0  0
 17 20  2  0  0  0
 21 54  1  0  0  0
 22 23  1  0  0  0
 22 55  1  0  0  0
 23 24  1  0  0  0
 23 26  1  0  0  0
 23 56  1  0  0  0
 24 25  2  0  0  0
 24 31  1  0  0  0
 26 27  1  0  0  0
 26 57  1  0  0  0
 26 58  1  0  0  0
 27 28  1  0  0  0
 27 59  1  0  0  0
 27 60  1  0  0  0
 28 29  1  0  0  0
 28 30  2  0  0  0
 31 32  1  0  0  0
 31 37  1  0  0  0
 32 33  1  0  0  0
 32 61  1  0  0  0
 32 62  1  0  0  0
 33 34  1  0  0  0
 33 63  1  0  0  0
 33 64  1  0  0  0
 34 35  1  0  0  0
 34 65  1  0  0  0
 34 66  1  0  0  0
 35 36  1  0  0  0
 35 67  1  0  0  0
 35 68  1  0  0  0
 36 69  1  0  0  0
 36 70  1  0  0  0
 36 71  1  0  0  0
 37 38  1  0  0  0
 37 72  1  0  0  0
 37 73  1  0  0  0
 38 39  1  0  0  0
 38 74  1  0  0  0
 38 75  1  0  0  0
 39 40  1  0  0  0
 39 76  1  0  0  0
 39 77  1  0  0  0
 40 41  1  0  0  0
 40 78  1  0  0  0
 40 79  1  0  0  0
 41 80  1  0  0  0
 41 81  1  0  0  0
 41 82  1  0  0  0
M  CHG  3  18  -1  19  -1  29  -1
M  END
> <s_m_source_file>
../1a09_ligand.sdf

> <i_m_source_file_index>
1

> <s_epik_input>
W09IXVAoPU8pKFtPSF0pT2MoW2NIXVtjSF0xKWMoW0NIMl1bT0hdKVtjSF1jMVtDSDJdW0NASF0oW05IXUMoPU8pW0NIM10pQyg9TylbTkhdW0NAQEhdKFtDSDJdW0NIMl1DKD1PKVtPSF0pQyg9TylOKFtDSDJdW0NIMl1bQ0gyXVtDSDJdW0NIM10pW0NIMl1bQ0gyXVtDSDJdW0NIMl1bQ0gzXQ==

> <s_epik_cmdline>
J2VwaWtfYXBwJywgJy1pbWFlJywgJ2xpZ2FuZF9wcm8ubWFlJywgJy1vbWFlJywgJ2xpZ2FuZF9wcmVwLm1hZScsICctbXMnLCAnMScsICctcGgnLCAnNycsICctcGh0JywgJzAuNScsICctbnQn

> <r_epik_Ionization_Penalty>
  0.0857

> <r_epik_Ionization_Penalty_Charging>
  0.0857

> <r_epik_Ionization_Penalty_Neutral>
  0.0000

> <r_epik_State_Penalty>
  0.0749

> <r_epik_Charging_Adjusted_Penalty>
0.16055217340983

> <i_epik_Tot_Q>
-3

> <i_epik_Tot_abs_Q>
3

$$$$
