1a0q_ligand
                    3D
 Schrodinger Suite 2020-3.
 43 43  0  0  1  0            999 V2000
   13.3050   20.7000   59.4050 C   0  0  2  0  0  0
   12.4520   19.8420   58.4700 C   0  0  0  0  0  0
   12.0320   18.5340   59.1240 C   0  0  0  0  0  0
   11.2470   17.6310   58.1880 C   0  0  0  0  0  0
   12.1070   17.1040   57.0260 C   0  0  0  0  0  0
   14.7350   20.9920   55.3470 C   0  0  0  0  0  0
   15.1480   21.1380   54.0250 C   0  0  0  0  0  0
   16.3840   21.7100   53.7410 C   0  0  0  0  0  0
   17.2110   22.1400   54.7700 C   0  0  0  0  0  0
   16.7990   21.9980   56.0940 C   0  0  0  0  0  0
   15.5620   21.4200   56.3890 C   0  0  0  0  0  0
   12.7980   20.9330   61.8050 C   0  0  0  0  0  0
   11.7430   20.6960   64.1740 C   0  0  0  0  0  0
   11.8610   21.4970   62.8700 C   0  0  0  0  0  0
   11.1530   19.2930   64.0350 C   0  0  0  0  0  0
   12.9990   22.5100   57.5130 O   0  0  0  0  0  0
   14.5790   22.9640   59.4710 O   0  5  0  0  0  0
   15.1750   21.2220   57.7500 O   0  0  0  0  0  0
   13.7620   20.2300   62.1210 O   0  0  0  0  0  0
   11.9380   18.3450   64.0180 O   0  0  0  0  0  0
    9.9630   19.1340   64.3110 O   0  5  0  0  0  0
   12.4830   21.1820   60.5180 N   0  0  0  0  0  0
   13.9840   22.0210   58.4990 P   0  0  1  0  0  0
   14.0100   20.0311   59.9203 H   0  0  0  0  0  0
   11.5428   20.3953   58.1922 H   0  0  0  0  0  0
   13.0278   19.6040   57.5634 H   0  0  0  0  0  0
   12.9267   17.9829   59.4493 H   0  0  0  0  0  0
   11.3958   18.7475   59.9956 H   0  0  0  0  0  0
   10.8651   16.7651   58.7486 H   0  0  0  0  0  0
   10.4031   18.1917   57.7597 H   0  0  0  0  0  0
   11.4943   16.4579   56.3801 H   0  0  0  0  0  0
   12.9517   16.5254   57.4281 H   0  0  0  0  0  0
   12.4897   17.9520   56.4392 H   0  0  0  0  0  0
   13.7665   20.5438   55.5690 H   0  0  0  0  0  0
   14.5026   20.8040   53.2126 H   0  0  0  0  0  0
   16.7048   21.8211   52.7052 H   0  0  0  0  0  0
   18.1789   22.5870   54.5433 H   0  0  0  0  0  0
   17.4450   22.3395   56.9028 H   0  0  0  0  0  0
   12.7413   20.5694   64.6182 H   0  0  0  0  0  0
   11.0940   21.2364   64.8788 H   0  0  0  0  0  0
   12.2022   22.5005   63.1643 H   0  0  0  0  0  0
   10.8407   21.5610   62.4640 H   0  0  0  0  0  0
   11.5744   21.7685   60.3170 H   0  0  0  0  0  0
  1 23  1  0  0  0
  1 22  1  0  0  0
  1  2  1  0  0  0
  1 24  1  0  0  0
  2  3  1  0  0  0
  2 25  1  0  0  0
  2 26  1  0  0  0
  3  4  1  0  0  0
  3 27  1  0  0  0
  3 28  1  0  0  0
  4  5  1  0  0  0
  4 29  1  0  0  0
  4 30  1  0  0  0
  5 31  1  0  0  0
  5 32  1  0  0  0
  5 33  1  0  0  0
  6 11  1  0  0  0
  6  7  2  0  0  0
  6 34  1  0  0  0
  7  8  1  0  0  0
  7 35  1  0  0  0
  8  9  2  0  0  0
  8 36  1  0  0  0
  9 10  1  0  0  0
  9 37  1  0  0  0
 10 11  2  0  0  0
 10 38  1  0  0  0
 11 18  1  0  0  0
 12 22  1  0  0  0
 12 19  2  0  0  0
 12 14  1  0  0  0
 13 14  1  0  0  0
 13 15  1  0  0  0
 13 39  1  0  0  0
 13 40  1  0  0  0
 14 41  1  0  0  0
 14 42  1  0  0  0
 15 20  2  0  0  0
 15 21  1  0  0  0
 16 23  2  0  0  0
 17 23  1  0  0  0
 18 23  1  0  0  0
 22 43  1  0  0  0
M  CHG  2  17  -1  21  -1
M  END
> <s_m_source_file>
../1a0q_ligand.sdf

> <i_m_source_file_index>
1

> <s_epik_input>
Tz1DKFtPSF0pW0NIMl1bQ0gyXUMoPU8pW05IXVtDQEBIXShbQ0gyXVtDSDJdW0NIMl1bQ0gzXSlbUEBAXSg9TykoW09IXSlPYzFbY0hdW2NIXVtjSF1bY0hdW2NIXTE=

> <s_epik_cmdline>
J2VwaWtfYXBwJywgJy1pbWFlJywgJ2xpZ2FuZF9wcm8ubWFlJywgJy1vbWFlJywgJ2xpZ2FuZF9wcmVwLm1hZScsICctbXMnLCAnMScsICctcGgnLCAnNycsICctcGh0JywgJzAuNScsICctbnQn

> <r_epik_Ionization_Penalty>
  0.0207

> <r_epik_Ionization_Penalty_Charging>
  0.0207

> <r_epik_Ionization_Penalty_Neutral>
  0.0000

> <r_epik_State_Penalty>
  0.0166

> <r_epik_Charging_Adjusted_Penalty>
0.0372248475399745

> <i_epik_Tot_Q>
-2

> <i_epik_Tot_abs_Q>
2

$$$$
