1a0t_ligand
                    3D
 Schrodinger Suite 2020-3.
 45 46  0  0  1  0            999 V2000
  -44.9520  -14.6450  -14.2580 C   0  0  1  0  0  0
  -43.9740  -15.8130  -14.4360 C   0  0  1  0  0  0
  -44.3250  -16.9490  -13.4760 C   0  0  2  0  0  0
  -44.2860  -16.4420  -12.0850 C   0  0  1  0  0  0
  -45.2770  -15.3040  -11.9210 C   0  0  1  0  0  0
  -45.2450  -14.7580  -10.5290 C   0  0  0  0  0  0
  -46.2730  -15.0610  -14.6480 O   0  0  0  0  0  0
  -43.9850  -16.2330  -15.8010 O   0  0  0  0  0  0
  -43.3750  -17.9870  -13.6420 O   0  0  0  0  0  0
  -44.6130  -17.5380  -11.1870 O   0  0  0  0  0  0
  -44.9180  -14.2440  -12.8600 O   0  0  0  0  0  0
  -46.1150  -15.5190   -9.6790 O   0  0  0  0  0  0
  -47.2710  -13.5190  -16.2880 C   0  0  0  0  0  0
  -47.2900  -14.0250  -14.8500 C   0  0  1  0  0  0
  -48.6560  -14.5810  -14.3610 C   0  0  2  0  0  0
  -48.6700  -14.1750  -12.9030 C   0  0  1  0  0  0
  -48.0640  -12.7740  -13.0260 C   0  0  1  0  0  0
  -47.5100  -12.1450  -11.7790 C   0  0  0  0  0  0
  -48.4900  -12.8180  -16.5360 O   0  0  0  0  0  0
  -47.0210  -12.9340  -14.0020 O   0  0  0  0  0  0
  -48.8650  -15.9510  -14.6060 O   0  0  0  0  0  0
  -50.0050  -14.1820  -12.3880 O   0  0  0  0  0  0
  -47.9020  -12.8310  -10.6210 O   0  0  0  0  0  0
  -44.7220  -13.7644  -14.8758 H   0  0  0  0  0  0
  -42.9311  -15.5110  -14.2593 H   0  0  0  0  0  0
  -45.3117  -17.3945  -13.6711 H   0  0  0  0  0  0
  -43.2717  -16.0944  -11.8391 H   0  0  0  0  0  0
  -46.2990  -15.6501  -12.1347 H   0  0  0  0  0  0
  -44.2188  -14.8137  -10.1368 H   0  0  0  0  0  0
  -45.5774  -13.7095  -10.5387 H   0  0  0  0  0  0
  -43.7497  -15.5140  -16.5996 H   0  0  0  0  0  0
  -43.2663  -18.4821  -14.6182 H   0  0  0  0  0  0
  -43.9919  -18.4458  -11.1782 H   0  0  0  0  0  0
  -46.2146  -15.2546   -8.6159 H   0  0  0  0  0  0
  -46.4138  -12.8439  -16.4278 H   0  0  0  0  0  0
  -47.1814  -14.3726  -16.9760 H   0  0  0  0  0  0
  -49.5457  -14.2634  -14.9245 H   0  0  0  0  0  0
  -48.1844  -14.8460  -12.1791 H   0  0  0  0  0  0
  -48.8337  -12.0501  -13.3320 H   0  0  0  0  0  0
  -46.4109  -12.1495  -11.8233 H   0  0  0  0  0  0
  -47.8696  -11.1084  -11.7003 H   0  0  0  0  0  0
  -48.6760  -12.3706  -17.5235 H   0  0  0  0  0  0
  -48.8700  -16.3306  -15.6384 H   0  0  0  0  0  0
  -50.5391  -15.1347  -12.2572 H   0  0  0  0  0  0
  -47.5678  -12.4794   -9.6337 H   0  0  0  0  0  0
  1  2  1  0  0  0
  1  7  1  0  0  0
  1 11  1  0  0  0
  1 24  1  0  0  0
  2  3  1  0  0  0
  2  8  1  0  0  0
  2 25  1  0  0  0
  3  4  1  0  0  0
  3  9  1  0  0  0
  3 26  1  0  0  0
  4  5  1  0  0  0
  4 10  1  0  0  0
  4 27  1  0  0  0
  5  6  1  0  0  0
  5 11  1  0  0  0
  5 28  1  0  0  0
  6 12  1  0  0  0
  6 29  1  0  0  0
  6 30  1  0  0  0
  7 14  1  0  0  0
  8 31  1  0  0  0
  9 32  1  0  0  0
 10 33  1  0  0  0
 12 34  1  0  0  0
 13 14  1  0  0  0
 13 19  1  0  0  0
 13 35  1  0  0  0
 13 36  1  0  0  0
 14 15  1  0  0  0
 14 20  1  0  0  0
 15 16  1  0  0  0
 15 21  1  0  0  0
 15 37  1  0  0  0
 16 17  1  0  0  0
 16 22  1  0  0  0
 16 38  1  0  0  0
 17 18  1  0  0  0
 17 20  1  0  0  0
 17 39  1  0  0  0
 18 23  1  0  0  0
 18 40  1  0  0  0
 18 41  1  0  0  0
 19 42  1  0  0  0
 21 43  1  0  0  0
 22 44  1  0  0  0
 23 45  1  0  0  0
M  END
> <s_m_source_file>
../1a0t_ligand.sdf

> <i_m_source_file_index>
1

> <s_epik_input>
W09IXVtDSDJdW0NAQEhdKE8xKVtDQEBIXShbT0hdKVtDQEhdKFtPSF0pW0NAQEhdKFtPSF0pW0NASF0xT1tDQEBdMihbQ0gyXVtPSF0pW0NAQEhdKFtPSF0pW0NASF0oW09IXSlbQ0BIXShPMilbQ0gyXVtPSF0=

> <s_epik_cmdline>
J2VwaWtfYXBwJywgJy1pbWFlJywgJ2xpZ2FuZF9wcm8ubWFlJywgJy1vbWFlJywgJ2xpZ2FuZF9wcmVwLm1hZScsICctbXMnLCAnMScsICctcGgnLCAnNycsICctcGh0JywgJzAuNScsICctbnQn

> <r_lp_tautomer_probability>
1

> <r_epik_Ionization_Penalty>
  0.0000

> <r_epik_Ionization_Penalty_Charging>
  0.0000

> <r_epik_Ionization_Penalty_Neutral>
  0.0000

> <r_epik_State_Penalty>
 -0.0000

> <r_epik_Charging_Adjusted_Penalty>
0

> <i_epik_Tot_Q>
0

> <i_epik_Tot_abs_Q>
0

> <s_epik_Chemistry_Notes>
This compound contains an acetal/aminal-like group ( X-CH(R)-Y where X, Y are N, S, or O) that may be acid/base labile, releasing an aldehyde.

$$$$
