1a1b_ligand
                    3D
 Schrodinger Suite 2020-3.
 78 78  0  0  1  0            999 V2000
   44.2360   -8.1990   37.6730 C   0  0  0  0  0  0
   44.8900   -7.1680   37.7910 O   0  0  0  0  0  0
   44.5580   -9.1950   36.5670 C   0  0  0  0  0  0
   43.1070   -8.4040   38.3330 N   0  0  0  0  0  0
   42.6420   -7.5610   39.4030 C   0  0  2  0  0  0
   42.9860   -8.1930   40.7250 C   0  0  0  0  0  0
   43.0380   -9.4310   40.8380 O   0  0  0  0  0  0
   41.1280   -7.3860   39.2670 C   0  0  0  0  0  0
   40.8020   -6.5290   38.0580 C   0  0  0  0  0  0
   40.2830   -7.1190   36.9330 C   0  0  0  0  0  0
   41.0250   -5.1690   38.0710 C   0  0  0  0  0  0
   39.9770   -6.3570   35.8250 C   0  0  0  0  0  0
   40.7290   -4.3890   36.9680 C   0  0  0  0  0  0
   40.1880   -4.9880   35.8390 C   0  0  0  0  0  0
   39.7000   -4.1850   34.7380 O   0  0  0  0  0  0
   40.5630   -3.9720   33.4060 P   0  0  0  0  0  0
   40.4000   -5.2520   32.7070 O   0  0  0  0  0  0
   39.8760   -2.8040   32.8150 O   0  5  0  0  0  0
   41.9290   -3.6980   33.9550 O   0  5  0  0  0  0
   43.2010   -7.3590   41.7220 N   0  0  0  0  0  0
   43.4870   -7.8450   43.0630 C   0  0  2  0  0  0
   42.2290   -8.3700   43.7890 C   0  0  0  0  0  0
   41.1100   -7.9850   43.4110 O   0  0  0  0  0  0
   44.0590   -6.7400   43.8740 C   0  0  0  0  0  0
   45.3490   -6.1890   43.3630 C   0  0  0  0  0  0
   46.4500   -7.2250   43.2850 C   0  0  0  0  0  0
   46.6540   -7.9680   44.2480 O   0  5  0  0  0  0
   47.1120   -7.2700   42.2500 O   0  0  0  0  0  0
   42.2650   -9.2250   44.8290 N   0  0  0  0  0  0
   43.4990   -9.9060   45.2390 C   0  0  0  0  0  0
   43.5630  -11.0690   44.2680 C   0  0  0  0  0  0
   44.6800  -11.9950   44.6600 C   0  0  0  0  0  0
   45.1020  -12.7650   43.4250 C   0  0  0  0  0  0
   43.9700  -13.6010   42.8190 C   0  0  0  0  0  0
   41.0240   -9.4280   45.5940 C   0  0  0  0  0  0
   41.1890   -8.7770   46.9820 C   0  0  0  0  0  0
   41.0170   -7.2490   47.0370 C   0  0  0  0  0  0
   41.5180   -6.8540   48.3990 C   0  0  0  0  0  0
   41.5470   -5.3450   48.4910 C   0  0  0  0  0  0
   45.5134   -8.9224   36.0948 H   0  0  0  0  0  0
   43.7577   -9.1766   35.8126 H   0  0  0  0  0  0
   44.6356  -10.2055   36.9947 H   0  0  0  0  0  0
   42.5132   -9.2762   38.0223 H   0  0  0  0  0  0
   43.1648   -6.5970   39.3170 H   0  0  0  0  0  0
   40.6544   -8.3714   39.1462 H   0  0  0  0  0  0
   40.7328   -6.8975   40.1699 H   0  0  0  0  0  0
   40.1117   -8.1953   36.9150 H   0  0  0  0  0  0
   41.4407   -4.7014   38.9636 H   0  0  0  0  0  0
   39.5674   -6.8339   34.9346 H   0  0  0  0  0  0
   40.9185   -3.3157   36.9852 H   0  0  0  0  0  0
   43.1612   -6.2774   41.5258 H   0  0  0  0  0  0
   44.2214   -8.6504   42.9149 H   0  0  0  0  0  0
   43.3473   -5.9018   43.9054 H   0  0  0  0  0  0
   44.2505   -7.0969   44.8967 H   0  0  0  0  0  0
   45.1999   -5.7855   42.3506 H   0  0  0  0  0  0
   45.6948   -5.3860   44.0305 H   0  0  0  0  0  0
   44.3496   -9.2158   45.1381 H   0  0  0  0  0  0
   43.4097  -10.2270   46.2873 H   0  0  0  0  0  0
   42.6098  -11.6176   44.2897 H   0  0  0  0  0  0
   43.7441  -10.6887   43.2518 H   0  0  0  0  0  0
   45.5243  -11.4069   45.0490 H   0  0  0  0  0  0
   44.3263  -12.6875   45.4380 H   0  0  0  0  0  0
   45.4446  -12.0604   42.6529 H   0  0  0  0  0  0
   45.9209  -13.4524   43.6835 H   0  0  0  0  0  0
   44.3417  -14.1319   41.9302 H   0  0  0  0  0  0
   43.1397  -12.9396   42.5306 H   0  0  0  0  0  0
   43.6160  -14.3316   43.5612 H   0  0  0  0  0  0
   40.1833   -8.9617   45.0594 H   0  0  0  0  0  0
   40.8345  -10.5057   45.7062 H   0  0  0  0  0  0
   40.4412   -9.1928   47.6732 H   0  0  0  0  0  0
   42.1987   -8.9839   47.3664 H   0  0  0  0  0  0
   41.6088   -6.7843   46.2346 H   0  0  0  0  0  0
   39.9552   -6.9945   46.9039 H   0  0  0  0  0  0
   40.8460   -7.2608   49.1690 H   0  0  0  0  0  0
   42.5314   -7.2553   48.5476 H   0  0  0  0  0  0
   41.9123   -5.0452   49.4843 H   0  0  0  0  0  0
   40.5322   -4.9488   48.3386 H   0  0  0  0  0  0
   42.2176   -4.9433   47.7170 H   0  0  0  0  0  0
  1  2  2  0  0  0
  1  3  1  0  0  0
  1  4  1  0  0  0
  3 40  1  0  0  0
  3 41  1  0  0  0
  3 42  1  0  0  0
  4  5  1  0  0  0
  4 43  1  0  0  0
  5  8  1  0  0  0
  5  6  1  0  0  0
  5 44  1  0  0  0
  6  7  2  0  0  0
  6 20  1  0  0  0
  8  9  1  0  0  0
  8 45  1  0  0  0
  8 46  1  0  0  0
  9 11  2  0  0  0
  9 10  1  0  0  0
 10 12  2  0  0  0
 10 47  1  0  0  0
 11 13  1  0  0  0
 11 48  1  0  0  0
 12 14  1  0  0  0
 12 49  1  0  0  0
 13 14  2  0  0  0
 13 50  1  0  0  0
 14 15  1  0  0  0
 15 16  1  0  0  0
 16 19  1  0  0  0
 16 18  1  0  0  0
 16 17  2  0  0  0
 20 21  1  0  0  0
 20 51  1  0  0  0
 21 22  1  0  0  0
 21 24  1  0  0  0
 21 52  1  0  0  0
 22 23  2  0  0  0
 22 29  1  0  0  0
 24 25  1  0  0  0
 24 53  1  0  0  0
 24 54  1  0  0  0
 25 26  1  0  0  0
 25 55  1  0  0  0
 25 56  1  0  0  0
 26 27  1  0  0  0
 26 28  2  0  0  0
 29 35  1  0  0  0
 29 30  1  0  0  0
 30 31  1  0  0  0
 30 57  1  0  0  0
 30 58  1  0  0  0
 31 32  1  0  0  0
 31 59  1  0  0  0
 31 60  1  0  0  0
 32 33  1  0  0  0
 32 61  1  0  0  0
 32 62  1  0  0  0
 33 34  1  0  0  0
 33 63  1  0  0  0
 33 64  1  0  0  0
 34 65  1  0  0  0
 34 66  1  0  0  0
 34 67  1  0  0  0
 35 36  1  0  0  0
 35 68  1  0  0  0
 35 69  1  0  0  0
 36 37  1  0  0  0
 36 70  1  0  0  0
 36 71  1  0  0  0
 37 38  1  0  0  0
 37 72  1  0  0  0
 37 73  1  0  0  0
 38 39  1  0  0  0
 38 74  1  0  0  0
 38 75  1  0  0  0
 39 76  1  0  0  0
 39 77  1  0  0  0
 39 78  1  0  0  0
M  CHG  3  18  -1  19  -1  27  -1
M  END
> <s_m_source_file>
../1a1b_ligand.sdf

> <i_m_source_file_index>
1

> <s_epik_input>
Tz1QKFtPSF0pKFtPSF0pT2MoW2NIXVtjSF0xKVtjSF1bY0hdYzFbQ0gyXVtDQEhdKFtOSF1DKD1PKVtDSDNdKUMoPU8pW05IXVtDQEBIXShbQ0gyXVtDSDJdQyg9TylbT0hdKUMoPU8pTihbQ0gyXVtDSDJdW0NIMl1bQ0gyXVtDSDNdKVtDSDJdW0NIMl1bQ0gyXVtDSDJdW0NIM10=

> <s_epik_cmdline>
J2VwaWtfYXBwJywgJy1pbWFlJywgJ2xpZ2FuZF9wcm8ubWFlJywgJy1vbWFlJywgJ2xpZ2FuZF9wcmVwLm1hZScsICctbXMnLCAnMScsICctcGgnLCAnNycsICctcGh0JywgJzAuNScsICctbnQn

> <r_epik_Ionization_Penalty>
  0.0857

> <r_epik_Ionization_Penalty_Charging>
  0.0857

> <r_epik_Ionization_Penalty_Neutral>
  0.0000

> <r_epik_State_Penalty>
  0.0749

> <r_epik_Charging_Adjusted_Penalty>
0.16055217340983

> <i_epik_Tot_Q>
-3

> <i_epik_Tot_abs_Q>
3

$$$$
