1a1c_ligand
                    3D
 Schrodinger Suite 2020-3.
 73 74  0  0  1  0            999 V2000
   43.5190   -8.2430   37.7910 C   0  0  0  0  0  0
   44.3230   -7.2900   37.9570 O   0  0  0  0  0  0
   43.6590   -9.2430   36.6520 C   0  0  0  0  0  0
   42.3330   -8.3420   38.3950 N   0  0  0  0  0  0
   41.9790   -7.5290   39.5450 C   0  0  2  0  0  0
   42.3860   -8.1830   40.8420 C   0  0  0  0  0  0
   42.5910   -9.3890   40.8830 O   0  0  0  0  0  0
   40.5100   -7.3070   39.5340 C   0  0  0  0  0  0
   40.1230   -6.4930   38.3120 C   0  0  0  0  0  0
   39.5580   -7.0870   37.2010 C   0  0  0  0  0  0
   40.2580   -5.1200   38.3320 C   0  0  0  0  0  0
   39.1510   -6.3180   36.1340 C   0  0  0  0  0  0
   39.8570   -4.3410   37.2630 C   0  0  0  0  0  0
   39.2830   -4.9390   36.1700 C   0  0  0  0  0  0
   38.8370   -4.1920   35.2070 O   0  0  0  0  0  0
   39.7940   -3.8520   33.8240 P   0  0  0  0  0  0
   39.8700   -5.1270   33.1020 O   0  0  0  0  0  0
   38.9180   -2.7610   33.3280 O   0  5  0  0  0  0
   41.0570   -3.5150   34.5650 O   0  5  0  0  0  0
   42.4950   -7.4340   41.9040 N   0  0  0  0  0  0
   42.8420   -7.9730   43.2160 C   0  0  2  0  0  0
   41.6530   -8.6770   43.8690 C   0  0  0  0  0  0
   40.5120   -8.3620   43.4900 O   0  0  0  0  0  0
   43.2860   -6.8350   44.1050 C   0  0  0  0  0  0
   44.4590   -6.1680   43.4930 C   0  0  0  0  0  0
   45.6790   -7.0390   43.5640 C   0  0  0  0  0  0
   45.9380   -7.6060   44.6290 O   0  5  0  0  0  0
   46.3740   -7.1170   42.5580 O   0  0  0  0  0  0
   41.7790   -9.6160   44.8130 N   0  0  0  0  0  0
   43.0500  -10.1980   45.2100 C   0  0  0  0  0  0
   40.6660   -9.9810   45.6900 C   0  0  0  0  0  0
   40.7430   -9.1770   47.0160 C   0  0  0  0  0  0
   40.4450   -7.6970   46.9960 C   0  0  0  0  0  0
   40.6520   -7.1010   48.3470 C   0  0  0  0  0  0
   40.4800   -5.6460   48.4670 C   0  0  0  0  0  0
   41.9700   -7.4310   48.9710 C   0  0  0  0  0  0
   42.1810   -6.2700   49.9250 C   0  0  0  0  0  0
   40.9440   -5.4670   49.8720 C   0  0  0  0  0  0
   44.6472   -9.1283   36.1827 H   0  0  0  0  0  0
   42.8741   -9.0586   35.9037 H   0  0  0  0  0  0
   43.5568  -10.2647   37.0465 H   0  0  0  0  0  0
   41.6127   -9.0699   37.9933 H   0  0  0  0  0  0
   42.5203   -6.5771   39.4410 H   0  0  0  0  0  0
   39.9928   -8.2773   39.5038 H   0  0  0  0  0  0
   40.2147   -6.7622   40.4428 H   0  0  0  0  0  0
   39.4337   -8.1694   37.1685 H   0  0  0  0  0  0
   40.6902   -4.6394   39.2097 H   0  0  0  0  0  0
   38.7217   -6.7975   35.2543 H   0  0  0  0  0  0
   39.9958   -3.2602   37.2883 H   0  0  0  0  0  0
   42.3138   -6.3558   41.7827 H   0  0  0  0  0  0
   43.6533   -8.6959   43.0451 H   0  0  0  0  0  0
   42.4643   -6.1116   44.2124 H   0  0  0  0  0  0
   43.5599   -7.2285   45.0950 H   0  0  0  0  0  0
   44.2462   -5.9488   42.4363 H   0  0  0  0  0  0
   44.6672   -5.2293   44.0274 H   0  0  0  0  0  0
   43.8343   -9.8802   44.5072 H   0  0  0  0  0  0
   42.9703  -11.2951   45.1989 H   0  0  0  0  0  0
   43.3075   -9.8593   46.2244 H   0  0  0  0  0  0
   39.7139   -9.7560   45.1871 H   0  0  0  0  0  0
   40.7155  -11.0561   45.9172 H   0  0  0  0  0  0
   40.0250   -9.5920   47.7386 H   0  0  0  0  0  0
   41.7603   -9.2468   47.4286 H   0  0  0  0  0  0
   41.1146   -7.1978   46.2802 H   0  0  0  0  0  0
   39.3997   -7.5375   46.6928 H   0  0  0  0  0  0
   39.8170   -7.5714   48.8868 H   0  0  0  0  0  0
   41.1037   -5.1399   47.7155 H   0  0  0  0  0  0
   39.4238   -5.3867   48.3017 H   0  0  0  0  0  0
   41.8991   -8.4000   49.4867 H   0  0  0  0  0  0
   42.7419   -7.4872   48.1894 H   0  0  0  0  0  0
   42.3597   -6.6566   50.9392 H   0  0  0  0  0  0
   43.0507   -5.6807   49.5988 H   0  0  0  0  0  0
   41.1269   -4.3995   50.0645 H   0  0  0  0  0  0
   40.1723   -5.8372   50.5630 H   0  0  0  0  0  0
  1  2  2  0  0  0
  1  3  1  0  0  0
  1  4  1  0  0  0
  3 39  1  0  0  0
  3 40  1  0  0  0
  3 41  1  0  0  0
  4  5  1  0  0  0
  4 42  1  0  0  0
  5  8  1  0  0  0
  5  6  1  0  0  0
  5 43  1  0  0  0
  6  7  2  0  0  0
  6 20  1  0  0  0
  8  9  1  0  0  0
  8 44  1  0  0  0
  8 45  1  0  0  0
  9 11  2  0  0  0
  9 10  1  0  0  0
 10 12  2  0  0  0
 10 46  1  0  0  0
 11 13  1  0  0  0
 11 47  1  0  0  0
 12 14  1  0  0  0
 12 48  1  0  0  0
 13 14  2  0  0  0
 13 49  1  0  0  0
 14 15  1  0  0  0
 15 16  1  0  0  0
 16 19  1  0  0  0
 16 18  1  0  0  0
 16 17  2  0  0  0
 20 21  1  0  0  0
 20 50  1  0  0  0
 21 22  1  0  0  0
 21 24  1  0  0  0
 21 51  1  0  0  0
 22 23  2  0  0  0
 22 29  1  0  0  0
 24 25  1  0  0  0
 24 52  1  0  0  0
 24 53  1  0  0  0
 25 26  1  0  0  0
 25 54  1  0  0  0
 25 55  1  0  0  0
 26 27  1  0  0  0
 26 28  2  0  0  0
 29 31  1  0  0  0
 29 30  1  0  0  0
 30 56  1  0  0  0
 30 57  1  0  0  0
 30 58  1  0  0  0
 31 32  1  0  0  0
 31 59  1  0  0  0
 31 60  1  0  0  0
 32 33  1  0  0  0
 32 61  1  0  0  0
 32 62  1  0  0  0
 33 34  1  0  0  0
 33 63  1  0  0  0
 33 64  1  0  0  0
 34 36  1  0  0  0
 34 35  1  0  0  0
 34 65  1  0  0  0
 35 38  1  0  0  0
 35 66  1  0  0  0
 35 67  1  0  0  0
 36 37  1  0  0  0
 36 68  1  0  0  0
 36 69  1  0  0  0
 37 38  1  0  0  0
 37 70  1  0  0  0
 37 71  1  0  0  0
 38 72  1  0  0  0
 38 73  1  0  0  0
M  CHG  3  18  -1  19  -1  27  -1
M  END
> <s_m_source_file>
../1a1c_ligand.sdf

> <i_m_source_file_index>
1

> <s_epik_input>
Tz1QKFtPSF0pKFtPSF0pT2MoW2NIXVtjSF0xKVtjSF1bY0hdYzFbQ0gyXVtDQEhdKFtOSF1DKD1PKVtDSDNdKUMoPU8pW05IXVtDQEBIXShbQ0gyXVtDSDJdQyg9TylbT0hdKUMoPU8pTihbQ0gzXSlbQ0gyXVtDSDJdW0NIMl1bQ0hdMltDSDJdW0NIMl1bQ0gyXVtDSDJdMg==

> <s_epik_cmdline>
J2VwaWtfYXBwJywgJy1pbWFlJywgJ2xpZ2FuZF9wcm8ubWFlJywgJy1vbWFlJywgJ2xpZ2FuZF9wcmVwLm1hZScsICctbXMnLCAnMScsICctcGgnLCAnNycsICctcGh0JywgJzAuNScsICctbnQn

> <r_epik_Ionization_Penalty>
  0.0857

> <r_epik_Ionization_Penalty_Charging>
  0.0857

> <r_epik_Ionization_Penalty_Neutral>
  0.0000

> <r_epik_State_Penalty>
  0.0749

> <r_epik_Charging_Adjusted_Penalty>
0.160551784929898

> <i_epik_Tot_Q>
-3

> <i_epik_Tot_abs_Q>
3

$$$$
