1a1e_ligand
                    3D
 Schrodinger Suite 2020-3.
 73 74  0  0  1  0            999 V2000
   43.2930   -8.1280   37.5500 C   0  0  0  0  0  0
   44.0670   -7.1860   37.7880 O   0  0  0  0  0  0
   43.5190   -9.0100   36.3320 C   0  0  0  0  0  0
   42.1690   -8.3110   38.2080 N   0  0  0  0  0  0
   41.8750   -7.5040   39.3540 C   0  0  2  0  0  0
   42.3970   -8.1890   40.5900 C   0  0  0  0  0  0
   42.8670   -9.3290   40.5910 O   0  0  0  0  0  0
   40.3910   -7.2910   39.3740 C   0  0  0  0  0  0
   40.0200   -6.4670   38.1650 C   0  0  0  0  0  0
   39.4330   -7.0660   37.0710 C   0  0  0  0  0  0
   40.2030   -5.0890   38.1630 C   0  0  0  0  0  0
   39.0230   -6.2990   35.9910 C   0  0  0  0  0  0
   39.7950   -4.3030   37.0800 C   0  0  0  0  0  0
   39.1970   -4.9130   35.9920 C   0  0  0  0  0  0
   38.7140   -4.1030   34.8990 O   0  0  0  0  0  0
   39.5630   -3.9590   33.5410 P   0  0  0  0  0  0
   39.2960   -5.2230   32.8550 O   0  0  0  0  0  0
   38.9860   -2.7290   32.9200 O   0  5  0  0  0  0
   40.9750   -3.8330   34.0580 O   0  5  0  0  0  0
   42.3460   -7.4520   41.6620 N   0  0  0  0  0  0
   42.8210   -7.9260   42.9250 C   0  0  2  0  0  0
   41.6490   -8.4730   43.7280 C   0  0  0  0  0  0
   40.5250   -7.9950   43.5040 O   0  0  0  0  0  0
   43.4630   -6.7590   43.6070 C   0  0  0  0  0  0
   44.7130   -6.2540   42.9200 C   0  0  0  0  0  0
   45.8500   -7.2030   43.1550 C   0  0  0  0  0  0
   46.3510   -7.2360   44.2790 O   0  5  0  0  0  0
   46.2130   -7.9200   42.2380 O   0  0  0  0  0  0
   41.7710   -9.4590   44.6560 N   0  0  0  0  0  0
   43.0100  -10.2080   44.8790 C   0  0  0  0  0  0
   40.6720   -9.7740   45.5450 C   0  0  0  0  0  0
   43.5030   -9.7480   46.2370 C   0  0  0  0  0  0
   42.3970   -9.9440   47.2660 C   0  0  0  0  0  0
   41.0210   -9.3410   46.9320 C   0  0  1  0  0  0
   40.9160   -7.8430   47.1120 C   0  0  0  0  0  0
   41.2000   -7.5140   48.5540 C   0  0  0  0  0  0
   41.5460   -6.0620   48.7310 C   0  0  0  0  0  0
   40.3430   -5.2830   48.3020 C   0  0  0  0  0  0
   44.4873   -8.7607   35.8734 H   0  0  0  0  0  0
   42.7134   -8.8410   35.6024 H   0  0  0  0  0  0
   43.5198  -10.0662   36.6392 H   0  0  0  0  0  0
   41.4556   -9.0815   37.8802 H   0  0  0  0  0  0
   42.3828   -6.5318   39.2704 H   0  0  0  0  0  0
   39.8804   -8.2647   39.3406 H   0  0  0  0  0  0
   40.1091   -6.7606   40.2955 H   0  0  0  0  0  0
   39.2906   -8.1465   37.0548 H   0  0  0  0  0  0
   40.6737   -4.6114   39.0223 H   0  0  0  0  0  0
   38.5596   -6.7832   35.1314 H   0  0  0  0  0  0
   39.9464   -3.2236   37.0934 H   0  0  0  0  0  0
   41.9235   -6.4399   41.5779 H   0  0  0  0  0  0
   43.5570   -8.7272   42.7624 H   0  0  0  0  0  0
   42.7526   -5.9200   43.6446 H   0  0  0  0  0  0
   43.7484   -7.0439   44.6304 H   0  0  0  0  0  0
   44.5293   -6.1719   41.8386 H   0  0  0  0  0  0
   44.9789   -5.2656   43.3228 H   0  0  0  0  0  0
   42.7935  -11.2864   44.8682 H   0  0  0  0  0  0
   43.7304   -9.9706   44.0823 H   0  0  0  0  0  0
   39.7669   -9.2458   45.2105 H   0  0  0  0  0  0
   40.4894  -10.8587   45.5322 H   0  0  0  0  0  0
   44.3846  -10.3388   46.5264 H   0  0  0  0  0  0
   43.7754   -8.6834   46.1869 H   0  0  0  0  0  0
   42.2214  -11.0196   47.4151 H   0  0  0  0  0  0
   42.6981   -9.4860   48.2197 H   0  0  0  0  0  0
   40.2704   -9.7171   47.6427 H   0  0  0  0  0  0
   41.6489   -7.3433   46.4615 H   0  0  0  0  0  0
   39.9019   -7.5117   46.8440 H   0  0  0  0  0  0
   40.3112   -7.7363   49.1627 H   0  0  0  0  0  0
   42.0476   -8.1191   48.9081 H   0  0  0  0  0  0
   41.7837   -5.8679   49.7873 H   0  0  0  0  0  0
   42.4176   -5.8141   48.1075 H   0  0  0  0  0  0
   40.5443   -4.2072   48.4124 H   0  0  0  0  0  0
   39.4832   -5.5614   48.9291 H   0  0  0  0  0  0
   40.1170   -5.5076   47.2492 H   0  0  0  0  0  0
  1  2  2  0  0  0
  1  3  1  0  0  0
  1  4  1  0  0  0
  3 39  1  0  0  0
  3 40  1  0  0  0
  3 41  1  0  0  0
  4  5  1  0  0  0
  4 42  1  0  0  0
  5  8  1  0  0  0
  5  6  1  0  0  0
  5 43  1  0  0  0
  6  7  2  0  0  0
  6 20  1  0  0  0
  8  9  1  0  0  0
  8 44  1  0  0  0
  8 45  1  0  0  0
  9 11  2  0  0  0
  9 10  1  0  0  0
 10 12  2  0  0  0
 10 46  1  0  0  0
 11 13  1  0  0  0
 11 47  1  0  0  0
 12 14  1  0  0  0
 12 48  1  0  0  0
 13 14  2  0  0  0
 13 49  1  0  0  0
 14 15  1  0  0  0
 15 16  1  0  0  0
 16 19  1  0  0  0
 16 18  1  0  0  0
 16 17  2  0  0  0
 20 21  1  0  0  0
 20 50  1  0  0  0
 21 22  1  0  0  0
 21 24  1  0  0  0
 21 51  1  0  0  0
 22 23  2  0  0  0
 22 29  1  0  0  0
 24 25  1  0  0  0
 24 52  1  0  0  0
 24 53  1  0  0  0
 25 26  1  0  0  0
 25 54  1  0  0  0
 25 55  1  0  0  0
 26 27  1  0  0  0
 26 28  2  0  0  0
 29 31  1  0  0  0
 29 30  1  0  0  0
 30 32  1  0  0  0
 30 56  1  0  0  0
 30 57  1  0  0  0
 31 34  1  0  0  0
 31 58  1  0  0  0
 31 59  1  0  0  0
 32 33  1  0  0  0
 32 60  1  0  0  0
 32 61  1  0  0  0
 33 34  1  0  0  0
 33 62  1  0  0  0
 33 63  1  0  0  0
 34 35  1  0  0  0
 34 64  1  0  0  0
 35 36  1  0  0  0
 35 65  1  0  0  0
 35 66  1  0  0  0
 36 37  1  0  0  0
 36 67  1  0  0  0
 36 68  1  0  0  0
 37 38  1  0  0  0
 37 69  1  0  0  0
 37 70  1  0  0  0
 38 71  1  0  0  0
 38 72  1  0  0  0
 38 73  1  0  0  0
M  CHG  3  18  -1  19  -1  27  -1
M  END
> <s_m_source_file>
../1a1e_ligand.sdf

> <i_m_source_file_index>
1

> <s_epik_input>
Tz1QKFtPSF0pKFtPSF0pT2MoW2NIXVtjSF0xKVtjSF1bY0hdYzFbQ0gyXVtDQEhdKFtOSF1DKD1PKVtDSDNdKUMoPU8pW05IXVtDQEBIXShbQ0gyXVtDSDJdQyg9TylbT0hdKUMoPU8pTjJbQ0gyXVtDSDJdW0NIMl1bQ0BIXShbQ0gyXTIpW0NIMl1bQ0gyXVtDSDJdW0NIM10=

> <s_epik_cmdline>
J2VwaWtfYXBwJywgJy1pbWFlJywgJ2xpZ2FuZF9wcm8ubWFlJywgJy1vbWFlJywgJ2xpZ2FuZF9wcmVwLm1hZScsICctbXMnLCAnMScsICctcGgnLCAnNycsICctcGh0JywgJzAuNScsICctbnQn

> <r_epik_Ionization_Penalty>
  0.0857

> <r_epik_Ionization_Penalty_Charging>
  0.0857

> <r_epik_Ionization_Penalty_Neutral>
  0.0000

> <r_epik_State_Penalty>
  0.0749

> <r_epik_Charging_Adjusted_Penalty>
0.160554895638159

> <i_epik_Tot_Q>
-3

> <i_epik_Tot_abs_Q>
3

$$$$
