1a28_ligand
                    3D
 Schrodinger Suite 2020-3.
 53 56  0  0  1  0            999 V2000
   21.2060    9.9350   63.0810 C   0  0  0  0  0  0
   21.2410    9.4460   64.5510 C   0  0  0  0  0  0
   22.0000    8.1250   64.6300 C   0  0  0  0  0  0
   21.7010    7.3010   65.5120 O   0  0  0  0  0  0
   23.1180    7.8720   63.7340 C   0  0  0  0  0  0
   23.4530    8.7270   62.7850 C   0  0  0  0  0  0
   24.6970    8.4430   61.9510 C   0  0  0  0  0  0
   24.4490    8.6370   60.4430 C   0  0  0  0  0  0
   23.7890    9.9970   60.0980 C   0  0  2  0  0  0
   22.4340   10.0950   60.8720 C   0  0  1  0  0  0
   22.6140   10.0230   62.4340 C   0  0  1  0  0  0
   21.6330   11.3540   60.4500 C   0  0  0  0  0  0
   21.4320   11.4340   58.9110 C   0  0  0  0  0  0
   22.7860   11.4040   58.1690 C   0  0  1  0  0  0
   23.4830   10.0600   58.5980 C   0  0  1  0  0  0
   24.6740    9.9180   57.6180 C   0  0  0  0  0  0
   24.0720   10.4500   56.2670 C   0  0  0  0  0  0
   22.7140   11.1490   56.6270 C   0  0  2  0  0  0
   23.6590   12.6770   58.4540 C   0  0  0  0  0  0
   23.4270   11.2460   63.0070 C   0  0  0  0  0  0
   22.3750   12.3880   55.7810 C   0  0  0  0  0  0
   23.2120   12.8760   55.0520 O   0  0  0  0  0  0
   21.0090   12.9760   55.8570 C   0  0  0  0  0  0
   20.6052    9.2389   62.4773 H   0  0  0  0  0  0
   20.7571   10.9383   63.0389 H   0  0  0  0  0  0
   21.7468   10.1972   65.1754 H   0  0  0  0  0  0
   20.2127    9.3002   64.9135 H   0  0  0  0  0  0
   23.6895    6.9409   63.8622 H   0  0  0  0  0  0
   25.5048    9.1258   62.2532 H   0  0  0  0  0  0
   25.0167    7.4028   62.1118 H   0  0  0  0  0  0
   25.4070    8.5886   59.9047 H   0  0  0  0  0  0
   23.7817    7.8433   60.0760 H   0  0  0  0  0  0
   24.4739   10.8174   60.3587 H   0  0  0  0  0  0
   21.8418    9.2163   60.5767 H   0  0  0  0  0  0
   20.6403   11.3327   60.9233 H   0  0  0  0  0  0
   22.1730   12.2569   60.7712 H   0  0  0  0  0  0
   20.8286   10.5778   58.5750 H   0  0  0  0  0  0
   20.9133   12.3702   58.6571 H   0  0  0  0  0  0
   22.8521    9.1618   58.5262 H   0  0  0  0  0  0
   25.5182   10.5252   57.9766 H   0  0  0  0  0  0
   24.9791    8.8626   57.5621 H   0  0  0  0  0  0
   24.7722   11.1646   55.8098 H   0  0  0  0  0  0
   23.9092    9.6060   55.5806 H   0  0  0  0  0  0
   21.8513   10.5204   56.3613 H   0  0  0  0  0  0
   23.7073   12.8531   59.5387 H   0  0  0  0  0  0
   23.2065   13.5498   57.9606 H   0  0  0  0  0  0
   24.6749   12.5201   58.0624 H   0  0  0  0  0  0
   23.5220   11.1442   64.0982 H   0  0  0  0  0  0
   22.8980   12.1810   62.7706 H   0  0  0  0  0  0
   24.4283   11.2661   62.5521 H   0  0  0  0  0  0
   20.3998   12.3976   56.5672 H   0  0  0  0  0  0
   20.5407   12.9451   54.8622 H   0  0  0  0  0  0
   21.0775   14.0196   56.1978 H   0  0  0  0  0  0
  1  2  1  0  0  0
  1 11  1  0  0  0
  1 24  1  0  0  0
  1 25  1  0  0  0
  2  3  1  0  0  0
  2 26  1  0  0  0
  2 27  1  0  0  0
  3  4  2  0  0  0
  3  5  1  0  0  0
  5  6  2  0  0  0
  5 28  1  0  0  0
  6  7  1  0  0  0
  6 11  1  0  0  0
  7  8  1  0  0  0
  7 29  1  0  0  0
  7 30  1  0  0  0
  8  9  1  0  0  0
  8 31  1  0  0  0
  8 32  1  0  0  0
  9 10  1  0  0  0
  9 15  1  0  0  0
  9 33  1  0  0  0
 10 11  1  0  0  0
 10 12  1  0  0  0
 10 34  1  0  0  0
 11 20  1  0  0  0
 12 13  1  0  0  0
 12 35  1  0  0  0
 12 36  1  0  0  0
 13 14  1  0  0  0
 13 37  1  0  0  0
 13 38  1  0  0  0
 14 15  1  0  0  0
 14 18  1  0  0  0
 14 19  1  0  0  0
 15 16  1  0  0  0
 15 39  1  0  0  0
 16 17  1  0  0  0
 16 40  1  0  0  0
 16 41  1  0  0  0
 17 18  1  0  0  0
 17 42  1  0  0  0
 17 43  1  0  0  0
 18 21  1  0  0  0
 18 44  1  0  0  0
 19 45  1  0  0  0
 19 46  1  0  0  0
 19 47  1  0  0  0
 20 48  1  0  0  0
 20 49  1  0  0  0
 20 50  1  0  0  0
 21 22  2  0  0  0
 21 23  1  0  0  0
 23 51  1  0  0  0
 23 52  1  0  0  0
 23 53  1  0  0  0
M  END
> <s_m_source_file>
../1a28_ligand.sdf

> <i_m_source_file_index>
1

> <s_epik_input>
W0NIMl0xW0NIMl1DKD1PKVtDSF09QyhbQ0BdMTJbQ0gzXSlbQ0gyXVtDSDJdW0NAQEhdM1tDQEBIXTJbQ0gyXVtDSDJdW0NAQF00KFtDSDNdKVtDQEhdM1tDSDJdW0NIMl1bQ0BASF00Qyg9TylbQ0gzXQ==

> <s_epik_cmdline>
J2VwaWtfYXBwJywgJy1pbWFlJywgJ2xpZ2FuZF9wcm8ubWFlJywgJy1vbWFlJywgJ2xpZ2FuZF9wcmVwLm1hZScsICctbXMnLCAnMScsICctcGgnLCAnNycsICctcGh0JywgJzAuNScsICctbnQn

> <r_lp_tautomer_probability>
1

> <r_epik_Ionization_Penalty>
  0.0000

> <r_epik_Ionization_Penalty_Charging>
  0.0000

> <r_epik_Ionization_Penalty_Neutral>
  0.0000

> <r_epik_State_Penalty>
 -0.0000

> <r_epik_Charging_Adjusted_Penalty>
0

> <i_epik_Tot_Q>
0

> <i_epik_Tot_abs_Q>
0

$$$$
