1a2c_ligand
                    3D
 Schrodinger Suite 2020-3.
 92 94  0  0  1  0            999 V2000
   16.1150  -18.1270   21.9550 O   0  0  0  0  0  0
   13.0940  -17.6970   23.8350 O   0  0  0  0  0  0
   15.4060  -20.9170   28.1120 O   0  0  0  0  0  0
   15.2360  -17.7810   22.7540 C   0  0  0  0  0  0
   13.8180  -18.3070   22.7360 C   0  0  1  0  0  0
   13.7910  -19.8430   22.8730 C   0  0  0  0  0  0
   14.2690  -20.3830   24.1940 C   0  0  0  0  0  0
   13.3540  -20.7060   25.1210 C   0  0  0  0  0  0
   13.7420  -20.8120   26.4210 C   0  0  0  0  0  0
   15.0680  -20.7230   26.7550 C   0  0  0  0  0  0
   15.9950  -20.5080   25.8180 C   0  0  0  0  0  0
   15.6020  -20.3590   24.5100 C   0  0  0  0  0  0
   15.4220  -16.8730   23.7010 N   0  0  0  0  0  0
   16.5660  -16.0380   24.0450 C   0  0  2  0  0  0
   16.4450  -14.9470   23.0150 C   0  0  0  0  0  0
   15.4510  -14.2040   23.1150 O   0  0  0  0  0  0
   17.7670  -16.9500   24.2180 C   0  0  0  0  0  0
   17.6580  -17.6860   25.5470 C   0  0  0  0  0  0
   18.5880  -17.0490   26.5540 C   0  0  0  0  0  0
   16.2430  -17.5850   26.1220 C   0  0  0  0  0  0
   15.5220  -13.9470   19.7680 O   0  0  0  0  0  0
   20.4090  -17.4610   20.1070 O   0  0  0  0  0  0
   17.2620  -14.7610   21.9760 N   0  0  0  0  0  0
   16.0070  -13.1080   20.5290 C   0  0  0  0  0  0
   17.1510  -13.5110   21.3110 C   0  0  2  0  0  0
   18.5360  -13.2750   20.6590 C   0  0  0  0  0  0
   19.5390  -14.1750   21.3630 C   0  0  2  0  0  0
   20.8410  -14.3950   20.6040 C   0  0  0  0  0  0
   20.6070  -15.1310   19.2150 C   0  0  0  0  0  0
   19.7300  -16.3680   19.4980 C   0  0  2  0  0  0
   18.3280  -16.0470   20.1460 C   0  0  0  0  0  0
   18.5180  -15.3340   21.5870 C   0  0  2  0  0  0
   15.7610  -11.0520   17.9370 O   0  0  0  0  0  0
   15.4610  -11.8910   20.5710 N   0  0  0  0  0  0
   11.4980  -12.1600   23.6800 N   0  0  0  0  0  0
   10.1570  -12.8340   25.4680 N   0  0  0  0  0  0
   10.3670  -10.5480   25.0080 N   0  3  0  0  0  0
   14.2540  -11.6070   19.9070 C   0  0  1  0  0  0
   13.2090  -10.8090   20.7390 C   0  0  0  0  0  0
   13.1740  -11.7830   21.9080 C   0  0  0  0  0  0
   12.2180  -11.1000   22.9290 C   0  0  0  0  0  0
   10.6740  -11.8330   24.7200 C   0  0  0  0  0  0
   14.5510  -10.6980   18.7130 C   0  0  0  0  0  0
   13.0107  -16.6020   23.8983 H   0  0  0  0  0  0
   14.6151  -21.0916   28.8563 H   0  0  0  0  0  0
   13.3208  -18.0088   21.8012 H   0  0  0  0  0  0
   12.7601  -20.2045   22.7443 H   0  0  0  0  0  0
   14.4356  -20.2912   22.1026 H   0  0  0  0  0  0
   12.3162  -20.8807   24.8371 H   0  0  0  0  0  0
   12.9953  -20.9683   27.1995 H   0  0  0  0  0  0
   17.0497  -20.4515   26.0875 H   0  0  0  0  0  0
   16.3476  -20.2222   23.7268 H   0  0  0  0  0  0
   14.4933  -16.8017   24.2862 H   0  0  0  0  0  0
   16.6174  -15.5113   25.0093 H   0  0  0  0  0  0
   17.7945  -17.6800   23.3956 H   0  0  0  0  0  0
   18.6884  -16.3492   24.2059 H   0  0  0  0  0  0
   17.9262  -18.7374   25.3665 H   0  0  0  0  0  0
   19.6217  -17.0988   26.1812 H   0  0  0  0  0  0
   18.5169  -17.5874   27.5106 H   0  0  0  0  0  0
   18.3022  -15.9973   26.7030 H   0  0  0  0  0  0
   15.5284  -18.0384   25.4193 H   0  0  0  0  0  0
   15.9845  -16.5270   26.2762 H   0  0  0  0  0  0
   16.1992  -18.1171   27.0838 H   0  0  0  0  0  0
   21.3961  -17.7718   19.7342 H   0  0  0  0  0  0
   16.7799  -12.8668   22.1218 H   0  0  0  0  0  0
   18.4846  -13.5239   19.5888 H   0  0  0  0  0  0
   18.8215  -12.2192   20.7766 H   0  0  0  0  0  0
   20.0643  -13.8265   22.2644 H   0  0  0  0  0  0
   21.3157  -13.4237   20.4010 H   0  0  0  0  0  0
   21.5184  -15.0147   21.2099 H   0  0  0  0  0  0
   20.0994  -14.4473   18.5187 H   0  0  0  0  0  0
   21.5766  -15.4321   18.7917 H   0  0  0  0  0  0
   19.5746  -16.8372   18.5153 H   0  0  0  0  0  0
   17.7646  -15.3717   19.4852 H   0  0  0  0  0  0
   17.7642  -16.9817   20.2819 H   0  0  0  0  0  0
   18.7951  -15.9983   22.4188 H   0  0  0  0  0  0
   16.0486  -10.4507   17.0619 H   0  0  0  0  0  0
   15.9747  -11.1019   21.1398 H   0  0  0  0  0  0
   11.6263  -13.2161   23.4002 H   0  0  0  0  0  0
   10.4059  -13.8798   25.2349 H   0  0  0  0  0  0
    9.4876  -12.6024   26.3096 H   0  0  0  0  0  0
   10.7868   -9.7328   24.4004 H   0  0  0  0  0  0
   13.9230  -12.6332   19.6892 H   0  0  0  0  0  0
   13.6048   -9.8069   20.9607 H   0  0  0  0  0  0
   12.2761  -10.7157   20.1636 H   0  0  0  0  0  0
   12.7908  -12.7550   21.5640 H   0  0  0  0  0  0
   14.1901  -11.9107   22.3094 H   0  0  0  0  0  0
   11.4906  -10.4681   22.3984 H   0  0  0  0  0  0
   12.7971  -10.4821   23.6311 H   0  0  0  0  0  0
   14.6576   -9.6792   19.1139 H   0  0  0  0  0  0
   13.6687  -10.7436   18.0576 H   0  0  0  0  0  0
    9.6974  -10.3179   25.8499 H   0  0  0  0  0  0
  1  4  2  0  0  0
  2  5  1  0  0  0
  2 44  1  0  0  0
  3 10  1  0  0  0
  3 45  1  0  0  0
  4  5  1  0  0  0
  4 13  1  0  0  0
  5  6  1  0  0  0
  5 46  1  0  0  0
  6  7  1  0  0  0
  6 47  1  0  0  0
  6 48  1  0  0  0
  7 12  2  0  0  0
  7  8  1  0  0  0
  8  9  2  0  0  0
  8 49  1  0  0  0
  9 10  1  0  0  0
  9 50  1  0  0  0
 10 11  2  0  0  0
 11 12  1  0  0  0
 11 51  1  0  0  0
 12 52  1  0  0  0
 13 14  1  0  0  0
 13 53  1  0  0  0
 14 15  1  0  0  0
 14 17  1  0  0  0
 14 54  1  0  0  0
 15 16  2  0  0  0
 15 23  1  0  0  0
 17 18  1  0  0  0
 17 55  1  0  0  0
 17 56  1  0  0  0
 18 20  1  0  0  0
 18 19  1  0  0  0
 18 57  1  0  0  0
 19 58  1  0  0  0
 19 59  1  0  0  0
 19 60  1  0  0  0
 20 61  1  0  0  0
 20 62  1  0  0  0
 20 63  1  0  0  0
 21 24  2  0  0  0
 22 30  1  0  0  0
 22 64  1  0  0  0
 23 25  1  0  0  0
 23 32  1  0  0  0
 24 25  1  0  0  0
 24 34  1  0  0  0
 25 26  1  0  0  0
 25 65  1  0  0  0
 26 27  1  0  0  0
 26 66  1  0  0  0
 26 67  1  0  0  0
 27 32  1  0  0  0
 27 28  1  0  0  0
 27 68  1  0  0  0
 28 29  1  0  0  0
 28 69  1  0  0  0
 28 70  1  0  0  0
 29 30  1  0  0  0
 29 71  1  0  0  0
 29 72  1  0  0  0
 30 31  1  0  0  0
 30 73  1  0  0  0
 31 32  1  0  0  0
 31 74  1  0  0  0
 31 75  1  0  0  0
 32 76  1  0  0  0
 33 43  1  0  0  0
 33 77  1  0  0  0
 34 38  1  0  0  0
 34 78  1  0  0  0
 35 41  1  0  0  0
 35 42  1  0  0  0
 35 79  1  0  0  0
 36 42  1  0  0  0
 36 80  1  0  0  0
 36 81  1  0  0  0
 37 42  2  0  0  0
 37 82  1  0  0  0
 37 92  1  0  0  0
 38 43  1  0  0  0
 38 39  1  0  0  0
 38 83  1  0  0  0
 39 40  1  0  0  0
 39 84  1  0  0  0
 39 85  1  0  0  0
 40 41  1  0  0  0
 40 86  1  0  0  0
 40 87  1  0  0  0
 41 88  1  0  0  0
 41 89  1  0  0  0
 43 90  1  0  0  0
 43 91  1  0  0  0
M  CHG  1  37   1
M  END
> <s_m_source_file>
../1a2c_ligand.sdf

> <i_m_source_file_index>
1

> <s_epik_input>
W2NIXTFbY0hdYyhbT0hdKVtjSF1bY0hdYzFbQ0gyXVtDQEBIXShbT0hdKUMoPU8pW05IXVtDQEBIXShbQ0gyXVtDSF0oW0NIM10pW0NIM10pQyg9TylOKFtDQEhdKFtDQEhdMjMpW0NIMl1bQ0BIXShbT0hdKVtDSDJdW0NIMl0zKVtDQEBIXShbQ0gyXTIpQyg9TylbTkhdW0NASF0oW0NIMl1bT0hdKVtDSDJdW0NIMl1bQ0gyXVtOSF0vQyhbTkgyXSk9TlxbSF0=

> <s_epik_cmdline>
J2VwaWtfYXBwJywgJy1pbWFlJywgJ2xpZ2FuZF9wcm8ubWFlJywgJy1vbWFlJywgJ2xpZ2FuZF9wcmVwLm1hZScsICctbXMnLCAnMScsICctcGgnLCAnNycsICctcGh0JywgJzAuNScsICctbnQn

> <r_lp_tautomer_probability>
1

> <r_epik_Ionization_Penalty>
  0.0005

> <r_epik_Ionization_Penalty_Charging>
  0.0000

> <r_epik_Ionization_Penalty_Neutral>
  0.0005

> <r_epik_State_Penalty>
 -0.0000

> <r_epik_Charging_Adjusted_Penalty>
2.41654511826174e-06

> <i_epik_Tot_Q>
1

> <i_epik_Tot_abs_Q>
1

> <s_epik_Chemistry_Notes>
This compound has an imine and may undergo hydrolysis.

$$$$
