1a37_ligand
                    3D
 Schrodinger Suite 2020-3.
 59 58  0  0  1  0            999 V2000
   18.8740   66.1660  -19.8220 N   0  3  0  0  0  0
   19.3510   66.2730  -18.3800 C   0  0  0  0  0  0
   18.2520   66.8080  -17.4710 C   0  0  0  0  0  0
   17.0990   66.7980  -17.8940 O   0  0  0  0  0  0
   18.5530   67.1860  -16.2250 N   0  0  0  0  0  0
   17.5050   67.7380  -15.3700 C   0  0  0  0  0  0
   17.3340   67.1920  -13.9590 C   0  0  0  0  0  0
   18.2410   67.3330  -13.1500 O   0  0  0  0  0  0
   16.1130   66.7160  -13.6570 N   0  0  0  0  0  0
   15.7210   66.1050  -12.3740 C   0  0  0  0  0  0
   15.9140   66.8620  -11.0660 C   0  0  0  0  0  0
   16.6360   67.8550  -11.0790 O   0  0  0  0  0  0
   15.2830   66.4620   -9.9480 N   0  0  0  0  0  0
   14.3780   65.3200   -9.8140 C   0  0  2  0  0  0
   13.7520   65.2630   -8.3770 C   0  0  0  0  0  0
   12.5660   64.9690   -8.1840 O   0  0  0  0  0  0
   15.2090   64.0250   -9.9580 C   0  0  0  0  0  0
   15.3410   63.2390  -10.9140 O   0  0  0  0  0  0
   17.3870   61.8400  -11.1910 O   0  5  0  0  0  0
   16.4770   62.0590   -8.8320 O   0  5  0  0  0  0
   15.2580   60.7350  -10.5510 O   0  0  0  0  0  0
   16.1950   61.8450  -10.3070 P   0  0  0  0  0  0
   14.5570   65.5170   -7.3520 N   0  0  0  0  0  0
   14.0370   65.4740   -5.9940 C   0  0  0  0  0  0
   15.0710   65.7060   -4.9070 C   0  0  0  0  0  0
   16.0550   66.3920   -5.1480 O   0  0  0  0  0  0
   14.8550   65.1340   -3.7200 N   0  0  0  0  0  0
   15.7890   65.3010   -2.6110 C   0  0  0  0  0  0
   15.2140   64.8830   -1.2530 C   0  0  0  0  0  0
   14.0050   64.7240   -1.1170 O   0  0  0  0  0  0
   16.0610   64.6820   -0.2480 N   0  0  0  0  0  0
   15.5510   64.2780    1.0500 C   0  0  0  0  0  0
   16.5510   64.4290    2.1760 C   0  0  0  0  0  0
   16.5720   63.5600    3.0700 O   0  0  0  0  0  0
   17.3867   65.4630    2.2111 O   0  5  0  0  0  0
   19.6893   65.7777  -20.4500 H   0  0  0  0  0  0
   18.5743   67.1606  -20.1838 H   0  0  0  0  0  0
   18.0137   65.4824  -19.8739 H   0  0  0  0  0  0
   19.6507   65.2784  -18.0182 H   0  0  0  0  0  0
   20.2113   66.9565  -18.3281 H   0  0  0  0  0  0
   19.5790   67.0846  -15.8416 H   0  0  0  0  0  0
   17.6771   68.8151  -15.2281 H   0  0  0  0  0  0
   16.5249   67.5827  -15.8446 H   0  0  0  0  0  0
   15.3762   66.8125  -14.4681 H   0  0  0  0  0  0
   14.6443   65.8803  -12.3887 H   0  0  0  0  0  0
   16.2877   65.1744  -12.2227 H   0  0  0  0  0  0
   15.5053   67.0930   -9.0748 H   0  0  0  0  0  0
   13.6236   65.4627  -10.6017 H   0  0  0  0  0  0
   16.2739   64.2538   -9.8045 H   0  0  0  0  0  0
   14.8794   63.2923   -9.2066 H   0  0  0  0  0  0
   15.6153   65.7596   -7.5283 H   0  0  0  0  0  0
   13.2686   66.2515   -5.8708 H   0  0  0  0  0  0
   13.5929   64.4860   -5.8025 H   0  0  0  0  0  0
   13.9482   64.5254   -3.5885 H   0  0  0  0  0  0
   16.6844   64.6877   -2.7902 H   0  0  0  0  0  0
   16.0791   66.3591   -2.5321 H   0  0  0  0  0  0
   17.1423   64.8200   -0.3954 H   0  0  0  0  0  0
   14.6757   64.8925    1.3075 H   0  0  0  0  0  0
   15.2577   63.2184    1.0151 H   0  0  0  0  0  0
  1  2  1  0  0  0
  1 36  1  0  0  0
  1 37  1  0  0  0
  1 38  1  0  0  0
  2  3  1  0  0  0
  2 39  1  0  0  0
  2 40  1  0  0  0
  3  4  2  0  0  0
  3  5  1  0  0  0
  5  6  1  0  0  0
  5 41  1  0  0  0
  6  7  1  0  0  0
  6 42  1  0  0  0
  6 43  1  0  0  0
  7  8  2  0  0  0
  7  9  1  0  0  0
  9 10  1  0  0  0
  9 44  1  0  0  0
 10 11  1  0  0  0
 10 45  1  0  0  0
 10 46  1  0  0  0
 11 12  2  0  0  0
 11 13  1  0  0  0
 13 14  1  0  0  0
 13 47  1  0  0  0
 14 15  1  0  0  0
 14 17  1  0  0  0
 14 48  1  0  0  0
 15 16  2  0  0  0
 15 23  1  0  0  0
 17 18  1  0  0  0
 17 49  1  0  0  0
 17 50  1  0  0  0
 18 22  1  0  0  0
 19 22  1  0  0  0
 20 22  1  0  0  0
 21 22  2  0  0  0
 23 24  1  0  0  0
 23 51  1  0  0  0
 24 25  1  0  0  0
 24 52  1  0  0  0
 24 53  1  0  0  0
 25 26  2  0  0  0
 25 27  1  0  0  0
 27 28  1  0  0  0
 27 54  1  0  0  0
 28 29  1  0  0  0
 28 55  1  0  0  0
 28 56  1  0  0  0
 29 30  2  0  0  0
 29 31  1  0  0  0
 31 32  1  0  0  0
 31 57  1  0  0  0
 32 33  1  0  0  0
 32 58  1  0  0  0
 32 59  1  0  0  0
 33 34  2  0  0  0
 33 35  1  0  0  0
M  CHG  4   1   1  19  -1  20  -1  35  -1
M  END
> <s_m_source_file>
../1a37_ligand.sdf

> <i_m_source_file_index>
1

> <s_epik_input>
W05IMytdW0NIMl1DKD1PKVtOSF1bQ0gyXUMoPU8pW05IXVtDSDJdQyg9TylbTkhdW0NAQEhdKFtDSDJdT1AoPU8pKFtPSF0pW09IXSlDKD1PKVtOSF1bQ0gyXUMoPU8pW05IXVtDSDJdQyg9TylbTkhdW0NIMl1DKD1PKVtPSF0=

> <s_epik_cmdline>
J2VwaWtfYXBwJywgJy1pbWFlJywgJ2xpZ2FuZF9wcm8ubWFlJywgJy1vbWFlJywgJ2xpZ2FuZF9wcmVwLm1hZScsICctbXMnLCAnMScsICctcGgnLCAnNycsICctcGh0JywgJzAuNScsICctbnQn

> <r_lp_tautomer_probability>
1

> <r_epik_Ionization_Penalty>
  0.2119

> <r_epik_Ionization_Penalty_Charging>
  0.2119

> <r_epik_Ionization_Penalty_Neutral>
  0.0000

> <r_epik_State_Penalty>
 -0.0000

> <r_epik_Charging_Adjusted_Penalty>
0.211933865675033

> <i_epik_Tot_Q>
-2

> <i_epik_Tot_abs_Q>
4

$$$$
