1a42_ligand
                    3D
 Schrodinger Suite 2020-3.
 45 46  0  0  1  0            999 V2000
   -5.4450    2.0670   16.0490 C   0  0  0  0  0  0
   -3.3940    5.2050   13.0190 C   0  0  0  0  0  0
   -3.0550    3.8670   13.7100 C   0  0  1  0  0  0
   -3.3490    7.4080   13.9350 C   0  0  0  0  0  0
   -2.0760    7.4260   14.7640 C   0  0  0  0  0  0
   -1.9150    9.7690   15.0590 C   0  0  0  0  0  0
   -0.8780   10.9030   15.1780 C   0  0  0  0  0  0
   -5.4250    0.9940   18.2870 O   0  0  0  0  0  0
   -7.3980    0.8170   16.9950 O   0  0  0  0  0  0
   -5.4860   -0.5450   16.4610 N   0  0  0  0  0  0
   -5.9660    0.7500   16.9970 S   0  0  0  0  0  0
   -4.3210    2.1520   15.2920 C   0  0  0  0  0  0
   -4.1650    3.3450   14.6420 C   0  0  0  0  0  0
   -5.2160    4.2000   14.9310 C   0  0  0  0  0  0
   -6.3790    3.5010   15.9790 S   0  0  0  0  0  0
   -5.2950    5.8270   14.3680 S   0  0  0  0  0  0
   -6.1600    5.8730   13.2440 O   0  0  0  0  0  0
   -5.8580    6.6800   15.3730 O   0  0  0  0  0  0
   -3.8480    6.0650   14.0900 N   0  0  1  0  0  0
   -2.7760    2.8950   12.6490 N   0  3  0  0  0  0
   -1.3070    8.5960   14.5330 O   0  0  0  0  0  0
   -1.5640    3.0110   11.8410 C   0  0  0  0  0  0
   -1.4630    1.9270   10.7540 C   0  0  0  0  0  0
   -2.4933    5.6030   12.5288 H   0  0  0  0  0  0
   -4.1788    5.0403   12.2661 H   0  0  0  0  0  0
   -2.1595    3.9864   14.3376 H   0  0  0  0  0  0
   -3.1531    7.6058   12.8708 H   0  0  0  0  0  0
   -4.0970    8.1226   14.3091 H   0  0  0  0  0  0
   -2.3339    7.3903   15.8327 H   0  0  0  0  0  0
   -1.4584    6.5530   14.5065 H   0  0  0  0  0  0
   -2.7258   10.0932   14.3901 H   0  0  0  0  0  0
   -2.3265    9.5532   16.0561 H   0  0  0  0  0  0
   -1.3631   11.8021   15.5858 H   0  0  0  0  0  0
   -0.4651   11.1281   14.1836 H   0  0  0  0  0  0
   -0.0657   10.5881   15.8496 H   0  0  0  0  0  0
   -5.8452   -1.3631   17.1026 H   0  0  0  0  0  0
   -4.3862   -0.5492   16.4428 H   0  0  0  0  0  0
   -3.6024    1.3366   15.2092 H   0  0  0  0  0  0
   -2.7053    1.8873   13.0843 H   0  0  0  0  0  0
   -3.5884    2.9180   11.9077 H   0  0  0  0  0  0
   -1.5497    3.9902   11.3400 H   0  0  0  0  0  0
   -0.6805    2.9182   12.4897 H   0  0  0  0  0  0
   -0.5339    2.0668   10.1820 H   0  0  0  0  0  0
   -2.3260    2.0056   10.0765 H   0  0  0  0  0  0
   -1.4569    0.9336   11.2263 H   0  0  0  0  0  0
  1 15  1  0  0  0
  1 12  2  0  0  0
  1 11  1  0  0  0
  2  3  1  0  0  0
  2 19  1  0  0  0
  2 24  1  0  0  0
  2 25  1  0  0  0
  3 13  1  0  0  0
  3 20  1  0  0  0
  3 26  1  0  0  0
  4 19  1  0  0  0
  4  5  1  0  0  0
  4 27  1  0  0  0
  4 28  1  0  0  0
  5 21  1  0  0  0
  5 29  1  0  0  0
  5 30  1  0  0  0
  6 21  1  0  0  0
  6  7  1  0  0  0
  6 31  1  0  0  0
  6 32  1  0  0  0
  7 33  1  0  0  0
  7 34  1  0  0  0
  7 35  1  0  0  0
  8 11  2  0  0  0
  9 11  2  0  0  0
 10 11  1  0  0  0
 10 36  1  0  0  0
 10 37  1  0  0  0
 12 13  1  0  0  0
 12 38  1  0  0  0
 13 14  2  0  0  0
 14 16  1  0  0  0
 14 15  1  0  0  0
 16 19  1  0  0  0
 16 18  2  0  0  0
 16 17  2  0  0  0
 20 22  1  0  0  0
 20 39  1  0  0  0
 20 40  1  0  0  0
 22 23  1  0  0  0
 22 41  1  0  0  0
 22 42  1  0  0  0
 23 43  1  0  0  0
 23 44  1  0  0  0
 23 45  1  0  0  0
M  CHG  1  20   1
M  END
> <s_m_source_file>
../1a42_ligand.sdf

> <i_m_source_file_index>
1

> <s_epik_input>
Tz1TKD1PKShbTkgyXSljKFtjSF0xKXNjKGMxMilTKD1PKSg9TylOKFtDSDJdW0NAQEhdMltOSDIrXVtDSDJdW0NIM10pW0NIMl1bQ0gyXU9bQ0gyXVtDSDNd

> <s_epik_cmdline>
J2VwaWtfYXBwJywgJy1pbWFlJywgJ2xpZ2FuZF9wcm8ubWFlJywgJy1vbWFlJywgJ2xpZ2FuZF9wcmVwLm1hZScsICctbXMnLCAnMScsICctcGgnLCAnNycsICctcGh0JywgJzAuNScsICctbnQn

> <r_lp_tautomer_probability>
1

> <r_epik_Ionization_Penalty>
  0.0683

> <r_epik_Ionization_Penalty_Charging>
  0.0123

> <r_epik_Ionization_Penalty_Neutral>
  0.0559

> <r_epik_State_Penalty>
 -0.0000

> <r_epik_Charging_Adjusted_Penalty>
0.0123488016875727

> <i_epik_Tot_Q>
1

> <i_epik_Tot_abs_Q>
1

$$$$
