1a46_ligand
                    3D
 Schrodinger Suite 2020-3.
 84 87  0  0  1  0            999 V2000
   17.8330  -13.0420   21.6620 C   0  0  2  0  0  0
   18.8870  -13.0710   20.5870 C   0  0  0  0  0  0
   19.8510  -14.2200   21.1170 C   0  0  0  0  0  0
   19.3270  -16.4440   22.1560 C   0  0  0  0  0  0
   18.1340  -17.2300   22.7620 C   0  0  0  0  0  0
   17.2230  -16.3290   23.5970 C   0  0  1  0  0  0
   17.0320  -14.9230   23.0460 C   0  0  0  0  0  0
   18.8520  -15.2420   21.4440 N   0  0  1  0  0  0
   17.7750  -14.5090   22.0480 N   0  0  0  0  0  0
   15.9850  -14.2900   23.3800 O   0  0  0  0  0  0
   16.6380  -13.0610   20.7550 C   0  0  0  0  0  0
   16.4620  -13.9620   19.8370 O   0  0  0  0  0  0
   15.8090  -16.7300   23.6610 N   0  3  0  0  0  0
   17.4150  -16.4170   25.1230 C   0  0  0  0  0  0
   18.7640  -15.9840   25.5820 C   0  0  0  0  0  0
   19.0510  -14.6340   25.7600 C   0  0  0  0  0  0
   20.3910  -14.2520   26.0760 C   0  0  0  0  0  0
   21.4290  -15.1780   26.2150 C   0  0  0  0  0  0
   21.0990  -16.5480   26.0980 C   0  0  0  0  0  0
   19.7890  -16.9510   25.7560 C   0  0  0  0  0  0
   15.6470  -12.0890   20.7690 N   0  0  0  0  0  0
   14.4940  -11.8920   19.9090 C   0  0  2  0  0  0
   14.4960  -10.9450   18.7130 C   0  0  2  0  0  0
   13.3800  -10.6840   18.0770 O   0  0  0  0  0  0
   13.1950  -11.6150   20.6280 C   0  0  0  0  0  0
   12.8670  -12.5040   21.7570 C   0  0  0  0  0  0
   11.5610  -12.2200   22.4370 C   0  0  0  0  0  0
   11.1700  -13.3510   23.3530 C   0  0  0  0  0  0
   10.0380  -13.1110   24.2350 N   0  3  0  0  0  0
   14.8040  -11.9210   16.4570 N   0  0  0  0  0  0
   15.3450  -11.4350   17.5510 C   0  0  0  0  0  0
   16.4740  -11.0890   17.7310 O   0  0  0  0  0  0
   15.6510  -12.3330   15.3350 C   0  0  0  0  0  0
   16.0390  -13.7960   15.2500 C   0  0  0  0  0  0
   14.9560  -14.6030   14.5390 C   0  0  0  0  0  0
   14.5990  -13.9990   13.1800 C   0  0  0  0  0  0
   14.1680  -12.5610   13.3540 C   0  0  0  0  0  0
   15.2770  -11.7400   13.9980 C   0  0  0  0  0  0
   17.9321  -12.2878   22.4566 H   0  0  0  0  0  0
   18.4185  -13.3082   19.6205 H   0  0  0  0  0  0
   19.3757  -12.0874   20.5260 H   0  0  0  0  0  0
   20.5488  -14.5108   20.3179 H   0  0  0  0  0  0
   20.4192  -13.8512   21.9837 H   0  0  0  0  0  0
   20.0087  -16.1337   22.9616 H   0  0  0  0  0  0
   19.8672  -17.0874   21.4460 H   0  0  0  0  0  0
   17.5346  -17.6693   21.9510 H   0  0  0  0  0  0
   18.5152  -18.0316   23.4118 H   0  0  0  0  0  0
   15.3881  -16.7533   22.6450 H   0  0  0  0  0  0
   15.2501  -16.0067   24.2729 H   0  0  0  0  0  0
   15.7315  -17.7299   24.1130 H   0  0  0  0  0  0
   16.6765  -15.7733   25.6232 H   0  0  0  0  0  0
   17.2758  -17.4578   25.4507 H   0  0  0  0  0  0
   18.2682  -13.8821   25.6602 H   0  0  0  0  0  0
   20.6133  -13.1939   26.2145 H   0  0  0  0  0  0
   22.4528  -14.8565   26.4061 H   0  0  0  0  0  0
   21.8654  -17.3029   26.2740 H   0  0  0  0  0  0
   19.5640  -18.0094   25.6250 H   0  0  0  0  0  0
   15.8403  -11.3922   21.5980 H   0  0  0  0  0  0
   14.6373  -12.9139   19.5279 H   0  0  0  0  0  0
   14.7155   -9.9855   19.2042 H   0  0  0  0  0  0
   12.5109  -10.2954   18.6280 H   0  0  0  0  0  0
   13.2156  -10.5965   21.0431 H   0  0  0  0  0  0
   12.3577  -11.7057   19.9204 H   0  0  0  0  0  0
   12.8146  -13.5437   21.4017 H   0  0  0  0  0  0
   13.6461  -12.4191   22.5289 H   0  0  0  0  0  0
   11.6502  -11.2994   23.0325 H   0  0  0  0  0  0
   10.7735  -12.0919   21.6797 H   0  0  0  0  0  0
   10.9013  -14.2328   22.7528 H   0  0  0  0  0  0
   12.0159  -13.5992   24.0109 H   0  0  0  0  0  0
    9.8547  -14.0058   24.8480 H   0  0  0  0  0  0
    9.1445  -12.8897   23.6328 H   0  0  0  0  0  0
   10.2591  -12.2561   24.8909 H   0  0  0  0  0  0
   13.7106  -12.0181   16.3854 H   0  0  0  0  0  0
   16.5702  -11.8276   15.6661 H   0  0  0  0  0  0
   16.9801  -13.8937   14.6890 H   0  0  0  0  0  0
   16.1734  -14.1993   16.2646 H   0  0  0  0  0  0
   15.3115  -15.6314   14.3776 H   0  0  0  0  0  0
   14.0470  -14.6223   15.1582 H   0  0  0  0  0  0
   15.4778  -14.0371   12.5196 H   0  0  0  0  0  0
   13.7760  -14.5725   12.7286 H   0  0  0  0  0  0
   13.9305  -12.1279   12.3711 H   0  0  0  0  0  0
   13.2768  -12.5206   13.9975 H   0  0  0  0  0  0
   14.9259  -10.7073   14.1403 H   0  0  0  0  0  0
   16.1568  -11.7404   13.3377 H   0  0  0  0  0  0
  1  2  1  0  0  0
  1  9  1  0  0  0
  1 11  1  0  0  0
  1 39  1  0  0  0
  2  3  1  0  0  0
  2 40  1  0  0  0
  2 41  1  0  0  0
  3  8  1  0  0  0
  3 42  1  0  0  0
  3 43  1  0  0  0
  4  5  1  0  0  0
  4  8  1  0  0  0
  4 44  1  0  0  0
  4 45  1  0  0  0
  5  6  1  0  0  0
  5 46  1  0  0  0
  5 47  1  0  0  0
  6  7  1  0  0  0
  6 13  1  0  0  0
  6 14  1  0  0  0
  7  9  1  0  0  0
  7 10  2  0  0  0
  8  9  1  0  0  0
 11 12  2  0  0  0
 11 21  1  0  0  0
 13 48  1  0  0  0
 13 49  1  0  0  0
 13 50  1  0  0  0
 14 15  1  0  0  0
 14 51  1  0  0  0
 14 52  1  0  0  0
 15 16  2  0  0  0
 15 20  1  0  0  0
 16 17  1  0  0  0
 16 53  1  0  0  0
 17 18  2  0  0  0
 17 54  1  0  0  0
 18 19  1  0  0  0
 18 55  1  0  0  0
 19 20  2  0  0  0
 19 56  1  0  0  0
 20 57  1  0  0  0
 21 22  1  0  0  0
 21 58  1  0  0  0
 22 23  1  0  0  0
 22 25  1  0  0  0
 22 59  1  0  0  0
 23 24  1  0  0  0
 23 31  1  0  0  0
 23 60  1  0  0  0
 24 61  1  0  0  0
 25 26  1  0  0  0
 25 62  1  0  0  0
 25 63  1  0  0  0
 26 27  1  0  0  0
 26 64  1  0  0  0
 26 65  1  0  0  0
 27 28  1  0  0  0
 27 66  1  0  0  0
 27 67  1  0  0  0
 28 29  1  0  0  0
 28 68  1  0  0  0
 28 69  1  0  0  0
 29 70  1  0  0  0
 29 71  1  0  0  0
 29 72  1  0  0  0
 30 31  1  0  0  0
 30 33  1  0  0  0
 30 73  1  0  0  0
 31 32  2  0  0  0
 33 34  1  0  0  0
 33 38  1  0  0  0
 33 74  1  0  0  0
 34 35  1  0  0  0
 34 75  1  0  0  0
 34 76  1  0  0  0
 35 36  1  0  0  0
 35 77  1  0  0  0
 35 78  1  0  0  0
 36 37  1  0  0  0
 36 79  1  0  0  0
 36 80  1  0  0  0
 37 38  1  0  0  0
 37 81  1  0  0  0
 37 82  1  0  0  0
 38 83  1  0  0  0
 38 84  1  0  0  0
M  CHG  2  13   1  29   1
M  END
> <s_m_source_file>
../1a46_ligand.sdf

> <i_m_source_file_index>
1

> <s_epik_input>
W2NIXTFbY0hdW2NIXVtjSF1bY0hdYzFbQ0gyXVtDQF0oW05IMytdKShbQ0gyXVtDSDJdMilDKD1PKU4oW05ASCtdMjMpW0NAQEhdKFtDSDJdW0NIMl0zKUMoPU8pW05IXVtDQEBIXShbQ0gyXVtDSDJdW0NIMl1bQ0gyXVtOSDMrXSlbQ0BIXShbT0hdKUMoPU8pW05IXVtDSF00W0NIMl1bQ0gyXVtDSDJdW0NIMl1bQ0gyXTQ=

> <s_epik_cmdline>
J2VwaWtfYXBwJywgJy1pbWFlJywgJ2xpZ2FuZF9wcm8ubWFlJywgJy1vbWFlJywgJ2xpZ2FuZF9wcmVwLm1hZScsICctbXMnLCAnMScsICctcGgnLCAnNycsICctcGh0JywgJzAuNScsICctbnQn

> <r_epik_Ionization_Penalty>
  0.1608

> <r_epik_Ionization_Penalty_Charging>
  0.1608

> <r_epik_Ionization_Penalty_Neutral>
  0.0000

> <r_epik_State_Penalty>
  0.1497

> <r_epik_Charging_Adjusted_Penalty>
0.310478698474786

> <i_epik_Tot_Q>
2

> <i_epik_Tot_abs_Q>
2

$$$$
