1a4g_ligand
                    3D
 Schrodinger Suite 2020-3.
 43 43  0  0  1  0            999 V2000
   -2.2500   58.2420   -5.5910 C   0  0  0  0  0  0
   -3.1720   59.1980   -5.4520 O   0  5  0  0  0  0
   -1.3720   58.0410   -4.8130 O   0  0  0  0  0  0
   -2.3300   57.4010   -6.7980 C   0  0  0  0  0  0
   -1.4680   56.3850   -6.9670 C   0  0  0  0  0  0
   -1.5020   55.5410   -8.2050 C   0  0  1  0  0  0
   -2.2900   56.1690   -9.2970 C   0  0  1  0  0  0
   -2.6540   55.1780  -10.2990 N   0  0  0  0  0  0
   -2.1140   55.1230  -11.5200 C   0  0  0  0  0  0
   -1.3800   55.9770  -11.9750 O   0  0  0  0  0  0
   -2.4680   53.8830  -12.3160 C   0  0  0  0  0  0
   -3.5940   56.7640   -8.6860 C   0  0  1  0  0  0
   -3.2710   57.7090   -7.6700 O   0  0  0  0  0  0
   -4.6460   57.3120   -9.6380 C   0  0  2  0  0  0
   -3.8180   57.8920  -10.0820 O   0  0  0  0  0  0
   -5.8270   57.8570   -9.0220 C   0  0  2  0  0  0
   -6.4010   56.6980   -8.4110 O   0  0  0  0  0  0
   -6.8360   58.4830   -9.9830 C   0  0  0  0  0  0
   -7.4390   57.4730  -10.7910 O   0  0  0  0  0  0
   -0.1890   55.1810   -8.6950 N   0  0  0  0  0  0
    0.0430   54.0300   -9.3200 C   0  0  0  0  0  0
   -0.8960   53.0810   -9.4020 N   0  0  0  0  0  0
    1.2160   53.8670   -9.9260 N   0  3  0  0  0  0
   -0.7221   56.1616   -6.1900 H   0  0  0  0  0  0
   -1.9782   54.5937   -7.9120 H   0  0  0  0  0  0
   -1.6537   56.9094   -9.8039 H   0  0  0  0  0  0
   -3.4141   54.4168  -10.0690 H   0  0  0  0  0  0
   -3.1399   53.2457  -11.7224 H   0  0  0  0  0  0
   -1.5500   53.3259  -12.5545 H   0  0  0  0  0  0
   -2.9711   54.1774  -13.2489 H   0  0  0  0  0  0
   -4.1218   55.9398   -8.1839 H   0  0  0  0  0  0
   -5.1785   56.8724  -10.4943 H   0  0  0  0  0  0
   -2.9587   57.3704  -10.5286 H   0  0  0  0  0  0
   -5.5326   58.6463   -8.3147 H   0  0  0  0  0  0
   -5.8175   56.1130   -7.6849 H   0  0  0  0  0  0
   -7.6189   58.9990   -9.4077 H   0  0  0  0  0  0
   -6.3226   59.2060  -10.6339 H   0  0  0  0  0  0
   -8.1938   57.7477  -11.5425 H   0  0  0  0  0  0
    0.6578   55.8690   -8.5554 H   0  0  0  0  0  0
   -1.8643   53.2205   -8.8991 H   0  0  0  0  0  0
   -0.6999   52.1611   -9.9723 H   0  0  0  0  0  0
    1.9850   54.6504   -9.8556 H   0  0  0  0  0  0
    1.4169   52.9488  -10.4975 H   0  0  0  0  0  0
  1  4  1  0  0  0
  1  3  2  0  0  0
  1  2  1  0  0  0
  4 13  1  0  0  0
  4  5  2  0  0  0
  5  6  1  0  0  0
  5 24  1  0  0  0
  6 20  1  0  0  0
  6  7  1  0  0  0
  6 25  1  0  0  0
  7 12  1  0  0  0
  7  8  1  0  0  0
  7 26  1  0  0  0
  8  9  1  0  0  0
  8 27  1  0  0  0
  9 11  1  0  0  0
  9 10  2  0  0  0
 11 28  1  0  0  0
 11 29  1  0  0  0
 11 30  1  0  0  0
 12 14  1  0  0  0
 12 13  1  0  0  0
 12 31  1  0  0  0
 14 16  1  0  0  0
 14 15  1  0  0  0
 14 32  1  0  0  0
 15 33  1  0  0  0
 16 18  1  0  0  0
 16 17  1  0  0  0
 16 34  1  0  0  0
 17 35  1  0  0  0
 18 19  1  0  0  0
 18 36  1  0  0  0
 18 37  1  0  0  0
 19 38  1  0  0  0
 20 21  1  0  0  0
 20 39  1  0  0  0
 21 23  2  0  0  0
 21 22  1  0  0  0
 22 40  1  0  0  0
 22 41  1  0  0  0
 23 42  1  0  0  0
 23 43  1  0  0  0
M  CHG  2   2  -1  23   1
M  END
> <s_m_source_file>
../1a4g_ligand.sdf

> <i_m_source_file_index>
1

> <s_epik_input>
W09IXUMoPU8pQzE9W0NIXVtDQEhdKFtOSF0vQyhbTkgyXSk9TlxbSF0pW0NAQEhdKFtOSF1DKD1PKVtDSDNdKVtDQEBIXShPMSlbQ0BIXShbT0hdKVtDQEhdKFtPSF0pW0NIMl1bT0hd

> <s_epik_cmdline>
J2VwaWtfYXBwJywgJy1pbWFlJywgJ2xpZ2FuZF9wcm8ubWFlJywgJy1vbWFlJywgJ2xpZ2FuZF9wcmVwLm1hZScsICctbXMnLCAnMScsICctcGgnLCAnNycsICctcGh0JywgJzAuNScsICctbnQn

> <r_lp_tautomer_probability>
1

> <r_epik_Ionization_Penalty>
  0.0004

> <r_epik_Ionization_Penalty_Charging>
  0.0004

> <r_epik_Ionization_Penalty_Neutral>
  0.0000

> <r_epik_State_Penalty>
 -0.0000

> <r_epik_Charging_Adjusted_Penalty>
0.000448630169560173

> <i_epik_Tot_Q>
0

> <i_epik_Tot_abs_Q>
2

> <s_epik_Chemistry_Notes>
This compound has an imine and may undergo hydrolysis.

$$$$
