1a4h_ligand
                    3D
 Schrodinger Suite 2020-3.
 80 81  0  0  1  0            999 V2000
   11.8980   -4.1060   -0.0770 O   0  0  0  0  0  0
   18.3160   -2.7340   -2.3380 O   0  0  0  0  0  0
   18.3060   -4.3960   -4.5700 O   0  0  0  0  0  0
   19.8210   -3.2570   -5.7130 O   0  0  0  0  0  0
   14.6760   -1.0450   -9.5010 O   0  0  0  0  0  0
   14.5630    1.4480   -7.6390 O   0  0  0  0  0  0
   11.4380   -4.4140   -8.2560 O   0  0  0  0  0  0
   13.2010   -6.3020   -6.5970 O   0  0  0  0  0  0
   10.4770   -2.6280   -3.8990 O   0  0  0  0  0  0
   11.4190   -4.6210   -2.3080 N   0  0  0  0  0  0
   20.4610   -5.0930   -4.8510 N   0  0  0  0  0  0
   11.9460   -3.7710   -1.2720 C   0  0  0  0  0  0
   12.5870   -2.3550   -1.4050 C   0  0  0  0  0  0
   13.8180   -2.4080   -2.0340 C   0  0  0  0  0  0
   14.9020   -1.4030   -2.2370 C   0  0  0  0  0  0
   16.1950   -1.7270   -2.5680 C   0  0  0  0  0  0
   17.0050   -3.0090   -2.8250 C   0  0  1  0  0  0
   17.4520   -3.2520   -4.2950 C   0  0  2  0  0  0
   16.4810   -3.2080   -5.4570 C   0  0  0  0  0  0
   16.6800   -2.3600   -6.4830 C   0  0  0  0  0  0
   16.0410   -1.9750   -7.8000 C   0  0  1  0  0  0
   15.4340   -0.6540   -8.3270 C   0  0  2  0  0  0
   14.4320    0.0620   -7.3810 C   0  0  2  0  0  0
   12.9420   -0.2680   -7.5260 C   0  0  0  0  0  0
   12.3710   -0.8080   -6.1990 C   0  0  2  0  0  0
   11.2230   -1.8470   -6.5040 C   0  0  0  0  0  0
   11.3620   -3.2860   -6.0250 C   0  0  0  0  0  0
   11.7230   -4.3680   -6.8230 C   0  0  0  0  0  0
   12.4560   -5.5300   -6.0180 C   0  0  0  0  0  0
   12.2040   -5.6850   -4.5400 C   0  0  0  0  0  0
   11.5380   -4.7180   -3.8510 C   0  0  0  0  0  0
   11.0800   -3.4780   -4.5510 C   0  0  0  0  0  0
   12.0120   -1.0670   -0.6620 C   0  0  0  0  0  0
   18.5220   -2.7580   -0.9420 C   0  0  0  0  0  0
   19.5210   -4.1680   -5.0030 C   0  0  0  0  0  0
   15.7880   -4.5240   -5.3980 C   0  0  0  0  0  0
   17.2630   -2.2560   -8.6650 C   0  0  0  0  0  0
   15.1580    2.2530   -6.6380 C   0  0  0  0  0  0
   12.3020    0.2910   -5.0710 C   0  0  0  0  0  0
   10.6420   -5.3620   -9.1330 C   0  0  0  0  0  0
   15.1741   -1.5758  -10.3257 H   0  0  0  0  0  0
   10.7449   -5.4507   -2.0488 H   0  0  0  0  0  0
   20.2722   -5.9694   -4.2136 H   0  0  0  0  0  0
   21.4286   -4.9831   -5.3624 H   0  0  0  0  0  0
   14.1521   -3.3411   -2.5112 H   0  0  0  0  0  0
   14.6153   -0.3491   -2.1063 H   0  0  0  0  0  0
   16.9411   -0.9320   -2.7138 H   0  0  0  0  0  0
   16.4177   -3.8231   -2.3752 H   0  0  0  0  0  0
   18.0564   -2.3336   -4.3304 H   0  0  0  0  0  0
   17.5467   -1.6827   -6.4765 H   0  0  0  0  0  0
   15.0674   -2.4836   -7.7418 H   0  0  0  0  0  0
   16.2508    0.0516   -8.5388 H   0  0  0  0  0  0
   14.7054   -0.1984   -6.3478 H   0  0  0  0  0  0
   12.3906    0.6417   -7.8060 H   0  0  0  0  0  0
   12.8098   -1.0317   -8.3065 H   0  0  0  0  0  0
   13.0707   -1.4579   -5.6531 H   0  0  0  0  0  0
   10.2842   -1.5007   -6.0471 H   0  0  0  0  0  0
   11.0897   -1.9372   -7.5922 H   0  0  0  0  0  0
   12.5612   -6.5851   -4.0182 H   0  0  0  0  0  0
   11.0177   -1.2946   -0.2501 H   0  0  0  0  0  0
   11.9307   -0.2362   -1.3784 H   0  0  0  0  0  0
   12.6908   -0.7815    0.1551 H   0  0  0  0  0  0
   19.5752   -2.5283   -0.7228 H   0  0  0  0  0  0
   18.2757   -3.7567   -0.5522 H   0  0  0  0  0  0
   17.8757   -2.0077   -0.4631 H   0  0  0  0  0  0
   15.8339   -4.9169   -4.3716 H   0  0  0  0  0  0
   16.2814   -5.2292   -6.0830 H   0  0  0  0  0  0
   14.7366   -4.3984   -5.6959 H   0  0  0  0  0  0
   17.7394   -3.1906   -8.3341 H   0  0  0  0  0  0
   17.9785   -1.4260   -8.5695 H   0  0  0  0  0  0
   16.9535   -2.3543   -9.7160 H   0  0  0  0  0  0
   15.1906    3.2982   -6.9794 H   0  0  0  0  0  0
   16.1810    1.8989   -6.4428 H   0  0  0  0  0  0
   14.5647    2.1874   -5.7140 H   0  0  0  0  0  0
   13.2318    0.8788   -5.0744 H   0  0  0  0  0  0
   12.1793   -0.1955   -4.0921 H   0  0  0  0  0  0
   11.4467    0.9566   -5.2594 H   0  0  0  0  0  0
   10.6876   -5.0206  -10.1777 H   0  0  0  0  0  0
    9.5943   -5.3788   -8.7981 H   0  0  0  0  0  0
   11.0669   -6.3739   -9.0591 H   0  0  0  0  0  0
  1 12  2  0  0  0
  2 17  1  0  0  0
  2 34  1  0  0  0
  3 18  1  0  0  0
  3 35  1  0  0  0
  4 35  2  0  0  0
  5 22  1  0  0  0
  5 41  1  0  0  0
  6 23  1  0  0  0
  6 38  1  0  0  0
  7 28  1  0  0  0
  7 40  1  0  0  0
  8 29  2  0  0  0
  9 32  2  0  0  0
 10 12  1  0  0  0
 10 31  1  0  0  0
 10 42  1  0  0  0
 11 35  1  0  0  0
 11 43  1  0  0  0
 11 44  1  0  0  0
 12 13  1  0  0  0
 13 14  2  0  0  0
 13 33  1  0  0  0
 14 15  1  0  0  0
 14 45  1  0  0  0
 15 16  2  0  0  0
 15 46  1  0  0  0
 16 17  1  0  0  0
 16 47  1  0  0  0
 17 18  1  0  0  0
 17 48  1  0  0  0
 18 19  1  0  0  0
 18 49  1  0  0  0
 19 20  2  0  0  0
 19 36  1  0  0  0
 20 21  1  0  0  0
 20 50  1  0  0  0
 21 22  1  0  0  0
 21 37  1  0  0  0
 21 51  1  0  0  0
 22 23  1  0  0  0
 22 52  1  0  0  0
 23 24  1  0  0  0
 23 53  1  0  0  0
 24 25  1  0  0  0
 24 54  1  0  0  0
 24 55  1  0  0  0
 25 26  1  0  0  0
 25 39  1  0  0  0
 25 56  1  0  0  0
 26 27  1  0  0  0
 26 57  1  0  0  0
 26 58  1  0  0  0
 27 28  2  0  0  0
 27 32  1  0  0  0
 28 29  1  0  0  0
 29 30  1  0  0  0
 30 31  2  0  0  0
 30 59  1  0  0  0
 31 32  1  0  0  0
 33 60  1  0  0  0
 33 61  1  0  0  0
 33 62  1  0  0  0
 34 63  1  0  0  0
 34 64  1  0  0  0
 34 65  1  0  0  0
 36 66  1  0  0  0
 36 67  1  0  0  0
 36 68  1  0  0  0
 37 69  1  0  0  0
 37 70  1  0  0  0
 37 71  1  0  0  0
 38 72  1  0  0  0
 38 73  1  0  0  0
 38 74  1  0  0  0
 39 75  1  0  0  0
 39 76  1  0  0  0
 39 77  1  0  0  0
 40 78  1  0  0  0
 40 79  1  0  0  0
 40 80  1  0  0  0
M  END
> <s_m_source_file>
../1a4h_ligand.sdf

> <i_m_source_file_index>
1

> <s_epik_input>
W0NIM11PQyg9QzEyKUMoPU8pW0NIXT1DKEMyPU8pW05IXUMoPU8pL0MoW0NIM10pPVtDSF0vW0NIXT1bQ0hdXFtDQEhdKE9bQ0gzXSlbQ0BASF0oT0MoPU8pW05IMl0pL0MoW0NIM10pPVtDSF0vW0NASF0oW0NIM10pW0NAQEhdKFtPSF0pW0NAQEhdKE9bQ0gzXSlbQ0gyXVtDQEhdKFtDSDJdMSlbQ0gzXQ==

> <s_epik_cmdline>
J2VwaWtfYXBwJywgJy1pbWFlJywgJ2xpZ2FuZF9wcm8ubWFlJywgJy1vbWFlJywgJ2xpZ2FuZF9wcmVwLm1hZScsICctbXMnLCAnMScsICctcGgnLCAnNycsICctcGh0JywgJzAuNScsICctbnQn

> <r_lp_tautomer_probability>
1

> <r_epik_Ionization_Penalty>
  0.1377

> <r_epik_Ionization_Penalty_Charging>
  0.0000

> <r_epik_Ionization_Penalty_Neutral>
  0.1377

> <r_epik_State_Penalty>
 -0.0000

> <r_epik_Charging_Adjusted_Penalty>
0

> <i_epik_Tot_Q>
0

> <i_epik_Tot_abs_Q>
0

> <s_epik_Chemistry_Notes>
This compound has an ester and may undergo hydrolysis at high or low pH.

$$$$
