1a4k_ligand
                    3D
 Schrodinger Suite 2020-3.
 53 56  0  0  1  0            999 V2000
   15.6040    7.0570   -2.2840 C   0  0  0  0  0  0
   15.9760    5.7400   -1.5940 C   0  0  0  0  0  0
   15.4720    4.6940   -1.9840 O   0  0  0  0  0  0
   16.8250    5.6200   -0.5830 N   0  0  0  0  0  0
   17.8010    6.4300    0.1030 C   0  0  0  0  0  0
   17.4160    7.6830    0.6260 C   0  0  0  0  0  0
   18.3390    8.4880    1.2940 C   0  0  0  0  0  0
   19.6990    8.0850    1.4790 C   0  0  0  0  0  0
   20.0900    6.8050    0.9420 C   0  0  0  0  0  0
   19.1510    5.9910    0.2640 C   0  0  0  0  0  0
   20.6510    9.0020    2.2090 N   0  0  0  0  0  0
   20.3460    9.7660    3.3110 C   0  0  0  0  0  0
   21.5050   10.6030    3.7940 C   0  0  1  0  0  0
   22.6620   10.2210    2.8080 C   0  0  1  0  0  0
   21.9530    9.2230    1.8830 C   0  0  0  0  0  0
   19.2670    9.8250    3.8880 O   0  0  0  0  0  0
   22.5660    8.7090    0.9450 O   0  0  0  0  0  0
   21.3110   12.2290    3.7910 C   0  0  2  0  0  0
   21.0230   12.7550    2.2910 C   0  0  0  0  0  0
   22.2250   12.3000    1.3290 C   0  0  0  0  0  0
   23.7240   12.4530    3.4150 C   0  0  0  0  0  0
   22.6700   12.8440    4.2460 C   0  0  0  0  0  0
   23.3440   11.4890    2.1610 C   0  0  1  0  0  0
   24.4370   10.9940    1.2860 N   0  0  0  0  0  0
   25.7120   10.8320    1.5630 C   0  0  0  0  0  0
   26.2400   11.0850    2.6430 O   0  0  0  0  0  0
   26.3270   10.3200    0.4320 O   0  0  0  0  0  0
   27.7520   10.0260    0.4470 C   0  0  0  0  0  0
   28.2080    9.2280   -0.7690 C   0  0  0  0  0  0
   29.1480    8.4040   -0.6340 O   0  0  0  0  0  0
   27.6260    9.4150   -1.8690 O   0  5  0  0  0  0
   16.1465    7.8867   -1.8072 H   0  0  0  0  0  0
   14.5210    7.2260   -2.1919 H   0  0  0  0  0  0
   15.8776    7.0035   -3.3481 H   0  0  0  0  0  0
   16.8922    4.6709   -0.0309 H   0  0  0  0  0  0
   16.3879    8.0250    0.5069 H   0  0  0  0  0  0
   18.0145    9.4518    1.6863 H   0  0  0  0  0  0
   21.1177    6.4612    1.0592 H   0  0  0  0  0  0
   19.4592    5.0254   -0.1368 H   0  0  0  0  0  0
   21.6450   10.3122    4.8456 H   0  0  0  0  0  0
   23.5461    9.7342    3.2455 H   0  0  0  0  0  0
   20.4969   12.5411    4.4616 H   0  0  0  0  0  0
   20.0777   12.3260    1.9272 H   0  0  0  0  0  0
   20.9500   13.8526    2.2950 H   0  0  0  0  0  0
   21.8320   11.6496    0.5337 H   0  0  0  0  0  0
   22.6910   13.1889    0.8789 H   0  0  0  0  0  0
   24.4449   11.9387    4.0676 H   0  0  0  0  0  0
   24.1703   13.3853    3.0387 H   0  0  0  0  0  0
   22.6020   13.9416    4.2223 H   0  0  0  0  0  0
   22.8979   12.5128    5.2699 H   0  0  0  0  0  0
   24.2212   10.7039    0.2471 H   0  0  0  0  0  0
   28.3205   10.9676    0.4612 H   0  0  0  0  0  0
   27.9955    9.4372    1.3436 H   0  0  0  0  0  0
  1  2  1  0  0  0
  1 32  1  0  0  0
  1 33  1  0  0  0
  1 34  1  0  0  0
  2  4  1  0  0  0
  2  3  2  0  0  0
  4  5  1  0  0  0
  4 35  1  0  0  0
  5 10  2  0  0  0
  5  6  1  0  0  0
  6  7  2  0  0  0
  6 36  1  0  0  0
  7  8  1  0  0  0
  7 37  1  0  0  0
  8 11  1  0  0  0
  8  9  2  0  0  0
  9 10  1  0  0  0
  9 38  1  0  0  0
 10 39  1  0  0  0
 11 15  1  0  0  0
 11 12  1  0  0  0
 12 16  2  0  0  0
 12 13  1  0  0  0
 13 18  1  0  0  0
 13 14  1  0  0  0
 13 40  1  0  0  0
 14 23  1  0  0  0
 14 15  1  0  0  0
 14 41  1  0  0  0
 15 17  2  0  0  0
 18 19  1  0  0  0
 18 22  1  0  0  0
 18 42  1  0  0  0
 19 20  1  0  0  0
 19 43  1  0  0  0
 19 44  1  0  0  0
 20 23  1  0  0  0
 20 45  1  0  0  0
 20 46  1  0  0  0
 21 23  1  0  0  0
 21 22  1  0  0  0
 21 47  1  0  0  0
 21 48  1  0  0  0
 22 49  1  0  0  0
 22 50  1  0  0  0
 23 24  1  0  0  0
 24 25  1  0  0  0
 24 51  1  0  0  0
 25 27  1  0  0  0
 25 26  2  0  0  0
 27 28  1  0  0  0
 28 29  1  0  0  0
 28 52  1  0  0  0
 28 53  1  0  0  0
 29 31  1  0  0  0
 29 30  2  0  0  0
M  CHG  1  31  -1
M  END
> <s_m_source_file>
../1a4k_ligand.sdf

> <i_m_source_file_index>
1

> <s_epik_input>
W0NIM11DKD1PKVtOSF1jMVtjSF1bY0hdYyhbY0hdW2NIXTEpTihDMj1PKUMoPU8pW0NASF0oW0NASF0oW0NIMl1bQ0gyXTMpW0NIMl1bQ0gyXTQpW0NAQEhdMltDQEBdMzRbTkhdQyg9TylPW0NIMl1DKD1PKVtPSF0=

> <s_epik_cmdline>
J2VwaWtfYXBwJywgJy1pbWFlJywgJ2xpZ2FuZF9wcm8ubWFlJywgJy1vbWFlJywgJ2xpZ2FuZF9wcmVwLm1hZScsICctbXMnLCAnMScsICctcGgnLCAnNycsICctcGh0JywgJzAuNScsICctbnQn

> <r_lp_tautomer_probability>
1

> <r_epik_Ionization_Penalty>
  0.0001

> <r_epik_Ionization_Penalty_Charging>
  0.0001

> <r_epik_Ionization_Penalty_Neutral>
  0.0000

> <r_epik_State_Penalty>
 -0.0000

> <r_epik_Charging_Adjusted_Penalty>
0.000106881160619275

> <i_epik_Tot_Q>
-1

> <i_epik_Tot_abs_Q>
1

> <s_epik_Chemistry_Notes>
This compound has an ester and may undergo hydrolysis at high or low pH.

$$$$
