1a4q_ligand
                    3D
 Schrodinger Suite 2020-3.
 55 56  0  0  1  0            999 V2000
   -2.4160   58.3090   -5.4640 C   0  0  0  0  0  0
   -3.3710   59.0640   -5.3230 O   0  5  0  0  0  0
   -1.5990   58.1890   -4.5610 O   0  0  0  0  0  0
   -2.3440   57.4690   -6.6730 C   0  0  0  0  0  0
   -1.4120   56.5180   -6.7960 C   0  0  0  0  0  0
   -1.3790   55.6270   -8.0080 C   0  0  1  0  0  0
   -2.2120   56.1910   -9.1560 C   0  0  1  0  0  0
   -2.4990   55.1260  -10.1100 N   0  0  0  0  0  0
   -2.1370   55.1410  -11.4020 C   0  0  0  0  0  0
   -1.5630   56.1000  -11.8890 O   0  0  0  0  0  0
   -2.4430   53.8710  -12.2170 C   0  0  0  0  0  0
   -3.5280   56.7290   -8.5990 C   0  0  1  0  0  0
   -3.2930   57.6710   -7.5870 O   0  0  0  0  0  0
   -4.2550   57.5050   -9.6740 C   0  0  0  0  0  0
   -3.7430   58.2630   -9.9970 O   0  0  0  0  0  0
   -5.3800   57.0300  -10.1910 N   0  0  0  0  0  0
   -5.9710   57.8100  -11.3010 C   0  0  0  0  0  0
   -5.3950   57.4170  -12.6650 C   0  0  0  0  0  0
   -6.0130   58.3010  -13.7300 C   0  0  0  0  0  0
   -5.5860   59.6390  -13.8840 C   0  0  0  0  0  0
   -7.0380   57.8160  -14.5550 C   0  0  0  0  0  0
   -6.2020   60.4850  -14.8230 C   0  0  0  0  0  0
   -7.6510   58.6560  -15.4900 C   0  0  0  0  0  0
   -7.2490   59.9920  -15.6230 C   0  0  0  0  0  0
   -6.0810   55.8520   -9.6850 C   0  0  0  0  0  0
   -6.9620   56.1710   -8.4650 C   0  0  0  0  0  0
   -7.8370   57.4310   -8.6020 C   0  0  0  0  0  0
   -0.0140   55.4590   -8.4300 N   0  3  0  0  0  0
   -0.6588   56.3807   -6.0062 H   0  0  0  0  0  0
   -1.7639   54.6342   -7.7318 H   0  0  0  0  0  0
   -1.6591   56.9743   -9.6952 H   0  0  0  0  0  0
   -3.0493   54.2305   -9.7855 H   0  0  0  0  0  0
   -2.9629   53.1419  -11.5782 H   0  0  0  0  0  0
   -1.5018   53.4337  -12.5816 H   0  0  0  0  0  0
   -3.0828   54.1302  -13.0734 H   0  0  0  0  0  0
   -4.1064   55.9007   -8.1638 H   0  0  0  0  0  0
   -7.0575   57.6405  -11.3304 H   0  0  0  0  0  0
   -5.7710   58.8802  -11.1443 H   0  0  0  0  0  0
   -4.3035   57.5532  -12.6551 H   0  0  0  0  0  0
   -5.6310   56.3629  -12.8728 H   0  0  0  0  0  0
   -4.7707   60.0193  -13.2686 H   0  0  0  0  0  0
   -7.3589   56.7780  -14.4669 H   0  0  0  0  0  0
   -5.8700   61.5176  -14.9306 H   0  0  0  0  0  0
   -8.4497   58.2676  -16.1219 H   0  0  0  0  0  0
   -7.7444   60.6449  -16.3416 H   0  0  0  0  0  0
   -6.7296   55.4442  -10.4743 H   0  0  0  0  0  0
   -5.3472   55.0901   -9.3834 H   0  0  0  0  0  0
   -7.6478   55.3314   -8.2784 H   0  0  0  0  0  0
   -6.3240   56.3264   -7.5825 H   0  0  0  0  0  0
   -8.4251   57.5707   -7.6829 H   0  0  0  0  0  0
   -8.5173   57.3136   -9.4584 H   0  0  0  0  0  0
   -7.1935   58.3086   -8.7625 H   0  0  0  0  0  0
    0.5796   55.0525   -7.5979 H   0  0  0  0  0  0
    0.3984   56.4326   -8.7334 H   0  0  0  0  0  0
    0.0236   54.7635   -9.2814 H   0  0  0  0  0  0
  1  4  1  0  0  0
  1  3  2  0  0  0
  1  2  1  0  0  0
  4 13  1  0  0  0
  4  5  2  0  0  0
  5  6  1  0  0  0
  5 29  1  0  0  0
  6 28  1  0  0  0
  6  7  1  0  0  0
  6 30  1  0  0  0
  7 12  1  0  0  0
  7  8  1  0  0  0
  7 31  1  0  0  0
  8  9  1  0  0  0
  8 32  1  0  0  0
  9 11  1  0  0  0
  9 10  2  0  0  0
 11 33  1  0  0  0
 11 34  1  0  0  0
 11 35  1  0  0  0
 12 14  1  0  0  0
 12 13  1  0  0  0
 12 36  1  0  0  0
 14 16  1  0  0  0
 14 15  2  0  0  0
 16 25  1  0  0  0
 16 17  1  0  0  0
 17 18  1  0  0  0
 17 37  1  0  0  0
 17 38  1  0  0  0
 18 19  1  0  0  0
 18 39  1  0  0  0
 18 40  1  0  0  0
 19 21  2  0  0  0
 19 20  1  0  0  0
 20 22  2  0  0  0
 20 41  1  0  0  0
 21 23  1  0  0  0
 21 42  1  0  0  0
 22 24  1  0  0  0
 22 43  1  0  0  0
 23 24  2  0  0  0
 23 44  1  0  0  0
 24 45  1  0  0  0
 25 26  1  0  0  0
 25 46  1  0  0  0
 25 47  1  0  0  0
 26 27  1  0  0  0
 26 48  1  0  0  0
 26 49  1  0  0  0
 27 50  1  0  0  0
 27 51  1  0  0  0
 27 52  1  0  0  0
 28 53  1  0  0  0
 28 54  1  0  0  0
 28 55  1  0  0  0
M  CHG  2   2  -1  28   1
M  END
> <s_m_source_file>
../1a4q_ligand.sdf

> <i_m_source_file_index>
1

> <s_epik_input>
W09IXUMoPU8pQzE9W0NIXVtDQEhdKFtOSDMrXSlbQ0BASF0oW05IXUMoPU8pW0NIM10pW0NAQEhdKE8xKUMoPU8pTihbQ0gyXVtDSDJdW0NIM10pW0NIMl1bQ0gyXWMyW2NIXVtjSF1bY0hdW2NIXVtjSF0y

> <s_epik_cmdline>
J2VwaWtfYXBwJywgJy1pbWFlJywgJ2xpZ2FuZF9wcm8ubWFlJywgJy1vbWFlJywgJ2xpZ2FuZF9wcmVwLm1hZScsICctbXMnLCAnMScsICctcGgnLCAnNycsICctcGh0JywgJzAuNScsICctbnQn

> <r_epik_Ionization_Penalty>
  0.1520

> <r_epik_Ionization_Penalty_Charging>
  0.1520

> <r_epik_Ionization_Penalty_Neutral>
  0.0000

> <r_epik_State_Penalty>
  0.1413

> <r_epik_Charging_Adjusted_Penalty>
0.293325239219873

> <i_epik_Tot_Q>
0

> <i_epik_Tot_abs_Q>
2

$$$$
