1a4r_ligand
                    3D
 Schrodinger Suite 2020-3.
 42 44  0  0  1  0            999 V2000
  102.4860   24.8700   -2.9090 N   0  0  0  0  0  0
  101.5220   25.8860   -2.4280 P   0  0  2  0  0  0
  100.9830   25.4700   -1.0790 O   0  5  0  0  0  0
  100.3500   26.2500   -3.2730 O   0  0  0  0  0  0
  102.4090   27.1490   -2.1360 O   0  0  0  0  0  0
  102.9800   27.8190   -0.7750 P   0  0  2  0  0  0
  103.9320   26.8730   -0.1570 O   0  0  0  0  0  0
  101.8500   28.3180    0.0570 O   0  5  0  0  0  0
  103.7180   29.0170   -1.4980 O   0  0  0  0  0  0
  104.8640   28.8490   -2.3670 C   0  0  0  0  0  0
  105.9930   29.8990   -2.1000 C   0  0  1  0  0  0
  105.4820   31.1830   -2.4390 O   0  0  0  0  0  0
  106.4630   30.0620   -0.6570 C   0  0  1  0  0  0
  107.8730   30.1930   -0.5940 O   0  0  0  0  0  0
  105.7350   31.2660   -0.0960 C   0  0  1  0  0  0
  106.2980   31.8890    1.0590 O   0  0  0  0  0  0
  105.5820   32.1390   -1.3490 C   0  0  2  0  0  0
  104.3150   32.9430   -1.5100 N   0  0  0  0  0  0
  103.0000   32.5360   -1.3540 C   0  0  0  0  0  0
  102.0730   33.4460   -1.5560 N   0  0  0  0  0  0
  102.8070   34.5960   -1.8890 C   0  0  0  0  0  0
  102.3660   35.9710   -2.2360 C   0  0  0  0  0  0
  101.2060   36.3850   -2.3060 O   0  0  0  0  0  0
  103.4480   36.8880   -2.5220 N   0  0  0  0  0  0
  104.8390   36.5560   -2.4810 C   0  0  0  0  0  0
  105.7330   37.5170   -2.7670 N   0  0  0  0  0  0
  105.2800   35.2710   -2.1570 N   0  0  0  0  0  0
  104.2050   34.3230   -1.8660 C   0  0  0  0  0  0
  102.3461   24.4228   -3.8150 H   0  0  0  0  0  0
  103.2899   24.6173   -2.3343 H   0  0  0  0  0  0
  105.2956   27.8486   -2.2154 H   0  0  0  0  0  0
  104.5484   28.9571   -3.4152 H   0  0  0  0  0  0
  106.8554   29.6064   -2.7170 H   0  0  0  0  0  0
  106.3017   29.1701   -0.0337 H   0  0  0  0  0  0
  108.5178   29.3851   -0.9702 H   0  0  0  0  0  0
  104.8057   31.0276    0.4421 H   0  0  0  0  0  0
  106.4312   31.3114    1.9856 H   0  0  0  0  0  0
  106.4225   32.8486   -1.3504 H   0  0  0  0  0  0
  102.7467   31.5125   -1.0776 H   0  0  0  0  0  0
  103.2277   37.9302   -2.7962 H   0  0  0  0  0  0
  105.3888   38.5300   -3.0225 H   0  0  0  0  0  0
  106.8093   37.2909   -2.7456 H   0  0  0  0  0  0
  1  2  1  0  0  0
  1 29  1  0  0  0
  1 30  1  0  0  0
  2  3  1  0  0  0
  2  4  2  0  0  0
  2  5  1  0  0  0
  5  6  1  0  0  0
  6  7  2  0  0  0
  6  8  1  0  0  0
  6  9  1  0  0  0
  9 10  1  0  0  0
 10 11  1  0  0  0
 10 31  1  0  0  0
 10 32  1  0  0  0
 11 12  1  0  0  0
 11 13  1  0  0  0
 11 33  1  0  0  0
 12 17  1  0  0  0
 13 14  1  0  0  0
 13 15  1  0  0  0
 13 34  1  0  0  0
 14 35  1  0  0  0
 15 16  1  0  0  0
 15 17  1  0  0  0
 15 36  1  0  0  0
 16 37  1  0  0  0
 17 18  1  0  0  0
 17 38  1  0  0  0
 18 19  1  0  0  0
 18 28  1  0  0  0
 19 20  2  0  0  0
 19 39  1  0  0  0
 20 21  1  0  0  0
 21 22  1  0  0  0
 21 28  2  0  0  0
 22 23  2  0  0  0
 22 24  1  0  0  0
 24 25  1  0  0  0
 24 40  1  0  0  0
 25 26  1  0  0  0
 25 27  2  0  0  0
 26 41  1  0  0  0
 26 42  1  0  0  0
 27 28  1  0  0  0
M  CHG  2   3  -1   8  -1
M  END
> <s_m_source_file>
../1a4r_ligand.sdf

> <i_m_source_file_index>
1

> <s_epik_input>
W05IMl1bUEBAXSg9TykoW09IXSlPW1BAXSg9TykoW09IXSlPW0NIMl1bQ0BIXTFPW0NASF0oW0NASF0oW09IXSlbQ0BASF0xW09IXSluKFtjSF1uMiljKGMyMyluYyhbTkgyXSlbbkhdYzM9Tw==

> <s_epik_cmdline>
J2VwaWtfYXBwJywgJy1pbWFlJywgJ2xpZ2FuZF9wcm8ubWFlJywgJy1vbWFlJywgJ2xpZ2FuZF9wcmVwLm1hZScsICctbXMnLCAnMScsICctcGgnLCAnNycsICctcGh0JywgJzAuNScsICctbnQn

> <r_lp_tautomer_probability>
1

> <r_epik_Ionization_Penalty>
  0.0022

> <r_epik_Ionization_Penalty_Charging>
  0.0022

> <r_epik_Ionization_Penalty_Neutral>
  0.0001

> <r_epik_State_Penalty>
 -0.0000

> <r_epik_Charging_Adjusted_Penalty>
0.00216036067417464

> <i_epik_Tot_Q>
-2

> <i_epik_Tot_abs_Q>
2

> <s_epik_Chemistry_Notes>
This compound contains an acetal/aminal-like group ( X-CH(R)-Y where X, Y are N, S, or O) that may be acid/base labile, releasing an aldehyde.

$$$$
