1a4w_ligand
                    3D
 Schrodinger Suite 2020-3.
 82 85  0  0  1  0            999 V2000
   17.7350  -17.1780   22.6120 C   0  0  0  0  0  0
   18.5430  -17.3500   21.4620 C   0  0  0  0  0  0
   19.8770  -17.0460   21.5580 C   0  0  0  0  0  0
   20.4010  -16.5660   22.7660 C   0  0  0  0  0  0
   19.6130  -16.3580   23.8930 C   0  0  0  0  0  0
   20.0840  -15.7910   25.0460 C   0  0  0  0  0  0
   19.2410  -15.5680   26.1140 C   0  0  0  0  0  0
   17.8930  -15.9710   26.0280 C   0  0  0  0  0  0
   17.3700  -16.5100   24.8790 C   0  0  0  0  0  0
   18.2050  -16.6890   23.8090 C   0  0  0  0  0  0
   21.3830  -15.2850   25.1040 N   0  0  0  0  0  0
   21.8980  -14.2170   24.2140 C   0  0  0  0  0  0
   22.6350  -16.2130   25.4960 C   0  0  0  0  0  0
   15.9090  -17.5810   22.4170 S   0  0  0  0  0  0
   15.9880  -18.0130   21.0100 O   0  0  0  0  0  0
   14.9980  -18.1910   23.4020 O   0  0  0  0  0  0
   14.8930  -15.9700   22.4850 N   0  0  3  0  0  0
   15.1930  -15.1140   21.2960 C   0  0  2  0  0  0
   16.3070  -14.1670   21.7520 C   0  0  0  0  0  0
   16.2120  -13.7810   22.9140 O   0  0  0  0  0  0
   13.9420  -14.3540   20.8790 C   0  0  0  0  0  0
   13.2320  -13.6860   22.0580 C   0  0  0  0  0  0
   11.8920  -13.1330   21.5950 C   0  0  0  0  0  0
   11.2180  -12.6470   22.7800 N   0  0  0  0  0  0
   11.4570  -11.5540   23.4830 C   0  0  0  0  0  0
   12.3590  -10.6740   23.0450 N   0  0  0  0  0  0
   10.7230  -11.3360   24.5660 N   0  3  0  0  0  0
   17.2800  -13.6920   20.8300 N   0  0  0  0  0  0
   17.0430  -14.0330   19.3270 C   0  0  2  0  0  0
   18.4210  -14.4720   18.8090 C   0  0  0  0  0  0
   19.6100  -13.4170   19.1940 C   0  0  0  0  0  0
   19.6960  -13.0830   20.7650 C   0  0  0  0  0  0
   18.3510  -12.6800   21.3100 C   0  0  0  0  0  0
   16.5930  -13.0140   18.5500 C   0  0  0  0  0  0
   15.9410  -13.4250   17.1790 C   0  0  0  0  0  0
   15.7830  -14.9040   14.4580 S   0  0  0  0  0  0
   17.4880  -11.9220   16.2870 O   0  0  0  0  0  0
   17.0590  -15.5830   13.5080 C   0  0  0  0  0  0
   16.8640  -13.5560   14.7390 C   0  0  0  0  0  0
   16.8250  -12.9030   16.1070 C   0  0  0  0  0  0
   18.1460  -14.7340   13.4510 C   0  0  0  0  0  0
   18.0490  -13.5540   14.1060 N   0  0  0  0  0  0
   18.1169  -17.7137   20.5270 H   0  0  0  0  0  0
   20.5295  -17.1777   20.6949 H   0  0  0  0  0  0
   21.4672  -16.3473   22.8245 H   0  0  0  0  0  0
   19.6137  -15.0843   27.0169 H   0  0  0  0  0  0
   17.2478  -15.8513   26.8983 H   0  0  0  0  0  0
   16.3177  -16.7881   24.8201 H   0  0  0  0  0  0
   21.0707  -13.5546   23.9193 H   0  0  0  0  0  0
   22.3422  -14.6708   23.3158 H   0  0  0  0  0  0
   22.6632  -13.6332   24.7466 H   0  0  0  0  0  0
   22.2975  -17.0231   26.1592 H   0  0  0  0  0  0
   23.3928  -15.6068   26.0140 H   0  0  0  0  0  0
   23.0717  -16.6443   24.5832 H   0  0  0  0  0  0
   14.3013  -15.5649   23.3191 H   0  0  0  0  0  0
   15.5018  -15.7154   20.4282 H   0  0  0  0  0  0
   14.2139  -13.5662   20.1611 H   0  0  0  0  0  0
   13.2305  -15.0488   20.4089 H   0  0  0  0  0  0
   13.0678  -14.4267   22.8545 H   0  0  0  0  0  0
   13.8544  -12.8650   22.4434 H   0  0  0  0  0  0
   12.0605  -12.3179   20.8758 H   0  0  0  0  0  0
   11.3119  -13.9335   21.1126 H   0  0  0  0  0  0
   10.3811  -13.2172   23.2096 H   0  0  0  0  0  0
   12.9477  -10.8931   22.1420 H   0  0  0  0  0  0
   12.5140   -9.7294   23.5869 H   0  0  0  0  0  0
    9.9898  -12.0876   24.8939 H   0  0  0  0  0  0
   16.1884  -14.7086   19.1744 H   0  0  0  0  0  0
   18.6833  -15.4470   19.2457 H   0  0  0  0  0  0
   18.3905  -14.5575   17.7128 H   0  0  0  0  0  0
   20.5824  -13.8354   18.8950 H   0  0  0  0  0  0
   19.4419  -12.4665   18.6664 H   0  0  0  0  0  0
   20.0436  -13.9727   21.3105 H   0  0  0  0  0  0
   20.4023  -12.2552   20.9258 H   0  0  0  0  0  0
   18.0932  -11.6739   20.9477 H   0  0  0  0  0  0
   18.3852  -12.6762   22.4095 H   0  0  0  0  0  0
   15.8231  -12.4491   19.0959 H   0  0  0  0  0  0
   17.4303  -12.3457   18.3006 H   0  0  0  0  0  0
   15.8658  -14.5210   17.1227 H   0  0  0  0  0  0
   14.9359  -12.9842   17.1042 H   0  0  0  0  0  0
   17.0110  -16.5554   13.0178 H   0  0  0  0  0  0
   19.0470  -15.0036   12.9000 H   0  0  0  0  0  0
   10.8475  -10.4037   25.1363 H   0  0  0  0  0  0
  1 14  1  0  0  0
  1 10  2  0  0  0
  1  2  1  0  0  0
  2  3  2  0  0  0
  2 43  1  0  0  0
  3  4  1  0  0  0
  3 44  1  0  0  0
  4  5  2  0  0  0
  4 45  1  0  0  0
  5 10  1  0  0  0
  5  6  1  0  0  0
  6 11  1  0  0  0
  6  7  2  0  0  0
  7  8  1  0  0  0
  7 46  1  0  0  0
  8  9  2  0  0  0
  8 47  1  0  0  0
  9 10  1  0  0  0
  9 48  1  0  0  0
 11 13  1  0  0  0
 11 12  1  0  0  0
 12 49  1  0  0  0
 12 50  1  0  0  0
 12 51  1  0  0  0
 13 52  1  0  0  0
 13 53  1  0  0  0
 13 54  1  0  0  0
 14 16  2  0  0  0
 14 15  2  0  0  0
 14 17  1  0  0  0
 17 18  1  0  0  0
 17 55  1  0  0  0
 18 19  1  0  0  0
 18 21  1  0  0  0
 18 56  1  0  0  0
 19 20  2  0  0  0
 19 28  1  0  0  0
 21 22  1  0  0  0
 21 57  1  0  0  0
 21 58  1  0  0  0
 22 23  1  0  0  0
 22 59  1  0  0  0
 22 60  1  0  0  0
 23 24  1  0  0  0
 23 61  1  0  0  0
 23 62  1  0  0  0
 24 25  1  0  0  0
 24 63  1  0  0  0
 25 26  1  0  0  0
 25 27  2  0  0  0
 26 64  1  0  0  0
 26 65  1  0  0  0
 27 66  1  0  0  0
 27 82  1  0  0  0
 28 33  1  0  0  0
 28 29  1  0  0  0
 29 34  1  0  0  0
 29 30  1  0  0  0
 29 67  1  0  0  0
 30 31  1  0  0  0
 30 68  1  0  0  0
 30 69  1  0  0  0
 31 32  1  0  0  0
 31 70  1  0  0  0
 31 71  1  0  0  0
 32 33  1  0  0  0
 32 72  1  0  0  0
 32 73  1  0  0  0
 33 74  1  0  0  0
 33 75  1  0  0  0
 34 35  1  0  0  0
 34 76  1  0  0  0
 34 77  1  0  0  0
 35 40  1  0  0  0
 35 78  1  0  0  0
 35 79  1  0  0  0
 36 39  1  0  0  0
 36 38  1  0  0  0
 37 40  2  0  0  0
 38 41  2  0  0  0
 38 80  1  0  0  0
 39 42  2  0  0  0
 39 40  1  0  0  0
 41 42  1  0  0  0
 41 81  1  0  0  0
M  CHG  1  27   1
M  END
> <s_m_source_file>
../1a4w_ligand.sdf

> <i_m_source_file_index>
1

> <s_epik_input>
W0NIM11OKFtDSDNdKWMxW2NIXVtjSF1bY0hdYyhjMTIpYyhbY0hdW2NIXVtjSF0yKVMoPU8pKD1PKVtOSF1bQ0BASF0oW0NIMl1bQ0gyXVtDSDJdW05IXS9DKFtOSDJdKT1OXFtIXSlDKD1PKU4zW0NASF0oW0NIMl1bQ0gyXVtDSDJdW0NIMl0zKVtDSDJdW0NIMl1DKD1PKWM0c1tjSF1bY0hdbjQ=

> <s_epik_cmdline>
J2VwaWtfYXBwJywgJy1pbWFlJywgJ2xpZ2FuZF9wcm8ubWFlJywgJy1vbWFlJywgJ2xpZ2FuZF9wcmVwLm1hZScsICctbXMnLCAnMScsICctcGgnLCAnNycsICctcGh0JywgJzAuNScsICctbnQn

> <r_lp_tautomer_probability>
1

> <r_epik_Ionization_Penalty>
  0.0012

> <r_epik_Ionization_Penalty_Charging>
  0.0000

> <r_epik_Ionization_Penalty_Neutral>
  0.0012

> <r_epik_State_Penalty>
 -0.0000

> <r_epik_Charging_Adjusted_Penalty>
2.85076025178477e-06

> <i_epik_Tot_Q>
1

> <i_epik_Tot_abs_Q>
1

> <s_epik_Chemistry_Notes>
This compound has an imine and may undergo hydrolysis.

$$$$
