1a50_ligand
                    3D
 Schrodinger Suite 2020-3.
 28 29  0  0  1  0            999 V2000
   49.7220   27.4730   14.9290 C   0  0  0  0  0  0
   50.2740   26.1560   14.8240 C   0  0  0  0  0  0
   51.6700   26.2730   14.9920 C   0  0  0  0  0  0
   49.7210   24.8860   14.6110 C   0  0  0  0  0  0
   50.7710   28.3140   15.1330 C   0  0  0  0  0  0
   51.9490   27.5990   15.1840 N   0  0  0  0  0  0
   52.5230   25.1710   14.9480 C   0  0  0  0  0  0
   50.5670   23.7870   14.5810 C   0  0  0  0  0  0
   51.9560   23.9400   14.7480 C   0  0  0  0  0  0
   50.0480   22.5650   14.4030 F   0  0  0  0  0  0
   48.2850   27.8430   14.8110 C   0  0  0  0  0  0
   47.8320   27.6530   13.3730 C   0  0  0  0  0  0
   48.4220   28.7450   12.4910 C   0  0  0  0  0  0
   48.3710   29.6250    9.9940 P   0  0  0  0  0  0
   49.5210   30.4410   10.4790 O   0  5  0  0  0  0
   47.1010   30.4380    9.9660 O   0  5  0  0  0  0
   48.5940   28.7240    8.8500 O   0  0  0  0  0  0
   48.0430   28.5310   11.1480 O   0  0  0  0  0  0
   48.6386   24.7509   14.4691 H   0  0  0  0  0  0
   50.7857   29.4075   15.2519 H   0  0  0  0  0  0
   53.6072   25.3094   15.0718 H   0  0  0  0  0  0
   52.5959   23.0581   14.7175 H   0  0  0  0  0  0
   47.6855   27.2009   15.4731 H   0  0  0  0  0  0
   48.1522   28.8954   15.1022 H   0  0  0  0  0  0
   48.1705   26.6719   13.0085 H   0  0  0  0  0  0
   46.7342   27.7033   13.3247 H   0  0  0  0  0  0
   48.0493   29.7254   12.8225 H   0  0  0  0  0  0
   49.5192   28.7250   12.5671 H   0  0  0  0  0  0
  1  2  2  0  0  0
  1  5  1  0  0  0
  1 11  1  0  0  0
  2  3  1  0  0  0
  2  4  1  0  0  0
  3  6  1  0  0  0
  3  7  2  0  0  0
  4  8  2  0  0  0
  4 19  1  0  0  0
  5  6  2  0  0  0
  5 20  1  0  0  0
  7  9  1  0  0  0
  7 21  1  0  0  0
  8  9  1  0  0  0
  8 10  1  0  0  0
  9 22  1  0  0  0
 11 12  1  0  0  0
 11 23  1  0  0  0
 11 24  1  0  0  0
 12 13  1  0  0  0
 12 25  1  0  0  0
 12 26  1  0  0  0
 13 18  1  0  0  0
 13 27  1  0  0  0
 13 28  1  0  0  0
 14 15  1  0  0  0
 14 16  1  0  0  0
 14 17  2  0  0  0
 14 18  1  0  0  0
M  CHG  2  15  -1  16  -1
M  END
> <s_m_source_file>
../1a50_ligand.sdf

> <i_m_source_file_index>
1

> <s_epik_input>
W09IXVAoPU8pKFtPSF0pT1tDSDJdW0NIMl1bQ0gyXUM9MVtDSF09TkMoQzEyKT1bQ0hdW0NIMl1DKEYpPVtDSF0y

> <s_epik_cmdline>
J2VwaWtfYXBwJywgJy1pbWFlJywgJ2xpZ2FuZF9wcm8ubWFlJywgJy1vbWFlJywgJ2xpZ2FuZF9wcmVwLm1hZScsICctbXMnLCAnMScsICctcGgnLCAnNycsICctcGh0JywgJzAuNScsICctbnQn

> <r_epik_Ionization_Penalty>
  0.1212

> <r_epik_Ionization_Penalty_Charging>
  0.1212

> <r_epik_Ionization_Penalty_Neutral>
  0.0000

> <r_epik_State_Penalty>
  0.1107

> <r_epik_Charging_Adjusted_Penalty>
0.231900791422992

> <i_epik_Tot_Q>
-2

> <i_epik_Tot_abs_Q>
2

> <s_epik_Chemistry_Notes>
This compound has an imine and may undergo hydrolysis.

$$$$
