1a52_ligand
                    3D
 Schrodinger Suite 2020-3.
 44 47  0  0  1  0            999 V2000
  107.0080   15.8600   99.4560 C   0  0  0  0  0  0
  106.9320   16.9300  100.3660 C   0  0  0  0  0  0
  106.8330   18.2290   99.8920 C   0  0  0  0  0  0
  106.8010   19.2390  100.8130 O   0  0  0  0  0  0
  106.7930   18.5030   98.4870 C   0  0  0  0  0  0
  106.8760   17.4240   97.5440 C   0  0  0  0  0  0
  106.9380   17.7140   96.0430 C   0  0  0  0  0  0
  107.3090   16.5030   95.1650 C   0  0  0  0  0  0
  106.6720   15.1910   95.6810 C   0  0  2  0  0  0
  107.1900   14.8700   97.1230 C   0  0  1  0  0  0
  106.9980   16.0650   98.0500 C   0  0  0  0  0  0
  106.5900   13.5520   97.6420 C   0  0  0  0  0  0
  106.7820   12.3640   96.6670 C   0  0  0  0  0  0
  106.3220   12.6680   95.2400 C   0  0  1  0  0  0
  107.0200   13.9910   94.7660 C   0  0  1  0  0  0
  106.7430   14.0160   93.2620 C   0  0  0  0  0  0
  106.9650   12.5440   92.8370 C   0  0  0  0  0  0
  106.8760   11.6910   94.1710 C   0  0  2  0  0  0
  106.1970   10.4170   93.9680 O   0  0  0  0  0  0
  104.7600   12.6910   95.1400 C   0  0  0  0  0  0
  107.0767   14.8426   99.8412 H   0  0  0  0  0  0
  106.9509   16.7386  101.4389 H   0  0  0  0  0  0
  106.8328   19.0049  101.8873 H   0  0  0  0  0  0
  106.6996   19.5300   98.1340 H   0  0  0  0  0  0
  105.9554   18.0670   95.6969 H   0  0  0  0  0  0
  107.6947   18.4887   95.8502 H   0  0  0  0  0  0
  106.9559   16.6734   94.1372 H   0  0  0  0  0  0
  108.4014   16.3741   95.1607 H   0  0  0  0  0  0
  105.5825   15.3425   95.6730 H   0  0  0  0  0  0
  108.2776   14.7056   97.1197 H   0  0  0  0  0  0
  107.0705   13.2800   98.5934 H   0  0  0  0  0  0
  105.5088   13.6785   97.8003 H   0  0  0  0  0  0
  107.8480   12.0966   96.6203 H   0  0  0  0  0  0
  106.2025   11.4997   97.0235 H   0  0  0  0  0  0
  108.1129   14.0720   94.8610 H   0  0  0  0  0  0
  105.7115   14.3545   93.0847 H   0  0  0  0  0  0
  107.4448   14.7064   92.7713 H   0  0  0  0  0  0
  106.1845   12.2474   92.1209 H   0  0  0  0  0  0
  107.9533   12.4438   92.3645 H   0  0  0  0  0  0
  107.8045   11.2397   94.5508 H   0  0  0  0  0  0
  106.0648    9.7237   94.8117 H   0  0  0  0  0  0
  104.3544   13.3814   95.8943 H   0  0  0  0  0  0
  104.3662   11.6797   95.3192 H   0  0  0  0  0  0
  104.4618   13.0281   94.1363 H   0  0  0  0  0  0
  1  2  2  0  0  0
  1 11  1  0  0  0
  1 21  1  0  0  0
  2  3  1  0  0  0
  2 22  1  0  0  0
  3  4  1  0  0  0
  3  5  2  0  0  0
  4 23  1  0  0  0
  5  6  1  0  0  0
  5 24  1  0  0  0
  6  7  1  0  0  0
  6 11  2  0  0  0
  7  8  1  0  0  0
  7 25  1  0  0  0
  7 26  1  0  0  0
  8  9  1  0  0  0
  8 27  1  0  0  0
  8 28  1  0  0  0
  9 10  1  0  0  0
  9 15  1  0  0  0
  9 29  1  0  0  0
 10 11  1  0  0  0
 10 12  1  0  0  0
 10 30  1  0  0  0
 12 13  1  0  0  0
 12 31  1  0  0  0
 12 32  1  0  0  0
 13 14  1  0  0  0
 13 33  1  0  0  0
 13 34  1  0  0  0
 14 15  1  0  0  0
 14 18  1  0  0  0
 14 20  1  0  0  0
 15 16  1  0  0  0
 15 35  1  0  0  0
 16 17  1  0  0  0
 16 36  1  0  0  0
 16 37  1  0  0  0
 17 18  1  0  0  0
 17 38  1  0  0  0
 17 39  1  0  0  0
 18 19  1  0  0  0
 18 40  1  0  0  0
 19 41  1  0  0  0
 20 42  1  0  0  0
 20 43  1  0  0  0
 20 44  1  0  0  0
M  END
> <s_m_source_file>
../1a52_ligand.sdf

> <i_m_source_file_index>
1

> <s_epik_input>
W2NIXTFbY0hdYyhbT0hdKVtjSF1jKFtDSDJdW0NIMl0yKWMxW0NAQEhdKFtDSDJdW0NIMl0zKVtDQEBIXTJbQ0BASF0oW0NAXTM0W0NIM10pW0NIMl1bQ0gyXVtDQEBIXTRbT0hd

> <s_epik_cmdline>
J2VwaWtfYXBwJywgJy1pbWFlJywgJ2xpZ2FuZF9wcm8ubWFlJywgJy1vbWFlJywgJ2xpZ2FuZF9wcmVwLm1hZScsICctbXMnLCAnMScsICctcGgnLCAnNycsICctcGh0JywgJzAuNScsICctbnQn

> <r_lp_tautomer_probability>
1

> <r_epik_Ionization_Penalty>
  0.0001

> <r_epik_Ionization_Penalty_Charging>
  0.0000

> <r_epik_Ionization_Penalty_Neutral>
  0.0001

> <r_epik_State_Penalty>
 -0.0000

> <r_epik_Charging_Adjusted_Penalty>
0

> <i_epik_Tot_Q>
0

> <i_epik_Tot_abs_Q>
0

$$$$
