1a5g_ligand
                    3D
 Schrodinger Suite 2020-3.
 86 89  0  0  1  0            999 V2000
   17.9370  -13.0140   20.9460 C   0  0  2  0  0  0
   19.1340  -12.9300   19.9920 C   0  0  0  0  0  0
   20.0460  -14.1410   20.3410 C   0  0  0  0  0  0
   19.6110  -16.2000   21.7990 C   0  0  0  0  0  0
   18.4750  -17.0050   22.4910 C   0  0  0  0  0  0
   17.5080  -16.1580   23.2780 C   0  0  1  0  0  0
   17.3450  -14.7490   22.6440 C   0  0  0  0  0  0
   19.1030  -15.1160   20.9130 N   0  0  1  0  0  0
   18.1770  -14.3160   21.6160 N   0  0  0  0  0  0
   16.3830  -14.0860   22.9910 O   0  0  0  0  0  0
   16.5330  -12.8940   20.3820 C   0  0  0  0  0  0
   16.0150  -13.9840   20.0560 O   0  0  0  0  0  0
   16.1250  -16.7390   23.2510 N   0  3  0  0  0  0
   17.7600  -16.1380   24.8070 C   0  0  0  0  0  0
   19.1990  -15.7640   25.1780 C   0  0  0  0  0  0
   20.2050  -16.7560   25.2760 C   0  0  0  0  0  0
   21.5340  -16.4000   25.5810 C   0  0  0  0  0  0
   21.9080  -15.0910   25.8400 C   0  0  0  0  0  0
   20.9110  -14.1170   25.8250 C   0  0  0  0  0  0
   19.5940  -14.4370   25.4480 C   0  0  0  0  0  0
   15.8030  -11.7310   20.2580 N   0  0  0  0  0  0
   14.3880  -11.6800   19.7870 C   0  0  2  0  0  0
   14.3520  -10.9100   18.4500 C   0  0  2  0  0  0
   13.2810  -10.5340   17.8590 O   0  0  0  0  0  0
   13.4550  -10.9210   20.7580 C   0  0  0  0  0  0
   12.9150  -11.8770   21.7720 C   0  0  0  0  0  0
   12.1100  -11.3370   22.8370 C   0  0  0  0  0  0
   11.3720  -12.3250   23.5590 N   0  0  0  0  0  0
   10.5880  -12.1520   24.5860 C   0  0  0  0  0  0
   10.4390  -10.8990   25.0790 N   0  0  0  0  0  0
    9.8600  -13.1360   25.1200 N   0  3  0  0  0  0
   14.2810  -12.2460   13.6500 C   0  0  0  0  0  0
   13.7470  -11.3090   12.7470 C   0  0  0  0  0  0
   12.4400  -11.5240   12.2560 C   0  0  0  0  0  0
   11.6740  -12.6230   12.7000 C   0  0  0  0  0  0
   12.2160  -13.5230   13.6610 C   0  0  0  0  0  0
   13.5280  -13.3270   14.1320 C   0  0  0  0  0  0
   15.7270  -12.0380   14.2340 C   0  0  0  0  0  0
   15.7100  -12.9260   15.5360 C   0  0  0  0  0  0
   14.7320  -12.3470   16.4930 N   0  0  0  0  0  0
   15.3770  -11.4490   17.4510 C   0  0  0  0  0  0
   16.5140  -11.1040   17.4890 O   0  0  0  0  0  0
   17.9108  -12.1437   21.6182 H   0  0  0  0  0  0
   18.7790  -12.9864   18.9524 H   0  0  0  0  0  0
   19.6612  -11.9773   20.1482 H   0  0  0  0  0  0
   20.5310  -14.5106   19.4255 H   0  0  0  0  0  0
   20.8149  -13.8253   21.0615 H   0  0  0  0  0  0
   20.2484  -15.7333   22.5645 H   0  0  0  0  0  0
   20.2173  -16.8786   21.1810 H   0  0  0  0  0  0
   17.8889  -17.5406   21.7296 H   0  0  0  0  0  0
   18.9140  -17.7296   23.1926 H   0  0  0  0  0  0
   15.7834  -16.8242   22.2089 H   0  0  0  0  0  0
   15.4407  -16.0828   23.8087 H   0  0  0  0  0  0
   16.1370  -17.7360   23.7156 H   0  0  0  0  0  0
   17.0935  -15.4010   25.2788 H   0  0  0  0  0  0
   17.5582  -17.1353   25.2250 H   0  0  0  0  0  0
   19.9493  -17.8032   25.1142 H   0  0  0  0  0  0
   22.2937  -17.1809   25.6143 H   0  0  0  0  0  0
   22.9461  -14.8320   26.0483 H   0  0  0  0  0  0
   21.1551  -13.0934   26.1093 H   0  0  0  0  0  0
   18.8583  -13.6373   25.3621 H   0  0  0  0  0  0
   16.3256  -10.8024   20.5311 H   0  0  0  0  0  0
   14.0710  -12.7307   19.7124 H   0  0  0  0  0  0
   14.3634   -9.8484   18.7379 H   0  0  0  0  0  0
   12.4460  -10.1211   18.4440 H   0  0  0  0  0  0
   14.0220  -10.1268   21.2657 H   0  0  0  0  0  0
   12.6234  -10.4742   20.1934 H   0  0  0  0  0  0
   12.2741  -12.6183   21.2722 H   0  0  0  0  0  0
   13.7491  -12.3911   22.2720 H   0  0  0  0  0  0
   12.7577  -10.8198   23.5601 H   0  0  0  0  0  0
   11.3823  -10.6244   22.4215 H   0  0  0  0  0  0
   11.4303  -13.3821   23.2606 H   0  0  0  0  0  0
   11.0257  -10.0691   24.6583 H   0  0  0  0  0  0
    9.7313  -10.7115   25.9000 H   0  0  0  0  0  0
    9.9604  -14.1632   24.7395 H   0  0  0  0  0  0
   14.3262  -10.4402   12.4344 H   0  0  0  0  0  0
   12.0183  -10.8332   11.5259 H   0  0  0  0  0  0
   10.6695  -12.7825   12.3080 H   0  0  0  0  0  0
   11.6194  -14.3576   14.0293 H   0  0  0  0  0  0
   13.9557  -14.0102   14.8658 H   0  0  0  0  0  0
   16.4716  -12.3774   13.4989 H   0  0  0  0  0  0
   15.8851  -10.9711   14.4503 H   0  0  0  0  0  0
   15.4153  -13.9532   15.2754 H   0  0  0  0  0  0
   16.7135  -12.9356   15.9864 H   0  0  0  0  0  0
   13.6674  -12.6141   16.4205 H   0  0  0  0  0  0
    9.1599  -12.9193   25.9403 H   0  0  0  0  0  0
  1  2  1  0  0  0
  1  9  1  0  0  0
  1 11  1  0  0  0
  1 43  1  0  0  0
  2  3  1  0  0  0
  2 44  1  0  0  0
  2 45  1  0  0  0
  3  8  1  0  0  0
  3 46  1  0  0  0
  3 47  1  0  0  0
  4  5  1  0  0  0
  4  8  1  0  0  0
  4 48  1  0  0  0
  4 49  1  0  0  0
  5  6  1  0  0  0
  5 50  1  0  0  0
  5 51  1  0  0  0
  6  7  1  0  0  0
  6 13  1  0  0  0
  6 14  1  0  0  0
  7  9  1  0  0  0
  7 10  2  0  0  0
  8  9  1  0  0  0
 11 12  2  0  0  0
 11 21  1  0  0  0
 13 52  1  0  0  0
 13 53  1  0  0  0
 13 54  1  0  0  0
 14 15  1  0  0  0
 14 55  1  0  0  0
 14 56  1  0  0  0
 15 16  2  0  0  0
 15 20  1  0  0  0
 16 17  1  0  0  0
 16 57  1  0  0  0
 17 18  2  0  0  0
 17 58  1  0  0  0
 18 19  1  0  0  0
 18 59  1  0  0  0
 19 20  2  0  0  0
 19 60  1  0  0  0
 20 61  1  0  0  0
 21 22  1  0  0  0
 21 62  1  0  0  0
 22 23  1  0  0  0
 22 25  1  0  0  0
 22 63  1  0  0  0
 23 24  1  0  0  0
 23 41  1  0  0  0
 23 64  1  0  0  0
 24 65  1  0  0  0
 25 26  1  0  0  0
 25 66  1  0  0  0
 25 67  1  0  0  0
 26 27  1  0  0  0
 26 68  1  0  0  0
 26 69  1  0  0  0
 27 28  1  0  0  0
 27 70  1  0  0  0
 27 71  1  0  0  0
 28 29  1  0  0  0
 28 72  1  0  0  0
 29 30  1  0  0  0
 29 31  2  0  0  0
 30 73  1  0  0  0
 30 74  1  0  0  0
 31 75  1  0  0  0
 31 86  1  0  0  0
 32 33  2  0  0  0
 32 37  1  0  0  0
 32 38  1  0  0  0
 33 34  1  0  0  0
 33 76  1  0  0  0
 34 35  2  0  0  0
 34 77  1  0  0  0
 35 36  1  0  0  0
 35 78  1  0  0  0
 36 37  2  0  0  0
 36 79  1  0  0  0
 37 80  1  0  0  0
 38 39  1  0  0  0
 38 81  1  0  0  0
 38 82  1  0  0  0
 39 40  1  0  0  0
 39 83  1  0  0  0
 39 84  1  0  0  0
 40 41  1  0  0  0
 40 85  1  0  0  0
 41 42  2  0  0  0
M  CHG  2  13   1  31   1
M  END
> <s_m_source_file>
../1a5g_ligand.sdf

> <i_m_source_file_index>
1

> <s_epik_input>
W2NIXTFbY0hdW2NIXVtjSF1bY0hdYzFbQ0gyXVtDQF0oW05IMytdKShbQ0gyXVtDSDJdMilDKD1PKU4oW05ASCtdMjMpW0NAQEhdKFtDSDJdW0NIMl0zKUMoPU8pW05IXVtDQEBIXShbQ0gyXVtDSDJdW0NIMl1bTkhdL0MoW05IMl0pPU5cW0hdKVtDQEhdKFtPSF0pQyg9TylbTkhdW0NIMl1bQ0gyXWM0W2NIXVtjSF1bY0hdW2NIXVtjSF00

> <s_epik_cmdline>
J2VwaWtfYXBwJywgJy1pbWFlJywgJ2xpZ2FuZF9wcm8ubWFlJywgJy1vbWFlJywgJ2xpZ2FuZF9wcmVwLm1hZScsICctbXMnLCAnMScsICctcGgnLCAnNycsICctcGh0JywgJzAuNScsICctbnQn

> <r_epik_Ionization_Penalty>
  0.1604

> <r_epik_Ionization_Penalty_Charging>
  0.1604

> <r_epik_Ionization_Penalty_Neutral>
  0.0000

> <r_epik_State_Penalty>
  0.1497

> <r_epik_Charging_Adjusted_Penalty>
0.3100614060252

> <i_epik_Tot_Q>
2

> <i_epik_Tot_abs_Q>
2

> <s_epik_Chemistry_Notes>
This compound has an imine and may undergo hydrolysis.

$$$$
