1a5h_ligand
                    3D
 Schrodinger Suite 2020-3.
 58 60  0  0  1  0            999 V2000
    8.4810   35.8070   50.2760 C   0  0  0  0  0  0
    9.1000   35.4640   51.5700 C   0  0  0  0  0  0
   10.4600   35.7740   51.8880 C   0  0  0  0  0  0
   11.0140   35.4690   53.1420 C   0  0  0  0  0  0
    8.3130   34.8240   52.5680 C   0  0  0  0  0  0
    8.8980   34.5100   53.8360 C   0  0  0  0  0  0
   10.2610   34.8430   54.1380 C   0  0  0  0  0  0
   10.8760   34.5370   55.4290 C   0  0  0  0  0  0
   10.1400   34.3220   56.5320 N   0  0  0  0  0  0
   12.1890   34.4820   55.5170 N   0  3  0  0  0  0
    9.9760   40.5170   49.8350 C   0  0  0  0  0  0
    9.4930   41.6470   50.7110 C   0  0  0  0  0  0
   10.4320   42.3560   51.5290 C   0  0  0  0  0  0
   10.0100   43.4220   52.3620 C   0  0  0  0  0  0
    8.1300   42.0650   50.7780 C   0  0  0  0  0  0
    7.7150   43.1270   51.6200 C   0  0  0  0  0  0
    8.6350   43.8260   52.4220 C   0  0  0  0  0  0
    8.1710   44.9550   53.2970 C   0  0  0  0  0  0
    6.9990   44.8800   53.9500 N   0  3  0  0  0  0
    8.9180   46.0720   53.4570 N   0  0  0  0  0  0
    8.6350   36.9440   49.5610 C   0  0  2  0  0  0
    8.9920   36.6130   48.1270 C   0  0  0  0  0  0
    8.9120   37.7020   47.0690 C   0  0  0  0  0  0
    7.8270   38.7330   47.2910 C   0  0  0  0  0  0
    8.0340   39.6540   48.5120 C   0  0  0  0  0  0
    9.2990   39.4260   49.3370 C   0  0  2  0  0  0
    9.2100   38.2110   50.1790 C   0  0  0  0  0  0
    9.4500   38.2990   51.3520 O   0  0  0  0  0  0
    8.7823   35.0687   49.5183 H   0  0  0  0  0  0
    7.3859   35.7997   50.3800 H   0  0  0  0  0  0
   11.0828   36.2599   51.1370 H   0  0  0  0  0  0
   12.0541   35.7264   53.3423 H   0  0  0  0  0  0
    7.2710   34.5744   52.3680 H   0  0  0  0  0  0
    8.2939   34.0059   54.5903 H   0  0  0  0  0  0
    9.0422   34.3639   56.4774 H   0  0  0  0  0  0
   10.6352   34.1040   57.4898 H   0  0  0  0  0  0
   12.8078   34.6554   54.6242 H   0  0  0  0  0  0
   10.3451   40.9239   48.8820 H   0  0  0  0  0  0
   10.7900   39.9803   50.3444 H   0  0  0  0  0  0
   11.4841   42.0718   51.5103 H   0  0  0  0  0  0
   10.7466   43.9465   52.9706 H   0  0  0  0  0  0
    7.3879   41.5536   50.1649 H   0  0  0  0  0  0
    6.6621   43.4075   51.6465 H   0  0  0  0  0  0
    6.3660   43.9867   53.8431 H   0  0  0  0  0  0
    9.8829   46.1674   52.9375 H   0  0  0  0  0  0
    8.5603   46.8845   54.1065 H   0  0  0  0  0  0
    7.5783   37.2170   49.6982 H   0  0  0  0  0  0
   10.0339   36.2634   48.0799 H   0  0  0  0  0  0
    8.3230   35.8227   47.7556 H   0  0  0  0  0  0
    9.8648   38.2507   47.0348 H   0  0  0  0  0  0
    8.7161   37.2459   46.0874 H   0  0  0  0  0  0
    7.7602   39.3902   46.4114 H   0  0  0  0  0  0
    6.8635   38.2245   47.4428 H   0  0  0  0  0  0
    8.0802   40.7010   48.1779 H   0  0  0  0  0  0
    7.1946   39.5292   49.2119 H   0  0  0  0  0  0
   10.1680   39.2925   48.6759 H   0  0  0  0  0  0
   12.6668   34.2627   56.4832 H   0  0  0  0  0  0
    6.6726   45.7119   54.5914 H   0  0  0  0  0  0
  1  2  1  0  0  0
  1 21  1  0  0  0
  1 29  1  0  0  0
  1 30  1  0  0  0
  2  3  2  0  0  0
  2  5  1  0  0  0
  3  4  1  0  0  0
  3 31  1  0  0  0
  4  7  2  0  0  0
  4 32  1  0  0  0
  5  6  2  0  0  0
  5 33  1  0  0  0
  6  7  1  0  0  0
  6 34  1  0  0  0
  7  8  1  0  0  0
  8  9  1  0  0  0
  8 10  2  0  0  0
  9 35  1  0  0  0
  9 36  1  0  0  0
 10 37  1  0  0  0
 10 57  1  0  0  0
 11 12  1  0  0  0
 11 26  1  0  0  0
 11 38  1  0  0  0
 11 39  1  0  0  0
 12 13  2  0  0  0
 12 15  1  0  0  0
 13 14  1  0  0  0
 13 40  1  0  0  0
 14 17  2  0  0  0
 14 41  1  0  0  0
 15 16  2  0  0  0
 15 42  1  0  0  0
 16 17  1  0  0  0
 16 43  1  0  0  0
 17 18  1  0  0  0
 18 19  2  0  0  0
 18 20  1  0  0  0
 19 44  1  0  0  0
 19 58  1  0  0  0
 20 45  1  0  0  0
 20 46  1  0  0  0
 21 22  1  0  0  0
 21 27  1  0  0  0
 21 47  1  0  0  0
 22 23  1  0  0  0
 22 48  1  0  0  0
 22 49  1  0  0  0
 23 24  1  0  0  0
 23 50  1  0  0  0
 23 51  1  0  0  0
 24 25  1  0  0  0
 24 52  1  0  0  0
 24 53  1  0  0  0
 25 26  1  0  0  0
 25 54  1  0  0  0
 25 55  1  0  0  0
 26 27  1  0  0  0
 26 56  1  0  0  0
 27 28  2  0  0  0
M  CHG  2  10   1  19   1
M  END
> <s_m_source_file>
../1a5h_ligand.sdf

> <i_m_source_file_index>
1

> <s_epik_input>
W0hdXE49QyhbTkgyXSlcYyhbY0hdW2NIXTEpW2NIXVtjSF1jMVtDSDJdW0NAQEhdMltDSDJdW0NIMl1bQ0gyXVtDSDJdW0NASF0oQzI9TylbQ0gyXWMzW2NIXVtjSF1jKFtjSF1bY0hdMykvQyg9TlxbSF0pW05IMl0=

> <s_epik_cmdline>
J2VwaWtfYXBwJywgJy1pbWFlJywgJ2xpZ2FuZF9wcm8ubWFlJywgJy1vbWFlJywgJ2xpZ2FuZF9wcmVwLm1hZScsICctbXMnLCAnMScsICctcGgnLCAnNycsICctcGh0JywgJzAuNScsICctbnQn

> <r_lp_tautomer_probability>
1

> <r_epik_Ionization_Penalty>
  0.0003

> <r_epik_Ionization_Penalty_Charging>
  0.0003

> <r_epik_Ionization_Penalty_Neutral>
  0.0000

> <r_epik_State_Penalty>
 -0.0000

> <r_epik_Charging_Adjusted_Penalty>
0.000325850568442869

> <i_epik_Tot_Q>
2

> <i_epik_Tot_abs_Q>
2

> <s_epik_Chemistry_Notes>
This compound has an imine and may undergo hydrolysis.

$$$$
