1a5v_ligand
                    3D
 Schrodinger Suite 2020-3.
 32 33  0  0  1  0            999 V2000
   37.2550   26.6020   58.5650 C   0  0  0  0  0  0
   36.7650   25.3980   58.1140 C   0  0  0  0  0  0
   37.6340   24.3720   57.8150 C   0  0  0  0  0  0
   38.9990   24.5560   57.9280 C   0  0  0  0  0  0
   39.4930   25.7680   58.3650 C   0  0  0  0  0  0
   38.6250   26.8000   58.6820 C   0  0  0  0  0  0
   39.1290   28.0210   59.1110 C   0  0  0  0  0  0
   40.5050   28.1920   59.2220 C   0  0  0  0  0  0
   41.3660   27.1500   58.9090 C   0  0  0  0  0  0
   40.8580   25.9420   58.4820 C   0  0  0  0  0  0
   36.9840   22.7880   57.2870 S   0  0  0  0  0  0
   36.2700   22.2070   58.3790 O   0  5  0  0  0  0
   38.0650   21.9290   56.9130 O   0  0  0  0  0  0
   36.1060   22.9840   56.1740 O   0  0  0  0  0  0
   38.2810   29.0120   59.4140 N   0  0  0  0  0  0
   38.6060   30.3040   59.4440 C   0  0  0  0  0  0
   39.7330   30.7300   59.1980 O   0  0  0  0  0  0
   37.4790   31.2650   59.8130 C   0  0  0  0  0  0
   43.1540   27.3440   59.0480 S   0  0  0  0  0  0
   43.7810   26.2680   58.3560 O   0  5  0  0  0  0
   43.5280   27.3100   60.4180 O   0  0  0  0  0  0
   43.5620   28.5970   58.4910 O   0  0  0  0  0  0
   36.3780   27.6000   58.8850 O   0  0  0  0  0  0
   35.6910   25.2563   57.9935 H   0  0  0  0  0  0
   39.6830   23.7466   57.6728 H   0  0  0  0  0  0
   40.9082   29.1480   59.5561 H   0  0  0  0  0  0
   41.5343   25.1232   58.2364 H   0  0  0  0  0  0
   37.2338   28.7835   59.6612 H   0  0  0  0  0  0
   36.5559   30.6950   59.9949 H   0  0  0  0  0  0
   37.3160   31.9732   58.9873 H   0  0  0  0  0  0
   37.7530   31.8193   60.7228 H   0  0  0  0  0  0
   36.7547   28.5681   59.2469 H   0  0  0  0  0  0
  1 23  1  0  0  0
  1  6  2  0  0  0
  1  2  1  0  0  0
  2  3  2  0  0  0
  2 24  1  0  0  0
  3 11  1  0  0  0
  3  4  1  0  0  0
  4  5  2  0  0  0
  4 25  1  0  0  0
  5 10  1  0  0  0
  5  6  1  0  0  0
  6  7  1  0  0  0
  7 15  1  0  0  0
  7  8  2  0  0  0
  8  9  1  0  0  0
  8 26  1  0  0  0
  9 19  1  0  0  0
  9 10  2  0  0  0
 10 27  1  0  0  0
 11 14  2  0  0  0
 11 13  2  0  0  0
 11 12  1  0  0  0
 15 16  1  0  0  0
 15 28  1  0  0  0
 16 18  1  0  0  0
 16 17  2  0  0  0
 18 29  1  0  0  0
 18 30  1  0  0  0
 18 31  1  0  0  0
 19 22  2  0  0  0
 19 21  2  0  0  0
 19 20  1  0  0  0
 23 32  1  0  0  0
M  CHG  2  12  -1  20  -1
M  END
> <s_m_source_file>
../1a5v_ligand.sdf

> <i_m_source_file_index>
1

> <s_epik_input>
W09IXVMoPU8pKD1PKWMoW2NIXTEpW2NIXWMoW09IXSljKGMxMiljKFtOSF1DKD1PKVtDSDNdKVtjSF1jKFtjSF0yKVMoPU8pKD1PKVtPSF0=

> <s_epik_cmdline>
J2VwaWtfYXBwJywgJy1pbWFlJywgJ2xpZ2FuZF9wcm8ubWFlJywgJy1vbWFlJywgJ2xpZ2FuZF9wcmVwLm1hZScsICctbXMnLCAnMScsICctcGgnLCAnNycsICctcGh0JywgJzAuNScsICctbnQn

> <r_epik_Ionization_Penalty>
  0.0404

> <r_epik_Ionization_Penalty_Charging>
  0.0000

> <r_epik_Ionization_Penalty_Neutral>
  0.0404

> <r_epik_State_Penalty>
  0.0340

> <r_epik_Charging_Adjusted_Penalty>
0.0339837408607998

> <i_epik_Tot_Q>
-2

> <i_epik_Tot_abs_Q>
2

$$$$
