1a61_ligand
                    3D
 Schrodinger Suite 2020-3.
 72 75  0  0  1  0            999 V2000
   19.0370  -15.6150   25.1650 C   0  0  0  0  0  0
   20.0690  -16.5970   25.1350 C   0  0  0  0  0  0
   21.3830  -16.2100   25.4730 C   0  0  0  0  0  0
   21.7440  -14.8830   25.7230 C   0  0  0  0  0  0
   20.7080  -13.9430   25.7400 C   0  0  0  0  0  0
   19.3550  -14.2880   25.4280 C   0  0  0  0  0  0
   15.5860  -16.5550   23.3450 N   0  3  0  0  0  0
   17.6880  -14.4220   21.7280 N   0  0  0  0  0  0
   18.7100  -15.2140   21.0630 N   0  0  2  0  0  0
   16.0220  -14.0220   23.2360 O   0  0  0  0  0  0
   17.6720  -16.2780   24.8000 C   0  0  0  0  0  0
   16.9120  -14.7780   22.7140 C   0  0  0  0  0  0
   17.0120  -16.1670   23.3240 C   0  0  2  0  0  0
   17.9490  -17.0910   22.5950 C   0  0  0  0  0  0
   19.0630  -16.4860   21.7100 C   0  0  0  0  0  0
   19.6960  -14.1920   20.7210 C   0  0  0  0  0  0
   18.6360  -13.2090   20.0030 C   0  0  0  0  0  0
   17.7120  -13.0190   21.1530 C   0  0  1  0  0  0
   16.4450  -12.9930   20.5090 C   0  0  0  0  0  0
   15.9560  -13.9920   19.7990 O   0  0  0  0  0  0
   15.3260  -12.0680   20.5520 N   0  0  0  0  0  0
   14.1450  -11.3480   20.0420 C   0  0  2  0  0  0
   14.3350  -10.5940   18.7500 C   0  0  2  0  0  0
   13.4310  -10.0020   18.1220 O   0  0  0  0  0  0
   13.1790  -10.7500   21.0510 C   0  0  0  0  0  0
   12.7560  -11.8500   21.9990 C   0  0  0  0  0  0
   11.8340  -11.2710   23.0490 C   0  0  0  0  0  0
   11.3950  -12.3040   23.9700 N   0  0  0  0  0  0
   10.5320  -12.0930   24.9790 C   0  0  0  0  0  0
   10.2130  -10.7730   25.0850 N   0  3  0  0  0  0
    9.5290  -12.9890   25.2030 N   0  0  0  0  0  0
   15.2430  -11.1340   17.6010 C   0  0  0  0  0  0
   16.6190  -10.9610   17.4630 N   0  0  0  0  0  0
   17.4270  -11.3970   16.3700 C   0  0  0  0  0  0
   16.5370  -11.9990   15.5410 C   0  0  0  0  0  0
   14.8770  -12.0620   16.1050 S   0  0  0  0  0  0
   19.8476  -17.6273   24.8563 H   0  0  0  0  0  0
   22.1510  -16.9803   25.5423 H   0  0  0  0  0  0
   22.7809  -14.5950   25.8961 H   0  0  0  0  0  0
   20.9400  -12.9103   26.0004 H   0  0  0  0  0  0
   18.5829  -13.5192   25.3970 H   0  0  0  0  0  0
   15.0097  -15.8034   23.9045 H   0  0  0  0  0  0
   15.4800  -17.5356   23.8320 H   0  0  0  0  0  0
   15.2071  -16.6147   22.3141 H   0  0  0  0  0  0
   17.7412  -17.3657   24.9490 H   0  0  0  0  0  0
   16.8813  -15.8690   25.4461 H   0  0  0  0  0  0
   18.4855  -17.7178   23.3225 H   0  0  0  0  0  0
   17.3733  -17.7330   21.9121 H   0  0  0  0  0  0
   19.3001  -17.2354   20.9404 H   0  0  0  0  0  0
   19.9388  -16.3368   22.3587 H   0  0  0  0  0  0
   20.1638  -13.8115   21.6410 H   0  0  0  0  0  0
   20.4679  -14.6301   20.0713 H   0  0  0  0  0  0
   19.1506  -12.2960   19.6690 H   0  0  0  0  0  0
   18.1931  -13.7187   19.1347 H   0  0  0  0  0  0
   17.9120  -12.1652   21.8172 H   0  0  0  0  0  0
   15.6825  -11.8838   21.5762 H   0  0  0  0  0  0
   13.5769  -12.2345   19.7236 H   0  0  0  0  0  0
   14.5693   -9.7098   19.3609 H   0  0  0  0  0  0
   12.6173   -9.5033   18.6689 H   0  0  0  0  0  0
   13.6804   -9.9425   21.6046 H   0  0  0  0  0  0
   12.3029  -10.3441   20.5239 H   0  0  0  0  0  0
   12.2298  -12.6359   21.4373 H   0  0  0  0  0  0
   13.6456  -12.2787   22.4835 H   0  0  0  0  0  0
   12.3661  -10.4921   23.6148 H   0  0  0  0  0  0
   10.9520  -10.8313   22.5603 H   0  0  0  0  0  0
   11.7720  -13.3319   23.8638 H   0  0  0  0  0  0
   10.9827  -10.0058   24.9148 H   0  0  0  0  0  0
    9.7293  -14.0682   25.1310 H   0  0  0  0  0  0
    8.5195  -12.6327   25.4557 H   0  0  0  0  0  0
   18.5016  -11.2755   16.2338 H   0  0  0  0  0  0
   16.8361  -12.4189   14.5806 H   0  0  0  0  0  0
    9.1857  -10.4742   25.3408 H   0  0  0  0  0  0
  1  2  2  0  0  0
  1  6  1  0  0  0
  1 11  1  0  0  0
  2  3  1  0  0  0
  2 37  1  0  0  0
  3  4  2  0  0  0
  3 38  1  0  0  0
  4  5  1  0  0  0
  4 39  1  0  0  0
  5  6  2  0  0  0
  5 40  1  0  0  0
  6 41  1  0  0  0
  7 13  1  0  0  0
  7 42  1  0  0  0
  7 43  1  0  0  0
  7 44  1  0  0  0
  8  9  1  0  0  0
  8 12  1  0  0  0
  8 18  1  0  0  0
  9 15  1  0  0  0
  9 16  1  0  0  0
 10 12  2  0  0  0
 11 13  1  0  0  0
 11 45  1  0  0  0
 11 46  1  0  0  0
 12 13  1  0  0  0
 13 14  1  0  0  0
 14 15  1  0  0  0
 14 47  1  0  0  0
 14 48  1  0  0  0
 15 49  1  0  0  0
 15 50  1  0  0  0
 16 17  1  0  0  0
 16 51  1  0  0  0
 16 52  1  0  0  0
 17 18  1  0  0  0
 17 53  1  0  0  0
 17 54  1  0  0  0
 18 19  1  0  0  0
 18 55  1  0  0  0
 19 20  2  0  0  0
 19 21  1  0  0  0
 21 22  1  0  0  0
 21 56  1  0  0  0
 22 23  1  0  0  0
 22 25  1  0  0  0
 22 57  1  0  0  0
 23 24  1  0  0  0
 23 32  1  0  0  0
 23 58  1  0  0  0
 24 59  1  0  0  0
 25 26  1  0  0  0
 25 60  1  0  0  0
 25 61  1  0  0  0
 26 27  1  0  0  0
 26 62  1  0  0  0
 26 63  1  0  0  0
 27 28  1  0  0  0
 27 64  1  0  0  0
 27 65  1  0  0  0
 28 29  1  0  0  0
 28 66  1  0  0  0
 29 30  2  0  0  0
 29 31  1  0  0  0
 30 67  1  0  0  0
 30 72  1  0  0  0
 31 68  1  0  0  0
 31 69  1  0  0  0
 32 33  2  0  0  0
 32 36  1  0  0  0
 33 34  1  0  0  0
 34 35  2  0  0  0
 34 70  1  0  0  0
 35 36  1  0  0  0
 35 71  1  0  0  0
M  CHG  2   7   1  30   1
M  END
> <s_m_source_file>
../1a61_ligand.sdf

> <i_m_source_file_index>
1

> <s_epik_input>
W2NIXTFbY0hdW2NIXVtjSF1bY0hdYzFbQ0gyXVtDQEBdKFtOSDMrXSkoQzI9TylbQ0gyXVtDSDJdW05AQEgrXShOMjMpW0NIMl1bQ0gyXVtDQEhdM0MoPU8pW05IXVtDQEhdKFtDQEhdKFtPSF0pYzRuW2NIXVtjSF1zNClbQ0gyXVtDSDJdW0NIMl1bTkhdL0MoPU5cW0hdKVtOSDJd

> <s_epik_cmdline>
J2VwaWtfYXBwJywgJy1pbWFlJywgJ2xpZ2FuZF9wcm8ubWFlJywgJy1vbWFlJywgJ2xpZ2FuZF9wcmVwLm1hZScsICctbXMnLCAnMScsICctcGgnLCAnNycsICctcGh0JywgJzAuNScsICctbnQn

> <r_epik_Ionization_Penalty>
  0.1604

> <r_epik_Ionization_Penalty_Charging>
  0.1604

> <r_epik_Ionization_Penalty_Neutral>
  0.0000

> <r_epik_State_Penalty>
  0.1497

> <r_epik_Charging_Adjusted_Penalty>
0.310074046029124

> <i_epik_Tot_Q>
2

> <i_epik_Tot_abs_Q>
2

> <s_epik_Chemistry_Notes>
This compound has an imine and may undergo hydrolysis.

$$$$
