1a7c_ligand
                    3D
 Schrodinger Suite 2020-3.
 71 70  0  0  1  0            999 V2000
   14.2550   16.6390   35.4590 N   0  0  0  0  0  0
   14.4260   15.7480   36.4300 C   0  0  0  0  0  0
   15.0440   14.6940   36.2740 O   0  0  0  0  0  0
   13.8150   16.1030   37.7720 C   0  0  0  0  0  0
   14.7900   16.4270   34.1170 C   0  0  1  0  0  0
   13.7780   15.6640   33.2120 C   0  0  2  0  0  0
   13.5330   14.3620   33.7530 O   0  0  0  0  0  0
   14.3070   15.5180   31.7870 C   0  0  0  0  0  0
   15.1480   17.7410   33.4290 C   0  0  0  0  0  0
   14.3930   18.7120   33.4740 O   0  0  0  0  0  0
   16.3290   17.7710   32.8300 N   0  0  0  0  0  0
   16.7890   18.9330   32.0810 C   0  0  2  0  0  0
   17.2030   18.3710   30.7160 C   0  0  0  0  0  0
   17.9530   17.3900   30.6420 O   0  0  0  0  0  0
   18.0020   19.6300   32.7540 C   0  0  0  0  0  0
   18.4020   20.8580   31.9540 C   0  0  0  0  0  0
   17.6630   20.0300   34.1820 C   0  0  0  0  0  0
   16.6760   18.9530   29.6430 N   0  0  0  0  0  0
   16.9950   18.4800   28.2990 C   0  0  2  0  0  0
   17.0540   19.6180   27.2990 C   0  0  0  0  0  0
   16.3630   20.6210   27.4440 O   0  0  0  0  0  0
   15.9760   17.4380   27.8500 C   0  0  0  0  0  0
   17.8950   19.4520   26.2860 N   0  0  0  0  0  0
   18.0680   20.4520   25.2390 C   0  0  2  0  0  0
   18.4160   19.7720   23.9420 C   0  0  0  0  0  0
   19.0550   18.7210   23.9320 O   0  0  0  0  0  0
   19.1930   21.4320   25.5810 C   0  0  0  0  0  0
   18.7800   22.3780   26.5470 O   0  0  0  0  0  0
   18.0130   20.4050   22.8500 N   0  0  0  0  0  0
   18.2730   19.9110   21.5100 C   0  0  1  0  0  0
   17.0030   19.3060   20.9230 C   0  0  0  0  0  0
   17.2350   18.8930   19.5940 O   0  0  0  0  0  0
   19.8440   21.0390   19.9190 N   0  0  0  0  0  0
   18.7370   21.0760   20.6440 C   0  0  0  0  0  0
   18.2710   22.2100   20.9000 O   0  0  0  0  0  0
   13.6928   17.5562   35.6884 H   0  0  0  0  0  0
   13.3112   17.0781   37.6990 H   0  0  0  0  0  0
   14.6074   16.1557   38.5332 H   0  0  0  0  0  0
   13.0834   15.3326   38.0571 H   0  0  0  0  0  0
   15.7015   15.8421   34.3094 H   0  0  0  0  0  0
   12.8056   16.1780   33.1962 H   0  0  0  0  0  0
   13.1459   14.2559   34.7772 H   0  0  0  0  0  0
   14.4983   16.5148   31.3630 H   0  0  0  0  0  0
   13.5612   14.9944   31.1709 H   0  0  0  0  0  0
   15.2426   14.9397   31.8007 H   0  0  0  0  0  0
   16.9695   16.8805   32.9117 H   0  0  0  0  0  0
   15.9638   19.6592   32.0407 H   0  0  0  0  0  0
   18.8571   18.9389   32.7874 H   0  0  0  0  0  0
   18.6455   20.5608   30.9233 H   0  0  0  0  0  0
   19.2821   21.3271   32.4180 H   0  0  0  0  0  0
   17.5680   21.5751   31.9416 H   0  0  0  0  0  0
   17.3746   19.1361   34.7545 H   0  0  0  0  0  0
   16.8276   20.7456   34.1738 H   0  0  0  0  0  0
   18.5417   20.4976   34.6502 H   0  0  0  0  0  0
   15.9906   19.8026   29.7788 H   0  0  0  0  0  0
   17.9972   18.0341   28.3813 H   0  0  0  0  0  0
   15.9425   16.6184   28.5829 H   0  0  0  0  0  0
   16.2679   17.0394   26.8672 H   0  0  0  0  0  0
   14.9826   17.9047   27.7761 H   0  0  0  0  0  0
   18.4736   18.5170   26.2546 H   0  0  0  0  0  0
   17.1014   20.9725   25.1706 H   0  0  0  0  0  0
   20.0533   20.8768   25.9830 H   0  0  0  0  0  0
   19.4974   21.9723   24.6725 H   0  0  0  0  0  0
   19.4814   23.1505   26.8953 H   0  0  0  0  0  0
   17.4587   21.3445   22.9919 H   0  0  0  0  0  0
   19.0530   19.1398   21.5927 H   0  0  0  0  0  0
   16.6992   18.4365   21.5244 H   0  0  0  0  0  0
   16.2000   20.0577   20.9335 H   0  0  0  0  0  0
   16.4238   18.4311   19.0120 H   0  0  0  0  0  0
   20.3009   20.0720   19.6617 H   0  0  0  0  0  0
   20.3070   21.9752   19.5739 H   0  0  0  0  0  0
  1  2  1  0  0  0
  1  5  1  0  0  0
  1 36  1  0  0  0
  2  3  2  0  0  0
  2  4  1  0  0  0
  4 37  1  0  0  0
  4 38  1  0  0  0
  4 39  1  0  0  0
  5  6  1  0  0  0
  5  9  1  0  0  0
  5 40  1  0  0  0
  6  7  1  0  0  0
  6  8  1  0  0  0
  6 41  1  0  0  0
  7 42  1  0  0  0
  8 43  1  0  0  0
  8 44  1  0  0  0
  8 45  1  0  0  0
  9 10  2  0  0  0
  9 11  1  0  0  0
 11 12  1  0  0  0
 11 46  1  0  0  0
 12 13  1  0  0  0
 12 15  1  0  0  0
 12 47  1  0  0  0
 13 14  2  0  0  0
 13 18  1  0  0  0
 15 16  1  0  0  0
 15 17  1  0  0  0
 15 48  1  0  0  0
 16 49  1  0  0  0
 16 50  1  0  0  0
 16 51  1  0  0  0
 17 52  1  0  0  0
 17 53  1  0  0  0
 17 54  1  0  0  0
 18 19  1  0  0  0
 18 55  1  0  0  0
 19 20  1  0  0  0
 19 22  1  0  0  0
 19 56  1  0  0  0
 20 21  2  0  0  0
 20 23  1  0  0  0
 22 57  1  0  0  0
 22 58  1  0  0  0
 22 59  1  0  0  0
 23 24  1  0  0  0
 23 60  1  0  0  0
 24 25  1  0  0  0
 24 27  1  0  0  0
 24 61  1  0  0  0
 25 26  2  0  0  0
 25 29  1  0  0  0
 27 28  1  0  0  0
 27 62  1  0  0  0
 27 63  1  0  0  0
 28 64  1  0  0  0
 29 30  1  0  0  0
 29 65  1  0  0  0
 30 31  1  0  0  0
 30 34  1  0  0  0
 30 66  1  0  0  0
 31 32  1  0  0  0
 31 67  1  0  0  0
 31 68  1  0  0  0
 32 69  1  0  0  0
 33 34  1  0  0  0
 33 70  1  0  0  0
 33 71  1  0  0  0
 34 35  2  0  0  0
M  END
> <s_m_source_file>
../1a7c_ligand.sdf

> <i_m_source_file_index>
1

> <s_epik_input>
Tz1DKFtDSDNdKVtOSF1bQ0BASF0oW0NASF0oW09IXSlbQ0gzXSlDKD1PKVtOSF1bQ0BASF0oW0NIXShbQ0gzXSlbQ0gzXSlDKD1PKVtOSF1bQ0BASF0oW0NIM10pQyg9TylbTkhdW0NAQEhdKFtDSDJdW09IXSlDKD1PKVtOSF1bQ0BASF0oW0NIMl1bT0hdKUMoPU8pW05IMl0=

> <s_epik_cmdline>
J2VwaWtfYXBwJywgJy1pbWFlJywgJ2xpZ2FuZF9wcm8ubWFlJywgJy1vbWFlJywgJ2xpZ2FuZF9wcmVwLm1hZScsICctbXMnLCAnMScsICctcGgnLCAnNycsICctcGh0JywgJzAuNScsICctbnQn

> <r_lp_tautomer_probability>
1

> <r_epik_Ionization_Penalty>
  0.0000

> <r_epik_Ionization_Penalty_Charging>
  0.0000

> <r_epik_Ionization_Penalty_Neutral>
  0.0000

> <r_epik_State_Penalty>
 -0.0000

> <r_epik_Charging_Adjusted_Penalty>
0

> <i_epik_Tot_Q>
0

> <i_epik_Tot_abs_Q>
0

$$$$
