1a7t_ligand
                    3D
 Schrodinger Suite 2020-3.
 24 24  0  0  1  0            999 V2000
   34.6940   41.1480   37.8690 O   0  0  0  0  0  0
   35.8530   41.8280   37.4730 C   0  0  0  0  0  0
   35.4420   43.0960   36.6730 C   0  0  0  0  0  0
   34.5530   42.7110   35.5840 N   0  0  0  0  0  0
   33.4300   41.8790   35.9390 C   0  0  0  0  0  0
   33.9060   40.6910   36.7700 C   0  0  0  0  0  0
   34.2210   43.7160   34.6110 C   0  0  0  0  0  0
   35.4540   44.3360   34.0050 C   0  0  0  0  0  0
   35.5370   44.3750   32.2200 S   0  0  0  0  0  0
   35.9610   43.0850   31.7370 O   0  5  0  0  0  0
   34.3420   44.7290   31.5700 O   0  0  0  0  0  0
   36.4920   45.3840   31.8870 O   0  0  0  0  0  0
   36.4292   42.1198   38.3634 H   0  0  0  0  0  0
   36.4657   41.1700   36.8392 H   0  0  0  0  0  0
   34.9229   43.7989   37.3412 H   0  0  0  0  0  0
   36.3414   43.5775   36.2616 H   0  0  0  0  0  0
   32.7092   42.4670   36.5262 H   0  0  0  0  0  0
   32.9433   41.5101   35.0241 H   0  0  0  0  0  0
   34.5111   40.0257   36.1366 H   0  0  0  0  0  0
   33.0319   40.1413   37.1491 H   0  0  0  0  0  0
   33.6292   43.2622   33.8024 H   0  0  0  0  0  0
   33.6344   44.5125   35.0921 H   0  0  0  0  0  0
   35.5358   45.3834   34.3311 H   0  0  0  0  0  0
   36.3438   43.7791   34.3336 H   0  0  0  0  0  0
  1  2  1  0  0  0
  1  6  1  0  0  0
  2  3  1  0  0  0
  2 13  1  0  0  0
  2 14  1  0  0  0
  3  4  1  0  0  0
  3 15  1  0  0  0
  3 16  1  0  0  0
  4  5  1  0  0  0
  4  7  1  0  0  0
  5  6  1  0  0  0
  5 17  1  0  0  0
  5 18  1  0  0  0
  6 19  1  0  0  0
  6 20  1  0  0  0
  7  8  1  0  0  0
  7 21  1  0  0  0
  7 22  1  0  0  0
  8  9  1  0  0  0
  8 23  1  0  0  0
  8 24  1  0  0  0
  9 10  1  0  0  0
  9 11  2  0  0  0
  9 12  2  0  0  0
M  CHG  1  10  -1
M  END
> <s_m_source_file>
../1a7t_ligand.sdf

> <i_m_source_file_index>
1

> <s_epik_input>
W0NIMl0xW0NIMl1PW0NIMl1bQ0gyXVtOSCtdMVtDSDJdW0NIMl1TKD1PKSg9TylbT0hd

> <s_epik_cmdline>
J2VwaWtfYXBwJywgJy1pbWFlJywgJ2xpZ2FuZF9wcm8ubWFlJywgJy1vbWFlJywgJ2xpZ2FuZF9wcmVwLm1hZScsICctbXMnLCAnMScsICctcGgnLCAnNycsICctcGh0JywgJzAuNScsICctbnQn

> <r_epik_Ionization_Penalty>
  0.2508

> <r_epik_Ionization_Penalty_Charging>
  0.0000

> <r_epik_Ionization_Penalty_Neutral>
  0.2508

> <r_epik_State_Penalty>
  0.2422

> <r_epik_Charging_Adjusted_Penalty>
0.242153443700236

> <i_epik_Tot_Q>
-1

> <i_epik_Tot_abs_Q>
1

$$$$
