1a7x_ligand
                    3D
 Schrodinger Suite 2020-3.
143147  0  0  1  0            999 V2000
   14.4790   12.4140   26.5780 O   0  0  0  0  0  0
   15.5500   12.9690   27.1310 C   0  0  0  0  0  0
   15.5660   14.1610   27.4680 O   0  0  0  0  0  0
   16.7630   12.0800   27.3200 C   0  0  2  0  0  0
   17.8950   12.5640   26.4520 C   0  0  0  0  0  0
   17.7930   12.1590   24.9860 C   0  0  0  0  0  0
   17.5540   10.6810   24.8570 C   0  0  0  0  0  0
   16.2450   10.4500   25.5410 C   0  0  0  0  0  0
   16.5030   10.6880   26.9490 N   0  0  0  0  0  0
   16.3400    9.7360   27.8560 C   0  0  0  0  0  0
   16.3970   10.0780   29.0410 O   0  0  0  0  0  0
   16.1180    8.3890   27.4840 C   0  0  0  0  0  0
   17.0580    7.6350   27.2190 O   0  0  0  0  0  0
   14.7210    7.8020   27.3730 C   0  0  1  0  0  0
   13.6920    8.4830   28.2900 C   0  0  1  0  0  0
   12.3080    8.1880   27.7500 C   0  0  0  0  0  0
   12.1190    8.3720   26.2480 C   0  0  1  0  0  0
   13.1900    7.5410   25.5020 C   0  0  2  0  0  0
   14.4530    8.0180   25.9850 O   0  0  0  0  0  0
   14.7060    6.4190   27.6800 O   0  0  0  0  0  0
   13.8000    8.0040   29.7300 C   0  0  0  0  0  0
   10.7670    8.0360   25.8810 O   0  0  0  0  0  0
    9.8340    9.0720   26.2790 C   0  0  0  0  0  0
   13.2490    7.7120   23.9680 C   0  0  1  0  0  0
   12.2280    6.9500   23.3150 O   0  0  0  0  0  0
   12.6050    5.5710   23.1520 C   0  0  0  0  0  0
   13.1630    9.1950   23.5750 C   0  0  0  0  0  0
   13.3440    9.5530   22.0850 C   0  0  1  0  0  0
   14.5330    8.7940   21.5080 C   0  0  0  0  0  0
   12.0300    9.2440   21.3170 C   0  0  0  0  0  0
   10.9730   10.3460   21.4990 C   0  0  0  0  0  0
   11.0710   11.4750   20.4690 C   0  0  0  0  0  0
   10.0810   10.3010   22.4780 C   0  0  0  0  0  0
    9.1210   11.4180   22.7880 C   0  0  1  0  0  0
    7.7640   10.8880   23.1690 C   0  0  0  0  0  0
    9.6800   12.1690   23.9720 C   0  0  0  0  0  0
    9.4270   11.8560   25.1390 O   0  0  0  0  0  0
   10.5910   13.3210   23.6160 C   0  0  0  0  0  0
   11.4720   13.7780   24.7540 C   0  0  2  0  0  0
   11.9730   15.0220   24.2980 O   0  0  0  0  0  0
   12.7060   12.8540   25.0370 C   0  0  1  0  0  0
   13.7630   12.8820   23.9360 C   0  0  0  0  0  0
   13.4310   13.3460   26.2870 C   0  0  1  0  0  0
   12.5290   13.3860   27.4940 C   0  0  0  0  0  0
   11.9390   12.0770   28.0180 C   0  0  0  0  0  0
   12.3010   14.5500   28.0330 C   0  0  0  0  0  0
   11.4060   14.6920   29.2330 C   0  0  1  0  0  0
   12.1130   15.5140   30.2940 C   0  0  0  0  0  0
   11.2430   15.8180   31.4740 C   0  0  2  0  0  0
   10.0160   16.5730   30.9860 C   0  0  1  0  0  0
    9.2710   15.7790   29.9390 C   0  0  0  0  0  0
   10.1500   15.4040   28.7720 C   0  0  0  0  0  0
   11.8580   16.5510   32.5350 O   0  0  0  0  0  0
   12.6490   15.7470   33.4300 C   0  0  0  0  0  0
    9.1510   16.7890   32.0970 O   0  0  0  0  0  0
    6.9040   10.5090   21.9490 C   0  0  0  0  0  0
    5.6960   10.1800   22.3990 O   0  0  0  0  0  0
    4.7880   11.0610   22.0650 C   0  0  0  0  0  0
    5.0660   12.1420   21.5470 O   0  0  0  0  0  0
    3.5520   10.6610   22.3750 N   0  0  0  0  0  0
    2.4600   11.4810   21.9030 C   0  0  0  0  0  0
    1.1660   11.4970   22.5590 C   0  0  0  0  0  0
    1.2050   11.4910   23.9430 C   0  0  0  0  0  0
    0.0350   11.4920   24.6710 C   0  0  0  0  0  0
   -1.1810   11.4900   24.0270 C   0  0  0  0  0  0
   -1.2180   11.4980   22.6480 C   0  0  0  0  0  0
   -0.0500   11.4960   21.9060 C   0  0  0  0  0  0
   17.0185   12.0942   28.3898 H   0  0  0  0  0  0
   17.9313   13.6631   26.4760 H   0  0  0  0  0  0
   18.8453   12.1575   26.8283 H   0  0  0  0  0  0
   16.9568   12.6962   24.5145 H   0  0  0  0  0  0
   18.7301   12.4134   24.4692 H   0  0  0  0  0  0
   17.5134   10.4077   23.7923 H   0  0  0  0  0  0
   18.3734   10.1331   25.3452 H   0  0  0  0  0  0
   15.4952   11.1500   25.1438 H   0  0  0  0  0  0
   15.9140    9.4167   25.3600 H   0  0  0  0  0  0
   13.8761    9.5674   28.3027 H   0  0  0  0  0  0
   12.0468    7.1409   27.9630 H   0  0  0  0  0  0
   11.5768    8.8536   28.2320 H   0  0  0  0  0  0
   12.1908    9.4268   25.9443 H   0  0  0  0  0  0
   13.0096    6.4782   25.7212 H   0  0  0  0  0  0
   14.8950    6.0822   28.7100 H   0  0  0  0  0  0
   14.8074    8.2219   30.1143 H   0  0  0  0  0  0
   13.6187    6.9198   29.7703 H   0  0  0  0  0  0
   13.0520    8.5240   30.3465 H   0  0  0  0  0  0
    8.8152    8.7813   25.9832 H   0  0  0  0  0  0
   10.1034   10.0174   25.7854 H   0  0  0  0  0  0
    9.8755    9.2033   27.3703 H   0  0  0  0  0  0
   14.1794    7.2731   23.5786 H   0  0  0  0  0  0
   11.7933    5.0261   22.6477 H   0  0  0  0  0  0
   12.7898    5.1223   24.1392 H   0  0  0  0  0  0
   13.5200    5.5104   22.5445 H   0  0  0  0  0  0
   12.1737    9.5902   23.8491 H   0  0  0  0  0  0
   13.9435    9.7607   24.1050 H   0  0  0  0  0  0
   13.5737   10.6232   21.9762 H   0  0  0  0  0  0
   15.4390    9.0420   22.0804 H   0  0  0  0  0  0
   14.6746    9.0799   20.4553 H   0  0  0  0  0  0
   14.3435    7.7123   21.5719 H   0  0  0  0  0  0
   12.2460    9.1542   20.2422 H   0  0  0  0  0  0
   11.6034    8.2994   21.6855 H   0  0  0  0  0  0
   11.8951   11.2644   19.7715 H   0  0  0  0  0  0
   11.2622   12.4271   20.9857 H   0  0  0  0  0  0
   10.1261   11.5444   19.9100 H   0  0  0  0  0  0
   10.0127    9.4099   23.1193 H   0  0  0  0  0  0
    9.0061   12.0537   21.8976 H   0  0  0  0  0  0
    7.8830    9.9864   23.7878 H   0  0  0  0  0  0
    7.2178   11.6542   23.7387 H   0  0  0  0  0  0
   11.2539   13.0226   22.7905 H   0  0  0  0  0  0
    9.9852   14.1852   23.3058 H   0  0  0  0  0  0
   10.8739   13.8740   25.6722 H   0  0  0  0  0  0
   11.2770   15.8326   24.0363 H   0  0  0  0  0  0
   12.3172   11.8294   25.1321 H   0  0  0  0  0  0
   13.3173   12.5379   22.9910 H   0  0  0  0  0  0
   14.5966   12.2191   24.2111 H   0  0  0  0  0  0
   14.1367   13.9092   23.8126 H   0  0  0  0  0  0
   13.8498   14.3472   26.1076 H   0  0  0  0  0  0
   12.2834   11.2422   27.3899 H   0  0  0  0  0  0
   10.8408   12.1311   27.9861 H   0  0  0  0  0  0
   12.2682   11.9157   29.0551 H   0  0  0  0  0  0
   12.7668   15.4525   27.6105 H   0  0  0  0  0  0
   11.1612   13.7072   29.6575 H   0  0  0  0  0  0
   12.9917   14.9626   30.6598 H   0  0  0  0  0  0
   12.4356   16.4723   29.8609 H   0  0  0  0  0  0
   11.0336   14.8570   31.9667 H   0  0  0  0  0  0
   10.2982   17.5553   30.5792 H   0  0  0  0  0  0
    8.8861   14.8512   30.3875 H   0  0  0  0  0  0
    8.4311   16.3763   29.5546 H   0  0  0  0  0  0
   10.4260   16.3225   28.2333 H   0  0  0  0  0  0
    9.5790   14.7438   28.1026 H   0  0  0  0  0  0
   13.0829   16.3876   34.2118 H   0  0  0  0  0  0
   13.4571   15.2579   32.8663 H   0  0  0  0  0  0
   12.0112   14.9812   33.8956 H   0  0  0  0  0  0
    9.5090   17.3522   32.9715 H   0  0  0  0  0  0
    6.8389   11.3681   21.2651 H   0  0  0  0  0  0
    7.3646    9.6580   21.4258 H   0  0  0  0  0  0
    3.3449    9.7535   22.9612 H   0  0  0  0  0  0
    2.7588   12.5393   21.9279 H   0  0  0  0  0  0
    2.2066   11.1958   20.8713 H   0  0  0  0  0  0
    2.1652   11.4855   24.4589 H   0  0  0  0  0  0
    0.0729   11.4944   25.7603 H   0  0  0  0  0  0
   -2.1072   11.4822   24.6016 H   0  0  0  0  0  0
   -2.1802   11.5060   22.1360 H   0  0  0  0  0  0
   -0.0899   11.4937   20.8167 H   0  0  0  0  0  0
  1  2  1  0  0  0
  1 43  1  0  0  0
  2  3  2  0  0  0
  2  4  1  0  0  0
  4  5  1  0  0  0
  4  9  1  0  0  0
  4 68  1  0  0  0
  5  6  1  0  0  0
  5 69  1  0  0  0
  5 70  1  0  0  0
  6  7  1  0  0  0
  6 71  1  0  0  0
  6 72  1  0  0  0
  7  8  1  0  0  0
  7 73  1  0  0  0
  7 74  1  0  0  0
  8  9  1  0  0  0
  8 75  1  0  0  0
  8 76  1  0  0  0
  9 10  1  0  0  0
 10 11  2  0  0  0
 10 12  1  0  0  0
 12 13  2  0  0  0
 12 14  1  0  0  0
 14 15  1  0  0  0
 14 19  1  0  0  0
 14 20  1  0  0  0
 15 16  1  0  0  0
 15 21  1  0  0  0
 15 77  1  0  0  0
 16 17  1  0  0  0
 16 78  1  0  0  0
 16 79  1  0  0  0
 17 18  1  0  0  0
 17 22  1  0  0  0
 17 80  1  0  0  0
 18 19  1  0  0  0
 18 24  1  0  0  0
 18 81  1  0  0  0
 20 82  1  0  0  0
 21 83  1  0  0  0
 21 84  1  0  0  0
 21 85  1  0  0  0
 22 23  1  0  0  0
 23 86  1  0  0  0
 23 87  1  0  0  0
 23 88  1  0  0  0
 24 25  1  0  0  0
 24 27  1  0  0  0
 24 89  1  0  0  0
 25 26  1  0  0  0
 26 90  1  0  0  0
 26 91  1  0  0  0
 26 92  1  0  0  0
 27 28  1  0  0  0
 27 93  1  0  0  0
 27 94  1  0  0  0
 28 29  1  0  0  0
 28 30  1  0  0  0
 28 95  1  0  0  0
 29 96  1  0  0  0
 29 97  1  0  0  0
 29 98  1  0  0  0
 30 31  1  0  0  0
 30 99  1  0  0  0
 30100  1  0  0  0
 31 32  1  0  0  0
 31 33  2  0  0  0
 32101  1  0  0  0
 32102  1  0  0  0
 32103  1  0  0  0
 33 34  1  0  0  0
 33104  1  0  0  0
 34 35  1  0  0  0
 34 36  1  0  0  0
 34105  1  0  0  0
 35 56  1  0  0  0
 35106  1  0  0  0
 35107  1  0  0  0
 36 37  2  0  0  0
 36 38  1  0  0  0
 38 39  1  0  0  0
 38108  1  0  0  0
 38109  1  0  0  0
 39 40  1  0  0  0
 39 41  1  0  0  0
 39110  1  0  0  0
 40111  1  0  0  0
 41 42  1  0  0  0
 41 43  1  0  0  0
 41112  1  0  0  0
 42113  1  0  0  0
 42114  1  0  0  0
 42115  1  0  0  0
 43 44  1  0  0  0
 43116  1  0  0  0
 44 45  1  0  0  0
 44 46  2  0  0  0
 45117  1  0  0  0
 45118  1  0  0  0
 45119  1  0  0  0
 46 47  1  0  0  0
 46120  1  0  0  0
 47 48  1  0  0  0
 47 52  1  0  0  0
 47121  1  0  0  0
 48 49  1  0  0  0
 48122  1  0  0  0
 48123  1  0  0  0
 49 50  1  0  0  0
 49 53  1  0  0  0
 49124  1  0  0  0
 50 51  1  0  0  0
 50 55  1  0  0  0
 50125  1  0  0  0
 51 52  1  0  0  0
 51126  1  0  0  0
 51127  1  0  0  0
 52128  1  0  0  0
 52129  1  0  0  0
 53 54  1  0  0  0
 54130  1  0  0  0
 54131  1  0  0  0
 54132  1  0  0  0
 55133  1  0  0  0
 56 57  1  0  0  0
 56134  1  0  0  0
 56135  1  0  0  0
 57 58  1  0  0  0
 58 59  2  0  0  0
 58 60  1  0  0  0
 60 61  1  0  0  0
 60136  1  0  0  0
 61 62  1  0  0  0
 61137  1  0  0  0
 61138  1  0  0  0
 62 63  1  0  0  0
 62 67  2  0  0  0
 63 64  2  0  0  0
 63139  1  0  0  0
 64 65  1  0  0  0
 64140  1  0  0  0
 65 66  2  0  0  0
 65141  1  0  0  0
 66 67  1  0  0  0
 66142  1  0  0  0
 67143  1  0  0  0
M  END
> <s_m_source_file>
../1a7x_ligand.sdf

> <i_m_source_file_index>
1

> <s_epik_input>
W09IXVtDQF0xMkMoPU8pQyg9TylOM1tDQEBIXShbQ0gyXVtDSDJdW0NIMl1bQ0gyXTMpQyg9TylPW0NASF0oL0MoW0NIM10pPVtDSF0vW0NASF00W0NIMl1bQ0BASF0oT1tDSDNdKVtDQEhdKFtPSF0pW0NIMl1bQ0gyXTQpW0NASF0oW0NIM10pW0NAQEhdKFtPSF0pW0NIMl1DKD1PKVtDQEBIXShcW0NIXT1DKFtDSDNdKVxbQ0gyXVtDQEhdKFtDSDNdKVtDSDJdW0NASF0oT1tDSDNdKVtDQEBIXShPMilbQ0BASF0oT1tDSDNdKVtDSDJdW0NASF0xW0NIM10pW0NIMl1bQ0gyXU9DKD1PKVtOSF1bQ0gyXWM1W2NIXVtjSF1bY0hdW2NIXVtjSF01

> <s_epik_cmdline>
J2VwaWtfYXBwJywgJy1pbWFlJywgJ2xpZ2FuZF9wcm8ubWFlJywgJy1vbWFlJywgJ2xpZ2FuZF9wcmVwLm1hZScsICctbXMnLCAnMScsICctcGgnLCAnNycsICctcGh0JywgJzAuNScsICctbnQn

> <r_lp_tautomer_probability>
1

> <r_epik_Ionization_Penalty>
  0.0045

> <r_epik_Ionization_Penalty_Charging>
  0.0000

> <r_epik_Ionization_Penalty_Neutral>
  0.0045

> <r_epik_State_Penalty>
 -0.0000

> <r_epik_Charging_Adjusted_Penalty>
0

> <i_epik_Tot_Q>
0

> <i_epik_Tot_abs_Q>
0

> <s_epik_Chemistry_Notes>
This compound has an ester and may undergo hydrolysis at high or low pH.

$$$$
