1a85_ligand
                    3D
 Schrodinger Suite 2020-3.
 55 55  0  0  1  0            999 V2000
   25.6970   59.9730   53.9180 N   0  0  0  0  0  0
   24.7240   58.9940   54.0170 O   0  0  0  0  0  0
   26.9920   59.6330   53.9010 C   0  0  0  0  0  0
   27.3890   58.4410   53.9480 O   0  0  0  0  0  0
   27.9370   60.7550   53.4380 C   0  0  1  0  0  0
   29.2270   60.8700   54.3090 C   0  0  0  0  0  0
   30.0990   62.1060   54.1260 C   0  0  0  0  0  0
   29.7750   63.0730   55.2430 C   0  0  0  0  0  0
   31.5530   61.6930   54.1660 C   0  0  0  0  0  0
   28.2790   60.4970   51.9860 C   0  0  0  0  0  0
   27.8040   61.2060   51.0980 O   0  0  0  0  0  0
   29.0890   59.4860   51.7210 N   0  0  0  0  0  0
   29.4430   59.2330   50.3360 C   0  0  2  0  0  0
   28.3500   58.4080   49.6300 C   0  0  0  0  0  0
   28.5010   58.0280   48.4590 O   0  0  0  0  0  0
   30.7990   58.5590   50.2130 C   0  0  0  0  0  0
   31.2200   58.3710   48.7540 C   0  0  0  0  0  0
   31.5670   57.2660   48.3610 O   0  0  0  0  0  0
   31.2300   59.4580   47.9560 N   0  0  0  0  0  0
   27.2920   58.0690   50.3740 N   0  0  0  0  0  0
   26.1430   57.3420   49.8480 C   0  0  0  0  0  0
   26.0560   55.9240   49.3880 C   0  0  0  0  0  0
   26.8460   54.9160   49.9950 C   0  0  0  0  0  0
   26.6850   53.5720   49.6810 C   0  0  0  0  0  0
   25.1110   55.5570   48.4270 C   0  0  0  0  0  0
   24.9480   54.2090   48.1140 C   0  0  0  0  0  0
   25.7300   53.2130   48.7240 C   0  0  0  0  0  0
   23.9800   53.9090   47.2730 N   0  0  0  0  0  0
   25.4070   61.0321   53.8531 H   0  0  0  0  0  0
   23.6606   59.2749   54.0308 H   0  0  0  0  0  0
   27.4138   61.7184   53.5279 H   0  0  0  0  0  0
   28.9518   60.8667   55.3740 H   0  0  0  0  0  0
   29.8887   60.0169   54.0986 H   0  0  0  0  0  0
   29.9130   62.5978   53.1598 H   0  0  0  0  0  0
   28.7130   63.3544   55.1878 H   0  0  0  0  0  0
   30.3987   63.9733   55.1410 H   0  0  0  0  0  0
   29.9776   62.5945   56.2125 H   0  0  0  0  0  0
   31.7577   60.9915   53.3438 H   0  0  0  0  0  0
   31.7690   61.2041   55.1274 H   0  0  0  0  0  0
   32.1901   62.5829   54.0559 H   0  0  0  0  0  0
   29.4926   58.8441   52.5179 H   0  0  0  0  0  0
   29.5162   60.2353   49.8887 H   0  0  0  0  0  0
   31.5613   59.1752   50.7121 H   0  0  0  0  0  0
   30.7602   57.5677   50.6881 H   0  0  0  0  0  0
   30.9094   60.4333   48.3510 H   0  0  0  0  0  0
   31.5587   59.3694   46.9100 H   0  0  0  0  0  0
   27.3169   58.3665   51.4327 H   0  0  0  0  0  0
   25.3422   57.3269   50.6020 H   0  0  0  0  0  0
   25.7796   57.8401   48.9371 H   0  0  0  0  0  0
   27.6002   55.2027   50.7279 H   0  0  0  0  0  0
   27.2920   52.8111   50.1716 H   0  0  0  0  0  0
   24.5084   56.3159   47.9280 H   0  0  0  0  0  0
   25.5930   52.1662   48.4527 H   0  0  0  0  0  0
   23.3847   54.7104   46.8111 H   0  0  0  0  0  0
   23.7667   52.8570   47.0325 H   0  0  0  0  0  0
  1  3  1  0  0  0
  1  2  1  0  0  0
  1 29  1  0  0  0
  2 30  1  0  0  0
  3  5  1  0  0  0
  3  4  2  0  0  0
  5 10  1  0  0  0
  5  6  1  0  0  0
  5 31  1  0  0  0
  6  7  1  0  0  0
  6 32  1  0  0  0
  6 33  1  0  0  0
  7  9  1  0  0  0
  7  8  1  0  0  0
  7 34  1  0  0  0
  8 35  1  0  0  0
  8 36  1  0  0  0
  8 37  1  0  0  0
  9 38  1  0  0  0
  9 39  1  0  0  0
  9 40  1  0  0  0
 10 11  2  0  0  0
 10 12  1  0  0  0
 12 13  1  0  0  0
 12 41  1  0  0  0
 13 14  1  0  0  0
 13 16  1  0  0  0
 13 42  1  0  0  0
 14 15  2  0  0  0
 14 20  1  0  0  0
 16 17  1  0  0  0
 16 43  1  0  0  0
 16 44  1  0  0  0
 17 18  2  0  0  0
 17 19  1  0  0  0
 19 45  1  0  0  0
 19 46  1  0  0  0
 20 21  1  0  0  0
 20 47  1  0  0  0
 21 22  1  0  0  0
 21 48  1  0  0  0
 21 49  1  0  0  0
 22 25  2  0  0  0
 22 23  1  0  0  0
 23 24  2  0  0  0
 23 50  1  0  0  0
 24 27  1  0  0  0
 24 51  1  0  0  0
 25 26  1  0  0  0
 25 52  1  0  0  0
 26 27  2  0  0  0
 26 28  1  0  0  0
 27 53  1  0  0  0
 28 54  1  0  0  0
 28 55  1  0  0  0
M  END
> <s_m_source_file>
../1a85_ligand.sdf

> <i_m_source_file_index>
1

> <s_epik_input>
W09IXVtOSF1DKD1PKVtDQEBIXShbQ0gyXVtDSF0oW0NIM10pW0NIM10pQyg9TylbTkhdW0NAQEhdKFtDSDJdQyg9TylbTkgyXSlDKD1PKVtOSF1bQ0gyXWMxW2NIXVtjSF1bY0hdYyhbY0hdMSlbTkgyXQ==

> <s_epik_cmdline>
J2VwaWtfYXBwJywgJy1pbWFlJywgJ2xpZ2FuZF9wcm8ubWFlJywgJy1vbWFlJywgJ2xpZ2FuZF9wcmVwLm1hZScsICctbXMnLCAnMScsICctcGgnLCAnNycsICctcGh0JywgJzAuNScsICctbnQn

> <r_epik_Ionization_Penalty>
  0.0591

> <r_epik_Ionization_Penalty_Charging>
  0.0000

> <r_epik_Ionization_Penalty_Neutral>
  0.0591

> <r_epik_State_Penalty>
  0.0429

> <r_epik_Charging_Adjusted_Penalty>
0.0428605419424278

> <i_epik_Tot_Q>
0

> <i_epik_Tot_abs_Q>
0

> <s_epik_Chemistry_Notes>
This compound has a N-S or N-O group and may undergo hydrolysis at high or low pH.

$$$$
