1a86_ligand
                    3D
 Schrodinger Suite 2020-3.
 51 51  0  0  1  0            999 V2000
   25.1650   59.6390   53.3200 N   0  0  0  0  0  0
   24.3590   58.8820   54.1730 O   0  0  0  0  0  0
   26.3830   59.3710   53.7470 C   0  0  0  0  0  0
   26.6800   58.2420   54.1830 O   0  0  0  0  0  0
   27.4380   60.4370   53.3710 C   0  0  1  0  0  0
   28.5690   60.5180   54.4160 C   0  0  0  0  0  0
   28.4070   61.4390   55.6420 C   0  0  0  0  0  0
   28.4010   62.8960   55.2200 C   0  0  0  0  0  0
   27.1420   61.1310   56.4160 C   0  0  0  0  0  0
   28.0190   60.3780   51.9550 C   0  0  0  0  0  0
   27.9030   61.3360   51.1850 O   0  0  0  0  0  0
   28.6190   59.2480   51.6030 N   0  0  0  0  0  0
   29.1740   59.0960   50.2690 C   0  0  2  0  0  0
   28.2140   58.2700   49.4040 C   0  0  0  0  0  0
   28.5730   57.8160   48.3120 O   0  0  0  0  0  0
   30.5550   58.4370   50.3320 C   0  0  0  0  0  0
   31.3150   58.5460   49.0250 C   0  0  0  0  0  0
   31.8390   59.6400   48.7240 O   0  5  0  0  0  0
   31.3890   57.5330   48.3020 O   0  0  0  0  0  0
   26.9940   58.0710   49.9020 N   0  0  0  0  0  0
   25.9380   57.3280   49.2210 C   0  0  0  0  0  0
   25.9320   55.8400   48.9830 C   0  0  0  0  0  0
   26.7100   54.9850   49.7690 C   0  0  0  0  0  0
   26.6820   53.5940   49.5770 C   0  0  0  0  0  0
   25.1160   55.2830   47.9870 C   0  0  0  0  0  0
   25.0800   53.9040   47.7880 C   0  0  0  0  0  0
   25.8610   53.0490   48.5820 C   0  0  0  0  0  0
   24.7061   60.2553   52.5328 H   0  0  0  0  0  0
   23.2652   58.9020   54.0577 H   0  0  0  0  0  0
   26.8521   61.3680   53.3665 H   0  0  0  0  0  0
   28.7414   59.5211   54.8477 H   0  0  0  0  0  0
   29.4910   60.8722   53.9318 H   0  0  0  0  0  0
   29.2599   61.2637   56.3142 H   0  0  0  0  0  0
   29.3200   63.1187   54.6580 H   0  0  0  0  0  0
   28.3531   63.5362   56.1132 H   0  0  0  0  0  0
   27.5255   63.0896   54.5828 H   0  0  0  0  0  0
   27.1472   60.0743   56.7216 H   0  0  0  0  0  0
   26.2662   61.3242   55.7790 H   0  0  0  0  0  0
   27.0939   61.7708   57.3095 H   0  0  0  0  0  0
   28.6949   58.4238   52.3275 H   0  0  0  0  0  0
   29.2763   60.1132   49.8630 H   0  0  0  0  0  0
   31.1576   58.9225   51.1138 H   0  0  0  0  0  0
   30.4411   57.3686   50.5675 H   0  0  0  0  0  0
   26.8064   58.5098   50.8931 H   0  0  0  0  0  0
   24.9899   57.4581   49.7633 H   0  0  0  0  0  0
   25.8277   57.7058   48.1938 H   0  0  0  0  0  0
   27.3499   55.4054   50.5448 H   0  0  0  0  0  0
   27.2958   52.9424   50.1989 H   0  0  0  0  0  0
   24.5045   55.9347   47.3630 H   0  0  0  0  0  0
   24.4408   53.4862   47.0102 H   0  0  0  0  0  0
   25.8286   51.9708   48.4253 H   0  0  0  0  0  0
  1  3  1  0  0  0
  1  2  1  0  0  0
  1 28  1  0  0  0
  2 29  1  0  0  0
  3  5  1  0  0  0
  3  4  2  0  0  0
  5 10  1  0  0  0
  5  6  1  0  0  0
  5 30  1  0  0  0
  6  7  1  0  0  0
  6 31  1  0  0  0
  6 32  1  0  0  0
  7  9  1  0  0  0
  7  8  1  0  0  0
  7 33  1  0  0  0
  8 34  1  0  0  0
  8 35  1  0  0  0
  8 36  1  0  0  0
  9 37  1  0  0  0
  9 38  1  0  0  0
  9 39  1  0  0  0
 10 11  2  0  0  0
 10 12  1  0  0  0
 12 13  1  0  0  0
 12 40  1  0  0  0
 13 14  1  0  0  0
 13 16  1  0  0  0
 13 41  1  0  0  0
 14 15  2  0  0  0
 14 20  1  0  0  0
 16 17  1  0  0  0
 16 42  1  0  0  0
 16 43  1  0  0  0
 17 18  1  0  0  0
 17 19  2  0  0  0
 20 21  1  0  0  0
 20 44  1  0  0  0
 21 22  1  0  0  0
 21 45  1  0  0  0
 21 46  1  0  0  0
 22 25  2  0  0  0
 22 23  1  0  0  0
 23 24  2  0  0  0
 23 47  1  0  0  0
 24 27  1  0  0  0
 24 48  1  0  0  0
 25 26  1  0  0  0
 25 49  1  0  0  0
 26 27  2  0  0  0
 26 50  1  0  0  0
 27 51  1  0  0  0
M  CHG  1  18  -1
M  END
> <s_m_source_file>
../1a86_ligand.sdf

> <i_m_source_file_index>
1

> <s_epik_input>
W09IXVtOSF1DKD1PKVtDQEBIXShbQ0gyXVtDSF0oW0NIM10pW0NIM10pQyg9TylbTkhdW0NAQEhdKFtDSDJdQyg9TylbT0hdKUMoPU8pW05IXVtDSDJdYzFbY0hdW2NIXVtjSF1bY0hdW2NIXTE=

> <s_epik_cmdline>
J2VwaWtfYXBwJywgJy1pbWFlJywgJ2xpZ2FuZF9wcm8ubWFlJywgJy1vbWFlJywgJ2xpZ2FuZF9wcmVwLm1hZScsICctbXMnLCAnMScsICctcGgnLCAnNycsICctcGh0JywgJzAuNScsICctbnQn

> <r_epik_Ionization_Penalty>
  0.0310

> <r_epik_Ionization_Penalty_Charging>
  0.0018

> <r_epik_Ionization_Penalty_Neutral>
  0.0293

> <r_epik_State_Penalty>
  0.0184

> <r_epik_Charging_Adjusted_Penalty>
0.0201940957660541

> <i_epik_Tot_Q>
-1

> <i_epik_Tot_abs_Q>
1

> <s_epik_Chemistry_Notes>
This compound has a N-S or N-O group and may undergo hydrolysis at high or low pH.

$$$$
