1a8i_ligand
                    3D
 Schrodinger Suite 2020-3.
 29 30  0  0  1  0            999 V2000
   33.9450   22.8240   27.5750 C   0  0  1  0  0  0
   33.9200   23.1700   26.0400 C   0  0  2  0  0  0
   33.8830   24.5890   25.9230 O   0  0  0  0  0  0
   32.6290   22.5860   25.3820 C   0  0  1  0  0  0
   32.8930   22.6750   23.9970 O   0  0  0  0  0  0
   32.5680   21.1140   25.7580 C   0  0  2  0  0  0
   31.4440   20.5260   25.1190 O   0  0  0  0  0  0
   32.5400   20.8780   27.2650 C   0  0  1  0  0  0
   32.3740   19.4390   27.7160 C   0  0  0  0  0  0
   33.4340   18.6670   27.1410 O   0  0  0  0  0  0
   33.6860   21.4360   27.8970 O   0  0  0  0  0  0
   35.2410   23.1500   28.1480 N   0  0  0  0  0  0
   35.0630   23.9880   29.1750 C   0  0  0  0  0  0
   36.0200   24.4190   29.8700 O   0  0  0  0  0  0
   33.8110   24.3560   29.4310 N   0  0  0  0  0  0
   33.0600   23.6720   28.4970 C   0  0  0  0  0  0
   31.8440   23.7720   28.4710 O   0  0  0  0  0  0
   34.8239   22.8308   25.5128 H   0  0  0  0  0  0
   34.7068   25.1958   26.3269 H   0  0  0  0  0  0
   31.6792   23.0940   25.6052 H   0  0  0  0  0  0
   32.9778   23.6604   23.5155 H   0  0  0  0  0  0
   33.4498   20.5903   25.3603 H   0  0  0  0  0  0
   31.3239   20.6117   24.0289 H   0  0  0  0  0  0
   31.6666   21.4368   27.6324 H   0  0  0  0  0  0
   32.4228   19.3909   28.8139 H   0  0  0  0  0  0
   31.4000   19.0580   27.3753 H   0  0  0  0  0  0
   33.5007   17.5878   27.3433 H   0  0  0  0  0  0
   36.1565   22.7155   27.7201 H   0  0  0  0  0  0
   33.6014   25.0618   30.2482 H   0  0  0  0  0  0
  1  2  1  0  0  0
  1 11  1  0  0  0
  1 12  1  0  0  0
  1 16  1  0  0  0
  2  3  1  0  0  0
  2  4  1  0  0  0
  2 18  1  0  0  0
  3 19  1  0  0  0
  4  5  1  0  0  0
  4  6  1  0  0  0
  4 20  1  0  0  0
  5 21  1  0  0  0
  6  7  1  0  0  0
  6  8  1  0  0  0
  6 22  1  0  0  0
  7 23  1  0  0  0
  8  9  1  0  0  0
  8 11  1  0  0  0
  8 24  1  0  0  0
  9 10  1  0  0  0
  9 25  1  0  0  0
  9 26  1  0  0  0
 10 27  1  0  0  0
 12 13  1  0  0  0
 12 28  1  0  0  0
 13 14  2  0  0  0
 13 15  1  0  0  0
 15 16  1  0  0  0
 15 29  1  0  0  0
 16 17  2  0  0  0
M  END
> <s_m_source_file>
../1a8i_ligand.sdf

> <i_m_source_file_index>
1

> <s_epik_input>
Tz1DMVtOSF1DKD1PKVtOSF1bQ0BdMTJbQ0BIXShbT0hdKVtDQEBIXShbT0hdKVtDQEhdKFtPSF0pW0NASF0oTzIpW0NIMl1bT0hd

> <s_epik_cmdline>
J2VwaWtfYXBwJywgJy1pbWFlJywgJ2xpZ2FuZF9wcm8ubWFlJywgJy1vbWFlJywgJ2xpZ2FuZF9wcmVwLm1hZScsICctbXMnLCAnMScsICctcGgnLCAnNycsICctcGh0JywgJzAuNScsICctbnQn

> <r_lp_tautomer_probability>
0.99999999978137

> <r_epik_Ionization_Penalty>
  0.3468

> <r_epik_Ionization_Penalty_Charging>
  0.0000

> <r_epik_Ionization_Penalty_Neutral>
  0.3468

> <r_epik_State_Penalty>
  0.3338

> <r_epik_Charging_Adjusted_Penalty>
0.333807359039484

> <i_epik_Tot_Q>
0

> <i_epik_Tot_abs_Q>
0

$$$$
