1a8t_ligand
                    3D
 Schrodinger Suite 2020-3.
 59 63  0  0  1  0            999 V2000
   10.4920   33.9750   -1.5560 N   0  3  0  0  0  0
    9.6690   33.6680   -0.5770 N   0  0  0  0  0  0
    8.4590   33.9100   -0.9930 N   0  3  0  0  0  0
    8.4650   34.4360   -2.2430 N   0  0  0  0  0  0
    9.7920   34.4220   -2.6130 C   0  0  0  0  0  0
   10.1830   34.9240   -3.9430 C   0  0  0  0  0  0
    9.6640   36.1720   -4.3950 C   0  0  0  0  0  0
    9.9590   36.6490   -5.6660 C   0  0  0  0  0  0
   10.7720   35.8980   -6.5070 C   0  0  0  0  0  0
   11.2760   34.6670   -6.0980 C   0  0  0  0  0  0
   10.9840   34.1870   -4.8040 C   0  0  0  0  0  0
    8.7970   36.9280   -3.4570 C   0  0  0  0  0  0
    9.1280   38.2220   -3.0510 C   0  0  0  0  0  0
    8.3400   38.8700   -2.0700 C   0  0  0  0  0  0
    7.2470   38.1860   -1.5280 C   0  0  0  0  0  0
    6.9400   36.8850   -1.9420 C   0  0  0  0  0  0
    7.7450   36.2030   -2.8620 C   0  0  0  0  0  0
    6.2950   38.7460   -0.5040 C   0  0  0  0  0  0
    6.5650   39.9430    0.2700 N   0  0  0  0  0  0
    6.4490   41.1680   -0.2790 C   0  0  0  0  0  0
    6.1310   41.3730   -1.7290 C   0  0  0  0  0  0
    5.1110   40.5150   -2.4110 C   0  0  0  0  0  0
    5.2210   40.5350   -3.9360 C   0  0  0  0  0  0
    4.8280   41.9400   -4.4830 C   0  0  0  0  0  0
    6.6440   42.2600    0.4240 N   0  0  0  0  0  0
    6.9420   42.2480    1.7170 C   0  0  0  0  0  0
    7.0620   43.4360    2.4530 C   0  0  0  0  0  0
    7.3890   43.3710    3.8120 C   0  0  0  0  0  0
    7.5410   42.1300    4.4650 C   0  0  0  0  0  0
    7.8420   42.1300    5.8070 O   0  0  0  0  0  0
    7.3860   40.9420    3.7410 C   0  0  0  0  0  0
    7.0970   41.0100    2.3750 C   0  0  0  0  0  0
    6.8940   39.8000    1.5480 C   0  0  0  0  0  0
    6.9820   38.7030    2.0640 O   0  0  0  0  0  0
    9.5561   37.6047   -6.0012 H   0  0  0  0  0  0
   11.0177   36.2778   -7.4987 H   0  0  0  0  0  0
   11.8937   34.0763   -6.7745 H   0  0  0  0  0  0
   11.3907   33.2298   -4.4778 H   0  0  0  0  0  0
    9.9881   38.7302   -3.4869 H   0  0  0  0  0  0
    8.5801   39.8818   -1.7434 H   0  0  0  0  0  0
    6.0551   36.3921   -1.5395 H   0  0  0  0  0  0
    7.5659   35.1562   -3.1076 H   0  0  0  0  0  0
    5.3401   38.9963   -0.9893 H   0  0  0  0  0  0
    6.1211   37.9974    0.2830 H   0  0  0  0  0  0
    5.7556   42.3957   -1.8810 H   0  0  0  0  0  0
    7.0410   41.2235   -2.3287 H   0  0  0  0  0  0
    5.2327   39.4715   -2.0851 H   0  0  0  0  0  0
    4.1021   40.8658   -2.1484 H   0  0  0  0  0  0
    6.2561   40.3091   -4.2319 H   0  0  0  0  0  0
    4.5446   39.7796   -4.3624 H   0  0  0  0  0  0
    4.9107   41.9427   -5.5799 H   0  0  0  0  0  0
    5.5037   42.6993   -4.0624 H   0  0  0  0  0  0
    3.7921   42.1698   -4.1928 H   0  0  0  0  0  0
    6.9021   44.4005    1.9710 H   0  0  0  0  0  0
    7.5285   44.2939    4.3749 H   0  0  0  0  0  0
    7.9567   43.0826    6.3449 H   0  0  0  0  0  0
    7.4893   39.9764    4.2360 H   0  0  0  0  0  0
    7.6774   33.7051   -0.4039 H   0  0  0  0  0  0
   11.5764   33.8465   -1.4236 H   0  0  0  0  0  0
  1  2  2  0  0  0
  1  5  1  0  0  0
  1 59  1  0  0  0
  2  3  1  0  0  0
  3  4  1  0  0  0
  3 58  1  0  0  0
  4  5  2  0  0  0
  5  6  1  0  0  0
  6  7  2  0  0  0
  6 11  1  0  0  0
  7  8  1  0  0  0
  7 12  1  0  0  0
  8  9  2  0  0  0
  8 35  1  0  0  0
  9 10  1  0  0  0
  9 36  1  0  0  0
 10 11  2  0  0  0
 10 37  1  0  0  0
 11 38  1  0  0  0
 12 13  2  0  0  0
 12 17  1  0  0  0
 13 14  1  0  0  0
 13 39  1  0  0  0
 14 15  2  0  0  0
 14 40  1  0  0  0
 15 16  1  0  0  0
 15 18  1  0  0  0
 16 17  2  0  0  0
 16 41  1  0  0  0
 17 42  1  0  0  0
 18 19  1  0  0  0
 18 43  1  0  0  0
 18 44  1  0  0  0
 19 20  1  0  0  0
 19 33  1  0  0  0
 20 21  1  0  0  0
 20 25  2  0  0  0
 21 22  1  0  0  0
 21 45  1  0  0  0
 21 46  1  0  0  0
 22 23  1  0  0  0
 22 47  1  0  0  0
 22 48  1  0  0  0
 23 24  1  0  0  0
 23 49  1  0  0  0
 23 50  1  0  0  0
 24 51  1  0  0  0
 24 52  1  0  0  0
 24 53  1  0  0  0
 25 26  1  0  0  0
 26 27  2  0  0  0
 26 32  1  0  0  0
 27 28  1  0  0  0
 27 54  1  0  0  0
 28 29  2  0  0  0
 28 55  1  0  0  0
 29 30  1  0  0  0
 29 31  1  0  0  0
 30 56  1  0  0  0
 31 32  2  0  0  0
 31 57  1  0  0  0
 32 33  1  0  0  0
 33 34  2  0  0  0
M  CHG  2   1   1   3   1
M  END
> <s_m_source_file>
../1a8t_ligand.sdf

> <i_m_source_file_index>
1

> <s_epik_input>
bjFbbkhdbm5jMS1jMmMoW2NIXVtjSF1bY0hdW2NIXTIpLWMzW2NIXVtjSF1jKFtjSF1bY0hdMylbQ0gyXW4oYyhuNClbQ0gyXVtDSDJdW0NIMl1bQ0gzXSljKD1PKWMoYzQ1KVtjSF1jKFtPSF0pW2NIXVtjSF01

> <s_epik_cmdline>
J2VwaWtfYXBwJywgJy1pbWFlJywgJ2xpZ2FuZF9wcm8ubWFlJywgJy1vbWFlJywgJ2xpZ2FuZF9wcmVwLm1hZScsICctbXMnLCAnMScsICctcGgnLCAnNycsICctcGh0JywgJzAuNScsICctbnQn

> <r_epik_Ionization_Penalty>
 10.5194

> <r_epik_Ionization_Penalty_Charging>
 10.5111

> <r_epik_Ionization_Penalty_Neutral>
  0.0083

> <r_epik_State_Penalty>
  0.0112

> <r_epik_Charging_Adjusted_Penalty>
10.5223709364781

> <i_epik_Tot_Q>
2

> <i_epik_Tot_abs_Q>
2

> <s_epik_Chemistry_Notes>
This compound has an imine and may undergo hydrolysis.

$$$$
