1a9m_ligand
                    3D
 Schrodinger Suite 2020-3.
 95 95  0  0  1  0            999 V2000
   45.5100   23.0020   66.2580 C   0  0  0  0  0  0
   44.7100   22.2760   65.6330 C   0  0  0  0  0  0
   44.3590   19.9760   64.7470 C   0  0  1  0  0  0
   45.3320   19.2840   63.8240 C   0  0  0  0  0  0
   45.9590   19.9850   62.6470 C   0  0  0  0  0  0
   45.1630   21.1900   62.1830 C   0  0  0  0  0  0
   45.7320   21.7660   60.9070 C   0  0  0  0  0  0
   47.2140   22.1150   61.0830 C   0  0  0  0  0  0
   48.0570   20.9850   61.7110 C   0  0  0  0  0  0
   47.3850   20.4040   62.9280 C   0  0  0  0  0  0
   43.6380   18.8840   65.6080 C   0  0  2  0  0  0
   42.7960   19.5050   66.7060 C   0  0  0  0  0  0
   41.4600   18.8010   66.8660 C   0  0  1  0  0  0
   40.5360   19.6130   67.8360 C   0  0  0  0  0  0
   39.9940   20.8780   67.1990 C   0  0  0  0  0  0
   39.4250   18.7550   68.3890 C   0  0  0  0  0  0
   40.8390   18.5800   65.4800 C   0  0  0  0  0  0
   39.3800   17.1150   64.2650 C   0  0  1  0  0  0
   39.9620   16.7890   62.8680 C   0  0  0  0  0  0
   40.0380   15.3260   62.4810 C   0  0  0  0  0  0
   38.7290   14.7960   61.9710 C   0  0  0  0  0  0
   38.3970   16.0710   64.7570 C   0  0  0  0  0  0
   36.0780   15.3880   64.7620 C   0  0  2  0  0  0
   35.1670   15.2450   63.5670 C   0  0  0  0  0  0
   35.3380   16.0590   65.9140 C   0  0  0  0  0  0
   35.9920   15.8580   67.2590 C   0  0  0  0  0  0
   35.9500   17.1280   68.0770 C   0  0  0  0  0  0
   34.3030   17.2140   69.9120 C   0  0  0  0  0  0
   45.0620   20.9790   65.5660 N   0  0  0  0  0  0
   40.4350   17.3410   65.2340 N   0  0  0  0  0  0
   38.1560   15.4730   60.9940 N   0  0  0  0  0  0
   37.1640   16.2210   64.3060 N   0  0  0  0  0  0
   34.6060   14.0510   63.5010 N   0  0  0  0  0  0
   35.5030   16.8760   69.4420 N   0  0  0  0  0  0
   33.5530   18.1050   69.2620 N   0  0  0  0  0  0
   33.8540   16.6660   71.0360 N   0  3  0  0  0  0
   43.6700   22.7450   65.1250 O   0  0  0  0  0  0
   44.5850   18.0080   66.1960 O   0  0  0  0  0  0
   40.7610   19.4940   64.6310 O   0  0  0  0  0  0
   38.2180   13.8060   62.4730 O   0  0  0  0  0  0
   38.7320   15.1970   65.5570 O   0  0  0  0  0  0
   34.9930   16.1380   62.7260 O   0  0  0  0  0  0
   45.1406   24.0381   66.2595 H   0  0  0  0  0  0
   46.4958   22.9649   65.7714 H   0  0  0  0  0  0
   45.5987   22.6428   67.2939 H   0  0  0  0  0  0
   43.6332   20.5695   64.1717 H   0  0  0  0  0  0
   46.2061   18.9455   64.3997 H   0  0  0  0  0  0
   44.8417   18.4166   63.3579 H   0  0  0  0  0  0
   45.9566   19.2365   61.8409 H   0  0  0  0  0  0
   44.1206   20.8916   61.9977 H   0  0  0  0  0  0
   45.1891   21.9681   62.9601 H   0  0  0  0  0  0
   45.6345   21.0287   60.0965 H   0  0  0  0  0  0
   45.1812   22.6798   60.6396 H   0  0  0  0  0  0
   47.6563   22.3418   60.1017 H   0  0  0  0  0  0
   47.3086   22.9926   61.7395 H   0  0  0  0  0  0
   48.1982   20.1803   60.9745 H   0  0  0  0  0  0
   49.0374   21.3828   62.0119 H   0  0  0  0  0  0
   47.3936   21.1670   63.7203 H   0  0  0  0  0  0
   47.9665   19.5294   63.2549 H   0  0  0  0  0  0
   43.0055   18.2431   64.9762 H   0  0  0  0  0  0
   43.3351   19.4399   67.6626 H   0  0  0  0  0  0
   42.6012   20.5607   66.4660 H   0  0  0  0  0  0
   41.6205   17.8067   67.3083 H   0  0  0  0  0  0
   41.1326   19.9445   68.6986 H   0  0  0  0  0  0
   40.8287   21.4780   66.8075 H   0  0  0  0  0  0
   39.4446   21.4615   67.9524 H   0  0  0  0  0  0
   39.3156   20.6119   66.3750 H   0  0  0  0  0  0
   39.8527   17.8486   68.8422 H   0  0  0  0  0  0
   38.7416   18.4707   67.5753 H   0  0  0  0  0  0
   38.8707   19.3203   69.1527 H   0  0  0  0  0  0
   38.8347   18.0688   64.2116 H   0  0  0  0  0  0
   39.3462   17.2690   62.0931 H   0  0  0  0  0  0
   40.9931   17.1667   62.8031 H   0  0  0  0  0  0
   40.7881   15.1952   61.6871 H   0  0  0  0  0  0
   40.3255   14.7289   63.3590 H   0  0  0  0  0  0
   36.4775   14.4257   65.1148 H   0  0  0  0  0  0
   35.2871   17.1432   65.7351 H   0  0  0  0  0  0
   34.3190   15.6505   65.9827 H   0  0  0  0  0  0
   35.4626   15.0663   67.8094 H   0  0  0  0  0  0
   37.0426   15.5653   67.1158 H   0  0  0  0  0  0
   36.9561   17.5709   68.1185 H   0  0  0  0  0  0
   35.2543   17.8414   67.6111 H   0  0  0  0  0  0
   45.9314   20.6832   66.1715 H   0  0  0  0  0  0
   40.8927   16.4887   65.7575 H   0  0  0  0  0  0
   38.6540   16.3588   60.5729 H   0  0  0  0  0  0
   37.1803   15.1516   60.6007 H   0  0  0  0  0  0
   36.9776   17.0089   63.5613 H   0  0  0  0  0  0
   34.8057   13.3054   64.2847 H   0  0  0  0  0  0
   33.9391   13.8022   62.6623 H   0  0  0  0  0  0
   36.1735   16.3767   70.1570 H   0  0  0  0  0  0
   33.9224   18.5602   68.3312 H   0  0  0  0  0  0
   32.5651   18.3847   69.6567 H   0  0  0  0  0  0
   34.4706   15.9309   71.5740 H   0  0  0  0  0  0
   45.2937   17.4572   65.5601 H   0  0  0  0  0  0
   32.8657   16.9474   71.4285 H   0  0  0  0  0  0
  1  2  1  0  0  0
  1 43  1  0  0  0
  1 44  1  0  0  0
  1 45  1  0  0  0
  2 37  2  0  0  0
  2 29  1  0  0  0
  3 29  1  0  0  0
  3 11  1  0  0  0
  3  4  1  0  0  0
  3 46  1  0  0  0
  4  5  1  0  0  0
  4 47  1  0  0  0
  4 48  1  0  0  0
  5 10  1  0  0  0
  5  6  1  0  0  0
  5 49  1  0  0  0
  6  7  1  0  0  0
  6 50  1  0  0  0
  6 51  1  0  0  0
  7  8  1  0  0  0
  7 52  1  0  0  0
  7 53  1  0  0  0
  8  9  1  0  0  0
  8 54  1  0  0  0
  8 55  1  0  0  0
  9 10  1  0  0  0
  9 56  1  0  0  0
  9 57  1  0  0  0
 10 58  1  0  0  0
 10 59  1  0  0  0
 11 38  1  0  0  0
 11 12  1  0  0  0
 11 60  1  0  0  0
 12 13  1  0  0  0
 12 61  1  0  0  0
 12 62  1  0  0  0
 13 17  1  0  0  0
 13 14  1  0  0  0
 13 63  1  0  0  0
 14 16  1  0  0  0
 14 15  1  0  0  0
 14 64  1  0  0  0
 15 65  1  0  0  0
 15 66  1  0  0  0
 15 67  1  0  0  0
 16 68  1  0  0  0
 16 69  1  0  0  0
 16 70  1  0  0  0
 17 39  2  0  0  0
 17 30  1  0  0  0
 18 30  1  0  0  0
 18 22  1  0  0  0
 18 19  1  0  0  0
 18 71  1  0  0  0
 19 20  1  0  0  0
 19 72  1  0  0  0
 19 73  1  0  0  0
 20 21  1  0  0  0
 20 74  1  0  0  0
 20 75  1  0  0  0
 21 40  2  0  0  0
 21 31  1  0  0  0
 22 41  2  0  0  0
 22 32  1  0  0  0
 23 32  1  0  0  0
 23 25  1  0  0  0
 23 24  1  0  0  0
 23 76  1  0  0  0
 24 42  2  0  0  0
 24 33  1  0  0  0
 25 26  1  0  0  0
 25 77  1  0  0  0
 25 78  1  0  0  0
 26 27  1  0  0  0
 26 79  1  0  0  0
 26 80  1  0  0  0
 27 34  1  0  0  0
 27 81  1  0  0  0
 27 82  1  0  0  0
 28 34  1  0  0  0
 28 35  1  0  0  0
 28 36  2  0  0  0
 29 83  1  0  0  0
 30 84  1  0  0  0
 31 85  1  0  0  0
 31 86  1  0  0  0
 32 87  1  0  0  0
 33 88  1  0  0  0
 33 89  1  0  0  0
 34 90  1  0  0  0
 35 91  1  0  0  0
 35 92  1  0  0  0
 36 93  1  0  0  0
 36 95  1  0  0  0
 38 94  1  0  0  0
M  CHG  1  36   1
M  END
> <s_m_source_file>
../1a9m_ligand.sdf

> <i_m_source_file_index>
1

> <s_epik_input>
W0NIMl0xW0NIMl1bQ0gyXVtDSDJdW0NIMl1bQ0hdMVtDSDJdW0NASF0oW05IXUMoPU8pW0NIM10pW0NAQEhdKFtPSF0pW0NIMl1bQ0BASF0oW0NIXShbQ0gzXSlbQ0gzXSlDKD1PKVtOSF1bQ0BASF0oW0NIMl1bQ0gyXUMoPU8pW05IMl0pQyg9TylbTkhdW0NASF0oQyg9TylbTkgyXSlbQ0gyXVtDSDJdW0NIMl1bTkhdL0MoW05IMl0pPU5cW0hd

> <s_epik_cmdline>
J2VwaWtfYXBwJywgJy1pbWFlJywgJ2xpZ2FuZF9wcm8ubWFlJywgJy1vbWFlJywgJ2xpZ2FuZF9wcmVwLm1hZScsICctbXMnLCAnMScsICctcGgnLCAnNycsICctcGh0JywgJzAuNScsICctbnQn

> <r_lp_tautomer_probability>
1

> <r_epik_Ionization_Penalty>
  0.0000

> <r_epik_Ionization_Penalty_Charging>
  0.0000

> <r_epik_Ionization_Penalty_Neutral>
  0.0000

> <r_epik_State_Penalty>
 -0.0000

> <r_epik_Charging_Adjusted_Penalty>
2.79368778836538e-06

> <i_epik_Tot_Q>
1

> <i_epik_Tot_abs_Q>
1

> <s_epik_Chemistry_Notes>
This compound has an imine and may undergo hydrolysis.

$$$$
