1a9u_ligand
                    3D
 Schrodinger Suite 2020-3.
 42 45  0  0  1  0            999 V2000
   -0.9400   21.5700   27.8010 O   0  0  0  0  0  0
    1.7670   22.3460   28.2870 C   0  0  0  0  0  0
    0.5880   21.2640   27.4030 S   0  0  1  0  0  0
    0.4630   17.2150   27.7730 C   0  0  0  0  0  0
    0.0750   18.5630   27.5900 C   0  0  0  0  0  0
    1.0690   19.5790   27.6130 C   0  0  0  0  0  0
    2.4440   19.2780   27.8020 C   0  0  0  0  0  0
    2.8260   17.9330   27.9810 C   0  0  0  0  0  0
    1.8520   16.8530   27.9720 C   0  0  0  0  0  0
    0.4690    9.3540   28.9050 N   0  0  0  0  0  0
    0.0330   10.1300   27.8840 C   0  0  0  0  0  0
    0.5600   11.4490   27.6850 C   0  0  0  0  0  0
    1.5720   11.9530   28.5980 C   0  0  0  0  0  0
    1.9890   11.0570   29.6830 C   0  0  0  0  0  0
    1.4080    9.7650   29.7890 C   0  0  0  0  0  0
    1.3470   14.4320   28.2060 N   0  0  0  0  0  0
    2.2550   15.4900   28.1830 C   0  0  0  0  0  0
    3.5760   15.1690   28.3810 N   0  0  0  0  0  0
    3.5530   13.7840   28.5630 C   0  0  0  0  0  0
    2.1500   13.3030   28.4790 C   0  0  3  0  0  0
    5.3380   13.3370   30.1690 C   0  0  0  0  0  0
    6.5350   12.7070   30.5430 C   0  0  0  0  0  0
    7.1890   11.8340   29.6380 C   0  0  0  0  0  0
    6.6360   11.5840   28.3390 C   0  0  0  0  0  0
    5.4270   12.2190   27.9600 C   0  0  0  0  0  0
    4.7550   13.1100   28.8800 C   0  0  0  0  0  0
    8.3550   11.2330   30.0350 F   0  0  0  0  0  0
    1.4686   23.3968   28.1571 H   0  0  0  0  0  0
    2.7775   22.1985   27.8781 H   0  0  0  0  0  0
    1.7643   22.0937   29.3577 H   0  0  0  0  0  0
   -0.2972   16.4339   27.7642 H   0  0  0  0  0  0
   -0.9728   18.8194   27.4334 H   0  0  0  0  0  0
    3.1902   20.0725   27.8085 H   0  0  0  0  0  0
    3.8794   17.6961   28.1301 H   0  0  0  0  0  0
   -0.7285    9.7470   27.2046 H   0  0  0  0  0  0
    0.2058   12.0658   26.8591 H   0  0  0  0  0  0
    2.7402   11.3810   30.4033 H   0  0  0  0  0  0
    1.7219    9.0971   30.5912 H   0  0  0  0  0  0
    4.8440   14.0096   30.8702 H   0  0  0  0  0  0
    6.9617   12.8891   31.5294 H   0  0  0  0  0  0
    7.1420   10.9101   27.6476 H   0  0  0  0  0  0
    5.0026   12.0355   26.9729 H   0  0  0  0  0  0
  1  3  2  0  0  0
  2  3  1  0  0  0
  2 28  1  0  0  0
  2 29  1  0  0  0
  2 30  1  0  0  0
  3  6  1  0  0  0
  4  5  2  0  0  0
  4  9  1  0  0  0
  4 31  1  0  0  0
  5  6  1  0  0  0
  5 32  1  0  0  0
  6  7  2  0  0  0
  7  8  1  0  0  0
  7 33  1  0  0  0
  8  9  2  0  0  0
  8 34  1  0  0  0
  9 17  1  0  0  0
 10 11  1  0  0  0
 10 15  2  0  0  0
 11 12  2  0  0  0
 11 35  1  0  0  0
 12 13  1  0  0  0
 12 36  1  0  0  0
 13 20  1  0  0  0
 13 14  2  0  0  0
 14 15  1  0  0  0
 14 37  1  0  0  0
 15 38  1  0  0  0
 16 17  2  0  0  0
 16 20  1  0  0  0
 17 18  1  0  0  0
 18 19  2  0  0  0
 19 26  1  0  0  0
 19 20  1  0  0  0
 21 26  1  0  0  0
 21 22  2  0  0  0
 21 39  1  0  0  0
 22 23  1  0  0  0
 22 40  1  0  0  0
 23 27  1  0  0  0
 23 24  2  0  0  0
 24 25  1  0  0  0
 24 41  1  0  0  0
 25 26  2  0  0  0
 25 42  1  0  0  0
M  END
> <s_m_source_file>
../1a9u_ligand.sdf

> <i_m_source_file_index>
1

> <s_epik_input>
Tz1bU0BAXShbQ0gzXSljMVtjSF1bY0hdYyhbY0hdW2NIXTEpQzI9TltDSF0oQyg9TjIpYyhbY0hdW2NIXTMpW2NIXVtjSF1jM0YpYzRbY0hdW2NIXW5bY0hdW2NIXTQ=

> <s_epik_cmdline>
J2VwaWtfYXBwJywgJy1pbWFlJywgJ2xpZ2FuZF9wcm8ubWFlJywgJy1vbWFlJywgJ2xpZ2FuZF9wcmVwLm1hZScsICctbXMnLCAnMScsICctcGgnLCAnNycsICctcGh0JywgJzAuNScsICctbnQn

> <r_lp_tautomer_probability>
1

> <r_epik_Ionization_Penalty>
  0.6145

> <r_epik_Ionization_Penalty_Charging>
  0.0000

> <r_epik_Ionization_Penalty_Neutral>
  0.6145

> <r_epik_State_Penalty>
 -0.0000

> <r_epik_Charging_Adjusted_Penalty>
0

> <i_epik_Tot_Q>
0

> <i_epik_Tot_abs_Q>
0

> <s_epik_Chemistry_Notes>
This compound has an imine and may undergo hydrolysis.

$$$$
