1aaq_ligand
                    3D
 Schrodinger Suite 2020-3.
 89 89  0  0  1  0            999 V2000
   -4.8320   18.1790   -4.8280 C   0  0  0  0  0  0
   -5.8830   17.4740   -5.6800 C   0  0  2  0  0  0
   -5.7410   17.9380   -7.0390 N   0  3  0  0  0  0
   -7.2840   17.7850   -5.1510 C   0  0  0  0  0  0
   -7.8780   18.7950   -5.5030 O   0  0  0  0  0  0
   -7.7640   16.9320   -4.2320 N   0  0  0  0  0  0
   -9.0680   17.1150   -3.5730 C   0  0  1  0  0  0
  -10.0880   16.1150   -4.1410 C   0  0  0  0  0  0
   -8.8180   16.8680   -2.0810 C   0  0  0  0  0  0
   -8.4350   15.7610   -1.7290 O   0  0  0  0  0  0
   -8.9820   17.9020   -1.2370 N   0  0  0  0  0  0
   -8.6630   17.8220    0.2180 C   0  0  1  0  0  0
   -7.6860   18.9390    0.6230 C   0  0  0  0  0  0
   -6.3150   18.8260   -0.0240 C   0  0  0  0  0  0
   -5.9580   19.6050   -1.1370 C   0  0  0  0  0  0
   -5.3680   17.9530    0.5460 C   0  0  0  0  0  0
   -4.6690   19.4940   -1.6820 C   0  0  0  0  0  0
   -4.0860   17.8370   -0.0040 C   0  0  0  0  0  0
   -3.7290   18.6210   -1.1100 C   0  0  0  0  0  0
   -9.9260   17.8710    1.1670 C   0  0  1  0  0  0
  -10.8640   19.0150    1.0930 O   0  0  0  0  0  0
  -10.7740   16.6120    0.9150 C   0  0  0  0  0  0
  -11.8840   16.4140    1.9720 C   0  0  0  0  0  0
  -11.3700   15.7810    3.2710 C   0  0  0  0  0  0
  -10.7800   14.7100    3.1960 O   0  0  0  0  0  0
  -11.6290   16.3670    4.4580 N   0  0  0  0  0  0
  -11.2800   15.6530    5.7110 C   0  0  1  0  0  0
  -10.4320   16.5190    6.6690 C   0  0  0  0  0  0
   -9.9680   15.7260    7.9080 C   0  0  0  0  0  0
   -9.1670   17.0370    5.9540 C   0  0  0  0  0  0
  -12.5960   15.1310    6.3280 C   0  0  0  0  0  0
  -13.5770   15.8440    6.4930 O   0  0  0  0  0  0
  -12.5390   13.8420    6.6570 N   0  0  0  0  0  0
  -13.5190   12.9170    7.2560 C   0  0  1  0  0  0
  -14.1680   12.0520    6.1210 C   0  0  0  0  0  0
  -15.2790   11.0900    6.6380 C   0  0  0  0  0  0
  -14.8520   12.9270    5.0450 C   0  0  0  0  0  0
  -12.8290   12.0770    8.4190 C   0  0  0  0  0  0
  -13.0000   12.6640    9.7100 O   0  0  0  0  0  0
  -11.5110   11.4360    8.2750 O   0  0  0  0  0  0
  -13.0560   11.6970   10.7740 C   0  0  0  0  0  0
   -3.8294   17.9483   -5.2174 H   0  0  0  0  0  0
   -4.9102   17.8313   -3.7873 H   0  0  0  0  0  0
   -4.9987   19.2657   -4.8650 H   0  0  0  0  0  0
   -5.7299   16.3848   -5.6962 H   0  0  0  0  0  0
   -4.7288   17.7059   -7.4018 H   0  0  0  0  0  0
   -5.9027   19.0255   -7.0739 H   0  0  0  0  0  0
   -6.4833   17.4362   -7.6772 H   0  0  0  0  0  0
   -7.1359   16.0656   -3.9774 H   0  0  0  0  0  0
   -9.4471   18.1303   -3.7612 H   0  0  0  0  0  0
  -10.2447   16.3187   -5.2106 H   0  0  0  0  0  0
  -11.0423   16.2198   -3.6041 H   0  0  0  0  0  0
   -9.7068   15.0909   -4.0148 H   0  0  0  0  0  0
   -9.3705   18.8382   -1.6642 H   0  0  0  0  0  0
   -8.1838   16.8351    0.2980 H   0  0  0  0  0  0
   -8.1030   19.9143    0.3316 H   0  0  0  0  0  0
   -7.5338   18.9159    1.7122 H   0  0  0  0  0  0
   -6.6797   20.2937   -1.5763 H   0  0  0  0  0  0
   -5.6356   17.3629    1.4225 H   0  0  0  0  0  0
   -4.3961   20.0886   -2.5539 H   0  0  0  0  0  0
   -3.3676   17.1393    0.4263 H   0  0  0  0  0  0
   -2.7235   18.5532   -1.5254 H   0  0  0  0  0  0
   -9.5115   18.0010    2.1776 H   0  0  0  0  0  0
  -10.4939   20.0402    1.2414 H   0  0  0  0  0  0
  -11.2583   16.6872   -0.0698 H   0  0  0  0  0  0
  -10.1265   15.7231    0.9382 H   0  0  0  0  0  0
  -12.3250   17.3888    2.2276 H   0  0  0  0  0  0
  -12.6642   15.7539    1.5651 H   0  0  0  0  0  0
  -12.0936   17.3630    4.5037 H   0  0  0  0  0  0
  -10.6264   14.8066    5.4534 H   0  0  0  0  0  0
  -11.0757   17.3527    6.9861 H   0  0  0  0  0  0
  -10.8462   15.3393    8.4458 H   0  0  0  0  0  0
   -9.3931   16.3876    8.5726 H   0  0  0  0  0  0
   -9.3339   14.8856    7.5891 H   0  0  0  0  0  0
   -9.4589   17.6099    5.0615 H   0  0  0  0  0  0
   -8.5405   16.1842    5.6536 H   0  0  0  0  0  0
   -8.5996   17.6862    6.6371 H   0  0  0  0  0  0
  -11.5323   13.4835    6.3963 H   0  0  0  0  0  0
  -14.3178   13.5272    7.7027 H   0  0  0  0  0  0
  -13.3277   11.4815    5.6986 H   0  0  0  0  0  0
  -14.8616   10.4309    7.4135 H   0  0  0  0  0  0
  -15.6546   10.4810    5.8025 H   0  0  0  0  0  0
  -16.1052   11.6788    7.0630 H   0  0  0  0  0  0
  -14.1212   13.6374    4.6312 H   0  0  0  0  0  0
  -15.6860   13.4819    5.4995 H   0  0  0  0  0  0
  -15.2354   12.2841    4.2390 H   0  0  0  0  0  0
  -13.1881   12.2162   11.7347 H   0  0  0  0  0  0
  -12.1197   11.1200   10.7947 H   0  0  0  0  0  0
  -13.9030   11.0156   10.6060 H   0  0  0  0  0  0
  1  2  1  0  0  0
  1 42  1  0  0  0
  1 43  1  0  0  0
  1 44  1  0  0  0
  2  3  1  0  0  0
  2  4  1  0  0  0
  2 45  1  0  0  0
  3 46  1  0  0  0
  3 47  1  0  0  0
  3 48  1  0  0  0
  4  5  2  0  0  0
  4  6  1  0  0  0
  6  7  1  0  0  0
  6 49  1  0  0  0
  7  8  1  0  0  0
  7  9  1  0  0  0
  7 50  1  0  0  0
  8 51  1  0  0  0
  8 52  1  0  0  0
  8 53  1  0  0  0
  9 10  2  0  0  0
  9 11  1  0  0  0
 11 12  1  0  0  0
 11 54  1  0  0  0
 12 13  1  0  0  0
 12 20  1  0  0  0
 12 55  1  0  0  0
 13 14  1  0  0  0
 13 56  1  0  0  0
 13 57  1  0  0  0
 14 15  2  0  0  0
 14 16  1  0  0  0
 15 17  1  0  0  0
 15 58  1  0  0  0
 16 18  2  0  0  0
 16 59  1  0  0  0
 17 19  2  0  0  0
 17 60  1  0  0  0
 18 19  1  0  0  0
 18 61  1  0  0  0
 19 62  1  0  0  0
 20 21  1  0  0  0
 20 22  1  0  0  0
 20 63  1  0  0  0
 21 64  1  0  0  0
 22 23  1  0  0  0
 22 65  1  0  0  0
 22 66  1  0  0  0
 23 24  1  0  0  0
 23 67  1  0  0  0
 23 68  1  0  0  0
 24 25  2  0  0  0
 24 26  1  0  0  0
 26 27  1  0  0  0
 26 69  1  0  0  0
 27 28  1  0  0  0
 27 31  1  0  0  0
 27 70  1  0  0  0
 28 29  1  0  0  0
 28 30  1  0  0  0
 28 71  1  0  0  0
 29 72  1  0  0  0
 29 73  1  0  0  0
 29 74  1  0  0  0
 30 75  1  0  0  0
 30 76  1  0  0  0
 30 77  1  0  0  0
 31 32  2  0  0  0
 31 33  1  0  0  0
 33 34  1  0  0  0
 33 78  1  0  0  0
 34 35  1  0  0  0
 34 38  1  0  0  0
 34 79  1  0  0  0
 35 36  1  0  0  0
 35 37  1  0  0  0
 35 80  1  0  0  0
 36 81  1  0  0  0
 36 82  1  0  0  0
 36 83  1  0  0  0
 37 84  1  0  0  0
 37 85  1  0  0  0
 37 86  1  0  0  0
 38 39  1  0  0  0
 38 40  2  0  0  0
 39 41  1  0  0  0
 41 87  1  0  0  0
 41 88  1  0  0  0
 41 89  1  0  0  0
M  CHG  1   3   1
M  END
> <s_m_source_file>
../1aaq_ligand.sdf

> <i_m_source_file_index>
1

> <s_epik_input>
W0NIM11bQ0BIXShbTkgzK10pQyg9TylbTkhdW0NAQEhdKFtDSDNdKUMoPU8pW05IXVtDQEBIXShbQ0gyXWMxW2NIXVtjSF1bY0hdW2NIXVtjSF0xKVtDQEBIXShbT0hdKVtDSDJdW0NIMl1DKD1PKVtOSF1bQ0BASF0oW0NIXShbQ0gzXSlbQ0gzXSlDKD1PKVtOSF1bQ0BASF0oW0NIXShbQ0gzXSlbQ0gzXSlDKD1PKU9bQ0gzXQ==

> <s_epik_cmdline>
J2VwaWtfYXBwJywgJy1pbWFlJywgJ2xpZ2FuZF9wcm8ubWFlJywgJy1vbWFlJywgJ2xpZ2FuZF9wcmVwLm1hZScsICctbXMnLCAnMScsICctcGgnLCAnNycsICctcGh0JywgJzAuNScsICctbnQn

> <r_epik_Ionization_Penalty>
  0.1223

> <r_epik_Ionization_Penalty_Charging>
  0.1223

> <r_epik_Ionization_Penalty_Neutral>
  0.0000

> <r_epik_State_Penalty>
  0.1119

> <r_epik_Charging_Adjusted_Penalty>
0.234190287511832

> <i_epik_Tot_Q>
1

> <i_epik_Tot_abs_Q>
1

> <s_epik_Chemistry_Notes>
This compound has an ester and may undergo hydrolysis at high or low pH.

$$$$
