1abt_ligand
                    3D
 Schrodinger Suite 2020-3.
123127  0  0  1  0            999 V2000
   -2.7010    7.6930    8.8020 N   0  3  0  0  0  0
   -3.9840    6.9580    8.9060 C   0  0  2  0  0  0
   -4.2990    6.1360    7.6380 C   0  0  0  0  0  0
   -4.8670    6.6220    6.6600 O   0  0  0  0  0  0
   -5.0990    7.9470    9.2680 C   0  0  0  0  0  0
   -6.4020    7.2300    9.6480 C   0  0  0  0  0  0
   -7.4730    8.2330   10.0830 C   0  0  0  0  0  0
   -8.8100    7.5420   10.3560 C   0  0  0  0  0  0
   -8.7250    6.6180   11.4980 N   0  3  0  0  0  0
   -3.8810    4.8830    7.7180 N   0  0  0  0  0  0
   -3.8780    3.9320    6.5890 C   0  0  2  0  0  0
   -4.1940    2.5160    7.0900 C   0  0  0  0  0  0
   -3.8830    2.1590    8.2250 O   0  0  0  0  0  0
   -2.5170    3.9420    5.8880 C   0  0  0  0  0  0
   -2.1050    5.3190    5.3770 C   0  0  0  0  0  0
   -1.3580    6.2040    6.0400 N   0  0  0  0  0  0
   -2.4960    5.8910    4.2380 C   0  0  0  0  0  0
   -1.3270    7.3310    5.3410 C   0  0  0  0  0  0
   -2.0290    7.1440    4.2320 N   0  0  0  0  0  0
   -4.7800    1.7420    6.1910 N   0  0  0  0  0  0
   -5.2450    0.3720    6.4880 C   0  0  2  0  0  0
   -4.4200   -0.7450    5.8420 C   0  0  0  0  0  0
   -3.8880   -0.6030    4.7380 O   0  0  0  0  0  0
   -6.7020    0.2410    6.0460 C   0  0  0  0  0  0
   -7.6890    0.6330    7.1400 C   0  0  0  0  0  0
   -8.3210   -0.2520    7.8980 C   0  0  0  0  0  0
   -8.0370    1.8980    7.5910 C   0  0  0  0  0  0
   -9.0410    0.3700    8.8310 N   0  3  0  0  0  0
   -8.8940    1.6880    8.6850 C   0  0  0  0  0  0
   -7.7400    3.2140    7.1650 C   0  0  0  0  0  0
   -9.4720    2.7810    9.3740 C   0  0  0  0  0  0
   -8.3140    4.3040    7.8460 C   0  0  0  0  0  0
   -9.1810    4.0940    8.9360 C   0  0  0  0  0  0
   -4.2220   -1.7680    6.6660 N   0  0  0  0  0  0
   -3.8200   -3.1110    6.2120 C   0  0  2  0  0  0
   -4.9900   -3.8630    5.5570 C   0  0  0  0  0  0
   -6.1100   -3.9020    6.0540 O   0  0  0  0  0  0
   -3.2120   -4.0170    7.2990 C   0  0  0  0  0  0
   -1.7810   -3.6120    7.6710 C   0  0  0  0  0  0
   -4.0850   -4.1420    8.5640 C   0  0  0  0  0  0
   -4.6750   -4.3900    4.3880 N   0  0  0  0  0  0
   -5.5130   -5.3520    3.6540 C   0  0  2  0  0  0
   -4.7150   -6.6280    3.3820 C   0  0  0  0  0  0
   -3.5050   -6.6030    3.1430 O   0  0  0  0  0  0
   -6.0390   -4.7400    2.3550 C   0  0  0  0  0  0
   -7.3340   -3.9570    2.6070 C   0  0  0  0  0  0
   -8.5680   -4.6430    2.5280 C   0  0  0  0  0  0
   -7.2630   -2.5760    2.8580 C   0  0  0  0  0  0
   -9.7610   -3.9120    2.7080 C   0  0  0  0  0  0
   -8.4550   -1.8450    3.0370 C   0  0  0  0  0  0
   -9.6900   -2.5310    2.9580 C   0  0  0  0  0  0
  -10.8330   -1.8260    3.1590 O   0  0  0  0  0  0
   -5.4530   -7.7350    3.4160 N   0  0  0  0  0  0
   -4.8720   -9.0890    3.3200 C   0  0  2  0  0  0
   -5.2660   -9.9090    2.0830 C   0  0  0  0  0  0
   -4.6170  -10.9690    1.8930 O   0  0  0  0  0  0
   -5.1600   -9.8730    4.6080 C   0  0  0  0  0  0
   -4.2660   -9.4620    5.7900 C   0  0  0  0  0  0
   -4.5740   -8.2880    6.5160 C   0  0  0  0  0  0
   -3.2970  -10.3750    6.2540 C   0  0  0  0  0  0
   -3.9280   -8.0370    7.7370 C   0  0  0  0  0  0
   -2.6510  -10.1330    7.4790 C   0  0  0  0  0  0
   -2.9690   -8.9700    8.2040 C   0  0  0  0  0  0
   -2.3200   -8.7180    9.3680 O   0  0  0  0  0  0
   -6.2367   -9.5208    1.2609 O   0  5  0  0  0  0
   -2.5268    8.2594    9.7287 H   0  0  0  0  0  0
   -2.7445    8.3877    7.9503 H   0  0  0  0  0  0
   -1.8797    6.9772    8.6498 H   0  0  0  0  0  0
   -3.8653    6.2296    9.7217 H   0  0  0  0  0  0
   -4.7816    8.5599   10.1246 H   0  0  0  0  0  0
   -5.3044    8.5994    8.4065 H   0  0  0  0  0  0
   -6.7772    6.6672    8.7805 H   0  0  0  0  0  0
   -6.2097    6.5363   10.4798 H   0  0  0  0  0  0
   -7.1485    8.7396   11.0039 H   0  0  0  0  0  0
   -7.6222    8.9781    9.2877 H   0  0  0  0  0  0
   -9.5750    8.2996   10.5813 H   0  0  0  0  0  0
   -9.1135    6.9670    9.4687 H   0  0  0  0  0  0
   -9.7043    6.1438   11.6597 H   0  0  0  0  0  0
   -8.4344    7.1760   12.4003 H   0  0  0  0  0  0
   -7.9728    5.8434   11.2877 H   0  0  0  0  0  0
   -3.5189    4.5642    8.7066 H   0  0  0  0  0  0
   -4.6586    4.2729    5.8930 H   0  0  0  0  0  0
   -1.8539    3.0777    5.7355 H   0  0  0  0  0  0
   -3.0872    5.5203    3.3877 H   0  0  0  0  0  0
   -0.8145    8.2492    5.6279 H   0  0  0  0  0  0
   -4.9150    2.1623    5.1835 H   0  0  0  0  0  0
   -5.1138    0.2762    7.5759 H   0  0  0  0  0  0
   -6.8828    0.8952    5.1804 H   0  0  0  0  0  0
   -6.9079   -0.8027    5.7661 H   0  0  0  0  0  0
   -8.2022   -1.3280    7.7026 H   0  0  0  0  0  0
   -7.0740    3.3820    6.3187 H   0  0  0  0  0  0
  -10.1297    2.6138   10.2270 H   0  0  0  0  0  0
   -8.0853    5.3207    7.5266 H   0  0  0  0  0  0
   -9.6298    4.9474    9.4444 H   0  0  0  0  0  0
   -4.3736   -1.5722    7.7378 H   0  0  0  0  0  0
   -3.0326   -2.8537    5.4883 H   0  0  0  0  0  0
   -3.1700   -5.0142    6.8366 H   0  0  0  0  0  0
   -1.1744   -3.5280    6.7572 H   0  0  0  0  0  0
   -1.3442   -4.3749    8.3322 H   0  0  0  0  0  0
   -1.7976   -2.6425    8.1905 H   0  0  0  0  0  0
   -5.1064   -4.4328    8.2773 H   0  0  0  0  0  0
   -4.1124   -3.1750    9.0876 H   0  0  0  0  0  0
   -3.6589   -4.9074    9.2294 H   0  0  0  0  0  0
   -3.7132   -4.0639    3.9654 H   0  0  0  0  0  0
   -6.3718   -5.5826    4.3016 H   0  0  0  0  0  0
   -5.2850   -4.0544    1.9410 H   0  0  0  0  0  0
   -6.2443   -5.5407    1.6292 H   0  0  0  0  0  0
   -8.5968   -5.7148    2.3320 H   0  0  0  0  0  0
   -6.2964   -2.0754    2.9137 H   0  0  0  0  0  0
  -10.7275   -4.4130    2.6537 H   0  0  0  0  0  0
   -8.4259   -0.7730    3.2323 H   0  0  0  0  0  0
  -11.8082   -2.3320    3.1039 H   0  0  0  0  0  0
   -6.5408   -7.6094    3.5208 H   0  0  0  0  0  0
   -3.7999   -8.8768    3.1952 H   0  0  0  0  0  0
   -6.2041   -9.7077    4.9121 H   0  0  0  0  0  0
   -4.9958  -10.9458    4.4287 H   0  0  0  0  0  0
   -5.3090   -7.5818    6.1297 H   0  0  0  0  0  0
   -3.0509  -11.2606    5.6682 H   0  0  0  0  0  0
   -4.1596   -7.1420    8.3145 H   0  0  0  0  0  0
   -1.9130  -10.8376    7.8623 H   0  0  0  0  0  0
   -2.5581   -7.8127    9.9456 H   0  0  0  0  0  0
   -9.6260   -0.2156    9.5555 H   0  0  0  0  0  0
   -0.8968    5.9256    6.9990 H   0  0  0  0  0  0
  1  2  1  0  0  0
  1 66  1  0  0  0
  1 67  1  0  0  0
  1 68  1  0  0  0
  2  5  1  0  0  0
  2  3  1  0  0  0
  2 69  1  0  0  0
  3  4  2  0  0  0
  3 10  1  0  0  0
  5  6  1  0  0  0
  5 70  1  0  0  0
  5 71  1  0  0  0
  6  7  1  0  0  0
  6 72  1  0  0  0
  6 73  1  0  0  0
  7  8  1  0  0  0
  7 74  1  0  0  0
  7 75  1  0  0  0
  8  9  1  0  0  0
  8 76  1  0  0  0
  8 77  1  0  0  0
  9 78  1  0  0  0
  9 79  1  0  0  0
  9 80  1  0  0  0
 10 11  1  0  0  0
 10 81  1  0  0  0
 11 14  1  0  0  0
 11 12  1  0  0  0
 11 82  1  0  0  0
 12 13  2  0  0  0
 12 20  1  0  0  0
 14 15  2  0  0  0
 14 83  1  0  0  0
 15 16  1  0  0  0
 15 17  1  0  0  0
 16 18  1  0  0  0
 16123  1  0  0  0
 17 19  2  0  0  0
 17 84  1  0  0  0
 18 19  1  0  0  0
 18 85  1  0  0  0
 20 21  1  0  0  0
 20 86  1  0  0  0
 21 24  1  0  0  0
 21 22  1  0  0  0
 21 87  1  0  0  0
 22 23  2  0  0  0
 22 34  1  0  0  0
 24 25  1  0  0  0
 24 88  1  0  0  0
 24 89  1  0  0  0
 25 26  2  0  0  0
 25 27  1  0  0  0
 26 28  1  0  0  0
 26 90  1  0  0  0
 27 30  2  0  0  0
 27 29  1  0  0  0
 28 29  1  0  0  0
 28122  1  0  0  0
 29 31  2  0  0  0
 30 32  1  0  0  0
 30 91  1  0  0  0
 31 33  1  0  0  0
 31 92  1  0  0  0
 32 33  2  0  0  0
 32 93  1  0  0  0
 33 94  1  0  0  0
 34 35  1  0  0  0
 34 95  1  0  0  0
 35 38  1  0  0  0
 35 36  1  0  0  0
 35 96  1  0  0  0
 36 37  2  0  0  0
 36 41  1  0  0  0
 38 40  1  0  0  0
 38 39  1  0  0  0
 38 97  1  0  0  0
 39 98  1  0  0  0
 39 99  1  0  0  0
 39100  1  0  0  0
 40101  1  0  0  0
 40102  1  0  0  0
 40103  1  0  0  0
 41 42  1  0  0  0
 41104  1  0  0  0
 42 45  1  0  0  0
 42 43  1  0  0  0
 42105  1  0  0  0
 43 44  2  0  0  0
 43 53  1  0  0  0
 45 46  1  0  0  0
 45106  1  0  0  0
 45107  1  0  0  0
 46 47  2  0  0  0
 46 48  1  0  0  0
 47 49  1  0  0  0
 47108  1  0  0  0
 48 50  2  0  0  0
 48109  1  0  0  0
 49 51  2  0  0  0
 49110  1  0  0  0
 50 51  1  0  0  0
 50111  1  0  0  0
 51 52  1  0  0  0
 52112  1  0  0  0
 53 54  1  0  0  0
 53113  1  0  0  0
 54 57  1  0  0  0
 54 55  1  0  0  0
 54114  1  0  0  0
 55 56  2  0  0  0
 55 65  1  0  0  0
 57 58  1  0  0  0
 57115  1  0  0  0
 57116  1  0  0  0
 58 59  2  0  0  0
 58 60  1  0  0  0
 59 61  1  0  0  0
 59117  1  0  0  0
 60 62  2  0  0  0
 60118  1  0  0  0
 61 63  2  0  0  0
 61119  1  0  0  0
 62 63  1  0  0  0
 62120  1  0  0  0
 63 64  1  0  0  0
 64121  1  0  0  0
M  CHG  4   1   1   9   1  28   1  65  -1
M  END
> <s_m_source_file>
../1abt_ligand.sdf

> <i_m_source_file_index>
1

> <s_epik_input>
W05IMytdW0NIMl1bQ0gyXVtDSDJdW0NIMl1bQ0BIXShbTkgzK10pQyg9TylbTkhdW0NAQEhdKFtDSDJdQzE9TltDSDJdTj1bQ0hdMSlDKD1PKVtOSF1bQ0BASF0oW0NIMl1jMltjSF1bbkhdYyhjMjMpW2NIXVtjSF1bY0hdW2NIXTMpQyg9TylbTkhdW0NAQEhdKFtDSF0oW0NIM10pW0NIM10pQyg9TylbTkhdW0NAQEhdKFtDSDJdYzRbY0hdW2NIXWMoW09IXSlbY0hdW2NIXTQpQyg9TylbTkhdW0NASF0oQyg9TylbT0hdKVtDSDJdYzVbY0hdW2NIXWMoW09IXSlbY0hdW2NIXTU=

> <s_epik_cmdline>
J2VwaWtfYXBwJywgJy1pbWFlJywgJ2xpZ2FuZF9wcm8ubWFlJywgJy1vbWFlJywgJ2xpZ2FuZF9wcmVwLm1hZScsICctbXMnLCAnMScsICctcGgnLCAnNycsICctcGh0JywgJzAuNScsICctbnQn

> <r_epik_Ionization_Penalty>
  0.1582

> <r_epik_Ionization_Penalty_Charging>
  0.1565

> <r_epik_Ionization_Penalty_Neutral>
  0.0016

> <r_epik_State_Penalty>
  0.1451

> <r_epik_Charging_Adjusted_Penalty>
0.301603076984755

> <i_epik_Tot_Q>
2

> <i_epik_Tot_abs_Q>
4

> <s_epik_Chemistry_Notes>
This compound has an imine and may undergo hydrolysis.

$$$$
