1acj_ligand
                    3D
 Schrodinger Suite 2020-3.
 30 32  0  0  1  0            999 V2000
    6.3620   71.2610   69.0250 C   0  0  0  0  0  0
    6.6970   70.9550   67.7120 C   0  0  0  0  0  0
    5.7190   70.5180   66.8190 C   0  0  0  0  0  0
    4.3510   70.3810   67.2600 C   0  0  0  0  0  0
    4.0560   70.7020   68.6030 C   0  0  0  0  0  0
    5.0530   71.1360   69.4680 C   0  0  0  0  0  0
    6.0680   70.2360   65.5850 N   0  3  0  0  0  0
    5.2070   69.8210   64.6830 C   0  0  0  0  0  0
    3.8330   69.6340   64.9950 C   0  0  0  0  0  0
    3.3960   69.9330   66.3090 C   0  0  0  0  0  0
    5.7760   69.4590   63.2890 C   0  0  0  0  0  0
    4.7360   69.3630   62.1450 C   0  0  0  0  0  0
    3.5150   68.5400   62.5970 C   0  0  0  0  0  0
    2.8600   69.1770   63.8480 C   0  0  0  0  0  0
    2.0920   69.7980   66.6250 N   0  0  0  0  0  0
    7.1347   71.6025   69.7137 H   0  0  0  0  0  0
    7.7295   71.0570   67.3780 H   0  0  0  0  0  0
    3.0325   70.6081   68.9660 H   0  0  0  0  0  0
    4.8053   71.3798   70.5011 H   0  0  0  0  0  0
    6.5047   70.2232   62.9807 H   0  0  0  0  0  0
    6.2719   68.4784   63.3387 H   0  0  0  0  0  0
    4.4034   70.3737   61.8661 H   0  0  0  0  0  0
    5.1945   68.8742   61.2727 H   0  0  0  0  0  0
    2.7739   68.5072   61.7848 H   0  0  0  0  0  0
    3.8337   67.5166   62.8441 H   0  0  0  0  0  0
    2.1620   68.4218   64.2385 H   0  0  0  0  0  0
    2.2930   70.0451   63.4805 H   0  0  0  0  0  0
    1.7462   70.0285   67.6435 H   0  0  0  0  0  0
    1.3741   69.4574   65.8643 H   0  0  0  0  0  0
    7.1169   70.3441   65.2717 H   0  0  0  0  0  0
  1  2  2  0  0  0
  1  6  1  0  0  0
  1 16  1  0  0  0
  2  3  1  0  0  0
  2 17  1  0  0  0
  3  4  2  0  0  0
  3  7  1  0  0  0
  4  5  1  0  0  0
  4 10  1  0  0  0
  5  6  2  0  0  0
  5 18  1  0  0  0
  6 19  1  0  0  0
  7  8  2  0  0  0
  7 30  1  0  0  0
  8  9  1  0  0  0
  8 11  1  0  0  0
  9 10  2  0  0  0
  9 14  1  0  0  0
 10 15  1  0  0  0
 11 12  1  0  0  0
 11 20  1  0  0  0
 11 21  1  0  0  0
 12 13  1  0  0  0
 12 22  1  0  0  0
 12 23  1  0  0  0
 13 14  1  0  0  0
 13 24  1  0  0  0
 13 25  1  0  0  0
 14 26  1  0  0  0
 14 27  1  0  0  0
 15 28  1  0  0  0
 15 29  1  0  0  0
M  CHG  1   7   1
M  END
> <s_m_source_file>
../1acj_ligand.sdf

> <i_m_source_file_index>
1

> <s_epik_input>
W2NIXTFbY0hdW2NIXVtjSF1jKGMxMiljKFtOSDJdKWMzYyhuMilbQ0gyXVtDSDJdW0NIMl1bQ0gyXTM=

> <s_epik_cmdline>
J2VwaWtfYXBwJywgJy1pbWFlJywgJ2xpZ2FuZF9wcm8ubWFlJywgJy1vbWFlJywgJ2xpZ2FuZF9wcmVwLm1hZScsICctbXMnLCAnMScsICctcGgnLCAnNycsICctcGh0JywgJzAuNScsICctbnQn

> <r_lp_tautomer_probability>
1

> <r_epik_Ionization_Penalty>
  0.0007

> <r_epik_Ionization_Penalty_Charging>
  0.0007

> <r_epik_Ionization_Penalty_Neutral>
  0.0000

> <r_epik_State_Penalty>
 -0.0000

> <r_epik_Charging_Adjusted_Penalty>
0.000692850471966659

> <i_epik_Tot_Q>
1

> <i_epik_Tot_abs_Q>
1

$$$$
