1ad8_ligand
                    3D
 Schrodinger Suite 2020-3.
 72 75  0  0  1  0            999 V2000
   15.1490  -11.2790   22.3630 C   0  0  0  0  0  0
   15.8950  -11.0370   23.5940 N   0  3  0  0  0  0
   17.1720  -10.3510   23.5120 C   0  0  1  0  0  0
   16.8650   -8.9970   22.8660 C   0  0  0  0  0  0
   17.7300   -8.5700   21.9090 N   0  0  0  0  0  0
   15.8720   -8.3520   23.2220 O   0  0  0  0  0  0
   19.0080   -9.1800   21.4450 C   0  0  0  0  0  0
   19.6880   -8.0480   20.6850 C   0  0  0  0  0  0
   18.5890   -7.1580   20.2290 C   0  0  0  0  0  0
   17.4130   -7.2910   21.1840 C   0  0  1  0  0  0
   16.0790   -7.3500   20.4530 C   0  0  0  0  0  0
   15.4790   -6.1370   20.3520 N   0  0  0  0  0  0
   15.6120   -8.4180   20.0790 O   0  0  0  0  0  0
   14.2680   -5.9280   19.5570 C   0  0  1  0  0  0
   13.2860   -5.1530   20.4200 C   0  0  0  0  0  0
   12.6970   -6.0570   21.4030 C   0  0  0  0  0  0
   12.3900   -7.3920   21.1870 C   0  0  0  0  0  0
   12.1050   -5.6480   22.6300 C   0  0  0  0  0  0
   11.3890   -6.7300   23.1110 C   0  0  0  0  0  0
   11.6000   -7.7830   22.2130 N   0  3  0  0  0  0
   10.6560   -6.5940   24.3180 C   0  0  0  0  0  0
   10.6700   -5.3780   25.0520 C   0  0  0  0  0  0
   11.4250   -4.2820   24.5990 C   0  0  0  0  0  0
   12.1290   -4.4380   23.3850 C   0  0  0  0  0  0
   14.5960   -5.1330   18.3040 C   0  0  2  0  0  0
   13.3210   -4.8120   17.7850 O   0  0  0  0  0  0
   15.4280   -6.0350   17.3240 C   0  0  0  0  0  0
   14.8260   -7.2230   17.1640 F   0  0  0  0  0  0
   16.6030   -6.2760   17.8850 F   0  0  0  0  0  0
   15.7770   -5.4260   15.9940 C   0  0  0  0  0  0
   16.3750   -6.3770   15.3350 F   0  0  0  0  0  0
   16.5910   -4.3950   16.1330 F   0  0  0  0  0  0
   14.6780   -5.0860   15.4090 F   0  0  0  0  0  0
   17.6590  -10.1940   24.9630 C   0  0  0  0  0  0
   19.1330   -9.8040   25.1100 C   0  0  0  0  0  0
   20.1800  -10.5490   24.4860 C   0  0  0  0  0  0
   21.5280  -10.1140   24.5930 C   0  0  0  0  0  0
   21.8340   -8.9550   25.3220 C   0  0  0  0  0  0
   20.8140   -8.2520   26.0010 C   0  0  0  0  0  0
   19.4730   -8.6740   25.8890 C   0  0  0  0  0  0
   14.2119  -11.8043   22.5994 H   0  0  0  0  0  0
   15.7541  -11.8966   21.6830 H   0  0  0  0  0  0
   14.9189  -10.3184   21.8789 H   0  0  0  0  0  0
   15.2899  -10.4194   24.2740 H   0  0  0  0  0  0
   16.1251  -11.9975   24.0781 H   0  0  0  0  0  0
   17.9104  -10.9063   22.9150 H   0  0  0  0  0  0
   19.5937   -9.5106   22.3154 H   0  0  0  0  0  0
   18.7891  -10.0442   20.8007 H   0  0  0  0  0  0
   20.3801   -7.5192   21.3568 H   0  0  0  0  0  0
   20.2482   -8.4624   19.8338 H   0  0  0  0  0  0
   18.9414   -6.1160   20.2185 H   0  0  0  0  0  0
   18.2775   -7.4499   19.2152 H   0  0  0  0  0  0
   17.3001   -6.4355   21.8662 H   0  0  0  0  0  0
   15.9336   -5.2944   20.8936 H   0  0  0  0  0  0
   13.8663   -6.9095   19.2649 H   0  0  0  0  0  0
   13.8152   -4.3387   20.9366 H   0  0  0  0  0  0
   12.4937   -4.7303   19.7847 H   0  0  0  0  0  0
   12.7857   -7.9111   20.3016 H   0  0  0  0  0  0
   10.0723   -7.4368   24.6883 H   0  0  0  0  0  0
   10.0918   -5.2941   25.9722 H   0  0  0  0  0  0
   11.4653   -3.3496   25.1621 H   0  0  0  0  0  0
   12.7150   -3.5992   23.0093 H   0  0  0  0  0  0
   15.1273   -4.1848   18.4735 H   0  0  0  0  0  0
   12.6316   -4.1844   18.3688 H   0  0  0  0  0  0
   17.0731   -9.4090   25.4635 H   0  0  0  0  0  0
   17.5292  -11.1461   25.4984 H   0  0  0  0  0  0
   19.9438  -11.4539   23.9261 H   0  0  0  0  0  0
   22.3239  -10.6801   24.1092 H   0  0  0  0  0  0
   22.8622   -8.5958   25.3646 H   0  0  0  0  0  0
   21.0633   -7.3839   26.6112 H   0  0  0  0  0  0
   18.6896   -8.1227   26.4090 H   0  0  0  0  0  0
   11.2198   -8.8144   22.2522 H   0  0  0  0  0  0
  1  2  1  0  0  0
  1 41  1  0  0  0
  1 42  1  0  0  0
  1 43  1  0  0  0
  2  3  1  0  0  0
  2 44  1  0  0  0
  2 45  1  0  0  0
  3  4  1  0  0  0
  3 34  1  0  0  0
  3 46  1  0  0  0
  4  5  1  0  0  0
  4  6  2  0  0  0
  5  7  1  0  0  0
  5 10  1  0  0  0
  7  8  1  0  0  0
  7 47  1  0  0  0
  7 48  1  0  0  0
  8  9  1  0  0  0
  8 49  1  0  0  0
  8 50  1  0  0  0
  9 10  1  0  0  0
  9 51  1  0  0  0
  9 52  1  0  0  0
 10 11  1  0  0  0
 10 53  1  0  0  0
 11 12  1  0  0  0
 11 13  2  0  0  0
 12 14  1  0  0  0
 12 54  1  0  0  0
 14 15  1  0  0  0
 14 25  1  0  0  0
 14 55  1  0  0  0
 15 16  1  0  0  0
 15 56  1  0  0  0
 15 57  1  0  0  0
 16 17  2  0  0  0
 16 18  1  0  0  0
 17 20  1  0  0  0
 17 58  1  0  0  0
 18 19  2  0  0  0
 18 24  1  0  0  0
 19 20  1  0  0  0
 19 21  1  0  0  0
 20 72  1  0  0  0
 21 22  2  0  0  0
 21 59  1  0  0  0
 22 23  1  0  0  0
 22 60  1  0  0  0
 23 24  2  0  0  0
 23 61  1  0  0  0
 24 62  1  0  0  0
 25 26  1  0  0  0
 25 27  1  0  0  0
 25 63  1  0  0  0
 26 64  1  0  0  0
 27 28  1  0  0  0
 27 29  1  0  0  0
 27 30  1  0  0  0
 30 31  1  0  0  0
 30 32  1  0  0  0
 30 33  1  0  0  0
 34 35  1  0  0  0
 34 65  1  0  0  0
 34 66  1  0  0  0
 35 36  2  0  0  0
 35 40  1  0  0  0
 36 37  1  0  0  0
 36 67  1  0  0  0
 37 38  2  0  0  0
 37 68  1  0  0  0
 38 39  1  0  0  0
 38 69  1  0  0  0
 39 40  2  0  0  0
 39 70  1  0  0  0
 40 71  1  0  0  0
M  CHG  2   2   1  20   1
M  END
> <s_m_source_file>
../1ad8_ligand.sdf

> <i_m_source_file_index>
1

> <s_epik_input>
W2NIXTFbY0hdW2NIXVtjSF1bY0hdYzFbQ0gyXVtDQEBIXShbTkgyK11bQ0gzXSlDKD1PKU4yW0NIMl1bQ0gyXVtDSDJdW0NASF0yQyg9TylbTkhdW0NASF0oW0NASF0oW09IXSlDKEYpKEYpQyhGKShGKUYpW0NIMl1jM1tjSF1bbkhdYyhjMzQpW2NIXVtjSF1bY0hdW2NIXTQ=

> <s_epik_cmdline>
J2VwaWtfYXBwJywgJy1pbWFlJywgJ2xpZ2FuZF9wcm8ubWFlJywgJy1vbWFlJywgJ2xpZ2FuZF9wcmVwLm1hZScsICctbXMnLCAnMScsICctcGgnLCAnNycsICctcGh0JywgJzAuNScsICctbnQn

> <r_epik_Ionization_Penalty>
  0.1269

> <r_epik_Ionization_Penalty_Charging>
  0.1252

> <r_epik_Ionization_Penalty_Neutral>
  0.0017

> <r_epik_State_Penalty>
  0.1146

> <r_epik_Charging_Adjusted_Penalty>
0.239821461427732

> <i_epik_Tot_Q>
2

> <i_epik_Tot_abs_Q>
2

$$$$
