1ado_ligand
                    3D
 Schrodinger Suite 2020-3.
 15 14  0  0  1  0            999 V2000
   23.0580   27.2320   23.7810 P   0  0  0  0  0  0
   23.2740   25.7610   24.4310 O   0  5  0  0  0  0
   21.6730   26.9720   23.0650 O   0  5  0  0  0  0
   24.0790   27.5410   22.6520 O   0  0  0  0  0  0
   22.8890   28.5100   24.7710 O   0  0  0  0  0  0
   23.4170   29.8220   24.4360 C   0  0  0  0  0  0
   24.5750   30.2800   25.3010 C   0  0  0  0  0  0
   24.6250   29.9610   26.4860 O   0  0  0  0  0  0
   25.6620   31.1460   24.6940 C   0  0  0  0  0  0
   25.8750   30.7770   23.3430 O   0  0  0  0  0  0
   23.7791   29.8172   23.3973 H   0  0  0  0  0  0
   22.6228   30.5754   24.5439 H   0  0  0  0  0  0
   25.3567   32.2019   24.7377 H   0  0  0  0  0  0
   26.5964   31.0109   25.2584 H   0  0  0  0  0  0
   26.6320   31.3023   22.7422 H   0  0  0  0  0  0
  1  2  1  0  0  0
  1  3  1  0  0  0
  1  4  2  0  0  0
  1  5  1  0  0  0
  5  6  1  0  0  0
  6  7  1  0  0  0
  6 11  1  0  0  0
  6 12  1  0  0  0
  7  8  2  0  0  0
  7  9  1  0  0  0
  9 10  1  0  0  0
  9 13  1  0  0  0
  9 14  1  0  0  0
 10 15  1  0  0  0
M  CHG  2   2  -1   3  -1
M  END
> <s_m_source_file>
../1ado_ligand.sdf

> <i_m_source_file_index>
1

> <s_epik_input>
W09IXVAoPU8pKFtPSF0pT1tDSDJdQyg9TylbQ0gyXVtPSF0=

> <s_epik_cmdline>
J2VwaWtfYXBwJywgJy1pbWFlJywgJ2xpZ2FuZF9wcm8ubWFlJywgJy1vbWFlJywgJ2xpZ2FuZF9wcmVwLm1hZScsICctbXMnLCAnMScsICctcGgnLCAnNycsICctcGh0JywgJzAuNScsICctbnQn

> <r_lp_tautomer_probability>
0.99990000499975

> <r_epik_Ionization_Penalty>
  0.0715

> <r_epik_Ionization_Penalty_Charging>
  0.0715

> <r_epik_Ionization_Penalty_Neutral>
  0.0000

> <r_epik_State_Penalty>
  0.0628

> <r_epik_Charging_Adjusted_Penalty>
0.134247211915583

> <i_epik_Tot_Q>
-2

> <i_epik_Tot_abs_Q>
2

$$$$
