1af6_ligand
                    3D
 Schrodinger Suite 2020-3.
 45 46  0  0  1  0            999 V2000
   12.4190   39.2880   85.7670 C   0  0  2  0  0  0
   13.0120   37.8620   85.6750 C   0  0  1  0  0  0
   14.4260   37.9190   85.0500 C   0  0  2  0  0  0
   14.3370   38.5690   83.6650 C   0  0  1  0  0  0
   13.5240   39.8610   83.6470 C   0  0  1  0  0  0
   13.0830   40.1780   82.2090 C   0  0  0  0  0  0
   13.0850   37.3160   86.9890 O   0  0  0  0  0  0
   14.9570   36.5940   84.9620 O   0  0  0  0  0  0
   15.6480   38.8500   83.1520 O   0  0  0  0  0  0
   12.3140   39.8530   84.4570 O   0  0  0  0  0  0
   12.3130   41.3720   82.2470 O   0  0  0  0  0  0
   11.4430   40.9520   87.8580 C   0  0  0  0  0  0
   12.8040   41.2550   87.1810 C   0  0  1  0  0  0
   13.9170   41.7790   88.1490 C   0  0  2  0  0  0
   14.8430   42.4840   87.1270 C   0  0  1  0  0  0
   13.7690   43.2140   86.2970 C   0  0  1  0  0  0
   14.2040   43.6460   84.9250 C   0  0  0  0  0  0
   10.9650   42.0370   88.6640 O   0  0  0  0  0  0
   13.2970   40.0420   86.5380 O   0  0  0  0  0  0
   14.5930   40.6720   88.7730 O   0  0  0  0  0  0
   15.7700   43.3640   87.7470 O   0  0  0  0  0  0
   12.6650   42.2850   86.1410 O   0  0  0  0  0  0
   13.2820   44.6090   84.4310 O   0  0  0  0  0  0
   11.4229   39.3660   86.2271 H   0  0  0  0  0  0
   12.3617   37.1805   85.1069 H   0  0  0  0  0  0
   15.1469   38.4619   85.6789 H   0  0  0  0  0  0
   13.8717   37.8374   82.9881 H   0  0  0  0  0  0
   14.1693   40.6179   84.1167 H   0  0  0  0  0  0
   13.9713   40.3155   81.5750 H   0  0  0  0  0  0
   12.4792   39.3455   81.8187 H   0  0  0  0  0  0
   12.1697   37.1998   87.5880 H   0  0  0  0  0  0
   15.0845   35.9909   85.8731 H   0  0  0  0  0  0
   16.3949   38.0455   83.0809 H   0  0  0  0  0  0
   11.8927   41.7852   81.3182 H   0  0  0  0  0  0
   10.6861   40.7506   87.0856 H   0  0  0  0  0  0
   11.5454   40.0715   88.5094 H   0  0  0  0  0  0
   13.6045   42.3708   89.0220 H   0  0  0  0  0  0
   15.5708   41.8701   86.5762 H   0  0  0  0  0  0
   13.4656   44.1330   86.8198 H   0  0  0  0  0  0
   15.2093   44.0888   84.9816 H   0  0  0  0  0  0
   14.2248   42.7736   84.2553 H   0  0  0  0  0  0
   10.0077   41.9453   89.1981 H   0  0  0  0  0  0
   14.0719   40.0636   89.5269 H   0  0  0  0  0  0
   16.5836   42.9585   88.3663 H   0  0  0  0  0  0
   13.4286   45.0499   83.4339 H   0  0  0  0  0  0
  1  2  1  0  0  0
  1 10  1  0  0  0
  1 19  1  0  0  0
  1 24  1  0  0  0
  2  3  1  0  0  0
  2  7  1  0  0  0
  2 25  1  0  0  0
  3  4  1  0  0  0
  3  8  1  0  0  0
  3 26  1  0  0  0
  4  5  1  0  0  0
  4  9  1  0  0  0
  4 27  1  0  0  0
  5  6  1  0  0  0
  5 10  1  0  0  0
  5 28  1  0  0  0
  6 11  1  0  0  0
  6 29  1  0  0  0
  6 30  1  0  0  0
  7 31  1  0  0  0
  8 32  1  0  0  0
  9 33  1  0  0  0
 11 34  1  0  0  0
 12 13  1  0  0  0
 12 18  1  0  0  0
 12 35  1  0  0  0
 12 36  1  0  0  0
 13 14  1  0  0  0
 13 19  1  0  0  0
 13 22  1  0  0  0
 14 15  1  0  0  0
 14 20  1  0  0  0
 14 37  1  0  0  0
 15 16  1  0  0  0
 15 21  1  0  0  0
 15 38  1  0  0  0
 16 17  1  0  0  0
 16 22  1  0  0  0
 16 39  1  0  0  0
 17 23  1  0  0  0
 17 40  1  0  0  0
 17 41  1  0  0  0
 18 42  1  0  0  0
 20 43  1  0  0  0
 21 44  1  0  0  0
 23 45  1  0  0  0
M  END
> <s_m_source_file>
../1af6_ligand.sdf

> <i_m_source_file_index>
1

> <s_epik_input>
W09IXVtDSDJdW0NAQEhdKE8xKVtDQEBIXShbT0hdKVtDQEhdKFtPSF0pW0NAQEhdKFtPSF0pW0NASF0xT1tDQEBdMihbQ0gyXVtPSF0pW0NAQEhdKFtPSF0pW0NASF0oW09IXSlbQ0BIXShPMilbQ0gyXVtPSF0=

> <s_epik_cmdline>
J2VwaWtfYXBwJywgJy1pbWFlJywgJ2xpZ2FuZF9wcm8ubWFlJywgJy1vbWFlJywgJ2xpZ2FuZF9wcmVwLm1hZScsICctbXMnLCAnMScsICctcGgnLCAnNycsICctcGh0JywgJzAuNScsICctbnQn

> <r_lp_tautomer_probability>
1

> <r_epik_Ionization_Penalty>
  0.0000

> <r_epik_Ionization_Penalty_Charging>
  0.0000

> <r_epik_Ionization_Penalty_Neutral>
  0.0000

> <r_epik_State_Penalty>
 -0.0000

> <r_epik_Charging_Adjusted_Penalty>
0

> <i_epik_Tot_Q>
0

> <i_epik_Tot_abs_Q>
0

> <s_epik_Chemistry_Notes>
This compound contains an acetal/aminal-like group ( X-CH(R)-Y where X, Y are N, S, or O) that may be acid/base labile, releasing an aldehyde.

$$$$
