1afk_ligand
                    3D
 Schrodinger Suite 2020-3.
 42 44  0  0  1  0            999 V2000
   37.0960   -2.6270   23.1460 P   0  0  0  0  0  0
   35.6450   -2.8540   22.9910 O   0  0  0  0  0  0
   37.4700   -1.7080   24.2740 O   0  5  0  0  0  0
   37.7900   -2.3100   21.8760 O   0  5  0  0  0  0
   38.8980   -5.1970   23.0660 P   0  0  2  0  0  0
   39.1010   -6.1020   24.2360 O   0  5  0  0  0  0
   40.0900   -4.5480   22.4560 O   0  0  0  0  0  0
   37.7130   -4.0790   23.6160 O   0  0  0  0  0  0
   38.1350   -6.0710   21.9240 O   0  0  0  0  0  0
   37.6540   -5.4600   20.7430 C   0  0  0  0  0  0
   37.4550   -6.5780   19.7620 C   0  0  1  0  0  0
   36.8070   -5.9900   18.6290 O   0  0  0  0  0  0
   38.7890   -7.1850   19.2480 C   0  0  1  0  0  0
   38.6030   -8.6050   18.9820 O   0  0  0  0  0  0
   39.2670   -9.7840   20.0240 P   0  0  0  0  0  0
   38.0320  -10.3450   20.6260 O   0  0  0  0  0  0
   39.9760  -10.6860   19.0810 O   0  5  0  0  0  0
   40.1960   -9.0560   20.9410 O   0  5  0  0  0  0
   38.9870   -6.4000   17.9570 C   0  0  1  0  0  0
   39.8810   -7.0970   17.0610 O   0  0  0  0  0  0
   37.5180   -6.4600   17.4940 C   0  0  2  0  0  0
   37.1230   -5.5360   16.4070 N   0  0  0  0  0  0
   36.2620   -5.9000   15.4020 C   0  0  0  0  0  0
   36.0380   -4.9630   14.5290 N   0  0  0  0  0  0
   36.8190   -3.8500   14.9770 C   0  0  0  0  0  0
   36.9920   -2.4990   14.4510 C   0  0  0  0  0  0
   36.4470   -2.1010   13.2850 N   0  0  0  0  0  0
   37.7970   -1.6570   15.1510 N   0  0  0  0  0  0
   38.3900   -2.1300   16.2570 C   0  0  0  0  0  0
   38.3300   -3.3480   16.8480 N   0  0  0  0  0  0
   37.4970   -4.1920   16.1420 C   0  0  0  0  0  0
   36.7077   -4.9419   20.9575 H   0  0  0  0  0  0
   38.3951   -4.7337   20.3779 H   0  0  0  0  0  0
   36.8311   -7.3528   20.2315 H   0  0  0  0  0  0
   39.6525   -7.1667   19.9292 H   0  0  0  0  0  0
   39.4796   -5.4174   18.0003 H   0  0  0  0  0  0
   40.9592   -7.1307   17.2761 H   0  0  0  0  0  0
   37.2658   -7.4701   17.1390 H   0  0  0  0  0  0
   35.8060   -6.8881   15.3411 H   0  0  0  0  0  0
   35.7958   -2.7846   12.7205 H   0  0  0  0  0  0
   36.6532   -1.0924   12.8974 H   0  0  0  0  0  0
   39.0302   -1.4112   16.7684 H   0  0  0  0  0  0
  1  8  1  0  0  0
  1  4  1  0  0  0
  1  3  1  0  0  0
  1  2  2  0  0  0
  5  8  1  0  0  0
  5  9  1  0  0  0
  5  7  2  0  0  0
  5  6  1  0  0  0
  9 10  1  0  0  0
 10 11  1  0  0  0
 10 32  1  0  0  0
 10 33  1  0  0  0
 11 13  1  0  0  0
 11 12  1  0  0  0
 11 34  1  0  0  0
 12 21  1  0  0  0
 13 19  1  0  0  0
 13 14  1  0  0  0
 13 35  1  0  0  0
 14 15  1  0  0  0
 15 18  1  0  0  0
 15 17  1  0  0  0
 15 16  2  0  0  0
 19 21  1  0  0  0
 19 20  1  0  0  0
 19 36  1  0  0  0
 20 37  1  0  0  0
 21 22  1  0  0  0
 21 38  1  0  0  0
 22 31  1  0  0  0
 22 23  1  0  0  0
 23 24  2  0  0  0
 23 39  1  0  0  0
 24 25  1  0  0  0
 25 31  2  0  0  0
 25 26  1  0  0  0
 26 28  2  0  0  0
 26 27  1  0  0  0
 27 40  1  0  0  0
 27 41  1  0  0  0
 28 29  1  0  0  0
 29 30  2  0  0  0
 29 42  1  0  0  0
 30 31  1  0  0  0
M  CHG  5   3  -1   4  -1   6  -1  17  -1  18  -1
M  END
> <s_m_source_file>
../1afk_ligand.sdf

> <i_m_source_file_index>
1

> <s_epik_input>
Tz1QKFtPSF0pKFtPSF0pT1tQQEBdKD1PKShbT0hdKU9bQ0gyXVtDQEhdMU9bQ0BIXShbQ0BIXShbT0hdKVtDQEBIXTFPUCg9TykoW09IXSlbT0hdKW4oW2NIXW4yKWMoYzIzKW5bY0hdbmMzW05IMl0=

> <s_epik_cmdline>
J2VwaWtfYXBwJywgJy1pbWFlJywgJ2xpZ2FuZF9wcm8ubWFlJywgJy1vbWFlJywgJ2xpZ2FuZF9wcmVwLm1hZScsICctbXMnLCAnMScsICctcGgnLCAnNycsICctcGh0JywgJzAuNScsICctbnQn

> <r_lp_tautomer_probability>
0.999997216410988

> <r_epik_Ionization_Penalty>
  0.1787

> <r_epik_Ionization_Penalty_Charging>
  0.1783

> <r_epik_Ionization_Penalty_Neutral>
  0.0005

> <r_epik_State_Penalty>
  0.1491

> <r_epik_Charging_Adjusted_Penalty>
0.327375950780829

> <i_epik_Tot_Q>
-5

> <i_epik_Tot_abs_Q>
5

> <s_epik_Chemistry_Notes>
This compound contains an acetal/aminal-like group ( X-CH(R)-Y where X, Y are N, S, or O) that may be acid/base labile, releasing an aldehyde.

$$$$
