1ag9_ligand
                    3D
 Schrodinger Suite 2020-3.
 52 54  0  0  1  0            999 V2000
   -0.0430   61.5430   24.7750 N   0  0  0  0  0  0
   -0.1900   62.2760   25.9270 C   0  0  0  0  0  0
    0.7360   62.4200   26.6830 O   0  0  0  0  0  0
   -1.4260   62.8660   26.2360 N   0  0  0  0  0  0
   -2.5260   62.7340   25.4120 C   0  0  0  0  0  0
   -3.5770   63.2580   25.6800 O   0  0  0  0  0  0
   -2.3780   61.9190   24.1540 C   0  0  0  0  0  0
   -3.4100   61.7410   23.3360 N   0  0  0  0  0  0
   -3.2040   61.0560   22.1390 C   0  0  0  0  0  0
   -4.2620   60.9870   21.1630 C   0  0  0  0  0  0
   -4.0280   60.4080   19.9180 C   0  0  0  0  0  0
   -5.0580   60.4770   18.8490 C   0  0  0  0  0  0
   -2.7780   59.7630   19.6320 C   0  0  0  0  0  0
   -2.5700   59.0880   18.3040 C   0  0  0  0  0  0
   -1.7550   59.7920   20.5790 C   0  0  0  0  0  0
   -1.9440   60.4450   21.8320 C   0  0  0  0  0  0
   -0.9340   60.5620   22.7950 N   0  0  0  0  0  0
   -1.0570   61.3520   23.9270 C   0  0  0  0  0  0
    0.2820   59.8130   22.5530 C   0  0  0  0  0  0
    0.2420   58.3750   23.0800 C   0  0  2  0  0  0
    0.0230   58.3150   24.4910 O   0  0  0  0  0  0
    1.5730   57.6900   22.7570 C   0  0  2  0  0  0
    1.7030   57.5240   21.3380 O   0  0  0  0  0  0
    1.9130   56.3790   23.4820 C   0  0  2  0  0  0
    3.2480   55.9870   23.1630 O   0  0  0  0  0  0
    0.8900   55.2850   23.1870 C   0  0  0  0  0  0
    1.1590   54.1790   24.0620 O   0  0  0  0  0  0
    0.5590   52.8830   23.7940 P   0  0  0  0  0  0
    1.2460   52.3190   22.6330 O   0  5  0  0  0  0
   -0.9140   52.9300   23.7380 O   0  5  0  0  0  0
    0.9770   52.0670   24.9160 O   0  0  0  0  0  0
    0.9307   61.0940   24.5293 H   0  0  0  0  0  0
   -1.5392   63.4546   27.1584 H   0  0  0  0  0  0
   -4.4017   62.1309   23.6089 H   0  0  0  0  0  0
   -5.2473   61.3887   21.3995 H   0  0  0  0  0  0
   -5.9479   60.9992   19.2304 H   0  0  0  0  0  0
   -5.3349   59.4581   18.5403 H   0  0  0  0  0  0
   -4.6536   61.0247   17.9850 H   0  0  0  0  0  0
   -3.4869   59.1726   17.7021 H   0  0  0  0  0  0
   -2.3341   58.0258   18.4656 H   0  0  0  0  0  0
   -1.7370   59.5720   17.7732 H   0  0  0  0  0  0
   -0.8019   59.3109   20.3592 H   0  0  0  0  0  0
    0.4691   59.7574   21.4704 H   0  0  0  0  0  0
    1.1269   60.3164   23.0457 H   0  0  0  0  0  0
   -0.6279   57.8517   22.6564 H   0  0  0  0  0  0
   -0.8863   58.7557   24.9257 H   0  0  0  0  0  0
    2.3447   58.3999   23.0895 H   0  0  0  0  0  0
    1.4959   58.3685   20.6642 H   0  0  0  0  0  0
    1.9358   56.5215   24.5725 H   0  0  0  0  0  0
    4.0810   56.6860   23.3290 H   0  0  0  0  0  0
   -0.1236   55.6731   23.3656 H   0  0  0  0  0  0
    0.9823   54.9701   22.1371 H   0  0  0  0  0  0
  1  2  1  0  0  0
  1 18  1  0  0  0
  1 32  1  0  0  0
  2  3  2  0  0  0
  2  4  1  0  0  0
  4  5  1  0  0  0
  4 33  1  0  0  0
  5  6  2  0  0  0
  5  7  1  0  0  0
  7  8  1  0  0  0
  7 18  2  0  0  0
  8  9  1  0  0  0
  8 34  1  0  0  0
  9 10  2  0  0  0
  9 16  1  0  0  0
 10 11  1  0  0  0
 10 35  1  0  0  0
 11 12  1  0  0  0
 11 13  2  0  0  0
 12 36  1  0  0  0
 12 37  1  0  0  0
 12 38  1  0  0  0
 13 14  1  0  0  0
 13 15  1  0  0  0
 14 39  1  0  0  0
 14 40  1  0  0  0
 14 41  1  0  0  0
 15 16  2  0  0  0
 15 42  1  0  0  0
 16 17  1  0  0  0
 17 18  1  0  0  0
 17 19  1  0  0  0
 19 20  1  0  0  0
 19 43  1  0  0  0
 19 44  1  0  0  0
 20 21  1  0  0  0
 20 22  1  0  0  0
 20 45  1  0  0  0
 21 46  1  0  0  0
 22 23  1  0  0  0
 22 24  1  0  0  0
 22 47  1  0  0  0
 23 48  1  0  0  0
 24 25  1  0  0  0
 24 26  1  0  0  0
 24 49  1  0  0  0
 25 50  1  0  0  0
 26 27  1  0  0  0
 26 51  1  0  0  0
 26 52  1  0  0  0
 27 28  1  0  0  0
 28 29  1  0  0  0
 28 30  1  0  0  0
 28 31  2  0  0  0
M  CHG  2  29  -1  30  -1
M  END
> <s_m_source_file>
../1ag9_ligand.sdf

> <i_m_source_file_index>
1

> <s_epik_input>
Tz1jMVtuSF1jKD1PKVtuSF1jKGMxMilOKGMzYyhbTkhdMilbY0hdYyhbQ0gzXSljKFtDSDNdKVtjSF0zKVtDSDJdW0NASF0oW09IXSlbQ0BIXShbT0hdKVtDQEhdKFtPSF0pW0NIMl1PUCg9TykoW09IXSlbT0hd

> <s_epik_cmdline>
J2VwaWtfYXBwJywgJy1pbWFlJywgJ2xpZ2FuZF9wcm8ubWFlJywgJy1vbWFlJywgJ2xpZ2FuZF9wcmVwLm1hZScsICctbXMnLCAnMScsICctcGgnLCAnNycsICctcGh0JywgJzAuNScsICctbnQn

> <r_lp_tautomer_probability>
0.999801347257086

> <r_epik_Ionization_Penalty>
  0.1170

> <r_epik_Ionization_Penalty_Charging>
  0.1169

> <r_epik_Ionization_Penalty_Neutral>
  0.0001

> <r_epik_State_Penalty>
  0.1063

> <r_epik_Charging_Adjusted_Penalty>
0.223202144986923

> <i_epik_Tot_Q>
-2

> <i_epik_Tot_abs_Q>
2

$$$$
