1agm_ligand
                    3D
 Schrodinger Suite 2020-3.
 88 91  0  0  1  0            999 V2000
   32.9990   20.4720    8.0250 C   0  0  2  0  0  0
   34.2520   20.3350    8.9340 C   0  0  1  0  0  0
   33.8790   19.5410   10.2010 C   0  0  2  0  0  0
   32.8160   20.2990   11.0310 C   0  0  1  0  0  0
   31.6570   20.7750   10.1590 C   0  0  0  0  0  0
   30.5110   21.4730   10.8740 C   0  0  0  0  0  0
   31.8320   20.9610    8.8150 C   0  0  0  0  0  0
   35.3210   19.6840    8.1870 O   0  0  0  0  0  0
   35.0670   19.2930   10.9520 O   0  0  0  0  0  0
   32.3380   19.3820   12.0290 O   0  0  0  0  0  0
   31.0510   22.6760   11.4800 O   0  0  0  0  0  0
   31.6500   18.1080    3.4280 C   0  0  2  0  0  0
   33.1570   18.4000    3.6780 C   0  0  1  0  0  0
   33.4910   18.2840    5.1820 C   0  0  2  0  0  0
   32.5430   19.1850    5.9830 C   0  0  1  0  0  0
   31.0810   18.7360    5.6940 C   0  0  1  0  0  0
   30.0400   19.6350    6.3750 C   0  0  0  0  0  0
   32.7980   19.1470    7.4130 N   0  3  0  0  0  0
   34.0410   17.5150    2.9490 O   0  0  0  0  0  0
   34.8410   18.6220    5.4600 O   0  0  0  0  0  0
   30.8430   18.8660    4.3030 O   0  0  0  0  0  0
   28.3960   13.9480    2.5860 C   0  0  2  0  0  0
   28.1460   15.4160    2.1230 C   0  0  1  0  0  0
   29.4980   16.2110    2.0600 C   0  0  2  0  0  0
   30.1650   16.1320    3.4480 C   0  0  1  0  0  0
   30.3120   14.6630    3.8850 C   0  0  1  0  0  0
   30.7570   14.5730    5.3680 C   0  0  0  0  0  0
   27.4260   15.5580    0.8960 O   0  0  0  0  0  0
   29.2050   17.5840    1.7190 O   0  0  0  0  0  0
   31.4100   16.7430    3.5310 O   0  0  0  0  0  0
   29.0420   14.0310    3.8510 O   0  0  0  0  0  0
   31.0110   13.2140    5.6280 O   0  0  0  0  0  0
   29.2450    9.5910   -0.3540 C   0  0  2  0  0  0
   27.8620   10.2870   -0.2620 C   0  0  1  0  0  0
   28.0240   11.7470    0.1990 C   0  0  2  0  0  0
   28.8320   11.8280    1.5050 C   0  0  1  0  0  0
   30.1500   11.0580    1.3600 C   0  0  1  0  0  0
   30.9020   10.9260    2.7140 C   0  0  0  0  0  0
   29.0150    8.2220   -0.5340 O   0  0  0  0  0  0
   27.1240   10.3120   -1.5130 O   0  0  0  0  0  0
   26.7720   12.4720    0.3010 O   0  0  0  0  0  0
   29.1530   13.2260    1.6560 O   0  0  0  0  0  0
   29.9890    9.7440    0.8480 O   0  0  0  0  0  0
   32.3110   11.0880    2.4300 O   0  0  0  0  0  0
   33.0854   21.2034    7.2079 H   0  0  0  0  0  0
   34.6677   21.3112    9.2243 H   0  0  0  0  0  0
   33.4961   18.5384    9.9596 H   0  0  0  0  0  0
   33.2358   21.1758   11.5458 H   0  0  0  0  0  0
   29.7250   21.7257   10.1471 H   0  0  0  0  0  0
   30.0976   20.8046   11.6436 H   0  0  0  0  0  0
   31.0766   21.5090    8.2326 H   0  0  0  0  0  0
   35.6953   20.1352    7.2562 H   0  0  0  0  0  0
   35.9103   18.7609   10.4875 H   0  0  0  0  0  0
   33.0408   18.9369   12.7486 H   0  0  0  0  0  0
   30.3938   23.3447   12.0553 H   0  0  0  0  0  0
   31.2748   18.3649    2.4264 H   0  0  0  0  0  0
   33.3801   19.3980    3.2728 H   0  0  0  0  0  0
   33.4384   17.2356    5.5108 H   0  0  0  0  0  0
   32.7392   20.2363    5.7255 H   0  0  0  0  0  0
   30.9509   17.6855    5.9932 H   0  0  0  0  0  0
   30.1677   19.5821    7.4663 H   0  0  0  0  0  0
   29.0293   19.2935    6.1071 H   0  0  0  0  0  0
   30.1770   20.6736    6.0397 H   0  0  0  0  0  0
   33.6979   18.5328    7.5645 H   0  0  0  0  0  0
   31.9341   18.6536    7.8822 H   0  0  0  0  0  0
   33.9688   17.4455    1.8536 H   0  0  0  0  0  0
   35.6578   18.0729    4.9687 H   0  0  0  0  0  0
   27.5065   13.3084    2.6847 H   0  0  0  0  0  0
   27.4113   15.8583    2.8119 H   0  0  0  0  0  0
   30.1871   15.8594    1.2779 H   0  0  0  0  0  0
   29.5843   16.7560    4.1433 H   0  0  0  0  0  0
   30.9846   14.1461    3.1847 H   0  0  0  0  0  0
   31.6641   15.1774    5.5159 H   0  0  0  0  0  0
   29.9534   14.9533    6.0157 H   0  0  0  0  0  0
   26.4521   15.0625    0.7693 H   0  0  0  0  0  0
   28.7257   17.8217    0.7579 H   0  0  0  0  0  0
   31.3444   12.8982    6.6276 H   0  0  0  0  0  0
   29.8799    9.9709   -1.1679 H   0  0  0  0  0  0
   27.2423    9.6811    0.4153 H   0  0  0  0  0  0
   28.5365   12.3001   -0.6019 H   0  0  0  0  0  0
   28.2736   11.4604    2.3785 H   0  0  0  0  0  0
   30.7213   11.5892    0.5844 H   0  0  0  0  0  0
   30.5517   11.7065    3.4055 H   0  0  0  0  0  0
   30.7036    9.9351    3.1486 H   0  0  0  0  0  0
   28.4513    7.8696   -1.4104 H   0  0  0  0  0  0
   26.8891    9.3710   -2.0319 H   0  0  0  0  0  0
   26.0840   12.5048   -0.5567 H   0  0  0  0  0  0
   33.0465   11.0326    3.2461 H   0  0  0  0  0  0
  1 18  1  0  0  0
  1  7  1  0  0  0
  1  2  1  0  0  0
  1 45  1  0  0  0
  2  8  1  0  0  0
  2  3  1  0  0  0
  2 46  1  0  0  0
  3  9  1  0  0  0
  3  4  1  0  0  0
  3 47  1  0  0  0
  4 10  1  0  0  0
  4  5  1  0  0  0
  4 48  1  0  0  0
  5  7  2  0  0  0
  5  6  1  0  0  0
  6 11  1  0  0  0
  6 49  1  0  0  0
  6 50  1  0  0  0
  7 51  1  0  0  0
  8 52  1  0  0  0
  9 53  1  0  0  0
 10 54  1  0  0  0
 11 55  1  0  0  0
 12 13  1  0  0  0
 12 30  1  0  0  0
 12 21  1  0  0  0
 12 56  1  0  0  0
 13 14  1  0  0  0
 13 19  1  0  0  0
 13 57  1  0  0  0
 14 15  1  0  0  0
 14 20  1  0  0  0
 14 58  1  0  0  0
 15 18  1  0  0  0
 15 16  1  0  0  0
 15 59  1  0  0  0
 16 21  1  0  0  0
 16 17  1  0  0  0
 16 60  1  0  0  0
 17 61  1  0  0  0
 17 62  1  0  0  0
 17 63  1  0  0  0
 18 64  1  0  0  0
 18 65  1  0  0  0
 19 66  1  0  0  0
 20 67  1  0  0  0
 22 23  1  0  0  0
 22 42  1  0  0  0
 22 31  1  0  0  0
 22 68  1  0  0  0
 23 24  1  0  0  0
 23 28  1  0  0  0
 23 69  1  0  0  0
 24 25  1  0  0  0
 24 29  1  0  0  0
 24 70  1  0  0  0
 25 30  1  0  0  0
 25 26  1  0  0  0
 25 71  1  0  0  0
 26 31  1  0  0  0
 26 27  1  0  0  0
 26 72  1  0  0  0
 27 32  1  0  0  0
 27 73  1  0  0  0
 27 74  1  0  0  0
 28 75  1  0  0  0
 29 76  1  0  0  0
 32 77  1  0  0  0
 33 34  1  0  0  0
 33 43  1  0  0  0
 33 39  1  0  0  0
 33 78  1  0  0  0
 34 35  1  0  0  0
 34 40  1  0  0  0
 34 79  1  0  0  0
 35 36  1  0  0  0
 35 41  1  0  0  0
 35 80  1  0  0  0
 36 42  1  0  0  0
 36 37  1  0  0  0
 36 81  1  0  0  0
 37 43  1  0  0  0
 37 38  1  0  0  0
 37 82  1  0  0  0
 38 44  1  0  0  0
 38 83  1  0  0  0
 38 84  1  0  0  0
 39 85  1  0  0  0
 40 86  1  0  0  0
 41 87  1  0  0  0
 44 88  1  0  0  0
M  CHG  1  18   1
M  END
> <s_m_source_file>
../1agm_ligand.sdf

> <i_m_source_file_index>
1

> <s_epik_input>
W09IXVtDSDJdQyg9W0NIXTEpW0NAQEhdKFtPSF0pW0NASF0oW09IXSlbQ0BASF0oW09IXSlbQ0BIXTFbTkgyK11bQ0BIXShbQ0BIXShPMilbQ0gzXSlbQ0BIXShbT0hdKVtDQEBIXShbT0hdKVtDQEhdMk9bQ0BIXShbQ0BIXShPMylbQ0gyXVtPSF0pW0NASF0oW09IXSlbQ0BASF0oW09IXSlbQ0BIXTNPW0NASF0oW0NASF0oTzQpW0NIMl1bT0hdKVtDQEhdKFtPSF0pW0NAQEhdKFtPSF0pW0NAQEhdNFtPSF0=

> <s_epik_cmdline>
J2VwaWtfYXBwJywgJy1pbWFlJywgJ2xpZ2FuZF9wcm8ubWFlJywgJy1vbWFlJywgJ2xpZ2FuZF9wcmVwLm1hZScsICctbXMnLCAnMScsICctcGgnLCAnNycsICctcGh0JywgJzAuNScsICctbnQn

> <r_epik_Ionization_Penalty>
  0.1167

> <r_epik_Ionization_Penalty_Charging>
  0.1167

> <r_epik_Ionization_Penalty_Neutral>
  0.0001

> <r_epik_State_Penalty>
  0.1063

> <r_epik_Charging_Adjusted_Penalty>
0.222957502643002

> <i_epik_Tot_Q>
1

> <i_epik_Tot_abs_Q>
1

> <s_epik_Chemistry_Notes>
This compound contains an acetal/aminal-like group ( X-CH(R)-Y where X, Y are N, S, or O) that may be acid/base labile, releasing an aldehyde.

$$$$
