1agw_ligand
                    3D
 Schrodinger Suite 2020-3.
 44 47  0  0  1  0            999 V2000
    5.7630    2.5310   20.3220 N   0  0  0  0  0  0
    6.4340    2.9940   21.4270 C   0  0  0  0  0  0
    6.3730    2.3820   22.4940 O   0  0  0  0  0  0
    7.0950    4.1650   21.1310 C   0  0  0  0  0  0
    7.1970    5.4450   18.8500 C   0  0  0  0  0  0
    6.7240    5.4000   17.5470 C   0  0  0  0  0  0
    5.8900    4.3560   17.1140 C   0  0  0  0  0  0
    5.5170    3.3380   17.9550 C   0  0  0  0  0  0
    5.9880    3.3830   19.2720 C   0  0  0  0  0  0
    6.8240    4.4240   19.7400 C   0  0  0  0  0  0
    7.9420    5.0530   22.0360 C   0  0  0  0  0  0
    8.7500    4.6160   23.2540 C   0  0  0  0  0  0
    9.7100    5.4700   23.7810 C   0  0  0  0  0  0
   10.4610    5.1000   24.8980 C   0  0  0  0  0  0
   10.2640    3.8680   25.5130 C   0  0  0  0  0  0
    9.2980    3.0170   24.9820 C   0  0  0  0  0  0
    8.5480    3.3860   23.8630 C   0  0  0  0  0  0
   12.4930    2.7110   29.1520 N   0  0  0  0  0  0
   13.2630    2.2770   30.2810 C   0  0  0  0  0  0
   14.2360    2.8450   30.7850 O   0  0  0  0  0  0
   11.7640    1.7130   28.3060 C   0  0  0  0  0  0
   10.6690    2.2640   27.4210 C   0  0  0  0  0  0
   11.0300    3.4890   26.6500 N   0  0  0  0  0  0
   11.7510    4.5220   27.4680 C   0  0  0  0  0  0
   12.8190    3.9910   28.4260 C   0  0  0  0  0  0
    5.1262    1.6447   20.1844 H   0  0  0  0  0  0
    7.8459    6.2573   19.1774 H   0  0  0  0  0  0
    7.0040    6.1877   16.8475 H   0  0  0  0  0  0
    5.5304    4.3545   16.0850 H   0  0  0  0  0  0
    4.8780    2.5250   17.6103 H   0  0  0  0  0  0
    8.0143    6.1323   21.8360 H   0  0  0  0  0  0
    9.8792    6.4415   23.3166 H   0  0  0  0  0  0
   11.2111    5.7850   25.2932 H   0  0  0  0  0  0
    9.1243    2.0468   25.4474 H   0  0  0  0  0  0
    7.7982    2.7022   23.4651 H   0  0  0  0  0  0
   12.9008    1.3279   30.7030 H   0  0  0  0  0  0
   12.4762    1.2130   27.6331 H   0  0  0  0  0  0
   11.2839    0.9645   28.9535 H   0  0  0  0  0  0
   10.3779    1.5036   26.6814 H   0  0  0  0  0  0
    9.7973    2.5283   28.0377 H   0  0  0  0  0  0
   12.2645    5.2273   26.7980 H   0  0  0  0  0  0
   11.0266    5.0683   28.0899 H   0  0  0  0  0  0
   12.9927    4.7936   29.1579 H   0  0  0  0  0  0
   13.7242    3.8473   27.8178 H   0  0  0  0  0  0
  1  9  1  0  0  0
  1  2  1  0  0  0
  1 26  1  0  0  0
  2  4  1  0  0  0
  2  3  2  0  0  0
  4 11  2  0  0  0
  4 10  1  0  0  0
  5 10  1  0  0  0
  5  6  2  0  0  0
  5 27  1  0  0  0
  6  7  1  0  0  0
  6 28  1  0  0  0
  7  8  2  0  0  0
  7 29  1  0  0  0
  8  9  1  0  0  0
  8 30  1  0  0  0
  9 10  2  0  0  0
 11 12  1  0  0  0
 11 31  1  0  0  0
 12 17  2  0  0  0
 12 13  1  0  0  0
 13 14  2  0  0  0
 13 32  1  0  0  0
 14 15  1  0  0  0
 14 33  1  0  0  0
 15 23  1  0  0  0
 15 16  2  0  0  0
 16 17  1  0  0  0
 16 34  1  0  0  0
 17 35  1  0  0  0
 18 21  1  0  0  0
 18 25  1  0  0  0
 18 19  1  0  0  0
 19 20  2  0  0  0
 19 36  1  0  0  0
 21 22  1  0  0  0
 21 37  1  0  0  0
 21 38  1  0  0  0
 22 23  1  0  0  0
 22 39  1  0  0  0
 22 40  1  0  0  0
 23 24  1  0  0  0
 24 25  1  0  0  0
 24 41  1  0  0  0
 24 42  1  0  0  0
 25 43  1  0  0  0
 25 44  1  0  0  0
M  END
> <s_m_source_file>
../1agw_ligand.sdf

> <i_m_source_file_index>
1

> <s_epik_input>
W2NIXTFbY0hdW2NIXVtjSF1jKGMxMilDKFxDKD1PKVtOSF0yKT1bQ0hdXGMzW2NIXVtjSF1jKFtjSF1bY0hdMylOKFtDSDJdW0NIMl00KVtDSDJdW0NIMl1ONFtDSF09Tw==

> <s_epik_cmdline>
J2VwaWtfYXBwJywgJy1pbWFlJywgJ2xpZ2FuZF9wcm8ubWFlJywgJy1vbWFlJywgJ2xpZ2FuZF9wcmVwLm1hZScsICctbXMnLCAnMScsICctcGgnLCAnNycsICctcGh0JywgJzAuNScsICctbnQn

> <r_lp_tautomer_probability>
1

> <r_epik_Ionization_Penalty>
  0.0002

> <r_epik_Ionization_Penalty_Charging>
  0.0000

> <r_epik_Ionization_Penalty_Neutral>
  0.0002

> <r_epik_State_Penalty>
 -0.0000

> <r_epik_Charging_Adjusted_Penalty>
0

> <i_epik_Tot_Q>
0

> <i_epik_Tot_abs_Q>
0

$$$$
