1aht_ligand
                    3D
 Schrodinger Suite 2020-3.
 27 27  0  0  1  0            999 V2000
   14.9970  -10.8930   17.1980 C   0  0  0  0  0  0
   16.2500  -10.9640   17.2510 O   0  5  0  0  0  0
   14.3770  -11.1770   16.1580 O   0  0  0  0  0  0
   14.0670  -10.4430   18.3500 C   0  0  1  0  0  0
   12.7450  -10.4300   18.2630 O   0  0  0  0  0  0
   14.7520  -11.1470   19.5720 C   0  0  0  0  0  0
   13.7040  -11.4720   20.6530 C   0  0  0  0  0  0
   12.8970  -12.5940   20.7410 C   0  0  0  0  0  0
   11.9680  -12.7520   21.7720 C   0  0  0  0  0  0
   11.8160  -11.7670   22.7610 C   0  0  0  0  0  0
   12.6210  -10.6400   22.6810 C   0  0  0  0  0  0
   13.5350  -10.5240   21.6420 C   0  0  0  0  0  0
   10.8810  -11.7680   23.9710 C   0  0  0  0  0  0
   10.1680  -12.8530   24.2390 N   0  3  0  0  0  0
   10.6240  -10.6320   24.6310 N   0  0  0  0  0  0
   13.7934   -9.3777   18.3659 H   0  0  0  0  0  0
   12.2548   -9.9387   17.4096 H   0  0  0  0  0  0
   15.2270  -12.0812   19.2379 H   0  0  0  0  0  0
   15.5153  -10.4799   19.9989 H   0  0  0  0  0  0
   12.9892  -13.3745   19.9857 H   0  0  0  0  0  0
   11.3533  -13.6513   21.8093 H   0  0  0  0  0  0
   12.5367   -9.8511   23.4284 H   0  0  0  0  0  0
   14.1570   -9.6297   21.6052 H   0  0  0  0  0  0
   10.3714  -13.7913   23.7021 H   0  0  0  0  0  0
   11.2100   -9.7263   24.4159 H   0  0  0  0  0  0
    9.8268  -10.6043   25.3884 H   0  0  0  0  0  0
    9.3729  -12.8150   24.9982 H   0  0  0  0  0  0
  1  2  1  0  0  0
  1  3  2  0  0  0
  1  4  1  0  0  0
  4  5  1  0  0  0
  4  6  1  0  0  0
  4 16  1  0  0  0
  5 17  1  0  0  0
  6  7  1  0  0  0
  6 18  1  0  0  0
  6 19  1  0  0  0
  7  8  2  0  0  0
  7 12  1  0  0  0
  8  9  1  0  0  0
  8 20  1  0  0  0
  9 10  2  0  0  0
  9 21  1  0  0  0
 10 11  1  0  0  0
 10 13  1  0  0  0
 11 12  2  0  0  0
 11 22  1  0  0  0
 12 23  1  0  0  0
 13 14  2  0  0  0
 13 15  1  0  0  0
 14 24  1  0  0  0
 14 27  1  0  0  0
 15 25  1  0  0  0
 15 26  1  0  0  0
M  CHG  2   2  -1  14   1
M  END
> <s_m_source_file>
../1aht_ligand.sdf

> <i_m_source_file_index>
1

> <s_epik_input>
W09IXUMoPU8pW0NAQEhdKFtPSF0pW0NIMl1jMVtjSF1bY0hdYyhbY0hdW2NIXTEpL0MoPU5cW0hdKVtOSDJd

> <s_epik_cmdline>
J2VwaWtfYXBwJywgJy1pbWFlJywgJ2xpZ2FuZF9wcm8ubWFlJywgJy1vbWFlJywgJ2xpZ2FuZF9wcmVwLm1hZScsICctbXMnLCAnMScsICctcGgnLCAnNycsICctcGh0JywgJzAuNScsICctbnQn

> <r_lp_tautomer_probability>
1

> <r_epik_Ionization_Penalty>
  0.0005

> <r_epik_Ionization_Penalty_Charging>
  0.0005

> <r_epik_Ionization_Penalty_Neutral>
  0.0000

> <r_epik_State_Penalty>
 -0.0000

> <r_epik_Charging_Adjusted_Penalty>
0.00045803787145705

> <i_epik_Tot_Q>
0

> <i_epik_Tot_abs_Q>
2

> <s_epik_Chemistry_Notes>
This compound has an imine and may undergo hydrolysis.

$$$$
