1ahx_ligand
                    3D
 Schrodinger Suite 2020-3.
 20 20  0  0  1  0            999 V2000
  -10.2340   56.7110   23.8630 C   0  0  0  0  0  0
  -11.2720   56.7050   23.2390 O   0  0  0  0  0  0
  -10.1360   57.2790   25.0310 O   0  5  0  0  0  0
   -9.0350   56.0370   23.1180 C   0  0  0  0  0  0
   -9.2200   54.5170   22.7860 C   0  0  0  0  0  0
   -9.2120   53.5680   23.9780 C   0  0  0  0  0  0
   -8.0510   52.8910   24.3810 C   0  0  0  0  0  0
   -8.0730   52.0090   25.4680 C   0  0  0  0  0  0
   -9.2780   51.7920   26.1390 C   0  0  0  0  0  0
  -10.4490   52.4350   25.7340 C   0  0  0  0  0  0
  -10.4120   53.3030   24.6480 C   0  0  0  0  0  0
   -8.8663   56.5472   22.1582 H   0  0  0  0  0  0
   -8.1292   56.1125   23.7376 H   0  0  0  0  0  0
  -10.1862   54.3667   22.2821 H   0  0  0  0  0  0
   -8.4061   54.1843   22.1250 H   0  0  0  0  0  0
   -7.1188   53.0541   23.8401 H   0  0  0  0  0  0
   -7.1633   51.4995   25.7856 H   0  0  0  0  0  0
   -9.3047   51.1116   26.9902 H   0  0  0  0  0  0
  -11.3846   52.2582   26.2645 H   0  0  0  0  0  0
  -11.3312   53.7841   24.3136 H   0  0  0  0  0  0
  1  2  2  0  0  0
  1  3  1  0  0  0
  1  4  1  0  0  0
  4  5  1  0  0  0
  4 12  1  0  0  0
  4 13  1  0  0  0
  5  6  1  0  0  0
  5 14  1  0  0  0
  5 15  1  0  0  0
  6  7  2  0  0  0
  6 11  1  0  0  0
  7  8  1  0  0  0
  7 16  1  0  0  0
  8  9  2  0  0  0
  8 17  1  0  0  0
  9 10  1  0  0  0
  9 18  1  0  0  0
 10 11  2  0  0  0
 10 19  1  0  0  0
 11 20  1  0  0  0
M  CHG  1   3  -1
M  END
> <s_m_source_file>
../1ahx_ligand.sdf

> <i_m_source_file_index>
1

> <s_epik_input>
Tz1DKFtPSF0pW0NIMl1bQ0gyXWMxW2NIXVtjSF1bY0hdW2NIXVtjSF0x

> <s_epik_cmdline>
J2VwaWtfYXBwJywgJy1pbWFlJywgJ2xpZ2FuZF9wcm8ubWFlJywgJy1vbWFlJywgJ2xpZ2FuZF9wcmVwLm1hZScsICctbXMnLCAnMScsICctcGgnLCAnNycsICctcGh0JywgJzAuNScsICctbnQn

> <r_lp_tautomer_probability>
1

> <r_epik_Ionization_Penalty>
  0.0026

> <r_epik_Ionization_Penalty_Charging>
  0.0026

> <r_epik_Ionization_Penalty_Neutral>
  0.0000

> <r_epik_State_Penalty>
 -0.0000

> <r_epik_Charging_Adjusted_Penalty>
0.00264064342765131

> <i_epik_Tot_Q>
-1

> <i_epik_Tot_abs_Q>
1

$$$$
