1ahy_ligand
                    3D
 Schrodinger Suite 2020-3.
 10  9  0  0  1  0            999 V2000
   -9.5480   53.2920   24.8840 C   0  0  0  0  0  0
   -9.1740   52.0800   24.9770 O   0  0  0  0  0  0
  -10.2880   53.8910   25.7420 O   0  5  0  0  0  0
   -9.1070   54.1020   23.7050 C   0  0  0  0  0  0
   -9.4240   55.3490   23.3490 C   0  0  0  0  0  0
  -10.3320   56.3460   24.0030 C   0  0  0  0  0  0
  -11.4260   56.6050   23.4540 O   0  0  0  0  0  0
   -9.9720   56.9270   25.0550 O   0  5  0  0  0  0
   -8.4177   53.5111   23.0839 H   0  0  0  0  0  0
   -8.9890   55.7887   22.4394 H   0  0  0  0  0  0
  1  2  2  0  0  0
  1  3  1  0  0  0
  1  4  1  0  0  0
  4  5  2  0  0  0
  4  9  1  0  0  0
  5  6  1  0  0  0
  5 10  1  0  0  0
  6  7  2  0  0  0
  6  8  1  0  0  0
M  CHG  2   3  -1   8  -1
M  END
> <s_m_source_file>
../1ahy_ligand.sdf

> <i_m_source_file_index>
1

> <s_epik_input>
Tz1DKFtPSF0pL1tDSF09W0NIXVxDKD1PKVtPSF0=

> <s_epik_cmdline>
J2VwaWtfYXBwJywgJy1pbWFlJywgJ2xpZ2FuZF9wcm8ubWFlJywgJy1vbWFlJywgJ2xpZ2FuZF9wcmVwLm1hZScsICctbXMnLCAnMScsICctcGgnLCAnNycsICctcGh0JywgJzAuNScsICctbnQn

> <r_epik_Ionization_Penalty>
  0.0714

> <r_epik_Ionization_Penalty_Charging>
  0.0714

> <r_epik_Ionization_Penalty_Neutral>
  0.0000

> <r_epik_State_Penalty>
  0.0440

> <r_epik_Charging_Adjusted_Penalty>
0.115443043842014

> <i_epik_Tot_Q>
-2

> <i_epik_Tot_abs_Q>
2

$$$$
