1ai4_ligand
                    3D
 Schrodinger Suite 2020-3.
 19 19  0  0  1  0            999 V2000
   13.8060   37.7840   36.1770 C   0  0  0  0  0  0
   13.5920   36.3210   35.7700 C   0  0  0  0  0  0
   12.4160   35.9970   34.8980 C   0  0  0  0  0  0
   12.3640   36.6850   33.6940 C   0  0  0  0  0  0
   11.3370   36.4780   32.8090 C   0  0  0  0  0  0
   11.0820   37.0600   31.5790 O   0  0  0  0  0  0
   10.3460   35.5510   33.1180 C   0  0  0  0  0  0
    9.4350   35.4550   32.0850 O   0  0  0  0  0  0
   10.3720   34.8500   34.3070 C   0  0  0  0  0  0
   11.4240   35.0560   35.2000 C   0  0  0  0  0  0
   14.4450   38.0110   37.1970 O   0  0  0  0  0  0
   13.2690   38.7890   35.7080 O   0  5  0  0  0  0
   14.4692   35.9640   35.2104 H   0  0  0  0  0  0
   13.4569   35.7055   36.6717 H   0  0  0  0  0  0
   13.1498   37.3994   33.4484 H   0  0  0  0  0  0
   11.7685   37.8198   31.1771 H   0  0  0  0  0  0
    9.5479   36.0868   31.1916 H   0  0  0  0  0  0
    9.5782   34.1423   34.5459 H   0  0  0  0  0  0
   11.4734   34.4871   36.1284 H   0  0  0  0  0  0
  1 12  1  0  0  0
  1 11  2  0  0  0
  1  2  1  0  0  0
  2  3  1  0  0  0
  2 13  1  0  0  0
  2 14  1  0  0  0
  3 10  2  0  0  0
  3  4  1  0  0  0
  4  5  2  0  0  0
  4 15  1  0  0  0
  5  7  1  0  0  0
  5  6  1  0  0  0
  6 16  1  0  0  0
  7  9  2  0  0  0
  7  8  1  0  0  0
  8 17  1  0  0  0
  9 10  1  0  0  0
  9 18  1  0  0  0
 10 19  1  0  0  0
M  CHG  1  12  -1
M  END
> <s_m_source_file>
../1ai4_ligand.sdf

> <i_m_source_file_index>
1

> <s_epik_input>
Tz1DKFtPSF0pW0NIMl1jMVtjSF1jKFtPSF0pYyhbT0hdKVtjSF1bY0hdMQ==

> <s_epik_cmdline>
J2VwaWtfYXBwJywgJy1pbWFlJywgJ2xpZ2FuZF9wcm8ubWFlJywgJy1vbWFlJywgJ2xpZ2FuZF9wcmVwLm1hZScsICctbXMnLCAnMScsICctcGgnLCAnNycsICctcGh0JywgJzAuNScsICctbnQn

> <r_lp_tautomer_probability>
1

> <r_epik_Ionization_Penalty>
  0.0030

> <r_epik_Ionization_Penalty_Charging>
  0.0017

> <r_epik_Ionization_Penalty_Neutral>
  0.0013

> <r_epik_State_Penalty>
 -0.0000

> <r_epik_Charging_Adjusted_Penalty>
0.00165604006085163

> <i_epik_Tot_Q>
-1

> <i_epik_Tot_abs_Q>
1

$$$$
