1ai5_ligand
                    3D
 Schrodinger Suite 2020-3.
 19 19  0  0  1  0            999 V2000
   14.0160   37.7680   36.3700 C   0  0  0  0  0  0
   13.9490   36.3240   35.8790 C   0  0  0  0  0  0
   12.6700   35.9080   35.2370 C   0  0  0  0  0  0
   12.4280   36.4610   34.0030 C   0  0  0  0  0  0
   11.2590   36.0710   33.4050 C   0  0  0  0  0  0
   10.9480   36.5440   32.1190 N   0  3  0  0  0  0
    9.7150   35.9000   31.8610 O   0  5  0  0  0  0
   11.6460   37.4310   31.3120 O   0  0  0  0  0  0
   10.3140   35.1870   33.8960 C   0  0  0  0  0  0
   10.5900   34.6320   35.1090 C   0  0  0  0  0  0
   11.7540   35.0150   35.7910 C   0  0  0  0  0  0
   14.5840   37.9400   37.4320 O   0  5  0  0  0  0
   13.5320   38.7810   35.9290 O   0  0  0  0  0  0
   14.7352   36.1551   35.1284 H   0  0  0  0  0  0
   14.0996   35.6407   36.7278 H   0  0  0  0  0  0
   13.1181   37.1613   33.5325 H   0  0  0  0  0  0
    9.4039   34.9493   33.3453 H   0  0  0  0  0  0
    9.9129   33.8976   35.5452 H   0  0  0  0  0  0
   11.9478   34.6032   36.7814 H   0  0  0  0  0  0
  1 13  2  0  0  0
  1 12  1  0  0  0
  1  2  1  0  0  0
  2  3  1  0  0  0
  2 14  1  0  0  0
  2 15  1  0  0  0
  3 11  2  0  0  0
  3  4  1  0  0  0
  4  5  2  0  0  0
  4 16  1  0  0  0
  5  9  1  0  0  0
  5  6  1  0  0  0
  6  8  2  0  0  0
  6  7  1  0  0  0
  9 10  2  0  0  0
  9 17  1  0  0  0
 10 11  1  0  0  0
 10 18  1  0  0  0
 11 19  1  0  0  0
M  CHG  3   6   1   7  -1  12  -1
M  END
> <s_m_source_file>
../1ai5_ligand.sdf

> <i_m_source_file_index>
1

> <s_epik_input>
W09IXUMoPU8pW0NIMl1jMVtjSF1jKFtOK10oW08tXSk9TylbY0hdW2NIXVtjSF0x

> <s_epik_cmdline>
J2VwaWtfYXBwJywgJy1pbWFlJywgJ2xpZ2FuZF9wcm8ubWFlJywgJy1vbWFlJywgJ2xpZ2FuZF9wcmVwLm1hZScsICctbXMnLCAnMScsICctcGgnLCAnNycsICctcGh0JywgJzAuNScsICctbnQn

> <r_lp_tautomer_probability>
1

> <r_epik_Ionization_Penalty>
  0.0006

> <r_epik_Ionization_Penalty_Charging>
  0.0006

> <r_epik_Ionization_Penalty_Neutral>
  0.0000

> <r_epik_State_Penalty>
 -0.0000

> <r_epik_Charging_Adjusted_Penalty>
0.000567505289203832

> <i_epik_Tot_Q>
-1

> <i_epik_Tot_abs_Q>
3

$$$$
