1ai6_ligand
                    3D
 Schrodinger Suite 2020-3.
 18 18  0  0  1  0            999 V2000
   12.9090   37.8640   35.4810 C   0  0  0  0  0  0
   13.4740   37.7640   36.5650 O   0  0  0  0  0  0
   12.1200   38.7990   35.2070 O   0  5  0  0  0  0
   13.1850   36.7680   34.4310 C   0  0  0  0  0  0
   11.9170   36.2180   33.8460 C   0  0  0  0  0  0
   11.2130   35.1610   34.4330 C   0  0  0  0  0  0
   10.0570   34.7350   33.8350 C   0  0  0  0  0  0
    9.6580   35.3310   32.6360 C   0  0  0  0  0  0
   10.3320   36.4010   32.0670 C   0  0  0  0  0  0
   11.4970   36.8260   32.6900 C   0  0  0  0  0  0
    8.5270   34.8270   32.0260 O   0  0  0  0  0  0
   13.7872   37.1882   33.6120 H   0  0  0  0  0  0
   13.7339   35.9391   34.9017 H   0  0  0  0  0  0
   11.5762   34.6876   35.3452 H   0  0  0  0  0  0
    9.4582   33.9442   34.2869 H   0  0  0  0  0  0
    9.9613   36.8892   31.1657 H   0  0  0  0  0  0
   12.0781   37.6424   32.2611 H   0  0  0  0  0  0
    7.9912   33.9783   32.4761 H   0  0  0  0  0  0
  1  2  2  0  0  0
  1  3  1  0  0  0
  1  4  1  0  0  0
  4  5  1  0  0  0
  4 12  1  0  0  0
  4 13  1  0  0  0
  5  6  2  0  0  0
  5 10  1  0  0  0
  6  7  1  0  0  0
  6 14  1  0  0  0
  7  8  2  0  0  0
  7 15  1  0  0  0
  8  9  1  0  0  0
  8 11  1  0  0  0
  9 10  2  0  0  0
  9 16  1  0  0  0
 10 17  1  0  0  0
 11 18  1  0  0  0
M  CHG  1   3  -1
M  END
> <s_m_source_file>
../1ai6_ligand.sdf

> <i_m_source_file_index>
1

> <s_epik_input>
Tz1DKFtPSF0pW0NIMl1jMVtjSF1bY0hdYyhbT0hdKVtjSF1bY0hdMQ==

> <s_epik_cmdline>
J2VwaWtfYXBwJywgJy1pbWFlJywgJ2xpZ2FuZF9wcm8ubWFlJywgJy1vbWFlJywgJ2xpZ2FuZF9wcmVwLm1hZScsICctbXMnLCAnMScsICctcGgnLCAnNycsICctcGh0JywgJzAuNScsICctbnQn

> <r_lp_tautomer_probability>
1

> <r_epik_Ionization_Penalty>
  0.0024

> <r_epik_Ionization_Penalty_Charging>
  0.0018

> <r_epik_Ionization_Penalty_Neutral>
  0.0006

> <r_epik_State_Penalty>
 -0.0000

> <r_epik_Charging_Adjusted_Penalty>
0.00179192987651329

> <i_epik_Tot_Q>
-1

> <i_epik_Tot_abs_Q>
1

$$$$
