1aj6_ligand
                    3D
 Schrodinger Suite 2020-3.
 79 82  0  0  1  0            999 V2000
   60.2080   -1.1770   37.8380 C   0  0  0  0  0  0
   60.3090   -2.4250   37.1380 O   0  0  0  0  0  0
   58.4870   -3.0220   41.3780 N   0  0  0  0  0  0
   58.5440   -3.8040   40.3320 C   0  0  0  0  0  0
   58.7060   -4.9860   40.4060 O   0  0  0  0  0  0
   58.4500   -3.1640   39.1960 O   0  0  0  0  0  0
   59.0250   -2.9850   36.8350 C   0  0  2  0  0  0
   58.5870   -3.9190   37.9570 C   0  0  2  0  0  0
   57.1810   -4.3810   37.6050 C   0  0  1  0  0  0
   56.2950   -3.2810   37.7570 O   0  0  0  0  0  0
   57.1980   -5.0740   36.2490 C   0  0  1  0  0  0
   57.7020   -4.2550   35.1850 O   0  0  0  0  0  0
   58.9310   -3.5770   35.4010 C   0  0  0  0  0  0
   60.1340   -4.5170   35.1500 C   0  0  0  0  0  0
   58.8800   -2.4100   34.3740 C   0  0  0  0  0  0
   58.1130   -6.1070   36.5160 O   0  0  0  0  0  0
   58.2370   -7.1590   35.6250 C   0  0  0  0  0  0
   59.0090   -8.1900   36.1540 C   0  0  0  0  0  0
   59.6180   -8.1800   37.4960 C   0  0  0  0  0  0
   59.1650   -9.3130   35.4250 C   0  0  0  0  0  0
   58.6370   -9.4340   34.1250 C   0  0  0  0  0  0
   57.7990   -8.4310   33.5990 C   0  0  0  0  0  0
   57.5800   -7.2840   34.3710 C   0  0  0  0  0  0
   59.9600  -10.2950   36.0390 O   0  0  0  0  0  0
   60.2710  -11.3850   35.3620 C   0  0  0  0  0  0
   61.0220  -12.2030   35.7970 O   0  0  0  0  0  0
   59.7300  -11.5880   33.9960 C   0  0  0  0  0  0
   58.9640  -10.6720   33.3960 C   0  0  0  0  0  0
   58.5030  -10.8790   32.1470 O   0  5  0  0  0  0
   59.9720  -12.8740   33.3740 N   0  0  0  0  0  0
   60.9640  -13.2710   32.5620 C   0  0  0  0  0  0
   60.9380  -14.4120   32.1770 O   0  0  0  0  0  0
   62.0440  -12.4090   32.0930 C   0  0  0  0  0  0
   61.7860  -11.1750   31.4630 C   0  0  0  0  0  0
   62.8800  -10.4360   30.9820 C   0  0  0  0  0  0
   64.1750  -10.9130   31.1700 C   0  0  0  0  0  0
   65.2390  -10.1760   30.7190 O   0  0  0  0  0  0
   64.4340  -12.1480   31.7980 C   0  0  0  0  0  0
   63.3420  -12.9030   32.2510 C   0  0  0  0  0  0
   62.6940   -9.0810   30.3490 C   0  0  0  0  0  0
   62.7960   -7.8970   31.2920 C   0  0  0  0  0  0
   61.8120   -7.0620   31.6820 C   0  0  0  0  0  0
   62.0520   -5.9260   32.6540 C   0  0  0  0  0  0
   60.3980   -7.1480   31.1990 C   0  0  0  0  0  0
   61.2167   -0.7906   38.0460 H   0  0  0  0  0  0
   59.6715   -1.3307   38.7859 H   0  0  0  0  0  0
   59.6584   -0.4528   37.2188 H   0  0  0  0  0  0
   58.3359   -1.9402   41.2483 H   0  0  0  0  0  0
   58.5901   -3.4458   42.3878 H   0  0  0  0  0  0
   58.3493   -2.1170   36.8431 H   0  0  0  0  0  0
   59.3158   -4.7282   38.1120 H   0  0  0  0  0  0
   56.7369   -5.0996   38.3096 H   0  0  0  0  0  0
   56.2433   -2.7449   38.7161 H   0  0  0  0  0  0
   56.2241   -5.4067   35.8607 H   0  0  0  0  0  0
   60.1303   -5.3246   35.8969 H   0  0  0  0  0  0
   61.0699   -3.9449   35.2331 H   0  0  0  0  0  0
   60.0570   -4.9497   34.1416 H   0  0  0  0  0  0
   58.0121   -1.7695   34.5897 H   0  0  0  0  0  0
   58.7895   -2.8200   33.3573 H   0  0  0  0  0  0
   59.8023   -1.8152   34.4488 H   0  0  0  0  0  0
   59.4189   -7.2134   37.9818 H   0  0  0  0  0  0
   60.7042   -8.3288   37.4068 H   0  0  0  0  0  0
   59.1853   -8.9904   38.1010 H   0  0  0  0  0  0
   57.3347   -8.5448   32.6194 H   0  0  0  0  0  0
   56.9146   -6.4974   34.0152 H   0  0  0  0  0  0
   59.2762  -13.7082   33.5469 H   0  0  0  0  0  0
   60.7669  -10.8045   31.3521 H   0  0  0  0  0  0
   65.0677   -9.2082   30.2249 H   0  0  0  0  0  0
   65.4551  -12.5066   31.9281 H   0  0  0  0  0  0
   63.5050  -13.8712   32.7244 H   0  0  0  0  0  0
   63.4626   -8.9284   29.5770 H   0  0  0  0  0  0
   61.6963   -9.0249   29.8892 H   0  0  0  0  0  0
   63.8196   -7.7547   31.6688 H   0  0  0  0  0  0
   63.1074   -5.9255   32.9640 H   0  0  0  0  0  0
   61.4103   -6.0578   33.5377 H   0  0  0  0  0  0
   61.8126   -4.9695   32.1664 H   0  0  0  0  0  0
   60.2999   -7.9920   30.5004 H   0  0  0  0  0  0
   60.1286   -6.2134   30.6852 H   0  0  0  0  0  0
   59.7264   -7.3018   32.0565 H   0  0  0  0  0  0
  1  2  1  0  0  0
  1 45  1  0  0  0
  1 46  1  0  0  0
  1 47  1  0  0  0
  2  7  1  0  0  0
  3  4  1  0  0  0
  3 48  1  0  0  0
  3 49  1  0  0  0
  4  6  1  0  0  0
  4  5  2  0  0  0
  6  8  1  0  0  0
  7 13  1  0  0  0
  7  8  1  0  0  0
  7 50  1  0  0  0
  8  9  1  0  0  0
  8 51  1  0  0  0
  9 11  1  0  0  0
  9 10  1  0  0  0
  9 52  1  0  0  0
 10 53  1  0  0  0
 11 16  1  0  0  0
 11 12  1  0  0  0
 11 54  1  0  0  0
 12 13  1  0  0  0
 13 15  1  0  0  0
 13 14  1  0  0  0
 14 55  1  0  0  0
 14 56  1  0  0  0
 14 57  1  0  0  0
 15 58  1  0  0  0
 15 59  1  0  0  0
 15 60  1  0  0  0
 16 17  1  0  0  0
 17 23  2  0  0  0
 17 18  1  0  0  0
 18 20  2  0  0  0
 18 19  1  0  0  0
 19 61  1  0  0  0
 19 62  1  0  0  0
 19 63  1  0  0  0
 20 24  1  0  0  0
 20 21  1  0  0  0
 21 28  1  0  0  0
 21 22  2  0  0  0
 22 23  1  0  0  0
 22 64  1  0  0  0
 23 65  1  0  0  0
 24 25  1  0  0  0
 25 27  1  0  0  0
 25 26  2  0  0  0
 27 28  2  0  0  0
 27 30  1  0  0  0
 28 29  1  0  0  0
 30 31  1  0  0  0
 30 66  1  0  0  0
 31 33  1  0  0  0
 31 32  2  0  0  0
 33 39  2  0  0  0
 33 34  1  0  0  0
 34 35  2  0  0  0
 34 67  1  0  0  0
 35 40  1  0  0  0
 35 36  1  0  0  0
 36 38  2  0  0  0
 36 37  1  0  0  0
 37 68  1  0  0  0
 38 39  1  0  0  0
 38 69  1  0  0  0
 39 70  1  0  0  0
 40 41  1  0  0  0
 40 71  1  0  0  0
 40 72  1  0  0  0
 41 42  2  0  0  0
 41 73  1  0  0  0
 42 44  1  0  0  0
 42 43  1  0  0  0
 43 74  1  0  0  0
 43 75  1  0  0  0
 43 76  1  0  0  0
 44 77  1  0  0  0
 44 78  1  0  0  0
 44 79  1  0  0  0
M  CHG  1  29  -1
M  END
> <s_m_source_file>
../1aj6_ligand.sdf

> <i_m_source_file_index>
1

> <s_epik_input>
W0NIM11PW0NAQEhdKEMxKFtDSDNdKVtDSDNdKVtDQEBIXShPQyg9TylbTkgyXSlbQ0BASF0oW09IXSlbQ0BASF0oTzEpT2MoYzJbQ0gzXSlbY0hdW2NIXWMoYzIzKWMoW09IXSljKGMobzMpPU8pW05IXUMoPU8pYzRbY0hdYyhjKFtPSF0pW2NIXVtjSF00KVtDSDJdW0NIXT1DKFtDSDNdKVtDSDNd

> <s_epik_cmdline>
J2VwaWtfYXBwJywgJy1pbWFlJywgJ2xpZ2FuZF9wcm8ubWFlJywgJy1vbWFlJywgJ2xpZ2FuZF9wcmVwLm1hZScsICctbXMnLCAnMScsICctcGgnLCAnNycsICctcGh0JywgJzAuNScsICctbnQn

> <r_lp_tautomer_probability>
0.999999999997365

> <r_epik_Ionization_Penalty>
  0.0217

> <r_epik_Ionization_Penalty_Charging>
  0.0130

> <r_epik_Ionization_Penalty_Neutral>
  0.0087

> <r_epik_State_Penalty>
  0.0101

> <r_epik_Charging_Adjusted_Penalty>
0.0230599336544364

> <i_epik_Tot_Q>
-1

> <i_epik_Tot_abs_Q>
1

> <s_epik_Chemistry_Notes>
This compound has an ester and may undergo hydrolysis at high or low pH. This compound contains an acetal/aminal-like group ( X-CH(R)-Y where X, Y are N, S, or O) that may be acid/base labile, releasing an aldehyde.

$$$$
