1aj7_ligand
                    3D
 Schrodinger Suite 2020-3.
 32 32  0  0  1  0            999 V2000
   18.2960    6.1420   32.7200 C   0  0  0  0  0  0
   18.7590    5.4540   31.5480 N   0  3  0  0  0  0
   19.5520    6.1800   30.6400 O   0  5  0  0  0  0
   18.3840    4.1060   31.4170 O   0  0  0  0  0  0
   18.6450    7.5080   32.9320 C   0  0  0  0  0  0
   18.1990    8.1850   34.0870 C   0  0  0  0  0  0
   17.4080    7.5010   35.0370 C   0  0  0  0  0  0
   17.0520    6.1460   34.8330 C   0  0  0  0  0  0
   17.4930    5.4600   33.6840 C   0  0  0  0  0  0
   17.0220    8.1540   36.2280 O   0  0  0  0  0  0
   17.8810    7.9590   37.4820 P   0  0  2  0  0  0
   19.0780    8.7090   37.2570 O   0  5  0  0  0  0
   18.3010    6.5960   37.5090 O   0  0  0  0  0  0
   17.0790    8.4080   39.0270 C   0  0  0  0  0  0
   17.9070    7.8650   40.1910 C   0  0  0  0  0  0
   17.2700    8.0000   41.5820 C   0  0  0  0  0  0
   16.7210    6.6450   42.0530 C   0  0  0  0  0  0
   17.3220    6.0920   43.3420 C   0  0  0  0  0  0
   18.0430    5.1510   43.4370 O   0  0  0  0  0  0
   16.9010    6.8460   44.3750 O   0  5  0  0  0  0
   19.2588    8.0315   32.1990 H   0  0  0  0  0  0
   18.4635    9.2305   34.2454 H   0  0  0  0  0  0
   16.4338    5.6310   35.5683 H   0  0  0  0  0  0
   17.2229    4.4150   33.5319 H   0  0  0  0  0  0
   17.0097    9.5034   39.0993 H   0  0  0  0  0  0
   16.0686    7.9740   39.0553 H   0  0  0  0  0  0
   18.0921    6.7913   40.0398 H   0  0  0  0  0  0
   18.8672    8.3995   40.2387 H   0  0  0  0  0  0
   18.0271    8.3489   42.2997 H   0  0  0  0  0  0
   16.4443    8.7255   41.5384 H   0  0  0  0  0  0
   15.6390    6.7300   42.2322 H   0  0  0  0  0  0
   16.9059    5.8854   41.2791 H   0  0  0  0  0  0
  1  9  2  0  0  0
  1  5  1  0  0  0
  1  2  1  0  0  0
  2  4  2  0  0  0
  2  3  1  0  0  0
  5  6  2  0  0  0
  5 21  1  0  0  0
  6  7  1  0  0  0
  6 22  1  0  0  0
  7 10  1  0  0  0
  7  8  2  0  0  0
  8  9  1  0  0  0
  8 23  1  0  0  0
  9 24  1  0  0  0
 10 11  1  0  0  0
 11 14  1  0  0  0
 11 13  2  0  0  0
 11 12  1  0  0  0
 14 15  1  0  0  0
 14 25  1  0  0  0
 14 26  1  0  0  0
 15 16  1  0  0  0
 15 27  1  0  0  0
 15 28  1  0  0  0
 16 17  1  0  0  0
 16 29  1  0  0  0
 16 30  1  0  0  0
 17 18  1  0  0  0
 17 31  1  0  0  0
 17 32  1  0  0  0
 18 20  1  0  0  0
 18 19  2  0  0  0
M  CHG  4   2   1   3  -1  12  -1  20  -1
M  END
> <s_m_source_file>
../1aj7_ligand.sdf

> <i_m_source_file_index>
1

> <s_epik_input>
W08tXVtOK10oPU8pYzFbY0hdW2NIXWMoW2NIXVtjSF0xKU9bUEBAXSg9TykoW09IXSlbQ0gyXVtDSDJdW0NIMl1bQ0gyXUMoPU8pW09IXQ==

> <s_epik_cmdline>
J2VwaWtfYXBwJywgJy1pbWFlJywgJ2xpZ2FuZF9wcm8ubWFlJywgJy1vbWFlJywgJ2xpZ2FuZF9wcmVwLm1hZScsICctbXMnLCAnMScsICctcGgnLCAnNycsICctcGh0JywgJzAuNScsICctbnQn

> <r_lp_tautomer_probability>
1

> <r_epik_Ionization_Penalty>
  0.0043

> <r_epik_Ionization_Penalty_Charging>
  0.0043

> <r_epik_Ionization_Penalty_Neutral>
  0.0000

> <r_epik_State_Penalty>
 -0.0000

> <r_epik_Charging_Adjusted_Penalty>
0.00432324663932157

> <i_epik_Tot_Q>
-2

> <i_epik_Tot_abs_Q>
4

$$$$
