1ajn_ligand
                    3D
 Schrodinger Suite 2020-3.
 19 19  0  0  1  0            999 V2000
   13.9920   37.8040   36.4180 C   0  0  0  0  0  0
   13.8720   36.3160   36.0350 C   0  0  0  0  0  0
   12.8420   36.0860   34.9540 C   0  0  0  0  0  0
   13.0210   36.6710   33.7170 C   0  0  0  0  0  0
   11.9730   36.5260   32.8230 C   0  0  0  0  0  0
   10.8990   35.7310   33.1130 C   0  0  0  0  0  0
   10.1470   35.5500   32.3480 N   0  3  0  0  0  0
   10.4890   36.2740   31.1760 O   0  5  0  0  0  0
    9.0250   34.7280   32.6160 O   0  0  0  0  0  0
   10.7210   35.0520   34.3140 C   0  0  0  0  0  0
   11.7420   35.2890   35.2320 C   0  0  0  0  0  0
   14.6010   38.1410   37.4320 O   0  0  0  0  0  0
   13.5040   38.7610   35.8060 O   0  5  0  0  0  0
   14.8423   35.9532   35.6650 H   0  0  0  0  0  0
   13.5754   35.7326   36.9191 H   0  0  0  0  0  0
   13.9306   37.2135   33.4595 H   0  0  0  0  0  0
   12.0050   37.0554   31.8707 H   0  0  0  0  0  0
    9.8702   34.4014   34.5161 H   0  0  0  0  0  0
   11.6726   34.8255   36.2161 H   0  0  0  0  0  0
  1 13  1  0  0  0
  1 12  2  0  0  0
  1  2  1  0  0  0
  2  3  1  0  0  0
  2 14  1  0  0  0
  2 15  1  0  0  0
  3 11  2  0  0  0
  3  4  1  0  0  0
  4  5  2  0  0  0
  4 16  1  0  0  0
  5  6  1  0  0  0
  5 17  1  0  0  0
  6 10  2  0  0  0
  6  7  1  0  0  0
  7  9  2  0  0  0
  7  8  1  0  0  0
 10 11  1  0  0  0
 10 18  1  0  0  0
 11 19  1  0  0  0
M  CHG  3   7   1   8  -1  13  -1
M  END
> <s_m_source_file>
../1ajn_ligand.sdf

> <i_m_source_file_index>
1

> <s_epik_input>
Tz1DKFtPSF0pW0NIMl1jMVtjSF1bY0hdYyhbTitdKFtPLV0pPU8pW2NIXVtjSF0x

> <s_epik_cmdline>
J2VwaWtfYXBwJywgJy1pbWFlJywgJ2xpZ2FuZF9wcm8ubWFlJywgJy1vbWFlJywgJ2xpZ2FuZF9wcmVwLm1hZScsICctbXMnLCAnMScsICctcGgnLCAnNycsICctcGh0JywgJzAuNScsICctbnQn

> <r_lp_tautomer_probability>
1

> <r_epik_Ionization_Penalty>
  0.0006

> <r_epik_Ionization_Penalty_Charging>
  0.0006

> <r_epik_Ionization_Penalty_Neutral>
  0.0000

> <r_epik_State_Penalty>
 -0.0000

> <r_epik_Charging_Adjusted_Penalty>
0.000554848674640042

> <i_epik_Tot_Q>
-1

> <i_epik_Tot_abs_Q>
3

$$$$
