1ajp_ligand
                    3D
 Schrodinger Suite 2020-3.
 19 19  0  0  1  0            999 V2000
   13.5720   37.5200   36.1010 C   0  0  0  0  0  0
   13.0180   36.1080   35.8570 C   0  0  0  0  0  0
   11.9820   36.0200   34.7630 C   0  0  0  0  0  0
   12.0720   36.8510   33.6510 C   0  0  0  0  0  0
   11.1100   36.7580   32.6730 C   0  0  0  0  0  0
   11.0650   37.5080   31.5210 O   0  0  0  0  0  0
   10.0380   35.8730   32.7310 C   0  0  0  0  0  0
    9.9510   35.0620   33.8310 C   0  0  0  0  0  0
   10.9200   35.1270   34.8110 C   0  0  0  0  0  0
   10.7660   34.4250   35.6340 O   0  0  0  0  0  0
   14.4340   37.7030   36.9520 O   0  0  0  0  0  0
   13.1420   38.5030   35.4930 O   0  5  0  0  0  0
   13.8406   35.4356   35.5720 H   0  0  0  0  0  0
   12.5427   35.7365   36.7769 H   0  0  0  0  0  0
   12.8912   37.5638   33.5566 H   0  0  0  0  0  0
   11.8445   38.2582   31.3223 H   0  0  0  0  0  0
    9.2971   35.8270   31.9329 H   0  0  0  0  0  0
    9.1179   34.3665   33.9321 H   0  0  0  0  0  0
   11.4801   34.3925   36.4701 H   0  0  0  0  0  0
  1 12  1  0  0  0
  1 11  2  0  0  0
  1  2  1  0  0  0
  2  3  1  0  0  0
  2 13  1  0  0  0
  2 14  1  0  0  0
  3  9  2  0  0  0
  3  4  1  0  0  0
  4  5  2  0  0  0
  4 15  1  0  0  0
  5  7  1  0  0  0
  5  6  1  0  0  0
  6 16  1  0  0  0
  7  8  2  0  0  0
  7 17  1  0  0  0
  8  9  1  0  0  0
  8 18  1  0  0  0
  9 10  1  0  0  0
 10 19  1  0  0  0
M  CHG  1  12  -1
M  END
> <s_m_source_file>
../1ajp_ligand.sdf

> <i_m_source_file_index>
1

> <s_epik_input>
Tz1DKFtPSF0pW0NIMl1jMVtjSF1jKFtPSF0pW2NIXVtjSF1jMVtPSF0=

> <s_epik_cmdline>
J2VwaWtfYXBwJywgJy1pbWFlJywgJ2xpZ2FuZF9wcm8ubWFlJywgJy1vbWFlJywgJ2xpZ2FuZF9wcmVwLm1hZScsICctbXMnLCAnMScsICctcGgnLCAnNycsICctcGh0JywgJzAuNScsICctbnQn

> <r_lp_tautomer_probability>
1

> <r_epik_Ionization_Penalty>
  0.0018

> <r_epik_Ionization_Penalty_Charging>
  0.0015

> <r_epik_Ionization_Penalty_Neutral>
  0.0003

> <r_epik_State_Penalty>
 -0.0000

> <r_epik_Charging_Adjusted_Penalty>
0.00154670061536679

> <i_epik_Tot_Q>
-1

> <i_epik_Tot_abs_Q>
1

$$$$
