1ajx_ligand
                    3D
 Schrodinger Suite 2020-3.
 74 78  0  0  1  0            999 V2000
   11.7410   23.3430    5.9890 N   0  0  0  0  0  0
   12.2650   22.0280    6.0510 C   0  0  0  0  0  0
   13.5070   21.7390    5.6380 N   0  0  0  0  0  0
   14.6520   22.6630    5.7600 C   0  0  1  0  0  0
   14.5740   23.8290    4.6740 C   0  0  1  0  0  0
   13.4310   24.8510    4.9420 C   0  0  2  0  0  0
   11.9940   24.2680    4.8390 C   0  0  1  0  0  0
   10.4530   23.6120    6.6690 C   0  0  0  0  0  0
   10.2850   24.9540    7.2810 C   0  0  0  0  0  0
    9.1800   25.7370    6.9680 C   0  0  0  0  0  0
    9.0390   27.0110    7.5220 C   0  0  0  0  0  0
   10.0110   27.5260    8.3960 C   0  0  0  0  0  0
   11.1000   26.7320    8.6960 C   0  0  0  0  0  0
   11.2270   25.4360    8.1300 C   0  0  0  0  0  0
   11.5490   21.0910    6.5030 O   0  0  0  0  0  0
   13.9250   20.3890    5.4920 C   0  0  0  0  0  0
   14.8410   19.9560    4.3600 C   0  0  0  0  0  0
   16.1120   19.3650    4.6200 C   0  0  0  0  0  0
   16.8900   18.9310    3.5390 C   0  0  0  0  0  0
   16.4590   19.0590    2.2170 C   0  0  0  0  0  0
   15.2220   19.6500    1.9380 C   0  0  0  0  0  0
   14.3990   20.0990    3.0000 C   0  0  0  0  0  0
   14.6030   23.2930    7.1160 C   0  0  0  0  0  0
   14.7440   22.4950    8.3370 O   0  0  0  0  0  0
   15.7820   21.7740    8.6600 C   0  0  0  0  0  0
   15.6250   20.6030    9.4660 C   0  0  0  0  0  0
   16.7780   19.8550    9.8220 C   0  0  0  0  0  0
   18.0690   20.2700    9.3680 C   0  0  0  0  0  0
   18.2260   21.4180    8.5550 C   0  0  0  0  0  0
   17.0840   22.1670    8.2090 C   0  0  0  0  0  0
   15.7460   24.5390    4.7420 O   0  0  0  0  0  0
   13.5500   25.8400    3.9840 O   0  0  0  0  0  0
   11.8320   23.4520    3.5150 C   0  0  0  0  0  0
   10.4610   23.1350    3.0630 O   0  0  0  0  0  0
    9.5240   24.0830    2.7470 C   0  0  0  0  0  0
    9.9090   25.3270    2.2310 C   0  0  0  0  0  0
    8.9450   26.3100    1.8800 C   0  0  0  0  0  0
    7.5650   26.0600    2.0520 C   0  0  0  0  0  0
    7.1750   24.8090    2.5880 C   0  0  0  0  0  0
    8.1710   23.8260    2.9270 C   0  0  0  0  0  0
   15.5551   22.0439    5.6549 H   0  0  0  0  0  0
   14.4973   23.4232    3.6545 H   0  0  0  0  0  0
   13.5615   25.3103    5.9330 H   0  0  0  0  0  0
   11.2669   25.0919    4.8895 H   0  0  0  0  0  0
    9.6290   23.5094    5.9475 H   0  0  0  0  0  0
   10.3140   22.8922    7.4891 H   0  0  0  0  0  0
    8.4198   25.3547    6.2868 H   0  0  0  0  0  0
    8.1648   27.6128    7.2735 H   0  0  0  0  0  0
    9.9084   28.5229    8.8246 H   0  0  0  0  0  0
   11.8690   27.1034    9.3733 H   0  0  0  0  0  0
   12.0915   24.8212    8.3806 H   0  0  0  0  0  0
   14.4758   20.0764    6.3914 H   0  0  0  0  0  0
   13.0435   19.7445    5.3594 H   0  0  0  0  0  0
   16.4723   19.2527    5.6426 H   0  0  0  0  0  0
   17.8622   18.4792    3.7359 H   0  0  0  0  0  0
   17.0866   18.6983    1.4021 H   0  0  0  0  0  0
   14.8921   19.7648    0.9055 H   0  0  0  0  0  0
   13.4313   20.5526    2.7858 H   0  0  0  0  0  0
   15.4117   24.0332    7.2058 H   0  0  0  0  0  0
   13.6324   23.7919    7.2537 H   0  0  0  0  0  0
   14.6363   20.2899    9.8015 H   0  0  0  0  0  0
   16.6791   18.9638   10.4418 H   0  0  0  0  0  0
   18.9479   19.6919    9.6532 H   0  0  0  0  0  0
   19.2131   21.7173    8.2028 H   0  0  0  0  0  0
   17.1924   23.0575    7.5898 H   0  0  0  0  0  0
   16.7079   24.0291    4.5847 H   0  0  0  0  0  0
   14.4953   26.3924    3.8783 H   0  0  0  0  0  0
   12.2873   24.0091    2.6829 H   0  0  0  0  0  0
   12.3320   22.4780    3.6211 H   0  0  0  0  0  0
   10.9684   25.5451    2.0962 H   0  0  0  0  0  0
    9.2734   27.2667    1.4739 H   0  0  0  0  0  0
    6.8216   26.8092    1.7797 H   0  0  0  0  0  0
    6.1188   24.5896    2.7443 H   0  0  0  0  0  0
    7.8578   22.8637    3.3318 H   0  0  0  0  0  0
  1  8  1  0  0  0
  1  7  1  0  0  0
  1  2  1  0  0  0
  2 15  2  0  0  0
  2  3  1  0  0  0
  3 16  1  0  0  0
  3  4  1  0  0  0
  4 23  1  0  0  0
  4  5  1  0  0  0
  4 41  1  0  0  0
  5 31  1  0  0  0
  5  6  1  0  0  0
  5 42  1  0  0  0
  6 32  1  0  0  0
  6  7  1  0  0  0
  6 43  1  0  0  0
  7 33  1  0  0  0
  7 44  1  0  0  0
  8  9  1  0  0  0
  8 45  1  0  0  0
  8 46  1  0  0  0
  9 14  2  0  0  0
  9 10  1  0  0  0
 10 11  2  0  0  0
 10 47  1  0  0  0
 11 12  1  0  0  0
 11 48  1  0  0  0
 12 13  2  0  0  0
 12 49  1  0  0  0
 13 14  1  0  0  0
 13 50  1  0  0  0
 14 51  1  0  0  0
 16 17  1  0  0  0
 16 52  1  0  0  0
 16 53  1  0  0  0
 17 22  2  0  0  0
 17 18  1  0  0  0
 18 19  2  0  0  0
 18 54  1  0  0  0
 19 20  1  0  0  0
 19 55  1  0  0  0
 20 21  2  0  0  0
 20 56  1  0  0  0
 21 22  1  0  0  0
 21 57  1  0  0  0
 22 58  1  0  0  0
 23 24  1  0  0  0
 23 59  1  0  0  0
 23 60  1  0  0  0
 24 25  1  0  0  0
 25 30  2  0  0  0
 25 26  1  0  0  0
 26 27  2  0  0  0
 26 61  1  0  0  0
 27 28  1  0  0  0
 27 62  1  0  0  0
 28 29  2  0  0  0
 28 63  1  0  0  0
 29 30  1  0  0  0
 29 64  1  0  0  0
 30 65  1  0  0  0
 31 66  1  0  0  0
 32 67  1  0  0  0
 33 34  1  0  0  0
 33 68  1  0  0  0
 33 69  1  0  0  0
 34 35  1  0  0  0
 35 40  2  0  0  0
 35 36  1  0  0  0
 36 37  2  0  0  0
 36 70  1  0  0  0
 37 38  1  0  0  0
 37 71  1  0  0  0
 38 39  2  0  0  0
 38 72  1  0  0  0
 39 40  1  0  0  0
 39 73  1  0  0  0
 40 74  1  0  0  0
M  END
> <s_m_source_file>
../1ajx_ligand.sdf

> <i_m_source_file_index>
1

> <s_epik_input>
W2NIXTFbY0hdW2NIXVtjSF1bY0hdYzFbQ0gyXU4yQyg9TylOKFtDSDJdYzNbY0hdW2NIXVtjSF1bY0hdW2NIXTMpW0NASF0oW0NIMl1PYzRbY0hdW2NIXVtjSF1bY0hdW2NIXTQpW0NASF0oW09IXSlbQ0BASF0oW09IXSlbQ0BIXTJbQ0gyXU9jNVtjSF1bY0hdW2NIXVtjSF1bY0hdNQ==

> <s_epik_cmdline>
J2VwaWtfYXBwJywgJy1pbWFlJywgJ2xpZ2FuZF9wcm8ubWFlJywgJy1vbWFlJywgJ2xpZ2FuZF9wcmVwLm1hZScsICctbXMnLCAnMScsICctcGgnLCAnNycsICctcGh0JywgJzAuNScsICctbnQn

> <r_lp_tautomer_probability>
1

> <r_epik_Ionization_Penalty>
  0.0000

> <r_epik_Ionization_Penalty_Charging>
  0.0000

> <r_epik_Ionization_Penalty_Neutral>
  0.0000

> <r_epik_State_Penalty>
 -0.0000

> <r_epik_Charging_Adjusted_Penalty>
0

> <i_epik_Tot_Q>
0

> <i_epik_Tot_abs_Q>
0

$$$$
