1akq_ligand
                    3D
 Schrodinger Suite 2020-3.
 50 52  0  0  1  0            999 V2000
   52.0070   40.1660   12.3960 N   0  0  0  0  0  0
   50.8860   40.8480   12.8220 C   0  0  0  0  0  0
   50.8620   41.5090   13.9930 O   0  0  0  0  0  0
   49.7480   40.9330   12.0510 N   0  0  0  0  0  0
   49.6620   40.3010   10.8090 C   0  0  0  0  0  0
   48.4910   40.3930   10.1210 O   0  0  0  0  0  0
   50.8030   39.6000   10.3340 C   0  0  0  0  0  0
   50.7260   38.9530    9.1080 N   0  0  0  0  0  0
   51.8870   38.3740    8.5960 C   0  0  0  0  0  0
   51.8440   37.8850    7.2690 C   0  0  0  0  0  0
   53.0240   37.3220    6.7760 C   0  0  0  0  0  0
   53.0980   36.7900    5.4410 C   0  0  0  0  0  0
   54.1610   37.2660    7.5850 C   0  0  0  0  0  0
   55.3840   36.7170    7.1220 C   0  0  0  0  0  0
   54.1930   37.7640    8.9040 C   0  0  0  0  0  0
   53.0220   38.3370    9.4360 C   0  0  0  0  0  0
   53.0760   38.8410   10.7440 N   0  0  0  0  0  0
   51.9500   39.5500   11.1530 C   0  0  0  0  0  0
   54.1560   38.8360   11.6360 C   0  0  0  0  0  0
   54.2190   37.5020   12.4320 C   0  0  2  0  0  0
   53.1570   37.3740   13.3870 O   0  0  0  0  0  0
   55.5400   37.4860   13.2390 C   0  0  2  0  0  0
   56.6060   37.2000   12.3410 O   0  0  0  0  0  0
   55.6110   36.5450   14.3770 C   0  0  2  0  0  0
   56.8370   36.7900   15.0930 O   0  0  0  0  0  0
   55.5420   35.1750   13.9900 C   0  0  0  0  0  0
   55.5480   34.4550   15.2120 O   0  0  0  0  0  0
   55.6480   32.8070   15.2870 P   0  0  0  0  0  0
   54.4510   32.1200   14.3780 O   0  5  0  0  0  0
   55.3760   32.3260   16.8820 O   0  5  0  0  0  0
   57.1630   32.3790   14.8620 O   0  0  0  0  0  0
   48.8819   41.5080   12.4104 H   0  0  0  0  0  0
   50.9393   37.9443    6.6640 H   0  0  0  0  0  0
   52.1247   36.9121    4.9432 H   0  0  0  0  0  0
   53.3555   35.7215    5.4859 H   0  0  0  0  0  0
   53.8704   37.3298    4.8735 H   0  0  0  0  0  0
   55.2574   36.3581    6.0899 H   0  0  0  0  0  0
   55.6770   35.8770    7.7689 H   0  0  0  0  0  0
   56.1661   37.4901    7.1480 H   0  0  0  0  0  0
   55.1046   37.7066    9.4988 H   0  0  0  0  0  0
   55.0949   38.9557   11.0756 H   0  0  0  0  0  0
   54.0463   39.6662   12.3493 H   0  0  0  0  0  0
   54.0795   36.6549   11.7443 H   0  0  0  0  0  0
   52.1108   37.3603   13.0476 H   0  0  0  0  0  0
   55.6900   38.4729   13.7011 H   0  0  0  0  0  0
   56.7271   37.7950   11.4238 H   0  0  0  0  0  0
   54.7369   36.6931   15.0282 H   0  0  0  0  0  0
   57.0614   37.7986   15.4704 H   0  0  0  0  0  0
   54.6184   35.0016   13.4182 H   0  0  0  0  0  0
   56.4123   34.9262   13.3650 H   0  0  0  0  0  0
  1  2  1  0  0  0
  1 18  2  0  0  0
  2  3  2  0  0  0
  2  4  1  0  0  0
  4  5  1  0  0  0
  4 32  1  0  0  0
  5  6  2  0  0  0
  5  7  1  0  0  0
  7  8  2  0  0  0
  7 18  1  0  0  0
  8  9  1  0  0  0
  9 10  2  0  0  0
  9 16  1  0  0  0
 10 11  1  0  0  0
 10 33  1  0  0  0
 11 12  1  0  0  0
 11 13  2  0  0  0
 12 34  1  0  0  0
 12 35  1  0  0  0
 12 36  1  0  0  0
 13 14  1  0  0  0
 13 15  1  0  0  0
 14 37  1  0  0  0
 14 38  1  0  0  0
 14 39  1  0  0  0
 15 16  2  0  0  0
 15 40  1  0  0  0
 16 17  1  0  0  0
 17 18  1  0  0  0
 17 19  1  0  0  0
 19 20  1  0  0  0
 19 41  1  0  0  0
 19 42  1  0  0  0
 20 21  1  0  0  0
 20 22  1  0  0  0
 20 43  1  0  0  0
 21 44  1  0  0  0
 22 23  1  0  0  0
 22 24  1  0  0  0
 22 45  1  0  0  0
 23 46  1  0  0  0
 24 25  1  0  0  0
 24 26  1  0  0  0
 24 47  1  0  0  0
 25 48  1  0  0  0
 26 27  1  0  0  0
 26 49  1  0  0  0
 26 50  1  0  0  0
 27 28  1  0  0  0
 28 29  1  0  0  0
 28 30  1  0  0  0
 28 31  2  0  0  0
M  CHG  2  29  -1  30  -1
M  END
> <s_m_source_file>
../1akq_ligand.sdf

> <i_m_source_file_index>
1

> <s_epik_input>
Tz1jMVtuSF1jKD1PKW5jKGMxMiluKGMzYyhuMilbY0hdYyhbQ0gzXSljKFtDSDNdKVtjSF0zKVtDSDJdW0NASF0oW09IXSlbQ0BIXShbT0hdKVtDQEhdKFtPSF0pW0NIMl1PUCg9TykoW09IXSlbT0hd

> <s_epik_cmdline>
J2VwaWtfYXBwJywgJy1pbWFlJywgJ2xpZ2FuZF9wcm8ubWFlJywgJy1vbWFlJywgJ2xpZ2FuZF9wcmVwLm1hZScsICctbXMnLCAnMScsICctcGgnLCAnNycsICctcGh0JywgJzAuNScsICctbnQn

> <r_epik_Ionization_Penalty>
  0.1164

> <r_epik_Ionization_Penalty_Charging>
  0.1164

> <r_epik_Ionization_Penalty_Neutral>
  0.0000

> <r_epik_State_Penalty>
  0.1054

> <r_epik_Charging_Adjusted_Penalty>
0.2218027979184

> <i_epik_Tot_Q>
-2

> <i_epik_Tot_abs_Q>
2

$$$$
