1akr_ligand
                    3D
 Schrodinger Suite 2020-3.
 50 52  0  0  1  0            999 V2000
   -4.1670   36.0330   18.0950 N   0  0  0  0  0  0
   -3.2060   36.7360   18.7940 C   0  0  0  0  0  0
   -2.3360   37.5450   18.1480 O   0  0  0  0  0  0
   -3.1450   36.6640   20.1800 N   0  0  0  0  0  0
   -4.0190   35.8690   20.9070 C   0  0  0  0  0  0
   -3.8960   35.8010   22.2740 O   0  0  0  0  0  0
   -5.0060   35.1320   20.1860 C   0  0  0  0  0  0
   -5.8690   34.3250   20.8950 N   0  0  0  0  0  0
   -6.8990   33.7120   20.1710 C   0  0  0  0  0  0
   -7.8640   33.0020   20.9350 C   0  0  0  0  0  0
   -8.8950   32.4130   20.1900 C   0  0  0  0  0  0
   -9.9050   31.6880   20.9090 C   0  0  0  0  0  0
   -8.9740   32.5170   18.7920 C   0  0  0  0  0  0
  -10.0430   31.9070   18.0560 C   0  0  0  0  0  0
   -7.9980   33.2220   18.0570 C   0  0  0  0  0  0
   -6.9310   33.8180   18.7710 C   0  0  0  0  0  0
   -5.9830   34.5220   18.0320 N   0  0  0  0  0  0
   -5.0500   35.2280   18.7760 C   0  0  0  0  0  0
   -5.9430   34.6770   16.6350 C   0  0  0  0  0  0
   -5.2750   33.4120   16.0560 C   0  0  2  0  0  0
   -3.8870   33.3320   16.4270 O   0  0  0  0  0  0
   -5.3640   33.5390   14.5100 C   0  0  2  0  0  0
   -6.7170   33.2100   14.2170 O   0  0  0  0  0  0
   -4.4010   32.7710   13.7020 C   0  0  2  0  0  0
   -4.5360   33.1090   12.2930 O   0  0  0  0  0  0
   -4.4510   31.3460   13.8580 C   0  0  0  0  0  0
   -3.3530   30.8000   13.1270 O   0  0  0  0  0  0
   -3.2830   29.1870   12.7530 P   0  0  0  0  0  0
   -3.3950   28.3190   14.1420 O   0  0  0  0  0  0
   -1.8390   28.9240   11.9800 O   0  5  0  0  0  0
   -4.4640   28.8110   11.6560 O   0  5  0  0  0  0
   -2.3899   37.2464   20.7283 H   0  0  0  0  0  0
   -7.8068   32.9213   22.0205 H   0  0  0  0  0  0
   -9.6787   31.7137   21.9852 H   0  0  0  0  0  0
   -9.9233   30.6440   20.5630 H   0  0  0  0  0  0
  -10.8865   32.1510   20.7295 H   0  0  0  0  0  0
  -10.7234   31.3961   18.7532 H   0  0  0  0  0  0
   -9.6289   31.1760   17.3459 H   0  0  0  0  0  0
  -10.5967   32.6810   17.5043 H   0  0  0  0  0  0
   -8.0635   33.3053   16.9722 H   0  0  0  0  0  0
   -6.9672   34.7857   16.2487 H   0  0  0  0  0  0
   -5.3587   35.5740   16.3822 H   0  0  0  0  0  0
   -5.7162   32.4946   16.4728 H   0  0  0  0  0  0
   -3.6054   33.2370   17.4861 H   0  0  0  0  0  0
   -5.1163   34.5462   14.1438 H   0  0  0  0  0  0
   -7.5342   33.7145   14.7533 H   0  0  0  0  0  0
   -3.4081   33.0469   14.0869 H   0  0  0  0  0  0
   -4.5206   34.1623   11.9761 H   0  0  0  0  0  0
   -4.3695   31.0909   14.9249 H   0  0  0  0  0  0
   -5.4048   30.9670   13.4622 H   0  0  0  0  0  0
  1  2  1  0  0  0
  1 18  2  0  0  0
  2  3  2  0  0  0
  2  4  1  0  0  0
  4  5  1  0  0  0
  4 32  1  0  0  0
  5  6  2  0  0  0
  5  7  1  0  0  0
  7  8  2  0  0  0
  7 18  1  0  0  0
  8  9  1  0  0  0
  9 10  2  0  0  0
  9 16  1  0  0  0
 10 11  1  0  0  0
 10 33  1  0  0  0
 11 12  1  0  0  0
 11 13  2  0  0  0
 12 34  1  0  0  0
 12 35  1  0  0  0
 12 36  1  0  0  0
 13 14  1  0  0  0
 13 15  1  0  0  0
 14 37  1  0  0  0
 14 38  1  0  0  0
 14 39  1  0  0  0
 15 16  2  0  0  0
 15 40  1  0  0  0
 16 17  1  0  0  0
 17 18  1  0  0  0
 17 19  1  0  0  0
 19 20  1  0  0  0
 19 41  1  0  0  0
 19 42  1  0  0  0
 20 21  1  0  0  0
 20 22  1  0  0  0
 20 43  1  0  0  0
 21 44  1  0  0  0
 22 23  1  0  0  0
 22 24  1  0  0  0
 22 45  1  0  0  0
 23 46  1  0  0  0
 24 25  1  0  0  0
 24 26  1  0  0  0
 24 47  1  0  0  0
 25 48  1  0  0  0
 26 27  1  0  0  0
 26 49  1  0  0  0
 26 50  1  0  0  0
 27 28  1  0  0  0
 28 29  2  0  0  0
 28 30  1  0  0  0
 28 31  1  0  0  0
M  CHG  2  30  -1  31  -1
M  END
> <s_m_source_file>
../1akr_ligand.sdf

> <i_m_source_file_index>
1

> <s_epik_input>
Tz1jMVtuSF1jKD1PKW5jKGMxMiluKGMzYyhuMilbY0hdYyhbQ0gzXSljKFtDSDNdKVtjSF0zKVtDSDJdW0NASF0oW09IXSlbQ0BIXShbT0hdKVtDQEhdKFtPSF0pW0NIMl1PUCg9TykoW09IXSlbT0hd

> <s_epik_cmdline>
J2VwaWtfYXBwJywgJy1pbWFlJywgJ2xpZ2FuZF9wcm8ubWFlJywgJy1vbWFlJywgJ2xpZ2FuZF9wcmVwLm1hZScsICctbXMnLCAnMScsICctcGgnLCAnNycsICctcGh0JywgJzAuNScsICctbnQn

> <r_epik_Ionization_Penalty>
  0.1164

> <r_epik_Ionization_Penalty_Charging>
  0.1164

> <r_epik_Ionization_Penalty_Neutral>
  0.0000

> <r_epik_State_Penalty>
  0.1054

> <r_epik_Charging_Adjusted_Penalty>
0.2218027979184

> <i_epik_Tot_Q>
-2

> <i_epik_Tot_abs_Q>
2

$$$$
