1akt_ligand
                    3D
 Schrodinger Suite 2020-3.
 50 52  0  0  1  0            999 V2000
   -4.0330   35.9560   18.2020 N   0  0  0  0  0  0
   -3.0990   36.5730   18.8730 C   0  0  0  0  0  0
   -2.3760   37.3340   18.3350 O   0  0  0  0  0  0
   -3.0880   36.4810   20.2900 N   0  0  0  0  0  0
   -3.9840   35.7140   21.0170 C   0  0  0  0  0  0
   -3.7350   35.6470   22.2420 O   0  0  0  0  0  0
   -4.9900   34.9910   20.3690 C   0  0  0  0  0  0
   -5.8800   34.2390   20.8650 N   0  0  0  0  0  0
   -6.7790   33.6190   20.1620 C   0  0  0  0  0  0
   -7.7110   32.8520   20.9390 C   0  0  0  0  0  0
   -8.6540   32.2260   20.2200 C   0  0  0  0  0  0
   -9.8080   31.4220   20.9260 C   0  0  0  0  0  0
   -8.8110   32.2540   18.7830 C   0  0  0  0  0  0
   -9.9110   31.5450   18.0960 C   0  0  0  0  0  0
   -7.8770   33.0220   18.0580 C   0  0  0  0  0  0
   -6.8780   33.6830   18.6960 C   0  0  0  0  0  0
   -5.8440   34.5250   18.1190 N   0  0  0  0  0  0
   -4.9430   35.1710   18.8600 C   0  0  0  0  0  0
   -5.9760   34.3830   16.6510 C   0  0  0  0  0  0
   -5.1620   33.1640   16.1700 C   0  0  2  0  0  0
   -3.8010   33.1350   16.6170 O   0  0  0  0  0  0
   -5.2640   33.5120   14.7050 C   0  0  2  0  0  0
   -6.5710   33.0460   14.3280 O   0  0  0  0  0  0
   -4.2570   32.6540   13.7810 C   0  0  2  0  0  0
   -4.6100   32.9790   12.3720 O   0  0  0  0  0  0
   -4.4030   31.1850   13.9060 C   0  0  0  0  0  0
   -3.3270   30.5560   13.1690 O   0  0  0  0  0  0
   -3.2580   29.0850   12.8380 P   0  0  0  0  0  0
   -3.3260   28.2850   14.0630 O   0  0  0  0  0  0
   -1.9740   28.7940   12.1290 O   0  5  0  0  0  0
   -4.3490   28.6660   11.7890 O   0  5  0  0  0  0
   -2.3386   37.0379   20.8715 H   0  0  0  0  0  0
   -7.6566   32.7840   22.0255 H   0  0  0  0  0  0
   -9.6466   31.4281   22.0141 H   0  0  0  0  0  0
   -9.8082   30.3843   20.5611 H   0  0  0  0  0  0
  -10.7758   31.8917   20.6962 H   0  0  0  0  0  0
  -10.5214   31.0091   18.8377 H   0  0  0  0  0  0
   -9.4912   30.8254   17.3777 H   0  0  0  0  0  0
  -10.5389   32.2729   17.5614 H   0  0  0  0  0  0
   -7.9582   33.0856   16.9729 H   0  0  0  0  0  0
   -7.0350   34.2396   16.3903 H   0  0  0  0  0  0
   -5.5970   35.2910   16.1592 H   0  0  0  0  0  0
   -5.4519   32.1622   16.5198 H   0  0  0  0  0  0
   -3.5715   32.8950   17.6657 H   0  0  0  0  0  0
   -5.1353   34.5992   14.5984 H   0  0  0  0  0  0
   -7.4654   33.4681   14.8094 H   0  0  0  0  0  0
   -3.2049   32.8538   14.0325 H   0  0  0  0  0  0
   -4.5787   34.0219   12.0237 H   0  0  0  0  0  0
   -4.3498   30.9002   14.9672 H   0  0  0  0  0  0
   -5.3742   30.8765   13.4918 H   0  0  0  0  0  0
  1  2  1  0  0  0
  1 18  2  0  0  0
  2  3  2  0  0  0
  2  4  1  0  0  0
  4  5  1  0  0  0
  4 32  1  0  0  0
  5  6  2  0  0  0
  5  7  1  0  0  0
  7  8  2  0  0  0
  7 18  1  0  0  0
  8  9  1  0  0  0
  9 10  2  0  0  0
  9 16  1  0  0  0
 10 11  1  0  0  0
 10 33  1  0  0  0
 11 12  1  0  0  0
 11 13  2  0  0  0
 12 34  1  0  0  0
 12 35  1  0  0  0
 12 36  1  0  0  0
 13 14  1  0  0  0
 13 15  1  0  0  0
 14 37  1  0  0  0
 14 38  1  0  0  0
 14 39  1  0  0  0
 15 16  2  0  0  0
 15 40  1  0  0  0
 16 17  1  0  0  0
 17 18  1  0  0  0
 17 19  1  0  0  0
 19 20  1  0  0  0
 19 41  1  0  0  0
 19 42  1  0  0  0
 20 21  1  0  0  0
 20 22  1  0  0  0
 20 43  1  0  0  0
 21 44  1  0  0  0
 22 23  1  0  0  0
 22 24  1  0  0  0
 22 45  1  0  0  0
 23 46  1  0  0  0
 24 25  1  0  0  0
 24 26  1  0  0  0
 24 47  1  0  0  0
 25 48  1  0  0  0
 26 27  1  0  0  0
 26 49  1  0  0  0
 26 50  1  0  0  0
 27 28  1  0  0  0
 28 29  2  0  0  0
 28 30  1  0  0  0
 28 31  1  0  0  0
M  CHG  2  30  -1  31  -1
M  END
> <s_m_source_file>
../1akt_ligand.sdf

> <i_m_source_file_index>
1

> <s_epik_input>
Tz1jMVtuSF1jKD1PKW5jKGMxMiluKGMzYyhuMilbY0hdYyhbQ0gzXSljKFtDSDNdKVtjSF0zKVtDSDJdW0NASF0oW09IXSlbQ0BIXShbT0hdKVtDQEhdKFtPSF0pW0NIMl1PUCg9TykoW09IXSlbT0hd

> <s_epik_cmdline>
J2VwaWtfYXBwJywgJy1pbWFlJywgJ2xpZ2FuZF9wcm8ubWFlJywgJy1vbWFlJywgJ2xpZ2FuZF9wcmVwLm1hZScsICctbXMnLCAnMScsICctcGgnLCAnNycsICctcGh0JywgJzAuNScsICctbnQn

> <r_epik_Ionization_Penalty>
  0.1164

> <r_epik_Ionization_Penalty_Charging>
  0.1164

> <r_epik_Ionization_Penalty_Neutral>
  0.0000

> <r_epik_State_Penalty>
  0.1054

> <r_epik_Charging_Adjusted_Penalty>
0.2218027979184

> <i_epik_Tot_Q>
-2

> <i_epik_Tot_abs_Q>
2

$$$$
