1aku_ligand
                    3D
 Schrodinger Suite 2020-3.
 52 54  0  0  1  0            999 V2000
    0.5740   40.2350   22.2290 N   0  0  0  0  0  0
    1.6070   41.0320   21.7920 C   0  0  0  0  0  0
    1.4650   41.6470   20.6030 O   0  0  0  0  0  0
    2.7210   41.2670   22.5540 N   0  0  0  0  0  0
    2.8890   40.6220   23.8080 C   0  0  0  0  0  0
    4.0490   40.8080   24.5510 O   0  0  0  0  0  0
    1.8440   39.7700   24.2690 C   0  0  0  0  0  0
    2.0030   39.1120   25.4900 N   0  0  0  0  0  0
    0.8820   38.4580   26.0710 C   0  0  0  0  0  0
    0.9450   37.9630   27.4120 C   0  0  0  0  0  0
   -0.1800   37.3360   27.9880 C   0  0  0  0  0  0
   -0.2220   36.8010   29.3400 C   0  0  0  0  0  0
   -1.3370   37.1990   27.2070 C   0  0  0  0  0  0
   -2.5290   36.5820   27.7010 C   0  0  0  0  0  0
   -1.3880   37.6930   25.8620 C   0  0  0  0  0  0
   -0.2780   38.3420   25.2690 C   0  0  0  0  0  0
   -0.3620   38.7880   23.9140 N   0  0  0  0  0  0
    0.6940   39.5900   23.4670 C   0  0  0  0  0  0
   -1.5070   38.6690   23.0910 C   0  0  0  0  0  0
   -1.6290   37.2830   22.4530 C   0  0  2  0  0  0
   -0.5390   37.0060   21.5770 O   0  0  0  0  0  0
   -2.8930   37.3070   21.5720 C   0  0  2  0  0  0
   -3.9890   37.1580   22.4940 O   0  0  0  0  0  0
   -2.9540   36.3010   20.4740 C   0  0  2  0  0  0
   -4.2430   36.5140   19.7800 O   0  0  0  0  0  0
   -2.8950   34.9450   20.9080 C   0  0  0  0  0  0
   -2.9500   34.1110   19.7880 O   0  0  0  0  0  0
   -3.0820   32.4680   19.7500 P   0  0  0  0  0  0
   -2.0370   31.6610   20.7580 O   0  5  0  0  0  0
   -2.7910   31.8840   18.1950 O   0  5  0  0  0  0
   -4.6380   32.0550   20.1390 O   0  0  0  0  0  0
   -0.3266   40.1129   21.6093 H   0  0  0  0  0  0
    3.4959   41.9609   22.1961 H   0  0  0  0  0  0
    2.9841   39.1050   25.9873 H   0  0  0  0  0  0
    1.8633   38.0705   27.9893 H   0  0  0  0  0  0
    0.7451   36.9765   29.8340 H   0  0  0  0  0  0
   -0.4228   35.7202   29.3006 H   0  0  0  0  0  0
   -1.0200   37.3017   29.9078 H   0  0  0  0  0  0
   -2.3663   36.2463   28.7358 H   0  0  0  0  0  0
   -2.7825   35.7170   27.0705 H   0  0  0  0  0  0
   -3.3549   37.3081   27.6766 H   0  0  0  0  0  0
   -2.3024   37.5660   25.2825 H   0  0  0  0  0  0
   -2.4109   38.8456   23.6925 H   0  0  0  0  0  0
   -1.4550   39.4112   22.2808 H   0  0  0  0  0  0
   -1.5931   36.5008   23.2256 H   0  0  0  0  0  0
    0.4837   36.9374   21.9762 H   0  0  0  0  0  0
   -2.9784   38.2482   21.0092 H   0  0  0  0  0  0
   -4.0762   37.8328   23.3583 H   0  0  0  0  0  0
   -2.0640   36.4053   19.8360 H   0  0  0  0  0  0
   -4.4874   37.5030   19.3650 H   0  0  0  0  0  0
   -1.9550   34.7752   21.4534 H   0  0  0  0  0  0
   -3.7469   34.7349   21.5714 H   0  0  0  0  0  0
  1  2  1  0  0  0
  1 18  1  0  0  0
  1 32  1  0  0  0
  2  3  2  0  0  0
  2  4  1  0  0  0
  4  5  1  0  0  0
  4 33  1  0  0  0
  5  6  2  0  0  0
  5  7  1  0  0  0
  7  8  1  0  0  0
  7 18  2  0  0  0
  8  9  1  0  0  0
  8 34  1  0  0  0
  9 10  2  0  0  0
  9 16  1  0  0  0
 10 11  1  0  0  0
 10 35  1  0  0  0
 11 12  1  0  0  0
 11 13  2  0  0  0
 12 36  1  0  0  0
 12 37  1  0  0  0
 12 38  1  0  0  0
 13 14  1  0  0  0
 13 15  1  0  0  0
 14 39  1  0  0  0
 14 40  1  0  0  0
 14 41  1  0  0  0
 15 16  2  0  0  0
 15 42  1  0  0  0
 16 17  1  0  0  0
 17 18  1  0  0  0
 17 19  1  0  0  0
 19 20  1  0  0  0
 19 43  1  0  0  0
 19 44  1  0  0  0
 20 21  1  0  0  0
 20 22  1  0  0  0
 20 45  1  0  0  0
 21 46  1  0  0  0
 22 23  1  0  0  0
 22 24  1  0  0  0
 22 47  1  0  0  0
 23 48  1  0  0  0
 24 25  1  0  0  0
 24 26  1  0  0  0
 24 49  1  0  0  0
 25 50  1  0  0  0
 26 27  1  0  0  0
 26 51  1  0  0  0
 26 52  1  0  0  0
 27 28  1  0  0  0
 28 29  1  0  0  0
 28 30  1  0  0  0
 28 31  2  0  0  0
M  CHG  2  29  -1  30  -1
M  END
> <s_m_source_file>
../1aku_ligand.sdf

> <i_m_source_file_index>
1

> <s_epik_input>
Tz1jMVtuSF1jKD1PKVtuSF1jKGMxMilOKGMzYyhbTkhdMilbY0hdYyhbQ0gzXSljKFtDSDNdKVtjSF0zKVtDSDJdW0NASF0oW09IXSlbQ0BIXShbT0hdKVtDQEhdKFtPSF0pW0NIMl1PUCg9TykoW09IXSlbT0hd

> <s_epik_cmdline>
J2VwaWtfYXBwJywgJy1pbWFlJywgJ2xpZ2FuZF9wcm8ubWFlJywgJy1vbWFlJywgJ2xpZ2FuZF9wcmVwLm1hZScsICctbXMnLCAnMScsICctcGgnLCAnNycsICctcGh0JywgJzAuNScsICctbnQn

> <r_lp_tautomer_probability>
0.999801347257086

> <r_epik_Ionization_Penalty>
  0.1170

> <r_epik_Ionization_Penalty_Charging>
  0.1169

> <r_epik_Ionization_Penalty_Neutral>
  0.0001

> <r_epik_State_Penalty>
  0.1063

> <r_epik_Charging_Adjusted_Penalty>
0.223202144986923

> <i_epik_Tot_Q>
-2

> <i_epik_Tot_abs_Q>
2

$$$$
