1akw_ligand
                    3D
 Schrodinger Suite 2020-3.
 50 52  0  0  1  0            999 V2000
   -4.2130   36.2990   18.2440 N   0  0  0  0  0  0
   -3.2510   36.9960   18.9590 C   0  0  0  0  0  0
   -2.3890   37.8000   18.2920 O   0  0  0  0  0  0
   -3.1770   36.9490   20.3410 N   0  0  0  0  0  0
   -4.0500   36.1500   21.0580 C   0  0  0  0  0  0
   -3.8830   36.1220   22.4230 O   0  0  0  0  0  0
   -5.0310   35.4060   20.3250 C   0  0  0  0  0  0
   -5.8900   34.5820   21.0130 N   0  0  0  0  0  0
   -6.9130   33.9520   20.3070 C   0  0  0  0  0  0
   -7.8550   33.2420   21.1040 C   0  0  0  0  0  0
   -8.9200   32.6470   20.4080 C   0  0  0  0  0  0
   -9.9110   31.9230   21.1630 C   0  0  0  0  0  0
   -9.0110   32.7570   19.0140 C   0  0  0  0  0  0
  -10.0810   32.1400   18.2820 C   0  0  0  0  0  0
   -8.0570   33.4550   18.2480 C   0  0  0  0  0  0
   -6.9690   34.0750   18.9150 C   0  0  0  0  0  0
   -6.0340   34.7810   18.1620 N   0  0  0  0  0  0
   -5.1070   35.4870   18.9180 C   0  0  0  0  0  0
   -5.9800   34.9500   16.7580 C   0  0  0  0  0  0
   -5.3210   33.6920   16.1540 C   0  0  2  0  0  0
   -3.9360   33.6090   16.5550 O   0  0  0  0  0  0
   -5.4010   33.8000   14.6100 C   0  0  2  0  0  0
   -6.7470   33.4530   14.2750 O   0  0  0  0  0  0
   -4.4430   33.0190   13.8050 C   0  0  2  0  0  0
   -4.5980   33.3770   12.4100 O   0  0  0  0  0  0
   -4.5060   31.5910   13.9900 C   0  0  0  0  0  0
   -3.4330   31.0060   13.2410 O   0  0  0  0  0  0
   -3.3280   29.3950   12.8670 P   0  0  0  0  0  0
   -3.4330   28.5040   14.2550 O   0  0  0  0  0  0
   -1.8710   29.1220   12.0910 O   0  5  0  0  0  0
   -4.5160   28.9790   11.7880 O   0  5  0  0  0  0
   -2.4226   37.5480   20.8721 H   0  0  0  0  0  0
   -7.7559   33.1650   22.1868 H   0  0  0  0  0  0
   -9.6548   31.9577   22.2322 H   0  0  0  0  0  0
   -9.9363   30.8763   20.8257 H   0  0  0  0  0  0
  -10.8983   32.3824   21.0074 H   0  0  0  0  0  0
  -10.7575   31.6287   18.9827 H   0  0  0  0  0  0
   -9.6661   31.4084   17.5730 H   0  0  0  0  0  0
  -10.6392   32.9102   17.7296 H   0  0  0  0  0  0
   -8.1527   33.5176   17.1640 H   0  0  0  0  0  0
   -6.9997   35.0722   16.3639 H   0  0  0  0  0  0
   -5.3849   35.8437   16.5189 H   0  0  0  0  0  0
   -5.7842   32.7721   16.5404 H   0  0  0  0  0  0
   -3.6760   33.5262   17.6206 H   0  0  0  0  0  0
   -5.1475   34.8174   14.2774 H   0  0  0  0  0  0
   -7.5860   33.9469   14.7870 H   0  0  0  0  0  0
   -3.4299   33.2680   14.1539 H   0  0  0  0  0  0
   -4.5723   34.4342   12.1074 H   0  0  0  0  0  0
   -4.3992   31.3547   15.0590 H   0  0  0  0  0  0
   -5.4744   31.2165   13.6267 H   0  0  0  0  0  0
  1  2  1  0  0  0
  1 18  2  0  0  0
  2  3  2  0  0  0
  2  4  1  0  0  0
  4  5  1  0  0  0
  4 32  1  0  0  0
  5  6  2  0  0  0
  5  7  1  0  0  0
  7  8  2  0  0  0
  7 18  1  0  0  0
  8  9  1  0  0  0
  9 10  2  0  0  0
  9 16  1  0  0  0
 10 11  1  0  0  0
 10 33  1  0  0  0
 11 12  1  0  0  0
 11 13  2  0  0  0
 12 34  1  0  0  0
 12 35  1  0  0  0
 12 36  1  0  0  0
 13 14  1  0  0  0
 13 15  1  0  0  0
 14 37  1  0  0  0
 14 38  1  0  0  0
 14 39  1  0  0  0
 15 16  2  0  0  0
 15 40  1  0  0  0
 16 17  1  0  0  0
 17 18  1  0  0  0
 17 19  1  0  0  0
 19 20  1  0  0  0
 19 41  1  0  0  0
 19 42  1  0  0  0
 20 21  1  0  0  0
 20 22  1  0  0  0
 20 43  1  0  0  0
 21 44  1  0  0  0
 22 23  1  0  0  0
 22 24  1  0  0  0
 22 45  1  0  0  0
 23 46  1  0  0  0
 24 25  1  0  0  0
 24 26  1  0  0  0
 24 47  1  0  0  0
 25 48  1  0  0  0
 26 27  1  0  0  0
 26 49  1  0  0  0
 26 50  1  0  0  0
 27 28  1  0  0  0
 28 29  2  0  0  0
 28 30  1  0  0  0
 28 31  1  0  0  0
M  CHG  2  30  -1  31  -1
M  END
> <s_m_source_file>
../1akw_ligand.sdf

> <i_m_source_file_index>
1

> <s_epik_input>
Tz1jMVtuSF1jKD1PKW5jKGMxMiluKGMzYyhuMilbY0hdYyhbQ0gzXSljKFtDSDNdKVtjSF0zKVtDSDJdW0NASF0oW09IXSlbQ0BIXShbT0hdKVtDQEhdKFtPSF0pW0NIMl1PUCg9TykoW09IXSlbT0hd

> <s_epik_cmdline>
J2VwaWtfYXBwJywgJy1pbWFlJywgJ2xpZ2FuZF9wcm8ubWFlJywgJy1vbWFlJywgJ2xpZ2FuZF9wcmVwLm1hZScsICctbXMnLCAnMScsICctcGgnLCAnNycsICctcGh0JywgJzAuNScsICctbnQn

> <r_epik_Ionization_Penalty>
  0.1164

> <r_epik_Ionization_Penalty_Charging>
  0.1164

> <r_epik_Ionization_Penalty_Neutral>
  0.0000

> <r_epik_State_Penalty>
  0.1054

> <r_epik_Charging_Adjusted_Penalty>
0.2218027979184

> <i_epik_Tot_Q>
-2

> <i_epik_Tot_abs_Q>
2

$$$$
