1al7_ligand
                    3D
 Schrodinger Suite 2020-3.
 44 44  0  0  1  0            999 V2000
   47.0180   53.0920   19.9480 N   0  0  0  0  0  0
   47.4880   53.6560   21.0750 N   0  3  0  0  0  0
   48.2280   54.7350   20.7700 N   0  0  0  0  0  0
   47.4680   53.8400   18.8920 C   0  0  0  0  0  0
   48.2410   54.8740   19.3950 C   0  0  0  0  0  0
   49.2300   55.7830   18.6680 C   0  0  0  0  0  0
   49.9400   56.5930   19.2470 O   0  0  0  0  0  0
   49.0570   55.8320   17.3220 O   0  5  0  0  0  0
   46.7560   53.8760   17.2990 S   0  0  0  0  0  0
   44.2430   58.3890   13.6330 C   0  0  0  0  0  0
   45.0680   57.1010   13.7820 C   0  0  0  0  0  0
   44.7280   56.2790   15.0390 C   0  0  0  0  0  0
   44.8490   57.0740   16.3570 C   0  0  0  0  0  0
   45.4970   56.2620   17.4910 C   0  0  0  0  0  0
   45.1820   54.7540   17.4800 C   0  0  0  0  0  0
   44.4670   54.1980   18.7400 C   0  0  0  0  0  0
   44.2220   55.2430   19.8460 C   0  0  0  0  0  0
   42.7500   55.2870   20.2900 C   0  0  0  0  0  0
   42.5450   55.0110   21.7890 C   0  0  0  0  0  0
   41.3780   54.0590   22.0950 C   0  0  0  0  0  0
   44.5458   58.9142   12.7151 H   0  0  0  0  0  0
   44.4185   59.0395   14.5025 H   0  0  0  0  0  0
   43.1743   58.1352   13.5747 H   0  0  0  0  0  0
   44.8925   56.4505   12.9125 H   0  0  0  0  0  0
   46.1367   57.3548   13.8403 H   0  0  0  0  0  0
   43.6916   55.9168   14.9710 H   0  0  0  0  0  0
   45.4123   55.4208   15.1121 H   0  0  0  0  0  0
   45.4678   57.9680   16.1904 H   0  0  0  0  0  0
   43.8475   57.3790   16.6945 H   0  0  0  0  0  0
   46.5914   56.3539   17.4287 H   0  0  0  0  0  0
   45.1514   56.6472   18.4616 H   0  0  0  0  0  0
   44.3767   54.7032   16.7324 H   0  0  0  0  0  0
   43.4837   53.7951   18.4558 H   0  0  0  0  0  0
   45.0767   53.3975   19.1843 H   0  0  0  0  0  0
   44.8362   54.9975   20.7249 H   0  0  0  0  0  0
   44.4962   56.2414   19.4744 H   0  0  0  0  0  0
   42.3339   56.2837   20.0818 H   0  0  0  0  0  0
   42.1774   54.5278   19.7371 H   0  0  0  0  0  0
   43.4548   54.5539   22.2054 H   0  0  0  0  0  0
   42.3380   55.9568   22.3110 H   0  0  0  0  0  0
   41.2986   53.9140   23.1825 H   0  0  0  0  0  0
   41.5585   53.0893   21.6080 H   0  0  0  0  0  0
   40.4417   54.4923   21.7135 H   0  0  0  0  0  0
   47.2424   53.2173   22.0534 H   0  0  0  0  0  0
  1  2  2  0  0  0
  1  4  1  0  0  0
  2  3  1  0  0  0
  2 44  1  0  0  0
  3  5  1  0  0  0
  4  5  2  0  0  0
  4  9  1  0  0  0
  5  6  1  0  0  0
  6  7  2  0  0  0
  6  8  1  0  0  0
  9 15  1  0  0  0
 10 11  1  0  0  0
 10 21  1  0  0  0
 10 22  1  0  0  0
 10 23  1  0  0  0
 11 12  1  0  0  0
 11 24  1  0  0  0
 11 25  1  0  0  0
 12 13  1  0  0  0
 12 26  1  0  0  0
 12 27  1  0  0  0
 13 14  1  0  0  0
 13 28  1  0  0  0
 13 29  1  0  0  0
 14 15  1  0  0  0
 14 30  1  0  0  0
 14 31  1  0  0  0
 15 16  1  0  0  0
 15 32  1  0  0  0
 16 17  1  0  0  0
 16 33  1  0  0  0
 16 34  1  0  0  0
 17 18  1  0  0  0
 17 35  1  0  0  0
 17 36  1  0  0  0
 18 19  1  0  0  0
 18 37  1  0  0  0
 18 38  1  0  0  0
 19 20  1  0  0  0
 19 39  1  0  0  0
 19 40  1  0  0  0
 20 41  1  0  0  0
 20 42  1  0  0  0
 20 43  1  0  0  0
M  CHG  2   2   1   8  -1
M  END
> <s_m_source_file>
../1al7_ligand.sdf

> <i_m_source_file_index>
1

> <s_epik_input>
Tz1DKFtPSF0pYzFbbkhdbm5jMVNbQ0hdKFtDSDJdW0NIMl1bQ0gyXVtDSDJdW0NIM10pW0NIMl1bQ0gyXVtDSDJdW0NIMl1bQ0gzXQ==

> <s_epik_cmdline>
J2VwaWtfYXBwJywgJy1pbWFlJywgJ2xpZ2FuZF9wcm8ubWFlJywgJy1vbWFlJywgJ2xpZ2FuZF9wcmVwLm1hZScsICctbXMnLCAnMScsICctcGgnLCAnNycsICctcGh0JywgJzAuNScsICctbnQn

> <r_epik_Ionization_Penalty>
  0.0000

> <r_epik_Ionization_Penalty_Charging>
  0.0000

> <r_epik_Ionization_Penalty_Neutral>
  0.0000

> <r_epik_State_Penalty>
  0.0107

> <r_epik_Charging_Adjusted_Penalty>
0.0107226351678684

> <i_epik_Tot_Q>
0

> <i_epik_Tot_abs_Q>
2

$$$$
