1al8_ligand
                    3D
 Schrodinger Suite 2020-3.
 40 40  0  0  1  0            999 V2000
   24.3430   71.5920   -4.9150 N   0  0  0  0  0  0
   24.5940   71.4280   -7.0310 C   0  0  0  0  0  0
   24.9670   71.1230   -8.1090 O   0  5  0  0  0  0
   25.0730   71.0360   -5.8620 C   0  0  0  0  0  0
   26.1220   70.2170   -5.5960 O   0  0  0  0  0  0
   23.4580   72.4250   -5.5130 C   0  0  0  0  0  0
   22.8420   73.0620   -4.3450 O   0  0  0  0  0  0
   23.5260   72.2910   -6.8530 C   0  0  0  0  0  0
   22.6320   72.9080   -7.9440 C   0  0  0  0  0  0
   23.2680   74.1170   -8.6570 C   0  0  0  0  0  0
   22.3660   74.6850   -9.7710 C   0  0  0  0  0  0
   22.2790   73.7670  -11.0050 C   0  0  0  0  0  0
   22.5100   74.5270  -12.3220 C   0  0  0  0  0  0
   22.6420   73.5990  -13.5460 C   0  0  0  0  0  0
   24.0440   73.6590  -14.1820 C   0  0  0  0  0  0
   24.0060   73.7420  -15.7190 C   0  0  0  0  0  0
   24.3820   72.4130  -16.3980 C   0  0  0  0  0  0
   25.7620   72.4990  -17.1330 C   0  0  0  0  0  0
   24.5236   71.3371   -3.8603 H   0  0  0  0  0  0
   22.4164   72.1513   -8.7127 H   0  0  0  0  0  0
   21.6892   73.2525   -7.4941 H   0  0  0  0  0  0
   23.4508   74.9189   -7.9266 H   0  0  0  0  0  0
   24.2213   73.8133   -9.1142 H   0  0  0  0  0  0
   21.3454   74.8197   -9.3834 H   0  0  0  0  0  0
   22.7625   75.6552  -10.1048 H   0  0  0  0  0  0
   23.0429   72.9790  -10.9303 H   0  0  0  0  0  0
   21.2808   73.3070  -11.0501 H   0  0  0  0  0  0
   21.6627   75.2032  -12.5086 H   0  0  0  0  0  0
   23.4378   75.1134  -12.2491 H   0  0  0  0  0  0
   22.4527   72.5595  -13.2401 H   0  0  0  0  0  0
   21.9095   73.8951  -14.3114 H   0  0  0  0  0  0
   24.5762   74.5482  -13.8131 H   0  0  0  0  0  0
   24.6087   72.7548  -13.9107 H   0  0  0  0  0  0
   22.9910   74.0111  -16.0467 H   0  0  0  0  0  0
   24.7172   74.5076  -16.0626 H   0  0  0  0  0  0
   24.4460   71.6190  -15.6394 H   0  0  0  0  0  0
   23.6137   72.1501  -17.1400 H   0  0  0  0  0  0
   25.9888   71.5301  -17.6018 H   0  0  0  0  0  0
   26.5495   72.7481  -16.4065 H   0  0  0  0  0  0
   25.7171   73.2793  -17.9071 H   0  0  0  0  0  0
  1  4  1  0  0  0
  1  6  1  0  0  0
  1 19  1  0  0  0
  2  3  1  0  0  0
  2  4  1  0  0  0
  2  8  2  0  0  0
  4  5  2  0  0  0
  6  7  2  0  0  0
  6  8  1  0  0  0
  8  9  1  0  0  0
  9 10  1  0  0  0
  9 20  1  0  0  0
  9 21  1  0  0  0
 10 11  1  0  0  0
 10 22  1  0  0  0
 10 23  1  0  0  0
 11 12  1  0  0  0
 11 24  1  0  0  0
 11 25  1  0  0  0
 12 13  1  0  0  0
 12 26  1  0  0  0
 12 27  1  0  0  0
 13 14  1  0  0  0
 13 28  1  0  0  0
 13 29  1  0  0  0
 14 15  1  0  0  0
 14 30  1  0  0  0
 14 31  1  0  0  0
 15 16  1  0  0  0
 15 32  1  0  0  0
 15 33  1  0  0  0
 16 17  1  0  0  0
 16 34  1  0  0  0
 16 35  1  0  0  0
 17 18  1  0  0  0
 17 36  1  0  0  0
 17 37  1  0  0  0
 18 38  1  0  0  0
 18 39  1  0  0  0
 18 40  1  0  0  0
M  CHG  1   3  -1
M  END
> <s_m_source_file>
../1al8_ligand.sdf

> <i_m_source_file_index>
1

> <s_epik_input>
Tz1DMVtOSF1DKD1PKUMoPUMxW09IXSlbQ0gyXVtDSDJdW0NIMl1bQ0gyXVtDSDJdW0NIMl1bQ0gyXVtDSDJdW0NIMl1bQ0gzXQ==

> <s_epik_cmdline>
J2VwaWtfYXBwJywgJy1pbWFlJywgJ2xpZ2FuZF9wcm8ubWFlJywgJy1vbWFlJywgJ2xpZ2FuZF9wcmVwLm1hZScsICctbXMnLCAnMScsICctcGgnLCAnNycsICctcGh0JywgJzAuNScsICctbnQn

> <r_lp_tautomer_probability>
1

> <r_epik_Ionization_Penalty>
  0.0000

> <r_epik_Ionization_Penalty_Charging>
  0.0000

> <r_epik_Ionization_Penalty_Neutral>
  0.0000

> <r_epik_State_Penalty>
 -0.0000

> <r_epik_Charging_Adjusted_Penalty>
7.03227119875879e-06

> <i_epik_Tot_Q>
-1

> <i_epik_Tot_abs_Q>
1

$$$$
