1alw_ligand
                    3D
 Schrodinger Suite 2020-3.
 21 21  0  0  1  0            999 V2000
    8.6510  -49.7830   37.4240 C   0  0  0  0  0  0
    8.9710  -49.0630   36.2960 C   0  0  0  0  0  0
    9.8710  -49.5360   35.4390 C   0  0  0  0  0  0
    9.2470  -50.9610   37.7170 C   0  0  0  0  0  0
   10.1790  -51.4610   36.8290 C   0  0  0  0  0  0
   10.4930  -50.7460   35.6640 C   0  0  0  0  0  0
   11.3660  -51.2980   34.6640 C   0  0  0  0  0  0
   10.6520  -52.2670   33.6740 C   0  0  2  0  0  0
   11.8800  -53.0310   32.7030 S   0  0  0  0  0  0
    9.6110  -51.5540   32.8530 C   0  0  0  0  0  0
    9.9350  -50.4380   32.3120 O   0  0  0  0  0  0
    8.4560  -52.1140   32.7060 O   0  5  0  0  0  0
    7.8933  -49.3916   38.1028 H   0  0  0  0  0  0
    8.4869  -48.1052   36.1050 H   0  0  0  0  0  0
   10.1202  -48.9602   34.5477 H   0  0  0  0  0  0
    8.9983  -51.5017   38.6302 H   0  0  0  0  0  0
   10.6709  -52.4119   37.0337 H   0  0  0  0  0  0
   11.8015  -50.4830   34.0672 H   0  0  0  0  0  0
   12.1716  -51.8652   35.1532 H   0  0  0  0  0  0
    9.9982  -52.9332   34.2560 H   0  0  0  0  0  0
   12.6981  -53.5849   33.1867 H   0  0  0  0  0  0
  1  4  2  0  0  0
  1  2  1  0  0  0
  1 13  1  0  0  0
  2  3  2  0  0  0
  2 14  1  0  0  0
  3  6  1  0  0  0
  3 15  1  0  0  0
  4  5  1  0  0  0
  4 16  1  0  0  0
  5  6  2  0  0  0
  5 17  1  0  0  0
  6  7  1  0  0  0
  7  8  1  0  0  0
  7 18  1  0  0  0
  7 19  1  0  0  0
  8 10  1  0  0  0
  8  9  1  0  0  0
  8 20  1  0  0  0
  9 21  1  0  0  0
 10 12  1  0  0  0
 10 11  2  0  0  0
M  CHG  1  12  -1
M  END
> <s_m_source_file>
../1alw_ligand.sdf

> <i_m_source_file_index>
1

> <s_epik_input>
W2NIXTFbY0hdW2NIXVtjSF1bY0hdYzFbQ0gyXVtDQEhdKFtTSF0pQyg9TylbT0hd

> <s_epik_cmdline>
J2VwaWtfYXBwJywgJy1pbWFlJywgJ2xpZ2FuZF9wcm8ubWFlJywgJy1vbWFlJywgJ2xpZ2FuZF9wcmVwLm1hZScsICctbXMnLCAnMScsICctcGgnLCAnNycsICctcGh0JywgJzAuNScsICctbnQn

> <r_lp_tautomer_probability>
1

> <r_epik_Ionization_Penalty>
  0.0005

> <r_epik_Ionization_Penalty_Charging>
  0.0003

> <r_epik_Ionization_Penalty_Neutral>
  0.0003

> <r_epik_State_Penalty>
 -0.0000

> <r_epik_Charging_Adjusted_Penalty>
0.000270009446907948

> <i_epik_Tot_Q>
-1

> <i_epik_Tot_abs_Q>
1

$$$$
