1amw_ligand
                    3D
 Schrodinger Suite 2020-3.
 39 41  0  0  1  0            999 V2000
   10.5090   -4.8700   -3.7360 P   0  0  0  0  0  0
    9.7050   -4.2170   -4.8630 O   0  5  0  0  0  0
   11.8930   -5.5900   -4.2890 O   0  5  0  0  0  0
    9.6530   -5.8370   -2.9410 O   0  0  0  0  0  0
   11.8240   -3.9720   -1.4370 P   0  0  1  0  0  0
   10.9340   -3.5680   -0.3250 O   0  0  0  0  0  0
   12.2960   -5.3730   -1.2860 O   0  5  0  0  0  0
   11.0700   -3.7970   -2.7730 O   0  0  0  0  0  0
   13.0580   -2.9530   -1.6250 O   0  0  0  0  0  0
   12.7730   -1.5790   -1.7630 C   0  0  0  0  0  0
   13.2040   -1.0410   -3.1430 C   0  0  1  0  0  0
   14.5870   -0.6290   -3.0930 O   0  0  0  0  0  0
   13.0680   -1.9640   -4.3440 C   0  0  1  0  0  0
   11.8090   -1.8630   -5.0130 O   0  0  0  0  0  0
   14.2060   -1.5650   -5.2380 C   0  0  1  0  0  0
   13.8390   -0.5360   -6.1600 O   0  0  0  0  0  0
   15.2700   -1.1150   -4.2620 C   0  0  2  0  0  0
   16.2860   -2.1950   -4.0060 N   0  0  0  0  0  0
   16.3210   -3.0830   -2.9990 C   0  0  0  0  0  0
   17.4040   -3.8670   -3.1510 N   0  0  0  0  0  0
   18.0520   -3.4790   -4.2370 C   0  0  0  0  0  0
   19.2190   -3.8720   -4.9270 C   0  0  0  0  0  0
   19.9740   -4.8930   -4.4760 N   0  0  0  0  0  0
   19.5980   -3.2110   -6.0710 N   0  0  0  0  0  0
   18.8800   -2.1790   -6.5710 C   0  0  0  0  0  0
   17.7600   -1.8000   -5.9240 N   0  0  0  0  0  0
   17.3230   -2.4050   -4.7840 C   0  0  0  0  0  0
   11.6909   -1.4160   -1.6511 H   0  0  0  0  0  0
   13.3111   -1.0133   -0.9881 H   0  0  0  0  0  0
   12.5384   -0.1854   -3.3298 H   0  0  0  0  0  0
   13.0568   -3.0300   -4.0728 H   0  0  0  0  0  0
   10.8816   -2.1235   -4.4820 H   0  0  0  0  0  0
   14.5287   -2.3553   -5.9317 H   0  0  0  0  0  0
   13.0737   -0.7309   -6.9257 H   0  0  0  0  0  0
   15.8651   -0.2651   -4.6275 H   0  0  0  0  0  0
   15.5923   -3.1565   -2.1917 H   0  0  0  0  0  0
   19.6824   -5.4307   -3.5618 H   0  0  0  0  0  0
   20.8819   -5.1887   -5.0221 H   0  0  0  0  0  0
   19.2004   -1.6652   -7.4774 H   0  0  0  0  0  0
  1  2  1  0  0  0
  1  3  1  0  0  0
  1  4  2  0  0  0
  1  8  1  0  0  0
  5  6  2  0  0  0
  5  7  1  0  0  0
  5  8  1  0  0  0
  5  9  1  0  0  0
  9 10  1  0  0  0
 10 11  1  0  0  0
 10 28  1  0  0  0
 10 29  1  0  0  0
 11 12  1  0  0  0
 11 13  1  0  0  0
 11 30  1  0  0  0
 12 17  1  0  0  0
 13 14  1  0  0  0
 13 15  1  0  0  0
 13 31  1  0  0  0
 14 32  1  0  0  0
 15 16  1  0  0  0
 15 17  1  0  0  0
 15 33  1  0  0  0
 16 34  1  0  0  0
 17 18  1  0  0  0
 17 35  1  0  0  0
 18 19  1  0  0  0
 18 27  1  0  0  0
 19 20  2  0  0  0
 19 36  1  0  0  0
 20 21  1  0  0  0
 21 22  2  0  0  0
 21 27  1  0  0  0
 22 23  1  0  0  0
 22 24  1  0  0  0
 23 37  1  0  0  0
 23 38  1  0  0  0
 24 25  2  0  0  0
 25 26  1  0  0  0
 25 39  1  0  0  0
 26 27  2  0  0  0
M  CHG  3   2  -1   3  -1   7  -1
M  END
> <s_m_source_file>
../1amw_ligand.sdf

> <i_m_source_file_index>
1

> <s_epik_input>
W09IXVAoPU8pKFtPSF0pT1tQQEBdKD1PKShbT0hdKU9bQ0gyXVtDQEhdMU9bQ0BIXShbQ0BIXShbT0hdKVtDQEBIXTFbT0hdKW4oW2NIXW4yKWMoYzIzKW5bY0hdbmMzW05IMl0=

> <s_epik_cmdline>
J2VwaWtfYXBwJywgJy1pbWFlJywgJ2xpZ2FuZF9wcm8ubWFlJywgJy1vbWFlJywgJ2xpZ2FuZF9wcmVwLm1hZScsICctbXMnLCAnMScsICctcGgnLCAnNycsICctcGh0JywgJzAuNScsICctbnQn

> <r_lp_tautomer_probability>
0.999997216410988

> <r_epik_Ionization_Penalty>
  0.1037

> <r_epik_Ionization_Penalty_Charging>
  0.1033

> <r_epik_Ionization_Penalty_Neutral>
  0.0004

> <r_epik_State_Penalty>
  0.0922

> <r_epik_Charging_Adjusted_Penalty>
0.19546844050481

> <i_epik_Tot_Q>
-3

> <i_epik_Tot_abs_Q>
3

> <s_epik_Chemistry_Notes>
This compound contains an acetal/aminal-like group ( X-CH(R)-Y where X, Y are N, S, or O) that may be acid/base labile, releasing an aldehyde.

$$$$
