1anf_ligand
                    3D
 Schrodinger Suite 2020-3.
 45 46  0  0  1  0            999 V2000
   11.3820   15.5960   41.1810 C   0  0  2  0  0  0
   10.6860   16.0920   42.4640 C   0  0  1  0  0  0
   10.2520   17.5280   42.3090 C   0  0  2  0  0  0
   11.4890   18.3650   41.8450 C   0  0  1  0  0  0
   12.1020   17.8100   40.5770 C   0  0  1  0  0  0
   13.4220   18.4800   40.3150 C   0  0  0  0  0  0
    9.5900   15.2330   42.8480 O   0  0  0  0  0  0
    9.7560   18.1050   43.5280 O   0  0  0  0  0  0
   11.1360   19.7490   41.6240 O   0  0  0  0  0  0
   12.4060   16.4200   40.8060 O   0  0  0  0  0  0
   13.9080   18.1910   38.9310 O   0  0  0  0  0  0
    8.5370   13.1410   37.4360 C   0  0  1  0  0  0
    8.6570   12.6250   38.8660 C   0  0  1  0  0  0
    8.9460   13.7530   39.8190 C   0  0  2  0  0  0
   10.1450   14.5230   39.3600 C   0  0  1  0  0  0
    9.8470   15.1610   37.9650 C   0  0  1  0  0  0
   11.1090   15.8230   37.3730 C   0  0  0  0  0  0
    7.3430   13.7470   37.2600 O   0  0  0  0  0  0
    7.4300   12.0310   39.2450 O   0  0  0  0  0  0
    9.2530   13.1490   41.0940 O   0  0  0  0  0  0
   10.3170   15.6750   40.2450 O   0  0  0  0  0  0
    9.3520   14.1830   37.0850 O   0  0  0  0  0  0
   10.5830   16.5420   36.2380 O   0  0  0  0  0  0
   11.8946   14.6229   41.2005 H   0  0  0  0  0  0
   11.3673   16.0258   43.3251 H   0  0  0  0  0  0
    9.3824   17.5443   41.6355 H   0  0  0  0  0  0
   12.2479   18.3712   42.6412 H   0  0  0  0  0  0
   11.4089   17.9231   39.7303 H   0  0  0  0  0  0
   13.3095   19.5684   40.4279 H   0  0  0  0  0  0
   14.1690   18.1121   41.0338 H   0  0  0  0  0  0
    9.7610   14.1567   42.9973 H   0  0  0  0  0  0
    8.8808   17.6650   44.0285 H   0  0  0  0  0  0
   10.6733   20.3344   42.4322 H   0  0  0  0  0  0
   14.8639   18.6111   38.5848 H   0  0  0  0  0  0
    8.7307   12.2945   36.7608 H   0  0  0  0  0  0
    9.4361   11.8518   38.9382 H   0  0  0  0  0  0
    8.0864   14.4325   39.9158 H   0  0  0  0  0  0
   11.0162   13.8523   39.3935 H   0  0  0  0  0  0
    9.0288   15.8939   38.0242 H   0  0  0  0  0  0
   11.5624   16.4857   38.1248 H   0  0  0  0  0  0
   11.8316   15.0445   37.0871 H   0  0  0  0  0  0
    6.4119   13.1946   37.4545 H   0  0  0  0  0  0
    7.0314   11.1797   38.6737 H   0  0  0  0  0  0
    8.4985   12.5351   41.6077 H   0  0  0  0  0  0
   11.2580   17.1290   35.5979 H   0  0  0  0  0  0
  1  2  1  0  0  0
  1 10  1  0  0  0
  1 21  1  0  0  0
  1 24  1  0  0  0
  2  3  1  0  0  0
  2  7  1  0  0  0
  2 25  1  0  0  0
  3  4  1  0  0  0
  3  8  1  0  0  0
  3 26  1  0  0  0
  4  5  1  0  0  0
  4  9  1  0  0  0
  4 27  1  0  0  0
  5  6  1  0  0  0
  5 10  1  0  0  0
  5 28  1  0  0  0
  6 11  1  0  0  0
  6 29  1  0  0  0
  6 30  1  0  0  0
  7 31  1  0  0  0
  8 32  1  0  0  0
  9 33  1  0  0  0
 11 34  1  0  0  0
 12 13  1  0  0  0
 12 18  1  0  0  0
 12 22  1  0  0  0
 12 35  1  0  0  0
 13 14  1  0  0  0
 13 19  1  0  0  0
 13 36  1  0  0  0
 14 15  1  0  0  0
 14 20  1  0  0  0
 14 37  1  0  0  0
 15 16  1  0  0  0
 15 21  1  0  0  0
 15 38  1  0  0  0
 16 17  1  0  0  0
 16 22  1  0  0  0
 16 39  1  0  0  0
 17 23  1  0  0  0
 17 40  1  0  0  0
 17 41  1  0  0  0
 18 42  1  0  0  0
 19 43  1  0  0  0
 20 44  1  0  0  0
 23 45  1  0  0  0
M  END
> <s_m_source_file>
../1anf_ligand.sdf

> <i_m_source_file_index>
1

> <s_epik_input>
W09IXVtDQEBIXTFbQ0BIXShbT0hdKVtDQEBIXShbT0hdKVtDQEBIXShbQ0BIXShPMSlbQ0gyXVtPSF0pT1tDQEBIXTJbQ0BIXShbT0hdKVtDQEBIXShbT0hdKVtDQEhdKFtPSF0pW0NASF0oTzIpW0NIMl1bT0hd

> <s_epik_cmdline>
J2VwaWtfYXBwJywgJy1pbWFlJywgJ2xpZ2FuZF9wcm8ubWFlJywgJy1vbWFlJywgJ2xpZ2FuZF9wcmVwLm1hZScsICctbXMnLCAnMScsICctcGgnLCAnNycsICctcGh0JywgJzAuNScsICctbnQn

> <r_lp_tautomer_probability>
1

> <r_epik_Ionization_Penalty>
  0.0000

> <r_epik_Ionization_Penalty_Charging>
  0.0000

> <r_epik_Ionization_Penalty_Neutral>
  0.0000

> <r_epik_State_Penalty>
 -0.0000

> <r_epik_Charging_Adjusted_Penalty>
0

> <i_epik_Tot_Q>
0

> <i_epik_Tot_abs_Q>
0

> <s_epik_Chemistry_Notes>
This compound contains an acetal/aminal-like group ( X-CH(R)-Y where X, Y are N, S, or O) that may be acid/base labile, releasing an aldehyde.

$$$$
