1ao0_ligand
                    3D
 Schrodinger Suite 2020-3.
 39 41  0  0  1  0            999 V2000
   15.0100   11.7900   76.4930 P   0  0  0  0  0  0
   14.1260   12.5010   77.4630 O   0  0  0  0  0  0
   14.7100   12.2550   75.0970 O   0  5  0  0  0  0
   16.4460   12.0540   76.8330 O   0  5  0  0  0  0
   14.9380    9.2270   75.4230 P   0  0  1  0  0  0
   14.4320    9.7940   74.1480 O   0  0  0  0  0  0
   16.3230    8.6660   75.4840 O   0  5  0  0  0  0
   14.7070   10.2380   76.6180 O   0  0  0  0  0  0
   13.9570    8.0960   75.8760 O   0  0  0  0  0  0
   13.3820    8.1670   77.1480 C   0  0  0  0  0  0
   12.3740    7.0920   77.2630 C   0  0  1  0  0  0
   12.8680    5.9400   76.5650 O   0  0  0  0  0  0
   12.1120    6.6280   78.6770 C   0  0  1  0  0  0
   11.0370    7.4020   79.2020 O   0  0  0  0  0  0
   11.8710    5.1080   78.5560 C   0  0  1  0  0  0
   10.6200    4.6040   78.9300 O   0  0  0  0  0  0
   12.1850    4.8390   77.0780 C   0  0  2  0  0  0
   12.8700    3.6310   76.6660 N   0  0  0  0  0  0
   14.0200    3.0550   77.1130 C   0  0  0  0  0  0
   14.3560    1.9750   76.4530 N   0  0  0  0  0  0
   13.3430    1.8280   75.5060 C   0  0  0  0  0  0
   13.1120    0.8660   74.4770 C   0  0  0  0  0  0
   13.9410   -0.1360   74.1990 N   0  0  0  0  0  0
   11.9950    0.9940   73.7370 N   0  0  0  0  0  0
   11.1720    2.0360   74.0000 C   0  0  0  0  0  0
   11.2900    3.0080   74.9160 N   0  0  0  0  0  0
   12.4160    2.8360   75.6440 C   0  0  0  0  0  0
   14.1630    8.0347   77.9113 H   0  0  0  0  0  0
   12.9031    9.1485   77.2797 H   0  0  0  0  0  0
   11.4526    7.4940   76.8164 H   0  0  0  0  0  0
   12.8918    6.8366   79.4242 H   0  0  0  0  0  0
   11.1463    8.4909   79.3132 H   0  0  0  0  0  0
   12.4112    4.5282   79.3189 H   0  0  0  0  0  0
   10.2646    4.7259   79.9639 H   0  0  0  0  0  0
   11.2198    4.6907   76.5716 H   0  0  0  0  0  0
   14.6051    3.4547   77.9412 H   0  0  0  0  0  0
   14.8620   -0.2669   74.7861 H   0  0  0  0  0  0
   13.7057   -0.8340   73.3820 H   0  0  0  0  0  0
   10.2813    2.0934   73.3744 H   0  0  0  0  0  0
  1  2  2  0  0  0
  1  3  1  0  0  0
  1  4  1  0  0  0
  1  8  1  0  0  0
  5  6  2  0  0  0
  5  7  1  0  0  0
  5  8  1  0  0  0
  5  9  1  0  0  0
  9 10  1  0  0  0
 10 11  1  0  0  0
 10 28  1  0  0  0
 10 29  1  0  0  0
 11 12  1  0  0  0
 11 13  1  0  0  0
 11 30  1  0  0  0
 12 17  1  0  0  0
 13 14  1  0  0  0
 13 15  1  0  0  0
 13 31  1  0  0  0
 14 32  1  0  0  0
 15 16  1  0  0  0
 15 17  1  0  0  0
 15 33  1  0  0  0
 16 34  1  0  0  0
 17 18  1  0  0  0
 17 35  1  0  0  0
 18 19  1  0  0  0
 18 27  1  0  0  0
 19 20  2  0  0  0
 19 36  1  0  0  0
 20 21  1  0  0  0
 21 22  2  0  0  0
 21 27  1  0  0  0
 22 23  1  0  0  0
 22 24  1  0  0  0
 23 37  1  0  0  0
 23 38  1  0  0  0
 24 25  2  0  0  0
 25 26  1  0  0  0
 25 39  1  0  0  0
 26 27  2  0  0  0
M  CHG  3   3  -1   4  -1   7  -1
M  END
> <s_m_source_file>
../1ao0_ligand.sdf

> <i_m_source_file_index>
1

> <s_epik_input>
Tz1QKFtPSF0pKFtPSF0pT1tQQEBdKD1PKShbT0hdKU9bQ0gyXVtDQEhdMU9bQ0BIXShbQ0BIXShbT0hdKVtDQEBIXTFbT0hdKW4oW2NIXW4yKWMoYzIzKW5bY0hdbmMzW05IMl0=

> <s_epik_cmdline>
J2VwaWtfYXBwJywgJy1pbWFlJywgJ2xpZ2FuZF9wcm8ubWFlJywgJy1vbWFlJywgJ2xpZ2FuZF9wcmVwLm1hZScsICctbXMnLCAnMScsICctcGgnLCAnNycsICctcGh0JywgJzAuNScsICctbnQn

> <r_lp_tautomer_probability>
0.999997216410988

> <r_epik_Ionization_Penalty>
  0.1037

> <r_epik_Ionization_Penalty_Charging>
  0.1033

> <r_epik_Ionization_Penalty_Neutral>
  0.0004

> <r_epik_State_Penalty>
  0.0922

> <r_epik_Charging_Adjusted_Penalty>
0.19546844050481

> <i_epik_Tot_Q>
-3

> <i_epik_Tot_abs_Q>
3

> <s_epik_Chemistry_Notes>
This compound contains an acetal/aminal-like group ( X-CH(R)-Y where X, Y are N, S, or O) that may be acid/base labile, releasing an aldehyde.

$$$$
