1ao8_ligand
                    3D
 Schrodinger Suite 2020-3.
 53 55  0  0  1  0            999 V2000
  127.6620    0.7230    7.1290 N   0  0  0  0  0  0
  127.6170   -0.3910    6.3580 C   0  0  0  0  0  0
  127.1380   -1.5570    6.9320 N   0  0  0  0  0  0
  128.0110   -0.4400    5.0510 N   0  0  0  0  0  0
  128.4900    0.6980    4.4550 C   0  0  0  0  0  0
  128.8950    0.6710    3.1310 N   0  0  0  0  0  0
  128.5660    1.9020    5.2010 C   0  0  0  0  0  0
  129.0450    3.0830    4.6370 N   0  0  0  0  0  0
  129.1030    4.2190    5.3880 C   0  0  0  0  0  0
  128.6820    4.2130    6.7330 C   0  0  0  0  0  0
  128.2080    3.0780    7.3200 N   0  0  0  0  0  0
  128.1360    1.8990    6.5800 C   0  0  0  0  0  0
  129.6210    5.4750    4.7520 C   0  0  0  0  0  0
  130.1940    6.4240    5.6980 N   0  0  0  0  0  0
  129.5000    7.6780    5.9630 C   0  0  0  0  0  0
  133.8680    5.5580    7.6710 C   0  0  0  0  0  0
  132.8900    6.3580    8.3130 C   0  0  0  0  0  0
  131.6660    6.6470    7.6580 C   0  0  0  0  0  0
  131.4140    6.1340    6.3520 C   0  0  0  0  0  0
  132.4030    5.3280    5.7110 C   0  0  0  0  0  0
  133.6250    5.0440    6.3710 C   0  0  0  0  0  0
  135.1290    5.2640    8.3490 C   0  0  0  0  0  0
  135.6940    6.0220    9.1360 O   0  0  0  0  0  0
  135.6800    4.0580    8.0590 N   0  0  0  0  0  0
  136.9380    3.6810    8.6900 C   0  0  2  0  0  0
  137.6470    2.6230    7.8380 C   0  0  0  0  0  0
  137.0000    2.0490    6.9630 O   0  0  0  0  0  0
  138.8690    2.5190    7.9380 O   0  5  0  0  0  0
  136.6760    3.1480   10.0970 C   0  0  0  0  0  0
  137.9320    3.3400   10.9440 C   0  0  0  0  0  0
  137.5430    3.6260   12.3950 C   0  0  0  0  0  0
  136.6670    2.9370   12.9140 O   0  0  0  0  0  0
  138.1440    4.5130   13.0000 O   0  5  0  0  0  0
  126.8108   -1.5589    7.9822 H   0  0  0  0  0  0
  128.8343   -0.2649    2.5563 H   0  0  0  0  0  0
  128.7365    5.1333    7.3146 H   0  0  0  0  0  0
  130.4094    5.2212    4.0281 H   0  0  0  0  0  0
  128.7987    5.9894    4.2332 H   0  0  0  0  0  0
  128.5777    7.7201    5.3650 H   0  0  0  0  0  0
  130.1515    8.5219    5.6922 H   0  0  0  0  0  0
  129.2471    7.7383    7.0318 H   0  0  0  0  0  0
  133.0790    6.7517    9.3117 H   0  0  0  0  0  0
  130.9160    7.2629    8.1543 H   0  0  0  0  0  0
  132.2182    4.9306    4.7130 H   0  0  0  0  0  0
  134.3792    4.4298    5.8790 H   0  0  0  0  0  0
  135.1884    3.3684    7.3570 H   0  0  0  0  0  0
  137.5482    4.5944    8.7472 H   0  0  0  0  0  0
  135.8373    3.6990   10.5475 H   0  0  0  0  0  0
  136.4252    2.0783   10.0431 H   0  0  0  0  0  0
  138.5432    2.4263   10.9057 H   0  0  0  0  0  0
  138.5135    4.1869   10.5508 H   0  0  0  0  0  0
  129.2774    1.5855    2.6541 H   0  0  0  0  0  0
  127.0848   -2.4811    6.3377 H   0  0  0  0  0  0
  1  2  2  0  0  0
  1 12  1  0  0  0
  2  3  1  0  0  0
  2  4  1  0  0  0
  3 34  1  0  0  0
  3 53  1  0  0  0
  4  5  2  0  0  0
  5  6  1  0  0  0
  5  7  1  0  0  0
  6 35  1  0  0  0
  6 52  1  0  0  0
  7  8  2  0  0  0
  7 12  1  0  0  0
  8  9  1  0  0  0
  9 10  2  0  0  0
  9 13  1  0  0  0
 10 11  1  0  0  0
 10 36  1  0  0  0
 11 12  2  0  0  0
 13 14  1  0  0  0
 13 37  1  0  0  0
 13 38  1  0  0  0
 14 15  1  0  0  0
 14 19  1  0  0  0
 15 39  1  0  0  0
 15 40  1  0  0  0
 15 41  1  0  0  0
 16 17  2  0  0  0
 16 21  1  0  0  0
 16 22  1  0  0  0
 17 18  1  0  0  0
 17 42  1  0  0  0
 18 19  2  0  0  0
 18 43  1  0  0  0
 19 20  1  0  0  0
 20 21  2  0  0  0
 20 44  1  0  0  0
 21 45  1  0  0  0
 22 23  2  0  0  0
 22 24  1  0  0  0
 24 25  1  0  0  0
 24 46  1  0  0  0
 25 26  1  0  0  0
 25 29  1  0  0  0
 25 47  1  0  0  0
 26 27  2  0  0  0
 26 28  1  0  0  0
 29 30  1  0  0  0
 29 48  1  0  0  0
 29 49  1  0  0  0
 30 31  1  0  0  0
 30 50  1  0  0  0
 30 51  1  0  0  0
 31 32  2  0  0  0
 31 33  1  0  0  0
M  CHG  2  28  -1  33  -1
M  END
> <s_m_source_file>
../1ao8_ligand.sdf

> <i_m_source_file_index>
1

> <s_epik_input>
W0hdXE49YzFcW25IXWMoPU4vW0hdKVxbbkhdYyhjMTIpbltjSF1jKG4yKVtDSDJdTihbQ0gzXSljKFtjSF1bY0hdMylbY0hdW2NIXWMzQyg9TylbTkhdW0NASF0oQyg9TylbT0hdKVtDSDJdW0NIMl1DKD1PKVtPSF0=

> <s_epik_cmdline>
J2VwaWtfYXBwJywgJy1pbWFlJywgJ2xpZ2FuZF9wcm8ubWFlJywgJy1vbWFlJywgJ2xpZ2FuZF9wcmVwLm1hZScsICctbXMnLCAnMScsICctcGgnLCAnNycsICctcGh0JywgJzAuNScsICctbnQn

> <r_lp_tautomer_probability>
1

> <r_epik_Ionization_Penalty>
  0.0825

> <r_epik_Ionization_Penalty_Charging>
  0.0043

> <r_epik_Ionization_Penalty_Neutral>
  0.0782

> <r_epik_State_Penalty>
 -0.0000

> <r_epik_Charging_Adjusted_Penalty>
0.00430172285525051

> <i_epik_Tot_Q>
-2

> <i_epik_Tot_abs_Q>
2

$$$$
