1apb_ligand
                    3D
 Schrodinger Suite 2020-3.
 23 23  0  0  1  0            999 V2000
   14.2590   56.4290   55.0020 C   0  0  2  0  0  0
   12.8940   56.9600   54.6440 C   0  0  1  0  0  0
   12.4620   56.2850   53.3440 C   0  0  2  0  0  0
   13.4770   56.4860   52.2310 C   0  0  2  0  0  0
   14.8130   55.9620   52.7210 C   0  0  1  0  0  0
   15.8950   56.1350   51.6700 C   0  0  0  0  0  0
   14.8690   57.0610   56.1230 O   0  0  0  0  0  0
   11.8910   56.6950   55.6320 O   0  0  0  0  0  0
   11.1250   56.6440   52.9780 O   0  0  0  0  0  0
   13.4710   57.8220   51.7090 O   0  0  0  0  0  0
   15.1850   56.6440   53.9280 O   0  0  0  0  0  0
   14.1268   55.3638   55.2424 H   0  0  0  0  0  0
   12.9463   58.0582   54.6097 H   0  0  0  0  0  0
   12.3654   55.2006   53.5012 H   0  0  0  0  0  0
   13.2065   55.9614   51.3028 H   0  0  0  0  0  0
   14.7218   54.8966   52.9790 H   0  0  0  0  0  0
   15.6000   55.6090   50.7501 H   0  0  0  0  0  0
   16.8405   55.7161   52.0448 H   0  0  0  0  0  0
   16.0283   57.2053   51.4537 H   0  0  0  0  0  0
   14.3663   57.0503   57.1013 H   0  0  0  0  0  0
   12.0045   57.0926   56.6513 H   0  0  0  0  0  0
   10.3081   56.5389   53.7072 H   0  0  0  0  0  0
   12.5345   58.2629   51.3368 H   0  0  0  0  0  0
  1  2  1  0  0  0
  1  7  1  0  0  0
  1 11  1  0  0  0
  1 12  1  0  0  0
  2  3  1  0  0  0
  2  8  1  0  0  0
  2 13  1  0  0  0
  3  4  1  0  0  0
  3  9  1  0  0  0
  3 14  1  0  0  0
  4  5  1  0  0  0
  4 10  1  0  0  0
  4 15  1  0  0  0
  5  6  1  0  0  0
  5 11  1  0  0  0
  5 16  1  0  0  0
  6 17  1  0  0  0
  6 18  1  0  0  0
  6 19  1  0  0  0
  7 20  1  0  0  0
  8 21  1  0  0  0
  9 22  1  0  0  0
 10 23  1  0  0  0
M  END
> <s_m_source_file>
../1apb_ligand.sdf

> <i_m_source_file_index>
1

> <s_epik_input>
W09IXVtDQEhdMVtDQEhdKFtPSF0pW0NAQEhdKFtPSF0pW0NAQEhdKFtPSF0pW0NASF0oTzEpW0NIM10=

> <s_epik_cmdline>
J2VwaWtfYXBwJywgJy1pbWFlJywgJ2xpZ2FuZF9wcm8ubWFlJywgJy1vbWFlJywgJ2xpZ2FuZF9wcmVwLm1hZScsICctbXMnLCAnMScsICctcGgnLCAnNycsICctcGh0JywgJzAuNScsICctbnQn

> <r_lp_tautomer_probability>
1

> <r_epik_Ionization_Penalty>
  0.0000

> <r_epik_Ionization_Penalty_Charging>
  0.0000

> <r_epik_Ionization_Penalty_Neutral>
  0.0000

> <r_epik_State_Penalty>
 -0.0000

> <r_epik_Charging_Adjusted_Penalty>
0

> <i_epik_Tot_Q>
0

> <i_epik_Tot_abs_Q>
0

> <s_epik_Chemistry_Notes>
This compound contains an acetal/aminal-like group ( X-CH(R)-Y where X, Y are N, S, or O) that may be acid/base labile, releasing an aldehyde.

$$$$
