1apv_ligand
                    3D
 Schrodinger Suite 2020-3.
 80 79  0  0  1  0            999 V2000
   16.0190    4.5530   17.9340 C   0  0  0  0  0  0
   14.7990    3.9160   18.5820 C   0  0  0  0  0  0
   14.3210    4.9180   19.6410 C   0  0  0  0  0  0
   13.7190    3.6180   17.5740 C   0  0  0  0  0  0
   17.1300    4.8030   18.9660 C   0  0  0  0  0  0
   17.1600    4.1620   20.0510 O   0  0  0  0  0  0
   18.0000    5.7030   18.5940 N   0  0  0  0  0  0
   19.1740    6.0020   19.4660 C   0  0  2  0  0  0
   19.0780    7.3870   20.1050 C   0  0  0  0  0  0
   18.2360    8.1860   19.6660 O   0  0  0  0  0  0
   20.4050    5.8710   18.5450 C   0  0  0  0  0  0
   20.5140    4.4980   17.8720 C   0  0  0  0  0  0
   20.3940    6.9660   17.4880 C   0  0  0  0  0  0
   19.9330    7.5290   21.0860 N   0  0  0  0  0  0
   19.9710    8.8400   21.8490 C   0  0  2  0  0  0
   21.4750    9.1630   22.0480 C   0  0  0  0  0  0
   22.0280    8.5270   22.9380 O   0  0  0  0  0  0
   19.2190    8.7390   23.1690 C   0  0  0  0  0  0
   19.1830   10.1550   23.8360 C   0  0  0  0  0  0
   17.8090    8.2400   23.1190 C   0  0  0  0  0  0
   22.0060   10.0660   21.2120 N   0  0  0  0  0  0
   23.4390   10.3800   21.3090 C   0  0  1  0  0  0
   24.0620    9.9190   19.9650 C   0  0  0  0  0  0
   23.7960    8.4950   19.5250 C   0  0  0  0  0  0
   24.3870    8.2280   18.1500 C   0  0  0  0  0  0
   24.4460    7.4540   20.4830 C   0  0  0  0  0  0
   23.6380   11.8880   21.5110 C   0  0  0  0  0  0
   22.8910   12.6110   20.4760 O   0  0  0  0  0  0
   23.2280   12.4820   22.8930 C   0  0  0  0  0  0
   24.3170   12.1080   23.9700 C   0  0  0  0  0  0
   24.3070   11.0000   24.5350 O   0  0  0  0  0  0
   25.0190   12.1230   21.4170 O   0  0  0  0  0  0
   22.0750   11.9820   23.2420 F   0  0  0  0  0  0
   23.1050   13.8100   22.8380 F   0  0  0  0  0  0
   25.1930   13.0570   24.1750 N   0  0  0  0  0  0
   26.3230   12.9170   25.1300 C   0  0  0  0  0  0
   16.4100    3.8848   17.1526 H   0  0  0  0  0  0
   15.7347    5.5159   17.4845 H   0  0  0  0  0  0
   15.0458    2.9367   19.0180 H   0  0  0  0  0  0
   15.1336    5.1103   20.3570 H   0  0  0  0  0  0
   13.4533    4.5021   20.1741 H   0  0  0  0  0  0
   14.0334    5.8600   19.1511 H   0  0  0  0  0  0
   14.0974    2.8983   16.8332 H   0  0  0  0  0  0
   13.4257    4.5481   17.0651 H   0  0  0  0  0  0
   12.8456    3.1902   18.0880 H   0  0  0  0  0  0
   17.8706    6.2399   17.6427 H   0  0  0  0  0  0
   19.2026    5.3009   20.3132 H   0  0  0  0  0  0
   21.2953    5.9865   19.1807 H   0  0  0  0  0  0
   20.5214    3.7120   18.6415 H   0  0  0  0  0  0
   21.4451    4.4486   17.2885 H   0  0  0  0  0  0
   19.6537    4.3482   17.2031 H   0  0  0  0  0  0
   20.3156    7.9477   17.9779 H   0  0  0  0  0  0
   19.5335    6.8206   16.8184 H   0  0  0  0  0  0
   21.3249    6.9210   16.9038 H   0  0  0  0  0  0
   20.6183    6.7133   21.3597 H   0  0  0  0  0  0
   19.4494    9.6356   21.2967 H   0  0  0  0  0  0
   19.7572    7.9496   23.7142 H   0  0  0  0  0  0
   20.2043   10.5598   23.8925 H   0  0  0  0  0  0
   18.7648   10.0721   24.8500 H   0  0  0  0  0  0
   18.5546   10.8279   23.2341 H   0  0  0  0  0  0
   17.7892    7.2428   22.6551 H   0  0  0  0  0  0
   17.1956    8.9331   22.5246 H   0  0  0  0  0  0
   17.4058    8.1773   24.1405 H   0  0  0  0  0  0
   21.3822   10.5703   20.4593 H   0  0  0  0  0  0
   23.8688    9.8644   22.1805 H   0  0  0  0  0  0
   23.6828   10.5517   19.1490 H   0  0  0  0  0  0
   25.1571   10.0075   20.0190 H   0  0  0  0  0  0
   22.6994    8.4106   19.5083 H   0  0  0  0  0  0
   23.9628    8.9377   17.4245 H   0  0  0  0  0  0
   24.1466    7.2000   17.8409 H   0  0  0  0  0  0
   25.4791    8.3531   18.1898 H   0  0  0  0  0  0
   24.0548    7.5981   21.5009 H   0  0  0  0  0  0
   25.5375    7.5907   20.4869 H   0  0  0  0  0  0
   24.2050    6.4377   20.1380 H   0  0  0  0  0  0
   21.7957   12.5227   20.4253 H   0  0  0  0  0  0
   25.5727   11.7979   20.5238 H   0  0  0  0  0  0
   25.0672   13.9891   23.6047 H   0  0  0  0  0  0
   26.9201   13.8409   25.1295 H   0  0  0  0  0  0
   26.9567   12.0706   24.8266 H   0  0  0  0  0  0
   25.9285   12.7359   26.1407 H   0  0  0  0  0  0
  1  2  1  0  0  0
  1  5  1  0  0  0
  1 37  1  0  0  0
  1 38  1  0  0  0
  2  3  1  0  0  0
  2  4  1  0  0  0
  2 39  1  0  0  0
  3 40  1  0  0  0
  3 41  1  0  0  0
  3 42  1  0  0  0
  4 43  1  0  0  0
  4 44  1  0  0  0
  4 45  1  0  0  0
  5  6  2  0  0  0
  5  7  1  0  0  0
  7  8  1  0  0  0
  7 46  1  0  0  0
  8 11  1  0  0  0
  8  9  1  0  0  0
  8 47  1  0  0  0
  9 10  2  0  0  0
  9 14  1  0  0  0
 11 13  1  0  0  0
 11 12  1  0  0  0
 11 48  1  0  0  0
 12 49  1  0  0  0
 12 50  1  0  0  0
 12 51  1  0  0  0
 13 52  1  0  0  0
 13 53  1  0  0  0
 13 54  1  0  0  0
 14 15  1  0  0  0
 14 55  1  0  0  0
 15 18  1  0  0  0
 15 16  1  0  0  0
 15 56  1  0  0  0
 16 17  2  0  0  0
 16 21  1  0  0  0
 18 20  1  0  0  0
 18 19  1  0  0  0
 18 57  1  0  0  0
 19 58  1  0  0  0
 19 59  1  0  0  0
 19 60  1  0  0  0
 20 61  1  0  0  0
 20 62  1  0  0  0
 20 63  1  0  0  0
 21 22  1  0  0  0
 21 64  1  0  0  0
 22 23  1  0  0  0
 22 27  1  0  0  0
 22 65  1  0  0  0
 23 24  1  0  0  0
 23 66  1  0  0  0
 23 67  1  0  0  0
 24 25  1  0  0  0
 24 26  1  0  0  0
 24 68  1  0  0  0
 25 69  1  0  0  0
 25 70  1  0  0  0
 25 71  1  0  0  0
 26 72  1  0  0  0
 26 73  1  0  0  0
 26 74  1  0  0  0
 27 28  1  0  0  0
 27 29  1  0  0  0
 27 32  1  0  0  0
 28 75  1  0  0  0
 29 30  1  0  0  0
 29 33  1  0  0  0
 29 34  1  0  0  0
 30 31  2  0  0  0
 30 35  1  0  0  0
 32 76  1  0  0  0
 35 36  1  0  0  0
 35 77  1  0  0  0
 36 78  1  0  0  0
 36 79  1  0  0  0
 36 80  1  0  0  0
M  END
> <s_m_source_file>
../1apv_ligand.sdf

> <i_m_source_file_index>
1

> <s_epik_input>
W0NIM11bQ0hdKFtDSDNdKVtDSDJdQyg9TylbTkhdW0NAQEhdKFtDSF0oW0NIM10pW0NIM10pQyg9TylbTkhdW0NAQEhdKFtDSF0oW0NIM10pW0NIM10pQyg9TylbTkhdW0NAQEhdKFtDSDJdW0NIXShbQ0gzXSlbQ0gzXSlDKFtPSF0pKFtPSF0pQyhGKShGKUMoPU8pW05IXVtDSDNd

> <s_epik_cmdline>
J2VwaWtfYXBwJywgJy1pbWFlJywgJ2xpZ2FuZF9wcm8ubWFlJywgJy1vbWFlJywgJ2xpZ2FuZF9wcmVwLm1hZScsICctbXMnLCAnMScsICctcGgnLCAnNycsICctcGh0JywgJzAuNScsICctbnQn

> <r_lp_tautomer_probability>
1

> <r_epik_Ionization_Penalty>
  0.0028

> <r_epik_Ionization_Penalty_Charging>
  0.0000

> <r_epik_Ionization_Penalty_Neutral>
  0.0028

> <r_epik_State_Penalty>
 -0.0000

> <r_epik_Charging_Adjusted_Penalty>
0

> <i_epik_Tot_Q>
0

> <i_epik_Tot_abs_Q>
0

$$$$
