1apw_ligand
                    3D
 Schrodinger Suite 2020-3.
 79 78  0  0  1  0            999 V2000
   16.0840    4.4610   17.7960 C   0  0  0  0  0  0
   14.8430    3.8580   18.4520 C   0  0  0  0  0  0
   14.3540    4.8740   19.4690 C   0  0  0  0  0  0
   13.7470    3.5900   17.4470 C   0  0  0  0  0  0
   17.2070    4.7150   18.8020 C   0  0  0  0  0  0
   17.2750    4.0360   19.8570 O   0  0  0  0  0  0
   18.0800    5.6360   18.4920 N   0  0  0  0  0  0
   19.2180    5.9090   19.3990 C   0  0  2  0  0  0
   19.1120    7.2860   20.0730 C   0  0  0  0  0  0
   18.2720    8.0860   19.6240 O   0  0  0  0  0  0
   20.4700    5.7770   18.4920 C   0  0  0  0  0  0
   20.5610    4.4210   17.7960 C   0  0  0  0  0  0
   20.4440    6.8290   17.3790 C   0  0  0  0  0  0
   19.9740    7.4100   21.0550 N   0  0  0  0  0  0
   20.0420    8.6950   21.8260 C   0  0  2  0  0  0
   21.5340    9.0230   21.9350 C   0  0  0  0  0  0
   22.1540    8.4020   22.8160 O   0  0  0  0  0  0
   19.3120    8.6400   23.1800 C   0  0  0  0  0  0
   19.2610   10.0270   23.8480 C   0  0  0  0  0  0
   17.9070    8.1110   23.0550 C   0  0  0  0  0  0
   22.0560    9.9170   21.0780 N   0  0  0  0  0  0
   23.4740   10.2430   21.0960 C   0  0  1  0  0  0
   24.1080    9.7490   19.7650 C   0  0  0  0  0  0
   23.8560    8.2980   19.4030 C   0  0  0  0  0  0
   24.4200    8.0080   17.9990 C   0  0  0  0  0  0
   24.4870    7.3210   20.4130 C   0  0  0  0  0  0
   23.7370   11.7430   21.2650 C   0  0  1  0  0  0
   22.8880   12.5040   20.3570 O   0  0  0  0  0  0
   23.4880   12.3710   22.6610 C   0  0  0  0  0  0
   24.5910   11.9540   23.6870 C   0  0  0  0  0  0
   24.5680   10.8510   24.2720 O   0  0  0  0  0  0
   22.3150   11.9820   23.1560 F   0  0  0  0  0  0
   23.3830   13.7150   22.6590 F   0  0  0  0  0  0
   25.5250   12.8650   23.8560 N   0  0  0  0  0  0
   26.6620   12.6360   24.8010 C   0  0  0  0  0  0
   16.4644    3.7715   17.0279 H   0  0  0  0  0  0
   15.8217    5.4217   17.3288 H   0  0  0  0  0  0
   15.0894    2.8903   18.9133 H   0  0  0  0  0  0
   15.1500    5.0712   20.2022 H   0  0  0  0  0  0
   13.4684    4.4772   19.9870 H   0  0  0  0  0  0
   14.0894    5.8096   18.9545 H   0  0  0  0  0  0
   14.0984    2.8541   16.7088 H   0  0  0  0  0  0
   13.4828    4.5266   16.9341 H   0  0  0  0  0  0
   12.8619    3.1942   17.9666 H   0  0  0  0  0  0
   17.9708    6.2083   17.5590 H   0  0  0  0  0  0
   19.2121    5.1953   20.2360 H   0  0  0  0  0  0
   21.3401    5.9031   19.1532 H   0  0  0  0  0  0
   20.5832    3.6218   18.5515 H   0  0  0  0  0  0
   21.4792    4.3799   17.1917 H   0  0  0  0  0  0
   19.6861    4.2844   17.1434 H   0  0  0  0  0  0
   20.3785    7.8326   17.8245 H   0  0  0  0  0  0
   19.5708    6.6572   16.7324 H   0  0  0  0  0  0
   21.3640    6.7527   16.7808 H   0  0  0  0  0  0
   20.6446    6.5773   21.3136 H   0  0  0  0  0  0
   19.5001    9.4852   21.2857 H   0  0  0  0  0  0
   19.8741    7.9331   23.8079 H   0  0  0  0  0  0
   20.2819   10.4249   23.9453 H   0  0  0  0  0  0
   18.8059    9.9371   24.8454 H   0  0  0  0  0  0
   18.6588   10.7095   23.2303 H   0  0  0  0  0  0
   17.9295    7.1197   22.5788 H   0  0  0  0  0  0
   17.3093    8.7998   22.4399 H   0  0  0  0  0  0
   17.4564    8.0273   24.0550 H   0  0  0  0  0  0
   21.3885   10.4057   20.3530 H   0  0  0  0  0  0
   23.8670    9.7300   21.9862 H   0  0  0  0  0  0
   23.7137   10.3440   18.9280 H   0  0  0  0  0  0
   25.2008    9.8646   19.8143 H   0  0  0  0  0  0
   22.7650    8.1593   19.4271 H   0  0  0  0  0  0
   23.9726    8.7032   17.2734 H   0  0  0  0  0  0
   24.1781    6.9737   17.7132 H   0  0  0  0  0  0
   25.5120    8.1401   18.0081 H   0  0  0  0  0  0
   24.0877    7.5237   21.4177 H   0  0  0  0  0  0
   25.5789    7.4540   20.4187 H   0  0  0  0  0  0
   24.2450    6.2877   20.1238 H   0  0  0  0  0  0
   24.8046   11.8301   21.0148 H   0  0  0  0  0  0
   22.8727   12.2605   19.2844 H   0  0  0  0  0  0
   25.4612   13.8061   23.2901 H   0  0  0  0  0  0
   27.3262   13.5128   24.7947 H   0  0  0  0  0  0
   27.2266   11.7459   24.4864 H   0  0  0  0  0  0
   26.2691   12.4809   25.8167 H   0  0  0  0  0  0
  1  2  1  0  0  0
  1  5  1  0  0  0
  1 36  1  0  0  0
  1 37  1  0  0  0
  2  3  1  0  0  0
  2  4  1  0  0  0
  2 38  1  0  0  0
  3 39  1  0  0  0
  3 40  1  0  0  0
  3 41  1  0  0  0
  4 42  1  0  0  0
  4 43  1  0  0  0
  4 44  1  0  0  0
  5  6  2  0  0  0
  5  7  1  0  0  0
  7  8  1  0  0  0
  7 45  1  0  0  0
  8 11  1  0  0  0
  8  9  1  0  0  0
  8 46  1  0  0  0
  9 10  2  0  0  0
  9 14  1  0  0  0
 11 13  1  0  0  0
 11 12  1  0  0  0
 11 47  1  0  0  0
 12 48  1  0  0  0
 12 49  1  0  0  0
 12 50  1  0  0  0
 13 51  1  0  0  0
 13 52  1  0  0  0
 13 53  1  0  0  0
 14 15  1  0  0  0
 14 54  1  0  0  0
 15 18  1  0  0  0
 15 16  1  0  0  0
 15 55  1  0  0  0
 16 17  2  0  0  0
 16 21  1  0  0  0
 18 20  1  0  0  0
 18 19  1  0  0  0
 18 56  1  0  0  0
 19 57  1  0  0  0
 19 58  1  0  0  0
 19 59  1  0  0  0
 20 60  1  0  0  0
 20 61  1  0  0  0
 20 62  1  0  0  0
 21 22  1  0  0  0
 21 63  1  0  0  0
 22 23  1  0  0  0
 22 27  1  0  0  0
 22 64  1  0  0  0
 23 24  1  0  0  0
 23 65  1  0  0  0
 23 66  1  0  0  0
 24 25  1  0  0  0
 24 26  1  0  0  0
 24 67  1  0  0  0
 25 68  1  0  0  0
 25 69  1  0  0  0
 25 70  1  0  0  0
 26 71  1  0  0  0
 26 72  1  0  0  0
 26 73  1  0  0  0
 27 28  1  0  0  0
 27 29  1  0  0  0
 27 74  1  0  0  0
 28 75  1  0  0  0
 29 30  1  0  0  0
 29 32  1  0  0  0
 29 33  1  0  0  0
 30 31  2  0  0  0
 30 34  1  0  0  0
 34 35  1  0  0  0
 34 76  1  0  0  0
 35 77  1  0  0  0
 35 78  1  0  0  0
 35 79  1  0  0  0
M  END
> <s_m_source_file>
../1apw_ligand.sdf

> <i_m_source_file_index>
1

> <s_epik_input>
W0NIM11bQ0hdKFtDSDNdKVtDSDJdQyg9TylbTkhdW0NAQEhdKFtDSF0oW0NIM10pW0NIM10pQyg9TylbTkhdW0NAQEhdKFtDSF0oW0NIM10pW0NIM10pQyg9TylbTkhdW0NAQEhdKFtDSDJdW0NIXShbQ0gzXSlbQ0gzXSlbQ0BASF0oW09IXSlDKEYpKEYpQyg9TylbTkhdW0NIM10=

> <s_epik_cmdline>
J2VwaWtfYXBwJywgJy1pbWFlJywgJ2xpZ2FuZF9wcm8ubWFlJywgJy1vbWFlJywgJ2xpZ2FuZF9wcmVwLm1hZScsICctbXMnLCAnMScsICctcGgnLCAnNycsICctcGh0JywgJzAuNScsICctbnQn

> <r_lp_tautomer_probability>
1

> <r_epik_Ionization_Penalty>
  0.0011

> <r_epik_Ionization_Penalty_Charging>
  0.0000

> <r_epik_Ionization_Penalty_Neutral>
  0.0011

> <r_epik_State_Penalty>
 -0.0000

> <r_epik_Charging_Adjusted_Penalty>
0

> <i_epik_Tot_Q>
0

> <i_epik_Tot_abs_Q>
0

$$$$
