1aq1_ligand
                    3D
 Schrodinger Suite 2020-3.
 60 67  0  0  1  0            999 V2000
   -0.0580   24.6050    8.9150 O   0  0  0  0  0  0
    1.3300   24.6420    8.6200 C   0  0  2  0  0  0
    2.1900   24.1630    9.8170 C   0  0  0  0  0  0
    1.2850   23.8640   11.0150 C   0  0  2  0  0  0
    0.3990   25.1070   11.3170 C   0  0  2  0  0  0
   -0.5830   25.1790   10.1000 C   0  0  2  0  0  0
   -1.7820   24.3150   10.4450 C   0  0  0  0  0  0
   -1.0180   26.5730    9.8090 N   0  0  0  0  0  0
   -0.2490   27.3530    8.9070 C   0  0  0  0  0  0
    0.8600   27.1010    8.2060 C   0  0  0  0  0  0
    1.4780   28.0810    7.3700 C   0  0  0  0  0  0
    0.7740   29.3740    7.3290 C   0  0  0  0  0  0
   -0.3120   29.6130    8.0170 C   0  0  0  0  0  0
   -0.9010   28.6450    8.8630 C   0  0  0  0  0  0
   -2.0370   28.5990    9.7020 C   0  0  0  0  0  0
   -2.1080   27.3050   10.3030 C   0  0  0  0  0  0
   -3.1120   27.0110   11.1730 C   0  0  0  0  0  0
   -4.0610   27.9440   11.4680 C   0  0  0  0  0  0
   -4.0150   29.2500   10.8950 C   0  0  0  0  0  0
   -2.9870   29.5370   10.0290 C   0  0  0  0  0  0
   -0.7870   31.0610    7.7940 C   0  0  0  0  0  0
    0.2460   31.4880    6.8730 N   0  0  0  0  0  0
    1.1910   30.5900    6.5600 C   0  0  0  0  0  0
    2.1450   30.7330    5.8200 O   0  0  0  0  0  0
    2.6460   27.5280    6.8110 C   0  0  0  0  0  0
    2.7410   26.1970    7.3090 C   0  0  0  0  0  0
    3.7550   25.3170    6.9230 C   0  0  0  0  0  0
    4.7040   25.7920    6.0470 C   0  0  0  0  0  0
    4.6280   27.1160    5.5550 C   0  0  0  0  0  0
    3.6100   27.9460    5.9210 C   0  0  0  0  0  0
    1.7090   25.9710    8.1520 N   0  0  0  0  0  0
    1.2830   26.2450   11.2960 O   0  0  0  0  0  0
    0.7080   27.3650   11.9400 C   0  0  0  0  0  0
    2.1900   23.5100   12.2490 N   0  3  0  0  0  0
    2.2190   22.0360   12.4640 C   0  0  0  0  0  0
    1.4545   23.9624    7.7640 H   0  0  0  0  0  0
    2.7351   23.2502    9.5348 H   0  0  0  0  0  0
    2.9088   24.9496   10.0901 H   0  0  0  0  0  0
    0.6261   23.0168   10.7740 H   0  0  0  0  0  0
   -0.1020   25.1280   12.2961 H   0  0  0  0  0  0
   -1.4459   23.2893   10.6573 H   0  0  0  0  0  0
   -2.4818   24.3033    9.5964 H   0  0  0  0  0  0
   -2.2873   24.7262   11.3313 H   0  0  0  0  0  0
   -3.1576   26.0253   11.6360 H   0  0  0  0  0  0
   -4.8689   27.6880   12.1534 H   0  0  0  0  0  0
   -4.7715   29.9967   11.1365 H   0  0  0  0  0  0
   -2.9235   30.5330    9.5907 H   0  0  0  0  0  0
   -1.5790   31.7622    8.0957 H   0  0  0  0  0  0
    3.7929   24.2952    7.3005 H   0  0  0  0  0  0
    5.5204   25.1431    5.7299 H   0  0  0  0  0  0
    5.3960   27.4788    4.8719 H   0  0  0  0  0  0
    3.5587   28.9519    5.5043 H   0  0  0  0  0  0
    1.4111   28.2102   11.9030 H   0  0  0  0  0  0
    0.4915   27.1137   12.9888 H   0  0  0  0  0  0
   -0.2259   27.6423   11.4291 H   0  0  0  0  0  0
    3.2146   23.8662   12.0664 H   0  0  0  0  0  0
    1.7879   23.9962   13.1501 H   0  0  0  0  0  0
    2.8559   21.8043   13.3304 H   0  0  0  0  0  0
    2.6246   21.5427   11.5684 H   0  0  0  0  0  0
    1.1979   21.6727   12.6520 H   0  0  0  0  0  0
  1  6  1  0  0  0
  1  2  1  0  0  0
  2 31  1  0  0  0
  2  3  1  0  0  0
  2 36  1  0  0  0
  3  4  1  0  0  0
  3 37  1  0  0  0
  3 38  1  0  0  0
  4 34  1  0  0  0
  4  5  1  0  0  0
  4 39  1  0  0  0
  5 32  1  0  0  0
  5  6  1  0  0  0
  5 40  1  0  0  0
  6  8  1  0  0  0
  6  7  1  0  0  0
  7 41  1  0  0  0
  7 42  1  0  0  0
  7 43  1  0  0  0
  8 16  1  0  0  0
  8  9  1  0  0  0
  9 14  2  0  0  0
  9 10  1  0  0  0
 10 31  1  0  0  0
 10 11  2  0  0  0
 11 25  1  0  0  0
 11 12  1  0  0  0
 12 23  1  0  0  0
 12 13  2  0  0  0
 13 21  1  0  0  0
 13 14  1  0  0  0
 14 15  1  0  0  0
 15 20  1  0  0  0
 15 16  2  0  0  0
 16 17  1  0  0  0
 17 18  2  0  0  0
 17 44  1  0  0  0
 18 19  1  0  0  0
 18 45  1  0  0  0
 19 20  2  0  0  0
 19 46  1  0  0  0
 20 47  1  0  0  0
 21 22  2  0  0  0
 21 48  1  0  0  0
 22 23  1  0  0  0
 23 24  2  0  0  0
 25 30  2  0  0  0
 25 26  1  0  0  0
 26 31  1  0  0  0
 26 27  2  0  0  0
 27 28  1  0  0  0
 27 49  1  0  0  0
 28 29  2  0  0  0
 28 50  1  0  0  0
 29 30  1  0  0  0
 29 51  1  0  0  0
 30 52  1  0  0  0
 32 33  1  0  0  0
 33 53  1  0  0  0
 33 54  1  0  0  0
 33 55  1  0  0  0
 34 35  1  0  0  0
 34 56  1  0  0  0
 34 57  1  0  0  0
 35 58  1  0  0  0
 35 59  1  0  0  0
 35 60  1  0  0  0
M  CHG  1  34   1
M  END
> <s_m_source_file>
../1aq1_ligand.sdf

> <i_m_source_file_index>
1

> <s_epik_input>
W0NIM11PW0NAQEhdMVtDQEhdKFtOSDIrXVtDSDNdKVtDSDJdW0NAQEhdKE8yKW4zYyhbY0hdW2NIXVtjSF1bY0hdNCljNGMoYzNjNW42W0NAXTEyW0NIM10pYzdjKFtDSF09TkM3PU8pYzVjOGM2W2NIXVtjSF1bY0hdW2NIXTg=

> <s_epik_cmdline>
J2VwaWtfYXBwJywgJy1pbWFlJywgJ2xpZ2FuZF9wcm8ubWFlJywgJy1vbWFlJywgJ2xpZ2FuZF9wcmVwLm1hZScsICctbXMnLCAnMScsICctcGgnLCAnNycsICctcGh0JywgJzAuNScsICctbnQn

> <r_epik_Ionization_Penalty>
  0.0560

> <r_epik_Ionization_Penalty_Charging>
  0.0560

> <r_epik_Ionization_Penalty_Neutral>
  0.0000

> <r_epik_State_Penalty>
  0.0482

> <r_epik_Charging_Adjusted_Penalty>
0.104192696511962

> <i_epik_Tot_Q>
1

> <i_epik_Tot_abs_Q>
1

> <s_epik_Chemistry_Notes>
This compound has an imine and may undergo hydrolysis. This compound contains an acetal/aminal-like group ( X-CH(R)-Y where X, Y are N, S, or O) that may be acid/base labile, releasing an aldehyde.

$$$$
