1aq7_ligand
                    3D
 Schrodinger Suite 2020-3.
 91 93  0  0  1  0            999 V2000
   11.5750   14.6890   12.1690 C   0  0  0  0  0  0
   12.9620   14.6010   11.5010 C   0  0  0  0  0  0
   13.9330   15.6110   11.7460 C   0  0  0  0  0  0
   13.6520   16.7070   12.6200 C   0  0  0  0  0  0
   12.3740   16.8710   13.2400 C   0  0  0  0  0  0
   11.3160   15.9390   13.0700 C   0  0  0  0  0  0
   14.7950   17.6910   12.9580 C   0  0  0  0  0  0
   15.2150   18.5120   11.7800 C   0  0  2  0  0  0
   16.5350   19.2400   12.0350 C   0  0  0  0  0  0
   14.1830   19.4170   11.6090 O   0  0  0  0  0  0
   17.3550   18.8140   12.8620 O   0  0  0  0  0  0
   16.7080   20.3510   11.3210 N   0  0  0  0  0  0
   18.0870   20.7870   11.1980 C   0  0  2  0  0  0
   18.2050   22.3420   11.2020 C   0  0  1  0  0  0
   19.3450   22.9340   10.3930 C   0  0  0  0  0  0
   16.9390   23.1500   11.3070 C   0  0  0  0  0  0
   19.1760   24.3770    9.8970 C   0  0  0  0  0  0
   18.8040   20.0140   10.0580 C   0  0  0  0  0  0
   18.2080   19.6580    9.0360 O   0  0  0  0  0  0
   20.1080   19.7640   10.2930 N   0  0  0  0  0  0
   20.8920   20.0840   11.5050 C   0  0  2  0  0  0
   22.3560   20.2330   10.9820 C   0  0  2  0  0  0
   22.3950   19.2430    9.7860 C   0  0  0  0  0  0
   20.9720   19.1490    9.2620 C   0  0  1  0  0  0
   20.7810   18.9380   12.5420 C   0  0  0  0  0  0
   21.9030   18.9810   13.5970 C   0  0  1  0  0  0
   23.2430   18.7970   12.8690 C   0  0  0  0  0  0
   23.4750   20.0080   11.9760 C   0  0  0  0  0  0
   21.8500   20.1940   14.3890 O   0  0  0  0  0  0
   22.6060   20.5130   15.7520 S   0  0  0  0  0  0
   23.8750   20.9440   15.3450 O   0  0  0  0  0  0
   22.9770   19.2080   16.5050 O   0  5  0  0  0  0
   21.7650   21.3400   16.5750 O   0  0  0  0  0  0
   20.5070   17.6910    9.0040 C   0  0  0  0  0  0
   20.0270   16.9380    9.8730 O   0  0  0  0  0  0
   20.6860   17.3780    7.7190 N   0  0  0  0  0  0
   20.1850   16.1050    7.1600 C   0  0  0  0  0  0
   19.1140   16.2860    6.0920 C   0  0  0  0  0  0
   17.8100   16.8870    6.5690 C   0  0  0  0  0  0
   16.9070   17.1060    5.3550 C   0  0  0  0  0  0
   15.5430   17.3860    5.6720 N   0  0  0  0  0  0
   14.6770   17.5670    4.6780 C   0  0  0  0  0  0
   15.0840   17.5040    3.4110 N   0  3  0  0  0  0
   13.3940   17.8360    4.9570 N   0  0  0  0  0  0
   10.7520   13.8120   11.9520 O   0  0  0  0  0  0
   13.1981   13.7657   10.8418 H   0  0  0  0  0  0
   14.9066   15.5485   11.2598 H   0  0  0  0  0  0
   12.2052   17.7459   13.8679 H   0  0  0  0  0  0
   10.3513   16.0913   13.5540 H   0  0  0  0  0  0
   14.4637   18.3801   13.7488 H   0  0  0  0  0  0
   15.6729   17.1274   13.3069 H   0  0  0  0  0  0
   15.3114   17.9191   10.8585 H   0  0  0  0  0  0
   13.1618   19.0566   11.4156 H   0  0  0  0  0  0
   15.9037   20.9289   10.8424 H   0  0  0  0  0  0
   18.5854   20.4700   12.1260 H   0  0  0  0  0  0
   18.5560   22.5650   12.2204 H   0  0  0  0  0  0
   20.2624   22.9370   10.9999 H   0  0  0  0  0  0
   19.5057   22.3289    9.4886 H   0  0  0  0  0  0
   16.2049   22.6036   11.9174 H   0  0  0  0  0  0
   16.5269   23.3182   10.3011 H   0  0  0  0  0  0
   17.1603   24.1185   11.7793 H   0  0  0  0  0  0
   20.0693   24.6765    9.3292 H   0  0  0  0  0  0
   19.0472   25.0482   10.7589 H   0  0  0  0  0  0
   18.2905   24.4401    9.2475 H   0  0  0  0  0  0
   20.4997   20.9920   11.9862 H   0  0  0  0  0  0
   22.5907   21.2791   10.7358 H   0  0  0  0  0  0
   23.0754   19.6290    9.0126 H   0  0  0  0  0  0
   22.7530   18.2625   10.1331 H   0  0  0  0  0  0
   20.9031   19.6980    8.3113 H   0  0  0  0  0  0
   19.8188   19.0131   13.0698 H   0  0  0  0  0  0
   20.8411   17.9688   12.0253 H   0  0  0  0  0  0
   21.7741   18.2105   14.3714 H   0  0  0  0  0  0
   24.0534   18.7137   13.6081 H   0  0  0  0  0  0
   23.2068   17.8817   12.2599 H   0  0  0  0  0  0
   24.4193   19.8481   11.4350 H   0  0  0  0  0  0
   23.5701   20.8897   12.6269 H   0  0  0  0  0  0
   21.2191   18.0906    7.0725 H   0  0  0  0  0  0
   21.0180   15.5540    6.6990 H   0  0  0  0  0  0
   19.7455   15.4985    7.9656 H   0  0  0  0  0  0
   19.4918   16.9533    5.3033 H   0  0  0  0  0  0
   18.8624   15.3081    5.6556 H   0  0  0  0  0  0
   17.3268   16.1988    7.2782 H   0  0  0  0  0  0
   18.0094   17.8469    7.0677 H   0  0  0  0  0  0
   17.2802   17.9593    4.7697 H   0  0  0  0  0  0
   16.9098   16.2021    4.7281 H   0  0  0  0  0  0
   15.2243   17.4488    6.7229 H   0  0  0  0  0  0
   16.1370   17.2832    3.1819 H   0  0  0  0  0  0
   13.0578   17.8880    6.0031 H   0  0  0  0  0  0
   12.6771   18.0047    4.1399 H   0  0  0  0  0  0
    9.7585   13.8617   12.4216 H   0  0  0  0  0  0
   14.3671   17.6728    2.5940 H   0  0  0  0  0  0
  1 45  1  0  0  0
  1  6  2  0  0  0
  1  2  1  0  0  0
  2  3  2  0  0  0
  2 46  1  0  0  0
  3  4  1  0  0  0
  3 47  1  0  0  0
  4  7  1  0  0  0
  4  5  2  0  0  0
  5  6  1  0  0  0
  5 48  1  0  0  0
  6 49  1  0  0  0
  7  8  1  0  0  0
  7 50  1  0  0  0
  7 51  1  0  0  0
  8 10  1  0  0  0
  8  9  1  0  0  0
  8 52  1  0  0  0
  9 12  1  0  0  0
  9 11  2  0  0  0
 10 53  1  0  0  0
 12 13  1  0  0  0
 12 54  1  0  0  0
 13 18  1  0  0  0
 13 14  1  0  0  0
 13 55  1  0  0  0
 14 16  1  0  0  0
 14 15  1  0  0  0
 14 56  1  0  0  0
 15 17  1  0  0  0
 15 57  1  0  0  0
 15 58  1  0  0  0
 16 59  1  0  0  0
 16 60  1  0  0  0
 16 61  1  0  0  0
 17 62  1  0  0  0
 17 63  1  0  0  0
 17 64  1  0  0  0
 18 20  1  0  0  0
 18 19  2  0  0  0
 20 24  1  0  0  0
 20 21  1  0  0  0
 21 25  1  0  0  0
 21 22  1  0  0  0
 21 65  1  0  0  0
 22 28  1  0  0  0
 22 23  1  0  0  0
 22 66  1  0  0  0
 23 24  1  0  0  0
 23 67  1  0  0  0
 23 68  1  0  0  0
 24 34  1  0  0  0
 24 69  1  0  0  0
 25 26  1  0  0  0
 25 70  1  0  0  0
 25 71  1  0  0  0
 26 27  1  0  0  0
 26 29  1  0  0  0
 26 72  1  0  0  0
 27 28  1  0  0  0
 27 73  1  0  0  0
 27 74  1  0  0  0
 28 75  1  0  0  0
 28 76  1  0  0  0
 29 30  1  0  0  0
 30 33  2  0  0  0
 30 32  1  0  0  0
 30 31  2  0  0  0
 34 36  1  0  0  0
 34 35  2  0  0  0
 36 37  1  0  0  0
 36 77  1  0  0  0
 37 38  1  0  0  0
 37 78  1  0  0  0
 37 79  1  0  0  0
 38 39  1  0  0  0
 38 80  1  0  0  0
 38 81  1  0  0  0
 39 40  1  0  0  0
 39 82  1  0  0  0
 39 83  1  0  0  0
 40 41  1  0  0  0
 40 84  1  0  0  0
 40 85  1  0  0  0
 41 42  1  0  0  0
 41 86  1  0  0  0
 42 44  1  0  0  0
 42 43  2  0  0  0
 43 87  1  0  0  0
 43 91  1  0  0  0
 44 88  1  0  0  0
 44 89  1  0  0  0
 45 90  1  0  0  0
M  CHG  2  32  -1  43   1
M  END
> <s_m_source_file>
../1aq7_ligand.sdf

> <i_m_source_file_index>
1

> <s_epik_input>
W09IXWMxW2NIXVtjSF1jKFtjSF1bY0hdMSlbQ0gyXVtDQEBIXShbT0hdKUMoPU8pW05IXVtDQEhdKFtDQEhdKFtDSDNdKVtDSDJdW0NIM10pQyg9TylOMltDQEBIXShbQ0gyXVtDQEBIXShbQ0BASF0yMylbQ0gyXVtDSDJdW0NASF0oW0NIMl0zKU9TKD1PKSg9TylbT0hdKUMoPU8pW05IXVtDSDJdW0NIMl1bQ0gyXVtDSDJdW05IXS9DKD1OXFtIXSlbTkgyXQ==

> <s_epik_cmdline>
J2VwaWtfYXBwJywgJy1pbWFlJywgJ2xpZ2FuZF9wcm8ubWFlJywgJy1vbWFlJywgJ2xpZ2FuZF9wcmVwLm1hZScsICctbXMnLCAnMScsICctcGgnLCAnNycsICctcGh0JywgJzAuNScsICctbnQn

> <r_lp_tautomer_probability>
1

> <r_epik_Ionization_Penalty>
  0.0005

> <r_epik_Ionization_Penalty_Charging>
  0.0000

> <r_epik_Ionization_Penalty_Neutral>
  0.0005

> <r_epik_State_Penalty>
 -0.0000

> <r_epik_Charging_Adjusted_Penalty>
1.36901963469859e-05

> <i_epik_Tot_Q>
0

> <i_epik_Tot_abs_Q>
2

> <s_epik_Chemistry_Notes>
This compound has an imine and may undergo hydrolysis.

$$$$
