1aqc_ligand
                    3D
 Schrodinger Suite 2020-3.
173177  0  0  1  0            999 V2000
   54.3780    7.5530   63.2350 N   0  3  0  0  0  0
   54.4530    7.1170   64.6370 C   0  0  0  0  0  0
   54.9520    5.6980   64.6370 C   0  0  0  0  0  0
   55.0650    5.1210   63.5600 O   0  0  0  0  0  0
   55.1860    5.1180   65.8100 N   0  0  0  0  0  0
   55.7130    3.7610   65.9180 C   0  0  2  0  0  0
   54.8460    2.7840   66.7070 C   0  0  0  0  0  0
   54.1020    3.1650   67.6150 O   0  0  0  0  0  0
   57.1120    3.7970   66.5770 C   0  0  0  0  0  0
   58.1280    4.7270   65.9290 C   0  0  0  0  0  0
   58.8390    4.3330   64.7870 C   0  0  0  0  0  0
   58.3820    5.9920   66.4520 C   0  0  0  0  0  0
   59.7790    5.1760   64.1870 C   0  0  0  0  0  0
   59.3260    6.8390   65.8560 C   0  0  0  0  0  0
   60.0210    6.4230   64.7240 C   0  0  0  0  0  0
   60.9880    7.2300   64.1540 O   0  0  0  0  0  0
   55.0060    1.5050   66.3920 N   0  0  0  0  0  0
   54.2860    0.4300   67.0680 C   0  0  2  0  0  0
   55.2690   -0.2860   68.0090 C   0  0  0  0  0  0
   56.4180   -0.5250   67.6420 O   0  0  0  0  0  0
   53.7350   -0.5660   66.0310 C   0  0  0  0  0  0
   53.0450   -1.8400   66.6090 C   0  0  0  0  0  0
   51.6340   -1.5980   67.1780 C   0  0  0  0  0  0
   50.9080   -0.7150   66.6800 O   0  0  0  0  0  0
   51.2380   -2.3150   68.1210 O   0  0  0  0  0  0
   54.8330   -0.5660   69.2320 N   0  0  0  0  0  0
   55.6350   -1.2810   70.2200 C   0  0  2  0  0  0
   55.5070   -2.7610   69.8560 C   0  0  0  0  0  0
   54.4400   -3.3510   70.0150 O   0  0  0  0  0  0
   55.0620   -1.0190   71.6220 C   0  0  0  0  0  0
   55.6880   -1.8880   72.7020 C   0  0  0  0  0  0
   56.3480   -2.8950   72.4240 O   0  0  0  0  0  0
   55.4670   -1.5060   73.9560 N   0  0  0  0  0  0
   56.5730   -3.3760   69.3470 N   0  0  0  0  0  0
   56.5300   -4.7920   68.9560 C   0  0  2  0  0  0
   56.2680   -5.7540   70.1290 C   0  0  0  0  0  0
   55.6570   -6.8120   69.9550 O   0  0  0  0  0  0
   57.9080   -5.0230   68.3540 C   0  0  0  0  0  0
   58.3450   -3.6350   67.9070 C   0  0  0  0  0  0
   57.9050   -2.8000   69.0570 C   0  0  0  0  0  0
   56.7020   -5.3540   71.3240 N   0  0  0  0  0  0
   56.5560   -6.1470   72.5460 C   0  0  2  0  0  0
   55.1100   -6.2650   73.0560 C   0  0  0  0  0  0
   54.6810   -7.3240   73.5200 O   0  0  0  0  0  0
   57.4160   -5.5310   73.6780 C   0  0  2  0  0  0
   58.5980   -4.9200   73.1230 O   0  0  0  0  0  0
   57.8010   -6.6060   74.7010 C   0  0  0  0  0  0
   54.3860   -5.1540   72.9900 N   0  0  0  0  0  0
   53.0040   -5.0470   73.4470 C   0  0  2  0  0  0
   52.0810   -6.2590   73.1730 C   0  0  0  0  0  0
   51.2380   -6.5950   74.0100 O   0  0  0  0  0  0
   52.4060   -3.7100   72.9370 C   0  0  0  0  0  0
   50.9120   -3.7210   72.7310 C   0  0  0  0  0  0
   50.3610   -4.2410   71.5580 C   0  0  0  0  0  0
   50.0470   -3.3010   73.7330 C   0  0  0  0  0  0
   48.9950   -4.3570   71.3960 C   0  0  0  0  0  0
   48.6720   -3.4120   73.5760 C   0  0  0  0  0  0
   48.1560   -3.9460   72.4080 C   0  0  0  0  0  0
   46.7990   -4.0890   72.2590 O   0  0  0  0  0  0
   52.2400   -6.9180   72.0250 N   0  0  0  0  0  0
   51.4160   -8.0830   71.6660 C   0  0  2  0  0  0
   51.4330   -9.3550   72.5800 C   0  0  0  0  0  0
   50.3850  -10.0030   72.8180 O   0  0  0  0  0  0
   51.7220   -8.4880   70.2260 C   0  0  0  0  0  0
   53.1710   -8.7700   69.9550 C   0  0  0  0  0  0
   53.3380   -9.4530   68.6090 C   0  0  0  0  0  0
   53.0250   -8.5300   67.4430 C   0  0  0  0  0  0
   54.1600   -7.6160   67.1730 N   0  3  0  0  0  0
   52.6110   -9.7260   73.0810 N   0  0  0  0  0  0
   52.7290  -10.9070   73.9280 C   0  0  2  0  0  0
   52.3040  -10.6330   75.3840 C   0  0  0  0  0  0
   52.8270  -11.2660   76.3140 O   0  0  0  0  0  0
   54.1660  -11.4420   73.9430 C   0  0  0  0  0  0
   54.8520  -11.4600   72.6070 C   0  0  0  0  0  0
   55.4620  -10.3100   72.1060 C   0  0  0  0  0  0
   54.9880  -12.6510   71.9050 C   0  0  0  0  0  0
   56.2040  -10.3510   70.9250 C   0  0  0  0  0  0
   55.7310  -12.7040   70.7240 C   0  0  0  0  0  0
   56.3400  -11.5520   70.2350 C   0  0  0  0  0  0
   51.3950   -9.6860   75.6000 N   0  0  0  0  0  0
   50.9320   -9.3880   76.9630 C   0  0  2  0  0  0
   49.4140   -9.1920   77.0480 C   0  0  0  0  0  0
   48.8850   -9.2010   78.1840 O   0  0  0  0  0  0
   51.6560   -8.1550   77.5220 C   0  0  0  0  0  0
   53.1510   -8.2700   77.4840 C   0  0  0  0  0  0
   53.8430   -8.8460   78.5530 C   0  0  0  0  0  0
   53.8630   -7.8420   76.3670 C   0  0  0  0  0  0
   55.2200   -9.0000   78.5090 C   0  0  0  0  0  0
   55.2400   -7.9900   76.3120 C   0  0  0  0  0  0
   55.9210   -8.5710   77.3840 C   0  0  0  0  0  0
   48.7205   -9.0271   76.0090 O   0  0  0  0  0  0
   54.0155    8.5907   63.1926 H   0  0  0  0  0  0
   53.6851    6.8997   62.6844 H   0  0  0  0  0  0
   55.3773    7.4948   62.7790 H   0  0  0  0  0  0
   55.1459    7.7703   65.1876 H   0  0  0  0  0  0
   53.4537    7.1752   65.0931 H   0  0  0  0  0  0
   54.9684    5.6975   66.7193 H   0  0  0  0  0  0
   55.7091    3.4349   64.8675 H   0  0  0  0  0  0
   57.0167    4.1275   67.6218 H   0  0  0  0  0  0
   57.5562    2.7910   66.5497 H   0  0  0  0  0  0
   58.6550    3.3482   64.3576 H   0  0  0  0  0  0
   57.8399    6.3277   67.3360 H   0  0  0  0  0  0
   60.3186    4.8490   63.2982 H   0  0  0  0  0  0
   59.5163    7.8252   66.2795 H   0  0  0  0  0  0
   61.5305    6.8903   63.2594 H   0  0  0  0  0  0
   55.7156    1.2693   65.5852 H   0  0  0  0  0  0
   53.4556    0.8892   67.6245 H   0  0  0  0  0  0
   52.9801   -0.0654   65.4069 H   0  0  0  0  0  0
   54.5572   -0.9252   65.3946 H   0  0  0  0  0  0
   52.9453   -2.5950   65.8153 H   0  0  0  0  0  0
   53.6553   -2.2478   67.4283 H   0  0  0  0  0  0
   50.2344   -2.1618   68.5446 H   0  0  0  0  0  0
   53.8163   -0.2321   69.4864 H   0  0  0  0  0  0
   56.6776   -0.9321   70.1853 H   0  0  0  0  0  0
   55.2376    0.0308   71.8995 H   0  0  0  0  0  0
   53.9809   -1.2218   71.6201 H   0  0  0  0  0  0
   54.8736   -0.6024   74.1592 H   0  0  0  0  0  0
   55.8776   -2.0935   74.7904 H   0  0  0  0  0  0
   55.6927   -4.9531   68.2610 H   0  0  0  0  0  0
   58.5766   -5.4438   69.1194 H   0  0  0  0  0  0
   57.8270   -5.7256   67.5115 H   0  0  0  0  0  0
   59.4343   -3.6251   67.7541 H   0  0  0  0  0  0
   57.8400   -3.3775   66.9643 H   0  0  0  0  0  0
   57.7968   -1.7347   68.8050 H   0  0  0  0  0  0
   58.5500   -2.9038   69.9420 H   0  0  0  0  0  0
   57.1924   -4.3701   71.3621 H   0  0  0  0  0  0
   56.8951   -7.1421   72.2223 H   0  0  0  0  0  0
   56.8802   -4.7126   74.1812 H   0  0  0  0  0  0
   58.5037   -4.1243   72.3694 H   0  0  0  0  0  0
   56.8893   -7.0619   75.1145 H   0  0  0  0  0  0
   58.3826   -6.1469   75.5140 H   0  0  0  0  0  0
   58.4073   -7.3805   74.2084 H   0  0  0  0  0  0
   54.8918   -4.2780   72.5578 H   0  0  0  0  0  0
   53.1264   -5.0629   74.5401 H   0  0  0  0  0  0
   52.6192   -2.9122   73.6637 H   0  0  0  0  0  0
   52.8571   -3.4528   71.9673 H   0  0  0  0  0  0
   51.0231   -4.5619   70.7538 H   0  0  0  0  0  0
   50.4521   -2.8795   74.6530 H   0  0  0  0  0  0
   48.5839   -4.7703   70.4750 H   0  0  0  0  0  0
   48.0019   -3.0801   74.3690 H   0  0  0  0  0  0
   46.3893   -4.5134   71.3305 H   0  0  0  0  0  0
   53.0200   -6.5625   71.3356 H   0  0  0  0  0  0
   50.4203   -7.6385   71.8110 H   0  0  0  0  0  0
   51.1653   -9.4033   69.9764 H   0  0  0  0  0  0
   51.4204   -7.6782   69.5454 H   0  0  0  0  0  0
   53.7334   -7.8247   69.9479 H   0  0  0  0  0  0
   53.5698   -9.4280   70.7412 H   0  0  0  0  0  0
   54.3772   -9.7964   68.4985 H   0  0  0  0  0  0
   52.6583  -10.3158   68.5488 H   0  0  0  0  0  0
   52.8322   -9.1303   66.5417 H   0  0  0  0  0  0
   52.1351   -7.9284   67.6802 H   0  0  0  0  0  0
   53.9090   -6.9598   66.3266 H   0  0  0  0  0  0
   55.0552   -8.2059   66.9267 H   0  0  0  0  0  0
   54.3582   -7.0040   68.0653 H   0  0  0  0  0  0
   53.5026   -9.1260   72.8466 H   0  0  0  0  0  0
   52.0396  -11.6164   73.4468 H   0  0  0  0  0  0
   54.7831  -10.8168   74.6050 H   0  0  0  0  0  0
   54.1676  -12.4785   74.3113 H   0  0  0  0  0  0
   55.3578   -9.3676   72.6437 H   0  0  0  0  0  0
   54.5089  -13.5551   72.2807 H   0  0  0  0  0  0
   56.6757   -9.4452   70.5440 H   0  0  0  0  0  0
   55.8339  -13.6462   70.1858 H   0  0  0  0  0  0
   56.9219  -11.5903   69.3141 H   0  0  0  0  0  0
   50.9894   -9.1236   74.7461 H   0  0  0  0  0  0
   51.1958  -10.2892   77.5359 H   0  0  0  0  0  0
   51.3791   -7.2686   76.9324 H   0  0  0  0  0  0
   51.3643   -8.0030   78.5717 H   0  0  0  0  0  0
   53.2926   -9.1786   79.4331 H   0  0  0  0  0  0
   53.3338   -7.3872   75.5296 H   0  0  0  0  0  0
   55.7496   -9.4528   79.3472 H   0  0  0  0  0  0
   55.7905   -7.6535   75.4335 H   0  0  0  0  0  0
   57.0037   -8.6891   77.3404 H   0  0  0  0  0  0
   47.6324   -8.8880   76.0904 H   0  0  0  0  0  0
  1  2  1  0  0  0
  1 92  1  0  0  0
  1 93  1  0  0  0
  1 94  1  0  0  0
  2  3  1  0  0  0
  2 95  1  0  0  0
  2 96  1  0  0  0
  3  4  2  0  0  0
  3  5  1  0  0  0
  5  6  1  0  0  0
  5 97  1  0  0  0
  6  7  1  0  0  0
  6  9  1  0  0  0
  6 98  1  0  0  0
  7  8  2  0  0  0
  7 17  1  0  0  0
  9 10  1  0  0  0
  9 99  1  0  0  0
  9100  1  0  0  0
 10 11  2  0  0  0
 10 12  1  0  0  0
 11 13  1  0  0  0
 11101  1  0  0  0
 12 14  2  0  0  0
 12102  1  0  0  0
 13 15  2  0  0  0
 13103  1  0  0  0
 14 15  1  0  0  0
 14104  1  0  0  0
 15 16  1  0  0  0
 16105  1  0  0  0
 17 18  1  0  0  0
 17106  1  0  0  0
 18 19  1  0  0  0
 18 21  1  0  0  0
 18107  1  0  0  0
 19 20  2  0  0  0
 19 26  1  0  0  0
 21 22  1  0  0  0
 21108  1  0  0  0
 21109  1  0  0  0
 22 23  1  0  0  0
 22110  1  0  0  0
 22111  1  0  0  0
 23 24  2  0  0  0
 23 25  1  0  0  0
 25112  1  0  0  0
 26 27  1  0  0  0
 26113  1  0  0  0
 27 28  1  0  0  0
 27 30  1  0  0  0
 27114  1  0  0  0
 28 29  2  0  0  0
 28 34  1  0  0  0
 30 31  1  0  0  0
 30115  1  0  0  0
 30116  1  0  0  0
 31 32  2  0  0  0
 31 33  1  0  0  0
 33117  1  0  0  0
 33118  1  0  0  0
 34 35  1  0  0  0
 34 40  1  0  0  0
 35 36  1  0  0  0
 35 38  1  0  0  0
 35119  1  0  0  0
 36 37  2  0  0  0
 36 41  1  0  0  0
 38 39  1  0  0  0
 38120  1  0  0  0
 38121  1  0  0  0
 39 40  1  0  0  0
 39122  1  0  0  0
 39123  1  0  0  0
 40124  1  0  0  0
 40125  1  0  0  0
 41 42  1  0  0  0
 41126  1  0  0  0
 42 43  1  0  0  0
 42 45  1  0  0  0
 42127  1  0  0  0
 43 44  2  0  0  0
 43 48  1  0  0  0
 45 46  1  0  0  0
 45 47  1  0  0  0
 45128  1  0  0  0
 46129  1  0  0  0
 47130  1  0  0  0
 47131  1  0  0  0
 47132  1  0  0  0
 48 49  1  0  0  0
 48133  1  0  0  0
 49 50  1  0  0  0
 49 52  1  0  0  0
 49134  1  0  0  0
 50 51  2  0  0  0
 50 60  1  0  0  0
 52 53  1  0  0  0
 52135  1  0  0  0
 52136  1  0  0  0
 53 54  2  0  0  0
 53 55  1  0  0  0
 54 56  1  0  0  0
 54137  1  0  0  0
 55 57  2  0  0  0
 55138  1  0  0  0
 56 58  2  0  0  0
 56139  1  0  0  0
 57 58  1  0  0  0
 57140  1  0  0  0
 58 59  1  0  0  0
 59141  1  0  0  0
 60 61  1  0  0  0
 60142  1  0  0  0
 61 62  1  0  0  0
 61 64  1  0  0  0
 61143  1  0  0  0
 62 63  2  0  0  0
 62 69  1  0  0  0
 64 65  1  0  0  0
 64144  1  0  0  0
 64145  1  0  0  0
 65 66  1  0  0  0
 65146  1  0  0  0
 65147  1  0  0  0
 66 67  1  0  0  0
 66148  1  0  0  0
 66149  1  0  0  0
 67 68  1  0  0  0
 67150  1  0  0  0
 67151  1  0  0  0
 68152  1  0  0  0
 68153  1  0  0  0
 68154  1  0  0  0
 69 70  1  0  0  0
 69155  1  0  0  0
 70 71  1  0  0  0
 70 73  1  0  0  0
 70156  1  0  0  0
 71 72  2  0  0  0
 71 80  1  0  0  0
 73 74  1  0  0  0
 73157  1  0  0  0
 73158  1  0  0  0
 74 75  2  0  0  0
 74 76  1  0  0  0
 75 77  1  0  0  0
 75159  1  0  0  0
 76 78  2  0  0  0
 76160  1  0  0  0
 77 79  2  0  0  0
 77161  1  0  0  0
 78 79  1  0  0  0
 78162  1  0  0  0
 79163  1  0  0  0
 80 81  1  0  0  0
 80164  1  0  0  0
 81 82  1  0  0  0
 81 84  1  0  0  0
 81165  1  0  0  0
 82 83  2  0  0  0
 82 91  1  0  0  0
 84 85  1  0  0  0
 84166  1  0  0  0
 84167  1  0  0  0
 85 86  2  0  0  0
 85 87  1  0  0  0
 86 88  1  0  0  0
 86168  1  0  0  0
 87 89  2  0  0  0
 87169  1  0  0  0
 88 90  2  0  0  0
 88170  1  0  0  0
 89 90  1  0  0  0
 89171  1  0  0  0
 90172  1  0  0  0
 91173  1  0  0  0
M  CHG  2   1   1  68   1
M  END
> <s_m_source_file>
../1aqc_ligand.sdf

> <i_m_source_file_index>
1

> <s_epik_input>
W2NIXTFbY0hdYyhbT0hdKVtjSF1bY0hdYzFbQ0gyXVtDQEhdKFtOSF1DKD1PKVtDSDJdW05IMytdKUMoPU8pW05IXVtDQEBIXShbQ0gyXVtDSDJdQyg9TylbT0hdKUMoPU8pW05IXVtDQEBIXShbQ0gyXUMoPU8pW05IMl0pQyg9TylOMltDQEBIXShbQ0gyXVtDSDJdW0NIMl0yKUMoPU8pW05IXVtDQEBIXShbQ0BIXShbT0hdKVtDSDNdKUMoPU8pW05IXVtDQEBIXShbQ0gyXWMzW2NIXVtjSF1jKFtPSF0pW2NIXVtjSF0zKUMoPU8pW05IXVtDQEBIXShbQ0gyXVtDSDJdW0NIMl1bQ0gyXVtOSDMrXSlDKD1PKVtOSF1bQ0BASF0oW0NIMl1jNFtjSF1bY0hdW2NIXVtjSF1bY0hdNClDKD1PKVtOSF1bQ0BIXShDKD1PKVtPSF0pW0NIMl1jNVtjSF1bY0hdW2NIXVtjSF1bY0hdNQ==

> <s_epik_cmdline>
J2VwaWtfYXBwJywgJy1pbWFlJywgJ2xpZ2FuZF9wcm8ubWFlJywgJy1vbWFlJywgJ2xpZ2FuZF9wcmVwLm1hZScsICctbXMnLCAnMScsICctcGgnLCAnNycsICctcGh0JywgJzAuNScsICctbnQn

> <s_epik_pKa_notes>
Molecule size exceeds maximum supported for generating protonation states

$$$$
