1aqi_ligand
                    3D
 Schrodinger Suite 2020-3.
 46 48  0  0  1  0            999 V2000
   35.0980   37.2760   16.3730 N   0  3  0  0  0  0
   35.3680   38.1320   15.2250 C   0  0  1  0  0  0
   36.5500   39.0800   15.5150 C   0  0  0  0  0  0
   37.8990   38.4090   15.7750 C   0  0  0  0  0  0
   39.2560   39.5610   16.1130 S   0  0  0  0  0  0
   35.6260   37.3000   13.9700 C   0  0  0  0  0  0
   35.2830   36.0990   13.9790 O   0  5  0  0  0  0
   36.1650   37.8490   12.9900 O   0  0  0  0  0  0
   40.6340   39.3230   14.9780 C   0  0  0  0  0  0
   41.9160   40.0280   15.4140 C   0  0  1  0  0  0
   42.7480   39.1230   16.1830 O   0  0  0  0  0  0
   42.7300   40.4690   14.2070 C   0  0  1  0  0  0
   43.2890   41.7710   14.4440 O   0  0  0  0  0  0
   43.8370   39.4570   14.1000 C   0  0  1  0  0  0
   45.0400   40.0680   13.6340 O   0  0  0  0  0  0
   44.0060   38.9220   15.5010 C   0  0  2  0  0  0
   44.3670   37.5030   15.4740 N   0  0  0  0  0  0
   43.8860   36.5110   14.6920 C   0  0  0  0  0  0
   44.3970   35.3390   14.8500 N   0  0  0  0  0  0
   45.3340   35.5600   15.8580 C   0  0  0  0  0  0
   46.2170   34.7030   16.5250 C   0  0  0  0  0  0
   46.3490   33.4060   16.2090 N   0  0  0  0  0  0
   46.9830   35.2430   17.5000 N   0  0  0  0  0  0
   46.8690   36.5460   17.7720 C   0  0  0  0  0  0
   46.0790   37.4550   17.2110 N   0  0  0  0  0  0
   45.3240   36.8820   16.2490 C   0  0  0  0  0  0
   34.9162   37.8997   17.2607 H   0  0  0  0  0  0
   35.9641   36.6227   16.5549 H   0  0  0  0  0  0
   34.2099   36.6595   16.1699 H   0  0  0  0  0  0
   34.4464   38.7149   15.0808 H   0  0  0  0  0  0
   36.7025   39.7494   14.6556 H   0  0  0  0  0  0
   36.3288   39.6784   16.4111 H   0  0  0  0  0  0
   37.8163   37.7459   16.6488 H   0  0  0  0  0  0
   38.1912   37.8193   14.8936 H   0  0  0  0  0  0
   40.8614   38.2498   14.8973 H   0  0  0  0  0  0
   40.3646   39.7163   13.9866 H   0  0  0  0  0  0
   41.6498   40.8828   16.0531 H   0  0  0  0  0  0
   42.1415   40.5733   13.2835 H   0  0  0  0  0  0
   42.6267   42.6428   14.5508 H   0  0  0  0  0  0
   43.6464   38.6746   13.3507 H   0  0  0  0  0  0
   45.0789   40.5079   12.6265 H   0  0  0  0  0  0
   44.8040   39.4333   16.0594 H   0  0  0  0  0  0
   43.0999   36.6947   13.9595 H   0  0  0  0  0  0
   45.7259   32.9670   15.4159 H   0  0  0  0  0  0
   47.0804   32.7815   16.7429 H   0  0  0  0  0  0
   47.5161   36.9159   18.5673 H   0  0  0  0  0  0
  1  2  1  0  0  0
  1 27  1  0  0  0
  1 28  1  0  0  0
  1 29  1  0  0  0
  2  3  1  0  0  0
  2  6  1  0  0  0
  2 30  1  0  0  0
  3  4  1  0  0  0
  3 31  1  0  0  0
  3 32  1  0  0  0
  4  5  1  0  0  0
  4 33  1  0  0  0
  4 34  1  0  0  0
  5  9  1  0  0  0
  6  7  1  0  0  0
  6  8  2  0  0  0
  9 10  1  0  0  0
  9 35  1  0  0  0
  9 36  1  0  0  0
 10 11  1  0  0  0
 10 12  1  0  0  0
 10 37  1  0  0  0
 11 16  1  0  0  0
 12 13  1  0  0  0
 12 14  1  0  0  0
 12 38  1  0  0  0
 13 39  1  0  0  0
 14 15  1  0  0  0
 14 16  1  0  0  0
 14 40  1  0  0  0
 15 41  1  0  0  0
 16 17  1  0  0  0
 16 42  1  0  0  0
 17 18  1  0  0  0
 17 26  1  0  0  0
 18 19  2  0  0  0
 18 43  1  0  0  0
 19 20  1  0  0  0
 20 21  2  0  0  0
 20 26  1  0  0  0
 21 22  1  0  0  0
 21 23  1  0  0  0
 22 44  1  0  0  0
 22 45  1  0  0  0
 23 24  2  0  0  0
 24 25  1  0  0  0
 24 46  1  0  0  0
 25 26  2  0  0  0
M  CHG  2   1   1   7  -1
M  END
> <s_m_source_file>
../1aqi_ligand.sdf

> <i_m_source_file_index>
1

> <s_epik_input>
W09IXUMoPU8pW0NAQEhdKFtOSDMrXSlbQ0gyXVtDSDJdU1tDSDJdW0NASF0xT1tDQEhdKFtDQEhdKFtPSF0pW0NAQEhdMVtPSF0pbihbY0hdbjIpYyhjMjMpbltjSF1uYzNbTkgyXQ==

> <s_epik_cmdline>
J2VwaWtfYXBwJywgJy1pbWFlJywgJ2xpZ2FuZF9wcm8ubWFlJywgJy1vbWFlJywgJ2xpZ2FuZF9wcmVwLm1hZScsICctbXMnLCAnMScsICctcGgnLCAnNycsICctcGh0JywgJzAuNScsICctbnQn

> <r_lp_tautomer_probability>
1

> <r_epik_Ionization_Penalty>
  0.0026

> <r_epik_Ionization_Penalty_Charging>
  0.0022

> <r_epik_Ionization_Penalty_Neutral>
  0.0004

> <r_epik_State_Penalty>
 -0.0000

> <r_epik_Charging_Adjusted_Penalty>
0.00216156469931729

> <i_epik_Tot_Q>
0

> <i_epik_Tot_abs_Q>
2

> <s_epik_Chemistry_Notes>
This compound contains an acetal/aminal-like group ( X-CH(R)-Y where X, Y are N, S, or O) that may be acid/base labile, releasing an aldehyde.

$$$$
