1aqj_ligand
                    3D
 Schrodinger Suite 2020-3.
 51 53  0  0  1  0            999 V2000
   35.0350   36.8700   16.4130 N   0  3  0  0  0  0
   35.5490   37.6800   15.3140 C   0  0  2  0  0  0
   35.3180   36.9490   13.9970 C   0  0  0  0  0  0
   35.5060   35.7160   13.9700 O   0  5  0  0  0  0
   34.9580   37.6160   13.0100 O   0  0  0  0  0  0
   37.0500   37.9380   15.4770 C   0  0  0  0  0  0
   37.4660   38.7330   16.7040 C   0  0  0  0  0  0
   38.9810   38.7180   16.9120 C   0  0  2  0  0  0
   39.3780   39.5750   18.0710 N   0  3  0  0  0  0
   39.6110   39.2090   15.6140 C   0  0  0  0  0  0
   41.0290   39.7080   15.7650 C   0  0  1  0  0  0
   41.8610   38.7160   16.3940 O   0  0  0  0  0  0
   41.6210   40.0390   14.4110 C   0  0  1  0  0  0
   41.9830   41.4180   14.3700 O   0  0  0  0  0  0
   42.8460   39.1770   14.2770 C   0  0  1  0  0  0
   43.9530   39.9590   13.8160 O   0  0  0  0  0  0
   43.1030   38.6250   15.6680 C   0  0  2  0  0  0
   43.5990   37.2270   15.6110 N   0  0  0  0  0  0
   43.2180   36.2030   14.8020 C   0  0  0  0  0  0
   43.8450   35.0770   14.9420 N   0  0  0  0  0  0
   44.7580   35.3670   15.9710 C   0  0  0  0  0  0
   45.6230   34.5530   16.7290 C   0  0  0  0  0  0
   45.8100   33.2600   16.4740 N   0  0  0  0  0  0
   46.2510   35.1200   17.7820 N   0  0  0  0  0  0
   46.0250   36.4040   18.0600 C   0  0  0  0  0  0
   45.2360   37.2720   17.4350 N   0  0  0  0  0  0
   44.6170   36.6820   16.3840 C   0  0  0  0  0  0
   33.9575   36.7005   16.2708 H   0  0  0  0  0  0
   35.2010   37.3958   17.3648 H   0  0  0  0  0  0
   35.5589   35.9030   16.4320 H   0  0  0  0  0  0
   34.9909   38.6271   15.3546 H   0  0  0  0  0  0
   37.5820   36.9775   15.5436 H   0  0  0  0  0  0
   37.4212   38.5034   14.6095 H   0  0  0  0  0  0
   37.1462   39.7792   16.5888 H   0  0  0  0  0  0
   36.9929   38.3013   17.5984 H   0  0  0  0  0  0
   39.3416   37.7109   17.1684 H   0  0  0  0  0  0
   38.9065   39.1925   18.9883 H   0  0  0  0  0  0
   39.0477   40.6089   17.8926 H   0  0  0  0  0  0
   40.4719   39.5540   18.1848 H   0  0  0  0  0  0
   39.6339   38.3868   14.8836 H   0  0  0  0  0  0
   39.0167   40.0419   15.2100 H   0  0  0  0  0  0
   41.0245   40.5858   16.4279 H   0  0  0  0  0  0
   40.9167   39.9073   13.5764 H   0  0  0  0  0  0
   41.2071   42.1931   14.4547 H   0  0  0  0  0  0
   42.7461   38.3924   13.5125 H   0  0  0  0  0  0
   43.9186   40.4285   12.8218 H   0  0  0  0  0  0
   43.8648   39.1985   16.2164 H   0  0  0  0  0  0
   42.4209   36.3234   14.0684 H   0  0  0  0  0  0
   45.3031   32.7891   15.6189 H   0  0  0  0  0  0
   46.4715   32.6624   17.1184 H   0  0  0  0  0  0
   46.5635   36.7978   18.9220 H   0  0  0  0  0  0
  1  2  1  0  0  0
  1 28  1  0  0  0
  1 29  1  0  0  0
  1 30  1  0  0  0
  2  3  1  0  0  0
  2  6  1  0  0  0
  2 31  1  0  0  0
  3  4  1  0  0  0
  3  5  2  0  0  0
  6  7  1  0  0  0
  6 32  1  0  0  0
  6 33  1  0  0  0
  7  8  1  0  0  0
  7 34  1  0  0  0
  7 35  1  0  0  0
  8  9  1  0  0  0
  8 10  1  0  0  0
  8 36  1  0  0  0
  9 37  1  0  0  0
  9 38  1  0  0  0
  9 39  1  0  0  0
 10 11  1  0  0  0
 10 40  1  0  0  0
 10 41  1  0  0  0
 11 12  1  0  0  0
 11 13  1  0  0  0
 11 42  1  0  0  0
 12 17  1  0  0  0
 13 14  1  0  0  0
 13 15  1  0  0  0
 13 43  1  0  0  0
 14 44  1  0  0  0
 15 16  1  0  0  0
 15 17  1  0  0  0
 15 45  1  0  0  0
 16 46  1  0  0  0
 17 18  1  0  0  0
 17 47  1  0  0  0
 18 19  1  0  0  0
 18 27  1  0  0  0
 19 20  2  0  0  0
 19 48  1  0  0  0
 20 21  1  0  0  0
 21 22  2  0  0  0
 21 27  1  0  0  0
 22 23  1  0  0  0
 22 24  1  0  0  0
 23 49  1  0  0  0
 23 50  1  0  0  0
 24 25  2  0  0  0
 25 26  1  0  0  0
 25 51  1  0  0  0
 26 27  2  0  0  0
M  CHG  3   1   1   4  -1   9   1
M  END
> <s_m_source_file>
../1aqj_ligand.sdf

> <i_m_source_file_index>
1

> <s_epik_input>
W09IXUMoPU8pW0NAQEhdKFtOSDMrXSlbQ0gyXVtDSDJdW0NASF0oW05IMytdKVtDSDJdW0NASF0xT1tDQEhdKFtDQEhdKFtPSF0pW0NAQEhdMVtPSF0pbihbY0hdbjIpYyhjMjMpbltjSF1uYzNbTkgyXQ==

> <s_epik_cmdline>
J2VwaWtfYXBwJywgJy1pbWFlJywgJ2xpZ2FuZF9wcm8ubWFlJywgJy1vbWFlJywgJ2xpZ2FuZF9wcmVwLm1hZScsICctbXMnLCAnMScsICctcGgnLCAnNycsICctcGh0JywgJzAuNScsICctbnQn

> <r_lp_tautomer_probability>
1

> <r_epik_Ionization_Penalty>
  0.0044

> <r_epik_Ionization_Penalty_Charging>
  0.0040

> <r_epik_Ionization_Penalty_Neutral>
  0.0004

> <r_epik_State_Penalty>
 -0.0000

> <r_epik_Charging_Adjusted_Penalty>
0.00403663670421057

> <i_epik_Tot_Q>
1

> <i_epik_Tot_abs_Q>
3

> <s_epik_Chemistry_Notes>
This compound contains an acetal/aminal-like group ( X-CH(R)-Y where X, Y are N, S, or O) that may be acid/base labile, releasing an aldehyde.

$$$$
