1at5_ligand
                    3D
 Schrodinger Suite 2020-3.
 84 86  0  0  1  0            999 V2000
    0.9260   26.6220   35.5900 C   0  0  1  0  0  0
    0.6330   26.1320   37.0110 C   0  0  1  0  0  0
   -0.7300   26.6860   37.4410 C   0  0  2  0  0  0
   -0.6860   28.2190   37.3700 C   0  0  1  0  0  0
   -0.3460   28.6190   35.9250 C   0  0  1  0  0  0
   -0.2800   30.1110   35.6720 C   0  0  0  0  0  0
    1.6700   24.0010   37.5250 C   0  0  0  0  0  0
    1.5600   22.4830   37.5320 C   0  0  0  0  0  0
    0.6250   24.6800   37.0490 N   0  0  0  0  0  0
   -1.0590   26.2490   38.7530 O   0  0  0  0  0  0
   -1.9450   28.7700   37.7500 O   0  0  0  0  0  0
    0.9300   28.0560   35.5420 O   0  0  0  0  0  0
   -0.3580   30.3870   34.2790 O   0  0  0  0  0  0
    2.6990   24.5420   37.9310 O   0  0  0  0  0  0
    4.2690   26.1440   31.5340 C   0  0  1  0  0  0
    4.0870   27.4930   32.2300 C   0  0  1  0  0  0
    3.6500   27.3550   33.6720 C   0  0  2  0  0  0
    2.4750   26.4070   33.7800 C   0  0  1  0  0  0
    2.7900   25.0840   33.0970 C   0  0  1  0  0  0
    1.6000   24.1390   33.1280 C   0  0  0  0  0  0
    5.5030   29.2310   31.3310 C   0  0  0  0  0  0
    6.8410   29.9610   31.3530 C   0  0  0  0  0  0
    5.3340   28.2350   32.1960 N   0  0  0  0  0  0
    3.2610   28.6340   34.1330 O   0  0  0  0  0  0
    2.1680   26.1770   35.1690 O   0  0  0  0  0  0
    3.1200   25.3070   31.7140 O   0  0  0  0  0  0
    0.4600   24.7360   32.5200 O   0  0  0  0  0  0
    4.6300   29.5780   30.5350 O   0  0  0  0  0  0
    5.9260   24.7590   26.6890 C   0  0  2  0  0  0
    4.6300   24.1040   27.1640 C   0  0  1  0  0  0
    3.9680   24.9500   28.2640 C   0  0  2  0  0  0
    4.9780   25.3730   29.3480 C   0  0  1  0  0  0
    6.2350   25.9460   28.7180 C   0  0  1  0  0  0
    7.3220   26.2930   29.7270 C   0  0  0  0  0  0
    3.4690   22.7380   25.5340 C   0  0  0  0  0  0
    2.5500   22.6760   24.3250 C   0  0  0  0  0  0
    3.7370   23.9470   26.0230 N   0  0  0  0  0  0
    6.5800   23.9010   25.8170 O   0  0  0  0  0  0
    2.9460   24.1850   28.8720 O   0  0  0  0  0  0
    4.3920   26.3860   30.1760 O   0  0  0  0  0  0
    6.7890   24.9900   27.7970 O   0  0  0  0  0  0
    7.9360   25.1220   30.2510 O   0  0  0  0  0  0
    3.8820   21.6970   26.0510 O   0  0  0  0  0  0
    0.1962   26.2399   34.8610 H   0  0  0  0  0  0
    1.4259   26.4321   37.7119 H   0  0  0  0  0  0
   -1.5456   26.2759   36.8274 H   0  0  0  0  0  0
    0.0196   28.6454   38.0983 H   0  0  0  0  0  0
   -1.1377   28.2010   35.2858 H   0  0  0  0  0  0
   -1.1199   30.6067   36.1808 H   0  0  0  0  0  0
    0.6696   30.5072   36.0609 H   0  0  0  0  0  0
    0.5777   22.1848   37.1369 H   0  0  0  0  0  0
    1.6689   22.1122   38.5619 H   0  0  0  0  0  0
    2.3539   22.0550   36.9023 H   0  0  0  0  0  0
   -0.2510   24.1250   36.6821 H   0  0  0  0  0  0
   -1.1314   25.1736   38.9725 H   0  0  0  0  0  0
   -2.3457   28.5830   38.7572 H   0  0  0  0  0  0
   -0.3241   31.4268   33.9216 H   0  0  0  0  0  0
    5.1529   25.5923   31.8867 H   0  0  0  0  0  0
    3.3241   28.0659   31.6825 H   0  0  0  0  0  0
    4.4761   27.0112   34.3119 H   0  0  0  0  0  0
    1.5819   26.8637   33.3286 H   0  0  0  0  0  0
    3.6635   24.6372   33.5943 H   0  0  0  0  0  0
    1.8494   23.2173   32.5819 H   0  0  0  0  0  0
    1.3550   23.8920   34.1715 H   0  0  0  0  0  0
    7.4891   29.5156   32.1222 H   0  0  0  0  0  0
    6.6751   31.0237   31.5837 H   0  0  0  0  0  0
    7.3243   29.8705   30.3690 H   0  0  0  0  0  0
    6.1478   27.9750   32.8889 H   0  0  0  0  0  0
    3.9845   29.4626   34.1319 H   0  0  0  0  0  0
   -0.4870   24.1794   32.4617 H   0  0  0  0  0  0
    5.7620   25.7102   26.1615 H   0  0  0  0  0  0
    4.8248   23.0933   27.5520 H   0  0  0  0  0  0
    3.4842   25.8342   27.8234 H   0  0  0  0  0  0
    5.2265   24.5206   29.9974 H   0  0  0  0  0  0
    5.9407   26.8519   28.1677 H   0  0  0  0  0  0
    8.0952   26.9035   29.2376 H   0  0  0  0  0  0
    6.8812   26.8591   30.5608 H   0  0  0  0  0  0
    2.2904   23.6972   24.0090 H   0  0  0  0  0  0
    1.6327   22.1296   24.5894 H   0  0  0  0  0  0
    3.0619   22.1564   23.5016 H   0  0  0  0  0  0
    3.2778   24.8319   25.5581 H   0  0  0  0  0  0
    6.0898   23.5865   24.8839 H   0  0  0  0  0  0
    2.1218   23.7854   28.2629 H   0  0  0  0  0  0
    8.7425   25.2093   30.9939 H   0  0  0  0  0  0
  1  2  1  0  0  0
  1 12  1  0  0  0
  1 25  1  0  0  0
  1 44  1  0  0  0
  2  3  1  0  0  0
  2  9  1  0  0  0
  2 45  1  0  0  0
  3  4  1  0  0  0
  3 10  1  0  0  0
  3 46  1  0  0  0
  4  5  1  0  0  0
  4 11  1  0  0  0
  4 47  1  0  0  0
  5  6  1  0  0  0
  5 12  1  0  0  0
  5 48  1  0  0  0
  6 13  1  0  0  0
  6 49  1  0  0  0
  6 50  1  0  0  0
  7  8  1  0  0  0
  7  9  1  0  0  0
  7 14  2  0  0  0
  8 51  1  0  0  0
  8 52  1  0  0  0
  8 53  1  0  0  0
  9 54  1  0  0  0
 10 55  1  0  0  0
 11 56  1  0  0  0
 13 57  1  0  0  0
 15 16  1  0  0  0
 15 26  1  0  0  0
 15 40  1  0  0  0
 15 58  1  0  0  0
 16 17  1  0  0  0
 16 23  1  0  0  0
 16 59  1  0  0  0
 17 18  1  0  0  0
 17 24  1  0  0  0
 17 60  1  0  0  0
 18 19  1  0  0  0
 18 25  1  0  0  0
 18 61  1  0  0  0
 19 20  1  0  0  0
 19 26  1  0  0  0
 19 62  1  0  0  0
 20 27  1  0  0  0
 20 63  1  0  0  0
 20 64  1  0  0  0
 21 22  1  0  0  0
 21 23  1  0  0  0
 21 28  2  0  0  0
 22 65  1  0  0  0
 22 66  1  0  0  0
 22 67  1  0  0  0
 23 68  1  0  0  0
 24 69  1  0  0  0
 27 70  1  0  0  0
 29 30  1  0  0  0
 29 38  1  0  0  0
 29 41  1  0  0  0
 29 71  1  0  0  0
 30 31  1  0  0  0
 30 37  1  0  0  0
 30 72  1  0  0  0
 31 32  1  0  0  0
 31 39  1  0  0  0
 31 73  1  0  0  0
 32 33  1  0  0  0
 32 40  1  0  0  0
 32 74  1  0  0  0
 33 34  1  0  0  0
 33 41  1  0  0  0
 33 75  1  0  0  0
 34 42  1  0  0  0
 34 76  1  0  0  0
 34 77  1  0  0  0
 35 36  1  0  0  0
 35 37  1  0  0  0
 35 43  2  0  0  0
 36 78  1  0  0  0
 36 79  1  0  0  0
 36 80  1  0  0  0
 37 81  1  0  0  0
 38 82  1  0  0  0
 39 83  1  0  0  0
 42 84  1  0  0  0
M  END
> <s_m_source_file>
../1at5_ligand.sdf

> <i_m_source_file_index>
1

> <s_epik_input>
W09IXVtDSDJdW0NAQEhdKE8xKVtDQEBIXShbT0hdKVtDQEhdKFtPSF0pW0NAQEhdKFtOSF1DKD1PKVtDSDNdKVtDQEBIXTFPW0NASF0oW0NASF0oTzIpW0NIMl1bT0hdKVtDQEhdKFtPSF0pW0NAQEhdKFtOSF1DKD1PKVtDSDNdKVtDQEBIXTJPW0NASF0oW0NASF0oTzMpW0NIMl1bT0hdKVtDQEhdKFtPSF0pW0NASF0oW0NAQEhdM1tPSF0pW05IXUMoPU8pW0NIM10=

> <s_epik_cmdline>
J2VwaWtfYXBwJywgJy1pbWFlJywgJ2xpZ2FuZF9wcm8ubWFlJywgJy1vbWFlJywgJ2xpZ2FuZF9wcmVwLm1hZScsICctbXMnLCAnMScsICctcGgnLCAnNycsICctcGh0JywgJzAuNScsICctbnQn

> <r_lp_tautomer_probability>
1

> <r_epik_Ionization_Penalty>
  0.0000

> <r_epik_Ionization_Penalty_Charging>
  0.0000

> <r_epik_Ionization_Penalty_Neutral>
  0.0000

> <r_epik_State_Penalty>
 -0.0000

> <r_epik_Charging_Adjusted_Penalty>
0

> <i_epik_Tot_Q>
0

> <i_epik_Tot_abs_Q>
0

> <s_epik_Chemistry_Notes>
This compound contains an acetal/aminal-like group ( X-CH(R)-Y where X, Y are N, S, or O) that may be acid/base labile, releasing an aldehyde.

$$$$
