1at6_ligand
                    3D
 Schrodinger Suite 2020-3.
 84 86  0  0  1  0            999 V2000
    0.5030   25.5860   35.2660 C   0  0  1  0  0  0
   -0.0200   25.0100   36.5920 C   0  0  1  0  0  0
   -1.4070   25.5880   36.8750 C   0  0  2  0  0  0
   -1.3790   27.1160   36.8460 C   0  0  1  0  0  0
   -0.8000   27.5870   35.5190 C   0  0  1  0  0  0
   -0.6710   29.1020   35.4330 C   0  0  0  0  0  0
    0.5440   22.7870   37.3730 C   0  0  0  0  0  0
    0.3400   21.2900   37.2490 C   0  0  0  0  0  0
   -0.1310   23.5610   36.5260 N   0  0  0  0  0  0
   -1.8810   25.1370   38.1360 O   0  0  0  0  0  0
   -2.7040   27.6070   36.9860 O   0  0  0  0  0  0
    0.5180   27.0230   35.3220 O   0  0  0  0  0  0
   -0.6300   29.5300   34.0780 O   0  0  0  0  0  0
    1.3540   23.2280   38.1900 O   0  0  0  0  0  0
    4.1080   24.8800   31.4660 C   0  0  1  0  0  0
    4.0380   26.2450   32.1730 C   0  0  1  0  0  0
    3.5710   26.1410   33.6180 C   0  0  2  0  0  0
    2.2760   25.3290   33.6640 C   0  0  1  0  0  0
    2.5570   23.9680   33.0420 C   0  0  1  0  0  0
    1.3870   22.9950   33.1300 C   0  0  0  0  0  0
    5.5920   27.8740   31.2910 C   0  0  0  0  0  0
    6.9760   28.5050   31.3240 C   0  0  0  0  0  0
    5.3410   26.8870   32.1480 N   0  0  0  0  0  0
    3.3630   27.4550   34.1170 O   0  0  0  0  0  0
    1.8050   25.1580   35.0210 O   0  0  0  0  0  0
    2.8920   24.1380   31.6500 O   0  0  0  0  0  0
    0.2040   23.5540   32.5810 O   0  0  0  0  0  0
    4.7630   28.2750   30.4730 O   0  0  0  0  0  0
    5.5090   23.4150   26.5820 C   0  0  2  0  0  0
    4.1560   22.9030   27.0680 C   0  0  1  0  0  0
    3.6210   23.8250   28.1640 C   0  0  2  0  0  0
    4.6730   24.0510   29.2560 C   0  0  1  0  0  0
    6.0120   24.4500   28.6500 C   0  0  1  0  0  0
    7.1450   24.5880   29.6680 C   0  0  0  0  0  0
    2.7390   21.7090   25.5050 C   0  0  0  0  0  0
    1.8140   21.7800   24.3130 C   0  0  0  0  0  0
    3.2360   22.8610   25.9420 N   0  0  0  0  0  0
    6.0350   22.5340   25.6510 O   0  0  0  0  0  0
    2.4590   23.2450   28.7420 O   0  0  0  0  0  0
    4.2380   25.1170   30.1080 O   0  0  0  0  0  0
    6.4180   23.4750   27.6780 O   0  0  0  0  0  0
    7.3240   23.3910   30.4180 O   0  0  0  0  0  0
    2.9580   20.6220   26.0560 O   0  0  0  0  0  0
   -0.0982   25.2582   34.4051 H   0  0  0  0  0  0
    0.6922   25.2255   37.4021 H   0  0  0  0  0  0
   -2.1326   25.2032   36.1432 H   0  0  0  0  0  0
   -0.8127   27.5301   37.6932 H   0  0  0  0  0  0
   -1.4630   27.2203   34.7215 H   0  0  0  0  0  0
   -1.5341   29.5721   35.9269 H   0  0  0  0  0  0
    0.2557   29.4201   35.9331 H   0  0  0  0  0  0
   -0.4149   21.0857   36.4754 H   0  0  0  0  0  0
   -0.0037   20.8857   38.2126 H   0  0  0  0  0  0
    1.2905   20.8124   36.9690 H   0  0  0  0  0  0
   -0.7784   23.0929   35.7699 H   0  0  0  0  0  0
   -1.9680   24.0591   38.3374 H   0  0  0  0  0  0
   -3.2867   27.3679   37.8878 H   0  0  0  0  0  0
   -0.5383   30.6004   33.8419 H   0  0  0  0  0  0
    4.9476   24.2554   31.8052 H   0  0  0  0  0  0
    3.3356   26.8862   31.6202 H   0  0  0  0  0  0
    4.3306   25.6967   34.2779 H   0  0  0  0  0  0
    1.4591   25.8613   33.1547 H   0  0  0  0  0  0
    3.4203   23.5363   33.5696 H   0  0  0  0  0  0
    1.6300   22.0781   32.5730 H   0  0  0  0  0  0
    1.1971   22.7442   34.1841 H   0  0  0  0  0  0
    7.5785   28.0265   32.1102 H   0  0  0  0  0  0
    6.8837   29.5804   31.5362 H   0  0  0  0  0  0
    7.4664   28.3643   30.3495 H   0  0  0  0  0  0
    6.1295   26.5582   32.8409 H   0  0  0  0  0  0
    4.1992   28.1689   34.1518 H   0  0  0  0  0  0
   -0.7278   22.9695   32.5723 H   0  0  0  0  0  0
    5.4483   24.4019   26.1000 H   0  0  0  0  0  0
    4.2314   21.8740   27.4494 H   0  0  0  0  0  0
    3.3013   24.7849   27.7322 H   0  0  0  0  0  0
    4.7810   23.1470   29.8733 H   0  0  0  0  0  0
    5.8562   25.4131   28.1419 H   0  0  0  0  0  0
    8.0849   24.8123   29.1424 H   0  0  0  0  0  0
    6.9121   25.4045   30.3674 H   0  0  0  0  0  0
    1.7450   22.8209   23.9640 H   0  0  0  0  0  0
    0.8146   21.4234   24.6027 H   0  0  0  0  0  0
    2.2089   21.1475   23.5043 H   0  0  0  0  0  0
    2.9411   23.7930   25.4377 H   0  0  0  0  0  0
    5.4923   22.3337   24.7154 H   0  0  0  0  0  0
    1.5901   23.0083   28.1103 H   0  0  0  0  0  0
    8.1047   23.3379   31.1911 H   0  0  0  0  0  0
  1  2  1  0  0  0
  1 12  1  0  0  0
  1 25  1  0  0  0
  1 44  1  0  0  0
  2  3  1  0  0  0
  2  9  1  0  0  0
  2 45  1  0  0  0
  3  4  1  0  0  0
  3 10  1  0  0  0
  3 46  1  0  0  0
  4  5  1  0  0  0
  4 11  1  0  0  0
  4 47  1  0  0  0
  5  6  1  0  0  0
  5 12  1  0  0  0
  5 48  1  0  0  0
  6 13  1  0  0  0
  6 49  1  0  0  0
  6 50  1  0  0  0
  7  8  1  0  0  0
  7  9  1  0  0  0
  7 14  2  0  0  0
  8 51  1  0  0  0
  8 52  1  0  0  0
  8 53  1  0  0  0
  9 54  1  0  0  0
 10 55  1  0  0  0
 11 56  1  0  0  0
 13 57  1  0  0  0
 15 16  1  0  0  0
 15 26  1  0  0  0
 15 40  1  0  0  0
 15 58  1  0  0  0
 16 17  1  0  0  0
 16 23  1  0  0  0
 16 59  1  0  0  0
 17 18  1  0  0  0
 17 24  1  0  0  0
 17 60  1  0  0  0
 18 19  1  0  0  0
 18 25  1  0  0  0
 18 61  1  0  0  0
 19 20  1  0  0  0
 19 26  1  0  0  0
 19 62  1  0  0  0
 20 27  1  0  0  0
 20 63  1  0  0  0
 20 64  1  0  0  0
 21 22  1  0  0  0
 21 23  1  0  0  0
 21 28  2  0  0  0
 22 65  1  0  0  0
 22 66  1  0  0  0
 22 67  1  0  0  0
 23 68  1  0  0  0
 24 69  1  0  0  0
 27 70  1  0  0  0
 29 30  1  0  0  0
 29 38  1  0  0  0
 29 41  1  0  0  0
 29 71  1  0  0  0
 30 31  1  0  0  0
 30 37  1  0  0  0
 30 72  1  0  0  0
 31 32  1  0  0  0
 31 39  1  0  0  0
 31 73  1  0  0  0
 32 33  1  0  0  0
 32 40  1  0  0  0
 32 74  1  0  0  0
 33 34  1  0  0  0
 33 41  1  0  0  0
 33 75  1  0  0  0
 34 42  1  0  0  0
 34 76  1  0  0  0
 34 77  1  0  0  0
 35 36  1  0  0  0
 35 37  1  0  0  0
 35 43  2  0  0  0
 36 78  1  0  0  0
 36 79  1  0  0  0
 36 80  1  0  0  0
 37 81  1  0  0  0
 38 82  1  0  0  0
 39 83  1  0  0  0
 42 84  1  0  0  0
M  END
> <s_m_source_file>
../1at6_ligand.sdf

> <i_m_source_file_index>
1

> <s_epik_input>
W09IXVtDSDJdW0NAQEhdKE8xKVtDQEBIXShbT0hdKVtDQEhdKFtPSF0pW0NAQEhdKFtOSF1DKD1PKVtDSDNdKVtDQEBIXTFPW0NASF0oW0NASF0oTzIpW0NIMl1bT0hdKVtDQEhdKFtPSF0pW0NAQEhdKFtOSF1DKD1PKVtDSDNdKVtDQEBIXTJPW0NASF0oW0NASF0oTzMpW0NIMl1bT0hdKVtDQEhdKFtPSF0pW0NASF0oW0NAQEhdM1tPSF0pW05IXUMoPU8pW0NIM10=

> <s_epik_cmdline>
J2VwaWtfYXBwJywgJy1pbWFlJywgJ2xpZ2FuZF9wcm8ubWFlJywgJy1vbWFlJywgJ2xpZ2FuZF9wcmVwLm1hZScsICctbXMnLCAnMScsICctcGgnLCAnNycsICctcGh0JywgJzAuNScsICctbnQn

> <r_lp_tautomer_probability>
1

> <r_epik_Ionization_Penalty>
  0.0000

> <r_epik_Ionization_Penalty_Charging>
  0.0000

> <r_epik_Ionization_Penalty_Neutral>
  0.0000

> <r_epik_State_Penalty>
 -0.0000

> <r_epik_Charging_Adjusted_Penalty>
0

> <i_epik_Tot_Q>
0

> <i_epik_Tot_abs_Q>
0

> <s_epik_Chemistry_Notes>
This compound contains an acetal/aminal-like group ( X-CH(R)-Y where X, Y are N, S, or O) that may be acid/base labile, releasing an aldehyde.

$$$$
