1atr_ligand
                    3D
 Schrodinger Suite 2020-3.
 39 41  0  0  1  0            999 V2000
   17.6640   29.5160   16.4650 P   0  0  0  0  0  0
   17.3040   29.9120   17.8520 O   0  5  0  0  0  0
   18.7360   28.5200   16.4050 O   0  0  0  0  0  0
   16.4940   29.1230   15.6610 O   0  5  0  0  0  0
   19.5220   31.4600   15.1380 P   0  0  1  0  0  0
   20.5160   30.3580   15.2030 O   0  0  0  0  0  0
   19.3000   32.1620   13.8450 O   0  5  0  0  0  0
   18.1510   30.9090   15.8280 O   0  0  0  0  0  0
   19.7630   32.5300   16.2290 O   0  0  0  0  0  0
   18.9980   33.6940   16.2380 C   0  0  0  0  0  0
   19.3640   34.5520   17.4210 C   0  0  1  0  0  0
   20.5810   35.1190   16.9730 O   0  0  0  0  0  0
   18.4780   35.7970   17.7970 C   0  0  1  0  0  0
   18.6370   35.9420   19.1990 O   0  0  0  0  0  0
   19.1400   36.9210   17.0330 C   0  0  1  0  0  0
   18.9060   38.1850   17.6830 O   0  0  0  0  0  0
   20.5930   36.4980   17.2240 C   0  0  2  0  0  0
   21.4930   37.1880   16.2800 N   0  0  0  0  0  0
   21.5360   37.3100   14.9100 C   0  0  0  0  0  0
   22.4270   38.1730   14.4750 N   0  0  0  0  0  0
   23.0070   38.6320   15.6660 C   0  0  0  0  0  0
   24.0140   39.5520   15.8950 C   0  0  0  0  0  0
   24.5300   40.1990   14.8540 N   0  0  0  0  0  0
   24.3810   39.7860   17.1730 N   0  0  0  0  0  0
   23.7640   39.1250   18.1310 C   0  0  0  0  0  0
   22.7920   38.2290   18.0420 N   0  0  0  0  0  0
   22.4540   38.0330   16.7390 C   0  0  0  0  0  0
   19.1817   34.2607   15.3133 H   0  0  0  0  0  0
   17.9317   33.4315   16.3014 H   0  0  0  0  0  0
   19.3884   33.8865   18.2965 H   0  0  0  0  0  0
   17.3908   35.7817   17.6301 H   0  0  0  0  0  0
   18.2056   35.1950   19.8816 H   0  0  0  0  0  0
   18.7843   37.1017   16.0079 H   0  0  0  0  0  0
   17.9074   38.6449   17.6480 H   0  0  0  0  0  0
   21.0018   36.6905   18.2269 H   0  0  0  0  0  0
   20.8878   36.7407   14.2437 H   0  0  0  0  0  0
   24.1889   39.9625   13.8353 H   0  0  0  0  0  0
   25.2979   40.9706   15.0116 H   0  0  0  0  0  0
   24.1019   39.3473   19.1432 H   0  0  0  0  0  0
  1  2  1  0  0  0
  1  3  2  0  0  0
  1  4  1  0  0  0
  1  8  1  0  0  0
  5  6  2  0  0  0
  5  7  1  0  0  0
  5  8  1  0  0  0
  5  9  1  0  0  0
  9 10  1  0  0  0
 10 11  1  0  0  0
 10 28  1  0  0  0
 10 29  1  0  0  0
 11 12  1  0  0  0
 11 13  1  0  0  0
 11 30  1  0  0  0
 12 17  1  0  0  0
 13 14  1  0  0  0
 13 15  1  0  0  0
 13 31  1  0  0  0
 14 32  1  0  0  0
 15 16  1  0  0  0
 15 17  1  0  0  0
 15 33  1  0  0  0
 16 34  1  0  0  0
 17 18  1  0  0  0
 17 35  1  0  0  0
 18 19  1  0  0  0
 18 27  1  0  0  0
 19 20  2  0  0  0
 19 36  1  0  0  0
 20 21  1  0  0  0
 21 22  2  0  0  0
 21 27  1  0  0  0
 22 23  1  0  0  0
 22 24  1  0  0  0
 23 37  1  0  0  0
 23 38  1  0  0  0
 24 25  2  0  0  0
 25 26  1  0  0  0
 25 39  1  0  0  0
 26 27  2  0  0  0
M  CHG  3   2  -1   4  -1   7  -1
M  END
> <s_m_source_file>
../1atr_ligand.sdf

> <i_m_source_file_index>
1

> <s_epik_input>
W09IXVAoPU8pKFtPSF0pT1tQQEBdKD1PKShbT0hdKU9bQ0gyXVtDQEhdMU9bQ0BIXShbQ0BIXShbT0hdKVtDQEBIXTFbT0hdKW4oW2NIXW4yKWMoYzIzKW5bY0hdbmMzW05IMl0=

> <s_epik_cmdline>
J2VwaWtfYXBwJywgJy1pbWFlJywgJ2xpZ2FuZF9wcm8ubWFlJywgJy1vbWFlJywgJ2xpZ2FuZF9wcmVwLm1hZScsICctbXMnLCAnMScsICctcGgnLCAnNycsICctcGh0JywgJzAuNScsICctbnQn

> <r_lp_tautomer_probability>
0.999997216410988

> <r_epik_Ionization_Penalty>
  0.1037

> <r_epik_Ionization_Penalty_Charging>
  0.1033

> <r_epik_Ionization_Penalty_Neutral>
  0.0004

> <r_epik_State_Penalty>
  0.0922

> <r_epik_Charging_Adjusted_Penalty>
0.19546844050481

> <i_epik_Tot_Q>
-3

> <i_epik_Tot_abs_Q>
3

> <s_epik_Chemistry_Notes>
This compound contains an acetal/aminal-like group ( X-CH(R)-Y where X, Y are N, S, or O) that may be acid/base labile, releasing an aldehyde.

$$$$
