1au0_ligand
                    3D
 Schrodinger Suite 2020-3.
 86 87  0  0  1  0            999 V2000
    0.1300   37.0370   62.7980 C   0  0  0  0  0  0
    0.1770   38.1890   63.5960 C   0  0  0  0  0  0
    1.3730   38.8940   63.7360 C   0  0  0  0  0  0
    2.5250   38.4630   63.0900 C   0  0  0  0  0  0
    2.4630   37.3170   62.2950 C   0  0  0  0  0  0
    1.2740   36.6030   62.1480 C   0  0  0  0  0  0
    3.8290   39.1950   63.2760 C   0  0  0  0  0  0
    4.4150   39.0790   64.5860 O   0  0  0  0  0  0
    5.7520   38.6560   64.6190 C   0  0  0  0  0  0
    6.6190   39.2640   63.9820 O   0  0  0  0  0  0
    7.3000   36.9030   65.4950 C   0  0  1  0  0  0
    8.2250   37.1880   64.3040 C   0  0  0  0  0  0
    8.2630   36.1550   63.1750 C   0  0  0  0  0  0
    9.5650   36.3100   62.4070 C   0  0  0  0  0  0
    8.1000   34.7130   63.6930 C   0  0  0  0  0  0
    8.1020   36.9950   66.7950 C   0  0  0  0  0  0
    8.4740   35.9560   67.3540 O   0  0  0  0  0  0
    8.4100   38.1960   67.2870 N   0  0  0  0  0  0
    9.2040   38.3940   68.5110 C   0  0  0  0  0  0
    5.9860   37.5620   65.3510 N   0  0  0  0  0  0
    8.4860   39.1680   69.5950 C   0  0  0  0  0  0
    7.6040   39.8630   69.0990 O   0  0  0  0  0  0
   18.5740   35.2160   73.8060 C   0  0  0  0  0  0
   17.2110   35.3850   73.5800 C   0  0  0  0  0  0
   16.7800   36.3930   72.7340 C   0  0  0  0  0  0
   17.6880   37.2480   72.1000 C   0  0  0  0  0  0
   19.0470   37.0740   72.3350 C   0  0  0  0  0  0
   19.4980   36.0650   73.1820 C   0  0  0  0  0  0
   17.2100   38.3240   71.1590 C   0  0  0  0  0  0
   16.1370   38.0570   70.2410 O   0  0  0  0  0  0
   14.8290   37.7800   70.7060 C   0  0  0  0  0  0
   14.3690   36.6360   70.7060 O   0  0  0  0  0  0
   12.7400   38.5980   71.6500 C   0  0  1  0  0  0
   12.6760   38.7120   73.1710 C   0  0  0  0  0  0
   12.8410   37.4320   73.9700 C   0  0  0  0  0  0
   12.5570   36.2090   73.0970 C   0  0  0  0  0  0
   14.2560   37.4030   74.4850 C   0  0  0  0  0  0
   11.7710   39.5920   71.0350 C   0  0  0  0  0  0
   12.1680   40.6910   70.6630 O   0  0  0  0  0  0
   10.5020   39.2030   70.9360 N   0  0  0  0  0  0
    9.4300   40.0210   70.3680 C   0  0  0  0  0  0
   14.1070   38.8040   71.1590 N   0  0  0  0  0  0
   -0.8034   36.4848   62.6894 H   0  0  0  0  0  0
   -0.7216   38.5341   64.1074 H   0  0  0  0  0  0
    1.4037   39.7894   64.3568 H   0  0  0  0  0  0
    3.3602   36.9740   61.7798 H   0  0  0  0  0  0
    1.2449   35.7088   61.5254 H   0  0  0  0  0  0
    4.5725   38.8061   62.5646 H   0  0  0  0  0  0
    3.6755   40.2692   63.0954 H   0  0  0  0  0  0
    6.8929   35.8817   65.5295 H   0  0  0  0  0  0
    7.9252   38.1315   63.8245 H   0  0  0  0  0  0
    9.2634   37.2702   64.6576 H   0  0  0  0  0  0
    7.4170   36.3502   62.4996 H   0  0  0  0  0  0
    9.6580   37.3457   62.0483 H   0  0  0  0  0  0
    9.5681   35.6228   61.5481 H   0  0  0  0  0  0
   10.4114   36.0737   63.0687 H   0  0  0  0  0  0
    7.1521   34.6264   64.2443 H   0  0  0  0  0  0
    8.9374   34.4671   64.3625 H   0  0  0  0  0  0
    8.0941   34.0161   62.8419 H   0  0  0  0  0  0
    8.0370   39.0660   66.7267 H   0  0  0  0  0  0
    9.4728   37.4156   68.9359 H   0  0  0  0  0  0
   10.1201   38.9522   68.2676 H   0  0  0  0  0  0
    5.1060   37.1534   65.8693 H   0  0  0  0  0  0
    7.8567   38.5435   70.2461 H   0  0  0  0  0  0
    6.8145   39.3981   68.4902 H   0  0  0  0  0  0
   18.9226   34.4235   74.4682 H   0  0  0  0  0  0
   16.4884   34.7289   74.0653 H   0  0  0  0  0  0
   15.7121   36.5229   72.5585 H   0  0  0  0  0  0
   19.7669   37.7342   71.8513 H   0  0  0  0  0  0
   20.5658   35.9360   73.3590 H   0  0  0  0  0  0
   16.8516   39.1865   71.7400 H   0  0  0  0  0  0
   18.0404   38.6388   70.5098 H   0  0  0  0  0  0
   12.4809   37.5786   71.3280 H   0  0  0  0  0  0
   13.4741   39.3825   73.5223 H   0  0  0  0  0  0
   11.6981   39.1192   73.4674 H   0  0  0  0  0  0
   12.1361   37.4116   74.8142 H   0  0  0  0  0  0
   11.5199   36.2514   72.7328 H   0  0  0  0  0  0
   12.7002   35.2938   73.6903 H   0  0  0  0  0  0
   13.2466   36.2021   72.2400 H   0  0  0  0  0  0
   14.4373   38.2905   75.1091 H   0  0  0  0  0  0
   14.9553   37.4028   73.6359 H   0  0  0  0  0  0
   14.4089   36.4945   75.0861 H   0  0  0  0  0  0
   10.2817   38.1946   71.3163 H   0  0  0  0  0  0
    9.8696   40.7781   69.7019 H   0  0  0  0  0  0
    8.8880   40.5211   71.1842 H   0  0  0  0  0  0
   14.5465   39.8124   71.1622 H   0  0  0  0  0  0
  1  2  2  0  0  0
  1  6  1  0  0  0
  1 43  1  0  0  0
  2  3  1  0  0  0
  2 44  1  0  0  0
  3  4  2  0  0  0
  3 45  1  0  0  0
  4  5  1  0  0  0
  4  7  1  0  0  0
  5  6  2  0  0  0
  5 46  1  0  0  0
  6 47  1  0  0  0
  7  8  1  0  0  0
  7 48  1  0  0  0
  7 49  1  0  0  0
  8  9  1  0  0  0
  9 10  2  0  0  0
  9 20  1  0  0  0
 11 12  1  0  0  0
 11 16  1  0  0  0
 11 20  1  0  0  0
 11 50  1  0  0  0
 12 13  1  0  0  0
 12 51  1  0  0  0
 12 52  1  0  0  0
 13 14  1  0  0  0
 13 15  1  0  0  0
 13 53  1  0  0  0
 14 54  1  0  0  0
 14 55  1  0  0  0
 14 56  1  0  0  0
 15 57  1  0  0  0
 15 58  1  0  0  0
 15 59  1  0  0  0
 16 17  2  0  0  0
 16 18  1  0  0  0
 18 19  1  0  0  0
 18 60  1  0  0  0
 19 21  1  0  0  0
 19 61  1  0  0  0
 19 62  1  0  0  0
 20 63  1  0  0  0
 21 22  1  0  0  0
 21 41  1  0  0  0
 21 64  1  0  0  0
 22 65  1  0  0  0
 23 24  2  0  0  0
 23 28  1  0  0  0
 23 66  1  0  0  0
 24 25  1  0  0  0
 24 67  1  0  0  0
 25 26  2  0  0  0
 25 68  1  0  0  0
 26 27  1  0  0  0
 26 29  1  0  0  0
 27 28  2  0  0  0
 27 69  1  0  0  0
 28 70  1  0  0  0
 29 30  1  0  0  0
 29 71  1  0  0  0
 29 72  1  0  0  0
 30 31  1  0  0  0
 31 32  2  0  0  0
 31 42  1  0  0  0
 33 34  1  0  0  0
 33 38  1  0  0  0
 33 42  1  0  0  0
 33 73  1  0  0  0
 34 35  1  0  0  0
 34 74  1  0  0  0
 34 75  1  0  0  0
 35 36  1  0  0  0
 35 37  1  0  0  0
 35 76  1  0  0  0
 36 77  1  0  0  0
 36 78  1  0  0  0
 36 79  1  0  0  0
 37 80  1  0  0  0
 37 81  1  0  0  0
 37 82  1  0  0  0
 38 39  2  0  0  0
 38 40  1  0  0  0
 40 41  1  0  0  0
 40 83  1  0  0  0
 41 84  1  0  0  0
 41 85  1  0  0  0
 42 86  1  0  0  0
M  END
> <s_m_source_file>
../1au0_ligand.sdf

> <i_m_source_file_index>
1

> <s_epik_input>
W2NIXTFbY0hdW2NIXVtjSF1bY0hdYzFbQ0gyXU9DKD1PKVtOSF1bQ0BASF0oW0NIMl1bQ0hdKFtDSDNdKVtDSDNdKUMoPU8pW05IXVtDSDJdW0NIXShbT0hdKVtDSDJdW05IXUMoPU8pW0NASF0oW0NIMl1bQ0hdKFtDSDNdKVtDSDNdKVtOSF1DKD1PKU9bQ0gyXWMyW2NIXVtjSF1bY0hdW2NIXVtjSF0y

> <s_epik_cmdline>
J2VwaWtfYXBwJywgJy1pbWFlJywgJ2xpZ2FuZF9wcm8ubWFlJywgJy1vbWFlJywgJ2xpZ2FuZF9wcmVwLm1hZScsICctbXMnLCAnMScsICctcGgnLCAnNycsICctcGh0JywgJzAuNScsICctbnQn

> <r_lp_tautomer_probability>
1

> <r_epik_Ionization_Penalty>
  0.0000

> <r_epik_Ionization_Penalty_Charging>
  0.0000

> <r_epik_Ionization_Penalty_Neutral>
  0.0000

> <r_epik_State_Penalty>
 -0.0000

> <r_epik_Charging_Adjusted_Penalty>
0

> <i_epik_Tot_Q>
0

> <i_epik_Tot_abs_Q>
0

> <s_epik_Chemistry_Notes>
This compound has an ester and may undergo hydrolysis at high or low pH.

$$$$
