1au2_ligand
                    3D
 Schrodinger Suite 2020-3.
 70 72  0  0  1  0            999 V2000
    3.2680   39.4450   63.9150 C   0  0  0  0  0  0
    3.0200   38.6560   62.7970 C   0  0  0  0  0  0
    1.7520   38.1850   62.5520 C   0  0  0  0  0  0
    0.7360   38.4880   63.3900 C   0  0  0  0  0  0
    0.9530   39.2620   64.4790 C   0  0  0  0  0  0
    2.1820   39.7320   64.7470 C   0  0  0  0  0  0
    4.6460   39.9500   64.2870 O   0  0  0  0  0  0
    5.6050   39.0650   64.6990 C   0  0  0  0  0  0
    5.5930   38.7770   66.0560 C   0  0  0  0  0  0
    6.5610   37.8690   66.7090 C   0  0  0  0  0  0
    7.5660   37.2330   65.9310 C   0  0  0  0  0  0
    7.5920   37.5030   64.5500 C   0  0  0  0  0  0
    6.5980   38.4320   63.8920 C   0  0  0  0  0  0
    8.7260   36.1520   66.6980 S   0  0  0  0  0  0
    8.1080   34.8230   66.9790 O   0  0  0  0  0  0
    9.9290   36.0860   65.8280 O   0  0  0  0  0  0
    9.2680   36.8500   68.1670 N   0  0  3  0  0  0
    9.4800   38.3070   68.3640 C   0  0  0  0  0  0
    8.9590   39.2330   69.4960 C   0  0  2  0  0  0
    8.2830   39.9960   68.5450 O   0  0  0  0  0  0
   10.1500   40.1030   70.1250 C   0  0  0  0  0  0
   10.8640   39.0530   70.8690 N   0  0  0  0  0  0
   11.8470   39.2820   71.7330 C   0  0  0  0  0  0
   12.2700   40.4480   72.0140 O   0  0  0  0  0  0
   12.4010   38.0250   72.3840 C   0  0  2  0  0  0
   11.7520   37.8550   73.7800 C   0  0  0  0  0  0
   12.4260   37.9740   75.1570 C   0  0  0  0  0  0
   12.6610   36.6370   75.7620 C   0  0  0  0  0  0
   13.6170   38.9040   75.2430 C   0  0  0  0  0  0
   13.8550   38.0350   72.4770 N   0  0  0  0  0  0
   14.4620   36.8740   72.6910 C   0  0  0  0  0  0
   13.8160   35.8280   72.7860 O   0  0  0  0  0  0
   15.9130   36.4740   72.8910 C   0  0  0  0  0  0
   16.1220   35.8870   74.1330 C   0  0  0  0  0  0
   17.3560   35.4120   74.5400 C   0  0  0  0  0  0
   18.3880   35.5480   73.6430 N   0  0  0  0  0  0
   16.9720   36.5910   72.0350 C   0  0  0  0  0  0
   18.2300   36.1210   72.4110 C   0  0  0  0  0  0
    3.8328   38.4105   62.1135 H   0  0  0  0  0  0
    1.5649   37.5633   61.6764 H   0  0  0  0  0  0
   -0.2648   38.1066   63.1876 H   0  0  0  0  0  0
    0.1239   39.5056   65.1434 H   0  0  0  0  0  0
    2.3360   40.3500   65.6315 H   0  0  0  0  0  0
    4.8281   39.2457   66.6751 H   0  0  0  0  0  0
    6.5038   37.6884   67.7824 H   0  0  0  0  0  0
    8.3546   37.0261   63.9343 H   0  0  0  0  0  0
    6.6386   38.6158   62.8184 H   0  0  0  0  0  0
    9.6137   36.1359   68.9290 H   0  0  0  0  0  0
   10.5565   38.5110   68.4612 H   0  0  0  0  0  0
    9.0794   38.8561   67.4991 H   0  0  0  0  0  0
    8.3655   38.8280   70.3289 H   0  0  0  0  0  0
    7.4284   39.5665   68.0016 H   0  0  0  0  0  0
   10.7393   40.5576   69.3150 H   0  0  0  0  0  0
    9.7289   40.8953   70.7613 H   0  0  0  0  0  0
   10.5931   37.9965   70.7260 H   0  0  0  0  0  0
   12.2042   37.1650   71.7270 H   0  0  0  0  0  0
   10.9493   38.5968   73.9039 H   0  0  0  0  0  0
   11.3320   36.8422   73.8683 H   0  0  0  0  0  0
   11.7040   38.4790   75.8156 H   0  0  0  0  0  0
   11.7536   36.0236   75.6597 H   0  0  0  0  0  0
   12.9057   36.7548   76.8279 H   0  0  0  0  0  0
   13.4976   36.1431   75.2461 H   0  0  0  0  0  0
   13.3644   39.8674   74.7759 H   0  0  0  0  0  0
   14.4720   38.4544   74.7169 H   0  0  0  0  0  0
   13.8801   39.0661   76.2987 H   0  0  0  0  0  0
   14.4064   38.9808   72.3706 H   0  0  0  0  0  0
   15.2773   35.7969   74.8160 H   0  0  0  0  0  0
   17.5016   34.9549   75.5187 H   0  0  0  0  0  0
   16.8332   37.0522   71.0572 H   0  0  0  0  0  0
   19.0774   36.2092   71.7311 H   0  0  0  0  0  0
  1  2  2  0  0  0
  1  6  1  0  0  0
  1  7  1  0  0  0
  2  3  1  0  0  0
  2 39  1  0  0  0
  3  4  2  0  0  0
  3 40  1  0  0  0
  4  5  1  0  0  0
  4 41  1  0  0  0
  5  6  2  0  0  0
  5 42  1  0  0  0
  6 43  1  0  0  0
  7  8  1  0  0  0
  8  9  2  0  0  0
  8 13  1  0  0  0
  9 10  1  0  0  0
  9 44  1  0  0  0
 10 11  2  0  0  0
 10 45  1  0  0  0
 11 12  1  0  0  0
 11 14  1  0  0  0
 12 13  2  0  0  0
 12 46  1  0  0  0
 13 47  1  0  0  0
 14 15  2  0  0  0
 14 16  2  0  0  0
 14 17  1  0  0  0
 17 18  1  0  0  0
 17 48  1  0  0  0
 18 19  1  0  0  0
 18 49  1  0  0  0
 18 50  1  0  0  0
 19 20  1  0  0  0
 19 21  1  0  0  0
 19 51  1  0  0  0
 20 52  1  0  0  0
 21 22  1  0  0  0
 21 53  1  0  0  0
 21 54  1  0  0  0
 22 23  1  0  0  0
 22 55  1  0  0  0
 23 24  2  0  0  0
 23 25  1  0  0  0
 25 26  1  0  0  0
 25 30  1  0  0  0
 25 56  1  0  0  0
 26 27  1  0  0  0
 26 57  1  0  0  0
 26 58  1  0  0  0
 27 28  1  0  0  0
 27 29  1  0  0  0
 27 59  1  0  0  0
 28 60  1  0  0  0
 28 61  1  0  0  0
 28 62  1  0  0  0
 29 63  1  0  0  0
 29 64  1  0  0  0
 29 65  1  0  0  0
 30 31  1  0  0  0
 30 66  1  0  0  0
 31 32  2  0  0  0
 31 33  1  0  0  0
 33 34  2  0  0  0
 33 37  1  0  0  0
 34 35  1  0  0  0
 34 67  1  0  0  0
 35 36  2  0  0  0
 35 68  1  0  0  0
 36 38  1  0  0  0
 37 38  2  0  0  0
 37 69  1  0  0  0
 38 70  1  0  0  0
M  END
> <s_m_source_file>
../1au2_ligand.sdf

> <i_m_source_file_index>
1

> <s_epik_input>
W2NIXTFbY0hdW2NIXVtjSF1bY0hdYzFPYzJbY0hdW2NIXWMoW2NIXVtjSF0yKVMoPU8pKD1PKVtOSF1bQ0gyXVtDQEhdKFtPSF0pW0NIMl1bTkhdQyg9TylbQ0BIXShbQ0gyXVtDSF0oW0NIM10pW0NIM10pW05IXUMoPU8pYzNbY0hdW2NIXW5bY0hdW2NIXTM=

> <s_epik_cmdline>
J2VwaWtfYXBwJywgJy1pbWFlJywgJ2xpZ2FuZF9wcm8ubWFlJywgJy1vbWFlJywgJ2xpZ2FuZF9wcmVwLm1hZScsICctbXMnLCAnMScsICctcGgnLCAnNycsICctcGh0JywgJzAuNScsICctbnQn

> <r_lp_tautomer_probability>
1

> <r_epik_Ionization_Penalty>
  0.0002

> <r_epik_Ionization_Penalty_Charging>
  0.0000

> <r_epik_Ionization_Penalty_Neutral>
  0.0002

> <r_epik_State_Penalty>
 -0.0000

> <r_epik_Charging_Adjusted_Penalty>
0

> <i_epik_Tot_Q>
0

> <i_epik_Tot_abs_Q>
0

$$$$
