1auj_ligand
                    3D
 Schrodinger Suite 2020-3.
 60 62  0  0  1  0            999 V2000
   28.6880   14.3440   20.0590 C   0  0  0  0  0  0
   29.1300   14.0320   18.6180 C   0  0  0  0  0  0
   27.2160   12.4430   20.3260 N   0  0  0  0  0  0
   28.0180   13.4880   22.3260 B   0  0  0  0  0  0
   28.3640   13.1170   20.9210 C   0  0  2  0  0  0
   29.2650   13.8500   23.0040 O   0  0  0  0  0  0
   27.6790   12.2590   23.0420 O   0  0  0  0  0  0
   26.0270    9.6570   18.5570 N   0  0  0  0  0  0
   25.8610   10.7940   19.4520 C   0  0  2  0  0  0
   27.2000   11.1590   19.9930 C   0  0  0  0  0  0
   28.0680   10.3070   20.2210 O   0  0  0  0  0  0
   25.0540   10.2360   20.6240 C   0  0  0  0  0  0
   25.0430    8.7110   20.5270 C   0  0  0  0  0  0
   25.7170    8.3720   19.1850 C   0  0  0  0  0  0
   26.4300    9.9050   17.2980 C   0  0  0  0  0  0
   27.0020   10.9550   16.9850 O   0  0  0  0  0  0
   26.5040    8.6560   16.4010 C   0  0  1  0  0  0
   29.5980   12.7750   18.1930 C   0  0  0  0  0  0
   30.0980   12.6310   16.8910 C   0  0  0  0  0  0
   29.1550   15.1160   17.7090 C   0  0  0  0  0  0
   29.6740   14.9770   16.4010 C   0  0  0  0  0  0
   30.1480   13.7240   16.0140 C   0  0  0  0  0  0
   30.5410   11.2930   16.3440 C   0  0  0  0  0  0
   30.9000   10.2400   15.8950 N   0  0  0  0  0  0
   25.5050    8.5870   15.2370 C   0  0  0  0  0  0
   27.8600    8.5570   15.8690 N   0  3  0  0  0  0
   22.2720    6.9720   16.7130 C   0  0  0  0  0  0
   21.3000    7.4800   15.8130 C   0  0  0  0  0  0
   21.6470    8.3910   14.8060 C   0  0  0  0  0  0
   23.0060    8.7860   14.7030 C   0  0  0  0  0  0
   24.0220    8.2850   15.5680 C   0  0  0  0  0  0
   23.6260    7.3790   16.5930 C   0  0  0  0  0  0
   29.4896   14.8896   20.5784 H   0  0  0  0  0  0
   27.7781   14.9618   20.0378 H   0  0  0  0  0  0
   26.2908   13.0040   20.1278 H   0  0  0  0  0  0
   29.2267   12.4357   20.9593 H   0  0  0  0  0  0
   29.8106   14.7570   22.7045 H   0  0  0  0  0  0
   26.7673   11.7027   22.7786 H   0  0  0  0  0  0
   25.4121   11.6494   18.9259 H   0  0  0  0  0  0
   25.5193   10.5474   21.5708 H   0  0  0  0  0  0
   24.0248   10.6214   20.5771 H   0  0  0  0  0  0
   25.6023    8.2857   21.3734 H   0  0  0  0  0  0
   24.0046    8.3493   20.5549 H   0  0  0  0  0  0
   25.0412    7.7989   18.5332 H   0  0  0  0  0  0
   26.6470    7.8049   19.3382 H   0  0  0  0  0  0
   26.2774    7.7904   17.0408 H   0  0  0  0  0  0
   29.5721   11.9209   18.8698 H   0  0  0  0  0  0
   28.7641   16.0831   18.0251 H   0  0  0  0  0  0
   29.7027   15.8241   15.7156 H   0  0  0  0  0  0
   30.5635   13.5922   15.0150 H   0  0  0  0  0  0
   25.4891    9.5523   14.7097 H   0  0  0  0  0  0
   25.8093    7.7930   14.5392 H   0  0  0  0  0  0
   28.5830    8.6056   16.6966 H   0  0  0  0  0  0
   28.0426    9.3892   15.1733 H   0  0  0  0  0  0
   27.9760    7.6016   15.3363 H   0  0  0  0  0  0
   21.9794    6.2709   17.4946 H   0  0  0  0  0  0
   20.2636    7.1556   15.9065 H   0  0  0  0  0  0
   20.8950    8.7845   14.1221 H   0  0  0  0  0  0
   23.2845    9.5024   13.9302 H   0  0  0  0  0  0
   24.3695    6.9949   17.2914 H   0  0  0  0  0  0
  1  2  1  0  0  0
  1  5  1  0  0  0
  1 33  1  0  0  0
  1 34  1  0  0  0
  2 18  2  0  0  0
  2 20  1  0  0  0
  3  5  1  0  0  0
  3 10  1  0  0  0
  3 35  1  0  0  0
  4  5  1  0  0  0
  4  6  1  0  0  0
  4  7  1  0  0  0
  5 36  1  0  0  0
  6 37  1  0  0  0
  7 38  1  0  0  0
  8  9  1  0  0  0
  8 14  1  0  0  0
  8 15  1  0  0  0
  9 10  1  0  0  0
  9 12  1  0  0  0
  9 39  1  0  0  0
 10 11  2  0  0  0
 12 13  1  0  0  0
 12 40  1  0  0  0
 12 41  1  0  0  0
 13 14  1  0  0  0
 13 42  1  0  0  0
 13 43  1  0  0  0
 14 44  1  0  0  0
 14 45  1  0  0  0
 15 16  2  0  0  0
 15 17  1  0  0  0
 17 25  1  0  0  0
 17 26  1  0  0  0
 17 46  1  0  0  0
 18 19  1  0  0  0
 18 47  1  0  0  0
 19 22  2  0  0  0
 19 23  1  0  0  0
 20 21  2  0  0  0
 20 48  1  0  0  0
 21 22  1  0  0  0
 21 49  1  0  0  0
 22 50  1  0  0  0
 23 24  3  0  0  0
 25 31  1  0  0  0
 25 51  1  0  0  0
 25 52  1  0  0  0
 26 53  1  0  0  0
 26 54  1  0  0  0
 26 55  1  0  0  0
 27 28  2  0  0  0
 27 32  1  0  0  0
 27 56  1  0  0  0
 28 29  1  0  0  0
 28 57  1  0  0  0
 29 30  2  0  0  0
 29 58  1  0  0  0
 30 31  1  0  0  0
 30 59  1  0  0  0
 31 32  2  0  0  0
 32 60  1  0  0  0
M  CHG  1  26   1
M  END
> <s_m_source_file>
../1auj_ligand.sdf

> <i_m_source_file_index>
1

> <s_epik_input>
W2NIXTFbY0hdW2NIXWMoQyNOKVtjSF1jMVtDSDJdW0NAQEhdKEIoW09IXSlbT0hdKVtOSF1DKD1PKVtDQEhdKFtDSDJdW0NIMl1bQ0gyXTIpTjJDKD1PKVtDQEhdKFtOSDMrXSlbQ0gyXWMzW2NIXVtjSF1bY0hdW2NIXVtjSF0z

> <s_epik_cmdline>
J2VwaWtfYXBwJywgJy1pbWFlJywgJ2xpZ2FuZF9wcm8ubWFlJywgJy1vbWFlJywgJ2xpZ2FuZF9wcmVwLm1hZScsICctbXMnLCAnMScsICctcGgnLCAnNycsICctcGh0JywgJzAuNScsICctbnQn

> <r_epik_Ionization_Penalty>
  0.1806

> <r_epik_Ionization_Penalty_Charging>
  0.1806

> <r_epik_Ionization_Penalty_Neutral>
  0.0000

> <r_epik_State_Penalty>
  0.1700

> <r_epik_Charging_Adjusted_Penalty>
0.350598980732845

> <i_epik_Tot_Q>
1

> <i_epik_Tot_abs_Q>
1

> <s_epik_Chemistry_Notes>
This compound contains a Lewis acid (boronic acid) which adds nucleophiles to form tetrahedral complexes, lowering the experimental pKa

$$$$
