1avd_ligand
                    3D
 Schrodinger Suite 2020-3.
 31 32  0  0  1  0            999 V2000
   33.3470    7.5510   14.5800 C   0  0  0  0  0  0
   32.4630    6.7800   14.3090 O   0  0  0  0  0  0
   34.6310    7.3580   14.2570 O   0  5  0  0  0  0
   33.0640    8.8120   15.3570 C   0  0  0  0  0  0
   34.3370    9.2700   16.1400 C   0  0  0  0  0  0
   34.1000   10.3970   17.1550 C   0  0  0  0  0  0
   35.4080   11.0180   17.7030 C   0  0  0  0  0  0
   36.0120   10.2850   18.9330 C   0  0  2  0  0  0
   35.0490   10.3590   20.4690 S   0  0  0  0  0  0
   36.5110    9.7330   21.3280 C   0  0  0  0  0  0
   37.5950   10.6450   20.7660 C   0  0  2  0  0  0
   37.4320   11.9640   21.3400 N   0  0  0  0  0  0
   37.0050   12.8970   20.5100 C   0  0  0  0  0  0
   36.7480   14.0660   20.8030 O   0  0  0  0  0  0
   36.9170   12.3440   19.2800 N   0  0  0  0  0  0
   37.3380   10.9370   19.2710 C   0  0  2  0  0  0
   32.7648    9.6111   14.6628 H   0  0  0  0  0  0
   32.2510    8.6261   16.0743 H   0  0  0  0  0  0
   34.7473    8.4186   16.7028 H   0  0  0  0  0  0
   35.0919    9.6379   15.4295 H   0  0  0  0  0  0
   33.5258   11.2051   16.6782 H   0  0  0  0  0  0
   33.5363   10.0042   18.0141 H   0  0  0  0  0  0
   36.1774   11.0051   16.9170 H   0  0  0  0  0  0
   35.2189   12.0561   18.0140 H   0  0  0  0  0  0
   36.1764    9.2900   18.4938 H   0  0  0  0  0  0
   36.3707    9.8369   22.4141 H   0  0  0  0  0  0
   36.6575    8.6721   21.0771 H   0  0  0  0  0  0
   38.5699   10.1919   20.9987 H   0  0  0  0  0  0
   37.6604   12.1335   22.4026 H   0  0  0  0  0  0
   36.5805   12.8234   18.3489 H   0  0  0  0  0  0
   38.1795   10.6755   18.6125 H   0  0  0  0  0  0
  1  2  2  0  0  0
  1  3  1  0  0  0
  1  4  1  0  0  0
  4  5  1  0  0  0
  4 17  1  0  0  0
  4 18  1  0  0  0
  5  6  1  0  0  0
  5 19  1  0  0  0
  5 20  1  0  0  0
  6  7  1  0  0  0
  6 21  1  0  0  0
  6 22  1  0  0  0
  7  8  1  0  0  0
  7 23  1  0  0  0
  7 24  1  0  0  0
  8  9  1  0  0  0
  8 16  1  0  0  0
  8 25  1  0  0  0
  9 10  1  0  0  0
 10 11  1  0  0  0
 10 26  1  0  0  0
 10 27  1  0  0  0
 11 12  1  0  0  0
 11 16  1  0  0  0
 11 28  1  0  0  0
 12 13  1  0  0  0
 12 29  1  0  0  0
 13 14  2  0  0  0
 13 15  1  0  0  0
 15 16  1  0  0  0
 15 30  1  0  0  0
 16 31  1  0  0  0
M  CHG  1   3  -1
M  END
> <s_m_source_file>
../1avd_ligand.sdf

> <i_m_source_file_index>
1

> <s_epik_input>
Tz1DKFtPSF0pW0NIMl1bQ0gyXVtDSDJdW0NIMl1bQ0BIXShTW0NIMl0xKVtDQEhdKFtDQEhdMTIpW05IXUMoPU8pW05IXTI=

> <s_epik_cmdline>
J2VwaWtfYXBwJywgJy1pbWFlJywgJ2xpZ2FuZF9wcm8ubWFlJywgJy1vbWFlJywgJ2xpZ2FuZF9wcmVwLm1hZScsICctbXMnLCAnMScsICctcGgnLCAnNycsICctcGh0JywgJzAuNScsICctbnQn

> <r_lp_tautomer_probability>
1

> <r_epik_Ionization_Penalty>
  0.0045

> <r_epik_Ionization_Penalty_Charging>
  0.0044

> <r_epik_Ionization_Penalty_Neutral>
  0.0000

> <r_epik_State_Penalty>
 -0.0000

> <r_epik_Charging_Adjusted_Penalty>
0.00443833021372702

> <i_epik_Tot_Q>
-1

> <i_epik_Tot_abs_Q>
1

$$$$
