1avp_ligand
                    3D
 Schrodinger Suite 2020-3.
196196  0  0  1  0            999 V2000
   -4.9480   63.2280   39.2840 N   0  3  0  0  0  0
   -5.1580   62.3770   38.1120 C   0  0  0  0  0  0
   -4.9090   60.9280   38.4450 C   0  0  0  0  0  0
   -4.7970   60.5810   39.6160 O   0  0  0  0  0  0
   -4.8280   60.0800   37.4260 N   0  0  0  0  0  0
   -4.5920   58.6630   37.6480 C   0  0  2  0  0  0
   -3.3880   58.1600   36.8730 C   0  0  0  0  0  0
   -3.0090   58.7210   35.8440 O   0  0  0  0  0  0
   -5.8200   57.7920   37.2530 C   0  0  0  0  0  0
   -7.0490   58.2460   37.9990 C   0  0  0  0  0  0
   -6.0720   57.8600   35.7660 C   0  0  0  0  0  0
   -2.7550   57.1270   37.4020 N   0  0  0  0  0  0
   -1.6280   56.5320   36.7280 C   0  0  2  0  0  0
   -2.2180   55.5780   35.7080 C   0  0  0  0  0  0
   -3.2950   55.0060   35.9180 O   0  0  0  0  0  0
   -0.7380   55.7990   37.7140 C   0  0  0  0  0  0
    0.0740   56.7270   38.5680 C   0  0  0  0  0  0
    0.9110   57.6660   37.7300 C   0  0  0  0  0  0
    1.9840   57.2950   37.2450 O   0  0  0  0  0  0
    0.4080   58.8870   37.5260 N   0  0  0  0  0  0
   -1.5340   55.4240   34.5870 N   0  0  0  0  0  0
   -2.0190   54.5590   33.5290 C   0  0  2  0  0  0
   -0.9650   53.5410   33.1080 C   0  0  0  0  0  0
    0.1700   53.5820   33.5660 O   0  0  0  0  0  0
   -2.4820   55.4020   32.3400 C   0  0  0  0  0  0
   -1.4660   56.3020   31.9310 O   0  0  0  0  0  0
   -1.3540   52.6340   32.2270 N   0  0  0  0  0  0
   -0.4760   51.5860   31.7410 C   0  0  2  0  0  0
   -0.5760   51.5660   30.2140 C   0  0  0  0  0  0
   -1.6820   51.5120   29.6700 O   0  0  0  0  0  0
   -0.9670   50.2630   32.3270 C   0  0  0  0  0  0
   -0.5420   48.9140   31.7720 C   0  0  0  0  0  0
    0.9160   48.6500   32.1030 C   0  0  0  0  0  0
   -1.4420   47.8480   32.3850 C   0  0  0  0  0  0
    0.5630   51.6760   29.5330 N   0  0  0  0  0  0
    0.6060   51.6540   28.0710 C   0  0  2  0  0  0
    1.0560   50.2840   27.5670 C   0  0  0  0  0  0
    2.0780   49.7740   28.0150 O   0  0  0  0  0  0
    1.5810   52.7000   27.5330 C   0  0  0  0  0  0
    1.3280   54.1210   27.9740 C   0  0  0  0  0  0
    1.9570   55.0880   26.9790 C   0  0  0  0  0  0
    1.8250   56.5350   27.4280 C   0  0  0  0  0  0
    2.6770   56.8600   28.6210 N   0  3  0  0  0  0
    0.3010   49.7120   26.6290 N   0  0  0  0  0  0
    0.6110   48.4130   26.0250 C   0  0  2  0  0  0
    0.4760   48.5470   24.5120 C   0  0  0  0  0  0
   -0.4880   49.1280   24.0220 O   0  0  0  0  0  0
   -0.3940   47.3350   26.4420 C   0  0  0  0  0  0
   -0.4710   46.9030   27.9060 C   0  0  0  0  0  0
   -1.6660   45.9430   27.9960 C   0  0  0  0  0  0
   -2.0040   45.4300   29.3320 N   0  0  0  0  0  0
   -3.2520   45.2870   29.7910 C   0  0  0  0  0  0
   -4.2960   45.6380   29.0370 N   0  0  0  0  0  0
   -3.4600   44.7250   30.9790 N   0  0  0  0  0  0
    1.4330   48.0100   23.7710 N   0  0  0  0  0  0
    1.3680   48.0370   22.3160 C   0  0  2  0  0  0
    0.4930   46.8460   21.9430 C   0  0  0  0  0  0
    0.5720   45.7990   22.5700 O   0  0  0  0  0  0
    2.7580   47.8370   21.7240 C   0  0  0  0  0  0
    3.1860   48.8930   20.7090 C   0  0  0  0  0  0
    2.3480   48.8540   19.4420 C   0  0  0  0  0  0
    3.1660   49.1420   18.2590 N   0  0  0  0  0  0
    4.0040   48.2750   17.6920 C   0  0  0  0  0  0
    4.1540   47.0570   18.2000 N   0  0  0  0  0  0
    4.6610   48.6110   16.5860 N   0  0  0  0  0  0
   -0.3500   46.9970   20.9370 N   0  0  0  0  0  0
   -1.2210   45.9040   20.5200 C   0  0  2  0  0  0
   -1.2890   45.9210   19.0060 C   0  0  0  0  0  0
   -1.7070   46.9130   18.4010 O   0  0  0  0  0  0
   -2.6380   46.0810   21.1080 C   0  0  0  0  0  0
   -2.7370   46.0580   22.6330 C   0  0  0  0  0  0
   -2.3580   44.7070   23.2180 C   0  0  0  0  0  0
   -3.4020   43.7030   23.0150 N   0  0  0  0  0  0
   -3.3230   42.6970   22.1470 C   0  0  0  0  0  0
   -2.2420   42.5540   21.3860 N   0  0  0  0  0  0
   -4.3210   41.8290   22.0450 N   0  0  0  0  0  0
   -0.7940   44.8590   18.3920 N   0  0  0  0  0  0
   -0.8120   44.7480   16.9450 C   0  0  2  0  0  0
   -1.6950   43.5550   16.6280 C   0  0  0  0  0  0
   -1.7050   42.5620   17.3540 O   0  0  0  0  0  0
    0.5960   44.5340   16.4110 C   0  0  0  0  0  0
    1.6630   46.0070   16.5660 S   0  0  0  0  0  0
   -2.4870   43.6870   15.5800 N   0  0  0  0  0  0
   -3.4140   42.6410   15.2060 C   0  0  2  0  0  0
   -3.2790   42.3000   13.7370 C   0  0  0  0  0  0
   -4.0950   41.4560   13.2780 O   0  0  0  0  0  0
   -4.8660   43.0560   15.5410 C   0  0  0  0  0  0
   -5.1010   43.3700   16.9940 C   0  0  0  0  0  0
   -4.7240   44.6040   17.5330 C   0  0  0  0  0  0
   -5.6700   42.4280   17.8350 C   0  0  0  0  0  0
   -4.9070   44.8690   18.9040 C   0  0  0  0  0  0
   -5.8550   42.6820   19.1860 C   0  0  0  0  0  0
   -5.4680   43.8990   19.7230 C   0  0  0  0  0  0
   -2.3720   42.8650   13.0640 O   0  0  0  0  0  0
   -5.1360   64.2775   39.0135 H   0  0  0  0  0  0
   -3.9110   63.1198   39.6346 H   0  0  0  0  0  0
   -5.6392   62.9263   40.0848 H   0  0  0  0  0  0
   -6.1950   62.4852   37.7614 H   0  0  0  0  0  0
   -4.4669   62.6787   37.3112 H   0  0  0  0  0  0
   -4.9425   60.4647   36.4018 H   0  0  0  0  0  0
   -4.3901   58.6296   38.7288 H   0  0  0  0  0  0
   -5.6291   56.7406   37.5141 H   0  0  0  0  0  0
   -6.8606   58.1947   39.0815 H   0  0  0  0  0  0
   -7.8958   57.5923   37.7428 H   0  0  0  0  0  0
   -7.2872   59.2822   37.7169 H   0  0  0  0  0  0
   -5.1729   57.5280   35.2262 H   0  0  0  0  0  0
   -6.3091   58.8957   35.4813 H   0  0  0  0  0  0
   -6.9176   57.2058   35.5071 H   0  0  0  0  0  0
   -3.0960   56.7217   38.3661 H   0  0  0  0  0  0
   -1.0263   57.3265   36.2624 H   0  0  0  0  0  0
   -1.3594   55.1853   38.3828 H   0  0  0  0  0  0
   -0.0391   55.1505   37.1653 H   0  0  0  0  0  0
   -0.5983   57.3291   39.1970 H   0  0  0  0  0  0
    0.7480   56.1399   39.2091 H   0  0  0  0  0  0
   -0.5529   59.1691   37.9810 H   0  0  0  0  0  0
    0.9549   59.6101   36.9030 H   0  0  0  0  0  0
   -0.5837   55.9641   34.4636 H   0  0  0  0  0  0
   -2.8691   54.0139   33.9651 H   0  0  0  0  0  0
   -2.7292   54.7411   31.4961 H   0  0  0  0  0  0
   -3.3727   55.9808   32.6256 H   0  0  0  0  0  0
   -1.6418   56.9821   31.0845 H   0  0  0  0  0  0
   -2.3898   52.6969   31.8622 H   0  0  0  0  0  0
    0.5559   51.7932   32.0606 H   0  0  0  0  0  0
   -0.6633   50.1941   33.3820 H   0  0  0  0  0  0
   -2.0638   50.2157   32.2573 H   0  0  0  0  0  0
   -0.6392   48.9001   30.6764 H   0  0  0  0  0  0
    1.5424   49.4323   31.6495 H   0  0  0  0  0  0
    1.2104   47.6678   31.7047 H   0  0  0  0  0  0
    1.0515   48.6586   33.1946 H   0  0  0  0  0  0
   -2.4904   48.0627   32.1305 H   0  0  0  0  0  0
   -1.3220   47.8514   33.4784 H   0  0  0  0  0  0
   -1.1632   46.8605   31.9886 H   0  0  0  0  0  0
    1.4936   51.7865   30.1090 H   0  0  0  0  0  0
   -0.4242   51.8791   27.7579 H   0  0  0  0  0  0
    2.6015   52.4531   27.8612 H   0  0  0  0  0  0
    1.5411   52.7074   26.4337 H   0  0  0  0  0  0
    0.2441   54.3023   28.0228 H   0  0  0  0  0  0
    1.7716   54.2810   28.9678 H   0  0  0  0  0  0
    3.0274   54.8585   26.8713 H   0  0  0  0  0  0
    1.4599   54.9849   26.0032 H   0  0  0  0  0  0
    2.1297   57.2024   26.6085 H   0  0  0  0  0  0
    0.7789   56.7409   27.6989 H   0  0  0  0  0  0
    2.5370   57.9162   28.8947 H   0  0  0  0  0  0
    3.7344   56.6817   28.3759 H   0  0  0  0  0  0
    2.3836   56.2202   29.4663 H   0  0  0  0  0  0
   -0.5944   50.2665   26.3116 H   0  0  0  0  0  0
    1.6258   48.1646   26.3693 H   0  0  0  0  0  0
   -1.4137   47.6733   26.2058 H   0  0  0  0  0  0
   -0.1808   46.4041   25.8961 H   0  0  0  0  0  0
    0.4660   46.4018   28.1901 H   0  0  0  0  0  0
   -0.6210   47.7879   28.5420 H   0  0  0  0  0  0
   -2.5722   46.4506   27.6337 H   0  0  0  0  0  0
   -1.4706   45.0552   27.3766 H   0  0  0  0  0  0
   -1.2037   45.1347   30.0264 H   0  0  0  0  0  0
   -4.1326   46.1031   28.0537 H   0  0  0  0  0  0
   -5.3197   45.4621   29.3990 H   0  0  0  0  0  0
   -2.6051   44.4328   31.6065 H   0  0  0  0  0  0
    2.2890   47.5370   24.2746 H   0  0  0  0  0  0
    0.9714   49.0067   21.9809 H   0  0  0  0  0  0
    3.5059   47.8544   22.5304 H   0  0  0  0  0  0
    2.7999   46.8675   21.2059 H   0  0  0  0  0  0
    3.0810   49.8934   21.1543 H   0  0  0  0  0  0
    4.2359   48.7258   20.4264 H   0  0  0  0  0  0
    1.9031   47.8546   19.3273 H   0  0  0  0  0  0
    1.5480   49.6061   19.5082 H   0  0  0  0  0  0
    3.1108   50.1304   17.7795 H   0  0  0  0  0  0
    3.6135   46.7722   19.1148 H   0  0  0  0  0  0
    4.5415   49.6180   16.1598 H   0  0  0  0  0  0
    5.3240   47.8820   16.0972 H   0  0  0  0  0  0
   -0.3896   47.9628   20.4120 H   0  0  0  0  0  0
   -0.7749   44.9690   20.8898 H   0  0  0  0  0  0
   -3.0487   47.0505   20.7895 H   0  0  0  0  0  0
   -3.2886   45.2708   20.7471 H   0  0  0  0  0  0
   -2.0586   46.8136   23.0559 H   0  0  0  0  0  0
   -3.7702   46.2819   22.9368 H   0  0  0  0  0  0
   -1.4377   44.3442   22.7368 H   0  0  0  0  0  0
   -2.1898   44.8102   24.3002 H   0  0  0  0  0  0
   -4.3312   43.7494   23.6018 H   0  0  0  0  0  0
   -1.4127   43.2720   21.4681 H   0  0  0  0  0  0
   -2.1771   41.7177   20.6744 H   0  0  0  0  0  0
   -5.2167   41.9444   22.6731 H   0  0  0  0  0  0
   -0.3628   44.0503   19.0003 H   0  0  0  0  0  0
   -1.2033   45.6820   16.5155 H   0  0  0  0  0  0
    1.0788   43.7169   16.9671 H   0  0  0  0  0  0
    0.5476   44.2725   15.3436 H   0  0  0  0  0  0
    2.7043   45.9715   16.2131 H   0  0  0  0  0  0
   -2.4335   44.6122   14.9874 H   0  0  0  0  0  0
   -3.1094   41.7664   15.7995 H   0  0  0  0  0  0
   -5.1304   43.9583   14.9701 H   0  0  0  0  0  0
   -5.5519   42.2387   15.2735 H   0  0  0  0  0  0
   -4.2857   45.3656   16.8880 H   0  0  0  0  0  0
   -5.9792   41.4660   17.4262 H   0  0  0  0  0  0
   -4.6094   45.8315   19.3200 H   0  0  0  0  0  0
   -6.3054   41.9232   19.8259 H   0  0  0  0  0  0
   -5.6038   44.0944   20.7867 H   0  0  0  0  0  0
   -2.2548   42.6331   11.9951 H   0  0  0  0  0  0
  1  2  1  0  0  0
  1 95  1  0  0  0
  1 96  1  0  0  0
  1 97  1  0  0  0
  2  3  1  0  0  0
  2 98  1  0  0  0
  2 99  1  0  0  0
  3  4  2  0  0  0
  3  5  1  0  0  0
  5  6  1  0  0  0
  5100  1  0  0  0
  6  7  1  0  0  0
  6  9  1  0  0  0
  6101  1  0  0  0
  7  8  2  0  0  0
  7 12  1  0  0  0
  9 10  1  0  0  0
  9 11  1  0  0  0
  9102  1  0  0  0
 10103  1  0  0  0
 10104  1  0  0  0
 10105  1  0  0  0
 11106  1  0  0  0
 11107  1  0  0  0
 11108  1  0  0  0
 12 13  1  0  0  0
 12109  1  0  0  0
 13 14  1  0  0  0
 13 16  1  0  0  0
 13110  1  0  0  0
 14 15  2  0  0  0
 14 21  1  0  0  0
 16 17  1  0  0  0
 16111  1  0  0  0
 16112  1  0  0  0
 17 18  1  0  0  0
 17113  1  0  0  0
 17114  1  0  0  0
 18 19  2  0  0  0
 18 20  1  0  0  0
 20115  1  0  0  0
 20116  1  0  0  0
 21 22  1  0  0  0
 21117  1  0  0  0
 22 23  1  0  0  0
 22 25  1  0  0  0
 22118  1  0  0  0
 23 24  2  0  0  0
 23 27  1  0  0  0
 25 26  1  0  0  0
 25119  1  0  0  0
 25120  1  0  0  0
 26121  1  0  0  0
 27 28  1  0  0  0
 27122  1  0  0  0
 28 29  1  0  0  0
 28 31  1  0  0  0
 28123  1  0  0  0
 29 30  2  0  0  0
 29 35  1  0  0  0
 31 32  1  0  0  0
 31124  1  0  0  0
 31125  1  0  0  0
 32 33  1  0  0  0
 32 34  1  0  0  0
 32126  1  0  0  0
 33127  1  0  0  0
 33128  1  0  0  0
 33129  1  0  0  0
 34130  1  0  0  0
 34131  1  0  0  0
 34132  1  0  0  0
 35 36  1  0  0  0
 35133  1  0  0  0
 36 37  1  0  0  0
 36 39  1  0  0  0
 36134  1  0  0  0
 37 38  2  0  0  0
 37 44  1  0  0  0
 39 40  1  0  0  0
 39135  1  0  0  0
 39136  1  0  0  0
 40 41  1  0  0  0
 40137  1  0  0  0
 40138  1  0  0  0
 41 42  1  0  0  0
 41139  1  0  0  0
 41140  1  0  0  0
 42 43  1  0  0  0
 42141  1  0  0  0
 42142  1  0  0  0
 43143  1  0  0  0
 43144  1  0  0  0
 43145  1  0  0  0
 44 45  1  0  0  0
 44146  1  0  0  0
 45 46  1  0  0  0
 45 48  1  0  0  0
 45147  1  0  0  0
 46 47  2  0  0  0
 46 55  1  0  0  0
 48 49  1  0  0  0
 48148  1  0  0  0
 48149  1  0  0  0
 49 50  1  0  0  0
 49150  1  0  0  0
 49151  1  0  0  0
 50 51  1  0  0  0
 50152  1  0  0  0
 50153  1  0  0  0
 51 52  1  0  0  0
 51154  1  0  0  0
 52 53  1  0  0  0
 52 54  2  0  0  0
 53155  1  0  0  0
 53156  1  0  0  0
 54157  1  0  0  0
 55 56  1  0  0  0
 55158  1  0  0  0
 56 57  1  0  0  0
 56 59  1  0  0  0
 56159  1  0  0  0
 57 58  2  0  0  0
 57 66  1  0  0  0
 59 60  1  0  0  0
 59160  1  0  0  0
 59161  1  0  0  0
 60 61  1  0  0  0
 60162  1  0  0  0
 60163  1  0  0  0
 61 62  1  0  0  0
 61164  1  0  0  0
 61165  1  0  0  0
 62 63  1  0  0  0
 62166  1  0  0  0
 63 64  2  0  0  0
 63 65  1  0  0  0
 64167  1  0  0  0
 65168  1  0  0  0
 65169  1  0  0  0
 66 67  1  0  0  0
 66170  1  0  0  0
 67 68  1  0  0  0
 67 70  1  0  0  0
 67171  1  0  0  0
 68 69  2  0  0  0
 68 77  1  0  0  0
 70 71  1  0  0  0
 70172  1  0  0  0
 70173  1  0  0  0
 71 72  1  0  0  0
 71174  1  0  0  0
 71175  1  0  0  0
 72 73  1  0  0  0
 72176  1  0  0  0
 72177  1  0  0  0
 73 74  1  0  0  0
 73178  1  0  0  0
 74 75  1  0  0  0
 74 76  2  0  0  0
 75179  1  0  0  0
 75180  1  0  0  0
 76181  1  0  0  0
 77 78  1  0  0  0
 77182  1  0  0  0
 78 79  1  0  0  0
 78 81  1  0  0  0
 78183  1  0  0  0
 79 80  2  0  0  0
 79 83  1  0  0  0
 81 82  1  0  0  0
 81184  1  0  0  0
 81185  1  0  0  0
 82186  1  0  0  0
 83 84  1  0  0  0
 83187  1  0  0  0
 84 85  1  0  0  0
 84 87  1  0  0  0
 84188  1  0  0  0
 85 86  2  0  0  0
 85 94  1  0  0  0
 87 88  1  0  0  0
 87189  1  0  0  0
 87190  1  0  0  0
 88 89  2  0  0  0
 88 90  1  0  0  0
 89 91  1  0  0  0
 89191  1  0  0  0
 90 92  2  0  0  0
 90192  1  0  0  0
 91 93  2  0  0  0
 91193  1  0  0  0
 92 93  1  0  0  0
 92194  1  0  0  0
 93195  1  0  0  0
 94196  1  0  0  0
M  CHG  2   1   1  43   1
M  END
> <s_m_source_file>
../1avp_ligand.sdf

> <i_m_source_file_index>
1

> <s_epik_input>
W05IMytdW0NIMl1DKD1PKVtOSF1bQ0BASF0oW0NIXShbQ0gzXSlbQ0gzXSlDKD1PKVtOSF1bQ0BASF0oW0NIMl1bQ0gyXUMoPU8pW05IMl0pQyg9TylbTkhdW0NAQEhdKFtDSDJdW09IXSlDKD1PKVtOSF1bQ0BASF0oW0NIMl1bQ0hdKFtDSDNdKVtDSDNdKUMoPU8pW05IXVtDQEBIXShbQ0gyXVtDSDJdW0NIMl1bQ0gyXVtOSDMrXSlDKD1PKVtOSF1bQ0BASF0oW0NIMl1bQ0gyXVtDSDJdW05IXS9DKFtOSDJdKT1OXFtIXSlDKD1PKVtOSF1bQ0BASF0oW0NIMl1bQ0gyXVtDSDJdW05IXS9DKD1OXFtIXSlbTkgyXSlDKD1PKVtOSF1bQ0BASF0oW0NIMl1bQ0gyXVtDSDJdW05IXS9DKFtOSDJdKT1OXFtIXSlDKD1PKVtOSF1bQ0BASF0oW0NIMl1bU0hdKUMoPU8pW05IXVtDQEhdKEMoPU8pW09IXSlbQ0gyXWMxW2NIXVtjSF1bY0hdW2NIXVtjSF0x

> <s_epik_cmdline>
J2VwaWtfYXBwJywgJy1pbWFlJywgJ2xpZ2FuZF9wcm8ubWFlJywgJy1vbWFlJywgJ2xpZ2FuZF9wcmVwLm1hZScsICctbXMnLCAnMScsICctcGgnLCAnNycsICctcGh0JywgJzAuNScsICctbnQn

> <s_epik_pKa_notes>
Molecule size exceeds maximum supported for generating protonation states

> <s_epik_Chemistry_Notes>
This compound has an imine and may undergo hydrolysis.

$$$$
