1aw1_ligand
                    3D
 Schrodinger Suite 2020-3.
 11 10  0  0  1  0            999 V2000
   20.3150   19.1750   24.9780 P   0  0  0  0  0  0
   19.6310   18.0340   25.8910 O   0  0  0  0  0  0
   20.1290   18.8230   23.5130 O   0  5  0  0  0  0
   21.7620   19.2710   25.3980 O   0  0  0  0  0  0
   19.5650   20.4870   25.2820 O   0  5  0  0  0  0
   19.6320   18.1850   27.3200 C   0  0  0  0  0  0
   19.5230   16.8970   28.1590 C   0  0  0  0  0  0
   20.0850   16.9460   29.3010 O   0  5  0  0  0  0
   18.9590   15.9200   27.7740 O   0  0  0  0  0  0
   20.5689   18.6663   27.6372 H   0  0  0  0  0  0
   18.7783   18.8088   27.6234 H   0  0  0  0  0  0
  1  2  1  0  0  0
  1  3  1  0  0  0
  1  4  2  0  0  0
  1  5  1  0  0  0
  2  6  1  0  0  0
  6  7  1  0  0  0
  6 10  1  0  0  0
  6 11  1  0  0  0
  7  8  1  0  0  0
  7  9  2  0  0  0
M  CHG  3   3  -1   5  -1   8  -1
M  END
> <s_m_source_file>
../1aw1_ligand.sdf

> <i_m_source_file_index>
1

> <s_epik_input>
W09IXVAoPU8pKFtPSF0pT1tDSDJdQyg9TylbT0hd

> <s_epik_cmdline>
J2VwaWtfYXBwJywgJy1pbWFlJywgJ2xpZ2FuZF9wcm8ubWFlJywgJy1vbWFlJywgJ2xpZ2FuZF9wcmVwLm1hZScsICctbXMnLCAnMScsICctcGgnLCAnNycsICctcGh0JywgJzAuNScsICctbnQn

> <r_epik_Ionization_Penalty>
  0.1459

> <r_epik_Ionization_Penalty_Charging>
  0.1459

> <r_epik_Ionization_Penalty_Neutral>
  0.0000

> <r_epik_State_Penalty>
  0.1346

> <r_epik_Charging_Adjusted_Penalty>
0.280492608850728

> <i_epik_Tot_Q>
-3

> <i_epik_Tot_abs_Q>
3

$$$$
