1awf_ligand
                    3D
 Schrodinger Suite 2020-3.
108112  0  0  1  0            999 V2000
    3.0570   17.1890   48.1100 C   0  0  0  0  0  0
    2.2460   16.0630   47.5050 C   0  0  0  0  0  0
    2.5040   14.7600   48.2240 C   0  0  2  0  0  0
    2.1650   14.9410   49.7410 C   0  0  2  0  0  0
    2.7730   16.2430   50.3890 C   0  0  2  0  0  0
    2.3860   16.5280   51.8540 C   0  0  0  0  0  0
    2.8020   17.8940   52.3250 C   0  0  0  0  0  0
    3.4680   18.7640   51.5470 C   0  0  0  0  0  0
    3.7660   18.4550   50.1050 C   0  0  1  0  0  0
    2.6890   17.5150   49.5610 C   0  0  1  0  0  0
    4.0450   19.6940   49.2510 C   0  0  0  0  0  0
    5.1570   20.5810   49.8020 C   0  0  1  0  0  0
    5.3380   20.4280   51.3360 C   0  0  2  0  0  0
    3.9420   20.1290   52.0000 C   0  0  2  0  0  0
    4.2340   20.3200   53.4920 C   0  0  0  0  0  0
    5.3350   21.3960   53.5450 C   0  0  1  0  0  0
    5.7540   21.7310   52.0950 C   0  0  1  0  0  0
    6.3570   19.3110   51.7180 C   0  0  0  0  0  0
    1.3000   18.1950   49.6370 C   0  0  0  0  0  0
    7.4530   22.9510   50.4740 C   0  0  0  0  0  0
    8.8410   22.8680   49.9490 C   0  0  0  0  0  0
    9.2080   23.4890   48.6930 C   0  0  0  0  0  0
   10.1280   22.9660   47.8640 C   0  0  0  0  0  0
   10.4070   23.6140   46.5580 C   0  0  0  0  0  0
   10.8750   21.6850   48.0980 C   0  0  0  0  0  0
    2.7720   21.1290   51.6880 C   0  0  0  0  0  0
    2.6130   13.6760   50.5080 C   0  0  0  0  0  0
    0.6220   14.9330   49.9140 C   0  0  0  0  0  0
    1.8490   13.0000   51.1270 O   0  0  0  0  0  0
    4.8200   22.5160   54.2050 O   0  0  0  0  0  0
    8.1270   23.4420   53.8040 O   0  0  0  0  0  0
    3.9150   13.3880   50.4330 O   0  0  0  0  0  0
    9.7010   22.2580   50.5270 O   0  0  0  0  0  0
    3.8840   14.3840   47.9570 O   0  0  0  0  0  0
    4.2910   13.9130   46.7640 C   0  0  0  0  0  0
    5.8000   13.8960   46.6400 C   0  0  0  0  0  0
    3.6000   13.5250   45.8740 O   0  0  0  0  0  0
    1.6670   21.1510   52.1560 O   0  0  0  0  0  0
    6.3570   20.3090   49.1050 O   0  0  0  0  0  0
    5.2730   11.4900   50.4910 O   0  0  0  0  0  0
    4.3810   12.2460   49.7010 C   0  0  1  0  0  0
    3.3250   11.2750   49.1130 C   0  0  2  0  0  0
    4.0870   10.3500   48.1410 C   0  0  1  0  0  0
    5.2620    9.6680   48.8520 C   0  0  2  0  0  0
    6.1010   10.6010   49.7410 C   0  0  2  0  0  0
    6.1340    9.1370   47.8250 O   0  0  0  0  0  0
    3.2610    9.3240   47.5380 O   0  0  0  0  0  0
    2.2510   11.8590   48.3520 O   0  0  0  0  0  0
    6.9970    9.6980   50.6350 C   0  0  0  0  0  0
    6.3500    9.2540   51.8400 O   0  0  0  0  0  0
    7.2120   22.3250   51.8900 C   0  0  1  0  0  0
    7.3830   23.4780   52.8750 C   0  0  0  0  0  0
    4.1235   16.9196   48.0991 H   0  0  0  0  0  0
    2.9047   18.1069   47.5233 H   0  0  0  0  0  0
    1.1747   16.3008   47.5812 H   0  0  0  0  0  0
    2.5202   15.9412   46.4467 H   0  0  0  0  0  0
    1.9128   13.9235   47.8231 H   0  0  0  0  0  0
    3.8435   15.9900   50.3999 H   0  0  0  0  0  0
    1.2938   16.4581   51.9650 H   0  0  0  0  0  0
    2.8693   15.7900   52.5111 H   0  0  0  0  0  0
    2.5375   18.1695   53.3566 H   0  0  0  0  0  0
    4.7273   17.9217   50.0664 H   0  0  0  0  0  0
    4.3456   19.3822   48.2398 H   0  0  0  0  0  0
    3.1354   20.3095   49.1896 H   0  0  0  0  0  0
    4.9409   21.6348   49.5723 H   0  0  0  0  0  0
    3.3185   20.6488   54.0056 H   0  0  0  0  0  0
    4.5747   19.3674   53.9238 H   0  0  0  0  0  0
    6.2057   21.1203   54.1582 H   0  0  0  0  0  0
    5.2306   22.6081   51.6867 H   0  0  0  0  0  0
    6.0908   18.3786   51.1985 H   0  0  0  0  0  0
    6.3294   19.1458   52.8052 H   0  0  0  0  0  0
    7.3695   19.6207   51.4197 H   0  0  0  0  0  0
    0.5345   17.5101   49.2434 H   0  0  0  0  0  0
    1.3100   19.1173   49.0375 H   0  0  0  0  0  0
    1.0688   18.4407   50.6840 H   0  0  0  0  0  0
    7.1535   24.0065   50.5533 H   0  0  0  0  0  0
    6.7701   22.4265   49.7895 H   0  0  0  0  0  0
    8.6989   24.4274   48.4279 H   0  0  0  0  0  0
    9.8192   24.5401   46.4752 H   0  0  0  0  0  0
   10.1299   22.9297   45.7426 H   0  0  0  0  0  0
   11.4786   23.8524   46.4885 H   0  0  0  0  0  0
   10.6069   21.2792   49.0846 H   0  0  0  0  0  0
   11.9570   21.8800   48.0634 H   0  0  0  0  0  0
   10.6084   20.9572   47.3174 H   0  0  0  0  0  0
    3.0904   22.1533   51.9315 H   0  0  0  0  0  0
    2.5136   21.0694   50.6205 H   0  0  0  0  0  0
    0.1908   15.8042   49.3991 H   0  0  0  0  0  0
    0.3728   14.9793   50.9844 H   0  0  0  0  0  0
    0.2093   14.0098   49.4810 H   0  0  0  0  0  0
    4.4789   22.4316   55.2474 H   0  0  0  0  0  0
    6.2482   14.2922   47.5631 H   0  0  0  0  0  0
    6.1048   14.5202   45.7871 H   0  0  0  0  0  0
    6.1431   12.8632   46.4797 H   0  0  0  0  0  0
    0.9492   21.9205   51.8356 H   0  0  0  0  0  0
    6.3831   20.3770   48.0074 H   0  0  0  0  0  0
    4.9269   12.7529   48.8917 H   0  0  0  0  0  0
    2.7808   10.8142   49.9505 H   0  0  0  0  0  0
    4.4123   10.9668   47.2903 H   0  0  0  0  0  0
    4.8630    8.8610   49.4841 H   0  0  0  0  0  0
    6.6917   11.3266   49.1625 H   0  0  0  0  0  0
    5.7366    8.4401   47.0724 H   0  0  0  0  0  0
    2.3585    9.6047   46.9752 H   0  0  0  0  0  0
    1.5570   12.5646   48.8321 H   0  0  0  0  0  0
    7.2910    8.8003   50.0713 H   0  0  0  0  0  0
    7.8975   10.2551   50.9330 H   0  0  0  0  0  0
    6.8902    8.6091   52.5487 H   0  0  0  0  0  0
    7.9326   21.5086   52.0457 H   0  0  0  0  0  0
    6.7745   24.3759   52.6922 H   0  0  0  0  0  0
  1  2  1  0  0  0
  1 10  1  0  0  0
  1 53  1  0  0  0
  1 54  1  0  0  0
  2  3  1  0  0  0
  2 55  1  0  0  0
  2 56  1  0  0  0
  3  4  1  0  0  0
  3 34  1  0  0  0
  3 57  1  0  0  0
  4  5  1  0  0  0
  4 27  1  0  0  0
  4 28  1  0  0  0
  5  6  1  0  0  0
  5 10  1  0  0  0
  5 58  1  0  0  0
  6  7  1  0  0  0
  6 59  1  0  0  0
  6 60  1  0  0  0
  7  8  2  0  0  0
  7 61  1  0  0  0
  8  9  1  0  0  0
  8 14  1  0  0  0
  9 10  1  0  0  0
  9 11  1  0  0  0
  9 62  1  0  0  0
 10 19  1  0  0  0
 11 12  1  0  0  0
 11 63  1  0  0  0
 11 64  1  0  0  0
 12 13  1  0  0  0
 12 39  1  0  0  0
 12 65  1  0  0  0
 13 14  1  0  0  0
 13 17  1  0  0  0
 13 18  1  0  0  0
 14 15  1  0  0  0
 14 26  1  0  0  0
 15 16  1  0  0  0
 15 66  1  0  0  0
 15 67  1  0  0  0
 16 17  1  0  0  0
 16 30  1  0  0  0
 16 68  1  0  0  0
 17 51  1  0  0  0
 17 69  1  0  0  0
 18 70  1  0  0  0
 18 71  1  0  0  0
 18 72  1  0  0  0
 19 73  1  0  0  0
 19 74  1  0  0  0
 19 75  1  0  0  0
 20 21  1  0  0  0
 20 51  1  0  0  0
 20 76  1  0  0  0
 20 77  1  0  0  0
 21 22  1  0  0  0
 21 33  2  0  0  0
 22 23  2  0  0  0
 22 78  1  0  0  0
 23 24  1  0  0  0
 23 25  1  0  0  0
 24 79  1  0  0  0
 24 80  1  0  0  0
 24 81  1  0  0  0
 25 82  1  0  0  0
 25 83  1  0  0  0
 25 84  1  0  0  0
 26 38  1  0  0  0
 26 85  1  0  0  0
 26 86  1  0  0  0
 27 29  2  0  0  0
 27 32  1  0  0  0
 28 87  1  0  0  0
 28 88  1  0  0  0
 28 89  1  0  0  0
 30 90  1  0  0  0
 31 52  2  0  0  0
 32 41  1  0  0  0
 34 35  1  0  0  0
 35 36  1  0  0  0
 35 37  2  0  0  0
 36 91  1  0  0  0
 36 92  1  0  0  0
 36 93  1  0  0  0
 38 94  1  0  0  0
 39 95  1  0  0  0
 40 41  1  0  0  0
 40 45  1  0  0  0
 41 42  1  0  0  0
 41 96  1  0  0  0
 42 43  1  0  0  0
 42 48  1  0  0  0
 42 97  1  0  0  0
 43 44  1  0  0  0
 43 47  1  0  0  0
 43 98  1  0  0  0
 44 45  1  0  0  0
 44 46  1  0  0  0
 44 99  1  0  0  0
 45 49  1  0  0  0
 45100  1  0  0  0
 46101  1  0  0  0
 47102  1  0  0  0
 48103  1  0  0  0
 49 50  1  0  0  0
 49104  1  0  0  0
 49105  1  0  0  0
 50106  1  0  0  0
 51 52  1  0  0  0
 51107  1  0  0  0
 52108  1  0  0  0
M  END
> <s_m_source_file>
../1awf_ligand.sdf

> <i_m_source_file_index>
1

> <s_epik_input>
W09IXVtDQEhdMVtDQEhdKFtPSF0pW0NAQEhdKFtPSF0pW0NASF0oW0NIMl1bT0hdKU9bQ0BASF0xT0MoPU8pW0NAXShbQ0gzXSkoW0NAQEhdKFtDSDJdW0NIMl0yKU9DKD1PKVtDSDNdKVtDQEBIXShbQ0BdMjNbQ0gzXSlbQ0gyXVtDSF09QzRbQ0BASF0zW0NIMl1bQ0BIXShbT0hdKVtDQF01KFtDSDNdKVtDQF00KFtDSDJdW09IXSlbQ0gyXVtDQEhdKFtPSF0pW0NASF01W0NASF0oW0NIXT1PKVtDSDJdQyg9TylbQ0hdPUMoW0NIM10pW0NIM10=

> <s_epik_cmdline>
J2VwaWtfYXBwJywgJy1pbWFlJywgJ2xpZ2FuZF9wcm8ubWFlJywgJy1vbWFlJywgJ2xpZ2FuZF9wcmVwLm1hZScsICctbXMnLCAnMScsICctcGgnLCAnNycsICctcGh0JywgJzAuNScsICctbnQn

> <r_lp_tautomer_probability>
1

> <r_epik_Ionization_Penalty>
  0.0000

> <r_epik_Ionization_Penalty_Charging>
  0.0000

> <r_epik_Ionization_Penalty_Neutral>
  0.0000

> <r_epik_State_Penalty>
 -0.0000

> <r_epik_Charging_Adjusted_Penalty>
0

> <i_epik_Tot_Q>
0

> <i_epik_Tot_abs_Q>
0

> <s_epik_Chemistry_Notes>
This compound has an ester and may undergo hydrolysis at high or low pH. This compound contains an acetal/aminal-like group ( X-CH(R)-Y where X, Y are N, S, or O) that may be acid/base labile, releasing an aldehyde.

$$$$
