1awh_ligand
                    3D
 Schrodinger Suite 2020-3.
 86 89  0  0  1  0            999 V2000
   13.4620   15.2010   57.9020 C   0  0  0  0  0  0
   13.4510   16.6200   58.4750 C   0  0  0  0  0  0
   14.5220   17.4680   57.7920 C   0  0  2  0  0  0
   14.2290   17.5900   56.3090 C   0  0  2  0  0  0
   14.1060   16.1790   55.6490 C   0  0  2  0  0  0
   13.7960   16.2010   54.1200 C   0  0  0  0  0  0
   13.4480   14.8240   53.5690 C   0  0  0  0  0  0
   13.3680   13.7170   54.3310 C   0  0  0  0  0  0
   13.5750   13.7490   55.8340 C   0  0  1  0  0  0
   13.1840   15.1590   56.3960 C   0  0  1  0  0  0
   12.8570   12.6320   56.5380 C   0  0  0  0  0  0
   13.0650   11.2580   55.9270 C   0  0  0  0  0  0
   13.6040   11.2520   54.5020 C   0  0  2  0  0  0
   12.9860   12.4150   53.7350 C   0  0  2  0  0  0
   13.3400   12.0780   52.2850 C   0  0  0  0  0  0
   13.3560   10.5170   52.1870 C   0  0  1  0  0  0
   13.1510   10.0300   53.6440 C   0  0  1  0  0  0
   15.1410   11.2730   54.5250 C   0  0  0  0  0  0
   11.6820   15.4750   56.1700 C   0  0  0  0  0  0
   13.3980    8.1220   55.3090 C   0  0  0  0  0  0
   14.5620    7.8370   56.1970 C   0  0  0  0  0  0
   14.3200    7.1540   57.4930 C   0  0  0  0  0  0
   15.2110    7.0180   58.5000 C   0  0  0  0  0  0
   14.8330    6.2020   59.7040 C   0  0  0  0  0  0
   16.5760    7.6740   58.5800 C   0  0  0  0  0  0
   11.4600   12.5030   53.7530 C   0  0  0  0  0  0
   15.3810   18.3820   55.6660 C   0  0  0  0  0  0
   12.9770   18.4870   56.0900 C   0  0  0  0  0  0
   16.3710   18.6630   56.2900 O   0  0  0  0  0  0
   12.4090    9.9840   51.2330 O   0  0  0  0  0  0
   14.3870    6.8990   52.5330 O   0  0  0  0  0  0
   15.2220   18.8700   54.5600 O   0  5  0  0  0  0
   15.6880    8.1390   55.8640 O   0  0  0  0  0  0
   15.8130   16.8310   58.0270 O   0  0  0  0  0  0
   16.7740   17.3130   58.8890 C   0  0  0  0  0  0
   16.4870   18.7120   59.4380 C   0  0  0  0  0  0
   17.7800   16.7190   59.2940 O   0  0  0  0  0  0
   13.8230    8.6950   53.9550 C   0  0  1  0  0  0
   13.4980    7.5390   53.0590 C   0  0  0  0  0  0
   14.4484   14.7447   58.0716 H   0  0  0  0  0  0
   12.6886   14.5982   58.4005 H   0  0  0  0  0  0
   12.4649   17.0766   58.3045 H   0  0  0  0  0  0
   13.6551   16.5809   59.5552 H   0  0  0  0  0  0
   14.5764   18.4829   58.2127 H   0  0  0  0  0  0
   15.1314   15.7971   55.7618 H   0  0  0  0  0  0
   12.9406   16.8656   53.9289 H   0  0  0  0  0  0
   14.6761   16.5695   53.5727 H   0  0  0  0  0  0
   13.2572   14.7622   52.4874 H   0  0  0  0  0  0
   14.6375   13.5383   56.0254 H   0  0  0  0  0  0
   13.2046   12.5720   57.5799 H   0  0  0  0  0  0
   11.7742   12.8253   56.5232 H   0  0  0  0  0  0
   13.7858   10.6917   56.5350 H   0  0  0  0  0  0
   12.1060   10.7199   55.8995 H   0  0  0  0  0  0
   12.5822   12.5076   51.6132 H   0  0  0  0  0  0
   14.3268   12.4986   52.0412 H   0  0  0  0  0  0
   14.2604   10.0981   51.7216 H   0  0  0  0  0  0
   12.1144    9.7385   53.8685 H   0  0  0  0  0  0
   15.4871   12.1275   55.1251 H   0  0  0  0  0  0
   15.5218   11.3684   53.4974 H   0  0  0  0  0  0
   15.5138   10.3382   54.9689 H   0  0  0  0  0  0
   11.4513   16.4702   56.5779 H   0  0  0  0  0  0
   11.0674   14.7183   56.6796 H   0  0  0  0  0  0
   11.4624   15.4605   55.0922 H   0  0  0  0  0  0
   12.8414    7.1914   55.1241 H   0  0  0  0  0  0
   12.7367    8.8544   55.7950 H   0  0  0  0  0  0
   13.3072    6.7369   57.5946 H   0  0  0  0  0  0
   13.8331    5.7687   59.5541 H   0  0  0  0  0  0
   14.8235    6.8464   60.5954 H   0  0  0  0  0  0
   15.5657    5.3936   59.8438 H   0  0  0  0  0  0
   16.7625    8.2458   57.6590 H   0  0  0  0  0  0
   17.3489    6.8996   58.6937 H   0  0  0  0  0  0
   16.6066    8.3524   59.4453 H   0  0  0  0  0  0
   11.1187   12.7446   54.7704 H   0  0  0  0  0  0
   11.0334   11.5378   53.4426 H   0  0  0  0  0  0
   11.1299   13.2900   53.0589 H   0  0  0  0  0  0
   12.0934   17.9952   56.5228 H   0  0  0  0  0  0
   12.8200   18.6406   55.0121 H   0  0  0  0  0  0
   13.1324   19.4594   56.5802 H   0  0  0  0  0  0
   12.4744   10.2722   50.1734 H   0  0  0  0  0  0
   14.1403    6.0516   51.8764 H   0  0  0  0  0  0
   15.5646   19.1022   58.9832 H   0  0  0  0  0  0
   17.3265   19.3803   59.1957 H   0  0  0  0  0  0
   16.3636   18.6592   60.5298 H   0  0  0  0  0  0
   14.8778    8.9873   53.8460 H   0  0  0  0  0  0
   12.8566    7.9821   52.2829 H   0  0  0  0  0  0
   12.8962    6.8750   53.6969 H   0  0  0  0  0  0
  1  2  1  0  0  0
  1 10  1  0  0  0
  1 40  1  0  0  0
  1 41  1  0  0  0
  2  3  1  0  0  0
  2 42  1  0  0  0
  2 43  1  0  0  0
  3  4  1  0  0  0
  3 34  1  0  0  0
  3 44  1  0  0  0
  4  5  1  0  0  0
  4 27  1  0  0  0
  4 28  1  0  0  0
  5  6  1  0  0  0
  5 10  1  0  0  0
  5 45  1  0  0  0
  6  7  1  0  0  0
  6 46  1  0  0  0
  6 47  1  0  0  0
  7  8  2  0  0  0
  7 48  1  0  0  0
  8  9  1  0  0  0
  8 14  1  0  0  0
  9 10  1  0  0  0
  9 11  1  0  0  0
  9 49  1  0  0  0
 10 19  1  0  0  0
 11 12  1  0  0  0
 11 50  1  0  0  0
 11 51  1  0  0  0
 12 13  1  0  0  0
 12 52  1  0  0  0
 12 53  1  0  0  0
 13 14  1  0  0  0
 13 17  1  0  0  0
 13 18  1  0  0  0
 14 15  1  0  0  0
 14 26  1  0  0  0
 15 16  1  0  0  0
 15 54  1  0  0  0
 15 55  1  0  0  0
 16 17  1  0  0  0
 16 30  1  0  0  0
 16 56  1  0  0  0
 17 38  1  0  0  0
 17 57  1  0  0  0
 18 58  1  0  0  0
 18 59  1  0  0  0
 18 60  1  0  0  0
 19 61  1  0  0  0
 19 62  1  0  0  0
 19 63  1  0  0  0
 20 21  1  0  0  0
 20 38  1  0  0  0
 20 64  1  0  0  0
 20 65  1  0  0  0
 21 22  1  0  0  0
 21 33  2  0  0  0
 22 23  2  0  0  0
 22 66  1  0  0  0
 23 24  1  0  0  0
 23 25  1  0  0  0
 24 67  1  0  0  0
 24 68  1  0  0  0
 24 69  1  0  0  0
 25 70  1  0  0  0
 25 71  1  0  0  0
 25 72  1  0  0  0
 26 73  1  0  0  0
 26 74  1  0  0  0
 26 75  1  0  0  0
 27 29  2  0  0  0
 27 32  1  0  0  0
 28 76  1  0  0  0
 28 77  1  0  0  0
 28 78  1  0  0  0
 30 79  1  0  0  0
 31 39  1  0  0  0
 31 80  1  0  0  0
 34 35  1  0  0  0
 35 36  1  0  0  0
 35 37  2  0  0  0
 36 81  1  0  0  0
 36 82  1  0  0  0
 36 83  1  0  0  0
 38 39  1  0  0  0
 38 84  1  0  0  0
 39 85  1  0  0  0
 39 86  1  0  0  0
M  CHG  1  32  -1
M  END
> <s_m_source_file>
../1awh_ligand.sdf

> <i_m_source_file_index>
1

> <s_epik_input>
W0NIM11DKD1PKU9bQ0BIXShbQ0gyXVtDSDJdMSlbQ0BAXShbQ0gzXSkoQyg9TylbT0hdKVtDQEBIXShbQ0BdMTJbQ0gzXSlbQ0gyXVtDSF09QzNbQ0BASF0yW0NIMl1bQ0gyXVtDQF00KFtDSDNdKVtDQF0zKFtDSDNdKVtDSDJdW0NASF0oW09IXSlbQ0BIXTRbQ0BIXShbQ0gyXVtPSF0pW0NIMl1DKD1PKVtDSF09QyhbQ0gzXSlbQ0gzXQ==

> <s_epik_cmdline>
J2VwaWtfYXBwJywgJy1pbWFlJywgJ2xpZ2FuZF9wcm8ubWFlJywgJy1vbWFlJywgJ2xpZ2FuZF9wcmVwLm1hZScsICctbXMnLCAnMScsICctcGgnLCAnNycsICctcGh0JywgJzAuNScsICctbnQn

> <r_lp_tautomer_probability>
1

> <r_epik_Ionization_Penalty>
  0.0012

> <r_epik_Ionization_Penalty_Charging>
  0.0012

> <r_epik_Ionization_Penalty_Neutral>
  0.0000

> <r_epik_State_Penalty>
 -0.0000

> <r_epik_Charging_Adjusted_Penalty>
0.00119968526196091

> <i_epik_Tot_Q>
-1

> <i_epik_Tot_abs_Q>
1

> <s_epik_Chemistry_Notes>
This compound has an ester and may undergo hydrolysis at high or low pH.

$$$$
