1awi_ligand
                    3D
 Schrodinger Suite 2020-3.
143152  0  0  1  0            999 V2000
   30.3990   78.5970   38.4640 N   0  3  0  0  0  0
   31.3660   77.5690   38.0550 C   0  0  2  0  0  0
   31.0050   76.1880   38.6270 C   0  0  0  0  0  0
   31.6040   75.7300   39.6050 O   0  0  0  0  0  0
   32.6820   78.1050   38.6220 C   0  0  0  0  0  0
   32.2420   78.8430   39.8560 C   0  0  0  0  0  0
   31.0130   79.5740   39.3810 C   0  0  0  0  0  0
   30.0490   75.4870   37.9850 N   0  0  0  0  0  0
   29.6000   74.1620   38.4270 C   0  0  2  0  0  0
   30.6790   73.0940   38.3910 C   0  0  0  0  0  0
   31.7560   73.3020   37.8330 O   0  0  0  0  0  0
   28.4570   73.8510   37.4610 C   0  0  0  0  0  0
   28.8910   74.5370   36.2080 C   0  0  0  0  0  0
   29.4010   75.8620   36.7140 C   0  0  0  0  0  0
   30.4340   71.9640   39.0700 N   0  0  0  0  0  0
   31.3880   70.8540   39.1140 C   0  0  2  0  0  0
   31.2980   70.1170   37.7900 C   0  0  0  0  0  0
   30.2820   70.1940   37.1000 O   0  0  0  0  0  0
   30.8470   69.9720   40.2440 C   0  0  0  0  0  0
   29.9280   70.8850   41.0250 C   0  0  0  0  0  0
   29.2850   71.6920   39.9450 C   0  0  0  0  0  0
   32.3530   69.3860   37.4200 N   0  0  0  0  0  0
   32.3250   68.6510   36.1580 C   0  0  2  0  0  0
   31.1920   67.6230   36.1410 C   0  0  0  0  0  0
   30.9370   66.9400   37.1370 O   0  0  0  0  0  0
   33.7000   67.9960   36.1230 C   0  0  0  0  0  0
   34.0230   67.8050   37.5700 C   0  0  0  0  0  0
   33.5990   69.1210   38.1520 C   0  0  0  0  0  0
   30.4340   67.5840   35.0400 N   0  0  0  0  0  0
   29.3120   66.6700   34.8470 C   0  0  2  0  0  0
   29.7410   65.2430   34.5380 C   0  0  0  0  0  0
   30.9170   64.9740   34.2780 O   0  0  0  0  0  0
   28.5840   67.2890   33.6590 C   0  0  0  0  0  0
   28.9210   68.7200   33.7710 C   0  0  0  0  0  0
   30.3860   68.6480   34.0320 C   0  0  0  0  0  0
   28.7930   64.2960   34.6160 N   0  0  0  0  0  0
   29.1310   62.9030   34.3240 C   0  0  2  0  0  0
   29.5600   62.8190   32.8650 C   0  0  0  0  0  0
   29.2770   63.7180   32.0770 O   0  0  0  0  0  0
   27.8080   62.1790   34.5560 C   0  0  0  0  0  0
   27.1430   63.0140   35.6190 C   0  0  0  0  0  0
   27.4140   64.4080   35.1300 C   0  0  0  0  0  0
   30.2770   61.7590   32.4870 N   0  0  0  0  0  0
   30.6830   61.6810   31.0850 C   0  0  2  0  0  0
   29.4440   61.3440   30.2580 C   0  0  0  0  0  0
   28.3410   61.2600   30.8030 O   0  0  0  0  0  0
   31.6980   60.5440   31.1020 C   0  0  0  0  0  0
   31.1550   59.6350   32.1700 C   0  0  0  0  0  0
   30.7580   60.5940   33.2550 C   0  0  0  0  0  0
   29.5710   61.2980   28.9250 N   0  0  0  0  0  0
   28.3560   60.9580   28.1830 C   0  0  2  0  0  0
   28.1330   59.4650   28.3500 C   0  0  0  0  0  0
   29.0510   58.7390   28.7410 O   0  0  0  0  0  0
   28.7270   61.3070   26.7420 C   0  0  0  0  0  0
   29.7110   62.4090   26.9140 C   0  0  0  0  0  0
   30.5790   61.8670   28.0230 C   0  0  0  0  0  0
   26.8880   59.0040   28.1620 N   0  0  0  0  0  0
   26.5670   57.5800   28.2960 C   0  0  2  0  0  0
   27.5360   56.6870   27.4950 C   0  0  0  0  0  0
   28.1300   57.1390   26.5130 O   0  0  0  0  0  0
   25.1290   57.5350   27.7980 C   0  0  0  0  0  0
   24.5690   58.8200   28.3620 C   0  0  0  0  0  0
   25.6580   59.8020   27.9840 C   0  0  0  0  0  0
   27.6390   55.3960   27.8650 N   0  0  0  0  0  0
   28.4810   54.3500   27.2930 C   0  0  2  0  0  0
   29.7710   54.7780   26.5890 C   0  0  0  0  0  0
   30.1370   54.1470   25.5770 O   0  0  0  0  0  0
   27.4990   53.6080   26.3960 C   0  0  0  0  0  0
   26.1920   53.6750   27.2180 C   0  0  0  0  0  0
   26.4050   54.7490   28.3120 C   0  0  0  0  0  0
   30.4670   55.6620   27.1370 O   0  5  0  0  0  0
   30.0347   79.1322   37.5747 H   0  0  0  0  0  0
   29.5513   78.1195   38.9773 H   0  0  0  0  0  0
   31.3745   77.4399   36.9626 H   0  0  0  0  0  0
   33.3531   77.2636   38.8490 H   0  0  0  0  0  0
   33.1585   78.7647   37.8819 H   0  0  0  0  0  0
   32.0254   78.1211   40.6572 H   0  0  0  0  0  0
   33.0430   79.5230   40.1818 H   0  0  0  0  0  0
   31.2498   80.4959   38.8296 H   0  0  0  0  0  0
   30.3105   79.8042   40.1955 H   0  0  0  0  0  0
   29.3168   74.2017   39.4892 H   0  0  0  0  0  0
   28.3656   72.7615   37.3398 H   0  0  0  0  0  0
   27.5165   74.2553   37.8635 H   0  0  0  0  0  0
   29.6732   73.9406   35.7156 H   0  0  0  0  0  0
   28.0304   74.6433   35.5312 H   0  0  0  0  0  0
   28.5946   76.5833   36.9124 H   0  0  0  0  0  0
   30.1445   76.3184   36.0440 H   0  0  0  0  0  0
   32.4248   71.1869   39.2697 H   0  0  0  0  0  0
   30.3076   69.1151   39.8141 H   0  0  0  0  0  0
   31.6841   69.6078   40.8577 H   0  0  0  0  0  0
   29.2069   70.2798   41.5940 H   0  0  0  0  0  0
   30.5224   71.4965   41.7198 H   0  0  0  0  0  0
   28.8626   72.6429   40.3018 H   0  0  0  0  0  0
   28.5186   71.1386   39.3825 H   0  0  0  0  0  0
   32.1347   69.3192   35.3052 H   0  0  0  0  0  0
   33.6387   67.0438   35.5756 H   0  0  0  0  0  0
   34.4119   68.6647   35.6170 H   0  0  0  0  0  0
   33.4508   66.9521   37.9639 H   0  0  0  0  0  0
   35.0993   67.6077   37.6825 H   0  0  0  0  0  0
   34.3174   69.9312   37.9583 H   0  0  0  0  0  0
   33.3869   69.0690   39.2301 H   0  0  0  0  0  0
   28.7263   66.5946   35.7750 H   0  0  0  0  0  0
   28.9556   66.8393   32.7264 H   0  0  0  0  0  0
   27.5042   67.1008   33.7520 H   0  0  0  0  0  0
   28.6673   69.2311   32.8306 H   0  0  0  0  0  0
   28.3494   69.1677   34.5974 H   0  0  0  0  0  0
   30.8040   69.5732   34.4553 H   0  0  0  0  0  0
   30.9758   68.3476   33.1534 H   0  0  0  0  0  0
   29.9506   62.5138   34.9460 H   0  0  0  0  0  0
   27.2338   62.1549   33.6180 H   0  0  0  0  0  0
   28.0068   61.1502   34.8908 H   0  0  0  0  0  0
   26.0710   62.7707   35.6591 H   0  0  0  0  0  0
   27.6041   62.8008   36.5946 H   0  0  0  0  0  0
   27.3820   65.1586   35.9335 H   0  0  0  0  0  0
   26.7425   64.7150   34.3146 H   0  0  0  0  0  0
   31.1050   62.6162   30.6884 H   0  0  0  0  0  0
   31.7299   60.0662   30.1117 H   0  0  0  0  0  0
   32.6926   60.9440   31.3483 H   0  0  0  0  0  0
   30.3003   59.0695   31.7704 H   0  0  0  0  0  0
   31.9407   58.9347   32.4898 H   0  0  0  0  0  0
   31.6043   60.8969   33.8891 H   0  0  0  0  0  0
   29.9442   60.2108   33.8881 H   0  0  0  0  0  0
   27.4579   61.4877   28.5335 H   0  0  0  0  0  0
   29.1603   60.4234   26.2507 H   0  0  0  0  0  0
   27.8252   61.6238   26.1976 H   0  0  0  0  0  0
   30.2561   62.5642   25.9713 H   0  0  0  0  0  0
   29.1819   63.3336   27.1881 H   0  0  0  0  0  0
   31.1474   62.6456   28.5528 H   0  0  0  0  0  0
   31.2650   61.0732   27.6923 H   0  0  0  0  0  0
   26.6741   57.2284   29.3328 H   0  0  0  0  0  0
   25.1226   57.5052   26.6984 H   0  0  0  0  0  0
   24.6324   56.6360   28.1921 H   0  0  0  0  0  0
   23.5998   59.0364   27.8889 H   0  0  0  0  0  0
   24.4313   58.7144   29.4482 H   0  0  0  0  0  0
   25.6903   60.6785   28.6478 H   0  0  0  0  0  0
   25.5859   60.1364   26.9385 H   0  0  0  0  0  0
   28.9094   53.7627   28.1186 H   0  0  0  0  0  0
   27.4244   54.1246   25.4277 H   0  0  0  0  0  0
   27.8537   52.5791   26.2362 H   0  0  0  0  0  0
   25.3571   53.9514   26.5573 H   0  0  0  0  0  0
   25.9922   52.6922   27.6698 H   0  0  0  0  0  0
   26.5577   54.3204   29.3135 H   0  0  0  0  0  0
   25.5947   55.4919   28.3508 H   0  0  0  0  0  0
  1  2  1  0  0  0
  1  7  1  0  0  0
  1 72  1  0  0  0
  1 73  1  0  0  0
  2  5  1  0  0  0
  2  3  1  0  0  0
  2 74  1  0  0  0
  3  4  2  0  0  0
  3  8  1  0  0  0
  5  6  1  0  0  0
  5 75  1  0  0  0
  5 76  1  0  0  0
  6  7  1  0  0  0
  6 77  1  0  0  0
  6 78  1  0  0  0
  7 79  1  0  0  0
  7 80  1  0  0  0
  8  9  1  0  0  0
  8 14  1  0  0  0
  9 12  1  0  0  0
  9 10  1  0  0  0
  9 81  1  0  0  0
 10 11  2  0  0  0
 10 15  1  0  0  0
 12 13  1  0  0  0
 12 82  1  0  0  0
 12 83  1  0  0  0
 13 14  1  0  0  0
 13 84  1  0  0  0
 13 85  1  0  0  0
 14 86  1  0  0  0
 14 87  1  0  0  0
 15 16  1  0  0  0
 15 21  1  0  0  0
 16 19  1  0  0  0
 16 17  1  0  0  0
 16 88  1  0  0  0
 17 18  2  0  0  0
 17 22  1  0  0  0
 19 20  1  0  0  0
 19 89  1  0  0  0
 19 90  1  0  0  0
 20 21  1  0  0  0
 20 91  1  0  0  0
 20 92  1  0  0  0
 21 93  1  0  0  0
 21 94  1  0  0  0
 22 23  1  0  0  0
 22 28  1  0  0  0
 23 26  1  0  0  0
 23 24  1  0  0  0
 23 95  1  0  0  0
 24 25  2  0  0  0
 24 29  1  0  0  0
 26 27  1  0  0  0
 26 96  1  0  0  0
 26 97  1  0  0  0
 27 28  1  0  0  0
 27 98  1  0  0  0
 27 99  1  0  0  0
 28100  1  0  0  0
 28101  1  0  0  0
 29 30  1  0  0  0
 29 35  1  0  0  0
 30 33  1  0  0  0
 30 31  1  0  0  0
 30102  1  0  0  0
 31 32  2  0  0  0
 31 36  1  0  0  0
 33 34  1  0  0  0
 33103  1  0  0  0
 33104  1  0  0  0
 34 35  1  0  0  0
 34105  1  0  0  0
 34106  1  0  0  0
 35107  1  0  0  0
 35108  1  0  0  0
 36 37  1  0  0  0
 36 42  1  0  0  0
 37 40  1  0  0  0
 37 38  1  0  0  0
 37109  1  0  0  0
 38 39  2  0  0  0
 38 43  1  0  0  0
 40 41  1  0  0  0
 40110  1  0  0  0
 40111  1  0  0  0
 41 42  1  0  0  0
 41112  1  0  0  0
 41113  1  0  0  0
 42114  1  0  0  0
 42115  1  0  0  0
 43 44  1  0  0  0
 43 49  1  0  0  0
 44 47  1  0  0  0
 44 45  1  0  0  0
 44116  1  0  0  0
 45 46  2  0  0  0
 45 50  1  0  0  0
 47 48  1  0  0  0
 47117  1  0  0  0
 47118  1  0  0  0
 48 49  1  0  0  0
 48119  1  0  0  0
 48120  1  0  0  0
 49121  1  0  0  0
 49122  1  0  0  0
 50 51  1  0  0  0
 50 56  1  0  0  0
 51 54  1  0  0  0
 51 52  1  0  0  0
 51123  1  0  0  0
 52 53  2  0  0  0
 52 57  1  0  0  0
 54 55  1  0  0  0
 54124  1  0  0  0
 54125  1  0  0  0
 55 56  1  0  0  0
 55126  1  0  0  0
 55127  1  0  0  0
 56128  1  0  0  0
 56129  1  0  0  0
 57 58  1  0  0  0
 57 63  1  0  0  0
 58 61  1  0  0  0
 58 59  1  0  0  0
 58130  1  0  0  0
 59 60  2  0  0  0
 59 64  1  0  0  0
 61 62  1  0  0  0
 61131  1  0  0  0
 61132  1  0  0  0
 62 63  1  0  0  0
 62133  1  0  0  0
 62134  1  0  0  0
 63135  1  0  0  0
 63136  1  0  0  0
 64 65  1  0  0  0
 64 70  1  0  0  0
 65 68  1  0  0  0
 65 66  1  0  0  0
 65137  1  0  0  0
 66 67  2  0  0  0
 66 71  1  0  0  0
 68 69  1  0  0  0
 68138  1  0  0  0
 68139  1  0  0  0
 69 70  1  0  0  0
 69140  1  0  0  0
 69141  1  0  0  0
 70142  1  0  0  0
 70143  1  0  0  0
M  CHG  2   1   1  71  -1
M  END
> <s_m_source_file>
../1awi_ligand.sdf

> <i_m_source_file_index>
1

> <s_epik_input>
W0NIMl0xW0NIMl1bQ0gyXVtOSDIrXVtDQEBIXTFDKD1PKU4yW0NAQEhdKFtDSDJdW0NIMl1bQ0gyXTIpQyg9TylOM1tDQEBIXShbQ0gyXVtDSDJdW0NIMl0zKUMoPU8pTjRbQ0BASF0oW0NIMl1bQ0gyXVtDSDJdNClDKD1PKU41W0NAQEhdKFtDSDJdW0NIMl1bQ0gyXTUpQyg9TylONltDQEBIXShbQ0gyXVtDSDJdW0NIMl02KUMoPU8pTjdbQ0BASF0oW0NIMl1bQ0gyXVtDSDJdNylDKD1PKU44W0NAQEhdKFtDSDJdW0NIMl1bQ0gyXTgpQyg9TylOOVtDQEBIXShbQ0gyXVtDSDJdW0NIMl05KUMoPU8pTjFbQ0BIXShDKD1PKVtPSF0pW0NIMl1bQ0gyXVtDSDJdMQ==

> <s_epik_cmdline>
J2VwaWtfYXBwJywgJy1pbWFlJywgJ2xpZ2FuZF9wcm8ubWFlJywgJy1vbWFlJywgJ2xpZ2FuZF9wcmVwLm1hZScsICctbXMnLCAnMScsICctcGgnLCAnNycsICctcGh0JywgJzAuNScsICctbnQn

> <r_epik_Ionization_Penalty>
  0.0382

> <r_epik_Ionization_Penalty_Charging>
  0.0382

> <r_epik_Ionization_Penalty_Neutral>
  0.0000

> <r_epik_State_Penalty>
  0.0317

> <r_epik_Charging_Adjusted_Penalty>
0.0699662412451952

> <i_epik_Tot_Q>
0

> <i_epik_Tot_abs_Q>
2

$$$$
