1ax1_ligand
                    3D
 Schrodinger Suite 2020-3.
 45 46  0  0  1  0            999 V2000
   22.2230   -1.4550   37.6430 C   0  0  2  0  0  0
   21.3570   -2.7070   37.7600 C   0  0  1  0  0  0
   20.1380   -2.5830   36.8560 C   0  0  2  0  0  0
   19.3890   -1.2770   37.1580 C   0  0  1  0  0  0
   20.3620   -0.0970   37.0920 C   0  0  1  0  0  0
   19.7300    1.2320   37.4530 C   0  0  0  0  0  0
   23.2830   -1.5370   38.5260 O   0  0  0  0  0  0
   22.1080   -3.8570   37.3910 O   0  0  0  0  0  0
   19.2870   -3.6970   37.0700 O   0  0  0  0  0  0
   18.3510   -1.0730   36.1800 O   0  0  0  0  0  0
   21.4570   -0.3050   37.9940 O   0  0  0  0  0  0
   18.8250    1.0920   38.5380 O   0  0  0  0  0  0
   17.0640   -1.4660   36.5050 C   0  0  1  0  0  0
   16.0880   -0.8130   35.5200 C   0  0  1  0  0  0
   14.6730   -1.3640   35.7160 C   0  0  2  0  0  0
   14.7090   -2.8860   35.5940 C   0  0  2  0  0  0
   15.6880   -3.4240   36.6310 C   0  0  1  0  0  0
   15.8030   -4.9310   36.6130 C   0  0  0  0  0  0
   16.0910    0.5950   35.7020 O   0  0  0  0  0  0
   13.8010   -0.8210   34.7360 O   0  0  0  0  0  0
   15.1340   -3.2600   34.2860 O   0  0  0  0  0  0
   17.0070   -2.8950   36.3840 O   0  0  0  0  0  0
   16.7230   -5.3740   37.5930 O   0  0  0  0  0  0
   22.6485   -1.3181   36.6379 H   0  0  0  0  0  0
   21.0578   -2.8769   38.8048 H   0  0  0  0  0  0
   20.4228   -2.6338   35.7947 H   0  0  0  0  0  0
   18.8913   -1.3338   38.1373 H   0  0  0  0  0  0
   20.7558   -0.0514   36.0659 H   0  0  0  0  0  0
   20.5160    1.9455   37.7414 H   0  0  0  0  0  0
   19.1795    1.6240   36.5851 H   0  0  0  0  0  0
   24.0099   -2.3579   38.4380 H   0  0  0  0  0  0
   23.0291   -4.1106   37.9362 H   0  0  0  0  0  0
   19.6628   -4.7168   36.9004 H   0  0  0  0  0  0
   18.2837    1.9703   38.9195 H   0  0  0  0  0  0
   16.8781   -1.1857   37.5523 H   0  0  0  0  0  0
   16.4198   -0.9682   34.4828 H   0  0  0  0  0  0
   14.2439   -1.0468   36.6779 H   0  0  0  0  0  0
   13.7093   -3.3318   35.7029 H   0  0  0  0  0  0
   15.3423   -3.0897   37.6203 H   0  0  0  0  0  0
   14.8191   -5.3763   36.8219 H   0  0  0  0  0  0
   16.1518   -5.2603   35.6231 H   0  0  0  0  0  0
   17.0285    1.1610   35.5982 H   0  0  0  0  0  0
   13.6512    0.2671   34.6754 H   0  0  0  0  0  0
   14.5445   -2.9563   33.4083 H   0  0  0  0  0  0
   16.9241   -6.4488   37.7126 H   0  0  0  0  0  0
  1  2  1  0  0  0
  1  7  1  0  0  0
  1 11  1  0  0  0
  1 24  1  0  0  0
  2  3  1  0  0  0
  2  8  1  0  0  0
  2 25  1  0  0  0
  3  4  1  0  0  0
  3  9  1  0  0  0
  3 26  1  0  0  0
  4  5  1  0  0  0
  4 10  1  0  0  0
  4 27  1  0  0  0
  5  6  1  0  0  0
  5 11  1  0  0  0
  5 28  1  0  0  0
  6 12  1  0  0  0
  6 29  1  0  0  0
  6 30  1  0  0  0
  7 31  1  0  0  0
  8 32  1  0  0  0
  9 33  1  0  0  0
 10 13  1  0  0  0
 12 34  1  0  0  0
 13 14  1  0  0  0
 13 22  1  0  0  0
 13 35  1  0  0  0
 14 15  1  0  0  0
 14 19  1  0  0  0
 14 36  1  0  0  0
 15 16  1  0  0  0
 15 20  1  0  0  0
 15 37  1  0  0  0
 16 17  1  0  0  0
 16 21  1  0  0  0
 16 38  1  0  0  0
 17 18  1  0  0  0
 17 22  1  0  0  0
 17 39  1  0  0  0
 18 23  1  0  0  0
 18 40  1  0  0  0
 18 41  1  0  0  0
 19 42  1  0  0  0
 20 43  1  0  0  0
 21 44  1  0  0  0
 23 45  1  0  0  0
M  END
> <s_m_source_file>
../1ax1_ligand.sdf

> <i_m_source_file_index>
1

> <s_epik_input>
W09IXVtDQEhdMVtDQEhdKFtPSF0pW0NAQEhdKFtPSF0pW0NAQEhdKFtDQEhdKE8xKVtDSDJdW09IXSlPW0NASF0yW0NASF0oW09IXSlbQ0BASF0oW09IXSlbQ0BASF0oW09IXSlbQ0BIXShPMilbQ0gyXVtPSF0=

> <s_epik_cmdline>
J2VwaWtfYXBwJywgJy1pbWFlJywgJ2xpZ2FuZF9wcm8ubWFlJywgJy1vbWFlJywgJ2xpZ2FuZF9wcmVwLm1hZScsICctbXMnLCAnMScsICctcGgnLCAnNycsICctcGh0JywgJzAuNScsICctbnQn

> <r_lp_tautomer_probability>
1

> <r_epik_Ionization_Penalty>
  0.0000

> <r_epik_Ionization_Penalty_Charging>
  0.0000

> <r_epik_Ionization_Penalty_Neutral>
  0.0000

> <r_epik_State_Penalty>
 -0.0000

> <r_epik_Charging_Adjusted_Penalty>
0

> <i_epik_Tot_Q>
0

> <i_epik_Tot_abs_Q>
0

> <s_epik_Chemistry_Notes>
This compound contains an acetal/aminal-like group ( X-CH(R)-Y where X, Y are N, S, or O) that may be acid/base labile, releasing an aldehyde.

$$$$
