1ax2_ligand
                    3D
 Schrodinger Suite 2020-3.
 51 52  0  0  1  0            999 V2000
   22.1420   -1.2760   37.9780 C   0  0  1  0  0  0
   21.3360   -2.5720   38.0240 C   0  0  1  0  0  0
   20.1530   -2.5140   37.0560 C   0  0  2  0  0  0
   19.3240   -1.2470   37.3080 C   0  0  1  0  0  0
   20.2510   -0.0290   37.2680 C   0  0  1  0  0  0
   19.5530    1.2890   37.5310 C   0  0  0  0  0  0
   22.6230   -4.5170   38.6240 C   0  0  0  0  0  0
   23.5030   -5.6720   38.1720 C   0  0  0  0  0  0
   22.1850   -3.6950   37.6770 N   0  0  0  0  0  0
   22.6700   -1.1020   36.7080 O   0  0  0  0  0  0
   19.3470   -3.6700   37.2350 O   0  0  0  0  0  0
   18.3090   -1.1080   36.2890 O   0  0  0  0  0  0
   21.2880   -0.1660   38.2550 O   0  0  0  0  0  0
   18.6830    1.1950   38.6480 O   0  0  0  0  0  0
   22.3490   -4.3740   39.8210 O   0  0  0  0  0  0
   17.0120   -1.4920   36.6080 C   0  0  1  0  0  0
   16.0380   -0.8430   35.6150 C   0  0  1  0  0  0
   14.6200   -1.3930   35.8020 C   0  0  2  0  0  0
   14.6500   -2.9150   35.7080 C   0  0  2  0  0  0
   15.6260   -3.4420   36.7510 C   0  0  1  0  0  0
   15.7380   -4.9520   36.7380 C   0  0  0  0  0  0
   16.0370    0.5660   35.7960 O   0  0  0  0  0  0
   13.7610   -0.8680   34.8000 O   0  0  0  0  0  0
   15.0740   -3.3110   34.4070 O   0  0  0  0  0  0
   16.9460   -2.9200   36.5020 O   0  0  0  0  0  0
   16.7050   -5.3870   37.6770 O   0  0  0  0  0  0
   22.9857   -1.2671   38.6838 H   0  0  0  0  0  0
   20.9801   -2.7462   39.0502 H   0  0  0  0  0  0
   20.4910   -2.5536   36.0100 H   0  0  0  0  0  0
   18.7837   -1.3126   38.2639 H   0  0  0  0  0  0
   20.7071   -0.0003   36.2674 H   0  0  0  0  0  0
   20.3034    2.0669   37.7352 H   0  0  0  0  0  0
   18.9613    1.5731   36.6483 H   0  0  0  0  0  0
   23.6312   -5.6299   37.0803 H   0  0  0  0  0  0
   23.0283   -6.6248   38.4490 H   0  0  0  0  0  0
   24.4860   -5.5967   38.6598 H   0  0  0  0  0  0
   22.4675   -3.8674   36.6280 H   0  0  0  0  0  0
   23.3610   -1.8502   36.2924 H   0  0  0  0  0  0
   19.7814   -4.6707   37.0936 H   0  0  0  0  0  0
   18.1014    2.0723   38.9675 H   0  0  0  0  0  0
   16.8228   -1.2012   37.6519 H   0  0  0  0  0  0
   16.3762   -1.0026   34.5805 H   0  0  0  0  0  0
   14.1825   -1.0610   36.7551 H   0  0  0  0  0  0
   13.6481   -3.3530   35.8279 H   0  0  0  0  0  0
   15.2818   -3.0940   37.7361 H   0  0  0  0  0  0
   14.7647   -5.3941   36.9973 H   0  0  0  0  0  0
   16.0381   -5.2888   35.7347 H   0  0  0  0  0  0
   16.9741    1.1337   35.6986 H   0  0  0  0  0  0
   13.6149    0.2189   34.7151 H   0  0  0  0  0  0
   14.4867   -3.0182   33.5242 H   0  0  0  0  0  0
   16.9119   -6.4608   37.7961 H   0  0  0  0  0  0
  1  2  1  0  0  0
  1 10  1  0  0  0
  1 13  1  0  0  0
  1 27  1  0  0  0
  2  3  1  0  0  0
  2  9  1  0  0  0
  2 28  1  0  0  0
  3  4  1  0  0  0
  3 11  1  0  0  0
  3 29  1  0  0  0
  4  5  1  0  0  0
  4 12  1  0  0  0
  4 30  1  0  0  0
  5  6  1  0  0  0
  5 13  1  0  0  0
  5 31  1  0  0  0
  6 14  1  0  0  0
  6 32  1  0  0  0
  6 33  1  0  0  0
  7  8  1  0  0  0
  7  9  1  0  0  0
  7 15  2  0  0  0
  8 34  1  0  0  0
  8 35  1  0  0  0
  8 36  1  0  0  0
  9 37  1  0  0  0
 10 38  1  0  0  0
 11 39  1  0  0  0
 12 16  1  0  0  0
 14 40  1  0  0  0
 16 17  1  0  0  0
 16 25  1  0  0  0
 16 41  1  0  0  0
 17 18  1  0  0  0
 17 22  1  0  0  0
 17 42  1  0  0  0
 18 19  1  0  0  0
 18 23  1  0  0  0
 18 43  1  0  0  0
 19 20  1  0  0  0
 19 24  1  0  0  0
 19 44  1  0  0  0
 20 21  1  0  0  0
 20 25  1  0  0  0
 20 45  1  0  0  0
 21 26  1  0  0  0
 21 46  1  0  0  0
 21 47  1  0  0  0
 22 48  1  0  0  0
 23 49  1  0  0  0
 24 50  1  0  0  0
 26 51  1  0  0  0
M  END
> <s_m_source_file>
../1ax2_ligand.sdf

> <i_m_source_file_index>
1

> <s_epik_input>
W0NIM11DKD1PKVtOSF1bQ0BASF0oW0NASF0xW09IXSlbQ0BASF0oW09IXSlbQ0BASF0oW0NASF0oTzEpW0NIMl1bT0hdKU9bQ0BIXTJbQ0BIXShbT0hdKVtDQEBIXShbT0hdKVtDQEBIXShbT0hdKVtDQEhdKE8yKVtDSDJdW09IXQ==

> <s_epik_cmdline>
J2VwaWtfYXBwJywgJy1pbWFlJywgJ2xpZ2FuZF9wcm8ubWFlJywgJy1vbWFlJywgJ2xpZ2FuZF9wcmVwLm1hZScsICctbXMnLCAnMScsICctcGgnLCAnNycsICctcGh0JywgJzAuNScsICctbnQn

> <r_lp_tautomer_probability>
1

> <r_epik_Ionization_Penalty>
  0.0000

> <r_epik_Ionization_Penalty_Charging>
  0.0000

> <r_epik_Ionization_Penalty_Neutral>
  0.0000

> <r_epik_State_Penalty>
 -0.0000

> <r_epik_Charging_Adjusted_Penalty>
0

> <i_epik_Tot_Q>
0

> <i_epik_Tot_abs_Q>
0

> <s_epik_Chemistry_Notes>
This compound contains an acetal/aminal-like group ( X-CH(R)-Y where X, Y are N, S, or O) that may be acid/base labile, releasing an aldehyde.

$$$$
