1axr_ligand
                    3D
 Schrodinger Suite 2020-3.
 25 26  0  0  1  0            999 V2000
   34.1300   22.4540   27.2440 C   0  0  0  0  0  0
   34.0150   22.8750   25.7920 C   0  0  1  0  0  0
   32.6100   22.4600   25.2760 C   0  0  2  0  0  0
   32.3490   20.9990   25.6100 C   0  0  1  0  0  0
   32.1530   20.8530   27.1400 C   0  0  1  0  0  0
   32.0400   19.4280   27.6180 C   0  0  0  0  0  0
   35.0110   22.8020   28.2190 C   0  0  0  0  0  0
   33.6460   21.2760   29.1170 N   0  0  0  0  0  0
   34.7380   22.1040   29.3320 N   0  0  0  0  0  0
   33.2430   21.4890   27.8060 N   0  0  0  0  0  0
   34.2970   24.2490   25.5610 O   0  0  0  0  0  0
   32.5880   22.6280   23.8830 O   0  0  0  0  0  0
   31.2450   20.4370   24.9220 O   0  0  0  0  0  0
   33.1410   18.7010   27.0730 O   0  0  0  0  0  0
   34.8409   22.4342   25.2144 H   0  0  0  0  0  0
   31.8005   23.0934   25.6678 H   0  0  0  0  0  0
   33.1771   20.3988   25.2051 H   0  0  0  0  0  0
   31.2262   21.3610   27.4450 H   0  0  0  0  0  0
   32.0729   19.4063   28.7173 H   0  0  0  0  0  0
   31.0882   18.9993   27.2711 H   0  0  0  0  0  0
   35.8128   23.5328   28.1133 H   0  0  0  0  0  0
   35.2607   24.6736   25.8787 H   0  0  0  0  0  0
   32.7578   23.6232   23.4463 H   0  0  0  0  0  0
   31.2163   20.4526   23.8225 H   0  0  0  0  0  0
   33.2570   17.6300   27.2954 H   0  0  0  0  0  0
  1  2  1  0  0  0
  1  7  2  0  0  0
  1 10  1  0  0  0
  2  3  1  0  0  0
  2 11  1  0  0  0
  2 15  1  0  0  0
  3  4  1  0  0  0
  3 12  1  0  0  0
  3 16  1  0  0  0
  4  5  1  0  0  0
  4 13  1  0  0  0
  4 17  1  0  0  0
  5  6  1  0  0  0
  5 10  1  0  0  0
  5 18  1  0  0  0
  6 14  1  0  0  0
  6 19  1  0  0  0
  6 20  1  0  0  0
  7  9  1  0  0  0
  7 21  1  0  0  0
  8  9  2  0  0  0
  8 10  1  0  0  0
 11 22  1  0  0  0
 12 23  1  0  0  0
 13 24  1  0  0  0
 14 25  1  0  0  0
M  END
> <s_m_source_file>
../1axr_ligand.sdf

> <i_m_source_file_index>
1

> <s_epik_input>
W2NIXTFubm4oYzEyKVtDQEhdKFtDSDJdW09IXSlbQ0BASF0oW09IXSlbQ0BIXShbT0hdKVtDQEhdMltPSF0=

> <s_epik_cmdline>
J2VwaWtfYXBwJywgJy1pbWFlJywgJ2xpZ2FuZF9wcm8ubWFlJywgJy1vbWFlJywgJ2xpZ2FuZF9wcmVwLm1hZScsICctbXMnLCAnMScsICctcGgnLCAnNycsICctcGh0JywgJzAuNScsICctbnQn

> <r_lp_tautomer_probability>
1

> <r_epik_Ionization_Penalty>
  0.0004

> <r_epik_Ionization_Penalty_Charging>
  0.0000

> <r_epik_Ionization_Penalty_Neutral>
  0.0004

> <r_epik_State_Penalty>
 -0.0000

> <r_epik_Charging_Adjusted_Penalty>
0

> <i_epik_Tot_Q>
0

> <i_epik_Tot_abs_Q>
0

$$$$
