1axs_ligand
                    3D
 Schrodinger Suite 2020-3.
 54 56  0  0  1  0            999 V2000
   10.2640   -2.3220   61.3000 C   0  0  0  0  0  0
    8.8770   -2.4380   61.0240 C   0  0  0  0  0  0
   11.2140   -2.6850   60.3160 C   0  0  0  0  0  0
   10.7710   -3.1700   59.0570 C   0  0  0  0  0  0
    9.3650   -3.2970   58.7640 C   0  0  0  0  0  0
    8.4280   -2.9230   59.7650 C   0  0  0  0  0  0
    8.8860   -3.8530   57.3870 C   0  0  2  0  0  0
    9.0180   -5.4180   57.2820 C   0  0  0  0  0  0
    8.5700   -5.9780   55.8900 C   0  0  1  0  0  0
    9.4040   -5.3120   54.7390 C   0  0  2  0  0  0
    9.2030   -3.7530   54.8030 C   0  0  0  0  0  0
    9.6230   -3.1780   56.1920 C   0  0  0  0  0  0
    9.0560   -5.8510   53.3020 C   0  0  0  0  0  0
    7.7920   -5.6750   52.6430 C   0  0  0  0  0  0
    7.5940   -6.2030   51.3190 C   0  0  0  0  0  0
    8.6520   -6.9140   50.6270 C   0  0  0  0  0  0
    9.8940   -7.0700   51.3130 C   0  0  0  0  0  0
   10.0910   -6.5520   52.6150 C   0  0  0  0  0  0
    8.7220   -7.3970   55.8890 O   0  0  0  0  0  0
    8.4890   -7.4960   49.2060 C   0  0  0  0  0  0
    9.4390   -8.0950   48.6700 O   0  0  0  0  0  0
    7.3010   -7.3580   48.5210 N   0  0  0  0  0  0
    7.0740   -7.8980   47.1410 C   0  0  0  0  0  0
    6.0960   -7.0030   46.3370 C   0  0  0  0  0  0
    6.6660   -6.5530   44.9580 C   0  0  0  0  0  0
    6.5820   -7.6010   43.8300 C   0  0  0  0  0  0
    5.5440   -8.1780   43.4800 O   0  0  0  0  0  0
    7.7940   -7.8240   43.2430 O   0  5  0  0  0  0
   10.5977   -1.9533   62.2699 H   0  0  0  0  0  0
    8.1493   -2.1528   61.7838 H   0  0  0  0  0  0
   12.2801   -2.5928   60.5233 H   0  0  0  0  0  0
   11.5046   -3.4503   58.3011 H   0  0  0  0  0  0
    7.3596   -3.0084   59.5666 H   0  0  0  0  0  0
    7.8199   -3.5889   57.3261 H   0  0  0  0  0  0
   10.0676   -5.7086   57.4368 H   0  0  0  0  0  0
    8.3893   -5.8914   58.0505 H   0  0  0  0  0  0
    7.4945   -5.8333   55.7100 H   0  0  0  0  0  0
   10.4570   -5.5815   54.9080 H   0  0  0  0  0  0
    9.8170   -3.2720   54.0273 H   0  0  0  0  0  0
    8.1431   -3.5126   54.6331 H   0  0  0  0  0  0
    9.4006   -2.1007   56.1854 H   0  0  0  0  0  0
   10.7076   -3.3279   56.2982 H   0  0  0  0  0  0
    6.9841   -5.1424   53.1448 H   0  0  0  0  0  0
    6.6310   -6.0661   50.8271 H   0  0  0  0  0  0
   10.7099   -7.6007   50.8223 H   0  0  0  0  0  0
   11.0552   -6.6918   53.1038 H   0  0  0  0  0  0
    8.1972   -8.0069   56.6391 H   0  0  0  0  0  0
    6.4951   -6.8184   49.0399 H   0  0  0  0  0  0
    8.0318   -7.9404   46.6017 H   0  0  0  0  0  0
    6.6463   -8.9092   47.2087 H   0  0  0  0  0  0
    5.1648   -7.5567   46.1463 H   0  0  0  0  0  0
    5.8706   -6.0947   46.9151 H   0  0  0  0  0  0
    6.1132   -5.6707   44.6030 H   0  0  0  0  0  0
    7.7308   -6.2993   45.0665 H   0  0  0  0  0  0
  1  2  2  0  0  0
  1  3  1  0  0  0
  1 29  1  0  0  0
  2  6  1  0  0  0
  2 30  1  0  0  0
  3  4  2  0  0  0
  3 31  1  0  0  0
  4  5  1  0  0  0
  4 32  1  0  0  0
  5  6  2  0  0  0
  5  7  1  0  0  0
  6 33  1  0  0  0
  7  8  1  0  0  0
  7 12  1  0  0  0
  7 34  1  0  0  0
  8  9  1  0  0  0
  8 35  1  0  0  0
  8 36  1  0  0  0
  9 10  1  0  0  0
  9 19  1  0  0  0
  9 37  1  0  0  0
 10 11  1  0  0  0
 10 13  1  0  0  0
 10 38  1  0  0  0
 11 12  1  0  0  0
 11 39  1  0  0  0
 11 40  1  0  0  0
 12 41  1  0  0  0
 12 42  1  0  0  0
 13 14  2  0  0  0
 13 18  1  0  0  0
 14 15  1  0  0  0
 14 43  1  0  0  0
 15 16  2  0  0  0
 15 44  1  0  0  0
 16 17  1  0  0  0
 16 20  1  0  0  0
 17 18  2  0  0  0
 17 45  1  0  0  0
 18 46  1  0  0  0
 19 47  1  0  0  0
 20 21  2  0  0  0
 20 22  1  0  0  0
 22 23  1  0  0  0
 22 48  1  0  0  0
 23 24  1  0  0  0
 23 49  1  0  0  0
 23 50  1  0  0  0
 24 25  1  0  0  0
 24 51  1  0  0  0
 24 52  1  0  0  0
 25 26  1  0  0  0
 25 53  1  0  0  0
 25 54  1  0  0  0
 26 27  2  0  0  0
 26 28  1  0  0  0
M  CHG  1  28  -1
M  END
> <s_m_source_file>
../1axs_ligand.sdf

> <i_m_source_file_index>
1

> <s_epik_input>
W2NIXTFbY0hdW2NIXVtjSF1bY0hdYzFbQ0BASF0yW0NIMl1bQ0BIXShbT0hdKVtDQEhdKFtDSDJdW0NIMl0yKWMzW2NIXVtjSF1jKFtjSF1bY0hdMylDKD1PKVtOSF1bQ0gyXVtDSDJdW0NIMl1DKD1PKVtPSF0=

> <s_epik_cmdline>
J2VwaWtfYXBwJywgJy1pbWFlJywgJ2xpZ2FuZF9wcm8ubWFlJywgJy1vbWFlJywgJ2xpZ2FuZF9wcmVwLm1hZScsICctbXMnLCAnMScsICctcGgnLCAnNycsICctcGh0JywgJzAuNScsICctbnQn

> <r_lp_tautomer_probability>
1

> <r_epik_Ionization_Penalty>
  0.0030

> <r_epik_Ionization_Penalty_Charging>
  0.0030

> <r_epik_Ionization_Penalty_Neutral>
  0.0000

> <r_epik_State_Penalty>
 -0.0000

> <r_epik_Charging_Adjusted_Penalty>
0.00301549704650029

> <i_epik_Tot_Q>
-1

> <i_epik_Tot_abs_Q>
1

$$$$
