1ayu_ligand
                    3D
 Schrodinger Suite 2020-3.
 84 85  0  0  1  0            999 V2000
  -28.2820   -9.3100   55.9360 C   0  0  0  0  0  0
  -28.0700   -9.0330   57.3050 C   0  0  0  0  0  0
  -27.1110   -9.7750   58.0320 C   0  0  0  0  0  0
  -26.3680  -10.7820   57.4040 C   0  0  0  0  0  0
  -26.5940  -11.0480   56.0460 C   0  0  0  0  0  0
  -27.5420  -10.3210   55.3100 C   0  0  0  0  0  0
  -25.3120  -11.5370   58.1580 C   0  0  0  0  0  0
  -24.1910  -11.6800   57.2390 O   0  0  0  0  0  0
  -23.2880  -12.7900   57.2000 C   0  0  0  0  0  0
  -22.4970  -12.9940   58.1330 O   0  0  0  0  0  0
  -22.4530  -14.7080   55.8770 C   0  0  1  0  0  0
  -21.0470  -14.4730   56.4770 C   0  0  0  0  0  0
  -20.1070  -13.3840   55.9210 C   0  0  0  0  0  0
  -19.1460  -12.9150   57.0060 C   0  0  0  0  0  0
  -20.8270  -12.1730   55.2290 C   0  0  0  0  0  0
  -23.0030  -16.0560   56.3450 C   0  0  0  0  0  0
  -24.1580  -16.1470   56.7540 O   0  0  0  0  0  0
  -22.1920  -17.1740   56.3040 N   0  0  0  0  0  0
  -22.6240  -18.5340   56.7420 N   0  0  1  0  0  0
  -23.3360  -13.5520   56.1020 N   0  0  0  0  0  0
  -22.0890  -18.8520   58.1360 C   0  0  0  0  0  0
  -22.1020  -17.8040   58.7500 O   0  0  0  0  0  0
  -12.7780  -27.3050   59.7650 C   0  0  0  0  0  0
  -13.7500  -26.7990   60.6230 C   0  0  0  0  0  0
  -14.6140  -25.7910   60.1720 C   0  0  0  0  0  0
  -14.5160  -25.2870   58.8790 C   0  0  0  0  0  0
  -13.5360  -25.8050   58.0310 C   0  0  0  0  0  0
  -12.6670  -26.8090   58.4710 C   0  0  0  0  0  0
  -15.4520  -24.2110   58.4000 C   0  0  0  0  0  0
  -16.5230  -24.5800   57.4870 O   0  0  0  0  0  0
  -17.5580  -23.6630   57.0520 C   0  0  0  0  0  0
  -17.3200  -22.7410   56.2670 O   0  0  0  0  0  0
  -19.9480  -23.0860   57.1840 C   0  0  1  0  0  0
  -21.2310  -23.9020   57.3480 C   0  0  0  0  0  0
  -21.1050  -25.2520   58.0350 C   0  0  0  0  0  0
  -22.3150  -25.5920   58.8880 C   0  0  0  0  0  0
  -20.8400  -26.3110   56.9880 C   0  0  0  0  0  0
  -20.0660  -21.8310   58.0300 C   0  0  0  0  0  0
  -19.7360  -21.8580   59.2160 O   0  0  0  0  0  0
  -20.5580  -20.7030   57.4300 N   0  0  0  0  0  0
  -20.7040  -19.4360   58.2090 N   0  0  1  0  0  0
  -18.7790  -23.8960   57.5410 N   0  0  0  0  0  0
  -29.0181   -8.7395   55.3696 H   0  0  0  0  0  0
  -28.6442   -8.2494   57.7994 H   0  0  0  0  0  0
  -26.9489   -9.5617   59.0886 H   0  0  0  0  0  0
  -26.0225  -11.8343   55.5528 H   0  0  0  0  0  0
  -27.7019  -10.5423   54.2548 H   0  0  0  0  0  0
  -25.0228  -10.9673   59.0534 H   0  0  0  0  0  0
  -25.7075  -12.5181   58.4596 H   0  0  0  0  0  0
  -22.4300  -14.7446   54.7778 H   0  0  0  0  0  0
  -21.1420  -14.2044   57.5395 H   0  0  0  0  0  0
  -20.4500  -15.3921   56.3831 H   0  0  0  0  0  0
  -19.5238  -13.8771   55.1293 H   0  0  0  0  0  0
  -18.6607  -13.7874   57.4681 H   0  0  0  0  0  0
  -19.7030  -12.3564   57.7726 H   0  0  0  0  0  0
  -18.3804  -12.2626   56.5607 H   0  0  0  0  0  0
  -21.5111  -12.5477   54.4534 H   0  0  0  0  0  0
  -20.0759  -11.5144   54.7684 H   0  0  0  0  0  0
  -21.3985  -11.6082   55.9803 H   0  0  0  0  0  0
  -21.1730  -17.0176   55.9203 H   0  0  0  0  0  0
  -23.6433  -18.5624   56.7672 H   0  0  0  0  0  0
  -24.0847  -13.2762   55.3448 H   0  0  0  0  0  0
  -22.7730  -19.4910   58.7137 H   0  0  0  0  0  0
  -12.1039  -28.0901   60.1075 H   0  0  0  0  0  0
  -13.8390  -27.1838   61.6389 H   0  0  0  0  0  0
  -15.3747  -25.3959   60.8453 H   0  0  0  0  0  0
  -13.4467  -25.4228   57.0141 H   0  0  0  0  0  0
  -11.9034  -27.2021   57.7998 H   0  0  0  0  0  0
  -15.9617  -23.7576   59.2629 H   0  0  0  0  0  0
  -14.8798  -23.4388   57.8649 H   0  0  0  0  0  0
  -19.7702  -22.8017   56.1364 H   0  0  0  0  0  0
  -21.9547  -23.3307   57.9478 H   0  0  0  0  0  0
  -21.6608  -24.1125   56.3576 H   0  0  0  0  0  0
  -20.2560  -25.2132   58.7334 H   0  0  0  0  0  0
  -22.4721  -24.7991   59.6340 H   0  0  0  0  0  0
  -22.1443  -26.5498   59.4013 H   0  0  0  0  0  0
  -23.2048  -25.6733   58.2463 H   0  0  0  0  0  0
  -19.9586  -26.0271   56.3942 H   0  0  0  0  0  0
  -21.7146  -26.3998   56.3267 H   0  0  0  0  0  0
  -20.6541  -27.2763   57.4817 H   0  0  0  0  0  0
  -20.8465  -20.7326   56.3689 H   0  0  0  0  0  0
  -20.0590  -18.7528   57.8120 H   0  0  0  0  0  0
  -18.8863  -24.7382   58.2404 H   0  0  0  0  0  0
  -23.0299  -17.2170   58.8165 H   0  0  0  0  0  0
  1  2  2  0  0  0
  1  6  1  0  0  0
  1 43  1  0  0  0
  2  3  1  0  0  0
  2 44  1  0  0  0
  3  4  2  0  0  0
  3 45  1  0  0  0
  4  5  1  0  0  0
  4  7  1  0  0  0
  5  6  2  0  0  0
  5 46  1  0  0  0
  6 47  1  0  0  0
  7  8  1  0  0  0
  7 48  1  0  0  0
  7 49  1  0  0  0
  8  9  1  0  0  0
  9 10  2  0  0  0
  9 20  1  0  0  0
 11 12  1  0  0  0
 11 16  1  0  0  0
 11 20  1  0  0  0
 11 50  1  0  0  0
 12 13  1  0  0  0
 12 51  1  0  0  0
 12 52  1  0  0  0
 13 14  1  0  0  0
 13 15  1  0  0  0
 13 53  1  0  0  0
 14 54  1  0  0  0
 14 55  1  0  0  0
 14 56  1  0  0  0
 15 57  1  0  0  0
 15 58  1  0  0  0
 15 59  1  0  0  0
 16 17  2  0  0  0
 16 18  1  0  0  0
 18 19  1  0  0  0
 18 60  1  0  0  0
 19 21  1  0  0  0
 19 61  1  0  0  0
 20 62  1  0  0  0
 21 22  1  0  0  0
 21 41  1  0  0  0
 21 63  1  0  0  0
 22 84  1  0  0  0
 23 24  2  0  0  0
 23 28  1  0  0  0
 23 64  1  0  0  0
 24 25  1  0  0  0
 24 65  1  0  0  0
 25 26  2  0  0  0
 25 66  1  0  0  0
 26 27  1  0  0  0
 26 29  1  0  0  0
 27 28  2  0  0  0
 27 67  1  0  0  0
 28 68  1  0  0  0
 29 30  1  0  0  0
 29 69  1  0  0  0
 29 70  1  0  0  0
 30 31  1  0  0  0
 31 32  2  0  0  0
 31 42  1  0  0  0
 33 34  1  0  0  0
 33 38  1  0  0  0
 33 42  1  0  0  0
 33 71  1  0  0  0
 34 35  1  0  0  0
 34 72  1  0  0  0
 34 73  1  0  0  0
 35 36  1  0  0  0
 35 37  1  0  0  0
 35 74  1  0  0  0
 36 75  1  0  0  0
 36 76  1  0  0  0
 36 77  1  0  0  0
 37 78  1  0  0  0
 37 79  1  0  0  0
 37 80  1  0  0  0
 38 39  2  0  0  0
 38 40  1  0  0  0
 40 41  1  0  0  0
 40 81  1  0  0  0
 41 82  1  0  0  0
 42 83  1  0  0  0
M  END
> <s_m_source_file>
../1ayu_ligand.sdf

> <i_m_source_file_index>
1

> <s_epik_input>
W2NIXTFbY0hdW2NIXVtjSF1bY0hdYzFbQ0gyXU9DKD1PKVtOSF1bQ0BASF0oW0NIMl1bQ0hdKFtDSDNdKVtDSDNdKUMoPU8pW05IXVtOSDIrXVtDSF0oW09IXSlbTkgyK11bTkhdQyg9TylbQ0BIXShbQ0gyXVtDSF0oW0NIM10pW0NIM10pW05IXUMoPU8pT1tDSDJdYzJbY0hdW2NIXVtjSF1bY0hdW2NIXTI=

> <s_epik_cmdline>
J2VwaWtfYXBwJywgJy1pbWFlJywgJ2xpZ2FuZF9wcm8ubWFlJywgJy1vbWFlJywgJ2xpZ2FuZF9wcmVwLm1hZScsICctbXMnLCAnMScsICctcGgnLCAnNycsICctcGh0JywgJzAuNScsICctbnQn

> <r_lp_tautomer_probability>
1

> <r_epik_Ionization_Penalty>
  0.0001

> <r_epik_Ionization_Penalty_Charging>
  0.0000

> <r_epik_Ionization_Penalty_Neutral>
  0.0001

> <r_epik_State_Penalty>
 -0.0000

> <r_epik_Charging_Adjusted_Penalty>
0

> <i_epik_Tot_Q>
0

> <i_epik_Tot_abs_Q>
0

> <s_epik_Chemistry_Notes>
This compound has an ester and may undergo hydrolysis at high or low pH. This compound contains an acetal/aminal-like group ( X-CH(R)-Y where X, Y are N, S, or O) that may be acid/base labile, releasing an aldehyde.

$$$$
