1ayv_ligand
                    3D
 Schrodinger Suite 2020-3.
 84 86  0  0  1  0            999 V2000
  -28.4950   -9.5230   55.7010 C   0  0  0  0  0  0
  -28.6290   -9.3340   57.0840 C   0  0  0  0  0  0
  -27.5560   -9.6270   57.9390 C   0  0  0  0  0  0
  -26.3510  -10.1050   57.4300 C   0  0  0  0  0  0
  -26.2280  -10.2880   56.0520 C   0  0  0  0  0  0
  -27.2900  -10.0010   55.1850 C   0  0  0  0  0  0
  -25.2000  -10.4050   58.3480 C   0  0  0  0  0  0
  -24.7270  -11.7650   58.3610 O   0  0  0  0  0  0
  -24.0310  -12.4200   57.2970 C   0  0  0  0  0  0
  -24.3300  -12.2310   56.0980 O   0  0  0  0  0  0
  -22.2660  -14.0130   56.7050 C   0  0  1  0  0  0
  -20.7750  -13.6250   56.8020 C   0  0  0  0  0  0
  -20.1770  -12.6020   55.8160 C   0  0  0  0  0  0
  -19.0060  -11.8290   56.4720 C   0  0  0  0  0  0
  -21.2220  -11.6350   55.2260 C   0  0  0  0  0  0
  -22.4980  -15.5900   56.8000 C   0  0  0  0  0  0
  -23.7840  -16.3150   55.9230 S   0  0  0  0  0  0
  -21.7960  -16.5490   57.4980 N   0  0  0  0  0  0
  -22.2080  -17.8720   57.3930 C   0  0  0  0  0  0
  -23.0540  -13.2500   57.6810 N   0  0  0  0  0  0
  -23.2740  -17.8770   56.5510 C   0  0  0  0  0  0
  -21.5760  -19.1040   58.2420 C   0  0  2  0  0  0
  -21.3720  -18.3860   59.1690 O   0  0  0  0  0  0
  -13.7850  -23.5080   54.9590 C   0  0  0  0  0  0
  -14.2320  -22.8380   56.0770 C   0  0  0  0  0  0
  -14.8330  -23.5440   57.1180 C   0  0  0  0  0  0
  -14.9980  -24.9290   57.0420 C   0  0  0  0  0  0
  -14.5350  -25.6040   55.9080 C   0  0  0  0  0  0
  -13.9350  -24.9010   54.8660 C   0  0  0  0  0  0
  -15.7230  -25.6710   58.1370 C   0  0  0  0  0  0
  -17.1020  -25.9300   57.7090 O   0  0  0  0  0  0
  -17.9100  -25.0280   56.9620 C   0  0  0  0  0  0
  -17.6900  -24.8100   55.7720 O   0  0  0  0  0  0
  -19.8220  -23.4920   57.0000 C   0  0  1  0  0  0
  -21.2170  -24.1180   56.8380 C   0  0  0  0  0  0
  -21.9190  -24.8870   57.9680 C   0  0  0  0  0  0
  -21.4350  -26.3070   58.1210 C   0  0  0  0  0  0
  -21.8650  -24.1530   59.2870 C   0  0  0  0  0  0
  -19.8670  -22.1490   57.7600 C   0  0  0  0  0  0
  -19.6040  -22.1250   58.9620 O   0  0  0  0  0  0
  -20.1820  -20.9960   57.0820 N   0  0  0  0  0  0
  -20.1980  -19.6480   57.7800 N   0  0  1  0  0  0
  -18.9040  -24.4430   57.6330 N   0  0  0  0  0  0
  -29.3268   -9.2980   55.0334 H   0  0  0  0  0  0
  -29.5667   -8.9595   57.4947 H   0  0  0  0  0  0
  -27.6666   -9.4789   59.0132 H   0  0  0  0  0  0
  -25.2889  -10.6609   55.6432 H   0  0  0  0  0  0
  -27.1755  -10.1505   54.1114 H   0  0  0  0  0  0
  -24.3345   -9.7882   58.0644 H   0  0  0  0  0  0
  -25.4887  -10.1771   59.3847 H   0  0  0  0  0  0
  -22.6557  -13.6605   55.7386 H   0  0  0  0  0  0
  -20.5734  -13.1885   57.7913 H   0  0  0  0  0  0
  -20.1530  -14.5216   56.6632 H   0  0  0  0  0  0
  -19.7946  -13.1829   54.9637 H   0  0  0  0  0  0
  -18.2787  -12.5447   56.8828 H   0  0  0  0  0  0
  -19.3939  -11.1945   57.2825 H   0  0  0  0  0  0
  -18.5138  -11.1988   55.7166 H   0  0  0  0  0  0
  -22.0388  -12.2125   54.7685 H   0  0  0  0  0  0
  -20.7464  -11.0033   54.4612 H   0  0  0  0  0  0
  -21.6265  -10.9990   56.0272 H   0  0  0  0  0  0
  -22.8470  -13.3535   58.7564 H   0  0  0  0  0  0
  -23.7862  -18.7999   56.2790 H   0  0  0  0  0  0
  -22.1767  -19.9930   58.4848 H   0  0  0  0  0  0
  -22.2116  -17.8800   59.6680 H   0  0  0  0  0  0
  -13.3143  -22.9558   54.1456 H   0  0  0  0  0  0
  -14.1157  -21.7565   56.1474 H   0  0  0  0  0  0
  -15.1785  -23.0086   58.0023 H   0  0  0  0  0  0
  -14.6443  -26.6863   55.8392 H   0  0  0  0  0  0
  -13.5829  -25.4307   53.9808 H   0  0  0  0  0  0
  -15.2114  -26.6245   58.3346 H   0  0  0  0  0  0
  -15.7278  -25.0609   59.0523 H   0  0  0  0  0  0
  -19.3990  -23.3024   56.0024 H   0  0  0  0  0  0
  -21.9465  -23.3307   56.5971 H   0  0  0  0  0  0
  -21.1945  -24.8583   56.0247 H   0  0  0  0  0  0
  -22.9772  -24.9578   57.6761 H   0  0  0  0  0  0
  -21.4845  -26.8180   57.1482 H   0  0  0  0  0  0
  -22.0720  -26.8354   58.8456 H   0  0  0  0  0  0
  -20.3955  -26.3033   58.4808 H   0  0  0  0  0  0
  -22.2225  -23.1221   59.1478 H   0  0  0  0  0  0
  -20.8284  -24.1352   59.6545 H   0  0  0  0  0  0
  -22.5048  -24.6673   60.0192 H   0  0  0  0  0  0
  -20.4258  -21.0640   56.0115 H   0  0  0  0  0  0
  -19.8515  -18.9772   57.0942 H   0  0  0  0  0  0
  -19.0220  -24.6963   58.6969 H   0  0  0  0  0  0
  1  2  2  0  0  0
  1  6  1  0  0  0
  1 44  1  0  0  0
  2  3  1  0  0  0
  2 45  1  0  0  0
  3  4  2  0  0  0
  3 46  1  0  0  0
  4  5  1  0  0  0
  4  7  1  0  0  0
  5  6  2  0  0  0
  5 47  1  0  0  0
  6 48  1  0  0  0
  7  8  1  0  0  0
  7 49  1  0  0  0
  7 50  1  0  0  0
  8  9  1  0  0  0
  9 10  2  0  0  0
  9 20  1  0  0  0
 11 12  1  0  0  0
 11 16  1  0  0  0
 11 20  1  0  0  0
 11 51  1  0  0  0
 12 13  1  0  0  0
 12 52  1  0  0  0
 12 53  1  0  0  0
 13 14  1  0  0  0
 13 15  1  0  0  0
 13 54  1  0  0  0
 14 55  1  0  0  0
 14 56  1  0  0  0
 14 57  1  0  0  0
 15 58  1  0  0  0
 15 59  1  0  0  0
 15 60  1  0  0  0
 16 17  1  0  0  0
 16 18  2  0  0  0
 17 21  1  0  0  0
 18 19  1  0  0  0
 19 21  2  0  0  0
 19 22  1  0  0  0
 20 61  1  0  0  0
 21 62  1  0  0  0
 22 23  1  0  0  0
 22 42  1  0  0  0
 22 63  1  0  0  0
 23 64  1  0  0  0
 24 25  2  0  0  0
 24 29  1  0  0  0
 24 65  1  0  0  0
 25 26  1  0  0  0
 25 66  1  0  0  0
 26 27  2  0  0  0
 26 67  1  0  0  0
 27 28  1  0  0  0
 27 30  1  0  0  0
 28 29  2  0  0  0
 28 68  1  0  0  0
 29 69  1  0  0  0
 30 31  1  0  0  0
 30 70  1  0  0  0
 30 71  1  0  0  0
 31 32  1  0  0  0
 32 33  2  0  0  0
 32 43  1  0  0  0
 34 35  1  0  0  0
 34 39  1  0  0  0
 34 43  1  0  0  0
 34 72  1  0  0  0
 35 36  1  0  0  0
 35 73  1  0  0  0
 35 74  1  0  0  0
 36 37  1  0  0  0
 36 38  1  0  0  0
 36 75  1  0  0  0
 37 76  1  0  0  0
 37 77  1  0  0  0
 37 78  1  0  0  0
 38 79  1  0  0  0
 38 80  1  0  0  0
 38 81  1  0  0  0
 39 40  2  0  0  0
 39 41  1  0  0  0
 41 42  1  0  0  0
 41 82  1  0  0  0
 42 83  1  0  0  0
 43 84  1  0  0  0
M  END
> <s_m_source_file>
../1ayv_ligand.sdf

> <i_m_source_file_index>
1

> <s_epik_input>
W2NIXTFbY0hdW2NIXVtjSF1bY0hdYzFbQ0gyXU9DKD1PKVtOSF1bQ0BASF0oW0NIMl1bQ0hdKFtDSDNdKVtDSDNdKWMyc1tjSF1jKG4yKVtDQEhdKFtPSF0pW05IMitdW05IXUMoPU8pW0NASF0oW0NIMl1bQ0hdKFtDSDNdKVtDSDNdKVtOSF1DKD1PKU9bQ0gyXWMzW2NIXVtjSF1bY0hdW2NIXVtjSF0z

> <s_epik_cmdline>
J2VwaWtfYXBwJywgJy1pbWFlJywgJ2xpZ2FuZF9wcm8ubWFlJywgJy1vbWFlJywgJ2xpZ2FuZF9wcmVwLm1hZScsICctbXMnLCAnMScsICctcGgnLCAnNycsICctcGh0JywgJzAuNScsICctbnQn

> <r_lp_tautomer_probability>
1

> <r_epik_Ionization_Penalty>
  0.0001

> <r_epik_Ionization_Penalty_Charging>
  0.0000

> <r_epik_Ionization_Penalty_Neutral>
  0.0001

> <r_epik_State_Penalty>
 -0.0000

> <r_epik_Charging_Adjusted_Penalty>
0

> <i_epik_Tot_Q>
0

> <i_epik_Tot_abs_Q>
0

> <s_epik_Chemistry_Notes>
This compound has an ester and may undergo hydrolysis at high or low pH. This compound contains an acetal/aminal-like group ( X-CH(R)-Y where X, Y are N, S, or O) that may be acid/base labile, releasing an aldehyde.

$$$$
