1aze_ligand
                    3D
 Schrodinger Suite 2020-3.
175179  0  0  1  0            999 V2000
   -8.2450  -17.4670    4.6460 N   0  3  0  0  0  0
   -8.5770  -16.0670    4.9970 C   0  0  2  0  0  0
   -7.8090  -15.0810    4.0930 C   0  0  0  0  0  0
   -6.5860  -15.1910    4.0010 O   0  0  0  0  0  0
   -8.3300  -15.7940    6.4980 C   0  0  0  0  0  0
   -8.5050  -14.3130    6.8840 C   0  0  0  0  0  0
   -9.2920  -16.6310    7.3580 C   0  0  0  0  0  0
   -8.4930  -14.1370    3.4140 N   0  0  0  0  0  0
   -7.8730  -13.2060    2.4740 C   0  0  2  0  0  0
   -7.1450  -12.0590    3.2060 C   0  0  0  0  0  0
   -7.4680  -11.7630    4.3580 O   0  0  0  0  0  0
   -9.0370  -12.6850    1.6190 C   0  0  0  0  0  0
  -10.2080  -12.6870    2.6010 C   0  0  0  0  0  0
   -9.9340  -13.9180    3.4690 C   0  0  0  0  0  0
   -6.1730  -11.3940    2.5500 N   0  0  0  0  0  0
   -5.4400  -10.2600    3.1090 C   0  0  2  0  0  0
   -6.3870   -9.0520    3.2720 C   0  0  0  0  0  0
   -6.9620   -8.6030    2.2800 O   0  0  0  0  0  0
   -4.3010   -9.9800    2.1170 C   0  0  0  0  0  0
   -4.8530  -10.4880    0.7840 C   0  0  0  0  0  0
   -5.7160  -11.6810    1.1970 C   0  0  0  0  0  0
   -6.5930   -8.5340    4.5010 N   0  0  0  0  0  0
   -7.5870   -7.5020    4.7820 C   0  0  2  0  0  0
   -7.0930   -6.0990    4.3860 C   0  0  0  0  0  0
   -5.8930   -5.8220    4.4010 O   0  0  0  0  0  0
   -7.8430   -7.6000    6.2910 C   0  0  0  0  0  0
   -6.4790   -8.0290    6.8320 C   0  0  0  0  0  0
   -5.9660   -8.9740    5.7420 C   0  0  0  0  0  0
   -8.0450   -5.2110    4.0620 N   0  0  0  0  0  0
   -7.8260   -3.7940    3.7750 C   0  0  2  0  0  0
   -8.2920   -2.9850    5.0040 C   0  0  0  0  0  0
   -9.4910   -2.9760    5.2880 O   0  0  0  0  0  0
   -8.6100   -3.4030    2.4990 C   0  0  0  0  0  0
   -8.4730   -1.9020    2.1990 C   0  0  0  0  0  0
   -8.1150   -4.1940    1.2750 C   0  0  0  0  0  0
   -7.3920   -2.2870    5.7290 N   0  0  0  0  0  0
   -7.7460   -1.4450    6.8750 C   0  0  2  0  0  0
   -8.6920   -0.2810    6.5110 C   0  0  0  0  0  0
   -8.7330    0.1310    5.3520 O   0  0  0  0  0  0
   -6.4100   -0.9080    7.4120 C   0  0  0  0  0  0
   -5.3850   -1.9370    6.9470 C   0  0  0  0  0  0
   -5.9440   -2.3580    5.5900 C   0  0  0  0  0  0
   -9.4230    0.2980    7.4830 N   0  0  0  0  0  0
  -10.2370    1.4940    7.2700 C   0  0  2  0  0  0
   -9.3400    2.7240    7.0370 C   0  0  0  0  0  0
   -8.3090    2.8770    7.6940 O   0  0  0  0  0  0
  -11.0850    1.6340    8.5410 C   0  0  0  0  0  0
  -10.1930    1.0170    9.6200 C   0  0  0  0  0  0
   -9.4920   -0.1230    8.8760 C   0  0  0  0  0  0
   -9.7230    3.5950    6.0900 N   0  0  0  0  0  0
   -8.9500    4.7830    5.7080 C   0  0  2  0  0  0
   -8.7890    5.8070    6.8450 C   0  0  0  0  0  0
   -7.7730    6.5000    6.8830 O   0  0  0  0  0  0
   -9.5430    5.4450    4.4520 C   0  0  0  0  0  0
   -9.5620    4.4880    3.2460 C   0  0  0  0  0  0
   -9.4060    5.2400    1.9190 C   0  0  0  0  0  0
  -10.4820    6.2160    1.6830 N   0  0  0  0  0  0
  -10.4810    7.1590    0.7230 C   0  0  0  0  0  0
   -9.4370    7.3270   -0.0940 N   0  0  0  0  0  0
  -11.5440    7.9540    0.5730 N   0  0  0  0  0  0
   -9.7740    5.8910    7.7560 N   0  0  0  0  0  0
   -9.7880    6.7320    8.9570 C   0  0  2  0  0  0
  -10.2530    8.1610    8.6310 C   0  0  0  0  0  0
   -9.7400    8.7860    7.7030 O   0  0  0  0  0  0
   -8.4200    6.7220    9.6690 C   0  0  0  0  0  0
   -8.4980    7.1230   11.1510 C   0  0  0  0  0  0
   -7.0990    7.2890   11.7700 C   0  0  0  0  0  0
   -6.2570    6.0900   11.5830 N   0  0  0  0  0  0
   -5.3750    5.8670   10.5910 C   0  0  0  0  0  0
   -5.0990    6.7900    9.6620 N   0  0  0  0  0  0
   -4.7540    4.6880   10.5160 N   0  0  0  0  0  0
  -11.2180    8.6780    9.4060 N   0  0  0  0  0  0
  -11.7100   10.0540    9.3060 C   0  0  2  0  0  0
  -10.7200   11.0650    9.9140 C   0  0  0  0  0  0
  -10.6750   12.1990    9.3890 O   0  0  0  0  0  0
  -13.1120   10.1680    9.9350 C   0  0  0  0  0  0
  -13.1390    9.9270   11.4560 C   0  0  0  0  0  0
  -14.5590   10.0520   12.0320 C   0  0  0  0  0  0
  -15.4850    9.0530   11.4680 N   0  0  0  0  0  0
  -15.5340    7.7450   11.7760 C   0  0  0  0  0  0
  -14.7130    7.2090   12.6860 N   0  0  0  0  0  0
  -16.4220    6.9580   11.1610 N   0  0  0  0  0  0
  -10.0390   10.7030   10.9010 O   0  0  0  0  0  0
   -8.4307  -17.6302    3.5741 H   0  0  0  0  0  0
   -8.8729  -18.1515    5.2353 H   0  0  0  0  0  0
   -7.1849  -17.6591    4.8679 H   0  0  0  0  0  0
   -9.6534  -15.9543    4.8004 H   0  0  0  0  0  0
   -7.2839  -16.0744    6.6907 H   0  0  0  0  0  0
   -7.8252  -13.6939    6.2802 H   0  0  0  0  0  0
   -8.2703  -14.1819    7.9506 H   0  0  0  0  0  0
   -9.5445  -14.0057    6.6968 H   0  0  0  0  0  0
   -9.1843  -17.6946    7.0990 H   0  0  0  0  0  0
  -10.3270  -16.3104    7.1681 H   0  0  0  0  0  0
   -9.0527  -16.4866    8.4219 H   0  0  0  0  0  0
   -7.1113  -13.7376    1.8847 H   0  0  0  0  0  0
   -8.7970  -11.6778    1.2476 H   0  0  0  0  0  0
   -9.1974  -13.3616    0.7666 H   0  0  0  0  0  0
  -10.2015  -11.7525    3.1813 H   0  0  0  0  0  0
  -11.1534  -12.7662    2.0442 H   0  0  0  0  0  0
  -10.4548  -14.8041    3.0771 H   0  0  0  0  0  0
  -10.2390  -13.7447    4.5116 H   0  0  0  0  0  0
   -5.0513  -10.5143    4.1061 H   0  0  0  0  0  0
   -4.0888   -8.9008    2.0975 H   0  0  0  0  0  0
   -3.3989  -10.5255    2.4310 H   0  0  0  0  0  0
   -5.4383   -9.6911    0.3019 H   0  0  0  0  0  0
   -4.0188  -10.7780    0.1283 H   0  0  0  0  0  0
   -5.1324  -12.6134    1.1972 H   0  0  0  0  0  0
   -6.5853  -11.7926    0.5323 H   0  0  0  0  0  0
   -8.4836   -7.7007    4.1765 H   0  0  0  0  0  0
   -8.1642   -6.6197    6.6728 H   0  0  0  0  0  0
   -8.6307   -8.3438    6.4818 H   0  0  0  0  0  0
   -5.8405   -7.1426    6.9612 H   0  0  0  0  0  0
   -6.6105   -8.5306    7.8021 H   0  0  0  0  0  0
   -6.2551  -10.0148    5.9499 H   0  0  0  0  0  0
   -4.8723   -8.9101    5.6430 H   0  0  0  0  0  0
   -9.0613   -5.6298    4.0209 H   0  0  0  0  0  0
   -6.7517   -3.6353    3.5995 H   0  0  0  0  0  0
   -9.6678   -3.6413    2.6843 H   0  0  0  0  0  0
   -8.8231   -1.3215    3.0653 H   0  0  0  0  0  0
   -9.0798   -1.6474    1.3175 H   0  0  0  0  0  0
   -7.4180   -1.6628    1.9995 H   0  0  0  0  0  0
   -8.2065   -5.2720    1.4736 H   0  0  0  0  0  0
   -7.0615   -3.9453    1.0793 H   0  0  0  0  0  0
   -8.7233   -3.9299    0.3973 H   0  0  0  0  0  0
   -8.2930   -2.0766    7.5904 H   0  0  0  0  0  0
   -6.2184    0.0887    6.9879 H   0  0  0  0  0  0
   -6.4576   -0.8368    8.5087 H   0  0  0  0  0  0
   -4.3954   -1.4622    6.8753 H   0  0  0  0  0  0
   -5.3428   -2.7651    7.6698 H   0  0  0  0  0  0
   -5.6501   -3.3870    5.3353 H   0  0  0  0  0  0
   -5.6184   -1.6754    4.7912 H   0  0  0  0  0  0
  -10.8576    1.3689    6.3704 H   0  0  0  0  0  0
  -11.2969    2.6976    8.7251 H   0  0  0  0  0  0
  -12.0315    1.0885    8.4122 H   0  0  0  0  0  0
   -9.4886    1.7758    9.9915 H   0  0  0  0  0  0
  -10.8177    0.6584   10.4514 H   0  0  0  0  0  0
  -10.0649   -1.0592    8.9481 H   0  0  0  0  0  0
   -8.4744   -0.2853    9.2609 H   0  0  0  0  0  0
  -10.6780    3.3760    5.5899 H   0  0  0  0  0  0
   -7.9535    4.3712    5.4905 H   0  0  0  0  0  0
  -10.5774    5.7585    4.6564 H   0  0  0  0  0  0
   -8.9400    6.3244    4.1816 H   0  0  0  0  0  0
   -8.7338    3.7696    3.3349 H   0  0  0  0  0  0
  -10.5181    3.9444    3.2242 H   0  0  0  0  0  0
   -8.4517    5.7871    1.9176 H   0  0  0  0  0  0
   -9.4177    4.5211    1.0865 H   0  0  0  0  0  0
  -11.3790    6.2104    2.3197 H   0  0  0  0  0  0
   -8.5494    6.6854    0.0087 H   0  0  0  0  0  0
   -9.4652    8.1069   -0.8692 H   0  0  0  0  0  0
  -12.4163    7.8362    1.2327 H   0  0  0  0  0  0
  -10.6328    5.2422    7.5288 H   0  0  0  0  0  0
  -10.5318    6.2632    9.6181 H   0  0  0  0  0  0
   -7.9904    5.7104    9.6235 H   0  0  0  0  0  0
   -7.7422    7.4310    9.1710 H   0  0  0  0  0  0
   -9.0336    8.0793   11.2444 H   0  0  0  0  0  0
   -9.0354    6.3453   11.7135 H   0  0  0  0  0  0
   -6.5879    8.1410   11.2978 H   0  0  0  0  0  0
   -7.1954    7.4722   12.8503 H   0  0  0  0  0  0
   -6.3160    5.2590   12.3013 H   0  0  0  0  0  0
   -5.5949    7.7713    9.6973 H   0  0  0  0  0  0
   -4.3763    6.5674    8.8632 H   0  0  0  0  0  0
   -4.9600    3.9092   11.2650 H   0  0  0  0  0  0
  -11.6447    7.9944   10.1547 H   0  0  0  0  0  0
  -11.7746   10.2566    8.2268 H   0  0  0  0  0  0
  -13.5115   11.1778    9.7597 H   0  0  0  0  0  0
  -13.7809    9.4244    9.4771 H   0  0  0  0  0  0
  -12.7673    8.9148   11.6735 H   0  0  0  0  0  0
  -12.4983   10.6682   11.9561 H   0  0  0  0  0  0
  -14.5266    9.9074   13.1220 H   0  0  0  0  0  0
  -14.9595   11.0514   11.8065 H   0  0  0  0  0  0
  -16.2295    9.3555   10.7169 H   0  0  0  0  0  0
  -13.9759    7.8417   13.2021 H   0  0  0  0  0  0
  -14.7750    6.1356   12.9182 H   0  0  0  0  0  0
  -17.1050    7.3816   10.4100 H   0  0  0  0  0  0
   -9.3223   11.3998   11.3601 H   0  0  0  0  0  0
  1  2  1  0  0  0
  1 84  1  0  0  0
  1 85  1  0  0  0
  1 86  1  0  0  0
  2  3  1  0  0  0
  2  5  1  0  0  0
  2 87  1  0  0  0
  3  4  2  0  0  0
  3  8  1  0  0  0
  5  6  1  0  0  0
  5  7  1  0  0  0
  5 88  1  0  0  0
  6 89  1  0  0  0
  6 90  1  0  0  0
  6 91  1  0  0  0
  7 92  1  0  0  0
  7 93  1  0  0  0
  7 94  1  0  0  0
  8  9  1  0  0  0
  8 14  1  0  0  0
  9 10  1  0  0  0
  9 12  1  0  0  0
  9 95  1  0  0  0
 10 11  2  0  0  0
 10 15  1  0  0  0
 12 13  1  0  0  0
 12 96  1  0  0  0
 12 97  1  0  0  0
 13 14  1  0  0  0
 13 98  1  0  0  0
 13 99  1  0  0  0
 14100  1  0  0  0
 14101  1  0  0  0
 15 16  1  0  0  0
 15 21  1  0  0  0
 16 17  1  0  0  0
 16 19  1  0  0  0
 16102  1  0  0  0
 17 18  2  0  0  0
 17 22  1  0  0  0
 19 20  1  0  0  0
 19103  1  0  0  0
 19104  1  0  0  0
 20 21  1  0  0  0
 20105  1  0  0  0
 20106  1  0  0  0
 21107  1  0  0  0
 21108  1  0  0  0
 22 23  1  0  0  0
 22 28  1  0  0  0
 23 24  1  0  0  0
 23 26  1  0  0  0
 23109  1  0  0  0
 24 25  2  0  0  0
 24 29  1  0  0  0
 26 27  1  0  0  0
 26110  1  0  0  0
 26111  1  0  0  0
 27 28  1  0  0  0
 27112  1  0  0  0
 27113  1  0  0  0
 28114  1  0  0  0
 28115  1  0  0  0
 29 30  1  0  0  0
 29116  1  0  0  0
 30 31  1  0  0  0
 30 33  1  0  0  0
 30117  1  0  0  0
 31 32  2  0  0  0
 31 36  1  0  0  0
 33 34  1  0  0  0
 33 35  1  0  0  0
 33118  1  0  0  0
 34119  1  0  0  0
 34120  1  0  0  0
 34121  1  0  0  0
 35122  1  0  0  0
 35123  1  0  0  0
 35124  1  0  0  0
 36 37  1  0  0  0
 36 42  1  0  0  0
 37 38  1  0  0  0
 37 40  1  0  0  0
 37125  1  0  0  0
 38 39  2  0  0  0
 38 43  1  0  0  0
 40 41  1  0  0  0
 40126  1  0  0  0
 40127  1  0  0  0
 41 42  1  0  0  0
 41128  1  0  0  0
 41129  1  0  0  0
 42130  1  0  0  0
 42131  1  0  0  0
 43 44  1  0  0  0
 43 49  1  0  0  0
 44 45  1  0  0  0
 44 47  1  0  0  0
 44132  1  0  0  0
 45 46  2  0  0  0
 45 50  1  0  0  0
 47 48  1  0  0  0
 47133  1  0  0  0
 47134  1  0  0  0
 48 49  1  0  0  0
 48135  1  0  0  0
 48136  1  0  0  0
 49137  1  0  0  0
 49138  1  0  0  0
 50 51  1  0  0  0
 50139  1  0  0  0
 51 52  1  0  0  0
 51 54  1  0  0  0
 51140  1  0  0  0
 52 53  2  0  0  0
 52 61  1  0  0  0
 54 55  1  0  0  0
 54141  1  0  0  0
 54142  1  0  0  0
 55 56  1  0  0  0
 55143  1  0  0  0
 55144  1  0  0  0
 56 57  1  0  0  0
 56145  1  0  0  0
 56146  1  0  0  0
 57 58  1  0  0  0
 57147  1  0  0  0
 58 59  1  0  0  0
 58 60  2  0  0  0
 59148  1  0  0  0
 59149  1  0  0  0
 60150  1  0  0  0
 61 62  1  0  0  0
 61151  1  0  0  0
 62 63  1  0  0  0
 62 65  1  0  0  0
 62152  1  0  0  0
 63 64  2  0  0  0
 63 72  1  0  0  0
 65 66  1  0  0  0
 65153  1  0  0  0
 65154  1  0  0  0
 66 67  1  0  0  0
 66155  1  0  0  0
 66156  1  0  0  0
 67 68  1  0  0  0
 67157  1  0  0  0
 67158  1  0  0  0
 68 69  1  0  0  0
 68159  1  0  0  0
 69 70  1  0  0  0
 69 71  2  0  0  0
 70160  1  0  0  0
 70161  1  0  0  0
 71162  1  0  0  0
 72 73  1  0  0  0
 72163  1  0  0  0
 73 74  1  0  0  0
 73 76  1  0  0  0
 73164  1  0  0  0
 74 75  2  0  0  0
 74 83  1  0  0  0
 76 77  1  0  0  0
 76165  1  0  0  0
 76166  1  0  0  0
 77 78  1  0  0  0
 77167  1  0  0  0
 77168  1  0  0  0
 78 79  1  0  0  0
 78169  1  0  0  0
 78170  1  0  0  0
 79 80  1  0  0  0
 79171  1  0  0  0
 80 81  1  0  0  0
 80 82  2  0  0  0
 81172  1  0  0  0
 81173  1  0  0  0
 82174  1  0  0  0
 83175  1  0  0  0
M  CHG  1   1   1
M  END
> <s_m_source_file>
../1aze_ligand.sdf

> <i_m_source_file_index>
1

> <s_epik_input>
W0NIM11bQ0hdKFtDSDNdKVtDQEhdKFtOSDMrXSlDKD1PKU4xW0NAQEhdKFtDSDJdW0NIMl1bQ0gyXTEpQyg9TylOMltDQEBIXShbQ0gyXVtDSDJdW0NIMl0yKUMoPU8pTjNbQ0BASF0oW0NIMl1bQ0gyXVtDSDJdMylDKD1PKVtOSF1bQ0BASF0oW0NIXShbQ0gzXSlbQ0gzXSlDKD1PKU40W0NAQEhdKFtDSDJdW0NIMl1bQ0gyXTQpQyg9TylONVtDQEBIXShbQ0gyXVtDSDJdW0NIMl01KUMoPU8pW05IXVtDQEBIXShbQ0gyXVtDSDJdW0NIMl1bTkhdL0MoW05IMl0pPU5cW0hdKUMoPU8pW05IXVtDQEBIXShbQ0gyXVtDSDJdW0NIMl1bTkhdL0MoW05IMl0pPU5cW0hdKUMoPU8pW05IXVtDQEhdKEMoPU8pW09IXSlbQ0gyXVtDSDJdW0NIMl1bTkhdL0MoW05IMl0pPU5cW0hd

> <s_epik_cmdline>
J2VwaWtfYXBwJywgJy1pbWFlJywgJ2xpZ2FuZF9wcm8ubWFlJywgJy1vbWFlJywgJ2xpZ2FuZF9wcmVwLm1hZScsICctbXMnLCAnMScsICctcGgnLCAnNycsICctcGh0JywgJzAuNScsICctbnQn

> <s_epik_pKa_notes>
Molecule size exceeds maximum supported for generating protonation states

> <s_epik_Chemistry_Notes>
This compound has an imine and may undergo hydrolysis.

$$$$
