1azg_ligand
                    3D
 Schrodinger Suite 2020-3.
207211  0  0  1  0            999 V2000
   26.4200   31.7670   11.4910 N   0  3  0  0  0  0
   27.7770   31.1400   11.4220 C   0  0  2  0  0  0
   27.6430   29.6630   11.0400 C   0  0  0  0  0  0
   26.5560   29.1200   11.0350 O   0  0  0  0  0  0
   28.4310   31.2610   12.7980 C   0  0  0  0  0  0
   27.4420   31.9770   13.7080 C   0  0  0  0  0  0
   26.2000   32.2920   12.8740 C   0  0  0  0  0  0
   28.7620   29.0610   10.7330 N   0  0  0  0  0  0
   28.8120   27.6410   10.3410 C   0  0  2  0  0  0
   28.3040   26.7600   11.4860 C   0  0  0  0  0  0
   28.8870   26.7140   12.5510 O   0  0  0  0  0  0
   30.2960   27.3640   10.0640 C   0  0  0  0  0  0
   31.0770   28.6800   10.3170 C   0  0  0  0  0  0
   30.0630   29.7500   10.7500 C   0  0  0  0  0  0
   27.2210   26.0610   11.2760 N   0  0  0  0  0  0
   26.6790   25.1870   12.3530 C   0  0  2  0  0  0
   27.8250   24.4090   13.0060 C   0  0  0  0  0  0
   28.6770   23.8750   12.3240 O   0  0  0  0  0  0
   25.6740   24.2010   11.7530 C   0  0  0  0  0  0
   24.3990   24.9460   11.3510 C   0  0  0  0  0  0
   23.9360   25.8310   12.5090 C   0  0  0  0  0  0
   24.5310   27.1890   12.3630 N   0  0  0  0  0  0
   24.8950   27.8590   13.4220 C   0  0  0  0  0  0
   23.9960   28.2830   14.2680 N   0  0  0  0  0  0
   26.1590   28.1050   13.6370 N   0  0  0  0  0  0
   27.8080   24.3680   14.3130 N   0  0  0  0  0  0
   28.8390   23.6580   15.0900 C   0  0  2  0  0  0
   28.8230   22.1660   14.7480 C   0  0  0  0  0  0
   29.7830   21.6270   14.2320 O   0  0  0  0  0  0
   28.4460   23.8780   16.5580 C   0  0  0  0  0  0
   27.1560   24.7380   16.5760 C   0  0  0  0  0  0
   26.7650   25.0250   15.1180 C   0  0  0  0  0  0
   27.7400   21.4950   15.0300 N   0  0  0  0  0  0
   27.6640   20.0400   14.7200 C   0  0  2  0  0  0
   28.6460   19.2770   15.6160 C   0  0  0  0  0  0
   29.8250   19.2150   15.3280 O   0  0  0  0  0  0
   28.0310   19.8140   13.2510 C   0  0  0  0  0  0
   26.8110   19.2860   12.4950 C   0  0  0  0  0  0
   26.9960   19.5260   10.9950 C   0  0  0  0  0  0
   26.6620   17.7850   12.7560 C   0  0  0  0  0  0
   28.1260   18.7190   16.6790 N   0  0  0  0  0  0
   28.9360   17.9510   17.6410 C   0  0  2  0  0  0
   29.5770   16.7460   16.9490 C   0  0  0  0  0  0
   28.9560   15.7170   16.7710 O   0  0  0  0  0  0
   27.9390   17.4900   18.7140 C   0  0  0  0  0  0
   26.5390   18.0260   18.3180 C   0  0  0  0  0  0
   26.6920   18.8090   17.0040 C   0  0  0  0  0  0
   30.8150   16.8650   16.5550 N   0  0  0  0  0  0
   31.4930   15.7270   15.8740 C   0  0  2  0  0  0
   31.1880   14.4280   16.6220 C   0  0  0  0  0  0
   31.4280   14.3120   17.8070 O   0  0  0  0  0  0
   33.0030   15.9650   15.8620 C   0  0  0  0  0  0
   33.7120   14.7120   15.3460 C   0  0  0  0  0  0
   33.3260   17.1470   14.9450 C   0  0  0  0  0  0
   30.6630   13.4490   15.9380 N   0  0  0  0  0  0
   30.3460   12.1570   16.6090 C   0  0  2  0  0  0
   31.5460   11.7120   17.4500 C   0  0  0  0  0  0
   32.5970   12.3190   17.3970 O   0  0  0  0  0  0
   30.0410   11.0960   15.5490 C   0  0  0  0  0  0
   31.3480   10.6630   18.2040 N   0  0  0  0  0  0
   32.3990   10.1080   19.0760 C   0  0  2  0  0  0
   33.6050    9.6620   18.2440 C   0  0  0  0  0  0
   33.7450    8.5020   17.9090 O   0  0  0  0  0  0
   31.7420    8.9020   19.7620 C   0  0  0  0  0  0
   30.2850    8.8000   19.2430 C   0  0  0  0  0  0
   30.0610    9.9480   18.2470 C   0  0  0  0  0  0
   34.4790   10.5730   17.9130 N   0  0  0  0  0  0
   35.6780   10.2020   17.1080 C   0  0  0  0  0  0
   35.2760    9.2240   16.0030 C   0  0  0  0  0  0
   34.1210    9.1210   15.6410 O   0  0  0  0  0  0
   36.2220    8.5050   15.4630 N   0  0  0  0  0  0
   35.8970    7.5330   14.3820 C   0  0  2  0  0  0
   35.3500    6.2450   15.0000 C   0  0  0  0  0  0
   36.0280    5.2380   15.0610 O   0  0  0  0  0  0
   37.1620    7.2170   13.5850 C   0  0  0  0  0  0
   37.4760    8.3200   12.7450 O   0  0  0  0  0  0
   34.1290    6.2660   15.4580 N   0  0  0  0  0  0
   33.5440    5.0410   16.0710 C   0  0  2  0  0  0
   34.5250    4.4660   17.0930 C   0  0  0  0  0  0
   34.9810    3.3460   16.9700 O   0  0  0  0  0  0
   33.2780    4.0030   14.9800 C   0  0  0  0  0  0
   34.2550    4.1370   13.9560 O   0  0  0  0  0  0
   34.8550    5.2240   18.1020 N   0  0  0  0  0  0
   35.8070    4.7220   19.1320 C   0  0  2  0  0  0
   35.0250    4.1910   20.3350 C   0  0  0  0  0  0
   34.1570    4.8560   20.8650 O   0  0  0  0  0  0
   36.7200    5.8650   19.5820 C   0  0  0  0  0  0
   37.0180    6.7780   18.3910 C   0  0  0  0  0  0
   38.5130    7.0990   18.3540 C   0  0  0  0  0  0
   38.9840    7.1710   16.9000 C   0  0  0  0  0  0
   40.4060    6.7330   16.8170 N   0  3  0  0  0  0
   35.3230    2.9970   20.7690 N   0  0  0  0  0  0
   34.5950    2.4260   21.9360 C   0  0  2  0  0  0
   33.1200    2.2450   21.5740 C   0  0  0  0  0  0
   32.2900    2.8480   22.2340 O   0  0  0  0  0  0
   34.7150    3.3790   23.1270 C   0  0  2  0  0  0
   36.0310    3.9120   23.1760 O   0  0  0  0  0  0
   34.4220    2.6200   24.4220 C   0  0  0  0  0  0
   32.8450    1.5080   20.6410 O   0  0  0  0  0  0
   26.3599   32.5919   10.7658 H   0  0  0  0  0  0
   25.6552   31.0131   11.2530 H   0  0  0  0  0  0
   28.3761   31.6618   10.6612 H   0  0  0  0  0  0
   28.6560   30.2568   13.1866 H   0  0  0  0  0  0
   29.3635   31.8380   12.7113 H   0  0  0  0  0  0
   27.1827   31.3234   14.5539 H   0  0  0  0  0  0
   27.8971   32.9040   14.0869 H   0  0  0  0  0  0
   26.0387   33.3793   12.8321 H   0  0  0  0  0  0
   25.3162   31.8069   13.3141 H   0  0  0  0  0  0
   28.1695   27.4592    9.4668 H   0  0  0  0  0  0
   30.6532   26.5717   10.7383 H   0  0  0  0  0  0
   30.4200   27.0404    9.0200 H   0  0  0  0  0  0
   31.8227   28.5173   11.1091 H   0  0  0  0  0  0
   31.5861   28.9879    9.3918 H   0  0  0  0  0  0
   30.0385   30.5970   10.0486 H   0  0  0  0  0  0
   30.2685   30.1204   11.7652 H   0  0  0  0  0  0
   26.7092   26.1177   10.3040 H   0  0  0  0  0  0
   26.1844   25.8315   13.0946 H   0  0  0  0  0  0
   26.1137   23.7244   10.8645 H   0  0  0  0  0  0
   25.4269   23.4304   12.4980 H   0  0  0  0  0  0
   24.6029   25.5729   10.4704 H   0  0  0  0  0  0
   23.6103   24.2186   11.1086 H   0  0  0  0  0  0
   22.8387   25.9075   12.4960 H   0  0  0  0  0  0
   24.2614   25.3881   13.4619 H   0  0  0  0  0  0
   24.6634   27.6268   11.3626 H   0  0  0  0  0  0
   22.9307   28.0764   14.0880 H   0  0  0  0  0  0
   26.9176   27.7482   12.9248 H   0  0  0  0  0  0
   26.4654   28.6690   14.5303 H   0  0  0  0  0  0
   29.8386   24.0481   14.8477 H   0  0  0  0  0  0
   28.2644   22.9054   17.0387 H   0  0  0  0  0  0
   29.2609   24.3993   17.0816 H   0  0  0  0  0  0
   26.3534   24.1844   17.0853 H   0  0  0  0  0  0
   27.3499   25.6787   17.1122 H   0  0  0  0  0  0
   26.7600   26.1035   14.9019 H   0  0  0  0  0  0
   25.7836   24.5962   14.8670 H   0  0  0  0  0  0
   26.8833   22.0034   15.4965 H   0  0  0  0  0  0
   26.6342   19.7032   14.9101 H   0  0  0  0  0  0
   28.3557   20.7651   12.8037 H   0  0  0  0  0  0
   28.8480   19.0804   13.1858 H   0  0  0  0  0  0
   25.9094   19.8122   12.8417 H   0  0  0  0  0  0
   27.1031   20.6045   10.8067 H   0  0  0  0  0  0
   26.1190   19.1443   10.4517 H   0  0  0  0  0  0
   27.8988   19.0018   10.6484 H   0  0  0  0  0  0
   26.5290   17.6117   13.8341 H   0  0  0  0  0  0
   27.5649   17.2611   12.4091 H   0  0  0  0  0  0
   25.7851   17.4036   12.2124 H   0  0  0  0  0  0
   29.7466   18.5753   18.0449 H   0  0  0  0  0  0
   27.9295   16.3909   18.7577 H   0  0  0  0  0  0
   28.2404   17.8932   19.6920 H   0  0  0  0  0  0
   25.8481   17.1810   18.1813 H   0  0  0  0  0  0
   26.1600   18.6845   19.1135 H   0  0  0  0  0  0
   26.4086   19.8652   17.1228 H   0  0  0  0  0  0
   26.1028   18.3605   16.1905 H   0  0  0  0  0  0
   31.3581   17.8062   16.7259 H   0  0  0  0  0  0
   31.1101   15.6710   14.8443 H   0  0  0  0  0  0
   33.3465   16.1870   16.8831 H   0  0  0  0  0  0
   33.4802   13.8621   16.0047 H   0  0  0  0  0  0
   34.7986   14.8831   15.3368 H   0  0  0  0  0  0
   33.3671   14.4896   14.3254 H   0  0  0  0  0  0
   32.8163   18.0486   15.3156 H   0  0  0  0  0  0
   32.9812   16.9242   13.9245 H   0  0  0  0  0  0
   34.4126   17.3177   14.9358 H   0  0  0  0  0  0
   30.4544   13.5775   14.8656 H   0  0  0  0  0  0
   29.4682   12.3120   17.2536 H   0  0  0  0  0  0
   29.1789   11.4173   14.9460 H   0  0  0  0  0  0
   29.8077   10.1411   16.0426 H   0  0  0  0  0  0
   30.9172   10.9671   14.8966 H   0  0  0  0  0  0
   32.7488   10.8724   19.7854 H   0  0  0  0  0  0
   32.3016    7.9885   19.5124 H   0  0  0  0  0  0
   31.7501    9.0507   20.8519 H   0  0  0  0  0  0
   30.1399    7.8294   18.7462 H   0  0  0  0  0  0
   29.5874    8.8867   20.0891 H   0  0  0  0  0  0
   29.2713   10.6345   18.5862 H   0  0  0  0  0  0
   29.8153    9.5745   17.2420 H   0  0  0  0  0  0
   34.3299   11.6160   18.2290 H   0  0  0  0  0  0
   36.1094   11.1066   16.6545 H   0  0  0  0  0  0
   36.4252    9.7270   17.7607 H   0  0  0  0  0  0
   37.2606    8.6177   15.8073 H   0  0  0  0  0  0
   35.1406    7.9913   13.7279 H   0  0  0  0  0  0
   37.9959    7.0332   14.2784 H   0  0  0  0  0  0
   36.9932    6.3214   12.9690 H   0  0  0  0  0  0
   38.3593    8.2791   12.0907 H   0  0  0  0  0  0
   33.5313    7.1871   15.3919 H   0  0  0  0  0  0
   32.6022    5.3221   16.5651 H   0  0  0  0  0  0
   33.3343    2.9934   15.4130 H   0  0  0  0  0  0
   32.2758    4.1649   14.5564 H   0  0  0  0  0  0
   34.2283    3.4723   13.0799 H   0  0  0  0  0  0
   34.4298    6.2345   18.1920 H   0  0  0  0  0  0
   36.4021    3.9146   18.6804 H   0  0  0  0  0  0
   36.2200    6.4442   20.3722 H   0  0  0  0  0  0
   37.6617    5.4506   19.9712 H   0  0  0  0  0  0
   36.7294    6.2705   17.4587 H   0  0  0  0  0  0
   36.4455    7.7118   18.4925 H   0  0  0  0  0  0
   38.6925    8.0665   18.8457 H   0  0  0  0  0  0
   39.0705    6.3108   18.8812 H   0  0  0  0  0  0
   38.3600    6.5112   16.2794 H   0  0  0  0  0  0
   38.8970    8.2058   16.5372 H   0  0  0  0  0  0
   40.7451    6.7846   15.7719 H   0  0  0  0  0  0
   40.4927    5.6982   17.1800 H   0  0  0  0  0  0
   41.0297    7.3929   17.4379 H   0  0  0  0  0  0
   36.1117    2.4123   20.2731 H   0  0  0  0  0  0
   35.0487    1.4542   22.1806 H   0  0  0  0  0  0
   34.0497    4.2477   23.0143 H   0  0  0  0  0  0
   36.4210    4.4932   22.3274 H   0  0  0  0  0  0
   33.4029    2.2078   24.3829 H   0  0  0  0  0  0
   34.5071    3.3070   25.2769 H   0  0  0  0  0  0
   35.1453    1.7993   24.5376 H   0  0  0  0  0  0
   31.7947    1.3543   20.3526 H   0  0  0  0  0  0
  1  2  1  0  0  0
  1  7  1  0  0  0
  1100  1  0  0  0
  1101  1  0  0  0
  2  3  1  0  0  0
  2  5  1  0  0  0
  2102  1  0  0  0
  3  4  2  0  0  0
  3  8  1  0  0  0
  5  6  1  0  0  0
  5103  1  0  0  0
  5104  1  0  0  0
  6  7  1  0  0  0
  6105  1  0  0  0
  6106  1  0  0  0
  7107  1  0  0  0
  7108  1  0  0  0
  8  9  1  0  0  0
  8 14  1  0  0  0
  9 10  1  0  0  0
  9 12  1  0  0  0
  9109  1  0  0  0
 10 11  2  0  0  0
 10 15  1  0  0  0
 12 13  1  0  0  0
 12110  1  0  0  0
 12111  1  0  0  0
 13 14  1  0  0  0
 13112  1  0  0  0
 13113  1  0  0  0
 14114  1  0  0  0
 14115  1  0  0  0
 15 16  1  0  0  0
 15116  1  0  0  0
 16 17  1  0  0  0
 16 19  1  0  0  0
 16117  1  0  0  0
 17 18  2  0  0  0
 17 26  1  0  0  0
 19 20  1  0  0  0
 19118  1  0  0  0
 19119  1  0  0  0
 20 21  1  0  0  0
 20120  1  0  0  0
 20121  1  0  0  0
 21 22  1  0  0  0
 21122  1  0  0  0
 21123  1  0  0  0
 22 23  1  0  0  0
 22124  1  0  0  0
 23 24  2  0  0  0
 23 25  1  0  0  0
 24125  1  0  0  0
 25126  1  0  0  0
 25127  1  0  0  0
 26 27  1  0  0  0
 26 32  1  0  0  0
 27 28  1  0  0  0
 27 30  1  0  0  0
 27128  1  0  0  0
 28 29  2  0  0  0
 28 33  1  0  0  0
 30 31  1  0  0  0
 30129  1  0  0  0
 30130  1  0  0  0
 31 32  1  0  0  0
 31131  1  0  0  0
 31132  1  0  0  0
 32133  1  0  0  0
 32134  1  0  0  0
 33 34  1  0  0  0
 33135  1  0  0  0
 34 35  1  0  0  0
 34 37  1  0  0  0
 34136  1  0  0  0
 35 36  2  0  0  0
 35 41  1  0  0  0
 37 38  1  0  0  0
 37137  1  0  0  0
 37138  1  0  0  0
 38 39  1  0  0  0
 38 40  1  0  0  0
 38139  1  0  0  0
 39140  1  0  0  0
 39141  1  0  0  0
 39142  1  0  0  0
 40143  1  0  0  0
 40144  1  0  0  0
 40145  1  0  0  0
 41 42  1  0  0  0
 41 47  1  0  0  0
 42 43  1  0  0  0
 42 45  1  0  0  0
 42146  1  0  0  0
 43 44  2  0  0  0
 43 48  1  0  0  0
 45 46  1  0  0  0
 45147  1  0  0  0
 45148  1  0  0  0
 46 47  1  0  0  0
 46149  1  0  0  0
 46150  1  0  0  0
 47151  1  0  0  0
 47152  1  0  0  0
 48 49  1  0  0  0
 48153  1  0  0  0
 49 50  1  0  0  0
 49 52  1  0  0  0
 49154  1  0  0  0
 50 51  2  0  0  0
 50 55  1  0  0  0
 52 53  1  0  0  0
 52 54  1  0  0  0
 52155  1  0  0  0
 53156  1  0  0  0
 53157  1  0  0  0
 53158  1  0  0  0
 54159  1  0  0  0
 54160  1  0  0  0
 54161  1  0  0  0
 55 56  1  0  0  0
 55162  1  0  0  0
 56 57  1  0  0  0
 56 59  1  0  0  0
 56163  1  0  0  0
 57 58  2  0  0  0
 57 60  1  0  0  0
 59164  1  0  0  0
 59165  1  0  0  0
 59166  1  0  0  0
 60 61  1  0  0  0
 60 66  1  0  0  0
 61 62  1  0  0  0
 61 64  1  0  0  0
 61167  1  0  0  0
 62 63  2  0  0  0
 62 67  1  0  0  0
 64 65  1  0  0  0
 64168  1  0  0  0
 64169  1  0  0  0
 65 66  1  0  0  0
 65170  1  0  0  0
 65171  1  0  0  0
 66172  1  0  0  0
 66173  1  0  0  0
 67 68  1  0  0  0
 67174  1  0  0  0
 68 69  1  0  0  0
 68175  1  0  0  0
 68176  1  0  0  0
 69 70  2  0  0  0
 69 71  1  0  0  0
 71 72  1  0  0  0
 71177  1  0  0  0
 72 73  1  0  0  0
 72 75  1  0  0  0
 72178  1  0  0  0
 73 74  2  0  0  0
 73 77  1  0  0  0
 75 76  1  0  0  0
 75179  1  0  0  0
 75180  1  0  0  0
 76181  1  0  0  0
 77 78  1  0  0  0
 77182  1  0  0  0
 78 79  1  0  0  0
 78 81  1  0  0  0
 78183  1  0  0  0
 79 80  2  0  0  0
 79 83  1  0  0  0
 81 82  1  0  0  0
 81184  1  0  0  0
 81185  1  0  0  0
 82186  1  0  0  0
 83 84  1  0  0  0
 83187  1  0  0  0
 84 85  1  0  0  0
 84 87  1  0  0  0
 84188  1  0  0  0
 85 86  2  0  0  0
 85 92  1  0  0  0
 87 88  1  0  0  0
 87189  1  0  0  0
 87190  1  0  0  0
 88 89  1  0  0  0
 88191  1  0  0  0
 88192  1  0  0  0
 89 90  1  0  0  0
 89193  1  0  0  0
 89194  1  0  0  0
 90 91  1  0  0  0
 90195  1  0  0  0
 90196  1  0  0  0
 91197  1  0  0  0
 91198  1  0  0  0
 91199  1  0  0  0
 92 93  1  0  0  0
 92200  1  0  0  0
 93 94  1  0  0  0
 93 96  1  0  0  0
 93201  1  0  0  0
 94 95  2  0  0  0
 94 99  1  0  0  0
 96 97  1  0  0  0
 96 98  1  0  0  0
 96202  1  0  0  0
 97203  1  0  0  0
 98204  1  0  0  0
 98205  1  0  0  0
 98206  1  0  0  0
 99207  1  0  0  0
M  CHG  2   1   1  91   1
M  END
> <s_m_source_file>
../1azg_ligand.sdf

> <i_m_source_file_index>
1

> <s_epik_input>
W0NIMl0xW0NIMl1bQ0gyXVtOSDIrXVtDQEBIXTFDKD1PKU4yW0NAQEhdKFtDSDJdW0NIMl1bQ0gyXTIpQyg9TylbTkhdW0NAQEhdKFtDSDJdW0NIMl1bQ0gyXVtOSF0vQyg9TlxbSF0pW05IMl0pQyg9TylOM1tDQEBIXShbQ0gyXVtDSDJdW0NIMl0zKUMoPU8pW05IXVtDQEBIXShbQ0gyXVtDSF0oW0NIM10pW0NIM10pQyg9TylONFtDQEBIXShbQ0gyXVtDSDJdW0NIMl00KUMoPU8pW05IXVtDQEBIXShbQ0hdKFtDSDNdKVtDSDNdKUMoPU8pW05IXVtDQEBIXShbQ0gzXSlDKD1PKU41W0NAQEhdKFtDSDJdW0NIMl1bQ0gyXTUpQyg9TylbTkhdW0NIMl1DKD1PKVtOSF1bQ0BASF0oW0NIMl1bT0hdKUMoPU8pW05IXVtDQEBIXShbQ0gyXVtPSF0pQyg9TylbTkhdW0NASF0oQyg9TylbTkhdW0NASF0oQyg9TylbT0hdKVtDQEhdKFtPSF0pW0NIM10pW0NIMl1bQ0gyXVtDSDJdW0NIMl1bTkgzK10=

> <s_epik_cmdline>
J2VwaWtfYXBwJywgJy1pbWFlJywgJ2xpZ2FuZF9wcm8ubWFlJywgJy1vbWFlJywgJ2xpZ2FuZF9wcmVwLm1hZScsICctbXMnLCAnMScsICctcGgnLCAnNycsICctcGh0JywgJzAuNScsICctbnQn

> <s_epik_pKa_notes>
Molecule size exceeds maximum supported for generating protonation states

> <s_epik_Chemistry_Notes>
This compound has an imine and may undergo hydrolysis.

$$$$
