1azl_ligand
                    3D
 Schrodinger Suite 2020-3.
 50 52  0  0  1  0            999 V2000
   -4.2060   36.1330   18.1220 N   0  0  0  0  0  0
   -3.2350   36.8290   18.7900 C   0  0  0  0  0  0
   -2.3910   37.6290   18.1270 O   0  0  0  0  0  0
   -3.1620   36.7520   20.1820 N   0  0  0  0  0  0
   -4.0430   35.9410   20.8770 C   0  0  0  0  0  0
   -3.8870   35.8400   22.2350 O   0  0  0  0  0  0
   -5.0330   35.2000   20.1620 C   0  0  0  0  0  0
   -5.8850   34.3840   20.8600 N   0  0  0  0  0  0
   -6.8970   33.7740   20.1290 C   0  0  0  0  0  0
   -7.8510   33.0520   20.9180 C   0  0  0  0  0  0
   -8.9040   32.4820   20.1630 C   0  0  0  0  0  0
   -9.9770   31.7140   20.7850 C   0  0  0  0  0  0
   -8.9630   32.5950   18.7470 C   0  0  0  0  0  0
  -10.0520   31.9630   18.0590 C   0  0  0  0  0  0
   -8.0160   33.3270   18.0110 C   0  0  0  0  0  0
   -6.9350   33.9120   18.7320 C   0  0  0  0  0  0
   -6.0120   34.6160   17.9740 N   0  0  0  0  0  0
   -5.0840   35.3040   18.7450 C   0  0  0  0  0  0
   -5.9350   34.8040   16.5760 C   0  0  0  0  0  0
   -5.3150   33.5190   15.9980 C   0  0  2  0  0  0
   -3.9430   33.3800   16.3700 O   0  0  0  0  0  0
   -5.3040   33.6900   14.4550 C   0  0  2  0  0  0
   -6.6590   33.3250   14.1260 O   0  0  0  0  0  0
   -4.3530   32.8860   13.6820 C   0  0  2  0  0  0
   -4.5330   33.1980   12.2700 O   0  0  0  0  0  0
   -4.5000   31.4520   13.8750 C   0  0  0  0  0  0
   -3.3970   30.8340   13.1780 O   0  0  0  0  0  0
   -3.2980   29.2470   12.7800 P   0  0  0  0  0  0
   -3.3820   28.4150   14.1430 O   0  0  0  0  0  0
   -1.8910   28.9860   11.9650 O   0  5  0  0  0  0
   -4.5130   28.8530   11.7270 O   0  5  0  0  0  0
   -2.4048   37.3355   20.7262 H   0  0  0  0  0  0
   -7.7729   32.9510   22.0005 H   0  0  0  0  0  0
   -9.8293   31.6939   21.8749 H   0  0  0  0  0  0
   -9.9659   30.6857   20.3944 H   0  0  0  0  0  0
  -10.9449   32.1833   20.5547 H   0  0  0  0  0  0
  -10.6898   31.4384   18.7857 H   0  0  0  0  0  0
   -9.6555   31.2405   17.3304 H   0  0  0  0  0  0
  -10.6456   32.7255   17.5334 H   0  0  0  0  0  0
   -8.1048   33.4428   16.9308 H   0  0  0  0  0  0
   -6.9446   34.9703   16.1723 H   0  0  0  0  0  0
   -5.3042   35.6784   16.3578 H   0  0  0  0  0  0
   -5.8288   32.6321   16.3973 H   0  0  0  0  0  0
   -3.6709   33.2430   17.4270 H   0  0  0  0  0  0
   -4.9936   34.6924   14.1251 H   0  0  0  0  0  0
   -7.5007   33.8340   14.6183 H   0  0  0  0  0  0
   -3.3420   33.1376   14.0348 H   0  0  0  0  0  0
   -4.4583   34.2391   11.9229 H   0  0  0  0  0  0
   -4.4666   31.2214   14.9500 H   0  0  0  0  0  0
   -5.4638   31.1229   13.4592 H   0  0  0  0  0  0
  1  2  1  0  0  0
  1 18  2  0  0  0
  2  3  2  0  0  0
  2  4  1  0  0  0
  4  5  1  0  0  0
  4 32  1  0  0  0
  5  6  2  0  0  0
  5  7  1  0  0  0
  7  8  2  0  0  0
  7 18  1  0  0  0
  8  9  1  0  0  0
  9 10  2  0  0  0
  9 16  1  0  0  0
 10 11  1  0  0  0
 10 33  1  0  0  0
 11 12  1  0  0  0
 11 13  2  0  0  0
 12 34  1  0  0  0
 12 35  1  0  0  0
 12 36  1  0  0  0
 13 14  1  0  0  0
 13 15  1  0  0  0
 14 37  1  0  0  0
 14 38  1  0  0  0
 14 39  1  0  0  0
 15 16  2  0  0  0
 15 40  1  0  0  0
 16 17  1  0  0  0
 17 18  1  0  0  0
 17 19  1  0  0  0
 19 20  1  0  0  0
 19 41  1  0  0  0
 19 42  1  0  0  0
 20 21  1  0  0  0
 20 22  1  0  0  0
 20 43  1  0  0  0
 21 44  1  0  0  0
 22 23  1  0  0  0
 22 24  1  0  0  0
 22 45  1  0  0  0
 23 46  1  0  0  0
 24 25  1  0  0  0
 24 26  1  0  0  0
 24 47  1  0  0  0
 25 48  1  0  0  0
 26 27  1  0  0  0
 26 49  1  0  0  0
 26 50  1  0  0  0
 27 28  1  0  0  0
 28 29  2  0  0  0
 28 30  1  0  0  0
 28 31  1  0  0  0
M  CHG  2  30  -1  31  -1
M  END
> <s_m_source_file>
../1azl_ligand.sdf

> <i_m_source_file_index>
1

> <s_epik_input>
Tz1jMVtuSF1jKD1PKW5jKGMxMiluKGMzYyhuMilbY0hdYyhbQ0gzXSljKFtDSDNdKVtjSF0zKVtDSDJdW0NASF0oW09IXSlbQ0BIXShbT0hdKVtDQEhdKFtPSF0pW0NIMl1PUCg9TykoW09IXSlbT0hd

> <s_epik_cmdline>
J2VwaWtfYXBwJywgJy1pbWFlJywgJ2xpZ2FuZF9wcm8ubWFlJywgJy1vbWFlJywgJ2xpZ2FuZF9wcmVwLm1hZScsICctbXMnLCAnMScsICctcGgnLCAnNycsICctcGh0JywgJzAuNScsICctbnQn

> <r_epik_Ionization_Penalty>
  0.1164

> <r_epik_Ionization_Penalty_Charging>
  0.1164

> <r_epik_Ionization_Penalty_Neutral>
  0.0000

> <r_epik_State_Penalty>
  0.1054

> <r_epik_Charging_Adjusted_Penalty>
0.2218027979184

> <i_epik_Tot_Q>
-2

> <i_epik_Tot_abs_Q>
2

$$$$
