1azx_ligand
                    3D
 Schrodinger Suite 2020-3.
160164  0  0  1  0            999 V2000
   16.7440   40.3170    8.9470 O   0  0  0  0  0  0
   17.9670   40.4210    8.2250 C   0  0  0  0  0  0
   16.2660   41.5770    9.4160 C   0  0  2  0  0  0
   15.6260   41.3920   10.7960 C   0  0  2  0  0  0
   15.1150   42.6380   11.2870 O   0  0  0  0  0  0
   16.6470   40.8420   11.8040 C   0  0  0  0  0  0
   16.7180   41.7050   12.9320 O   0  0  0  0  0  0
   17.7700   41.3180   14.0830 S   0  0  0  0  0  0
   18.6210   42.4530   14.1910 O   0  0  0  0  0  0
   18.4450   40.1520   13.6200 O   0  0  0  0  0  0
   16.9800   41.1150   15.2430 O   0  0  0  0  0  0
   15.2290   42.1660    8.4530 C   0  0  2  0  0  0
   15.8190   42.3410    7.1710 O   0  0  0  0  0  0
   15.3620   41.3730    6.2280 C   0  0  0  0  0  0
   14.7700   43.5170    9.0500 C   0  0  1  0  0  0
   13.7950   44.1350    8.2140 O   0  0  0  0  0  0
   14.2510   45.4430    7.3930 S   0  0  0  0  0  0
   15.3090   45.0000    6.5500 O   0  0  0  0  0  0
   14.6740   46.3840    8.3820 O   0  0  0  0  0  0
   13.0840   45.8430    6.6700 O   0  0  0  0  0  0
   14.1460   43.2510   10.4300 C   0  0  1  0  0  0
   13.0370   42.3690   10.2200 O   0  0  0  0  0  0
   11.9370   42.4780   11.1280 C   0  0  2  0  0  0
   11.1810   41.1220   11.1950 C   0  0  2  0  0  0
   10.0760   41.2390   12.1090 O   0  0  0  0  0  0
   12.1360   40.0030   11.6660 C   0  0  0  0  0  0
   12.4050   39.8550   12.8840 O   0  0  0  0  0  0
   12.6600   39.2320   10.8290 O   0  0  0  0  0  0
   10.9640   43.5760   10.6590 C   0  0  2  0  0  0
   11.6140   44.8430   10.5760 O   0  0  0  0  0  0
   12.0270   45.3590   11.8420 C   0  0  0  0  0  0
    9.8160   43.6230   11.6630 C   0  0  1  0  0  0
    8.8780   44.6140   11.2790 O   0  0  0  0  0  0
    8.5930   45.5310   12.3310 C   0  0  0  0  0  0
    9.1320   42.2470   11.7300 C   0  0  2  0  0  0
    8.0870   42.3440   12.6930 O   0  0  0  0  0  0
    7.0310   41.3880   12.6620 C   0  0  2  0  0  0
    5.7060   42.1250   12.4110 C   0  0  2  0  0  0
    4.6060   41.2090   12.4150 O   0  0  0  0  0  0
    5.7120   42.8680   11.0660 C   0  0  0  0  0  0
    6.3980   42.0760   10.0950 O   0  0  0  0  0  0
    6.5290   42.6810    8.5940 S   0  0  0  0  0  0
    7.9320   42.7810    8.3470 O   0  0  0  0  0  0
    5.8870   43.9530    8.6320 O   0  0  0  0  0  0
    5.8720   41.7320    7.7540 O   0  0  0  0  0  0
    6.9410   40.6530   14.0040 C   0  0  2  0  0  0
    8.1390   39.9650   14.2840 O   0  0  0  0  0  0
    8.8290   40.3350   15.6910 S   0  0  0  0  0  0
    7.8500   40.0280   16.6750 O   0  0  0  0  0  0
    9.9890   39.5160   15.7550 O   0  0  0  0  0  0
    9.1290   41.7250   15.6040 O   0  0  0  0  0  0
    5.7780   39.6580   13.9270 C   0  0  1  0  0  0
    5.6630   38.9250   15.1510 O   0  0  0  0  0  0
    4.6780   37.6340   15.1860 S   0  0  0  0  0  0
    3.7190   37.9370   16.1940 O   0  0  0  0  0  0
    5.5070   36.5320   15.5160 O   0  0  0  0  0  0
    4.1120   37.5300   13.8790 O   0  0  0  0  0  0
    4.4740   40.4520   13.6440 C   0  0  1  0  0  0
    4.2290   41.3230   14.7590 O   0  0  0  0  0  0
    3.1980   42.3130   14.6320 C   0  0  2  0  0  0
    3.5520   43.4950   15.5740 C   0  0  1  0  0  0
    3.3240   43.1000   16.9240 O   0  0  0  0  0  0
    5.0030   43.9510   15.4290 C   0  0  0  0  0  0
    5.3460   44.6560   14.4520 O   0  0  0  0  0  0
    5.8550   43.6310   16.2920 O   0  0  0  0  0  0
    1.8480   41.6800   15.0550 C   0  0  2  0  0  0
    1.0620   41.3840   13.9170 O   0  0  0  0  0  0
    0.6350   40.0310   13.8990 C   0  0  0  0  0  0
    1.0740   42.6380   15.9850 C   0  0  1  0  0  0
   -0.1650   42.0330   16.3760 O   0  0  0  0  0  0
   -1.5090   42.9510   16.3470 S   0  0  0  0  0  0
   -1.1960   44.1360   17.0850 O   0  0  0  0  0  0
   -1.7630   43.2020   14.9660 O   0  0  0  0  0  0
   -2.5060   42.1400   16.9710 O   0  0  0  0  0  0
    1.9410   42.9750   17.2320 C   0  0  2  0  0  0
    1.4820   44.1940   17.7980 O   0  0  0  0  0  0
    1.8810   44.4700   19.1380 C   0  0  2  0  0  0
    0.7030   44.2150   20.0930 C   0  0  2  0  0  0
    1.0720   44.5120   21.4450 O   0  0  0  0  0  0
    0.2340   42.7570   20.0510 C   0  0  0  0  0  0
    1.3640   41.9120   20.2400 O   0  0  0  0  0  0
    1.0820   40.3310   20.4270 S   0  0  0  0  0  0
    1.7730   39.7050   19.3450 O   0  0  0  0  0  0
   -0.3330   40.1830   20.3450 O   0  0  0  0  0  0
    1.6100   39.9950   21.7090 O   0  0  0  0  0  0
    2.3200   45.9260   19.2570 C   0  0  2  0  0  0
    3.4210   46.1880   18.3840 O   0  0  0  0  0  0
    3.2920   47.4130   17.3330 S   0  0  0  0  0  0
    2.1840   47.0710   16.5140 O   0  0  0  0  0  0
    4.5250   47.4190   16.6300 O   0  0  0  0  0  0
    3.0820   48.5830   18.1170 O   0  0  0  0  0  0
    2.7260   46.1670   20.7240 C   0  0  1  0  0  0
    3.1690   47.5110   20.9070 O   0  0  0  0  0  0
    4.3270   47.7540   22.0110 S   0  0  0  0  0  0
    5.4170   48.2960   21.2740 O   0  0  0  0  0  0
    4.6010   46.4760   22.5570 O   0  0  0  0  0  0
    3.7670   48.6560   22.9630 O   0  0  0  0  0  0
    1.5180   45.8610   21.6490 C   0  0  1  0  0  0
    0.4590   46.7770   21.4020 O   0  0  0  0  0  0
    0.0100   47.4370   22.5800 C   0  0  0  0  0  0
   18.2821   39.4212    7.8916 H   0  0  0  0  0  0
   18.7419   40.8514    8.8764 H   0  0  0  0  0  0
   17.8217   41.0707    7.3494 H   0  0  0  0  0  0
   17.1607   42.2158    9.4548 H   0  0  0  0  0  0
   14.7557   40.7253   10.7059 H   0  0  0  0  0  0
   16.3357   39.8389   12.1309 H   0  0  0  0  0  0
   17.6367   40.7817   11.3276 H   0  0  0  0  0  0
   19.0837   40.2048   12.7260 H   0  0  0  0  0  0
   14.3854   41.4892    8.2522 H   0  0  0  0  0  0
   15.8459   41.5508    5.2563 H   0  0  0  0  0  0
   14.2711   41.4575    6.1153 H   0  0  0  0  0  0
   15.6167   40.3643    6.5853 H   0  0  0  0  0  0
   15.5968   44.2415    9.0884 H   0  0  0  0  0  0
   12.6731   45.1913    5.8849 H   0  0  0  0  0  0
   13.7936   44.1459   10.9638 H   0  0  0  0  0  0
   12.3986   42.7473   12.0894 H   0  0  0  0  0  0
   10.7346   40.8612   10.2241 H   0  0  0  0  0  0
   13.0871   39.0532   13.2031 H   0  0  0  0  0  0
   10.6121   43.4160    9.6292 H   0  0  0  0  0  0
   12.5176   46.3330   11.6986 H   0  0  0  0  0  0
   12.7334   44.6581   12.3108 H   0  0  0  0  0  0
   11.1481   45.4833   12.4917 H   0  0  0  0  0  0
   10.1711   43.9466   12.6525 H   0  0  0  0  0  0
    7.8628   46.2754   11.9807 H   0  0  0  0  0  0
    9.5195   46.0406   12.6342 H   0  0  0  0  0  0
    8.1766   44.9851   13.1905 H   0  0  0  0  0  0
    8.6978   41.9007   10.7805 H   0  0  0  0  0  0
    7.2911   40.6940   11.8492 H   0  0  0  0  0  0
    5.5294   42.8208   13.2445 H   0  0  0  0  0  0
    4.6764   43.0398   10.7374 H   0  0  0  0  0  0
    6.2245   43.8342   11.1831 H   0  0  0  0  0  0
    8.5453   43.4806    8.9338 H   0  0  0  0  0  0
    6.8485   41.3542   14.8465 H   0  0  0  0  0  0
    8.3136   42.4612   15.5486 H   0  0  0  0  0  0
    5.9671   38.8779   13.1749 H   0  0  0  0  0  0
    3.4487   38.3225   13.5022 H   0  0  0  0  0  0
    3.5790   39.8253   13.5170 H   0  0  0  0  0  0
    3.1733   42.6247   13.5774 H   0  0  0  0  0  0
    2.8894   44.3498   15.3735 H   0  0  0  0  0  0
    6.8986   43.9615   16.1836 H   0  0  0  0  0  0
    2.0067   40.7015   15.5318 H   0  0  0  0  0  0
    0.0294   39.8496   12.9988 H   0  0  0  0  0  0
    0.0309   39.8252   14.7949 H   0  0  0  0  0  0
    1.5137   39.3693   13.8893 H   0  0  0  0  0  0
    0.7735   43.5543   15.4558 H   0  0  0  0  0  0
   -0.4415   44.8390   16.7024 H   0  0  0  0  0  0
    1.8966   42.1908   18.0021 H   0  0  0  0  0  0
    2.7209   43.7873   19.3343 H   0  0  0  0  0  0
   -0.1135   44.9013   19.8241 H   0  0  0  0  0  0
   -0.5008   42.5850   20.8513 H   0  0  0  0  0  0
   -0.2306   42.5492   19.0758 H   0  0  0  0  0  0
    1.4544   39.8900   18.3085 H   0  0  0  0  0  0
    1.5410   46.6211   18.9105 H   0  0  0  0  0  0
    2.1599   48.6916   18.7069 H   0  0  0  0  0  0
    3.6075   45.5670   20.9942 H   0  0  0  0  0  0
    3.5091   49.6823   22.6627 H   0  0  0  0  0  0
    1.7491   45.9598   22.7199 H   0  0  0  0  0  0
   -0.8060   48.1289   22.3242 H   0  0  0  0  0  0
    0.8433   48.0010   23.0245 H   0  0  0  0  0  0
   -0.3543   46.6912   23.3019 H   0  0  0  0  0  0
  1  2  1  0  0  0
  1  3  1  0  0  0
  2101  1  0  0  0
  2102  1  0  0  0
  2103  1  0  0  0
  3  4  1  0  0  0
  3 12  1  0  0  0
  3104  1  0  0  0
  4  5  1  0  0  0
  4  6  1  0  0  0
  4105  1  0  0  0
  5 21  1  0  0  0
  6  7  1  0  0  0
  6106  1  0  0  0
  6107  1  0  0  0
  7  8  1  0  0  0
  8  9  2  0  0  0
  8 10  1  0  0  0
  8 11  2  0  0  0
 10108  1  0  0  0
 12 13  1  0  0  0
 12 15  1  0  0  0
 12109  1  0  0  0
 13 14  1  0  0  0
 14110  1  0  0  0
 14111  1  0  0  0
 14112  1  0  0  0
 15 16  1  0  0  0
 15 21  1  0  0  0
 15113  1  0  0  0
 16 17  1  0  0  0
 17 18  2  0  0  0
 17 19  2  0  0  0
 17 20  1  0  0  0
 20114  1  0  0  0
 21 22  1  0  0  0
 21115  1  0  0  0
 22 23  1  0  0  0
 23 24  1  0  0  0
 23 29  1  0  0  0
 23116  1  0  0  0
 24 25  1  0  0  0
 24 26  1  0  0  0
 24117  1  0  0  0
 25 35  1  0  0  0
 26 27  1  0  0  0
 26 28  2  0  0  0
 27118  1  0  0  0
 29 30  1  0  0  0
 29 32  1  0  0  0
 29119  1  0  0  0
 30 31  1  0  0  0
 31120  1  0  0  0
 31121  1  0  0  0
 31122  1  0  0  0
 32 33  1  0  0  0
 32 35  1  0  0  0
 32123  1  0  0  0
 33 34  1  0  0  0
 34124  1  0  0  0
 34125  1  0  0  0
 34126  1  0  0  0
 35 36  1  0  0  0
 35127  1  0  0  0
 36 37  1  0  0  0
 37 38  1  0  0  0
 37 46  1  0  0  0
 37128  1  0  0  0
 38 39  1  0  0  0
 38 40  1  0  0  0
 38129  1  0  0  0
 39 58  1  0  0  0
 40 41  1  0  0  0
 40130  1  0  0  0
 40131  1  0  0  0
 41 42  1  0  0  0
 42 43  1  0  0  0
 42 44  2  0  0  0
 42 45  2  0  0  0
 43132  1  0  0  0
 46 47  1  0  0  0
 46 52  1  0  0  0
 46133  1  0  0  0
 47 48  1  0  0  0
 48 49  2  0  0  0
 48 50  2  0  0  0
 48 51  1  0  0  0
 51134  1  0  0  0
 52 53  1  0  0  0
 52 58  1  0  0  0
 52135  1  0  0  0
 53 54  1  0  0  0
 54 55  2  0  0  0
 54 56  2  0  0  0
 54 57  1  0  0  0
 57136  1  0  0  0
 58 59  1  0  0  0
 58137  1  0  0  0
 59 60  1  0  0  0
 60 61  1  0  0  0
 60 66  1  0  0  0
 60138  1  0  0  0
 61 62  1  0  0  0
 61 63  1  0  0  0
 61139  1  0  0  0
 62 75  1  0  0  0
 63 64  2  0  0  0
 63 65  1  0  0  0
 65140  1  0  0  0
 66 67  1  0  0  0
 66 69  1  0  0  0
 66141  1  0  0  0
 67 68  1  0  0  0
 68142  1  0  0  0
 68143  1  0  0  0
 68144  1  0  0  0
 69 70  1  0  0  0
 69 75  1  0  0  0
 69145  1  0  0  0
 70 71  1  0  0  0
 71 72  1  0  0  0
 71 73  2  0  0  0
 71 74  2  0  0  0
 72146  1  0  0  0
 75 76  1  0  0  0
 75147  1  0  0  0
 76 77  1  0  0  0
 77 78  1  0  0  0
 77 86  1  0  0  0
 77148  1  0  0  0
 78 79  1  0  0  0
 78 80  1  0  0  0
 78149  1  0  0  0
 79 98  1  0  0  0
 80 81  1  0  0  0
 80150  1  0  0  0
 80151  1  0  0  0
 81 82  1  0  0  0
 82 83  1  0  0  0
 82 84  2  0  0  0
 82 85  2  0  0  0
 83152  1  0  0  0
 86 87  1  0  0  0
 86 92  1  0  0  0
 86153  1  0  0  0
 87 88  1  0  0  0
 88 89  2  0  0  0
 88 90  2  0  0  0
 88 91  1  0  0  0
 91154  1  0  0  0
 92 93  1  0  0  0
 92 98  1  0  0  0
 92155  1  0  0  0
 93 94  1  0  0  0
 94 95  2  0  0  0
 94 96  2  0  0  0
 94 97  1  0  0  0
 97156  1  0  0  0
 98 99  1  0  0  0
 98157  1  0  0  0
 99100  1  0  0  0
100158  1  0  0  0
100159  1  0  0  0
100160  1  0  0  0
M  END
> <s_m_source_file>
../1azx_ligand.sdf

> <i_m_source_file_index>
1

> <s_epik_input>
Tz1TKD1PKShbT0hdKU9bQ0gyXVtDQEhdKFtDQEhdMU9bQ0gzXSlPW0NAQEhdKFtDQEBIXShbQ0BIXTFPW0NIM10pT1MoPU8pKD1PKVtPSF0pT1tDQEBIXTJbQ0BASF0oQyg9TylbT0hdKU9bQ0BIXShbQ0BIXShPW0NIM10pW0NASF0yT1tDSDNdKU9bQ0BASF0zW0NAQEhdKFtDSDJdT1MoPU8pKD1PKVtPSF0pT1tDQEBIXShbQ0BIXShPUyg9TykoPU8pW09IXSlbQ0BIXTNPUyg9TykoPU8pW09IXSlPW0NAQEhdNFtDQEhdKEMoPU8pW09IXSlPW0NASF0oW0NAQEhdKFtDQEhdNE9bQ0gzXSlPUyg9TykoPU8pW09IXSlPW0NAQEhdNVtDQEBIXShbQ0gyXU9TKD1PKSg9TylbT0hdKU9bQ0BIXShPW0NIM10pW0NASF0oT1MoPU8pKD1PKVtPSF0pW0NASF01T1MoPU8pKD1PKVtPSF0=

> <s_epik_cmdline>
J2VwaWtfYXBwJywgJy1pbWFlJywgJ2xpZ2FuZF9wcm8ubWFlJywgJy1vbWFlJywgJ2xpZ2FuZF9wcmVwLm1hZScsICctbXMnLCAnMScsICctcGgnLCAnNycsICctcGh0JywgJzAuNScsICctbnQn

> <s_epik_pKa_notes>
Molecule size exceeds maximum supported for generating protonation states

> <s_epik_Chemistry_Notes>
This compound contains an acetal/aminal-like group ( X-CH(R)-Y where X, Y are N, S, or O) that may be acid/base labile, releasing an aldehyde.

$$$$
