1b05_ligand
                    3D
 Schrodinger Suite 2020-3.
 58 57  0  0  1  0            999 V2000
    6.8840   16.6990   15.2850 N   0  3  0  0  0  0
    6.4780   18.0080   14.6520 C   0  0  2  0  0  0
    5.2150   18.5430   15.3210 C   0  0  0  0  0  0
    4.4280   17.7430   15.8270 O   0  0  0  0  0  0
    6.2090   17.8530   13.1460 C   0  0  0  0  0  0
    5.1900   16.7820   12.7410 C   0  0  0  0  0  0
    5.0660   16.6830   11.1980 C   0  0  0  0  0  0
    6.4390   16.2680   10.5920 C   0  0  0  0  0  0
    6.5980   14.8130   10.9630 N   0  3  0  0  0  0
    5.0800   19.8290   15.4610 N   0  0  0  0  0  0
    3.9580   20.4790   16.1210 C   0  0  2  0  0  0
    2.6430   20.3630   15.3690 C   0  0  0  0  0  0
    2.5790   20.7100   14.1850 O   0  0  0  0  0  0
    4.2210   21.9740   16.3740 C   0  0  0  0  0  0
    5.6110   22.1720   17.6070 S   0  0  0  0  0  0
    1.5780   20.0200   16.1000 N   0  0  0  0  0  0
    0.2730   19.9130   15.4830 C   0  0  2  0  0  0
   -0.7590   20.7790   16.2460 C   0  0  0  0  0  0
   -1.7750   21.1190   15.6230 O   0  5  0  0  0  0
   -0.3500   18.5300   15.3100 C   0  0  0  0  0  0
   -1.3710   18.6380   14.1520 C   0  0  0  0  0  0
   -1.9940   17.3240   13.7850 C   0  0  0  0  0  0
   -2.7310   17.3200   12.4390 C   0  0  0  0  0  0
   -3.7120   18.4370   12.3970 N   0  3  0  0  0  0
   -0.5180   21.2430   17.3380 O   0  0  0  0  0  0
    7.0667   16.8521   16.3589 H   0  0  0  0  0  0
    7.8025   16.3293   14.8058 H   0  0  0  0  0  0
    6.0786   15.9618   15.1516 H   0  0  0  0  0  0
    7.3183   18.7013   14.8042 H   0  0  0  0  0  0
    5.8250   18.8016   12.7426 H   0  0  0  0  0  0
    7.1446   17.5879   12.6318 H   0  0  0  0  0  0
    5.5105   15.8048   13.1313 H   0  0  0  0  0  0
    4.2044   17.0376   13.1571 H   0  0  0  0  0  0
    4.3081   15.9292   10.9387 H   0  0  0  0  0  0
    4.7659   17.6598   10.7908 H   0  0  0  0  0  0
    6.4169   16.4114    9.5016 H   0  0  0  0  0  0
    7.2350   16.8898   11.0275 H   0  0  0  0  0  0
    7.5534   14.4364   10.5688 H   0  0  0  0  0  0
    5.7691   14.2321   10.5322 H   0  0  0  0  0  0
    6.5873   14.7106   12.0582 H   0  0  0  0  0  0
    5.8941   20.4346   15.0361 H   0  0  0  0  0  0
    3.9018   19.8941   17.0509 H   0  0  0  0  0  0
    4.5009   22.4621   15.4288 H   0  0  0  0  0  0
    3.3104   22.4440   16.7738 H   0  0  0  0  0  0
    5.9382   23.1775   17.9102 H   0  0  0  0  0  0
    1.6963   19.8187   17.1749 H   0  0  0  0  0  0
    0.5642   20.2542   14.4786 H   0  0  0  0  0  0
    0.4373   17.8008   15.0684 H   0  0  0  0  0  0
   -0.8501   18.2337   16.2439 H   0  0  0  0  0  0
   -2.1838   19.3201   14.4422 H   0  0  0  0  0  0
   -0.8680   19.0279   13.2548 H   0  0  0  0  0  0
   -1.2125   16.5524   13.7228 H   0  0  0  0  0  0
   -2.7295   17.0400   14.5520 H   0  0  0  0  0  0
   -2.0042   17.4440   11.6227 H   0  0  0  0  0  0
   -3.2625   16.3650   12.3148 H   0  0  0  0  0  0
   -4.2364   18.4283   11.4301 H   0  0  0  0  0  0
   -3.1834   19.3940   12.5188 H   0  0  0  0  0  0
   -4.4417   18.3149   13.2110 H   0  0  0  0  0  0
  1  2  1  0  0  0
  1 26  1  0  0  0
  1 27  1  0  0  0
  1 28  1  0  0  0
  2  3  1  0  0  0
  2  5  1  0  0  0
  2 29  1  0  0  0
  3  4  2  0  0  0
  3 10  1  0  0  0
  5  6  1  0  0  0
  5 30  1  0  0  0
  5 31  1  0  0  0
  6  7  1  0  0  0
  6 32  1  0  0  0
  6 33  1  0  0  0
  7  8  1  0  0  0
  7 34  1  0  0  0
  7 35  1  0  0  0
  8  9  1  0  0  0
  8 36  1  0  0  0
  8 37  1  0  0  0
  9 38  1  0  0  0
  9 39  1  0  0  0
  9 40  1  0  0  0
 10 11  1  0  0  0
 10 41  1  0  0  0
 11 12  1  0  0  0
 11 14  1  0  0  0
 11 42  1  0  0  0
 12 13  2  0  0  0
 12 16  1  0  0  0
 14 15  1  0  0  0
 14 43  1  0  0  0
 14 44  1  0  0  0
 15 45  1  0  0  0
 16 17  1  0  0  0
 16 46  1  0  0  0
 17 18  1  0  0  0
 17 20  1  0  0  0
 17 47  1  0  0  0
 18 25  2  0  0  0
 18 19  1  0  0  0
 20 21  1  0  0  0
 20 48  1  0  0  0
 20 49  1  0  0  0
 21 22  1  0  0  0
 21 50  1  0  0  0
 21 51  1  0  0  0
 22 23  1  0  0  0
 22 52  1  0  0  0
 22 53  1  0  0  0
 23 24  1  0  0  0
 23 54  1  0  0  0
 23 55  1  0  0  0
 24 56  1  0  0  0
 24 57  1  0  0  0
 24 58  1  0  0  0
M  CHG  4   1   1   9   1  19  -1  24   1
M  END
> <s_m_source_file>
../1b05_ligand.sdf

> <i_m_source_file_index>
1

> <s_epik_input>
W05IMytdW0NIMl1bQ0gyXVtDSDJdW0NIMl1bQ0BIXShbTkgzK10pQyg9TylbTkhdW0NAQEhdKFtDSDJdW1NIXSlDKD1PKVtOSF1bQ0BIXShDKD1PKVtPSF0pW0NIMl1bQ0gyXVtDSDJdW0NIMl1bTkgzK10=

> <s_epik_cmdline>
J2VwaWtfYXBwJywgJy1pbWFlJywgJ2xpZ2FuZF9wcm8ubWFlJywgJy1vbWFlJywgJ2xpZ2FuZF9wcmVwLm1hZScsICctbXMnLCAnMScsICctcGgnLCAnNycsICctcGh0JywgJzAuNScsICctbnQn

> <r_lp_tautomer_probability>
1

> <r_epik_Ionization_Penalty>
  0.1440

> <r_epik_Ionization_Penalty_Charging>
  0.1334

> <r_epik_Ionization_Penalty_Neutral>
  0.0106

> <r_epik_State_Penalty>
 -0.0000

> <r_epik_Charging_Adjusted_Penalty>
0.13339476123536

> <i_epik_Tot_Q>
2

> <i_epik_Tot_abs_Q>
4

$$$$
