1b0f_ligand
                    3D
 Schrodinger Suite 2020-3.
 83 85  0  0  1  0            999 V2000
   71.2490   42.2540   56.8290 C   0  0  0  0  0  0
   72.2980   43.1250   56.1970 C   0  0  0  0  0  0
   72.8480   45.4530   56.1250 C   0  0  0  0  0  0
   71.6850   49.6000   56.5790 C   0  0  0  0  0  0
   71.1360   48.6270   57.4150 C   0  0  0  0  0  0
   71.5470   47.3020   57.2760 C   0  0  0  0  0  0
   72.4860   46.8950   56.3030 C   0  0  0  0  0  0
   71.3080   51.0040   56.8410 C   0  0  0  0  0  0
   72.3500   53.8400   55.3100 C   0  0  0  0  0  0
   73.6340   53.4690   56.0020 C   0  0  0  0  0  0
   72.2240   55.3700   55.2560 C   0  0  0  0  0  0
   70.0630   42.6410   56.1860 O   0  0  0  0  0  0
   71.8870   44.5210   56.2210 N   0  0  0  0  0  0
   70.4780   44.8080   55.9770 C   0  0  0  0  0  0
   69.6200   43.8420   56.7290 C   0  0  0  0  0  0
   73.9750   45.0510   55.8550 O   0  0  0  0  0  0
   73.0420   47.8850   55.4740 C   0  0  0  0  0  0
   72.5970   49.2150   55.5640 C   0  0  0  0  0  0
   71.0500   51.7780   55.7480 N   0  0  0  0  0  0
   71.1510   53.1980   56.0630 C   0  0  2  0  0  0
   69.8270   53.8190   55.6360 C   0  0  0  0  0  0
   69.4560   53.7500   54.4700 O   0  0  0  0  0  0
   67.7610   54.8240   56.2350 C   0  0  1  0  0  0
   69.4120   54.4820   58.0150 C   0  0  0  0  0  0
   68.1260   54.9730   58.6700 C   0  0  0  0  0  0
   67.1620   55.2320   57.5670 C   0  0  0  0  0  0
   67.8700   56.0120   55.2990 C   0  0  0  0  0  0
   66.8730   56.0130   54.4100 N   0  0  0  0  0  0
   69.0810   54.3570   56.5950 N   0  0  0  0  0  0
   68.7790   56.8260   55.4180 O   0  0  0  0  0  0
   66.7250   57.0680   53.4370 C   0  0  1  0  0  0
   66.7560   56.4790   51.9920 C   0  0  0  0  0  0
   65.6970   55.4270   51.8040 C   0  0  0  0  0  0
   68.1280   55.8970   51.6880 C   0  0  0  0  0  0
   65.5360   58.0200   53.5610 C   0  0  1  0  0  0
   65.3910   58.7340   55.0350 C   0  0  0  0  0  0
   64.9960   58.4300   52.5410 O   0  0  0  0  0  0
   64.1220   59.1010   55.6040 F   0  0  0  0  0  0
   66.1200   57.9630   55.9050 F   0  0  0  0  0  0
   66.0170   60.0440   54.9430 C   0  0  0  0  0  0
   67.2730   59.8040   54.6830 F   0  0  0  0  0  0
   65.4350   60.7200   53.9670 F   0  0  0  0  0  0
   65.8030   60.6120   56.1060 F   0  0  0  0  0  0
   71.2520   51.4570   57.9890 O   0  0  0  0  0  0
   71.4940   41.1966   56.6503 H   0  0  0  0  0  0
   71.2174   42.4451   57.9118 H   0  0  0  0  0  0
   73.2426   43.0220   56.7511 H   0  0  0  0  0  0
   72.4503   42.8162   55.1523 H   0  0  0  0  0  0
   70.3954   48.8993   58.1670 H   0  0  0  0  0  0
   71.1270   46.5507   57.9447 H   0  0  0  0  0  0
   72.3804   53.4569   54.2793 H   0  0  0  0  0  0
   74.4823   53.9233   55.4691 H   0  0  0  0  0  0
   73.7462   52.3747   56.0046 H   0  0  0  0  0  0
   73.6119   53.8378   57.0381 H   0  0  0  0  0  0
   73.0865   55.7901   54.7178 H   0  0  0  0  0  0
   72.1991   55.7722   56.2795 H   0  0  0  0  0  0
   71.2962   55.6432   54.7320 H   0  0  0  0  0  0
   70.2489   45.8307   56.3112 H   0  0  0  0  0  0
   70.2663   44.7177   54.9013 H   0  0  0  0  0  0
   68.5437   43.9578   56.5336 H   0  0  0  0  0  0
   69.7976   43.8412   57.8146 H   0  0  0  0  0  0
   73.8209   47.6201   54.7590 H   0  0  0  0  0  0
   72.9553   49.9554   54.8488 H   0  0  0  0  0  0
   70.7922   51.4580   54.7276 H   0  0  0  0  0  0
   71.3145   53.3116   57.1448 H   0  0  0  0  0  0
   67.1876   54.0440   55.7127 H   0  0  0  0  0  0
   70.2134   55.2162   58.1847 H   0  0  0  0  0  0
   69.7012   53.5156   58.4538 H   0  0  0  0  0  0
   67.7437   54.1997   59.3525 H   0  0  0  0  0  0
   68.3313   55.8932   59.2367 H   0  0  0  0  0  0
   66.9202   56.3049   57.5470 H   0  0  0  0  0  0
   66.2448   54.6528   57.7494 H   0  0  0  0  0  0
   66.1539   55.1809   54.4328 H   0  0  0  0  0  0
   67.5979   57.6660   53.7377 H   0  0  0  0  0  0
   66.5409   57.2761   51.2651 H   0  0  0  0  0  0
   64.7093   55.8573   52.0260 H   0  0  0  0  0  0
   65.8916   54.5851   52.4847 H   0  0  0  0  0  0
   65.7159   55.0695   50.7639 H   0  0  0  0  0  0
   68.8948   56.6731   51.8282 H   0  0  0  0  0  0
   68.1528   55.5407   50.6476 H   0  0  0  0  0  0
   68.3286   55.0563   52.3684 H   0  0  0  0  0  0
   64.6511   57.7180   52.9816 H   0  0  0  0  0  0
   65.1407   57.8970   51.5897 H   0  0  0  0  0  0
  1  2  1  0  0  0
  1 12  1  0  0  0
  1 45  1  0  0  0
  1 46  1  0  0  0
  2 13  1  0  0  0
  2 47  1  0  0  0
  2 48  1  0  0  0
  3  7  1  0  0  0
  3 13  1  0  0  0
  3 16  2  0  0  0
  4  5  2  0  0  0
  4  8  1  0  0  0
  4 18  1  0  0  0
  5  6  1  0  0  0
  5 49  1  0  0  0
  6  7  2  0  0  0
  6 50  1  0  0  0
  7 17  1  0  0  0
  8 19  1  0  0  0
  8 44  2  0  0  0
  9 10  1  0  0  0
  9 11  1  0  0  0
  9 20  1  0  0  0
  9 51  1  0  0  0
 10 52  1  0  0  0
 10 53  1  0  0  0
 10 54  1  0  0  0
 11 55  1  0  0  0
 11 56  1  0  0  0
 11 57  1  0  0  0
 12 15  1  0  0  0
 13 14  1  0  0  0
 14 15  1  0  0  0
 14 58  1  0  0  0
 14 59  1  0  0  0
 15 60  1  0  0  0
 15 61  1  0  0  0
 17 18  2  0  0  0
 17 62  1  0  0  0
 18 63  1  0  0  0
 19 20  1  0  0  0
 19 64  1  0  0  0
 20 21  1  0  0  0
 20 65  1  0  0  0
 21 22  2  0  0  0
 21 29  1  0  0  0
 23 26  1  0  0  0
 23 27  1  0  0  0
 23 29  1  0  0  0
 23 66  1  0  0  0
 24 25  1  0  0  0
 24 29  1  0  0  0
 24 67  1  0  0  0
 24 68  1  0  0  0
 25 26  1  0  0  0
 25 69  1  0  0  0
 25 70  1  0  0  0
 26 71  1  0  0  0
 26 72  1  0  0  0
 27 28  1  0  0  0
 27 30  2  0  0  0
 28 31  1  0  0  0
 28 73  1  0  0  0
 31 32  1  0  0  0
 31 35  1  0  0  0
 31 74  1  0  0  0
 32 33  1  0  0  0
 32 34  1  0  0  0
 32 75  1  0  0  0
 33 76  1  0  0  0
 33 77  1  0  0  0
 33 78  1  0  0  0
 34 79  1  0  0  0
 34 80  1  0  0  0
 34 81  1  0  0  0
 35 36  1  0  0  0
 35 37  1  0  0  0
 35 82  1  0  0  0
 36 38  1  0  0  0
 36 39  1  0  0  0
 36 40  1  0  0  0
 37 83  1  0  0  0
 40 41  1  0  0  0
 40 42  1  0  0  0
 40 43  1  0  0  0
M  END
> <s_m_source_file>
../1b0f_ligand.sdf

> <i_m_source_file_index>
1

> <s_epik_input>
W0NIMl0xW0NIMl1PW0NIMl1bQ0gyXU4xQyg9TyljKFtjSF1bY0hdMilbY0hdW2NIXWMyQyg9TylbTkhdW0NAQEhdKFtDSF0oW0NIM10pW0NIM10pQyg9TylOM1tDSDJdW0NIMl1bQ0gyXVtDQEhdM0MoPU8pW05IXVtDQEBIXShbQ0hdKFtDSDNdKVtDSDNdKVtDQEhdKFtPSF0pQyhGKShGKUMoRikoRilG

> <s_epik_cmdline>
J2VwaWtfYXBwJywgJy1pbWFlJywgJ2xpZ2FuZF9wcm8ubWFlJywgJy1vbWFlJywgJ2xpZ2FuZF9wcmVwLm1hZScsICctbXMnLCAnMScsICctcGgnLCAnNycsICctcGh0JywgJzAuNScsICctbnQn

> <r_lp_tautomer_probability>
1

> <r_epik_Ionization_Penalty>
  0.0006

> <r_epik_Ionization_Penalty_Charging>
  0.0000

> <r_epik_Ionization_Penalty_Neutral>
  0.0006

> <r_epik_State_Penalty>
 -0.0000

> <r_epik_Charging_Adjusted_Penalty>
0

> <i_epik_Tot_Q>
0

> <i_epik_Tot_abs_Q>
0

$$$$
