1b0h_ligand
                    3D
 Schrodinger Suite 2020-3.
 73 74  0  0  1  0            999 V2000
    6.9090   16.7300   15.2530 N   0  3  0  0  0  0
    6.4360   18.0200   14.6830 C   0  0  2  0  0  0
    5.1700   18.4740   15.4120 C   0  0  0  0  0  0
    4.4670   17.5800   15.8650 O   0  0  0  0  0  0
    6.2720   17.9240   13.1610 C   0  0  0  0  0  0
    5.3730   16.7960   12.6860 C   0  0  0  0  0  0
    5.3290   16.6920   11.1580 C   0  0  0  0  0  0
    6.6160   16.0710   10.5960 C   0  0  0  0  0  0
    6.6840   14.6270   10.9920 N   0  3  0  0  0  0
    4.9980   19.7850   15.6180 N   0  0  0  0  0  0
    3.7820   20.2150   16.3270 C   0  0  2  0  0  0
    2.5590   20.1490   15.4140 C   0  0  0  0  0  0
    2.5900   20.4070   14.2000 O   0  0  0  0  0  0
    3.9240   21.6660   16.8420 C   0  0  0  0  0  0
    5.0970   21.7900   17.8040 C   0  0  0  0  0  0
    6.1730   22.5540   17.3290 C   0  0  0  0  0  0
    7.3110   22.7060   18.1170 C   0  0  0  0  0  0
    5.1750   21.2140   19.0800 C   0  0  0  0  0  0
    6.2950   21.3250   19.9340 C   0  0  0  0  0  0
    7.3670   22.1270   19.3670 C   0  0  0  0  0  0
    4.1150   20.4510   19.5690 C   0  0  0  0  0  0
    4.0960   19.8320   20.7520 C   0  0  0  0  0  0
    5.2370   19.9180   21.5770 C   0  0  0  0  0  0
    6.3230   20.6880   21.1870 C   0  0  0  0  0  0
    1.4090   19.7920   15.9990 N   0  0  0  0  0  0
    0.1730   19.7670   15.2560 C   0  0  2  0  0  0
   -0.8960   20.5730   16.0140 C   0  0  0  0  0  0
   -1.8600   20.9460   15.3390 O   0  0  0  0  0  0
   -0.4140   18.3430   15.1810 C   0  0  0  0  0  0
   -1.3790   18.2590   13.9930 C   0  0  0  0  0  0
   -2.0790   16.9220   14.0350 C   0  0  0  0  0  0
   -3.4240   17.0270   13.3120 C   0  0  0  0  0  0
   -3.1520   16.8360   11.8600 N   0  3  0  0  0  0
   -0.8180   20.7360   17.2390 O   0  5  0  0  0  0
    7.8191   16.4079   14.7257 H   0  0  0  0  0  0
    6.1260   15.9669   15.1326 H   0  0  0  0  0  0
    7.1317   16.8613   16.3222 H   0  0  0  0  0  0
    7.2133   18.7770   14.8641 H   0  0  0  0  0  0
    5.8353   18.8588   12.7796 H   0  0  0  0  0  0
    7.2555   17.7622   12.6957 H   0  0  0  0  0  0
    5.7446   15.8394   13.0820 H   0  0  0  0  0  0
    4.3477   16.9681   13.0454 H   0  0  0  0  0  0
    4.4794   16.0611   10.8578 H   0  0  0  0  0  0
    5.2107   17.6964   10.7254 H   0  0  0  0  0  0
    6.6135   16.1520    9.4990 H   0  0  0  0  0  0
    7.4881   16.6051   11.0011 H   0  0  0  0  0  0
    7.6053   14.1797   10.5905 H   0  0  0  0  0  0
    5.8110   14.0942   10.5870 H   0  0  0  0  0  0
    6.6856   14.5474   12.0891 H   0  0  0  0  0  0
    5.7291   20.5327   15.2768 H   0  0  0  0  0  0
    3.6809   19.4995   17.1564 H   0  0  0  0  0  0
    4.0923   22.3423   15.9909 H   0  0  0  0  0  0
    3.0036   21.9602   17.3677 H   0  0  0  0  0  0
    6.1187   23.0263   16.3481 H   0  0  0  0  0  0
    8.1578   23.2830   17.7454 H   0  0  0  0  0  0
    8.2661   22.2792   19.9641 H   0  0  0  0  0  0
    3.2331   20.3522   18.9361 H   0  0  0  0  0  0
    3.2176   19.2722   21.0733 H   0  0  0  0  0  0
    5.2654   19.3780   22.5234 H   0  0  0  0  0  0
    7.1864   20.7977   21.8432 H   0  0  0  0  0  0
    1.4165   19.5150   17.0635 H   0  0  0  0  0  0
    0.4617   20.1746   14.2759 H   0  0  0  0  0  0
    0.4014   17.6169   15.0470 H   0  0  0  0  0  0
   -0.9544   18.1196   16.1127 H   0  0  0  0  0  0
   -2.1178   19.0710   14.0626 H   0  0  0  0  0  0
   -0.8142   18.3568   13.0542 H   0  0  0  0  0  0
   -1.4540   16.1652   13.5384 H   0  0  0  0  0  0
   -2.2474   16.6290   15.0818 H   0  0  0  0  0  0
   -4.1035   16.2473   13.6867 H   0  0  0  0  0  0
   -3.8643   18.0176   13.4986 H   0  0  0  0  0  0
   -4.0953   16.9038   11.2982 H   0  0  0  0  0  0
   -2.6996   15.8464   11.6988 H   0  0  0  0  0  0
   -2.4603   17.6167   11.5108 H   0  0  0  0  0  0
  1  2  1  0  0  0
  1 35  1  0  0  0
  1 36  1  0  0  0
  1 37  1  0  0  0
  2  5  1  0  0  0
  2  3  1  0  0  0
  2 38  1  0  0  0
  3  4  2  0  0  0
  3 10  1  0  0  0
  5  6  1  0  0  0
  5 39  1  0  0  0
  5 40  1  0  0  0
  6  7  1  0  0  0
  6 41  1  0  0  0
  6 42  1  0  0  0
  7  8  1  0  0  0
  7 43  1  0  0  0
  7 44  1  0  0  0
  8  9  1  0  0  0
  8 45  1  0  0  0
  8 46  1  0  0  0
  9 47  1  0  0  0
  9 48  1  0  0  0
  9 49  1  0  0  0
 10 11  1  0  0  0
 10 50  1  0  0  0
 11 12  1  0  0  0
 11 14  1  0  0  0
 11 51  1  0  0  0
 12 13  2  0  0  0
 12 25  1  0  0  0
 14 15  1  0  0  0
 14 52  1  0  0  0
 14 53  1  0  0  0
 15 16  2  0  0  0
 15 18  1  0  0  0
 16 17  1  0  0  0
 16 54  1  0  0  0
 17 20  2  0  0  0
 17 55  1  0  0  0
 18 19  2  0  0  0
 18 21  1  0  0  0
 19 20  1  0  0  0
 19 24  1  0  0  0
 20 56  1  0  0  0
 21 22  2  0  0  0
 21 57  1  0  0  0
 22 23  1  0  0  0
 22 58  1  0  0  0
 23 24  2  0  0  0
 23 59  1  0  0  0
 24 60  1  0  0  0
 25 26  1  0  0  0
 25 61  1  0  0  0
 26 29  1  0  0  0
 26 27  1  0  0  0
 26 62  1  0  0  0
 27 28  2  0  0  0
 27 34  1  0  0  0
 29 30  1  0  0  0
 29 63  1  0  0  0
 29 64  1  0  0  0
 30 31  1  0  0  0
 30 65  1  0  0  0
 30 66  1  0  0  0
 31 32  1  0  0  0
 31 67  1  0  0  0
 31 68  1  0  0  0
 32 33  1  0  0  0
 32 69  1  0  0  0
 32 70  1  0  0  0
 33 71  1  0  0  0
 33 72  1  0  0  0
 33 73  1  0  0  0
M  CHG  4   1   1   9   1  33   1  34  -1
M  END
> <s_m_source_file>
../1b0h_ligand.sdf

> <i_m_source_file_index>
1

> <s_epik_input>
W05IMytdW0NIMl1bQ0gyXVtDSDJdW0NIMl1bQ0BIXShbTkgzK10pQyg9TylbTkhdW0NASF0oQyg9TylbTkhdW0NASF0oQyg9TylbT0hdKVtDSDJdW0NIMl1bQ0gyXVtDSDJdW05IMytdKVtDSDJdYzFbY0hdW2NIXVtjSF1jKGMxMilbY0hdW2NIXVtjSF1bY0hdMg==

> <s_epik_cmdline>
J2VwaWtfYXBwJywgJy1pbWFlJywgJ2xpZ2FuZF9wcm8ubWFlJywgJy1vbWFlJywgJ2xpZ2FuZF9wcmVwLm1hZScsICctbXMnLCAnMScsICctcGgnLCAnNycsICctcGh0JywgJzAuNScsICctbnQn

> <r_epik_Ionization_Penalty>
  0.1294

> <r_epik_Ionization_Penalty_Charging>
  0.1293

> <r_epik_Ionization_Penalty_Neutral>
  0.0000

> <r_epik_State_Penalty>
  0.1177

> <r_epik_Charging_Adjusted_Penalty>
0.247045917964581

> <i_epik_Tot_Q>
2

> <i_epik_Tot_abs_Q>
4

$$$$
