1b2h_ligand
                    3D
 Schrodinger Suite 2020-3.
 66 65  0  0  1  0            999 V2000
    7.0350   16.7300   15.3030 N   0  3  0  0  0  0
    6.5930   18.0400   14.7270 C   0  0  2  0  0  0
    5.3860   18.5660   15.5180 C   0  0  0  0  0  0
    4.6400   17.7880   16.1040 O   0  0  0  0  0  0
    6.2050   17.9940   13.2500 C   0  0  0  0  0  0
    5.3550   16.7740   12.8610 C   0  0  0  0  0  0
    5.1560   16.7600   11.3380 C   0  0  0  0  0  0
    6.3760   16.1890   10.6240 C   0  0  0  0  0  0
    6.5550   14.7410   10.9400 N   0  3  0  0  0  0
    5.2970   19.8800   15.6070 N   0  0  0  0  0  0
    4.2090   20.4900   16.3680 C   0  0  1  0  0  0
    4.5770   21.9150   16.8250 C   0  0  0  0  0  0
    5.5710   21.9000   18.0100 C   0  0  0  0  0  0
    5.8240   23.2770   18.5850 C   0  0  0  0  0  0
    6.7200   23.2890   19.5940 N   0  3  0  0  0  0
    2.9030   20.5330   15.5910 C   0  0  0  0  0  0
    2.7960   20.8830   14.4250 O   0  0  0  0  0  0
    1.8260   20.2050   16.3180 N   0  0  0  0  0  0
    0.4910   20.2680   15.7410 C   0  0  2  0  0  0
   -0.4770   20.8350   16.7860 C   0  0  0  0  0  0
   -1.6470   20.4320   16.8290 O   0  0  0  0  0  0
    0.0100   18.8770   15.3080 C   0  0  0  0  0  0
   -1.0150   19.0060   14.1650 C   0  0  0  0  0  0
   -1.7120   17.6980   13.9050 C   0  0  0  0  0  0
   -2.6110   17.7110   12.6760 C   0  0  0  0  0  0
   -3.6990   18.7330   12.8060 N   0  3  0  0  0  0
   -0.1140   21.6420   17.6580 O   0  5  0  0  0  0
    7.2917   16.8640   16.3642 H   0  0  0  0  0  0
    7.9174   16.3677   14.7552 H   0  0  0  0  0  0
    6.2205   15.9962   15.2126 H   0  0  0  0  0  0
    7.4831   18.6807   14.8119 H   0  0  0  0  0  0
    5.6193   18.8900   12.9967 H   0  0  0  0  0  0
    7.1149   17.9641   12.6326 H   0  0  0  0  0  0
    5.8698   15.8536   13.1739 H   0  0  0  0  0  0
    4.3766   16.8346   13.3600 H   0  0  0  0  0  0
    4.2827   16.1397   11.0880 H   0  0  0  0  0  0
    4.9907   17.7870   10.9803 H   0  0  0  0  0  0
    6.2493   16.2987    9.5368 H   0  0  0  0  0  0
    7.2766   16.7330   10.9449 H   0  0  0  0  0  0
    7.4406   14.3573   10.4122 H   0  0  0  0  0  0
    5.6645   14.1823   10.6163 H   0  0  0  0  0  0
    6.6918   14.6166   12.0243 H   0  0  0  0  0  0
    6.0428   20.5159   15.1076 H   0  0  0  0  0  0
    4.0901   19.8101   17.2245 H   0  0  0  0  0  0
    5.0433   22.4588   15.9902 H   0  0  0  0  0  0
    3.6671   22.4441   17.1445 H   0  0  0  0  0  0
    5.1701   21.2689   18.8168 H   0  0  0  0  0  0
    6.5368   21.4952   17.6734 H   0  0  0  0  0  0
    6.2116   23.9383   17.7960 H   0  0  0  0  0  0
    4.8829   23.6885   18.9788 H   0  0  0  0  0  0
    6.8495   24.3192   19.9571 H   0  0  0  0  0  0
    7.6847   22.9037   19.2323 H   0  0  0  0  0  0
    6.3561   22.6539   20.4151 H   0  0  0  0  0  0
    1.9594   19.8854   17.3620 H   0  0  0  0  0  0
    0.5753   20.9238   14.8619 H   0  0  0  0  0  0
    0.8685   18.2844   14.9590 H   0  0  0  0  0  0
   -0.4625   18.3700   16.1622 H   0  0  0  0  0  0
   -1.7714   19.7580   14.4340 H   0  0  0  0  0  0
   -0.5001   19.3170   13.2441 H   0  0  0  0  0  0
   -0.9627   16.9074   13.7516 H   0  0  0  0  0  0
   -2.3442   17.4415   14.7678 H   0  0  0  0  0  0
   -2.0113   17.9507   11.7856 H   0  0  0  0  0  0
   -3.0746   16.7214   12.5503 H   0  0  0  0  0  0
   -4.3280   18.7157   11.9037 H   0  0  0  0  0  0
   -3.2522   19.7314   12.9224 H   0  0  0  0  0  0
   -4.3155   18.5021   13.6873 H   0  0  0  0  0  0
  1  2  1  0  0  0
  1 28  1  0  0  0
  1 29  1  0  0  0
  1 30  1  0  0  0
  2  3  1  0  0  0
  2  5  1  0  0  0
  2 31  1  0  0  0
  3  4  2  0  0  0
  3 10  1  0  0  0
  5  6  1  0  0  0
  5 32  1  0  0  0
  5 33  1  0  0  0
  6  7  1  0  0  0
  6 34  1  0  0  0
  6 35  1  0  0  0
  7  8  1  0  0  0
  7 36  1  0  0  0
  7 37  1  0  0  0
  8  9  1  0  0  0
  8 38  1  0  0  0
  8 39  1  0  0  0
  9 40  1  0  0  0
  9 41  1  0  0  0
  9 42  1  0  0  0
 10 11  1  0  0  0
 10 43  1  0  0  0
 11 16  1  0  0  0
 11 12  1  0  0  0
 11 44  1  0  0  0
 12 13  1  0  0  0
 12 45  1  0  0  0
 12 46  1  0  0  0
 13 14  1  0  0  0
 13 47  1  0  0  0
 13 48  1  0  0  0
 14 15  1  0  0  0
 14 49  1  0  0  0
 14 50  1  0  0  0
 15 51  1  0  0  0
 15 52  1  0  0  0
 15 53  1  0  0  0
 16 17  2  0  0  0
 16 18  1  0  0  0
 18 19  1  0  0  0
 18 54  1  0  0  0
 19 20  1  0  0  0
 19 22  1  0  0  0
 19 55  1  0  0  0
 20 27  1  0  0  0
 20 21  2  0  0  0
 22 23  1  0  0  0
 22 56  1  0  0  0
 22 57  1  0  0  0
 23 24  1  0  0  0
 23 58  1  0  0  0
 23 59  1  0  0  0
 24 25  1  0  0  0
 24 60  1  0  0  0
 24 61  1  0  0  0
 25 26  1  0  0  0
 25 62  1  0  0  0
 25 63  1  0  0  0
 26 64  1  0  0  0
 26 65  1  0  0  0
 26 66  1  0  0  0
M  CHG  5   1   1   9   1  15   1  26   1  27  -1
M  END
> <s_m_source_file>
../1b2h_ligand.sdf

> <i_m_source_file_index>
1

> <s_epik_input>
W05IMytdW0NIMl1bQ0gyXVtDSDJdW0NIMl1bQ0BIXShbTkgzK10pQyg9TylbTkhdW0NAQEhdKFtDSDJdW0NIMl1bQ0gyXVtOSDMrXSlDKD1PKVtOSF1bQ0BIXShDKD1PKVtPSF0pW0NIMl1bQ0gyXVtDSDJdW0NIMl1bTkgzK10=

> <s_epik_cmdline>
J2VwaWtfYXBwJywgJy1pbWFlJywgJ2xpZ2FuZF9wcm8ubWFlJywgJy1vbWFlJywgJ2xpZ2FuZF9wcmVwLm1hZScsICctbXMnLCAnMScsICctcGgnLCAnNycsICctcGh0JywgJzAuNScsICctbnQn

> <r_epik_Ionization_Penalty>
  0.1236

> <r_epik_Ionization_Penalty_Charging>
  0.1236

> <r_epik_Ionization_Penalty_Neutral>
  0.0000

> <r_epik_State_Penalty>
  0.1113

> <r_epik_Charging_Adjusted_Penalty>
0.234846846985109

> <i_epik_Tot_Q>
3

> <i_epik_Tot_abs_Q>
5

$$$$
