1b2i_ligand
                    3D
 Schrodinger Suite 2020-3.
 26 26  0  0  1  0            999 V2000
    5.6330   -0.3560   -9.0440 C   0  0  2  0  0  0
    5.0730    0.7890   -9.8920 C   0  0  0  0  0  0
    3.9840    0.2530  -10.8180 C   0  0  0  0  0  0
    2.7720   -0.3120  -10.0490 C   0  0  2  0  0  0
    3.2750   -1.3200   -9.0140 C   0  0  0  0  0  0
    4.4740   -0.8420   -8.1730 C   0  0  0  0  0  0
    1.7660   -0.9960  -11.0170 C   0  0  0  0  0  0
    6.8660    0.0820   -8.2090 C   0  0  0  0  0  0
    2.4750   -1.7890  -12.0240 N   0  3  0  0  0  0
    7.4630    1.1180   -8.4980 O   0  5  0  0  0  0
    7.2650   -0.6270   -7.2870 O   0  0  0  0  0  0
    5.9954   -1.1741   -9.6838 H   0  0  0  0  0  0
    4.6464    1.5591   -9.2324 H   0  0  0  0  0  0
    5.8817    1.2289  -10.4941 H   0  0  0  0  0  0
    3.6223    1.0643  -11.4668 H   0  0  0  0  0  0
    4.3960   -0.5566  -11.4384 H   0  0  0  0  0  0
    2.2539    0.5116   -9.5360 H   0  0  0  0  0  0
    2.4658   -1.5538   -8.3065 H   0  0  0  0  0  0
    3.5937   -2.2411   -9.5239 H   0  0  0  0  0  0
    4.8114   -1.6833   -7.5498 H   0  0  0  0  0  0
    4.1319   -0.0207   -7.5261 H   0  0  0  0  0  0
    1.1006   -1.6597  -10.4454 H   0  0  0  0  0  0
    1.1671   -0.2270  -11.5268 H   0  0  0  0  0  0
    1.7458   -2.2633  -12.6972 H   0  0  0  0  0  0
    3.0726   -2.5659  -11.5247 H   0  0  0  0  0  0
    3.1391   -1.1332  -12.6062 H   0  0  0  0  0  0
  1  2  1  0  0  0
  1  6  1  0  0  0
  1  8  1  0  0  0
  1 12  1  0  0  0
  2  3  1  0  0  0
  2 13  1  0  0  0
  2 14  1  0  0  0
  3  4  1  0  0  0
  3 15  1  0  0  0
  3 16  1  0  0  0
  4  5  1  0  0  0
  4  7  1  0  0  0
  4 17  1  0  0  0
  5  6  1  0  0  0
  5 18  1  0  0  0
  5 19  1  0  0  0
  6 20  1  0  0  0
  6 21  1  0  0  0
  7  9  1  0  0  0
  7 22  1  0  0  0
  7 23  1  0  0  0
  8 10  1  0  0  0
  8 11  2  0  0  0
  9 24  1  0  0  0
  9 25  1  0  0  0
  9 26  1  0  0  0
M  CHG  2   9   1  10  -1
M  END
> <s_m_source_file>
../1b2i_ligand.sdf

> <i_m_source_file_index>
1

> <s_epik_input>
W09IXUMoPU8pW0NAQEhdMVtDSDJdW0NIMl1bQ0BIXShbQ0gyXVtDSDJdMSlbQ0gyXVtOSDMrXQ==

> <s_epik_cmdline>
J2VwaWtfYXBwJywgJy1pbWFlJywgJ2xpZ2FuZF9wcm8ubWFlJywgJy1vbWFlJywgJ2xpZ2FuZF9wcmVwLm1hZScsICctbXMnLCAnMScsICctcGgnLCAnNycsICctcGh0JywgJzAuNScsICctbnQn

> <r_lp_tautomer_probability>
1

> <r_epik_Ionization_Penalty>
  0.0034

> <r_epik_Ionization_Penalty_Charging>
  0.0034

> <r_epik_Ionization_Penalty_Neutral>
  0.0000

> <r_epik_State_Penalty>
 -0.0000

> <r_epik_Charging_Adjusted_Penalty>
0.0034178756347646

> <i_epik_Tot_Q>
0

> <i_epik_Tot_abs_Q>
2

$$$$
