1b39_ligand
                    3D
 Schrodinger Suite 2020-3.
 43 45  0  0  1  0            999 V2000
   -3.8060   25.2170   15.7960 P   0  0  0  0  0  0
   -4.1470   25.2770   17.2230 O   0  0  0  0  0  0
   -3.5140   26.5690   15.2590 O   0  5  0  0  0  0
   -4.9980   24.7420   15.0250 O   0  5  0  0  0  0
   -1.4360   24.5350   14.4010 P   0  0  1  0  0  0
   -0.7930   25.8360   14.4390 O   0  0  0  0  0  0
   -0.4340   23.4400   14.4360 O   0  5  0  0  0  0
   -2.5790   24.2690   15.4730 O   0  0  0  0  0  0
   -2.8020   25.3650   11.8640 P   0  0  1  0  0  0
   -3.8840   24.6190   11.1230 O   0  5  0  0  0  0
   -3.4190   26.6090   12.3770 O   0  0  0  0  0  0
   -2.2630   24.3570   13.0150 O   0  0  0  0  0  0
   -1.5540   25.6300   10.9420 O   0  0  0  0  0  0
   -1.2960   24.5100   10.0350 C   0  0  0  0  0  0
    0.1480   24.6480    9.5540 C   0  0  1  0  0  0
    0.2470   25.7950    8.6900 O   0  0  0  0  0  0
    1.0820   24.8900   10.7500 C   0  0  1  0  0  0
    2.3580   24.3110   10.3220 O   0  0  0  0  0  0
    1.2020   26.4580   10.6800 C   0  0  1  0  0  0
    2.4490   26.8180   11.3240 O   0  0  0  0  0  0
    1.1960   26.7160    9.1440 C   0  0  2  0  0  0
    0.5880   27.9960    8.7420 N   0  0  0  0  0  0
   -0.4270   28.5920    9.4270 C   0  0  0  0  0  0
   -0.6080   29.8390    9.2460 N   0  0  0  0  0  0
    0.2980   30.1600    8.3500 C   0  0  0  0  0  0
    0.5590   31.3880    7.7830 C   0  0  0  0  0  0
   -0.0550   32.5380    8.0200 N   0  0  0  0  0  0
    1.5820   31.4330    6.8990 N   0  0  0  0  0  0
    2.2910   30.2940    6.6180 C   0  0  0  0  0  0
    2.1100   29.0770    7.1120 N   0  0  0  0  0  0
    1.0760   29.0740    7.9910 C   0  0  0  0  0  0
   -1.4371   23.5616   10.5741 H   0  0  0  0  0  0
   -1.9945   24.5569    9.1865 H   0  0  0  0  0  0
    0.4401   23.7588    8.9761 H   0  0  0  0  0  0
    0.8157   24.4594   11.7265 H   0  0  0  0  0  0
    2.4859   23.2187   10.2981 H   0  0  0  0  0  0
    0.4696   27.0787   11.2170 H   0  0  0  0  0  0
    2.5680   26.6790   12.4087 H   0  0  0  0  0  0
    2.2016   26.6505    8.7031 H   0  0  0  0  0  0
   -1.0614   28.0219   10.1057 H   0  0  0  0  0  0
   -0.8961   32.5768    8.7279 H   0  0  0  0  0  0
    0.2763   33.4539    7.5089 H   0  0  0  0  0  0
    3.1038   30.4021    5.8999 H   0  0  0  0  0  0
  1  2  2  0  0  0
  1  3  1  0  0  0
  1  4  1  0  0  0
  1  8  1  0  0  0
  5  6  2  0  0  0
  5  7  1  0  0  0
  5  8  1  0  0  0
  5 12  1  0  0  0
  9 10  1  0  0  0
  9 11  2  0  0  0
  9 12  1  0  0  0
  9 13  1  0  0  0
 13 14  1  0  0  0
 14 15  1  0  0  0
 14 32  1  0  0  0
 14 33  1  0  0  0
 15 16  1  0  0  0
 15 17  1  0  0  0
 15 34  1  0  0  0
 16 21  1  0  0  0
 17 18  1  0  0  0
 17 19  1  0  0  0
 17 35  1  0  0  0
 18 36  1  0  0  0
 19 20  1  0  0  0
 19 21  1  0  0  0
 19 37  1  0  0  0
 20 38  1  0  0  0
 21 22  1  0  0  0
 21 39  1  0  0  0
 22 23  1  0  0  0
 22 31  1  0  0  0
 23 24  2  0  0  0
 23 40  1  0  0  0
 24 25  1  0  0  0
 25 26  2  0  0  0
 25 31  1  0  0  0
 26 27  1  0  0  0
 26 28  1  0  0  0
 27 41  1  0  0  0
 27 42  1  0  0  0
 28 29  2  0  0  0
 29 30  1  0  0  0
 29 43  1  0  0  0
 30 31  2  0  0  0
M  CHG  4   3  -1   4  -1   7  -1  10  -1
M  END
> <s_m_source_file>
../1b39_ligand.sdf

> <i_m_source_file_index>
1

> <s_epik_input>
Tz1QKFtPSF0pKFtPSF0pT1tQQEBdKD1PKShbT0hdKU9bUEBdKD1PKShbT0hdKU9bQ0gyXVtDQEhdMU9bQ0BIXShbQ0BIXShbT0hdKVtDQEBIXTFbT0hdKW4oW2NIXW4yKWMoYzIzKW5bY0hdbmMzW05IMl0=

> <s_epik_cmdline>
J2VwaWtfYXBwJywgJy1pbWFlJywgJ2xpZ2FuZF9wcm8ubWFlJywgJy1vbWFlJywgJ2xpZ2FuZF9wcmVwLm1hZScsICctbXMnLCAnMScsICctcGgnLCAnNycsICctcGh0JywgJzAuNScsICctbnQn

> <r_lp_tautomer_probability>
0.999997216410988

> <r_epik_Ionization_Penalty>
  0.0818

> <r_epik_Ionization_Penalty_Charging>
  0.0813

> <r_epik_Ionization_Penalty_Neutral>
  0.0004

> <r_epik_State_Penalty>
  0.0708

> <r_epik_Charging_Adjusted_Penalty>
0.152157994418768

> <i_epik_Tot_Q>
-4

> <i_epik_Tot_abs_Q>
4

> <s_epik_Chemistry_Notes>
This compound contains an acetal/aminal-like group ( X-CH(R)-Y where X, Y are N, S, or O) that may be acid/base labile, releasing an aldehyde.

$$$$
