1b3f_ligand
                    3D
 Schrodinger Suite 2020-3.
 64 64  0  0  1  0            999 V2000
    6.9140   16.6450   15.2960 N   0  3  0  0  0  0
    6.4130   17.9440   14.7500 C   0  0  2  0  0  0
    5.1480   18.4300   15.4470 C   0  0  0  0  0  0
    4.3320   17.5910   15.8510 O   0  0  0  0  0  0
    6.2200   17.9060   13.2230 C   0  0  0  0  0  0
    5.2860   16.7890   12.7530 C   0  0  0  0  0  0
    5.2800   16.7040   11.2170 C   0  0  0  0  0  0
    6.5930   16.0980   10.6610 C   0  0  0  0  0  0
    6.6160   14.6150   10.9480 N   0  3  0  0  0  0
    5.0070   19.7440   15.6040 N   0  0  0  0  0  0
    3.8060   20.2520   16.2970 C   0  0  2  0  0  0
    2.5570   20.1930   15.4230 C   0  0  0  0  0  0
    2.6300   20.5190   14.2370 O   0  0  0  0  0  0
    3.9920   21.7460   16.6740 C   0  0  0  0  0  0
    4.9770   21.8690   17.8130 C   0  0  0  0  0  0
    4.8140   21.3600   19.0710 N   0  3  0  0  0  0
    6.1940   22.4580   17.7740 C   0  0  0  0  0  0
    5.8910   21.6470   19.7900 C   0  0  0  0  0  0
    6.7560   22.3220   19.0340 N   0  0  0  0  0  0
    1.4200   19.8270   16.0570 N   0  0  0  0  0  0
    0.1640   19.8440   15.3010 C   0  0  2  0  0  0
   -0.8520   20.7630   16.0080 C   0  0  0  0  0  0
   -1.8330   21.1520   15.3540 O   0  5  0  0  0  0
   -0.4780   18.4580   15.1660 C   0  0  0  0  0  0
   -1.5920   18.4640   14.1110 C   0  0  0  0  0  0
   -2.4430   17.2120   14.2930 C   0  0  0  0  0  0
   -3.6670   17.2530   13.4280 C   0  0  0  0  0  0
   -3.3780   17.5310   11.9980 N   0  3  0  0  0  0
   -0.6730   21.1220   17.1810 O   0  0  0  0  0  0
    7.0336   16.7273   16.3864 H   0  0  0  0  0  0
    7.8847   16.4046   14.8377 H   0  0  0  0  0  0
    6.1922   15.8476   15.0655 H   0  0  0  0  0  0
    7.2155   18.6576   14.9882 H   0  0  0  0  0  0
    5.7891   18.8597   12.8841 H   0  0  0  0  0  0
    7.1928   17.7489   12.7342 H   0  0  0  0  0  0
    5.6288   15.8276   13.1632 H   0  0  0  0  0  0
    4.2638   16.9938   13.1040 H   0  0  0  0  0  0
    4.4439   16.0693   10.8882 H   0  0  0  0  0  0
    5.1628   17.7128   10.7944 H   0  0  0  0  0  0
    6.6426   16.2647    9.5748 H   0  0  0  0  0  0
    7.4540   16.5813   11.1458 H   0  0  0  0  0  0
    7.5467   14.1799   10.5550 H   0  0  0  0  0  0
    5.7533   14.1344   10.4635 H   0  0  0  0  0  0
    6.5647   14.4510   12.0345 H   0  0  0  0  0  0
    5.7644   20.4479   15.2287 H   0  0  0  0  0  0
    3.7058   19.5788   17.1612 H   0  0  0  0  0  0
    4.3730   22.2992   15.8030 H   0  0  0  0  0  0
    3.0249   22.1694   16.9829 H   0  0  0  0  0  0
    6.6481   22.9481   16.9127 H   0  0  0  0  0  0
    6.0442   21.3739   20.8341 H   0  0  0  0  0  0
    1.4218   19.5216   17.1137 H   0  0  0  0  0  0
    0.4649   20.2063   14.3069 H   0  0  0  0  0  0
    0.2871   17.7273   14.8648 H   0  0  0  0  0  0
   -0.9107   18.1586   16.1320 H   0  0  0  0  0  0
   -2.2147   19.3615   14.2404 H   0  0  0  0  0  0
   -1.1451   18.4696   13.1059 H   0  0  0  0  0  0
   -1.8526   16.3246   14.0210 H   0  0  0  0  0  0
   -2.7600   17.1336   15.3434 H   0  0  0  0  0  0
   -4.1821   16.2822   13.4754 H   0  0  0  0  0  0
   -4.3423   18.0443   13.7855 H   0  0  0  0  0  0
   -4.3197   17.5454   11.4297 H   0  0  0  0  0  0
   -2.7200   16.7457   11.5975 H   0  0  0  0  0  0
   -2.8802   18.5078   11.9077 H   0  0  0  0  0  0
    3.8929   20.8170   19.3296 H   0  0  0  0  0  0
  1  2  1  0  0  0
  1 30  1  0  0  0
  1 31  1  0  0  0
  1 32  1  0  0  0
  2  3  1  0  0  0
  2  5  1  0  0  0
  2 33  1  0  0  0
  3  4  2  0  0  0
  3 10  1  0  0  0
  5  6  1  0  0  0
  5 34  1  0  0  0
  5 35  1  0  0  0
  6  7  1  0  0  0
  6 36  1  0  0  0
  6 37  1  0  0  0
  7  8  1  0  0  0
  7 38  1  0  0  0
  7 39  1  0  0  0
  8  9  1  0  0  0
  8 40  1  0  0  0
  8 41  1  0  0  0
  9 42  1  0  0  0
  9 43  1  0  0  0
  9 44  1  0  0  0
 10 11  1  0  0  0
 10 45  1  0  0  0
 11 12  1  0  0  0
 11 14  1  0  0  0
 11 46  1  0  0  0
 12 13  2  0  0  0
 12 20  1  0  0  0
 14 15  1  0  0  0
 14 47  1  0  0  0
 14 48  1  0  0  0
 15 17  2  0  0  0
 15 16  1  0  0  0
 16 18  2  0  0  0
 16 64  1  0  0  0
 17 19  1  0  0  0
 17 49  1  0  0  0
 18 19  1  0  0  0
 18 50  1  0  0  0
 20 21  1  0  0  0
 20 51  1  0  0  0
 21 22  1  0  0  0
 21 24  1  0  0  0
 21 52  1  0  0  0
 22 29  2  0  0  0
 22 23  1  0  0  0
 24 25  1  0  0  0
 24 53  1  0  0  0
 24 54  1  0  0  0
 25 26  1  0  0  0
 25 55  1  0  0  0
 25 56  1  0  0  0
 26 27  1  0  0  0
 26 57  1  0  0  0
 26 58  1  0  0  0
 27 28  1  0  0  0
 27 59  1  0  0  0
 27 60  1  0  0  0
 28 61  1  0  0  0
 28 62  1  0  0  0
 28 63  1  0  0  0
M  CHG  5   1   1   9   1  16   1  23  -1  28   1
M  END
> <s_m_source_file>
../1b3f_ligand.sdf

> <i_m_source_file_index>
1

> <s_epik_input>
W05IMytdW0NIMl1bQ0gyXVtDSDJdW0NIMl1bQ0BIXShbTkgzK10pQyg9TylbTkhdW0NAQEhdKFtDSDJdYzFuW2NIXVtuSF1bY0hdMSlDKD1PKVtOSF1bQ0BIXShDKD1PKVtPSF0pW0NIMl1bQ0gyXVtDSDJdW0NIMl1bTkgzK10=

> <s_epik_cmdline>
J2VwaWtfYXBwJywgJy1pbWFlJywgJ2xpZ2FuZF9wcm8ubWFlJywgJy1vbWFlJywgJ2xpZ2FuZF9wcmVwLm1hZScsICctbXMnLCAnMScsICctcGgnLCAnNycsICctcGh0JywgJzAuNScsICctbnQn

> <r_epik_Ionization_Penalty>
  0.6278

> <r_epik_Ionization_Penalty_Charging>
  0.1264

> <r_epik_Ionization_Penalty_Neutral>
  0.5014

> <r_epik_State_Penalty>
  0.0002

> <r_epik_Charging_Adjusted_Penalty>
0.126592044472976

> <i_epik_Tot_Q>
3

> <i_epik_Tot_abs_Q>
5

$$$$
