1b3h_ligand
                    3D
 Schrodinger Suite 2020-3.
 73 73  0  0  1  0            999 V2000
    6.9910   16.6240   15.2240 N   0  3  0  0  0  0
    6.6310   17.9840   14.6770 C   0  0  2  0  0  0
    5.3960   18.5290   15.3820 C   0  0  0  0  0  0
    4.6070   17.7360   15.8990 O   0  0  0  0  0  0
    6.4400   17.9170   13.1440 C   0  0  0  0  0  0
    5.3720   16.9100   12.6970 C   0  0  0  0  0  0
    5.3310   16.7550   11.1780 C   0  0  0  0  0  0
    6.6420   16.2530   10.5790 C   0  0  0  0  0  0
    6.7580   14.7730   10.8530 N   0  3  0  0  0  0
    5.2020   19.8410   15.4620 N   0  0  0  0  0  0
    4.0680   20.4700   16.0990 C   0  0  2  0  0  0
    2.7730   20.4260   15.2790 C   0  0  0  0  0  0
    2.6950   20.7490   14.0800 O   0  0  0  0  0  0
    4.3500   21.9470   16.4480 C   0  0  0  0  0  0
    5.1730   22.0820   17.7930 C   0  0  0  0  0  0
    4.9840   23.5300   18.3200 C   0  0  0  0  0  0
    5.8770   23.8190   19.5390 C   0  0  0  0  0  0
    7.3610   23.5330   19.2530 C   0  0  0  0  0  0
    7.5790   22.1440   18.6200 C   0  0  0  0  0  0
    6.6740   21.9280   17.4160 C   0  0  0  0  0  0
    1.6840   20.0100   15.9440 N   0  0  0  0  0  0
    0.3890   19.9600   15.3340 C   0  0  2  0  0  0
   -0.5990   20.8560   16.1180 C   0  0  0  0  0  0
   -1.6080   21.2620   15.5260 O   0  5  0  0  0  0
   -0.2140   18.5380   15.2960 C   0  0  0  0  0  0
   -1.2060   18.5350   14.1010 C   0  0  0  0  0  0
   -2.1920   17.4180   14.3230 C   0  0  0  0  0  0
   -2.8130   16.8010   13.0950 C   0  0  0  0  0  0
   -3.1180   17.6700   11.9600 N   0  3  0  0  0  0
   -0.3650   21.2090   17.2690 O   0  0  0  0  0  0
    7.1229   16.6904   16.3140 H   0  0  0  0  0  0
    7.9276   16.2790   14.7617 H   0  0  0  0  0  0
    6.1849   15.9115   14.9949 H   0  0  0  0  0  0
    7.4616   18.6712   14.8959 H   0  0  0  0  0  0
    6.1347   18.9050   12.7690 H   0  0  0  0  0  0
    7.3871   17.6212   12.6691 H   0  0  0  0  0  0
    5.5895   15.9255   13.1367 H   0  0  0  0  0  0
    4.3821   17.2515   13.0340 H   0  0  0  0  0  0
    4.5474   16.0333   10.9041 H   0  0  0  0  0  0
    5.1105   17.7286   10.7159 H   0  0  0  0  0  0
    6.6430   16.4352    9.4942 H   0  0  0  0  0  0
    7.4849   16.7876   11.0413 H   0  0  0  0  0  0
    7.6988   14.3940   10.4274 H   0  0  0  0  0  0
    5.9089   14.2471   10.3920 H   0  0  0  0  0  0
    6.7508   14.5995   11.9392 H   0  0  0  0  0  0
    5.9844   20.4589   14.9972 H   0  0  0  0  0  0
    3.9712   19.8265   16.9858 H   0  0  0  0  0  0
    4.9316   22.4107   15.6376 H   0  0  0  0  0  0
    3.3974   22.4835   16.5690 H   0  0  0  0  0  0
    4.8630   21.3472   18.5506 H   0  0  0  0  0  0
    5.2433   24.2459   17.5261 H   0  0  0  0  0  0
    3.9357   23.6776   18.6187 H   0  0  0  0  0  0
    5.7813   24.8780   19.8208 H   0  0  0  0  0  0
    5.5633   23.1856   20.3818 H   0  0  0  0  0  0
    7.7526   24.2893   18.5569 H   0  0  0  0  0  0
    7.9297   23.5712   20.1938 H   0  0  0  0  0  0
    8.6241   22.0517   18.2894 H   0  0  0  0  0  0
    7.3593   21.3636   19.3635 H   0  0  0  0  0  0
    6.8519   20.9152   17.0253 H   0  0  0  0  0  0
    6.9368   22.6691   16.6468 H   0  0  0  0  0  0
    1.8106   19.7011   16.9921 H   0  0  0  0  0  0
    0.6109   20.3168   14.3174 H   0  0  0  0  0  0
    0.5907   17.8023   15.1501 H   0  0  0  0  0  0
   -0.7304   18.3332   16.2454 H   0  0  0  0  0  0
   -1.7287   19.5018   14.0560 H   0  0  0  0  0  0
   -0.6516   18.3739   13.1646 H   0  0  0  0  0  0
   -1.6959   16.5907   14.8516 H   0  0  0  0  0  0
   -3.0339   17.7868   14.9273 H   0  0  0  0  0  0
   -2.1379   16.0332   12.6891 H   0  0  0  0  0  0
   -3.7746   16.3390   13.3631 H   0  0  0  0  0  0
   -3.5630   17.0730   11.1503 H   0  0  0  0  0  0
   -2.1919   18.1425   11.6008 H   0  0  0  0  0  0
   -3.8286   18.4484   12.2748 H   0  0  0  0  0  0
  1  2  1  0  0  0
  1 31  1  0  0  0
  1 32  1  0  0  0
  1 33  1  0  0  0
  2  3  1  0  0  0
  2  5  1  0  0  0
  2 34  1  0  0  0
  3  4  2  0  0  0
  3 10  1  0  0  0
  5  6  1  0  0  0
  5 35  1  0  0  0
  5 36  1  0  0  0
  6  7  1  0  0  0
  6 37  1  0  0  0
  6 38  1  0  0  0
  7  8  1  0  0  0
  7 39  1  0  0  0
  7 40  1  0  0  0
  8  9  1  0  0  0
  8 41  1  0  0  0
  8 42  1  0  0  0
  9 43  1  0  0  0
  9 44  1  0  0  0
  9 45  1  0  0  0
 10 11  1  0  0  0
 10 46  1  0  0  0
 11 14  1  0  0  0
 11 12  1  0  0  0
 11 47  1  0  0  0
 12 13  2  0  0  0
 12 21  1  0  0  0
 14 15  1  0  0  0
 14 48  1  0  0  0
 14 49  1  0  0  0
 15 20  1  0  0  0
 15 16  1  0  0  0
 15 50  1  0  0  0
 16 17  1  0  0  0
 16 51  1  0  0  0
 16 52  1  0  0  0
 17 18  1  0  0  0
 17 53  1  0  0  0
 17 54  1  0  0  0
 18 19  1  0  0  0
 18 55  1  0  0  0
 18 56  1  0  0  0
 19 20  1  0  0  0
 19 57  1  0  0  0
 19 58  1  0  0  0
 20 59  1  0  0  0
 20 60  1  0  0  0
 21 22  1  0  0  0
 21 61  1  0  0  0
 22 23  1  0  0  0
 22 25  1  0  0  0
 22 62  1  0  0  0
 23 30  2  0  0  0
 23 24  1  0  0  0
 25 26  1  0  0  0
 25 63  1  0  0  0
 25 64  1  0  0  0
 26 27  1  0  0  0
 26 65  1  0  0  0
 26 66  1  0  0  0
 27 28  1  0  0  0
 27 67  1  0  0  0
 27 68  1  0  0  0
 28 29  1  0  0  0
 28 69  1  0  0  0
 28 70  1  0  0  0
 29 71  1  0  0  0
 29 72  1  0  0  0
 29 73  1  0  0  0
M  CHG  4   1   1   9   1  24  -1  29   1
M  END
> <s_m_source_file>
../1b3h_ligand.sdf

> <i_m_source_file_index>
1

> <s_epik_input>
W05IMytdW0NIMl1bQ0gyXVtDSDJdW0NIMl1bQ0BIXShbTkgzK10pQyg9TylbTkhdW0NAQEhdKFtDSDJdW0NIXTFbQ0gyXVtDSDJdW0NIMl1bQ0gyXVtDSDJdMSlDKD1PKVtOSF1bQ0BIXShDKD1PKVtPSF0pW0NIMl1bQ0gyXVtDSDJdW0NIMl1bTkgzK10=

> <s_epik_cmdline>
J2VwaWtfYXBwJywgJy1pbWFlJywgJ2xpZ2FuZF9wcm8ubWFlJywgJy1vbWFlJywgJ2xpZ2FuZF9wcmVwLm1hZScsICctbXMnLCAnMScsICctcGgnLCAnNycsICctcGh0JywgJzAuNScsICctbnQn

> <r_epik_Ionization_Penalty>
  0.1157

> <r_epik_Ionization_Penalty_Charging>
  0.1157

> <r_epik_Ionization_Penalty_Neutral>
  0.0000

> <r_epik_State_Penalty>
  0.1043

> <r_epik_Charging_Adjusted_Penalty>
0.219996361845988

> <i_epik_Tot_Q>
2

> <i_epik_Tot_abs_Q>
4

$$$$
