1b3l_ligand
                    3D
 Schrodinger Suite 2020-3.
 54 53  0  0  1  0            999 V2000
   55.2420    6.2450   94.2520 N   0  3  0  0  0  0
   54.8870    4.8000   94.0990 C   0  0  2  0  0  0
   55.7900    4.1440   93.0250 C   0  0  0  0  0  0
   56.2220    4.8330   92.0790 O   0  0  0  0  0  0
   53.4070    4.6400   93.7230 C   0  0  0  0  0  0
   52.9970    5.5020   92.5310 C   0  0  0  0  0  0
   51.5180    5.2160   92.1420 C   0  0  0  0  0  0
   50.6320    6.1100   92.9960 C   0  0  0  0  0  0
   50.9360    7.5370   92.8540 N   0  3  0  0  0  0
   56.0520    2.8700   93.2420 N   0  0  0  0  0  0
   56.9980    2.1730   92.3600 C   0  0  0  0  0  0
   56.3340    1.7810   91.0490 C   0  0  0  0  0  0
   55.1590    1.4030   91.0950 O   0  0  0  0  0  0
   57.0540    1.8450   89.9370 N   0  0  0  0  0  0
   56.5760    1.3980   88.6360 C   0  0  2  0  0  0
   57.4930    0.3690   87.9530 C   0  0  0  0  0  0
   56.9740   -0.4330   87.1210 O   0  5  0  0  0  0
   56.4110    2.5450   87.6560 C   0  0  0  0  0  0
   55.3690    2.0920   86.5410 C   0  0  0  0  0  0
   55.3460    3.2130   85.5280 C   0  0  0  0  0  0
   54.6270    2.7790   84.2340 C   0  0  0  0  0  0
   53.4400    1.9760   84.5750 N   0  3  0  0  0  0
   58.7360    0.3540   88.1410 O   0  0  0  0  0  0
   54.5962    6.7023   95.0161 H   0  0  0  0  0  0
   55.0967    6.7619   93.2919 H   0  0  0  0  0  0
   56.2942    6.3334   94.5605 H   0  0  0  0  0  0
   55.0544    4.3256   95.0772 H   0  0  0  0  0  0
   53.2067    3.5907   93.4607 H   0  0  0  0  0  0
   52.7781    4.9309   94.5773 H   0  0  0  0  0  0
   53.1001    6.5650   92.7945 H   0  0  0  0  0  0
   53.6452    5.2726   91.6724 H   0  0  0  0  0  0
   51.3699    5.4388   91.0750 H   0  0  0  0  0  0
   51.2873    4.1572   92.3310 H   0  0  0  0  0  0
   49.5801    5.9661   92.7084 H   0  0  0  0  0  0
   50.7611    5.8486   94.0567 H   0  0  0  0  0  0
   50.2608    8.1214   93.4964 H   0  0  0  0  0  0
   50.7971    7.8389   91.8054 H   0  0  0  0  0  0
   51.9782    7.7214   93.1537 H   0  0  0  0  0  0
   55.5722    2.3291   94.0710 H   0  0  0  0  0  0
   57.8494    2.8339   92.1402 H   0  0  0  0  0  0
   57.3603    1.2616   92.8580 H   0  0  0  0  0  0
   58.0659    2.2647   90.0367 H   0  0  0  0  0  0
   55.6104    0.9544   88.9202 H   0  0  0  0  0  0
   56.0364    3.4314   88.1888 H   0  0  0  0  0  0
   57.3830    2.7771   87.1962 H   0  0  0  0  0  0
   55.7050    1.1480   86.0871 H   0  0  0  0  0  0
   54.3803    1.9464   87.0006 H   0  0  0  0  0  0
   54.8156    4.0788   85.9512 H   0  0  0  0  0  0
   56.3774    3.5017   85.2770 H   0  0  0  0  0  0
   54.3158    3.6711   83.6706 H   0  0  0  0  0  0
   55.3115    2.1769   83.6184 H   0  0  0  0  0  0
   52.9285    1.6673   83.6514 H   0  0  0  0  0  0
   52.7547    2.5776   85.1902 H   0  0  0  0  0  0
   53.7505    1.0835   85.1380 H   0  0  0  0  0  0
  1  2  1  0  0  0
  1 24  1  0  0  0
  1 25  1  0  0  0
  1 26  1  0  0  0
  2  5  1  0  0  0
  2  3  1  0  0  0
  2 27  1  0  0  0
  3  4  2  0  0  0
  3 10  1  0  0  0
  5  6  1  0  0  0
  5 28  1  0  0  0
  5 29  1  0  0  0
  6  7  1  0  0  0
  6 30  1  0  0  0
  6 31  1  0  0  0
  7  8  1  0  0  0
  7 32  1  0  0  0
  7 33  1  0  0  0
  8  9  1  0  0  0
  8 34  1  0  0  0
  8 35  1  0  0  0
  9 36  1  0  0  0
  9 37  1  0  0  0
  9 38  1  0  0  0
 10 11  1  0  0  0
 10 39  1  0  0  0
 11 12  1  0  0  0
 11 40  1  0  0  0
 11 41  1  0  0  0
 12 13  2  0  0  0
 12 14  1  0  0  0
 14 15  1  0  0  0
 14 42  1  0  0  0
 15 18  1  0  0  0
 15 16  1  0  0  0
 15 43  1  0  0  0
 16 17  1  0  0  0
 16 23  2  0  0  0
 18 19  1  0  0  0
 18 44  1  0  0  0
 18 45  1  0  0  0
 19 20  1  0  0  0
 19 46  1  0  0  0
 19 47  1  0  0  0
 20 21  1  0  0  0
 20 48  1  0  0  0
 20 49  1  0  0  0
 21 22  1  0  0  0
 21 50  1  0  0  0
 21 51  1  0  0  0
 22 52  1  0  0  0
 22 53  1  0  0  0
 22 54  1  0  0  0
M  CHG  4   1   1   9   1  17  -1  22   1
M  END
> <s_m_source_file>
../1b3l_ligand.sdf

> <i_m_source_file_index>
1

> <s_epik_input>
W05IMytdW0NIMl1bQ0gyXVtDSDJdW0NIMl1bQ0BIXShbTkgzK10pQyg9TylbTkhdW0NIMl1DKD1PKVtOSF1bQ0BIXShDKD1PKVtPSF0pW0NIMl1bQ0gyXVtDSDJdW0NIMl1bTkgzK10=

> <s_epik_cmdline>
J2VwaWtfYXBwJywgJy1pbWFlJywgJ2xpZ2FuZF9wcm8ubWFlJywgJy1vbWFlJywgJ2xpZ2FuZF9wcmVwLm1hZScsICctbXMnLCAnMScsICctcGgnLCAnNycsICctcGh0JywgJzAuNScsICctbnQn

> <r_epik_Ionization_Penalty>
  0.1199

> <r_epik_Ionization_Penalty_Charging>
  0.1199

> <r_epik_Ionization_Penalty_Neutral>
  0.0000

> <r_epik_State_Penalty>
  0.1084

> <r_epik_Charging_Adjusted_Penalty>
0.228328126562642

> <i_epik_Tot_Q>
2

> <i_epik_Tot_abs_Q>
4

$$$$
