1b40_ligand
                    3D
 Schrodinger Suite 2020-3.
 67 67  0  0  1  0            999 V2000
    6.9560   16.5790   15.1480 N   0  3  0  0  0  0
    6.5760   17.9380   14.6390 C   0  0  2  0  0  0
    5.3270   18.4650   15.3500 C   0  0  0  0  0  0
    4.4760   17.6870   15.8460 O   0  0  0  0  0  0
    6.3520   17.8970   13.1250 C   0  0  0  0  0  0
    5.4560   16.7990   12.6030 C   0  0  0  0  0  0
    5.2730   16.8330   11.0980 C   0  0  0  0  0  0
    6.4560   16.2780   10.3050 C   0  0  0  0  0  0
    6.7210   14.8680   10.7620 N   0  3  0  0  0  0
    5.2000   19.7800   15.4660 N   0  0  0  0  0  0
    4.0710   20.3970   16.1250 C   0  0  2  0  0  0
    2.7630   20.2960   15.3130 C   0  0  0  0  0  0
    2.7880   20.6020   14.1150 O   0  0  0  0  0  0
    4.3790   21.8900   16.3530 C   0  0  0  0  0  0
    5.4870   22.1170   17.3760 C   0  0  0  0  0  0
    6.8160   21.9900   17.0010 C   0  0  0  0  0  0
    5.1730   22.4340   18.6650 C   0  0  0  0  0  0
    7.8090   22.2020   17.9270 C   0  0  0  0  0  0
    6.1840   22.6350   19.6000 C   0  0  0  0  0  0
    7.5210   22.5190   19.2480 C   0  0  0  0  0  0
    1.6540   19.9130   15.9560 N   0  0  0  0  0  0
    0.3810   19.8730   15.2810 C   0  0  2  0  0  0
   -0.6880   20.6340   16.0880 C   0  0  0  0  0  0
   -1.7850   20.8460   15.5250 O   0  0  0  0  0  0
   -0.1240   18.4180   15.1220 C   0  0  0  0  0  0
   -1.1290   18.3540   13.9710 C   0  0  0  0  0  0
   -2.2490   17.3730   14.2250 C   0  0  0  0  0  0
   -3.3240   17.3910   13.1230 C   0  0  0  0  0  0
   -2.7190   16.9480   11.8380 N   0  3  0  0  0  0
   -0.4670   21.0262   17.2648 O   0  5  0  0  0  0
    7.8546   16.2277   14.6197 H   0  0  0  0  0  0
    6.1283   15.8765   14.9709 H   0  0  0  0  0  0
    7.1638   16.6364   16.2267 H   0  0  0  0  0  0
    7.4171   18.6098   14.8652 H   0  0  0  0  0  0
    5.8915   18.8405   12.7968 H   0  0  0  0  0  0
    7.3174   17.7634   12.6150 H   0  0  0  0  0  0
    5.8872   15.8204   12.8606 H   0  0  0  0  0  0
    4.4590   16.8917   13.0584 H   0  0  0  0  0  0
    4.3927   16.2339   10.8221 H   0  0  0  0  0  0
    5.1265   17.8726   10.7698 H   0  0  0  0  0  0
    6.2137   16.2847    9.2320 H   0  0  0  0  0  0
    7.3433   16.9030   10.4844 H   0  0  0  0  0  0
    7.5710   14.4540   10.1998 H   0  0  0  0  0  0
    5.8280   14.2509   10.5838 H   0  0  0  0  0  0
    6.9576   14.8691   11.8363 H   0  0  0  0  0  0
    5.9961   20.4063   15.0370 H   0  0  0  0  0  0
    3.9745   19.8173   17.0548 H   0  0  0  0  0  0
    4.6990   22.3473   15.4051 H   0  0  0  0  0  0
    3.4752   22.3991   16.7190 H   0  0  0  0  0  0
    7.0720   21.7230   15.9757 H   0  0  0  0  0  0
    4.1290   22.5300   18.9631 H   0  0  0  0  0  0
    8.8505   22.1191   17.6163 H   0  0  0  0  0  0
    5.9208   22.8880   20.6270 H   0  0  0  0  0  0
    8.3144   22.6708   19.9798 H   0  0  0  0  0  0
    1.7239   19.6260   17.0156 H   0  0  0  0  0  0
    0.6008   20.3506   14.3148 H   0  0  0  0  0  0
    0.7273   17.7562   14.9045 H   0  0  0  0  0  0
   -0.6108   18.0949   16.0540 H   0  0  0  0  0  0
   -1.5794   19.3464   13.8219 H   0  0  0  0  0  0
   -0.6130   18.0435   13.0505 H   0  0  0  0  0  0
   -1.8390   16.3535   14.2759 H   0  0  0  0  0  0
   -2.7420   17.6178   15.1774 H   0  0  0  0  0  0
   -4.1428   16.7100   13.3984 H   0  0  0  0  0  0
   -3.7180   18.4120   13.0117 H   0  0  0  0  0  0
   -3.4851   16.9599   11.0487 H   0  0  0  0  0  0
   -2.3248   15.9273   11.9510 H   0  0  0  0  0  0
   -1.8999   17.6293   11.5643 H   0  0  0  0  0  0
  1  2  1  0  0  0
  1 31  1  0  0  0
  1 32  1  0  0  0
  1 33  1  0  0  0
  2  5  1  0  0  0
  2  3  1  0  0  0
  2 34  1  0  0  0
  3  4  2  0  0  0
  3 10  1  0  0  0
  5  6  1  0  0  0
  5 35  1  0  0  0
  5 36  1  0  0  0
  6  7  1  0  0  0
  6 37  1  0  0  0
  6 38  1  0  0  0
  7  8  1  0  0  0
  7 39  1  0  0  0
  7 40  1  0  0  0
  8  9  1  0  0  0
  8 41  1  0  0  0
  8 42  1  0  0  0
  9 43  1  0  0  0
  9 44  1  0  0  0
  9 45  1  0  0  0
 10 11  1  0  0  0
 10 46  1  0  0  0
 11 14  1  0  0  0
 11 12  1  0  0  0
 11 47  1  0  0  0
 12 13  2  0  0  0
 12 21  1  0  0  0
 14 15  1  0  0  0
 14 48  1  0  0  0
 14 49  1  0  0  0
 15 16  2  0  0  0
 15 17  1  0  0  0
 16 18  1  0  0  0
 16 50  1  0  0  0
 17 19  2  0  0  0
 17 51  1  0  0  0
 18 20  2  0  0  0
 18 52  1  0  0  0
 19 20  1  0  0  0
 19 53  1  0  0  0
 20 54  1  0  0  0
 21 22  1  0  0  0
 21 55  1  0  0  0
 22 25  1  0  0  0
 22 23  1  0  0  0
 22 56  1  0  0  0
 23 24  2  0  0  0
 23 30  1  0  0  0
 25 26  1  0  0  0
 25 57  1  0  0  0
 25 58  1  0  0  0
 26 27  1  0  0  0
 26 59  1  0  0  0
 26 60  1  0  0  0
 27 28  1  0  0  0
 27 61  1  0  0  0
 27 62  1  0  0  0
 28 29  1  0  0  0
 28 63  1  0  0  0
 28 64  1  0  0  0
 29 65  1  0  0  0
 29 66  1  0  0  0
 29 67  1  0  0  0
M  CHG  4   1   1   9   1  29   1  30  -1
M  END
> <s_m_source_file>
../1b40_ligand.sdf

> <i_m_source_file_index>
1

> <s_epik_input>
W05IMytdW0NIMl1bQ0gyXVtDSDJdW0NIMl1bQ0BIXShbTkgzK10pQyg9TylbTkhdW0NAQEhdKFtDSDJdYzFbY0hdW2NIXVtjSF1bY0hdW2NIXTEpQyg9TylbTkhdW0NASF0oQyg9TylbT0hdKVtDSDJdW0NIMl1bQ0gyXVtDSDJdW05IMytd

> <s_epik_cmdline>
J2VwaWtfYXBwJywgJy1pbWFlJywgJ2xpZ2FuZF9wcm8ubWFlJywgJy1vbWFlJywgJ2xpZ2FuZF9wcmVwLm1hZScsICctbXMnLCAnMScsICctcGgnLCAnNycsICctcGh0JywgJzAuNScsICctbnQn

> <r_epik_Ionization_Penalty>
  0.1256

> <r_epik_Ionization_Penalty_Charging>
  0.1256

> <r_epik_Ionization_Penalty_Neutral>
  0.0000

> <r_epik_State_Penalty>
  0.1140

> <r_epik_Charging_Adjusted_Penalty>
0.239654592100275

> <i_epik_Tot_Q>
2

> <i_epik_Tot_abs_Q>
4

$$$$
