1b42_ligand
                    3D
 Schrodinger Suite 2020-3.
 19 20  0  0  1  0            999 V2000
   18.5840   12.3140   19.6800 N   0  0  0  0  0  0
   18.9520   13.3950   18.9240 C   0  0  0  0  0  0
   18.3390   14.5040   19.2460 N   0  0  0  0  0  0
   17.4970   14.1420   20.3050 C   0  0  0  0  0  0
   16.5740   14.8800   21.1070 C   0  0  0  0  0  0
   16.3460   16.1760   20.9850 N   0  0  0  0  0  0
   15.9140   14.2170   22.0590 N   0  3  0  0  0  0
   16.1580   12.9120   22.2200 C   0  0  0  0  0  0
   16.9980   12.0940   21.5610 N   0  0  0  0  0  0
   17.6440   12.7980   20.5810 C   0  0  0  0  0  0
   14.9780   14.9840   22.8580 C   0  0  0  0  0  0
   19.6906   13.3360   18.1246 H   0  0  0  0  0  0
   16.8710   16.7564   20.2120 H   0  0  0  0  0  0
   15.6312   16.6743   21.6564 H   0  0  0  0  0  0
   15.5833   12.4341   23.0134 H   0  0  0  0  0  0
   14.9730   16.0290   22.5144 H   0  0  0  0  0  0
   15.2815   14.9468   23.9146 H   0  0  0  0  0  0
   13.9695   14.5580   22.7510 H   0  0  0  0  0  0
   18.8678   11.2514   19.6989 H   0  0  0  0  0  0
  1 10  1  0  0  0
  1  2  1  0  0  0
  1 19  1  0  0  0
  2  3  2  0  0  0
  2 12  1  0  0  0
  3  4  1  0  0  0
  4 10  1  0  0  0
  4  5  2  0  0  0
  5  7  1  0  0  0
  5  6  1  0  0  0
  6 13  1  0  0  0
  6 14  1  0  0  0
  7 11  1  0  0  0
  7  8  2  0  0  0
  8  9  1  0  0  0
  8 15  1  0  0  0
  9 10  2  0  0  0
 11 16  1  0  0  0
 11 17  1  0  0  0
 11 18  1  0  0  0
M  CHG  1   7   1
M  END
> <s_m_source_file>
../1b42_ligand.sdf

> <i_m_source_file_index>
1

> <s_epik_input>
bjFbY0hdbmMoYzEyKW5bY0hdbihbQ0gzXSljMltOSDJd

> <s_epik_cmdline>
J2VwaWtfYXBwJywgJy1pbWFlJywgJ2xpZ2FuZF9wcm8ubWFlJywgJy1vbWFlJywgJ2xpZ2FuZF9wcmVwLm1hZScsICctbXMnLCAnMScsICctcGgnLCAnNycsICctcGh0JywgJzAuNScsICctbnQn

> <r_lp_tautomer_probability>
0.983818537881857

> <r_epik_Ionization_Penalty>
  0.0422

> <r_epik_Ionization_Penalty_Charging>
  0.0000

> <r_epik_Ionization_Penalty_Neutral>
  0.0422

> <r_epik_State_Penalty>
  0.0736

> <r_epik_Charging_Adjusted_Penalty>
0.0736436756349222

> <i_epik_Tot_Q>
1

> <i_epik_Tot_abs_Q>
1

$$$$
