1b46_ligand
                    3D
 Schrodinger Suite 2020-3.
 61 61  0  0  1  0            999 V2000
    6.7660   16.3870   15.1390 N   0  3  0  0  0  0
    6.3140   17.7280   14.6600 C   0  0  2  0  0  0
    5.0830   18.1570   15.4200 C   0  0  0  0  0  0
    4.1450   17.3810   15.6580 O   0  0  0  0  0  0
    6.0390   17.6230   13.1280 C   0  0  0  0  0  0
    5.0770   16.5230   12.6910 C   0  0  0  0  0  0
    4.9850   16.4040   11.1500 C   0  0  0  0  0  0
    6.2050   15.7360   10.5340 C   0  0  0  0  0  0
    6.3720   14.3080   10.9700 N   0  3  0  0  0  0
    4.9700   19.4160   15.8200 N   0  0  0  0  0  0
    3.7360   19.9220   16.4280 C   0  0  2  0  0  0
    2.5470   19.8630   15.4810 C   0  0  0  0  0  0
    2.6260   20.1430   14.2660 O   0  0  0  0  0  0
    4.0770   21.3960   16.7230 C   0  0  0  0  0  0
    5.5800   21.3400   16.8930 C   0  0  0  0  0  0
    6.0190   20.4540   15.7250 C   0  0  0  0  0  0
    1.3760   19.5380   16.0320 N   0  0  0  0  0  0
    0.1360   19.4660   15.3030 C   0  0  2  0  0  0
   -0.9460   20.2840   16.0330 C   0  0  0  0  0  0
   -1.9040   20.6800   15.3660 O   0  0  0  0  0  0
   -0.4030   18.0340   15.1640 C   0  0  0  0  0  0
   -1.4620   18.0400   14.0310 C   0  0  0  0  0  0
   -2.1740   16.6980   14.0750 C   0  0  0  0  0  0
   -3.4740   16.7950   13.2670 C   0  0  0  0  0  0
   -3.0760   16.7440   11.8380 N   0  3  0  0  0  0
   -0.7610   20.6360   17.2110 O   0  5  0  0  0  0
    7.6631   16.0814   14.5806 H   0  0  0  0  0  0
    5.9649   15.6507   14.9772 H   0  0  0  0  0  0
    7.0027   16.4415   16.2118 H   0  0  0  0  0  0
    7.0902   18.4770   14.8758 H   0  0  0  0  0  0
    5.6044   18.5672   12.7680 H   0  0  0  0  0  0
    6.9833   17.4286   12.5984 H   0  0  0  0  0  0
    5.4205   15.5564   13.0882 H   0  0  0  0  0  0
    4.0705   16.7413   13.0773 H   0  0  0  0  0  0
    4.1030   15.8045   10.8806 H   0  0  0  0  0  0
    4.8945   17.4079   10.7095 H   0  0  0  0  0  0
    6.1126   15.7431    9.4379 H   0  0  0  0  0  0
    7.1116   16.2846   10.8291 H   0  0  0  0  0  0
    7.2669   13.8814   10.4934 H   0  0  0  0  0  0
    5.4862   13.7278   10.6723 H   0  0  0  0  0  0
    6.4852   14.2694   12.0635 H   0  0  0  0  0  0
    3.4708   19.2974   17.2938 H   0  0  0  0  0  0
    3.7611   22.0221   15.8755 H   0  0  0  0  0  0
    3.5510   21.7189   17.6335 H   0  0  0  0  0  0
    5.9939   22.3574   16.8335 H   0  0  0  0  0  0
    5.8222   20.9024   17.8727 H   0  0  0  0  0  0
    7.0077   19.9888   15.8520 H   0  0  0  0  0  0
    5.9662   20.9396   14.7394 H   0  0  0  0  0  0
    1.3941   19.3178   17.1096 H   0  0  0  0  0  0
    0.4198   19.8697   14.3199 H   0  0  0  0  0  0
    0.4240   17.3538   14.9124 H   0  0  0  0  0  0
   -0.8597   17.7202   16.1143 H   0  0  0  0  0  0
   -2.1739   18.8616   14.1989 H   0  0  0  0  0  0
   -0.9613   18.1810   13.0618 H   0  0  0  0  0  0
   -1.5244   15.9239   13.6405 H   0  0  0  0  0  0
   -2.4048   16.4394   15.1190 H   0  0  0  0  0  0
   -4.1304   15.9512   13.5259 H   0  0  0  0  0  0
   -3.9828   17.7412   13.5032 H   0  0  0  0  0  0
   -3.9732   16.8100   11.2049 H   0  0  0  0  0  0
   -2.5538   15.7971   11.6364 H   0  0  0  0  0  0
   -2.4061   17.5872   11.6137 H   0  0  0  0  0  0
  1  2  1  0  0  0
  1 27  1  0  0  0
  1 28  1  0  0  0
  1 29  1  0  0  0
  2  5  1  0  0  0
  2  3  1  0  0  0
  2 30  1  0  0  0
  3  4  2  0  0  0
  3 10  1  0  0  0
  5  6  1  0  0  0
  5 31  1  0  0  0
  5 32  1  0  0  0
  6  7  1  0  0  0
  6 33  1  0  0  0
  6 34  1  0  0  0
  7  8  1  0  0  0
  7 35  1  0  0  0
  7 36  1  0  0  0
  8  9  1  0  0  0
  8 37  1  0  0  0
  8 38  1  0  0  0
  9 39  1  0  0  0
  9 40  1  0  0  0
  9 41  1  0  0  0
 10 11  1  0  0  0
 10 16  1  0  0  0
 11 12  1  0  0  0
 11 14  1  0  0  0
 11 42  1  0  0  0
 12 13  2  0  0  0
 12 17  1  0  0  0
 14 15  1  0  0  0
 14 43  1  0  0  0
 14 44  1  0  0  0
 15 16  1  0  0  0
 15 45  1  0  0  0
 15 46  1  0  0  0
 16 47  1  0  0  0
 16 48  1  0  0  0
 17 18  1  0  0  0
 17 49  1  0  0  0
 18 21  1  0  0  0
 18 19  1  0  0  0
 18 50  1  0  0  0
 19 20  2  0  0  0
 19 26  1  0  0  0
 21 22  1  0  0  0
 21 51  1  0  0  0
 21 52  1  0  0  0
 22 23  1  0  0  0
 22 53  1  0  0  0
 22 54  1  0  0  0
 23 24  1  0  0  0
 23 55  1  0  0  0
 23 56  1  0  0  0
 24 25  1  0  0  0
 24 57  1  0  0  0
 24 58  1  0  0  0
 25 59  1  0  0  0
 25 60  1  0  0  0
 25 61  1  0  0  0
M  CHG  4   1   1   9   1  25   1  26  -1
M  END
> <s_m_source_file>
../1b46_ligand.sdf

> <i_m_source_file_index>
1

> <s_epik_input>
W05IMytdW0NIMl1bQ0gyXVtDSDJdW0NIMl1bQ0BIXShbTkgzK10pQyg9TylOMVtDQEBIXShbQ0gyXVtDSDJdW0NIMl0xKUMoPU8pW05IXVtDQEhdKEMoPU8pW09IXSlbQ0gyXVtDSDJdW0NIMl1bQ0gyXVtOSDMrXQ==

> <s_epik_cmdline>
J2VwaWtfYXBwJywgJy1pbWFlJywgJ2xpZ2FuZF9wcm8ubWFlJywgJy1vbWFlJywgJ2xpZ2FuZF9wcmVwLm1hZScsICctbXMnLCAnMScsICctcGgnLCAnNycsICctcGh0JywgJzAuNScsICctbnQn

> <r_epik_Ionization_Penalty>
  0.1127

> <r_epik_Ionization_Penalty_Charging>
  0.1127

> <r_epik_Ionization_Penalty_Neutral>
  0.0000

> <r_epik_State_Penalty>
  0.1013

> <r_epik_Charging_Adjusted_Penalty>
0.213957309536515

> <i_epik_Tot_Q>
2

> <i_epik_Tot_abs_Q>
4

$$$$
