1b4d_ligand
                    3D
 Schrodinger Suite 2020-3.
 35 35  0  0  1  0            999 V2000
   33.3630   25.2410   28.1040 N   0  0  0  0  0  0
   33.9560   23.1370   25.8820 C   0  0  1  0  0  0
   34.1310   24.4680   25.5230 O   0  0  0  0  0  0
   32.3710   21.1550   25.6640 C   0  0  2  0  0  0
   32.2940   21.0510   27.2240 C   0  0  1  0  0  0
   32.1090   19.6110   27.6020 C   0  0  0  0  0  0
   33.9520   22.9090   27.4640 C   0  0  1  0  0  0
   32.6680   22.6480   25.2640 C   0  0  2  0  0  0
   32.7830   22.7610   23.8650 O   0  0  0  0  0  0
   31.1550   20.7510   25.0820 O   0  0  0  0  0  0
   33.5270   21.5500   27.8120 O   0  0  0  0  0  0
   35.3250   22.9710   27.9110 N   0  0  0  0  0  0
   33.2170   18.8720   27.1250 O   0  0  0  0  0  0
   35.7640   23.3140   29.1180 C   0  0  0  0  0  0
   35.0150   23.5810   30.0650 O   0  0  0  0  0  0
   37.6990   23.6180   30.5550 C   0  0  0  0  0  0
   37.1620   23.3150   29.2510 O   0  0  0  0  0  0
   33.0630   23.9520   28.2370 C   0  0  0  0  0  0
   31.9930   23.5720   28.7320 O   0  0  0  0  0  0
   34.3239   25.5390   27.6592 H   0  0  0  0  0  0
   32.6502   26.0090   28.4388 H   0  0  0  0  0  0
   34.8268   22.6583   25.4103 H   0  0  0  0  0  0
   35.0161   25.0200   25.8721 H   0  0  0  0  0  0
   33.0940   20.4400   25.2444 H   0  0  0  0  0  0
   31.4814   21.6556   27.6531 H   0  0  0  0  0  0
   32.0451   19.5246   28.6967 H   0  0  0  0  0  0
   31.1820   19.2293   27.1494 H   0  0  0  0  0  0
   31.8406   23.3145   25.5490 H   0  0  0  0  0  0
   32.9909   23.7395   23.4075 H   0  0  0  0  0  0
   30.7773   19.7314   25.2489 H   0  0  0  0  0  0
   36.1409   22.7168   27.2184 H   0  0  0  0  0  0
   33.2719   17.7876   27.3013 H   0  0  0  0  0  0
   38.7978   23.5841   30.5160 H   0  0  0  0  0  0
   37.3349   22.8776   31.2825 H   0  0  0  0  0  0
   37.3738   24.6233   30.8609 H   0  0  0  0  0  0
  1 18  1  0  0  0
  1 20  1  0  0  0
  1 21  1  0  0  0
  2  3  1  0  0  0
  2  7  1  0  0  0
  2  8  1  0  0  0
  2 22  1  0  0  0
  3 23  1  0  0  0
  4  5  1  0  0  0
  4  8  1  0  0  0
  4 10  1  0  0  0
  4 24  1  0  0  0
  5  6  1  0  0  0
  5 11  1  0  0  0
  5 25  1  0  0  0
  6 13  1  0  0  0
  6 26  1  0  0  0
  6 27  1  0  0  0
  7 11  1  0  0  0
  7 12  1  0  0  0
  7 18  1  0  0  0
  8  9  1  0  0  0
  8 28  1  0  0  0
  9 29  1  0  0  0
 10 30  1  0  0  0
 12 14  1  0  0  0
 12 31  1  0  0  0
 13 32  1  0  0  0
 14 15  2  0  0  0
 14 17  1  0  0  0
 16 17  1  0  0  0
 16 33  1  0  0  0
 16 34  1  0  0  0
 16 35  1  0  0  0
 18 19  2  0  0  0
M  END
> <s_m_source_file>
../1b4d_ligand.sdf

> <i_m_source_file_index>
1

> <s_epik_input>
W0NIM11PQyg9TylbTkhdW0NAQF0xKEMoPU8pW05IMl0pW0NASF0oW09IXSlbQ0BASF0oW09IXSlbQ0BIXShbT0hdKVtDQEhdKE8xKVtDSDJdW09IXQ==

> <s_epik_cmdline>
J2VwaWtfYXBwJywgJy1pbWFlJywgJ2xpZ2FuZF9wcm8ubWFlJywgJy1vbWFlJywgJ2xpZ2FuZF9wcmVwLm1hZScsICctbXMnLCAnMScsICctcGgnLCAnNycsICctcGh0JywgJzAuNScsICctbnQn

> <r_lp_tautomer_probability>
1

> <r_epik_Ionization_Penalty>
  0.0001

> <r_epik_Ionization_Penalty_Charging>
  0.0000

> <r_epik_Ionization_Penalty_Neutral>
  0.0001

> <r_epik_State_Penalty>
 -0.0000

> <r_epik_Charging_Adjusted_Penalty>
0

> <i_epik_Tot_Q>
0

> <i_epik_Tot_abs_Q>
0

> <s_epik_Chemistry_Notes>
This compound has an ester and may undergo hydrolysis at high or low pH.

$$$$
