1b4h_ligand
                    3D
 Schrodinger Suite 2020-3.
 63 62  0  0  1  0            999 V2000
    6.9040   16.5060   15.2410 N   0  3  0  0  0  0
    6.4100   17.7980   14.6260 C   0  0  2  0  0  0
    5.1890   18.2950   15.3860 C   0  0  0  0  0  0
    4.4070   17.5010   15.9320 O   0  0  0  0  0  0
    6.1910   17.6980   13.1300 C   0  0  0  0  0  0
    5.1980   16.6440   12.6470 C   0  0  0  0  0  0
    5.1970   16.5160   11.1200 C   0  0  0  0  0  0
    6.4830   15.8710   10.5660 C   0  0  0  0  0  0
    6.5800   14.4150   10.9420 N   0  3  0  0  0  0
    5.0230   19.6170   15.4400 N   0  0  0  0  0  0
    3.9130   20.2380   16.1670 C   0  0  2  0  0  0
    2.6180   20.2370   15.3780 C   0  0  0  0  0  0
    2.6140   20.4860   14.1800 O   0  0  0  0  0  0
    4.2460   21.7250   16.4190 C   0  0  0  0  0  0
    5.3280   21.7390   17.5140 C   0  0  0  0  0  0
    4.8950   21.6090   18.8560 N   0  3  0  0  0  0
    1.5270   19.8830   16.0720 N   0  0  0  0  0  0
    0.2520   19.8540   15.4020 C   0  0  2  0  0  0
   -0.7500   20.7010   16.2050 C   0  0  0  0  0  0
   -1.7660   21.0200   15.5720 O   0  5  0  0  0  0
   -0.3560   18.4420   15.2850 C   0  0  0  0  0  0
   -1.3050   18.4360   14.0740 C   0  0  0  0  0  0
   -2.2080   17.2240   14.1400 C   0  0  0  0  0  0
   -2.6000   16.7050   12.7880 C   0  0  0  0  0  0
   -3.6240   17.4370   12.0800 N   0  3  0  0  0  0
   -0.5670   21.0090   17.3870 O   0  0  0  0  0  0
    7.0424   16.6446   16.3234 H   0  0  0  0  0  0
    7.8631   16.2245   14.7818 H   0  0  0  0  0  0
    6.1655   15.7101   15.0647 H   0  0  0  0  0  0
    7.2056   18.5507   14.7278 H   0  0  0  0  0  0
    5.8128   18.6584   12.7498 H   0  0  0  0  0  0
    7.1435   17.4573   12.6352 H   0  0  0  0  0  0
    5.4647   15.6660   13.0741 H   0  0  0  0  0  0
    4.1835   16.9208   12.9698 H   0  0  0  0  0  0
    4.3485   15.8908   10.8050 H   0  0  0  0  0  0
    5.1041   17.5147   10.6684 H   0  0  0  0  0  0
    6.4880   15.9472    9.4687 H   0  0  0  0  0  0
    7.3606   16.3940   10.9738 H   0  0  0  0  0  0
    7.5077   13.9910   10.5301 H   0  0  0  0  0  0
    5.7153   13.8722   10.5326 H   0  0  0  0  0  0
    6.5878   14.3190   12.0378 H   0  0  0  0  0  0
    5.7560   20.2460   14.9136 H   0  0  0  0  0  0
    3.8072   19.6197   17.0706 H   0  0  0  0  0  0
    4.6166   22.1805   15.4888 H   0  0  0  0  0  0
    3.3394   22.2528   16.7499 H   0  0  0  0  0  0
    6.0267   20.9055   17.3497 H   0  0  0  0  0  0
    5.8774   22.6912   17.4745 H   0  0  0  0  0  0
    5.7665   21.6350   19.5266 H   0  0  0  0  0  0
    4.3658   20.6526   18.9795 H   0  0  0  0  0  0
    4.2164   22.4384   19.1043 H   0  0  0  0  0  0
    1.5947   19.6171   17.1372 H   0  0  0  0  0  0
    0.4983   20.2481   14.4050 H   0  0  0  0  0  0
    0.4495   17.7067   15.1417 H   0  0  0  0  0  0
   -0.9103   18.2041   16.2049 H   0  0  0  0  0  0
   -1.9186   19.3489   14.0845 H   0  0  0  0  0  0
   -0.7152   18.4013   13.1461 H   0  0  0  0  0  0
   -1.6919   16.4107   14.6713 H   0  0  0  0  0  0
   -3.1322   17.4841   14.6768 H   0  0  0  0  0  0
   -1.7217   16.7070   12.1257 H   0  0  0  0  0  0
   -2.9828   15.6784   12.8861 H   0  0  0  0  0  0
   -3.8154   16.9546   11.1101 H   0  0  0  0  0  0
   -3.2877   18.4713   11.9151 H   0  0  0  0  0  0
   -4.5488   17.4427   12.6756 H   0  0  0  0  0  0
  1  2  1  0  0  0
  1 27  1  0  0  0
  1 28  1  0  0  0
  1 29  1  0  0  0
  2  3  1  0  0  0
  2  5  1  0  0  0
  2 30  1  0  0  0
  3  4  2  0  0  0
  3 10  1  0  0  0
  5  6  1  0  0  0
  5 31  1  0  0  0
  5 32  1  0  0  0
  6  7  1  0  0  0
  6 33  1  0  0  0
  6 34  1  0  0  0
  7  8  1  0  0  0
  7 35  1  0  0  0
  7 36  1  0  0  0
  8  9  1  0  0  0
  8 37  1  0  0  0
  8 38  1  0  0  0
  9 39  1  0  0  0
  9 40  1  0  0  0
  9 41  1  0  0  0
 10 11  1  0  0  0
 10 42  1  0  0  0
 11 14  1  0  0  0
 11 12  1  0  0  0
 11 43  1  0  0  0
 12 13  2  0  0  0
 12 17  1  0  0  0
 14 15  1  0  0  0
 14 44  1  0  0  0
 14 45  1  0  0  0
 15 16  1  0  0  0
 15 46  1  0  0  0
 15 47  1  0  0  0
 16 48  1  0  0  0
 16 49  1  0  0  0
 16 50  1  0  0  0
 17 18  1  0  0  0
 17 51  1  0  0  0
 18 19  1  0  0  0
 18 21  1  0  0  0
 18 52  1  0  0  0
 19 26  2  0  0  0
 19 20  1  0  0  0
 21 22  1  0  0  0
 21 53  1  0  0  0
 21 54  1  0  0  0
 22 23  1  0  0  0
 22 55  1  0  0  0
 22 56  1  0  0  0
 23 24  1  0  0  0
 23 57  1  0  0  0
 23 58  1  0  0  0
 24 25  1  0  0  0
 24 59  1  0  0  0
 24 60  1  0  0  0
 25 61  1  0  0  0
 25 62  1  0  0  0
 25 63  1  0  0  0
M  CHG  5   1   1   9   1  16   1  20  -1  25   1
M  END
> <s_m_source_file>
../1b4h_ligand.sdf

> <i_m_source_file_index>
1

> <s_epik_input>
W05IMytdW0NIMl1bQ0gyXVtDSDJdW0NIMl1bQ0BIXShbTkgzK10pQyg9TylbTkhdW0NAQEhdKFtDSDJdW0NIMl1bTkgzK10pQyg9TylbTkhdW0NASF0oQyg9TylbT0hdKVtDSDJdW0NIMl1bQ0gyXVtDSDJdW05IMytd

> <s_epik_cmdline>
J2VwaWtfYXBwJywgJy1pbWFlJywgJ2xpZ2FuZF9wcm8ubWFlJywgJy1vbWFlJywgJ2xpZ2FuZF9wcmVwLm1hZScsICctbXMnLCAnMScsICctcGgnLCAnNycsICctcGh0JywgJzAuNScsICctbnQn

> <r_epik_Ionization_Penalty>
  0.1354

> <r_epik_Ionization_Penalty_Charging>
  0.1354

> <r_epik_Ionization_Penalty_Neutral>
  0.0000

> <r_epik_State_Penalty>
  0.1212

> <r_epik_Charging_Adjusted_Penalty>
0.256557441310971

> <i_epik_Tot_Q>
3

> <i_epik_Tot_abs_Q>
5

$$$$
