1b4z_ligand
                    3D
 Schrodinger Suite 2020-3.
 59 58  0  0  1  0            999 V2000
    6.8430   16.4610   15.1510 N   0  3  0  0  0  0
    6.3600   17.7530   14.5610 C   0  0  2  0  0  0
    5.1230   18.2170   15.3170 C   0  0  0  0  0  0
    4.3410   17.3900   15.8060 O   0  0  0  0  0  0
    6.1290   17.6090   13.0430 C   0  0  0  0  0  0
    5.1650   16.5030   12.6280 C   0  0  0  0  0  0
    5.0720   16.4120   11.0800 C   0  0  0  0  0  0
    6.3360   15.7660   10.4920 C   0  0  0  0  0  0
    6.5170   14.3530   10.9100 N   0  3  0  0  0  0
    4.9300   19.5190   15.4010 N   0  0  0  0  0  0
    3.7770   20.0580   16.1510 C   0  0  2  0  0  0
    2.5030   20.0030   15.3290 C   0  0  0  0  0  0
    2.5070   20.2760   14.1350 O   0  0  0  0  0  0
    4.0510   21.5350   16.4890 C   0  0  0  0  0  0
    4.9830   21.6400   17.6930 C   0  0  0  0  0  0
    4.7230   21.1780   18.8070 O   0  5  0  0  0  0
    6.0800   22.1670   17.4940 O   0  0  0  0  0  0
    1.3980   19.5840   15.9740 N   0  0  0  0  0  0
    0.1230   19.5560   15.2960 C   0  0  2  0  0  0
   -0.9150   20.3790   16.0710 C   0  0  0  0  0  0
   -1.8880   20.7810   15.3890 O   0  5  0  0  0  0
   -0.4060   18.1220   15.1890 C   0  0  0  0  0  0
   -1.4530   18.1470   14.0330 C   0  0  0  0  0  0
   -2.1310   16.7980   14.0290 C   0  0  0  0  0  0
   -3.4120   16.8340   13.1800 C   0  0  0  0  0  0
   -2.9850   16.6100   11.7730 N   0  3  0  0  0  0
   -0.6910   20.7590   17.2370 O   0  0  0  0  0  0
    7.7372   16.1215   14.6078 H   0  0  0  0  0  0
    6.0522   15.7011   15.0666 H   0  0  0  0  0  0
    7.0938   16.6131   16.2112 H   0  0  0  0  0  0
    7.1370   18.5197   14.6967 H   0  0  0  0  0  0
    5.7151   18.5470   12.6445 H   0  0  0  0  0  0
    7.0854   17.3898   12.5457 H   0  0  0  0  0  0
    5.5214   15.5394   13.0210 H   0  0  0  0  0  0
    4.1650   16.7170   13.0333 H   0  0  0  0  0  0
    4.2003   15.8021   10.8003 H   0  0  0  0  0  0
    4.9628   17.4224   10.6592 H   0  0  0  0  0  0
    6.2797   15.7836    9.3936 H   0  0  0  0  0  0
    7.2224   16.3272   10.8228 H   0  0  0  0  0  0
    7.4354   13.9514   10.4570 H   0  0  0  0  0  0
    5.6535   13.7586   10.5767 H   0  0  0  0  0  0
    6.5962   14.3021   12.0060 H   0  0  0  0  0  0
    5.6346   20.2049   14.9079 H   0  0  0  0  0  0
    3.6666   19.4211   17.0411 H   0  0  0  0  0  0
    4.5232   22.0271   15.6260 H   0  0  0  0  0  0
    3.1023   22.0393   16.7248 H   0  0  0  0  0  0
    1.4701   19.2618   17.0233 H   0  0  0  0  0  0
    0.3378   19.9848   14.3060 H   0  0  0  0  0  0
    0.4266   17.4401   14.9614 H   0  0  0  0  0  0
   -0.8689   17.8298   16.1431 H   0  0  0  0  0  0
   -2.1822   18.9499   14.2161 H   0  0  0  0  0  0
   -0.9397   18.3288   13.0772 H   0  0  0  0  0  0
   -1.4477   16.0455   13.6085 H   0  0  0  0  0  0
   -2.3959   16.5177   15.0592 H   0  0  0  0  0  0
   -4.0970   16.0417   13.5161 H   0  0  0  0  0  0
   -3.9000   17.8132   13.2939 H   0  0  0  0  0  0
   -3.8666   16.6256   11.1154 H   0  0  0  0  0  0
   -2.4848   15.6336   11.6927 H   0  0  0  0  0  0
   -2.2878   17.4052   11.4704 H   0  0  0  0  0  0
  1  2  1  0  0  0
  1 28  1  0  0  0
  1 29  1  0  0  0
  1 30  1  0  0  0
  2  5  1  0  0  0
  2  3  1  0  0  0
  2 31  1  0  0  0
  3  4  2  0  0  0
  3 10  1  0  0  0
  5  6  1  0  0  0
  5 32  1  0  0  0
  5 33  1  0  0  0
  6  7  1  0  0  0
  6 34  1  0  0  0
  6 35  1  0  0  0
  7  8  1  0  0  0
  7 36  1  0  0  0
  7 37  1  0  0  0
  8  9  1  0  0  0
  8 38  1  0  0  0
  8 39  1  0  0  0
  9 40  1  0  0  0
  9 41  1  0  0  0
  9 42  1  0  0  0
 10 11  1  0  0  0
 10 43  1  0  0  0
 11 14  1  0  0  0
 11 12  1  0  0  0
 11 44  1  0  0  0
 12 13  2  0  0  0
 12 18  1  0  0  0
 14 15  1  0  0  0
 14 45  1  0  0  0
 14 46  1  0  0  0
 15 17  2  0  0  0
 15 16  1  0  0  0
 18 19  1  0  0  0
 18 47  1  0  0  0
 19 22  1  0  0  0
 19 20  1  0  0  0
 19 48  1  0  0  0
 20 21  1  0  0  0
 20 27  2  0  0  0
 22 23  1  0  0  0
 22 49  1  0  0  0
 22 50  1  0  0  0
 23 24  1  0  0  0
 23 51  1  0  0  0
 23 52  1  0  0  0
 24 25  1  0  0  0
 24 53  1  0  0  0
 24 54  1  0  0  0
 25 26  1  0  0  0
 25 55  1  0  0  0
 25 56  1  0  0  0
 26 57  1  0  0  0
 26 58  1  0  0  0
 26 59  1  0  0  0
M  CHG  5   1   1   9   1  16  -1  21  -1  26   1
M  END
> <s_m_source_file>
../1b4z_ligand.sdf

> <i_m_source_file_index>
1

> <s_epik_input>
W05IMytdW0NIMl1bQ0gyXVtDSDJdW0NIMl1bQ0BIXShbTkgzK10pQyg9TylbTkhdW0NAQEhdKFtDSDJdQyg9TylbT0hdKUMoPU8pW05IXVtDQEhdKEMoPU8pW09IXSlbQ0gyXVtDSDJdW0NIMl1bQ0gyXVtOSDMrXQ==

> <s_epik_cmdline>
J2VwaWtfYXBwJywgJy1pbWFlJywgJ2xpZ2FuZF9wcm8ubWFlJywgJy1vbWFlJywgJ2xpZ2FuZF9wcmVwLm1hZScsICctbXMnLCAnMScsICctcGgnLCAnNycsICctcGh0JywgJzAuNScsICctbnQn

> <r_epik_Ionization_Penalty>
  0.1227

> <r_epik_Ionization_Penalty_Charging>
  0.1227

> <r_epik_Ionization_Penalty_Neutral>
  0.0000

> <r_epik_State_Penalty>
  0.1072

> <r_epik_Charging_Adjusted_Penalty>
0.22992132678315

> <i_epik_Tot_Q>
1

> <i_epik_Tot_abs_Q>
5

$$$$
