1b51_ligand
                    3D
 Schrodinger Suite 2020-3.
 58 57  0  0  1  0            999 V2000
    6.8910   16.4790   15.0950 N   0  3  0  0  0  0
    6.3900   17.7900   14.5770 C   0  0  2  0  0  0
    5.1740   18.2680   15.3430 C   0  0  0  0  0  0
    4.4150   17.4750   15.8880 O   0  0  0  0  0  0
    6.1120   17.7260   13.0640 C   0  0  0  0  0  0
    5.2320   16.5440   12.6860 C   0  0  0  0  0  0
    5.1210   16.4580   11.1480 C   0  0  0  0  0  0
    6.3950   15.8780   10.5460 C   0  0  0  0  0  0
    6.5490   14.4230   10.8820 N   0  3  0  0  0  0
    5.0030   19.5780   15.4000 N   0  0  0  0  0  0
    3.9490   20.2090   16.1900 C   0  0  2  0  0  0
    2.6020   20.2310   15.5050 C   0  0  0  0  0  0
    2.5430   20.5580   14.3230 O   0  0  0  0  0  0
    4.4210   21.6540   16.4120 C   0  0  0  0  0  0
    3.8300   22.1840   17.5950 O   0  0  0  0  0  0
    1.4950   19.9330   16.2360 N   0  0  0  0  0  0
    0.2360   19.8690   15.5110 C   0  0  2  0  0  0
   -0.8680   20.6600   16.2440 C   0  0  0  0  0  0
   -0.7500   20.9240   17.4390 O   0  0  0  0  0  0
   -0.3000   18.4420   15.3170 C   0  0  0  0  0  0
   -1.3690   18.4670   14.1820 C   0  0  0  0  0  0
   -1.9810   17.1150   13.9430 C   0  0  0  0  0  0
   -2.9390   17.0470   12.7500 C   0  0  0  0  0  0
   -3.7030   18.3150   12.6290 N   0  3  0  0  0  0
   -1.8020   21.0200   15.5080 O   0  5  0  0  0  0
    7.7717   16.1677   14.5141 H   0  0  0  0  0  0
    6.1006   15.7202   14.9978 H   0  0  0  0  0  0
    7.1690   16.5853   16.1540 H   0  0  0  0  0  0
    7.1946   18.5168   14.7625 H   0  0  0  0  0  0
    5.6000   18.6462   12.7460 H   0  0  0  0  0  0
    7.0632   17.6291   12.5202 H   0  0  0  0  0  0
    5.6774   15.6163   13.0745 H   0  0  0  0  0  0
    4.2301   16.6793   13.1195 H   0  0  0  0  0  0
    4.2739   15.8107   10.8772 H   0  0  0  0  0  0
    4.9598   17.4648   10.7351 H   0  0  0  0  0  0
    6.3632   15.9811    9.4513 H   0  0  0  0  0  0
    7.2669   16.4206   10.9402 H   0  0  0  0  0  0
    7.4766   14.0391   10.4324 H   0  0  0  0  0  0
    5.6898   13.8622   10.4854 H   0  0  0  0  0  0
    6.5934   14.3017   11.9744 H   0  0  0  0  0  0
    5.6995   20.1984   14.8169 H   0  0  0  0  0  0
    3.8192   19.6028   17.0986 H   0  0  0  0  0  0
    5.5159   21.6701   16.5163 H   0  0  0  0  0  0
    4.1255   22.2725   15.5517 H   0  0  0  0  0  0
    4.0574   23.2131   17.9099 H   0  0  0  0  0  0
    1.5159   19.7448   17.3196 H   0  0  0  0  0  0
    0.5273   20.3063   14.5446 H   0  0  0  0  0  0
    0.5284   17.7739   15.0387 H   0  0  0  0  0  0
   -0.7553   18.0907   16.2547 H   0  0  0  0  0  0
   -2.1765   19.1625   14.4542 H   0  0  0  0  0  0
   -0.9001   18.7987   13.2439 H   0  0  0  0  0  0
   -1.1846   16.3804   13.7530 H   0  0  0  0  0  0
   -2.5562   16.8109   14.8299 H   0  0  0  0  0  0
   -2.3637   16.8851   11.8265 H   0  0  0  0  0  0
   -3.6444   16.2152   12.8931 H   0  0  0  0  0  0
   -4.3858   18.2510   11.7690 H   0  0  0  0  0  0
   -3.0041   19.1514   12.4809 H   0  0  0  0  0  0
   -4.2848   18.4816   13.5475 H   0  0  0  0  0  0
  1  2  1  0  0  0
  1 26  1  0  0  0
  1 27  1  0  0  0
  1 28  1  0  0  0
  2  5  1  0  0  0
  2  3  1  0  0  0
  2 29  1  0  0  0
  3  4  2  0  0  0
  3 10  1  0  0  0
  5  6  1  0  0  0
  5 30  1  0  0  0
  5 31  1  0  0  0
  6  7  1  0  0  0
  6 32  1  0  0  0
  6 33  1  0  0  0
  7  8  1  0  0  0
  7 34  1  0  0  0
  7 35  1  0  0  0
  8  9  1  0  0  0
  8 36  1  0  0  0
  8 37  1  0  0  0
  9 38  1  0  0  0
  9 39  1  0  0  0
  9 40  1  0  0  0
 10 11  1  0  0  0
 10 41  1  0  0  0
 11 14  1  0  0  0
 11 12  1  0  0  0
 11 42  1  0  0  0
 12 13  2  0  0  0
 12 16  1  0  0  0
 14 15  1  0  0  0
 14 43  1  0  0  0
 14 44  1  0  0  0
 15 45  1  0  0  0
 16 17  1  0  0  0
 16 46  1  0  0  0
 17 20  1  0  0  0
 17 18  1  0  0  0
 17 47  1  0  0  0
 18 19  2  0  0  0
 18 25  1  0  0  0
 20 21  1  0  0  0
 20 48  1  0  0  0
 20 49  1  0  0  0
 21 22  1  0  0  0
 21 50  1  0  0  0
 21 51  1  0  0  0
 22 23  1  0  0  0
 22 52  1  0  0  0
 22 53  1  0  0  0
 23 24  1  0  0  0
 23 54  1  0  0  0
 23 55  1  0  0  0
 24 56  1  0  0  0
 24 57  1  0  0  0
 24 58  1  0  0  0
M  CHG  4   1   1   9   1  24   1  25  -1
M  END
> <s_m_source_file>
../1b51_ligand.sdf

> <i_m_source_file_index>
1

> <s_epik_input>
W05IMytdW0NIMl1bQ0gyXVtDSDJdW0NIMl1bQ0BIXShbTkgzK10pQyg9TylbTkhdW0NAQEhdKFtDSDJdW09IXSlDKD1PKVtOSF1bQ0BIXShDKD1PKVtPSF0pW0NIMl1bQ0gyXVtDSDJdW0NIMl1bTkgzK10=

> <s_epik_cmdline>
J2VwaWtfYXBwJywgJy1pbWFlJywgJ2xpZ2FuZF9wcm8ubWFlJywgJy1vbWFlJywgJ2xpZ2FuZF9wcmVwLm1hZScsICctbXMnLCAnMScsICctcGgnLCAnNycsICctcGh0JywgJzAuNScsICctbnQn

> <r_epik_Ionization_Penalty>
  0.1302

> <r_epik_Ionization_Penalty_Charging>
  0.1302

> <r_epik_Ionization_Penalty_Neutral>
  0.0000

> <r_epik_State_Penalty>
  0.1186

> <r_epik_Charging_Adjusted_Penalty>
0.248814828024264

> <i_epik_Tot_Q>
2

> <i_epik_Tot_abs_Q>
4

$$$$
