1b52_ligand
                    3D
 Schrodinger Suite 2020-3.
 61 60  0  0  1  0            999 V2000
    8.5460   31.6430   12.5700 N   0  3  0  0  0  0
    8.6540   33.0990   12.8650 C   0  0  2  0  0  0
    9.6220   33.8570   11.9360 C   0  0  0  0  0  0
   10.6870   33.3830   11.4410 O   0  0  0  0  0  0
    8.9700   33.3030   14.3830 C   0  0  0  0  0  0
   10.3210   32.7220   14.7820 C   0  0  0  0  0  0
   10.6790   32.8080   16.2700 C   0  0  0  0  0  0
    9.8270   31.9030   17.1300 C   0  0  0  0  0  0
   10.2280   30.4530   16.9580 N   0  3  0  0  0  0
    9.2240   35.1250   11.7480 N   0  0  0  0  0  0
    9.9110   35.9830   10.8200 C   0  0  2  0  0  0
   11.1750   36.5860   11.4360 C   0  0  0  0  0  0
   11.0840   37.1320   12.5030 O   0  0  0  0  0  0
    9.0780   37.1370   10.2500 C   0  0  2  0  0  0
    8.4520   37.8700   11.3030 O   0  0  0  0  0  0
    7.9720   36.6750    9.3020 C   0  0  0  0  0  0
   12.2760   36.5670   10.7210 N   0  0  0  0  0  0
   13.4830   37.2390   11.1340 C   0  0  2  0  0  0
   13.8510   38.3120   10.1360 C   0  0  0  0  0  0
   14.6420   39.2030   10.4880 O   0  5  0  0  0  0
   14.7040   36.3080   11.2360 C   0  0  0  0  0  0
   15.6240   36.7990   12.3910 C   0  0  0  0  0  0
   16.8680   35.9170   12.3510 C   0  0  0  0  0  0
   17.8000   36.0860   13.5760 C   0  0  0  0  0  0
   17.8600   37.5350   13.9730 N   0  3  0  0  0  0
   13.5510   38.2660    8.9650 O   0  0  0  0  0  0
    7.8397   31.1778   13.2734 H   0  0  0  0  0  0
    9.5345   31.1727   12.6781 H   0  0  0  0  0  0
    8.1840   31.5033   11.5407 H   0  0  0  0  0  0
    7.6658   33.5141   12.6179 H   0  0  0  0  0  0
    8.9829   34.3785   14.6135 H   0  0  0  0  0  0
    8.1966   32.8076   14.9883 H   0  0  0  0  0  0
   10.3515   31.6534   14.5228 H   0  0  0  0  0  0
   11.1213   33.2525   14.2452 H   0  0  0  0  0  0
   11.7297   32.5151   16.4118 H   0  0  0  0  0  0
   10.5353   33.8400   16.6227 H   0  0  0  0  0  0
    9.9504   32.1794   18.1875 H   0  0  0  0  0  0
    8.7707   32.0126   16.8433 H   0  0  0  0  0  0
    9.5928   29.8190   17.5941 H   0  0  0  0  0  0
   11.2811   30.3268   17.2496 H   0  0  0  0  0  0
   10.1014   30.1600   15.9053 H   0  0  0  0  0  0
    8.3611   35.5059   12.3140 H   0  0  0  0  0  0
   10.1196   35.2505   10.0264 H   0  0  0  0  0  0
    9.7698   37.8165    9.7306 H   0  0  0  0  0  0
    9.0617   38.3026   12.1100 H   0  0  0  0  0  0
    8.4148   36.1037    8.4728 H   0  0  0  0  0  0
    7.4424   37.5520    8.9015 H   0  0  0  0  0  0
    7.2628   36.0368    9.8494 H   0  0  0  0  0  0
   12.2536   36.0100    9.7727 H   0  0  0  0  0  0
   13.1958   37.6375   12.1182 H   0  0  0  0  0  0
   14.3663   35.2818   11.4429 H   0  0  0  0  0  0
   15.2598   36.3268   10.2869 H   0  0  0  0  0  0
   15.8835   37.8556   12.2291 H   0  0  0  0  0  0
   15.0960   36.6940   13.3503 H   0  0  0  0  0  0
   16.5668   34.8596   12.3159 H   0  0  0  0  0  0
   17.4607   36.1593   11.4565 H   0  0  0  0  0  0
   17.4107   35.4938   14.4173 H   0  0  0  0  0  0
   18.8109   35.7369   13.3186 H   0  0  0  0  0  0
   18.5230   37.6496   14.8432 H   0  0  0  0  0  0
   16.8504   37.8862   14.2325 H   0  0  0  0  0  0
   18.2505   38.1292   13.1337 H   0  0  0  0  0  0
  1  2  1  0  0  0
  1 27  1  0  0  0
  1 28  1  0  0  0
  1 29  1  0  0  0
  2  5  1  0  0  0
  2  3  1  0  0  0
  2 30  1  0  0  0
  3  4  2  0  0  0
  3 10  1  0  0  0
  5  6  1  0  0  0
  5 31  1  0  0  0
  5 32  1  0  0  0
  6  7  1  0  0  0
  6 33  1  0  0  0
  6 34  1  0  0  0
  7  8  1  0  0  0
  7 35  1  0  0  0
  7 36  1  0  0  0
  8  9  1  0  0  0
  8 37  1  0  0  0
  8 38  1  0  0  0
  9 39  1  0  0  0
  9 40  1  0  0  0
  9 41  1  0  0  0
 10 11  1  0  0  0
 10 42  1  0  0  0
 11 14  1  0  0  0
 11 12  1  0  0  0
 11 43  1  0  0  0
 12 13  2  0  0  0
 12 17  1  0  0  0
 14 16  1  0  0  0
 14 15  1  0  0  0
 14 44  1  0  0  0
 15 45  1  0  0  0
 16 46  1  0  0  0
 16 47  1  0  0  0
 16 48  1  0  0  0
 17 18  1  0  0  0
 17 49  1  0  0  0
 18 21  1  0  0  0
 18 19  1  0  0  0
 18 50  1  0  0  0
 19 20  1  0  0  0
 19 26  2  0  0  0
 21 22  1  0  0  0
 21 51  1  0  0  0
 21 52  1  0  0  0
 22 23  1  0  0  0
 22 53  1  0  0  0
 22 54  1  0  0  0
 23 24  1  0  0  0
 23 55  1  0  0  0
 23 56  1  0  0  0
 24 25  1  0  0  0
 24 57  1  0  0  0
 24 58  1  0  0  0
 25 59  1  0  0  0
 25 60  1  0  0  0
 25 61  1  0  0  0
M  CHG  4   1   1   9   1  20  -1  25   1
M  END
> <s_m_source_file>
../1b52_ligand.sdf

> <i_m_source_file_index>
1

> <s_epik_input>
W05IMytdW0NIMl1bQ0gyXVtDSDJdW0NIMl1bQ0BIXShbTkgzK10pQyg9TylbTkhdW0NAQEhdKFtDQEhdKFtPSF0pW0NIM10pQyg9TylbTkhdW0NASF0oQyg9TylbT0hdKVtDSDJdW0NIMl1bQ0gyXVtDSDJdW05IMytd

> <s_epik_cmdline>
J2VwaWtfYXBwJywgJy1pbWFlJywgJ2xpZ2FuZF9wcm8ubWFlJywgJy1vbWFlJywgJ2xpZ2FuZF9wcmVwLm1hZScsICctbXMnLCAnMScsICctcGgnLCAnNycsICctcGh0JywgJzAuNScsICctbnQn

> <r_epik_Ionization_Penalty>
  0.1224

> <r_epik_Ionization_Penalty_Charging>
  0.1224

> <r_epik_Ionization_Penalty_Neutral>
  0.0000

> <r_epik_State_Penalty>
  0.1109

> <r_epik_Charging_Adjusted_Penalty>
0.233300426782726

> <i_epik_Tot_Q>
2

> <i_epik_Tot_abs_Q>
4

$$$$
