1b55_ligand
                    3D
 Schrodinger Suite 2020-3.
 38 38  0  0  1  0            999 V2000
   -1.9790    4.5500   38.7310 C   0  0  2  0  0  0
   -3.3050    4.6200   39.4460 O   0  0  0  0  0  0
   -0.8500    5.4250   39.1840 C   0  0  2  0  0  0
   -1.0420    6.8380   38.8990 O   0  0  0  0  0  0
    0.3240    4.8690   38.4730 C   0  0  2  0  0  0
    1.5010    5.4200   39.0040 O   0  0  0  0  0  0
    0.1820    5.0170   36.9230 C   0  0  1  0  0  0
    1.3610    4.5130   36.3190 O   0  0  0  0  0  0
   -0.9050    4.1360   36.4760 C   0  0  2  0  0  0
   -1.1120    4.3720   35.0380 O   0  0  0  0  0  0
   -2.1860    4.5000   37.2100 C   0  0  1  0  0  0
   -3.0420    3.4270   36.9930 O   0  0  0  0  0  0
   -3.8130    3.6270   40.6700 P   0  0  0  0  0  0
   -4.9810    4.2240   41.3230 O   0  0  0  0  0  0
   -2.6980    3.4600   41.6390 O   0  5  0  0  0  0
   -4.0120    2.4480   39.7660 O   0  5  0  0  0  0
    2.6050    4.5510   39.6380 P   0  0  0  0  0  0
    3.4630    5.5730   40.0730 O   0  0  0  0  0  0
    1.8060    3.7860   40.5730 O   0  5  0  0  0  0
    3.0900    3.7480   38.5600 O   0  5  0  0  0  0
    2.3810    5.3220   35.5530 P   0  0  0  0  0  0
    1.8910    6.7140   35.6780 O   0  5  0  0  0  0
    3.6580    5.0400   36.2540 O   0  0  0  0  0  0
    2.2820    4.7790   34.2290 O   0  0  0  0  0  0
   -0.7220    3.4620   33.7510 P   0  0  0  0  0  0
    0.3140    4.2970   33.1410 O   0  5  0  0  0  0
   -0.3560    2.1590   34.2350 O   0  0  0  0  0  0
   -1.9840    3.4660   33.0630 O   0  0  0  0  0  0
   -1.5531    3.6065   39.1031 H   0  0  0  0  0  0
   -0.7390    5.4386   40.2783 H   0  0  0  0  0  0
   -1.8785    7.3834   39.3603 H   0  0  0  0  0  0
    0.4416    3.8068   38.7337 H   0  0  0  0  0  0
    0.0240    6.0521   36.5861 H   0  0  0  0  0  0
   -0.6215    3.0888   36.6577 H   0  0  0  0  0  0
   -2.6132    5.4376   36.8247 H   0  0  0  0  0  0
   -4.0544    3.4354   37.4230 H   0  0  0  0  0  0
    4.0960    4.0317   36.2147 H   0  0  0  0  0  0
   -1.1149    1.5110   34.6978 H   0  0  0  0  0  0
  1 11  1  0  0  0
  1  3  1  0  0  0
  1  2  1  0  0  0
  1 29  1  0  0  0
  2 13  1  0  0  0
  3  5  1  0  0  0
  3  4  1  0  0  0
  3 30  1  0  0  0
  4 31  1  0  0  0
  5  7  1  0  0  0
  5  6  1  0  0  0
  5 32  1  0  0  0
  6 17  1  0  0  0
  7  9  1  0  0  0
  7  8  1  0  0  0
  7 33  1  0  0  0
  8 21  1  0  0  0
  9 11  1  0  0  0
  9 10  1  0  0  0
  9 34  1  0  0  0
 10 25  1  0  0  0
 11 12  1  0  0  0
 11 35  1  0  0  0
 12 36  1  0  0  0
 13 16  1  0  0  0
 13 15  1  0  0  0
 13 14  2  0  0  0
 17 20  1  0  0  0
 17 19  1  0  0  0
 17 18  2  0  0  0
 21 24  2  0  0  0
 21 23  1  0  0  0
 21 22  1  0  0  0
 23 37  1  0  0  0
 25 28  2  0  0  0
 25 27  1  0  0  0
 25 26  1  0  0  0
 27 38  1  0  0  0
M  CHG  6  15  -1  16  -1  19  -1  20  -1  22  -1  26  -1
M  END
> <s_m_source_file>
../1b55_ligand.sdf

> <i_m_source_file_index>
1

> <s_epik_input>
Tz1QKFtPSF0pKFtPSF0pT1tDQEBIXTFbQ0BIXShbT0hdKVtDQEhdKE9QKD1PKShbT0hdKVtPSF0pW0NAQEhdKE9QKD1PKShbT0hdKVtPSF0pW0NAQEhdKFtDQEhdMVtPSF0pT1AoPU8pKFtPSF0pW09IXQ==

> <s_epik_cmdline>
J2VwaWtfYXBwJywgJy1pbWFlJywgJ2xpZ2FuZF9wcm8ubWFlJywgJy1vbWFlJywgJ2xpZ2FuZF9wcmVwLm1hZScsICctbXMnLCAnMScsICctcGgnLCAnNycsICctcGh0JywgJzAuNScsICctbnQn

> <r_epik_Ionization_Penalty>
  1.9576

> <r_epik_Ionization_Penalty_Charging>
  0.1711

> <r_epik_Ionization_Penalty_Neutral>
  1.7865

> <r_epik_State_Penalty>
  0.5318

> <r_epik_Charging_Adjusted_Penalty>
0.702919789572401

> <i_epik_Tot_Q>
-6

> <i_epik_Tot_abs_Q>
6

$$$$
