1b56_ligand
                    3D
 Schrodinger Suite 2020-3.
 49 48  0  0  1  0            999 V2000
   46.9440   22.4560   32.6530 C   0  0  0  0  0  0
   47.6130   21.6520   32.0150 O   0  5  0  0  0  0
   45.7460   22.2220   32.7550 O   0  0  0  0  0  0
   47.4950   23.6320   33.1280 C   0  0  0  0  0  0
   47.4530   24.6280   32.1700 C   0  0  0  0  0  0
   48.6580   24.6830   31.5030 C   0  0  0  0  0  0
   48.3540   25.0960   30.2210 C   0  0  0  0  0  0
   49.0230   26.2680   29.9430 C   0  0  0  0  0  0
   48.9680   26.4820   28.5830 C   0  0  0  0  0  0
   47.7520   27.0350   28.2800 C   0  0  0  0  0  0
   47.9110   27.5620   27.0260 C   0  0  0  0  0  0
   46.7070   28.1150   26.6530 C   0  0  0  0  0  0
   46.1320   27.2050   25.8000 C   0  0  0  0  0  0
   44.9410   27.7410   25.3400 C   0  0  0  0  0  0
   44.3090   26.8400   24.4940 C   0  0  0  0  0  0
   43.5990   25.9230   25.2540 C   0  0  0  0  0  0
   44.2780   24.7150   25.2800 C   0  0  0  0  0  0
   43.6350   23.8680   26.1590 C   0  0  0  0  0  0
   46.9320   23.9705   34.0103 H   0  0  0  0  0  0
   48.5447   23.4585   33.4073 H   0  0  0  0  0  0
   46.6484   24.4121   31.4517 H   0  0  0  0  0  0
   47.2608   25.5961   32.6557 H   0  0  0  0  0  0
   49.3240   25.3986   32.0074 H   0  0  0  0  0  0
   49.1232   23.6862   31.5034 H   0  0  0  0  0  0
   48.6608   24.3206   29.5036 H   0  0  0  0  0  0
   47.2702   25.2647   30.1374 H   0  0  0  0  0  0
   48.5414   27.1006   30.4768 H   0  0  0  0  0  0
   50.0695   26.1793   30.2700 H   0  0  0  0  0  0
   49.7765   27.1664   28.2865 H   0  0  0  0  0  0
   49.0870   25.5239   28.0559 H   0  0  0  0  0  0
   46.9786   26.2530   28.2989 H   0  0  0  0  0  0
   47.5072   27.8107   29.0205 H   0  0  0  0  0  0
   48.6965   28.3317   27.0487 H   0  0  0  0  0  0
   48.2000   26.7636   26.3267 H   0  0  0  0  0  0
   46.0853   28.2763   27.5460 H   0  0  0  0  0  0
   46.8853   29.0777   26.1517 H   0  0  0  0  0  0
   46.8119   27.0122   24.9570 H   0  0  0  0  0  0
   45.9418   26.2657   26.3399 H   0  0  0  0  0  0
   44.2825   27.9579   26.1940 H   0  0  0  0  0  0
   45.1459   28.6711   24.7895 H   0  0  0  0  0  0
   43.6196   27.3821   23.8301 H   0  0  0  0  0  0
   45.0626   26.3141   23.8895 H   0  0  0  0  0  0
   43.4906   26.3033   26.2805 H   0  0  0  0  0  0
   42.6032   25.7729   24.8115 H   0  0  0  0  0  0
   44.2827   24.2753   24.2717 H   0  0  0  0  0  0
   45.3133   24.8833   25.6115 H   0  0  0  0  0  0
   44.1627   22.9034   26.1910 H   0  0  0  0  0  0
   42.5996   23.7087   25.8235 H   0  0  0  0  0  0
   43.6301   24.3167   27.1633 H   0  0  0  0  0  0
  1  2  1  0  0  0
  1  3  2  0  0  0
  1  4  1  0  0  0
  4  5  1  0  0  0
  4 19  1  0  0  0
  4 20  1  0  0  0
  5  6  1  0  0  0
  5 21  1  0  0  0
  5 22  1  0  0  0
  6  7  1  0  0  0
  6 23  1  0  0  0
  6 24  1  0  0  0
  7  8  1  0  0  0
  7 25  1  0  0  0
  7 26  1  0  0  0
  8  9  1  0  0  0
  8 27  1  0  0  0
  8 28  1  0  0  0
  9 10  1  0  0  0
  9 29  1  0  0  0
  9 30  1  0  0  0
 10 11  1  0  0  0
 10 31  1  0  0  0
 10 32  1  0  0  0
 11 12  1  0  0  0
 11 33  1  0  0  0
 11 34  1  0  0  0
 12 13  1  0  0  0
 12 35  1  0  0  0
 12 36  1  0  0  0
 13 14  1  0  0  0
 13 37  1  0  0  0
 13 38  1  0  0  0
 14 15  1  0  0  0
 14 39  1  0  0  0
 14 40  1  0  0  0
 15 16  1  0  0  0
 15 41  1  0  0  0
 15 42  1  0  0  0
 16 17  1  0  0  0
 16 43  1  0  0  0
 16 44  1  0  0  0
 17 18  1  0  0  0
 17 45  1  0  0  0
 17 46  1  0  0  0
 18 47  1  0  0  0
 18 48  1  0  0  0
 18 49  1  0  0  0
M  CHG  1   2  -1
M  END
> <s_m_source_file>
../1b56_ligand.sdf

> <i_m_source_file_index>
1

> <s_epik_input>
W09IXUMoPU8pW0NIMl1bQ0gyXVtDSDJdW0NIMl1bQ0gyXVtDSDJdW0NIMl1bQ0gyXVtDSDJdW0NIMl1bQ0gyXVtDSDJdW0NIMl1bQ0gyXVtDSDNd

> <s_epik_cmdline>
J2VwaWtfYXBwJywgJy1pbWFlJywgJ2xpZ2FuZF9wcm8ubWFlJywgJy1vbWFlJywgJ2xpZ2FuZF9wcmVwLm1hZScsICctbXMnLCAnMScsICctcGgnLCAnNycsICctcGh0JywgJzAuNScsICctbnQn

> <r_lp_tautomer_probability>
1

> <r_epik_Ionization_Penalty>
  0.0049

> <r_epik_Ionization_Penalty_Charging>
  0.0049

> <r_epik_Ionization_Penalty_Neutral>
  0.0000

> <r_epik_State_Penalty>
 -0.0000

> <r_epik_Charging_Adjusted_Penalty>
0.00486649495677768

> <i_epik_Tot_Q>
-1

> <i_epik_Tot_abs_Q>
1

$$$$
