1b58_ligand
                    3D
 Schrodinger Suite 2020-3.
 68 68  0  0  1  0            999 V2000
    6.9150   17.0380   15.3930 N   0  3  0  0  0  0
    6.4760   18.3740   14.8690 C   0  0  2  0  0  0
    5.2090   18.8230   15.5770 C   0  0  0  0  0  0
    4.3540   17.9690   15.9280 O   0  0  0  0  0  0
    6.2380   18.3740   13.3360 C   0  0  0  0  0  0
    5.3130   17.2940   12.8190 C   0  0  0  0  0  0
    5.2260   17.1990   11.3010 C   0  0  0  0  0  0
    6.4950   16.6350   10.6400 C   0  0  0  0  0  0
    6.6610   15.2160   11.0780 N   0  3  0  0  0  0
    5.0340   20.1190   15.7240 N   0  0  0  0  0  0
    3.8450   20.7030   16.3620 C   0  0  2  0  0  0
    2.5900   20.6220   15.5040 C   0  0  0  0  0  0
    2.5840   20.9110   14.2970 O   0  0  0  0  0  0
    4.0340   22.2090   16.7220 C   0  0  0  0  0  0
    5.1690   22.3880   17.7110 C   0  0  0  0  0  0
    5.0000   22.2060   19.0650 C   0  0  0  0  0  0
    6.4310   22.7480   17.2570 C   0  0  0  0  0  0
    6.0240   22.3470   19.9870 C   0  0  0  0  0  0
    7.4550   22.9090   18.1560 C   0  0  0  0  0  0
    7.2430   22.7030   19.5100 C   0  0  0  0  0  0
    8.3200   22.8540   20.3430 O   0  0  0  0  0  0
    1.4820   20.2830   16.1640 N   0  0  0  0  0  0
    0.2100   20.1790   15.4820 C   0  0  2  0  0  0
   -0.8450   21.0560   16.1900 C   0  0  0  0  0  0
   -1.8140   21.4040   15.5080 O   0  5  0  0  0  0
   -0.3390   18.7550   15.3730 C   0  0  0  0  0  0
   -1.3620   18.7940   14.1820 C   0  0  0  0  0  0
   -2.1300   17.5010   14.0680 C   0  0  0  0  0  0
   -3.3530   17.6770   13.1380 C   0  0  0  0  0  0
   -2.8580   17.3570   11.7770 N   0  3  0  0  0  0
   -0.6940   21.4150   17.3600 O   0  0  0  0  0  0
    7.8322   16.7238   14.8734 H   0  0  0  0  0  0
    6.1217   16.2965   15.2173 H   0  0  0  0  0  0
    7.1129   17.1145   16.4723 H   0  0  0  0  0  0
    7.3023   19.0616   15.1023 H   0  0  0  0  0  0
    5.7929   19.3335   13.0341 H   0  0  0  0  0  0
    7.1973   18.2351   12.8160 H   0  0  0  0  0  0
    5.6576   16.3132   13.1784 H   0  0  0  0  0  0
    4.2920   17.4801   13.1837 H   0  0  0  0  0  0
    4.3918   16.5384   11.0222 H   0  0  0  0  0  0
    5.0567   18.2010   10.8800 H   0  0  0  0  0  0
    6.3906   16.6824    9.5460 H   0  0  0  0  0  0
    7.3661   17.2302   10.9513 H   0  0  0  0  0  0
    7.5649   14.7929   10.6155 H   0  0  0  0  0  0
    5.7824   14.6314   10.7678 H   0  0  0  0  0  0
    6.7579   15.1793   12.1731 H   0  0  0  0  0  0
    5.8310   20.7740   15.3423 H   0  0  0  0  0  0
    3.7496   20.0510   17.2428 H   0  0  0  0  0  0
    4.2659   22.7778   15.8095 H   0  0  0  0  0  0
    3.1081   22.5977   17.1709 H   0  0  0  0  0  0
    4.0090   21.9370   19.4305 H   0  0  0  0  0  0
    6.6071   22.9018   16.1924 H   0  0  0  0  0  0
    5.8574   22.1790   21.0510 H   0  0  0  0  0  0
    8.4437   23.2014   17.8022 H   0  0  0  0  0  0
    8.2033   22.7014   21.4261 H   0  0  0  0  0  0
    1.5454   20.0811   17.2435 H   0  0  0  0  0  0
    0.4717   20.5282   14.4723 H   0  0  0  0  0  0
    0.4876   18.0578   15.1716 H   0  0  0  0  0  0
   -0.8303   18.4781   16.3174 H   0  0  0  0  0  0
   -2.0802   19.6117   14.3422 H   0  0  0  0  0  0
   -0.8207   18.9609   13.2390 H   0  0  0  0  0  0
   -1.4750   16.7209   13.6528 H   0  0  0  0  0  0
   -2.4804   17.1935   15.0644 H   0  0  0  0  0  0
   -4.1523   16.9883   13.4491 H   0  0  0  0  0  0
   -3.7163   18.7133   13.2021 H   0  0  0  0  0  0
   -3.6803   17.4613   11.0538 H   0  0  0  0  0  0
   -2.4813   16.3237   11.7574 H   0  0  0  0  0  0
   -2.0453   18.0487   11.5104 H   0  0  0  0  0  0
  1  2  1  0  0  0
  1 32  1  0  0  0
  1 33  1  0  0  0
  1 34  1  0  0  0
  2  5  1  0  0  0
  2  3  1  0  0  0
  2 35  1  0  0  0
  3  4  2  0  0  0
  3 10  1  0  0  0
  5  6  1  0  0  0
  5 36  1  0  0  0
  5 37  1  0  0  0
  6  7  1  0  0  0
  6 38  1  0  0  0
  6 39  1  0  0  0
  7  8  1  0  0  0
  7 40  1  0  0  0
  7 41  1  0  0  0
  8  9  1  0  0  0
  8 42  1  0  0  0
  8 43  1  0  0  0
  9 44  1  0  0  0
  9 45  1  0  0  0
  9 46  1  0  0  0
 10 11  1  0  0  0
 10 47  1  0  0  0
 11 14  1  0  0  0
 11 12  1  0  0  0
 11 48  1  0  0  0
 12 13  2  0  0  0
 12 22  1  0  0  0
 14 15  1  0  0  0
 14 49  1  0  0  0
 14 50  1  0  0  0
 15 16  2  0  0  0
 15 17  1  0  0  0
 16 18  1  0  0  0
 16 51  1  0  0  0
 17 19  2  0  0  0
 17 52  1  0  0  0
 18 20  2  0  0  0
 18 53  1  0  0  0
 19 20  1  0  0  0
 19 54  1  0  0  0
 20 21  1  0  0  0
 21 55  1  0  0  0
 22 23  1  0  0  0
 22 56  1  0  0  0
 23 26  1  0  0  0
 23 24  1  0  0  0
 23 57  1  0  0  0
 24 25  1  0  0  0
 24 31  2  0  0  0
 26 27  1  0  0  0
 26 58  1  0  0  0
 26 59  1  0  0  0
 27 28  1  0  0  0
 27 60  1  0  0  0
 27 61  1  0  0  0
 28 29  1  0  0  0
 28 62  1  0  0  0
 28 63  1  0  0  0
 29 30  1  0  0  0
 29 64  1  0  0  0
 29 65  1  0  0  0
 30 66  1  0  0  0
 30 67  1  0  0  0
 30 68  1  0  0  0
M  CHG  4   1   1   9   1  25  -1  30   1
M  END
> <s_m_source_file>
../1b58_ligand.sdf

> <i_m_source_file_index>
1

> <s_epik_input>
W05IMytdW0NIMl1bQ0gyXVtDSDJdW0NIMl1bQ0BIXShbTkgzK10pQyg9TylbTkhdW0NAQEhdKFtDSDJdYzFbY0hdW2NIXWMoW09IXSlbY0hdW2NIXTEpQyg9TylbTkhdW0NASF0oQyg9TylbT0hdKVtDSDJdW0NIMl1bQ0gyXVtDSDJdW05IMytd

> <s_epik_cmdline>
J2VwaWtfYXBwJywgJy1pbWFlJywgJ2xpZ2FuZF9wcm8ubWFlJywgJy1vbWFlJywgJ2xpZ2FuZF9wcmVwLm1hZScsICctbXMnLCAnMScsICctcGgnLCAnNycsICctcGh0JywgJzAuNScsICctbnQn

> <r_lp_tautomer_probability>
0.999999999997365

> <r_epik_Ionization_Penalty>
  0.1273

> <r_epik_Ionization_Penalty_Charging>
  0.1264

> <r_epik_Ionization_Penalty_Neutral>
  0.0009

> <r_epik_State_Penalty>
  0.1148

> <r_epik_Charging_Adjusted_Penalty>
0.241267545997325

> <i_epik_Tot_Q>
2

> <i_epik_Tot_abs_Q>
4

$$$$
