1b5g_ligand
                    3D
 Schrodinger Suite 2020-3.
 79 83  0  0  1  0            999 V2000
   16.4090  -12.7630   20.1670 C   0  0  0  0  0  0
   15.9940  -13.7530   19.5710 O   0  0  0  0  0  0
   17.7970  -12.7800   20.8170 C   0  0  2  0  0  0
   18.9650  -12.7520   19.8060 C   0  0  0  0  0  0
   19.4410  -14.2310   19.7100 C   0  0  0  0  0  0
   19.3420  -14.6980   21.1760 C   0  0  2  0  0  0
   19.3860  -16.2100   21.4240 C   0  0  0  0  0  0
   18.7590  -16.6540   22.7340 C   0  0  0  0  0  0
   17.4970  -15.8880   23.1740 C   0  0  2  0  0  0
   17.2390  -14.5030   22.5070 C   0  0  0  0  0  0
   16.1710  -13.9540   22.7370 O   0  0  0  0  0  0
   18.0630  -14.0350   21.5470 N   0  0  0  0  0  0
   17.4410  -15.7980   24.6440 N   0  3  0  0  0  0
   16.2530  -16.6920   22.7090 C   0  0  0  0  0  0
   16.4480  -18.1420   23.1610 C   0  0  0  0  0  0
   17.3280  -18.9820   22.4920 C   0  0  0  0  0  0
   17.5160  -20.3040   22.9380 C   0  0  0  0  0  0
   16.8030  -20.7720   24.0410 C   0  0  0  0  0  0
   15.8810  -19.9380   24.6970 C   0  0  0  0  0  0
   15.6990  -18.6270   24.2420 C   0  0  0  0  0  0
   15.6720  -11.6230   20.2770 N   0  0  0  0  0  0
   14.3470  -11.5840   19.6000 C   0  0  2  0  0  0
   14.5720  -10.7420   18.3200 C   0  0  2  0  0  0
   13.5590  -10.2060   17.7980 O   0  0  0  0  0  0
   13.3210  -10.7920   20.4900 C   0  0  0  0  0  0
   13.0360  -11.7540   21.6670 C   0  0  0  0  0  0
   12.0530  -11.2570   22.6120 C   0  0  0  0  0  0
   11.6180  -12.3610   23.4780 N   0  0  0  0  0  0
   10.6290  -12.1130   24.3290 C   0  0  0  0  0  0
   10.4870  -10.8120   24.6690 N   0  0  0  0  0  0
    9.8180  -13.0660   24.7960 N   0  3  0  0  0  0
   15.6140  -11.2400   17.2720 C   0  0  0  0  0  0
   16.8080  -10.9240   17.1060 N   0  0  0  0  0  0
   17.4220  -11.6190   16.0750 C   0  0  0  0  0  0
   18.7580  -11.4790   15.6340 C   0  0  0  0  0  0
   19.2140  -12.2400   14.5300 C   0  0  0  0  0  0
   18.3480  -13.1380   13.8870 C   0  0  0  0  0  0
   17.0050  -13.2580   14.3220 C   0  0  0  0  0  0
   16.5980  -12.4800   15.4120 C   0  0  0  0  0  0
   15.0320  -12.4580   16.0840 S   0  0  0  0  0  0
   17.7639  -11.9086   21.4875 H   0  0  0  0  0  0
   18.6029  -12.3760   18.8378 H   0  0  0  0  0  0
   19.7597  -12.0909   20.1821 H   0  0  0  0  0  0
   18.7742  -14.7877   19.0352 H   0  0  0  0  0  0
   20.4681  -14.2609   19.3174 H   0  0  0  0  0  0
   20.1935  -14.4117   21.8108 H   0  0  0  0  0  0
   18.8451  -16.7294   20.6193 H   0  0  0  0  0  0
   20.4325  -16.5486   21.4403 H   0  0  0  0  0  0
   18.4635  -17.7109   22.6594 H   0  0  0  0  0  0
   19.4881  -16.5338   23.5488 H   0  0  0  0  0  0
   18.3106  -15.2325   25.0101 H   0  0  0  0  0  0
   17.4544  -16.8103   25.0741 H   0  0  0  0  0  0
   16.5162  -15.2840   24.9449 H   0  0  0  0  0  0
   15.3484  -16.2648   23.1664 H   0  0  0  0  0  0
   16.1702  -16.6384   21.6134 H   0  0  0  0  0  0
   17.8734  -18.6179   21.6213 H   0  0  0  0  0  0
   18.2172  -20.9601   22.4223 H   0  0  0  0  0  0
   16.9614  -21.7901   24.3966 H   0  0  0  0  0  0
   15.3138  -20.3084   25.5510 H   0  0  0  0  0  0
   14.9709  -17.9797   24.7309 H   0  0  0  0  0  0
   16.0264  -10.7489   20.8429 H   0  0  0  0  0  0
   14.0086  -12.6141   19.4146 H   0  0  0  0  0  0
   14.8179   -9.7334   18.6838 H   0  0  0  0  0  0
   12.7531   -9.8150   18.4365 H   0  0  0  0  0  0
   13.7773   -9.8486   20.8242 H   0  0  0  0  0  0
   12.4173  -10.5740   19.9020 H   0  0  0  0  0  0
   12.6558  -12.7093   21.2760 H   0  0  0  0  0  0
   13.9650  -11.9315   22.2287 H   0  0  0  0  0  0
   12.5025  -10.4614   23.2243 H   0  0  0  0  0  0
   11.1886  -10.8538   22.0640 H   0  0  0  0  0  0
   12.1078  -13.3432   23.4049 H   0  0  0  0  0  0
   11.1771  -10.0585   24.2615 H   0  0  0  0  0  0
    9.6814  -10.5071   25.3531 H   0  0  0  0  0  0
    9.9686  -14.1130   24.4940 H   0  0  0  0  0  0
   19.4331  -10.7894   16.1407 H   0  0  0  0  0  0
   20.2398  -12.1280   14.1789 H   0  0  0  0  0  0
   18.7081  -13.7421   13.0543 H   0  0  0  0  0  0
   16.3108  -13.9347   13.8237 H   0  0  0  0  0  0
    8.9995  -12.8039   25.4826 H   0  0  0  0  0  0
  1  2  2  0  0  0
  1  3  1  0  0  0
  1 21  1  0  0  0
  3  4  1  0  0  0
  3 12  1  0  0  0
  3 41  1  0  0  0
  4  5  1  0  0  0
  4 42  1  0  0  0
  4 43  1  0  0  0
  5  6  1  0  0  0
  5 44  1  0  0  0
  5 45  1  0  0  0
  6  7  1  0  0  0
  6 12  1  0  0  0
  6 46  1  0  0  0
  7  8  1  0  0  0
  7 47  1  0  0  0
  7 48  1  0  0  0
  8  9  1  0  0  0
  8 49  1  0  0  0
  8 50  1  0  0  0
  9 10  1  0  0  0
  9 13  1  0  0  0
  9 14  1  0  0  0
 10 11  2  0  0  0
 10 12  1  0  0  0
 13 51  1  0  0  0
 13 52  1  0  0  0
 13 53  1  0  0  0
 14 15  1  0  0  0
 14 54  1  0  0  0
 14 55  1  0  0  0
 15 16  2  0  0  0
 15 20  1  0  0  0
 16 17  1  0  0  0
 16 56  1  0  0  0
 17 18  2  0  0  0
 17 57  1  0  0  0
 18 19  1  0  0  0
 18 58  1  0  0  0
 19 20  2  0  0  0
 19 59  1  0  0  0
 20 60  1  0  0  0
 21 22  1  0  0  0
 21 61  1  0  0  0
 22 23  1  0  0  0
 22 25  1  0  0  0
 22 62  1  0  0  0
 23 24  1  0  0  0
 23 32  1  0  0  0
 23 63  1  0  0  0
 24 64  1  0  0  0
 25 26  1  0  0  0
 25 65  1  0  0  0
 25 66  1  0  0  0
 26 27  1  0  0  0
 26 67  1  0  0  0
 26 68  1  0  0  0
 27 28  1  0  0  0
 27 69  1  0  0  0
 27 70  1  0  0  0
 28 29  1  0  0  0
 28 71  1  0  0  0
 29 30  1  0  0  0
 29 31  2  0  0  0
 30 72  1  0  0  0
 30 73  1  0  0  0
 31 74  1  0  0  0
 31 79  1  0  0  0
 32 33  2  0  0  0
 32 40  1  0  0  0
 33 34  1  0  0  0
 34 35  2  0  0  0
 34 39  1  0  0  0
 35 36  1  0  0  0
 35 75  1  0  0  0
 36 37  2  0  0  0
 36 76  1  0  0  0
 37 38  1  0  0  0
 37 77  1  0  0  0
 38 39  2  0  0  0
 38 78  1  0  0  0
 39 40  1  0  0  0
M  CHG  2  13   1  31   1
M  END
> <s_m_source_file>
../1b5g_ligand.sdf

> <i_m_source_file_index>
1

> <s_epik_input>
W2NIXTFbY0hdW2NIXVtjSF1jKGMxMilzYyhuMilbQ0BASF0oW09IXSlbQ0BIXShbQ0gyXVtDSDJdW0NIMl1bTkhdL0MoW05IMl0pPU5cW0hdKVtOSF1DKD1PKVtDQEhdKFtDSDJdW0NIMl0zKU4oW0NASF0zNClDKD1PKVtDQF0oW05IMytdKShbQ0gyXVtDSDJdNClbQ0gyXWM1W2NIXVtjSF1bY0hdW2NIXVtjSF01

> <s_epik_cmdline>
J2VwaWtfYXBwJywgJy1pbWFlJywgJ2xpZ2FuZF9wcm8ubWFlJywgJy1vbWFlJywgJ2xpZ2FuZF9wcmVwLm1hZScsICctbXMnLCAnMScsICctcGgnLCAnNycsICctcGh0JywgJzAuNScsICctbnQn

> <r_epik_Ionization_Penalty>
  0.1400

> <r_epik_Ionization_Penalty_Charging>
  0.1400

> <r_epik_Ionization_Penalty_Neutral>
  0.0000

> <r_epik_State_Penalty>
  0.1293

> <r_epik_Charging_Adjusted_Penalty>
0.26926280269714

> <i_epik_Tot_Q>
2

> <i_epik_Tot_abs_Q>
2

> <s_epik_Chemistry_Notes>
This compound has an imine and may undergo hydrolysis.

$$$$
