1b5h_ligand
                    3D
 Schrodinger Suite 2020-3.
 60 59  0  0  1  0            999 V2000
    6.8510   16.4590   15.1270 N   0  3  0  0  0  0
    6.3990   17.7750   14.5860 C   0  0  2  0  0  0
    5.1800   18.3030   15.3350 C   0  0  0  0  0  0
    4.3960   17.5280   15.8720 O   0  0  0  0  0  0
    6.1500   17.7010   13.0690 C   0  0  0  0  0  0
    5.1600   16.6480   12.6150 C   0  0  0  0  0  0
    5.0520   16.5520   11.0840 C   0  0  0  0  0  0
    6.3270   15.9790   10.4570 C   0  0  0  0  0  0
    6.5300   14.5420   10.8510 N   0  3  0  0  0  0
    5.0290   19.6060   15.4070 N   0  0  0  0  0  0
    3.9730   20.2810   16.1400 C   0  0  2  0  0  0
    2.6380   20.2790   15.4270 C   0  0  0  0  0  0
    2.6220   20.5680   14.2230 O   0  0  0  0  0  0
    4.3340   21.7650   16.3790 C   0  0  0  0  0  0
    5.2700   21.7450   17.5120 N   0  3  0  0  0  0
    1.5580   19.9130   16.1280 N   0  0  0  0  0  0
    0.2770   19.8620   15.4450 C   0  0  2  0  0  0
   -0.8060   20.6720   16.1850 C   0  0  0  0  0  0
   -1.7740   21.0270   15.4930 O   0  5  0  0  0  0
   -0.2610   18.4320   15.2570 C   0  0  0  0  0  0
   -1.3260   18.4390   14.1370 C   0  0  0  0  0  0
   -1.8600   17.1080   13.7590 C   0  0  0  0  0  0
   -2.9320   17.0490   12.6730 C   0  0  0  0  0  0
   -3.6490   18.3570   12.6010 N   0  3  0  0  0  0
   -0.6430   20.9740   17.3660 O   0  0  0  0  0  0
    7.0195   16.5464   16.2105 H   0  0  0  0  0  0
    7.7878   16.1617   14.6330 H   0  0  0  0  0  0
    6.0787   15.6993   14.9361 H   0  0  0  0  0  0
    7.2259   18.4765   14.7707 H   0  0  0  0  0  0
    5.7576   18.6655   12.7144 H   0  0  0  0  0  0
    7.0953   17.4776   12.5527 H   0  0  0  0  0  0
    5.4734   15.6633   12.9920 H   0  0  0  0  0  0
    4.1614   16.8900   13.0076 H   0  0  0  0  0  0
    4.2110   15.8955   10.8162 H   0  0  0  0  0  0
    4.8822   17.5547   10.6648 H   0  0  0  0  0  0
    6.2536   16.0347    9.3609 H   0  0  0  0  0  0
    7.1962   16.5615   10.7963 H   0  0  0  0  0  0
    7.4511   14.1609   10.3859 H   0  0  0  0  0  0
    5.6723   13.9436   10.5099 H   0  0  0  0  0  0
    6.6150   14.4704   11.9454 H   0  0  0  0  0  0
    5.7791   20.1935   14.8573 H   0  0  0  0  0  0
    3.9110   19.6706   17.0530 H   0  0  0  0  0  0
    4.7993   22.1797   15.4726 H   0  0  0  0  0  0
    3.4207   22.3313   16.6142 H   0  0  0  0  0  0
    5.5799   22.7733   17.7498 H   0  0  0  0  0  0
    6.1546   21.1476   17.2463 H   0  0  0  0  0  0
    4.7760   21.2991   18.3879 H   0  0  0  0  0  0
    1.6230   19.6544   17.1952 H   0  0  0  0  0  0
    0.5438   20.3085   14.4758 H   0  0  0  0  0  0
    0.5663   17.7627   14.9784 H   0  0  0  0  0  0
   -0.7135   18.0839   16.1973 H   0  0  0  0  0  0
   -2.1893   19.0417   14.4557 H   0  0  0  0  0  0
   -0.8939   18.8721   13.2228 H   0  0  0  0  0  0
   -1.0401   16.4763   13.3865 H   0  0  0  0  0  0
   -2.3179   16.6331   14.6393 H   0  0  0  0  0  0
   -2.4593   16.8386   11.7023 H   0  0  0  0  0  0
   -3.6515   16.2517   12.9109 H   0  0  0  0  0  0
   -4.4199   18.3099   11.8178 H   0  0  0  0  0  0
   -2.9315   19.1557   12.3618 H   0  0  0  0  0  0
   -4.1237   18.5688   13.5705 H   0  0  0  0  0  0
  1  2  1  0  0  0
  1 26  1  0  0  0
  1 27  1  0  0  0
  1 28  1  0  0  0
  2  3  1  0  0  0
  2  5  1  0  0  0
  2 29  1  0  0  0
  3  4  2  0  0  0
  3 10  1  0  0  0
  5  6  1  0  0  0
  5 30  1  0  0  0
  5 31  1  0  0  0
  6  7  1  0  0  0
  6 32  1  0  0  0
  6 33  1  0  0  0
  7  8  1  0  0  0
  7 34  1  0  0  0
  7 35  1  0  0  0
  8  9  1  0  0  0
  8 36  1  0  0  0
  8 37  1  0  0  0
  9 38  1  0  0  0
  9 39  1  0  0  0
  9 40  1  0  0  0
 10 11  1  0  0  0
 10 41  1  0  0  0
 11 14  1  0  0  0
 11 12  1  0  0  0
 11 42  1  0  0  0
 12 13  2  0  0  0
 12 16  1  0  0  0
 14 15  1  0  0  0
 14 43  1  0  0  0
 14 44  1  0  0  0
 15 45  1  0  0  0
 15 46  1  0  0  0
 15 47  1  0  0  0
 16 17  1  0  0  0
 16 48  1  0  0  0
 17 18  1  0  0  0
 17 20  1  0  0  0
 17 49  1  0  0  0
 18 25  2  0  0  0
 18 19  1  0  0  0
 20 21  1  0  0  0
 20 50  1  0  0  0
 20 51  1  0  0  0
 21 22  1  0  0  0
 21 52  1  0  0  0
 21 53  1  0  0  0
 22 23  1  0  0  0
 22 54  1  0  0  0
 22 55  1  0  0  0
 23 24  1  0  0  0
 23 56  1  0  0  0
 23 57  1  0  0  0
 24 58  1  0  0  0
 24 59  1  0  0  0
 24 60  1  0  0  0
M  CHG  5   1   1   9   1  15   1  19  -1  24   1
M  END
> <s_m_source_file>
../1b5h_ligand.sdf

> <i_m_source_file_index>
1

> <s_epik_input>
W05IMytdW0NIMl1bQ0gyXVtDSDJdW0NIMl1bQ0BIXShbTkgzK10pQyg9TylbTkhdW0NAQEhdKFtDSDJdW05IMytdKUMoPU8pW05IXVtDQEhdKEMoPU8pW09IXSlbQ0gyXVtDSDJdW0NIMl1bQ0gyXVtOSDMrXQ==

> <s_epik_cmdline>
J2VwaWtfYXBwJywgJy1pbWFlJywgJ2xpZ2FuZF9wcm8ubWFlJywgJy1vbWFlJywgJ2xpZ2FuZF9wcmVwLm1hZScsICctbXMnLCAnMScsICctcGgnLCAnNycsICctcGh0JywgJzAuNScsICctbnQn

> <r_lp_tautomer_probability>
1

> <r_epik_Ionization_Penalty>
  0.1736

> <r_epik_Ionization_Penalty_Charging>
  0.1736

> <r_epik_Ionization_Penalty_Neutral>
  0.0000

> <r_epik_State_Penalty>
 -0.0000

> <r_epik_Charging_Adjusted_Penalty>
0.173581965407318

> <i_epik_Tot_Q>
3

> <i_epik_Tot_abs_Q>
5

$$$$
