1b5i_ligand
                    3D
 Schrodinger Suite 2020-3.
 61 60  0  0  1  0            999 V2000
    6.8880   16.5850   15.2370 N   0  3  0  0  0  0
    6.4120   17.8710   14.6290 C   0  0  2  0  0  0
    5.2240   18.4200   15.4180 C   0  0  0  0  0  0
    4.4480   17.6480   15.9690 O   0  0  0  0  0  0
    6.0570   17.8000   13.1500 C   0  0  0  0  0  0
    5.1710   16.6660   12.6790 C   0  0  0  0  0  0
    5.1470   16.5360   11.1470 C   0  0  0  0  0  0
    6.4820   16.0900   10.5660 C   0  0  0  0  0  0
    6.8160   14.6790   10.9490 N   0  3  0  0  0  0
    5.1150   19.7310   15.5020 N   0  0  0  0  0  0
    3.9960   20.3660   16.2000 C   0  0  2  0  0  0
    2.7140   20.3480   15.3810 C   0  0  0  0  0  0
    2.6990   20.6480   14.1900 O   0  0  0  0  0  0
    4.3040   21.8440   16.5010 C   0  0  0  0  0  0
    4.9860   21.8890   17.8790 C   0  0  0  0  0  0
    4.4780   21.2970   18.8270 O   0  0  0  0  0  0
    6.1080   22.5410   18.0450 N   0  0  0  0  0  0
    1.5940   19.9770   16.0020 N   0  0  0  0  0  0
    0.3310   19.9140   15.3150 C   0  0  2  0  0  0
   -0.7100   20.7810   16.0510 C   0  0  0  0  0  0
   -1.7460   21.1160   15.4950 O   0  0  0  0  0  0
   -0.2470   18.4830   15.2680 C   0  0  0  0  0  0
   -1.3900   18.4580   14.2440 C   0  0  0  0  0  0
   -1.6500   17.0610   13.7100 C   0  0  0  0  0  0
   -2.5540   17.1150   12.4690 C   0  0  0  0  0  0
   -3.9330   17.4300   12.9680 N   0  3  0  0  0  0
   -0.5210   21.1280   17.2120 O   0  5  0  0  0  0
    7.7423   16.2009   14.6603 H   0  0  0  0  0  0
    6.0723   15.8472   15.2195 H   0  0  0  0  0  0
    7.1984   16.7639   16.2770 H   0  0  0  0  0  0
    7.2873   18.5338   14.6963 H   0  0  0  0  0  0
    5.5240   18.7164   12.8565 H   0  0  0  0  0  0
    6.9780   17.7052   12.5560 H   0  0  0  0  0  0
    5.5394   15.7162   13.0940 H   0  0  0  0  0  0
    4.1400   16.8400   13.0206 H   0  0  0  0  0  0
    4.3905   15.7931   10.8539 H   0  0  0  0  0  0
    4.8971   17.5096   10.7002 H   0  0  0  0  0  0
    6.4420   16.1483    9.4683 H   0  0  0  0  0  0
    7.2819   16.7464   10.9391 H   0  0  0  0  0  0
    7.7848   14.3993   10.5095 H   0  0  0  0  0  0
    6.0341   14.0024   10.5738 H   0  0  0  0  0  0
    6.8740   14.6004   12.0447 H   0  0  0  0  0  0
    5.8922   20.3507   15.0308 H   0  0  0  0  0  0
    3.8880   19.7514   17.1059 H   0  0  0  0  0  0
    4.9709   22.2452   15.7237 H   0  0  0  0  0  0
    3.3664   22.4191   16.5122 H   0  0  0  0  0  0
    6.5658   23.0725   17.1977 H   0  0  0  0  0  0
    6.5936   22.5577   19.0319 H   0  0  0  0  0  0
    1.6536   19.7150   17.0687 H   0  0  0  0  0  0
    0.5908   20.2797   14.3106 H   0  0  0  0  0  0
    0.5428   17.7782   14.9688 H   0  0  0  0  0  0
   -0.6262   18.2078   16.2632 H   0  0  0  0  0  0
   -2.3143   18.8206   14.7174 H   0  0  0  0  0  0
   -1.1346   19.1071   13.3935 H   0  0  0  0  0  0
   -0.6948   16.5902   13.4344 H   0  0  0  0  0  0
   -2.1455   16.4584   14.4854 H   0  0  0  0  0  0
   -2.1924   17.8976   11.7858 H   0  0  0  0  0  0
   -2.5317   16.1420   11.9565 H   0  0  0  0  0  0
   -4.6280   17.4815   12.1169 H   0  0  0  0  0  0
   -3.9215   18.3976   13.4911 H   0  0  0  0  0  0
   -4.2608   16.6419   13.6619 H   0  0  0  0  0  0
  1  2  1  0  0  0
  1 28  1  0  0  0
  1 29  1  0  0  0
  1 30  1  0  0  0
  2  5  1  0  0  0
  2  3  1  0  0  0
  2 31  1  0  0  0
  3  4  2  0  0  0
  3 10  1  0  0  0
  5  6  1  0  0  0
  5 32  1  0  0  0
  5 33  1  0  0  0
  6  7  1  0  0  0
  6 34  1  0  0  0
  6 35  1  0  0  0
  7  8  1  0  0  0
  7 36  1  0  0  0
  7 37  1  0  0  0
  8  9  1  0  0  0
  8 38  1  0  0  0
  8 39  1  0  0  0
  9 40  1  0  0  0
  9 41  1  0  0  0
  9 42  1  0  0  0
 10 11  1  0  0  0
 10 43  1  0  0  0
 11 14  1  0  0  0
 11 12  1  0  0  0
 11 44  1  0  0  0
 12 13  2  0  0  0
 12 18  1  0  0  0
 14 15  1  0  0  0
 14 45  1  0  0  0
 14 46  1  0  0  0
 15 17  1  0  0  0
 15 16  2  0  0  0
 17 47  1  0  0  0
 17 48  1  0  0  0
 18 19  1  0  0  0
 18 49  1  0  0  0
 19 22  1  0  0  0
 19 20  1  0  0  0
 19 50  1  0  0  0
 20 21  2  0  0  0
 20 27  1  0  0  0
 22 23  1  0  0  0
 22 51  1  0  0  0
 22 52  1  0  0  0
 23 24  1  0  0  0
 23 53  1  0  0  0
 23 54  1  0  0  0
 24 25  1  0  0  0
 24 55  1  0  0  0
 24 56  1  0  0  0
 25 26  1  0  0  0
 25 57  1  0  0  0
 25 58  1  0  0  0
 26 59  1  0  0  0
 26 60  1  0  0  0
 26 61  1  0  0  0
M  CHG  4   1   1   9   1  26   1  27  -1
M  END
> <s_m_source_file>
../1b5i_ligand.sdf

> <i_m_source_file_index>
1

> <s_epik_input>
W05IMytdW0NIMl1bQ0gyXVtDSDJdW0NIMl1bQ0BIXShbTkgzK10pQyg9TylbTkhdW0NAQEhdKFtDSDJdQyg9TylbTkgyXSlDKD1PKVtOSF1bQ0BIXShDKD1PKVtPSF0pW0NIMl1bQ0gyXVtDSDJdW0NIMl1bTkgzK10=

> <s_epik_cmdline>
J2VwaWtfYXBwJywgJy1pbWFlJywgJ2xpZ2FuZF9wcm8ubWFlJywgJy1vbWFlJywgJ2xpZ2FuZF9wcmVwLm1hZScsICctbXMnLCAnMScsICctcGgnLCAnNycsICctcGh0JywgJzAuNScsICctbnQn

> <r_epik_Ionization_Penalty>
  0.1265

> <r_epik_Ionization_Penalty_Charging>
  0.1265

> <r_epik_Ionization_Penalty_Neutral>
  0.0000

> <r_epik_State_Penalty>
  0.1149

> <r_epik_Charging_Adjusted_Penalty>
0.241375426252282

> <i_epik_Tot_Q>
2

> <i_epik_Tot_abs_Q>
4

$$$$
