1b5j_ligand
                    3D
 Schrodinger Suite 2020-3.
 64 63  0  0  1  0            999 V2000
    6.9140   16.4940   15.1200 N   0  3  0  0  0  0
    6.4250   17.7690   14.5330 C   0  0  2  0  0  0
    5.1810   18.2630   15.2420 C   0  0  0  0  0  0
    4.4250   17.4650   15.8020 O   0  0  0  0  0  0
    6.2210   17.6860   13.0080 C   0  0  0  0  0  0
    5.2760   16.5630   12.5730 C   0  0  0  0  0  0
    5.1850   16.4610   11.0510 C   0  0  0  0  0  0
    6.4310   15.8590   10.4010 C   0  0  0  0  0  0
    6.6880   14.4600   10.8540 N   0  3  0  0  0  0
    5.0240   19.5860   15.2760 N   0  0  0  0  0  0
    3.8710   20.2000   15.9420 C   0  0  2  0  0  0
    2.5810   20.0540   15.1670 C   0  0  0  0  0  0
    2.4670   20.2870   13.9640 O   0  0  0  0  0  0
    4.1160   21.7310   16.0430 C   0  0  0  0  0  0
    5.3340   22.0100   16.9260 C   0  0  0  0  0  0
    5.3010   21.7160   18.3800 C   0  0  0  0  0  0
    4.3940   21.1620   18.9820 O   0  0  0  0  0  0
    6.3900   22.0720   19.0740 N   0  0  0  0  0  0
    1.5280   19.6590   15.9010 N   0  0  0  0  0  0
    0.2110   19.4900   15.3510 C   0  0  2  0  0  0
   -0.8060   20.3950   16.0690 C   0  0  0  0  0  0
   -1.8000   20.6880   15.3750 O   0  0  0  0  0  0
   -0.1970   18.0150   15.5780 C   0  0  0  0  0  0
   -1.6010   17.7200   15.1130 C   0  0  0  0  0  0
   -1.6070   17.3160   13.6490 C   0  0  0  0  0  0
   -3.0610   16.9250   13.2890 C   0  0  0  0  0  0
   -3.1060   16.9290   11.7960 N   0  3  0  0  0  0
   -0.6160   20.7860   17.2430 O   0  5  0  0  0  0
    7.8157   16.1651   14.5827 H   0  0  0  0  0  0
    6.1324   15.7252   15.0297 H   0  0  0  0  0  0
    7.1557   16.6482   16.1820 H   0  0  0  0  0  0
    7.2297   18.4940   14.7251 H   0  0  0  0  0  0
    5.7946   18.6321   12.6431 H   0  0  0  0  0  0
    7.1893   17.5070   12.5177 H   0  0  0  0  0  0
    5.6436   15.6026   12.9636 H   0  0  0  0  0  0
    4.2682   16.7580   12.9684 H   0  0  0  0  0  0
    4.3316   15.8235   10.7766 H   0  0  0  0  0  0
    5.0450   17.4650   10.6239 H   0  0  0  0  0  0
    6.3041   15.8449    9.3084 H   0  0  0  0  0  0
    7.3101   16.4674   10.6602 H   0  0  0  0  0  0
    7.5916   14.0745   10.3591 H   0  0  0  0  0  0
    5.8279   13.8261   10.5925 H   0  0  0  0  0  0
    6.8339   14.4486   11.9442 H   0  0  0  0  0  0
    5.7811   20.2200   14.7913 H   0  0  0  0  0  0
    3.7943   19.6527   16.8931 H   0  0  0  0  0  0
    4.2966   22.1405   15.0382 H   0  0  0  0  0  0
    3.2319   22.2156   16.4830 H   0  0  0  0  0  0
    6.1915   21.4239   16.5637 H   0  0  0  0  0  0
    5.5789   23.0816   16.8850 H   0  0  0  0  0  0
    7.2269   22.5729   18.5654 H   0  0  0  0  0  0
    6.4474   21.8634   20.1525 H   0  0  0  0  0  0
    1.7077   19.4624   16.9683 H   0  0  0  0  0  0
    0.2876   19.7743   14.2911 H   0  0  0  0  0  0
    0.4867   17.3559   15.0229 H   0  0  0  0  0  0
   -0.1418   17.7803   16.6512 H   0  0  0  0  0  0
   -2.0200   16.8972   15.7109 H   0  0  0  0  0  0
   -2.2245   18.6177   15.2369 H   0  0  0  0  0  0
   -1.2701   18.1631   13.0335 H   0  0  0  0  0  0
   -0.9286   16.4628   13.5013 H   0  0  0  0  0  0
   -3.2849   15.9290   13.6986 H   0  0  0  0  0  0
   -3.7558   17.6624   13.7175 H   0  0  0  0  0  0
   -4.1174   16.6580   11.4589 H   0  0  0  0  0  0
   -2.3815   16.1993   11.4054 H   0  0  0  0  0  0
   -2.8523   17.9327   11.4242 H   0  0  0  0  0  0
  1  2  1  0  0  0
  1 29  1  0  0  0
  1 30  1  0  0  0
  1 31  1  0  0  0
  2  5  1  0  0  0
  2  3  1  0  0  0
  2 32  1  0  0  0
  3  4  2  0  0  0
  3 10  1  0  0  0
  5  6  1  0  0  0
  5 33  1  0  0  0
  5 34  1  0  0  0
  6  7  1  0  0  0
  6 35  1  0  0  0
  6 36  1  0  0  0
  7  8  1  0  0  0
  7 37  1  0  0  0
  7 38  1  0  0  0
  8  9  1  0  0  0
  8 39  1  0  0  0
  8 40  1  0  0  0
  9 41  1  0  0  0
  9 42  1  0  0  0
  9 43  1  0  0  0
 10 11  1  0  0  0
 10 44  1  0  0  0
 11 14  1  0  0  0
 11 12  1  0  0  0
 11 45  1  0  0  0
 12 13  2  0  0  0
 12 19  1  0  0  0
 14 15  1  0  0  0
 14 46  1  0  0  0
 14 47  1  0  0  0
 15 16  1  0  0  0
 15 48  1  0  0  0
 15 49  1  0  0  0
 16 18  1  0  0  0
 16 17  2  0  0  0
 18 50  1  0  0  0
 18 51  1  0  0  0
 19 20  1  0  0  0
 19 52  1  0  0  0
 20 23  1  0  0  0
 20 21  1  0  0  0
 20 53  1  0  0  0
 21 22  2  0  0  0
 21 28  1  0  0  0
 23 24  1  0  0  0
 23 54  1  0  0  0
 23 55  1  0  0  0
 24 25  1  0  0  0
 24 56  1  0  0  0
 24 57  1  0  0  0
 25 26  1  0  0  0
 25 58  1  0  0  0
 25 59  1  0  0  0
 26 27  1  0  0  0
 26 60  1  0  0  0
 26 61  1  0  0  0
 27 62  1  0  0  0
 27 63  1  0  0  0
 27 64  1  0  0  0
M  CHG  4   1   1   9   1  27   1  28  -1
M  END
> <s_m_source_file>
../1b5j_ligand.sdf

> <i_m_source_file_index>
1

> <s_epik_input>
W05IMytdW0NIMl1bQ0gyXVtDSDJdW0NIMl1bQ0BIXShbTkgzK10pQyg9TylbTkhdW0NAQEhdKFtDSDJdW0NIMl1DKD1PKVtOSDJdKUMoPU8pW05IXVtDQEhdKEMoPU8pW09IXSlbQ0gyXVtDSDJdW0NIMl1bQ0gyXVtOSDMrXQ==

> <s_epik_cmdline>
J2VwaWtfYXBwJywgJy1pbWFlJywgJ2xpZ2FuZF9wcm8ubWFlJywgJy1vbWFlJywgJ2xpZ2FuZF9wcmVwLm1hZScsICctbXMnLCAnMScsICctcGgnLCAnNycsICctcGh0JywgJzAuNScsICctbnQn

> <r_epik_Ionization_Penalty>
  0.1240

> <r_epik_Ionization_Penalty_Charging>
  0.1240

> <r_epik_Ionization_Penalty_Neutral>
  0.0000

> <r_epik_State_Penalty>
  0.1124

> <r_epik_Charging_Adjusted_Penalty>
0.23642312748051

> <i_epik_Tot_Q>
2

> <i_epik_Tot_abs_Q>
4

$$$$
