1b6j_ligand
                    3D
 Schrodinger Suite 2020-3.
103105  0  0  1  0            999 V2000
    6.0980    4.6800    9.6030 C   0  0  0  0  0  0
    4.1570    3.4300   10.5900 C   0  0  0  0  0  0
    3.7960    4.3130   11.3740 O   0  0  0  0  0  0
    4.8970    3.7810    9.3140 C   0  0  0  0  0  0
    3.9350    2.1390   10.8180 N   0  0  0  0  0  0
    3.2650    1.6680   12.0450 C   0  0  2  0  0  0
    4.0410    0.4620   12.5560 C   0  0  0  0  0  0
    3.9570   -0.6280   11.9920 O   0  0  0  0  0  0
    1.8040    1.3250   11.7710 C   0  0  0  0  0  0
    1.0450    2.5070   11.2100 C   0  0  0  0  0  0
    0.6600    3.4160   11.9450 O   0  0  0  0  0  0
    0.8940    2.5410    9.8930 N   0  0  0  0  0  0
    4.8490    0.6910   13.5920 N   0  0  0  0  0  0
    5.6860   -0.3610   14.1980 C   0  0  1  0  0  0
    7.1130    0.1920   14.3260 C   0  0  0  0  0  0
    7.4940    0.8960   13.0550 C   0  0  0  0  0  0
    7.4990    2.2910   12.9850 C   0  0  0  0  0  0
    7.6070    2.9550   11.7550 C   0  0  0  0  0  0
    7.6300    0.1790   11.8640 C   0  0  0  0  0  0
    7.7340    0.8310   10.6380 C   0  0  0  0  0  0
    7.7080    2.2200   10.5750 C   0  0  0  0  0  0
    7.6860    2.7860    9.2980 O   0  0  0  0  0  0
    7.4460    4.1620    9.0120 C   0  0  0  0  0  0
    5.1540   -0.6860   15.5970 C   0  0  1  0  0  0
    5.2480    0.4690   16.4450 O   0  0  0  0  0  0
    3.6990   -1.0900   15.4870 C   0  0  0  0  0  0
    3.5160   -2.5440   15.4480 N   0  3  1  0  0  0
    4.2080   -3.3990   16.4120 C   0  0  2  0  0  0
    5.5010   -4.0600   15.9380 C   0  0  0  0  0  0
    5.8130   -4.1120   14.7460 O   0  0  0  0  0  0
    3.1600   -4.4580   16.7160 C   0  0  0  0  0  0
    2.5420   -4.6660   15.3720 C   0  0  0  0  0  0
    2.3670   -3.2470   14.8510 C   0  0  0  0  0  0
    6.2670   -4.5230   16.9150 N   0  0  0  0  0  0
    7.5050   -5.2630   16.6770 C   0  0  2  0  0  0
    7.3570   -6.4010   17.6690 C   0  0  0  0  0  0
    7.3650   -6.1760   18.8800 O   0  0  0  0  0  0
    8.7830   -4.4560   17.0160 C   0  0  2  0  0  0
    8.9550   -3.2820   16.0500 C   0  0  0  0  0  0
   10.0080   -5.3640   16.9340 C   0  0  0  0  0  0
    9.1600   -3.6980   14.6320 C   0  0  0  0  0  0
    7.0850   -7.5930   17.1520 N   0  0  0  0  0  0
    6.9200   -8.7790   18.0020 C   0  0  2  0  0  0
    8.0430   -9.7860   17.7430 C   0  0  0  0  0  0
    8.3940  -10.0630   16.5900 O   0  0  0  0  0  0
    5.5280   -9.4500   17.7970 C   0  0  0  0  0  0
    4.4170   -8.4300   18.0070 C   0  0  0  0  0  0
    5.4180  -10.0870   16.4130 C   0  0  0  0  0  0
    8.6300  -10.3170   18.8160 N   0  0  0  0  0  0
    6.1838    4.7599   10.6967 H   0  0  0  0  0  0
    5.8682    5.6691    9.1800 H   0  0  0  0  0  0
    4.2034    4.3019    8.6375 H   0  0  0  0  0  0
    5.2415    2.8500    8.8401 H   0  0  0  0  0  0
    4.2668    1.4144   10.0598 H   0  0  0  0  0  0
    3.2763    2.4781   12.7890 H   0  0  0  0  0  0
    1.7509    0.5030   11.0419 H   0  0  0  0  0  0
    1.3179    1.0159   12.7081 H   0  0  0  0  0  0
    1.2544    1.7045    9.2763 H   0  0  0  0  0  0
    0.4084    3.4057    9.4172 H   0  0  0  0  0  0
    4.8754    1.7146   13.9940 H   0  0  0  0  0  0
    5.6456   -1.2533   13.5560 H   0  0  0  0  0  0
    7.1573    0.9017   15.1653 H   0  0  0  0  0  0
    7.8124   -0.6370   14.5095 H   0  0  0  0  0  0
    7.4175    2.8735   13.9027 H   0  0  0  0  0  0
    7.6120    4.0445   11.7215 H   0  0  0  0  0  0
    7.6552   -0.9103   11.8948 H   0  0  0  0  0  0
    7.8364    0.2491    9.7220 H   0  0  0  0  0  0
    7.4361    4.2797    7.9184 H   0  0  0  0  0  0
    8.2791    4.7421    9.4357 H   0  0  0  0  0  0
    5.7577   -1.4695   16.0783 H   0  0  0  0  0  0
    6.2293    0.9205   16.6526 H   0  0  0  0  0  0
    3.1447   -0.7042   16.3553 H   0  0  0  0  0  0
    3.2712   -0.6721   14.5638 H   0  0  0  0  0  0
    4.1179   -2.3155   14.5561 H   0  0  0  0  0  0
    4.5370   -2.7624   17.2466 H   0  0  0  0  0  0
    3.6527   -5.3587   17.1109 H   0  0  0  0  0  0
    2.4524   -4.0697   17.4633 H   0  0  0  0  0  0
    3.2193   -5.2653   14.7458 H   0  0  0  0  0  0
    1.5844   -5.1950   15.4866 H   0  0  0  0  0  0
    1.4324   -2.7788   15.1935 H   0  0  0  0  0  0
    2.4281   -3.1843   13.7545 H   0  0  0  0  0  0
    5.9324   -4.3274   17.9445 H   0  0  0  0  0  0
    7.5781   -5.5399   15.6149 H   0  0  0  0  0  0
    8.6954   -4.0575   18.0375 H   0  0  0  0  0  0
    8.0561   -2.6486   16.0790 H   0  0  0  0  0  0
    9.8318   -2.6880   16.3472 H   0  0  0  0  0  0
    9.8855   -6.2085   17.6281 H   0  0  0  0  0  0
   10.9071   -4.7922   17.2072 H   0  0  0  0  0  0
   10.1137   -5.7453   15.9076 H   0  0  0  0  0  0
    9.2752   -2.8045   14.0008 H   0  0  0  0  0  0
    8.2901   -4.2784   14.2908 H   0  0  0  0  0  0
   10.0658   -4.3178   14.5590 H   0  0  0  0  0  0
    6.9835   -7.6804   16.0602 H   0  0  0  0  0  0
    7.0013   -8.3943   19.0293 H   0  0  0  0  0  0
    5.3975  -10.2541   18.5362 H   0  0  0  0  0  0
    4.5136   -7.9834   19.0076 H   0  0  0  0  0  0
    3.4403   -8.9287   17.9207 H   0  0  0  0  0  0
    4.4946   -7.6411   17.2443 H   0  0  0  0  0  0
    6.2280  -10.8195   16.2811 H   0  0  0  0  0  0
    5.5005   -9.3063   15.6425 H   0  0  0  0  0  0
    4.4463  -10.5939   16.3189 H   0  0  0  0  0  0
    8.2855  -10.0423   19.8239 H   0  0  0  0  0  0
    9.4588  -11.0298   18.6933 H   0  0  0  0  0  0
  1 23  1  0  0  0
  1  4  1  0  0  0
  1 50  1  0  0  0
  1 51  1  0  0  0
  2  4  1  0  0  0
  2  5  1  0  0  0
  2  3  2  0  0  0
  4 52  1  0  0  0
  4 53  1  0  0  0
  5  6  1  0  0  0
  5 54  1  0  0  0
  6  9  1  0  0  0
  6  7  1  0  0  0
  6 55  1  0  0  0
  7 13  1  0  0  0
  7  8  2  0  0  0
  9 10  1  0  0  0
  9 56  1  0  0  0
  9 57  1  0  0  0
 10 12  1  0  0  0
 10 11  2  0  0  0
 12 58  1  0  0  0
 12 59  1  0  0  0
 13 14  1  0  0  0
 13 60  1  0  0  0
 14 24  1  0  0  0
 14 15  1  0  0  0
 14 61  1  0  0  0
 15 16  1  0  0  0
 15 62  1  0  0  0
 15 63  1  0  0  0
 16 19  2  0  0  0
 16 17  1  0  0  0
 17 18  2  0  0  0
 17 64  1  0  0  0
 18 21  1  0  0  0
 18 65  1  0  0  0
 19 20  1  0  0  0
 19 66  1  0  0  0
 20 21  2  0  0  0
 20 67  1  0  0  0
 21 22  1  0  0  0
 22 23  1  0  0  0
 23 68  1  0  0  0
 23 69  1  0  0  0
 24 26  1  0  0  0
 24 25  1  0  0  0
 24 70  1  0  0  0
 25 71  1  0  0  0
 26 27  1  0  0  0
 26 72  1  0  0  0
 26 73  1  0  0  0
 27 33  1  0  0  0
 27 28  1  0  0  0
 27 74  1  0  0  0
 28 31  1  0  0  0
 28 29  1  0  0  0
 28 75  1  0  0  0
 29 34  1  0  0  0
 29 30  2  0  0  0
 31 32  1  0  0  0
 31 76  1  0  0  0
 31 77  1  0  0  0
 32 33  1  0  0  0
 32 78  1  0  0  0
 32 79  1  0  0  0
 33 80  1  0  0  0
 33 81  1  0  0  0
 34 35  1  0  0  0
 34 82  1  0  0  0
 35 38  1  0  0  0
 35 36  1  0  0  0
 35 83  1  0  0  0
 36 42  1  0  0  0
 36 37  2  0  0  0
 38 40  1  0  0  0
 38 39  1  0  0  0
 38 84  1  0  0  0
 39 41  1  0  0  0
 39 85  1  0  0  0
 39 86  1  0  0  0
 40 87  1  0  0  0
 40 88  1  0  0  0
 40 89  1  0  0  0
 41 90  1  0  0  0
 41 91  1  0  0  0
 41 92  1  0  0  0
 42 43  1  0  0  0
 42 93  1  0  0  0
 43 46  1  0  0  0
 43 44  1  0  0  0
 43 94  1  0  0  0
 44 49  1  0  0  0
 44 45  2  0  0  0
 46 48  1  0  0  0
 46 47  1  0  0  0
 46 95  1  0  0  0
 47 96  1  0  0  0
 47 97  1  0  0  0
 47 98  1  0  0  0
 48 99  1  0  0  0
 48100  1  0  0  0
 48101  1  0  0  0
 49102  1  0  0  0
 49103  1  0  0  0
M  CHG  1  27   1
M  END
> <s_m_source_file>
../1b6j_ligand.sdf

> <i_m_source_file_index>
1

> <s_epik_input>
YzEyW2NIXVtjSF1jKFtjSF1bY0hdMilPW0NIMl1bQ0gyXVtDSDJdQyg9TylbTkhdW0NAQEhdKFtDSDJdQyg9TylbTkgyXSlDKD1PKVtOSF1bQ0BASF0oW0NIMl0xKVtDQEBIXShbT0hdKVtDSDJdW05ASCtdM1tDQEBIXShbQ0gyXVtDSDJdW0NIMl0zKUMoPU8pW05IXVtDQEBIXShbQ0BASF0oW0NIM10pW0NIMl1bQ0gzXSlDKD1PKVtOSF1bQ0BIXShDKD1PKVtOSDJdKVtDSF0oW0NIM10pW0NIM10=

> <s_epik_cmdline>
J2VwaWtfYXBwJywgJy1pbWFlJywgJ2xpZ2FuZF9wcm8ubWFlJywgJy1vbWFlJywgJ2xpZ2FuZF9wcmVwLm1hZScsICctbXMnLCAnMScsICctcGgnLCAnNycsICctcGh0JywgJzAuNScsICctbnQn

> <r_lp_tautomer_probability>
1

> <r_epik_Ionization_Penalty>
  0.0120

> <r_epik_Ionization_Penalty_Charging>
  0.0120

> <r_epik_Ionization_Penalty_Neutral>
  0.0000

> <r_epik_State_Penalty>
  0.0093

> <r_epik_Charging_Adjusted_Penalty>
0.021235229566964

> <i_epik_Tot_Q>
1

> <i_epik_Tot_abs_Q>
1

$$$$
