1b6l_ligand
                    3D
 Schrodinger Suite 2020-3.
 83 85  0  0  1  0            999 V2000
    6.1160    2.8190    8.8070 C   0  0  0  0  0  0
    4.2430    3.2310   10.4450 C   0  0  0  0  0  0
    4.1710    4.1370   11.2750 O   0  0  0  0  0  0
    4.7890    3.4970    9.0560 C   0  0  0  0  0  0
    3.8770    1.9790   10.7050 N   0  0  0  0  0  0
    3.3110    1.5880   12.0060 C   0  0  2  0  0  0
    3.9670    0.3640   12.6350 C   0  0  0  0  0  0
    3.9310   -0.7320   12.0750 O   0  0  0  0  0  0
    1.8140    1.3240   11.8550 C   0  0  0  0  0  0
    1.0770    2.5020   11.2770 C   0  0  0  0  0  0
    0.5120    3.3110   12.0060 O   0  0  0  0  0  0
    1.0980    2.6210    9.9530 N   0  0  0  0  0  0
    4.5560    0.5590   13.8100 N   0  0  0  0  0  0
    5.2190   -0.5330   14.5340 C   0  0  1  0  0  0
    6.7350   -0.3200   14.5350 C   0  0  0  0  0  0
    7.2100    0.4410   13.3290 C   0  0  0  0  0  0
    7.3330    1.8230   13.3770 C   0  0  0  0  0  0
    7.6760    2.5460   12.2630 C   0  0  0  0  0  0
    7.4640   -0.2060   12.1200 C   0  0  0  0  0  0
    7.8110    0.5160   10.9900 C   0  0  0  0  0  0
    7.9150    1.8950   11.0740 C   0  0  0  0  0  0
    8.2220    2.6510    9.9710 O   0  0  0  0  0  0
    7.2420    3.5620    9.5120 C   0  0  0  0  0  0
    4.6850   -0.6120   15.9760 C   0  0  2  0  0  0
    5.0950    0.5410   16.7170 O   0  0  0  0  0  0
    5.1720   -1.8710   16.6730 C   0  0  0  0  0  0
    4.4230   -3.0340   16.1410 N   0  3  1  0  0  0
    5.1850   -4.2660   16.4870 C   0  0  1  0  0  0
    4.4110   -5.5030   16.0160 C   0  0  0  0  0  0
    2.9920   -5.5790   16.5630 C   0  0  0  0  0  0
    2.2510   -4.2800   16.2880 C   0  0  0  0  0  0
    3.0580   -3.0800   16.7610 C   0  0  0  0  0  0
    6.5680   -4.2310   15.8390 C   0  0  0  0  0  0
    6.7200   -3.7110   14.7320 O   0  0  0  0  0  0
    8.9620   -4.8510   16.0860 C   0  0  0  0  0  0
    9.4410   -3.4850   15.6080 C   0  0  0  0  0  0
    9.8500   -5.3020   17.2420 C   0  0  0  0  0  0
    9.0930   -5.8660   14.9560 C   0  0  0  0  0  0
    7.5630   -4.7800   16.5410 N   0  0  0  0  0  0
    6.3088    2.8031    7.7242 H   0  0  0  0  0  0
    6.0641    1.7874    9.1854 H   0  0  0  0  0  0
    4.9066    4.5850    8.9446 H   0  0  0  0  0  0
    4.0486    3.1319    8.3291 H   0  0  0  0  0  0
    4.0079    1.2263    9.9136 H   0  0  0  0  0  0
    3.5273    2.4507   12.6532 H   0  0  0  0  0  0
    1.6589    0.4654   11.1851 H   0  0  0  0  0  0
    1.3793    1.1030   12.8410 H   0  0  0  0  0  0
    1.6183    1.8692    9.3414 H   0  0  0  0  0  0
    0.5951    3.4713    9.4692 H   0  0  0  0  0  0
    4.5378    1.5718   14.2388 H   0  0  0  0  0  0
    4.9781   -1.4588   13.9910 H   0  0  0  0  0  0
    7.0247    0.2494   15.4305 H   0  0  0  0  0  0
    7.2424   -1.2960   14.5411 H   0  0  0  0  0  0
    7.1536    2.3434   14.3178 H   0  0  0  0  0  0
    7.7590    3.6314   12.3190 H   0  0  0  0  0  0
    7.3886   -1.2919   12.0636 H   0  0  0  0  0  0
    8.0000    0.0053   10.0458 H   0  0  0  0  0  0
    7.7101    4.2688    8.8111 H   0  0  0  0  0  0
    6.8350    4.1139   10.3721 H   0  0  0  0  0  0
    3.5852   -0.5912   15.9791 H   0  0  0  0  0  0
    4.8299    1.5471   16.3600 H   0  0  0  0  0  0
    6.2474   -2.0026   16.4830 H   0  0  0  0  0  0
    4.9993   -1.7809   17.7556 H   0  0  0  0  0  0
    4.3166   -2.9502   15.0494 H   0  0  0  0  0  0
    5.2992   -4.2884   17.5808 H   0  0  0  0  0  0
    4.3398   -5.4950   14.9183 H   0  0  0  0  0  0
    4.9380   -6.4116   16.3426 H   0  0  0  0  0  0
    2.4560   -6.4081   16.0779 H   0  0  0  0  0  0
    3.0263   -5.7501   17.6491 H   0  0  0  0  0  0
    2.0733   -4.1811   15.2070 H   0  0  0  0  0  0
    1.2876   -4.2880   16.8188 H   0  0  0  0  0  0
    3.1541   -3.1432   17.8550 H   0  0  0  0  0  0
    2.5030   -2.1687   16.4937 H   0  0  0  0  0  0
    8.8094   -3.1464   14.7735 H   0  0  0  0  0  0
   10.4852   -3.5601   15.2705 H   0  0  0  0  0  0
    9.3740   -2.7629   16.4351 H   0  0  0  0  0  0
    9.5159   -6.2877   17.5980 H   0  0  0  0  0  0
    9.7815   -4.5731   18.0630 H   0  0  0  0  0  0
   10.8927   -5.3703   16.8983 H   0  0  0  0  0  0
    8.7464   -6.8499   15.3050 H   0  0  0  0  0  0
   10.1463   -5.9367   14.6469 H   0  0  0  0  0  0
    8.4807   -5.5437   14.1009 H   0  0  0  0  0  0
    7.2810   -5.1966   17.5192 H   0  0  0  0  0  0
  1 23  1  0  0  0
  1  4  1  0  0  0
  1 40  1  0  0  0
  1 41  1  0  0  0
  2  4  1  0  0  0
  2  5  1  0  0  0
  2  3  2  0  0  0
  4 42  1  0  0  0
  4 43  1  0  0  0
  5  6  1  0  0  0
  5 44  1  0  0  0
  6  9  1  0  0  0
  6  7  1  0  0  0
  6 45  1  0  0  0
  7 13  1  0  0  0
  7  8  2  0  0  0
  9 10  1  0  0  0
  9 46  1  0  0  0
  9 47  1  0  0  0
 10 12  1  0  0  0
 10 11  2  0  0  0
 12 48  1  0  0  0
 12 49  1  0  0  0
 13 14  1  0  0  0
 13 50  1  0  0  0
 14 24  1  0  0  0
 14 15  1  0  0  0
 14 51  1  0  0  0
 15 16  1  0  0  0
 15 52  1  0  0  0
 15 53  1  0  0  0
 16 19  2  0  0  0
 16 17  1  0  0  0
 17 18  2  0  0  0
 17 54  1  0  0  0
 18 21  1  0  0  0
 18 55  1  0  0  0
 19 20  1  0  0  0
 19 56  1  0  0  0
 20 21  2  0  0  0
 20 57  1  0  0  0
 21 22  1  0  0  0
 22 23  1  0  0  0
 23 58  1  0  0  0
 23 59  1  0  0  0
 24 26  1  0  0  0
 24 25  1  0  0  0
 24 60  1  0  0  0
 25 61  1  0  0  0
 26 27  1  0  0  0
 26 62  1  0  0  0
 26 63  1  0  0  0
 27 32  1  0  0  0
 27 28  1  0  0  0
 27 64  1  0  0  0
 28 33  1  0  0  0
 28 29  1  0  0  0
 28 65  1  0  0  0
 29 30  1  0  0  0
 29 66  1  0  0  0
 29 67  1  0  0  0
 30 31  1  0  0  0
 30 68  1  0  0  0
 30 69  1  0  0  0
 31 32  1  0  0  0
 31 70  1  0  0  0
 31 71  1  0  0  0
 32 72  1  0  0  0
 32 73  1  0  0  0
 33 39  1  0  0  0
 33 34  2  0  0  0
 35 39  1  0  0  0
 35 38  1  0  0  0
 35 37  1  0  0  0
 35 36  1  0  0  0
 36 74  1  0  0  0
 36 75  1  0  0  0
 36 76  1  0  0  0
 37 77  1  0  0  0
 37 78  1  0  0  0
 37 79  1  0  0  0
 38 80  1  0  0  0
 38 81  1  0  0  0
 38 82  1  0  0  0
 39 83  1  0  0  0
M  CHG  1  27   1
M  END
> <s_m_source_file>
../1b6l_ligand.sdf

> <i_m_source_file_index>
1

> <s_epik_input>
YzEyW2NIXVtjSF1jKFtjSF1bY0hdMilPW0NIMl1bQ0gyXVtDSDJdQyg9TylbTkhdW0NAQEhdKFtDSDJdQyg9TylbTkgyXSlDKD1PKVtOSF1bQ0BASF0oW0NIMl0xKVtDQEhdKFtPSF0pW0NIMl1bTkBIK10zW0NAQEhdKFtDSDJdW0NIMl1bQ0gyXVtDSDJdMylDKD1PKVtOSF1DKFtDSDNdKShbQ0gzXSlbQ0gzXQ==

> <s_epik_cmdline>
J2VwaWtfYXBwJywgJy1pbWFlJywgJ2xpZ2FuZF9wcm8ubWFlJywgJy1vbWFlJywgJ2xpZ2FuZF9wcmVwLm1hZScsICctbXMnLCAnMScsICctcGgnLCAnNycsICctcGh0JywgJzAuNScsICctbnQn

> <r_lp_tautomer_probability>
1

> <r_epik_Ionization_Penalty>
  0.0388

> <r_epik_Ionization_Penalty_Charging>
  0.0388

> <r_epik_Ionization_Penalty_Neutral>
  0.0000

> <r_epik_State_Penalty>
  0.0325

> <r_epik_Charging_Adjusted_Penalty>
0.0712688994965626

> <i_epik_Tot_Q>
1

> <i_epik_Tot_abs_Q>
1

$$$$
