1b6m_ligand
                    3D
 Schrodinger Suite 2020-3.
 92 94  0  0  1  0            999 V2000
    2.8080    1.9690   12.1240 O   0  0  0  0  0  0
    3.8350   -0.0320   12.0460 O   0  0  0  0  0  0
    1.0770    0.3200   12.6340 C   0  0  0  0  0  0
    0.5560    2.4860   11.5390 C   0  0  0  0  0  0
    1.8090    0.7650   10.2580 C   0  0  0  0  0  0
    1.5870    1.3710   11.6460 C   0  0  0  0  0  0
    3.8210    1.1580   12.3990 C   0  0  0  0  0  0
    4.8280    1.7130   13.0680 N   0  0  0  0  0  0
    6.0330    0.9660   13.4470 C   0  0  1  0  0  0
    7.2750    1.8050   13.1830 C   0  0  0  0  0  0
    7.4750    2.1320   11.7460 C   0  0  0  0  0  0
    7.8650    1.1460   10.8500 C   0  0  0  0  0  0
    7.2350    3.4170   11.2760 C   0  0  0  0  0  0
    8.0170    1.4350    9.5080 C   0  0  0  0  0  0
    7.3850    3.7170    9.9340 C   0  0  0  0  0  0
    7.7720    2.7230    9.0460 C   0  0  0  0  0  0
    6.0080    0.5390   14.9040 C   0  0  2  0  0  0
    7.2050   -0.1890   15.1920 O   0  0  0  0  0  0
    4.8040   -0.3490   15.1870 C   0  0  0  0  0  0
    4.8920   -0.7540   16.6000 N   0  3  0  0  0  0
    4.6730   -2.2010   16.8610 C   0  0  1  0  0  0
    3.2670   -2.6540   16.4460 C   0  0  0  0  0  0
    3.1210   -4.1510   16.5700 C   0  0  0  0  0  0
    3.0910   -4.7670   17.8230 C   0  0  0  0  0  0
    3.1310   -6.1480   17.9420 C   0  0  0  0  0  0
    3.1690   -4.9630   15.4390 C   0  0  0  0  0  0
    3.2090   -6.3390   15.5470 C   0  0  0  0  0  0
    3.1980   -6.9280   16.7950 C   0  0  0  0  0  0
    3.3050   -8.2960   16.8630 O   0  0  0  0  0  0
    3.7900   -8.9410   18.0290 C   0  0  0  0  0  0
    5.6890   -3.1860   16.2910 C   0  0  0  0  0  0
    5.9960   -3.1750   15.0970 O   0  0  0  0  0  0
    6.1870   -4.0500   17.1690 N   0  0  0  0  0  0
    7.1520   -5.1000   16.8150 C   0  0  2  0  0  0
    6.9120   -6.1780   17.8650 C   0  0  0  0  0  0
    7.0470   -5.9220   19.0640 O   0  0  0  0  0  0
    8.6280   -4.6370   16.8950 C   0  0  2  0  0  0
    8.8980   -3.5650   15.8390 C   0  0  0  0  0  0
    9.5670   -5.8310   16.6960 C   0  0  0  0  0  0
   10.3440   -3.3980   15.4840 C   0  0  0  0  0  0
    6.5080   -7.3620   17.4150 N   0  0  0  0  0  0
    6.2540   -8.4570   18.3350 C   0  0  0  0  0  0
    5.2130   -9.4540   17.8450 C   0  0  0  0  0  0
    0.9277    0.7852   13.6195 H   0  0  0  0  0  0
    1.8148   -0.4914   12.7195 H   0  0  0  0  0  0
    0.1219   -0.0894   12.2732 H   0  0  0  0  0  0
    0.3896    2.9281   12.5324 H   0  0  0  0  0  0
   -0.3903    2.0750   11.1574 H   0  0  0  0  0  0
    0.9238    3.2605   10.8499 H   0  0  0  0  0  0
    2.5531   -0.0423   10.3252 H   0  0  0  0  0  0
    2.1737    1.5437    9.5720 H   0  0  0  0  0  0
    0.8597    0.3582    9.8794 H   0  0  0  0  0  0
    4.7319    2.7752   13.3373 H   0  0  0  0  0  0
    6.0237    0.0659   12.8148 H   0  0  0  0  0  0
    7.1978    2.7564   13.7297 H   0  0  0  0  0  0
    8.1664    1.2577   13.5235 H   0  0  0  0  0  0
    8.0530    0.1341   11.2090 H   0  0  0  0  0  0
    6.9253    4.1968   11.9718 H   0  0  0  0  0  0
    8.3283    0.6552    8.8130 H   0  0  0  0  0  0
    7.2001    4.7296    9.5755 H   0  0  0  0  0  0
    7.8838    2.9523    7.9863 H   0  0  0  0  0  0
    5.9946    1.4210   15.5612 H   0  0  0  0  0  0
    8.1862    0.2871   15.0489 H   0  0  0  0  0  0
    3.8792    0.2170   15.0013 H   0  0  0  0  0  0
    4.8341   -1.2288   14.5274 H   0  0  0  0  0  0
    5.8930   -0.5148   16.9883 H   0  0  0  0  0  0
    4.1331   -0.2131   17.1844 H   0  0  0  0  0  0
    4.8226   -2.2089   17.9508 H   0  0  0  0  0  0
    2.5203   -2.1724   17.0945 H   0  0  0  0  0  0
    3.0833   -2.3677   15.3999 H   0  0  0  0  0  0
    3.0353   -4.1526   18.7216 H   0  0  0  0  0  0
    3.1101   -6.6166   18.9259 H   0  0  0  0  0  0
    3.1751   -4.5036   14.4506 H   0  0  0  0  0  0
    3.2491   -6.9574   14.6503 H   0  0  0  0  0  0
    3.7860   -8.2311   18.8693 H   0  0  0  0  0  0
    3.1436   -9.7979   18.2698 H   0  0  0  0  0  0
    5.8401   -3.9494   18.2080 H   0  0  0  0  0  0
    6.9621   -5.4048   15.7753 H   0  0  0  0  0  0
    8.8262   -4.2027   17.8860 H   0  0  0  0  0  0
    8.3670   -3.8228   14.9108 H   0  0  0  0  0  0
    8.5428   -2.5909   16.2062 H   0  0  0  0  0  0
    9.3599   -6.5921   17.4628 H   0  0  0  0  0  0
   10.6108   -5.4954   16.7849 H   0  0  0  0  0  0
    9.4045   -6.2628   15.6974 H   0  0  0  0  0  0
   10.4460   -2.6112   14.7220 H   0  0  0  0  0  0
   10.7359   -4.3460   15.0869 H   0  0  0  0  0  0
   10.9117   -3.1141   16.3824 H   0  0  0  0  0  0
    6.3664   -7.5078   16.3339 H   0  0  0  0  0  0
    7.1850   -9.0183   18.5028 H   0  0  0  0  0  0
    5.8907   -8.0549   19.2922 H   0  0  0  0  0  0
    5.3422  -10.3879   18.4117 H   0  0  0  0  0  0
    5.3991   -9.6441   16.7777 H   0  0  0  0  0  0
  1  7  1  0  0  0
  1  6  1  0  0  0
  2  7  2  0  0  0
  3  6  1  0  0  0
  3 44  1  0  0  0
  3 45  1  0  0  0
  3 46  1  0  0  0
  4  6  1  0  0  0
  4 47  1  0  0  0
  4 48  1  0  0  0
  4 49  1  0  0  0
  5  6  1  0  0  0
  5 50  1  0  0  0
  5 51  1  0  0  0
  5 52  1  0  0  0
  7  8  1  0  0  0
  8  9  1  0  0  0
  8 53  1  0  0  0
  9 17  1  0  0  0
  9 10  1  0  0  0
  9 54  1  0  0  0
 10 11  1  0  0  0
 10 55  1  0  0  0
 10 56  1  0  0  0
 11 13  2  0  0  0
 11 12  1  0  0  0
 12 14  2  0  0  0
 12 57  1  0  0  0
 13 15  1  0  0  0
 13 58  1  0  0  0
 14 16  1  0  0  0
 14 59  1  0  0  0
 15 16  2  0  0  0
 15 60  1  0  0  0
 16 61  1  0  0  0
 17 19  1  0  0  0
 17 18  1  0  0  0
 17 62  1  0  0  0
 18 63  1  0  0  0
 19 20  1  0  0  0
 19 64  1  0  0  0
 19 65  1  0  0  0
 20 21  1  0  0  0
 20 66  1  0  0  0
 20 67  1  0  0  0
 21 31  1  0  0  0
 21 22  1  0  0  0
 21 68  1  0  0  0
 22 23  1  0  0  0
 22 69  1  0  0  0
 22 70  1  0  0  0
 23 26  2  0  0  0
 23 24  1  0  0  0
 24 25  2  0  0  0
 24 71  1  0  0  0
 25 28  1  0  0  0
 25 72  1  0  0  0
 26 27  1  0  0  0
 26 73  1  0  0  0
 27 28  2  0  0  0
 27 74  1  0  0  0
 28 29  1  0  0  0
 29 30  1  0  0  0
 30 43  1  0  0  0
 30 75  1  0  0  0
 30 76  1  0  0  0
 31 33  1  0  0  0
 31 32  2  0  0  0
 33 34  1  0  0  0
 33 77  1  0  0  0
 34 35  1  0  0  0
 34 37  1  0  0  0
 34 78  1  0  0  0
 35 41  1  0  0  0
 35 36  2  0  0  0
 37 39  1  0  0  0
 37 38  1  0  0  0
 37 79  1  0  0  0
 38 40  1  0  0  0
 38 80  1  0  0  0
 38 81  1  0  0  0
 39 82  1  0  0  0
 39 83  1  0  0  0
 39 84  1  0  0  0
 40 85  1  0  0  0
 40 86  1  0  0  0
 40 87  1  0  0  0
 41 42  1  0  0  0
 41 88  1  0  0  0
 42 43  1  0  0  0
 42 89  1  0  0  0
 42 90  1  0  0  0
 43 91  1  0  0  0
 43 92  1  0  0  0
M  CHG  1  20   1
M  END
> <s_m_source_file>
../1b6m_ligand.sdf

> <i_m_source_file_index>
1

> <s_epik_input>
W2NIXTFbY0hdW2NIXVtjSF1bY0hdYzFbQ0gyXVtDQEhdKFtOSF1DKD1PKU9DKFtDSDNdKShbQ0gzXSlbQ0gzXSlbQ0BIXShbT0hdKVtDSDJdW05IMitdW0NAQEhdKFtDSDJdMilDKD1PKVtOSF1bQ0BASF0oW0NAQEhdKFtDSDNdKVtDSDJdW0NIM10pQyg9TylbTkhdW0NIMl1bQ0gyXVtDSDJdT2MoW2NIXVtjSF1jMjMpW2NIXVtjSF0z

> <s_epik_cmdline>
J2VwaWtfYXBwJywgJy1pbWFlJywgJ2xpZ2FuZF9wcm8ubWFlJywgJy1vbWFlJywgJ2xpZ2FuZF9wcmVwLm1hZScsICctbXMnLCAnMScsICctcGgnLCAnNycsICctcGh0JywgJzAuNScsICctbnQn

> <r_lp_tautomer_probability>
1

> <r_epik_Ionization_Penalty>
  0.0798

> <r_epik_Ionization_Penalty_Charging>
  0.0798

> <r_epik_Ionization_Penalty_Neutral>
  0.0000

> <r_epik_State_Penalty>
  0.0706

> <r_epik_Charging_Adjusted_Penalty>
0.150385610217475

> <i_epik_Tot_Q>
1

> <i_epik_Tot_abs_Q>
1

> <s_epik_Chemistry_Notes>
This compound has an ester and may undergo hydrolysis at high or low pH.

$$$$
