1b6p_ligand
                    3D
 Schrodinger Suite 2020-3.
102104  0  0  1  0            999 V2000
    4.5630    4.0010    8.3210 C   0  0  0  0  0  0
    3.4360    4.5310    9.1740 C   0  0  0  0  0  0
    3.4030    3.8420   10.5380 C   0  0  0  0  0  0
    3.7610    4.4410   11.5530 O   0  0  0  0  0  0
    2.9830    2.5800   10.5530 N   0  0  0  0  0  0
    2.8660    1.8050   11.8030 C   0  0  2  0  0  0
    4.0830    0.9430   12.1490 C   0  0  0  0  0  0
    4.1980   -0.2060   11.7110 O   0  0  0  0  0  0
    1.5910    0.9310   11.7770 C   0  0  0  0  0  0
    1.4310    0.1730   13.0840 C   0  0  0  0  0  0
    0.3740    1.8040   11.5190 C   0  0  0  0  0  0
    4.9680    1.4910   12.9750 N   0  0  0  0  0  0
    6.1810    0.7720   13.3940 C   0  0  1  0  0  0
    7.4100    1.6560   13.1960 C   0  0  0  0  0  0
    7.4890    2.2610   11.8200 C   0  0  0  0  0  0
    7.6380    1.4560   10.6930 C   0  0  0  0  0  0
    7.3830    3.6370   11.6410 C   0  0  0  0  0  0
    7.6770    2.0070    9.4210 C   0  0  0  0  0  0
    7.4220    4.1990   10.3730 C   0  0  0  0  0  0
    7.5670    3.3770    9.2680 C   0  0  0  0  0  0
    6.0910    0.3320   14.8580 C   0  0  1  0  0  0
    4.8840   -0.5730   15.0820 C   0  0  0  0  0  0
    7.2830   -0.3770   15.2120 O   0  0  0  0  0  0
    7.5850    3.9280    8.0080 O   0  0  0  0  0  0
    4.8820   -0.9670   16.5060 N   0  3  0  0  0  0
    4.6710   -2.4110   16.8090 C   0  0  1  0  0  0
    3.2320   -2.8410   16.5010 C   0  0  0  0  0  0
    3.0550   -4.3340   16.6410 C   0  0  0  0  0  0
    3.0400   -4.9370   17.8990 C   0  0  0  0  0  0
    3.0240   -6.3180   18.0300 C   0  0  0  0  0  0
    3.0330   -5.1550   15.5170 C   0  0  0  0  0  0
    3.0160   -6.5320   15.6350 C   0  0  0  0  0  0
    3.0180   -7.1120   16.8880 C   0  0  0  0  0  0
    3.0420   -8.4890   16.9630 O   0  0  0  0  0  0
    3.7280   -8.9520   18.1170 C   0  0  0  0  0  0
    5.6430   -3.4390   16.2130 C   0  0  0  0  0  0
    5.7940   -3.5610   14.9950 O   0  0  0  0  0  0
    6.2620   -4.2000   17.1120 N   0  0  0  0  0  0
    7.1980   -5.2890   16.7830 C   0  0  2  0  0  0
    6.9550   -6.3660   17.8430 C   0  0  0  0  0  0
    7.1020   -6.1210   19.0450 O   0  0  0  0  0  0
    8.6750   -4.8280   16.8010 C   0  0  2  0  0  0
    8.9080   -3.7920   15.6980 C   0  0  0  0  0  0
    9.6070   -6.0200   16.5900 C   0  0  0  0  0  0
   10.2840   -3.2030   15.6970 C   0  0  0  0  0  0
    6.5130   -7.5330   17.3840 N   0  0  0  0  0  0
    6.2380   -8.6400   18.2810 C   0  0  0  0  0  0
    5.1030   -9.5230   17.7730 C   0  0  0  0  0  0
    4.5600    4.5153    7.3486 H   0  0  0  0  0  0
    4.4278    2.9206    8.1648 H   0  0  0  0  0  0
    5.5225    4.1810    8.8280 H   0  0  0  0  0  0
    3.5712    5.6114    9.3302 H   0  0  0  0  0  0
    2.4765    4.3511    8.6670 H   0  0  0  0  0  0
    2.7187    2.1159    9.5914 H   0  0  0  0  0  0
    2.8175    2.5947   12.5672 H   0  0  0  0  0  0
    1.6676    0.1880   10.9694 H   0  0  0  0  0  0
    2.3189   -0.4532   13.2557 H   0  0  0  0  0  0
    0.5368   -0.4654   13.0305 H   0  0  0  0  0  0
    1.3214    0.8889   13.9120 H   0  0  0  0  0  0
    0.5055    2.3452   10.5704 H   0  0  0  0  0  0
    0.2602    2.5264   12.3407 H   0  0  0  0  0  0
   -0.5244    1.1722   11.4592 H   0  0  0  0  0  0
    4.7756    2.5083   13.3467 H   0  0  0  0  0  0
    6.2375   -0.1160   12.7473 H   0  0  0  0  0  0
    7.3880    2.4824   13.9217 H   0  0  0  0  0  0
    8.3204    1.0579   13.3489 H   0  0  0  0  0  0
    7.7253    0.3761   10.8128 H   0  0  0  0  0  0
    7.2675    4.2836   12.5109 H   0  0  0  0  0  0
    7.7935    1.3648    8.5480 H   0  0  0  0  0  0
    7.3392    5.2786   10.2477 H   0  0  0  0  0  0
    6.0350    1.2089   15.5198 H   0  0  0  0  0  0
    3.9634   -0.0245   14.8338 H   0  0  0  0  0  0
    4.9668   -1.4608   14.4378 H   0  0  0  0  0  0
    8.2631    0.1134   15.1178 H   0  0  0  0  0  0
    7.6999    3.2806    7.1262 H   0  0  0  0  0  0
    5.8504   -0.7086   16.9593 H   0  0  0  0  0  0
    4.0768   -0.4340   17.0328 H   0  0  0  0  0  0
    4.8992   -2.3985   17.8850 H   0  0  0  0  0  0
    2.5431   -2.3431   17.1993 H   0  0  0  0  0  0
    2.9772   -2.5568   15.4694 H   0  0  0  0  0  0
    3.0409   -4.3133   18.7929 H   0  0  0  0  0  0
    3.0162   -6.7766   19.0188 H   0  0  0  0  0  0
    3.0291   -4.7033   14.5250 H   0  0  0  0  0  0
    3.0011   -7.1575   14.7425 H   0  0  0  0  0  0
    3.8681   -8.1174   18.8198 H   0  0  0  0  0  0
    3.1379   -9.7440   18.6013 H   0  0  0  0  0  0
    6.0336   -3.9698   18.1631 H   0  0  0  0  0  0
    6.9815   -5.6327   15.7607 H   0  0  0  0  0  0
    8.9037   -4.3758   17.7773 H   0  0  0  0  0  0
    8.7554   -4.2621   14.7153 H   0  0  0  0  0  0
    8.1989   -2.9601   15.8206 H   0  0  0  0  0  0
    9.4377   -6.7627   17.3835 H   0  0  0  0  0  0
   10.6522   -5.6787   16.6241 H   0  0  0  0  0  0
    9.4021   -6.4767   15.6105 H   0  0  0  0  0  0
   10.3694   -2.4722   14.8793 H   0  0  0  0  0  0
   11.0251   -4.0030   15.5528 H   0  0  0  0  0  0
   10.4686   -2.7010   16.6582 H   0  0  0  0  0  0
    6.3564   -7.6502   16.3015 H   0  0  0  0  0  0
    7.1386   -9.2638   18.3804 H   0  0  0  0  0  0
    5.9518   -8.2493   19.2686 H   0  0  0  0  0  0
    5.2124  -10.5169   18.2315 H   0  0  0  0  0  0
    5.2011   -9.6102   16.6809 H   0  0  0  0  0  0
  1  2  1  0  0  0
  1 49  1  0  0  0
  1 50  1  0  0  0
  1 51  1  0  0  0
  2  3  1  0  0  0
  2 52  1  0  0  0
  2 53  1  0  0  0
  3  5  1  0  0  0
  3  4  2  0  0  0
  5  6  1  0  0  0
  5 54  1  0  0  0
  6  9  1  0  0  0
  6  7  1  0  0  0
  6 55  1  0  0  0
  7 12  1  0  0  0
  7  8  2  0  0  0
  9 11  1  0  0  0
  9 10  1  0  0  0
  9 56  1  0  0  0
 10 57  1  0  0  0
 10 58  1  0  0  0
 10 59  1  0  0  0
 11 60  1  0  0  0
 11 61  1  0  0  0
 11 62  1  0  0  0
 12 13  1  0  0  0
 12 63  1  0  0  0
 13 21  1  0  0  0
 13 14  1  0  0  0
 13 64  1  0  0  0
 14 15  1  0  0  0
 14 65  1  0  0  0
 14 66  1  0  0  0
 15 17  2  0  0  0
 15 16  1  0  0  0
 16 18  2  0  0  0
 16 67  1  0  0  0
 17 19  1  0  0  0
 17 68  1  0  0  0
 18 20  1  0  0  0
 18 69  1  0  0  0
 19 20  2  0  0  0
 19 70  1  0  0  0
 20 24  1  0  0  0
 21 23  1  0  0  0
 21 22  1  0  0  0
 21 71  1  0  0  0
 22 25  1  0  0  0
 22 72  1  0  0  0
 22 73  1  0  0  0
 23 74  1  0  0  0
 24 75  1  0  0  0
 25 26  1  0  0  0
 25 76  1  0  0  0
 25 77  1  0  0  0
 26 36  1  0  0  0
 26 27  1  0  0  0
 26 78  1  0  0  0
 27 28  1  0  0  0
 27 79  1  0  0  0
 27 80  1  0  0  0
 28 31  2  0  0  0
 28 29  1  0  0  0
 29 30  2  0  0  0
 29 81  1  0  0  0
 30 33  1  0  0  0
 30 82  1  0  0  0
 31 32  1  0  0  0
 31 83  1  0  0  0
 32 33  2  0  0  0
 32 84  1  0  0  0
 33 34  1  0  0  0
 34 35  1  0  0  0
 35 48  1  0  0  0
 35 85  1  0  0  0
 35 86  1  0  0  0
 36 38  1  0  0  0
 36 37  2  0  0  0
 38 39  1  0  0  0
 38 87  1  0  0  0
 39 40  1  0  0  0
 39 42  1  0  0  0
 39 88  1  0  0  0
 40 46  1  0  0  0
 40 41  2  0  0  0
 42 44  1  0  0  0
 42 43  1  0  0  0
 42 89  1  0  0  0
 43 45  1  0  0  0
 43 90  1  0  0  0
 43 91  1  0  0  0
 44 92  1  0  0  0
 44 93  1  0  0  0
 44 94  1  0  0  0
 45 95  1  0  0  0
 45 96  1  0  0  0
 45 97  1  0  0  0
 46 47  1  0  0  0
 46 98  1  0  0  0
 47 48  1  0  0  0
 47 99  1  0  0  0
 47100  1  0  0  0
 48101  1  0  0  0
 48102  1  0  0  0
M  CHG  1  25   1
M  END
> <s_m_source_file>
../1b6p_ligand.sdf

> <i_m_source_file_index>
1

> <s_epik_input>
W0NIM11bQ0gyXUMoPU8pW05IXVtDQEBIXShbQ0hdKFtDSDNdKVtDSDNdKUMoPU8pW05IXVtDQEBIXShbQ0gyXWMxW2NIXVtjSF1jKFtPSF0pW2NIXVtjSF0xKVtDQEhdKFtPSF0pW0NIMl1bTkgyK11bQ0BASF0oW0NIMl0yKUMoPU8pW05IXVtDQEBIXShbQ0BASF0oW0NIM10pW0NIMl1bQ0gzXSlDKD1PKVtOSF1bQ0gyXVtDSDJdW0NIMl1PYyhbY0hdW2NIXWMyMylbY0hdW2NIXTM=

> <s_epik_cmdline>
J2VwaWtfYXBwJywgJy1pbWFlJywgJ2xpZ2FuZF9wcm8ubWFlJywgJy1vbWFlJywgJ2xpZ2FuZF9wcmVwLm1hZScsICctbXMnLCAnMScsICctcGgnLCAnNycsICctcGh0JywgJzAuNScsICctbnQn

> <r_lp_tautomer_probability>
0.999999999997365

> <r_epik_Ionization_Penalty>
  0.0807

> <r_epik_Ionization_Penalty_Charging>
  0.0800

> <r_epik_Ionization_Penalty_Neutral>
  0.0007

> <r_epik_State_Penalty>
  0.0708

> <r_epik_Charging_Adjusted_Penalty>
0.150730862071129

> <i_epik_Tot_Q>
1

> <i_epik_Tot_abs_Q>
1

$$$$
