1b74_ligand
                    3D
 Schrodinger Suite 2020-3.
 20 19  0  0  1  0            999 V2000
   22.8340   33.4800   29.8040 N   0  3  0  0  0  0
   22.3240   33.5900   28.5110 C   0  0  1  0  0  0
   21.8400   32.2630   28.0660 C   0  0  0  0  0  0
   21.3130   32.1230   26.9450 O   0  5  0  0  0  0
   21.9730   31.2790   28.8100 O   0  0  0  0  0  0
   21.2510   34.6010   28.5290 C   0  0  0  0  0  0
   21.7630   35.9030   29.1310 C   0  0  0  0  0  0
   20.6480   36.8320   29.1300 C   0  0  0  0  0  0
   19.4880   36.3960   28.9370 O   0  0  0  0  0  0
   21.0120   38.1270   29.3580 N   0  0  0  0  0  0
   23.6385   32.7299   29.8182 H   0  0  0  0  0  0
   22.0315   33.1701   30.4895 H   0  0  0  0  0  0
   23.2344   34.4532   30.1242 H   0  0  0  0  0  0
   23.1328   33.9191   27.8420 H   0  0  0  0  0  0
   20.9085   34.7905   27.5010 H   0  0  0  0  0  0
   20.4095   34.2319   29.1336 H   0  0  0  0  0  0
   22.1170   35.7187   30.1560 H   0  0  0  0  0  0
   22.5928   36.2881   28.5202 H   0  0  0  0  0  0
   22.0708   38.3815   29.5134 H   0  0  0  0  0  0
   20.2467   38.9166   29.3864 H   0  0  0  0  0  0
  1  2  1  0  0  0
  1 11  1  0  0  0
  1 12  1  0  0  0
  1 13  1  0  0  0
  2  3  1  0  0  0
  2  6  1  0  0  0
  2 14  1  0  0  0
  3  4  1  0  0  0
  3  5  2  0  0  0
  6  7  1  0  0  0
  6 15  1  0  0  0
  6 16  1  0  0  0
  7  8  1  0  0  0
  7 17  1  0  0  0
  7 18  1  0  0  0
  8  9  2  0  0  0
  8 10  1  0  0  0
 10 19  1  0  0  0
 10 20  1  0  0  0
M  CHG  2   1   1   4  -1
M  END
> <s_m_source_file>
../1b74_ligand.sdf

> <i_m_source_file_index>
1

> <s_epik_input>
W09IXUMoPU8pW0NASF0oW05IMytdKVtDSDJdW0NIMl1DKD1PKVtOSDJd

> <s_epik_cmdline>
J2VwaWtfYXBwJywgJy1pbWFlJywgJ2xpZ2FuZF9wcm8ubWFlJywgJy1vbWFlJywgJ2xpZ2FuZF9wcmVwLm1hZScsICctbXMnLCAnMScsICctcGgnLCAnNycsICctcGh0JywgJzAuNScsICctbnQn

> <r_lp_tautomer_probability>
1

> <r_epik_Ionization_Penalty>
  0.0024

> <r_epik_Ionization_Penalty_Charging>
  0.0024

> <r_epik_Ionization_Penalty_Neutral>
  0.0000

> <r_epik_State_Penalty>
 -0.0000

> <r_epik_Charging_Adjusted_Penalty>
0.0024278191861647

> <i_epik_Tot_Q>
0

> <i_epik_Tot_abs_Q>
2

$$$$
