1b7h_ligand
                    3D
 Schrodinger Suite 2020-3.
 66 65  0  0  1  0            999 V2000
   42.7730   31.7660   22.9020 N   0  3  0  0  0  0
   42.7770   33.2290   22.5870 C   0  0  2  0  0  0
   41.9100   33.9400   23.6270 C   0  0  0  0  0  0
   40.9170   33.4330   24.1420 O   0  0  0  0  0  0
   42.3440   33.6180   21.1640 C   0  0  0  0  0  0
   40.9400   33.0310   20.8140 C   0  0  0  0  0  0
   40.6820   33.3430   19.2990 C   0  0  0  0  0  0
   41.2380   32.4520   18.2270 C   0  0  0  0  0  0
   40.9720   30.9770   18.4640 N   0  3  0  0  0  0
   42.3690   35.1730   23.9330 N   0  0  0  0  0  0
   41.7540   35.9690   24.9810 C   0  0  2  0  0  0
   40.4550   36.6270   24.4590 C   0  0  0  0  0  0
   40.4400   37.2050   23.3740 O   0  0  0  0  0  0
   42.7440   37.0080   25.4310 C   0  0  0  0  0  0
   43.8880   36.5610   26.3560 C   0  0  0  0  0  0
   44.5690   37.8580   26.8770 C   0  0  0  0  0  0
   45.1370   37.7110   28.3010 C   0  0  0  0  0  0
   39.4190   36.5760   25.2760 N   0  0  0  0  0  0
   38.1820   37.1940   24.8790 C   0  0  2  0  0  0
   37.8460   38.2870   25.9130 C   0  0  0  0  0  0
   37.0810   39.1960   25.5310 O   0  0  0  0  0  0
   37.0060   36.2150   24.8230 C   0  0  0  0  0  0
   35.8830   36.9050   23.9690 C   0  0  0  0  0  0
   34.6810   36.0250   23.8880 C   0  0  0  0  0  0
   33.4990   36.7010   23.1660 C   0  0  0  0  0  0
   33.7350   36.5710   21.6860 N   0  3  0  0  0  0
   38.3900   38.1890   27.0480 O   0  5  0  0  0  0
   43.0989   31.6139   23.9415 H   0  0  0  0  0  0
   43.4610   31.2426   22.2217 H   0  0  0  0  0  0
   41.7562   31.3662   22.7743 H   0  0  0  0  0  0
   43.8354   33.5236   22.6422 H   0  0  0  0  0  0
   42.2938   34.7138   21.0827 H   0  0  0  0  0  0
   43.0748   33.2297   20.4393 H   0  0  0  0  0  0
   40.9410   31.9459   20.9941 H   0  0  0  0  0  0
   40.1757   33.5069   21.4460 H   0  0  0  0  0  0
   39.5996   33.3387   19.1029 H   0  0  0  0  0  0
   41.0952   34.3322   19.0528 H   0  0  0  0  0  0
   40.7855   32.7159   17.2597 H   0  0  0  0  0  0
   42.3286   32.5838   18.1697 H   0  0  0  0  0  0
   41.4066   30.3894   17.6419 H   0  0  0  0  0  0
   39.8868   30.8023   18.5059 H   0  0  0  0  0  0
   41.4298   30.6702   19.4160 H   0  0  0  0  0  0
   43.2261   35.5719   23.3707 H   0  0  0  0  0  0
   41.5250   35.2946   25.8193 H   0  0  0  0  0  0
   43.2408   37.4458   24.5526 H   0  0  0  0  0  0
   42.2187   37.7985   25.9871 H   0  0  0  0  0  0
   43.4770   35.9716   27.1889 H   0  0  0  0  0  0
   44.6001   35.9450   25.7872 H   0  0  0  0  0  0
   45.4026   38.1271   26.2116 H   0  0  0  0  0  0
   43.8343   38.6765   26.8939 H   0  0  0  0  0  0
   45.6031   38.6584   28.6094 H   0  0  0  0  0  0
   45.8909   36.9101   28.3141 H   0  0  0  0  0  0
   44.3227   37.4595   28.9964 H   0  0  0  0  0  0
   39.4930   36.0692   26.2495 H   0  0  0  0  0  0
   38.3850   37.5661   23.8639 H   0  0  0  0  0  0
   37.3329   35.2757   24.3530 H   0  0  0  0  0  0
   36.6506   36.0100   25.8436 H   0  0  0  0  0  0
   35.5993   37.8586   24.4382 H   0  0  0  0  0  0
   36.2592   37.0940   22.9527 H   0  0  0  0  0  0
   34.9344   35.1082   23.3355 H   0  0  0  0  0  0
   34.3503   35.7616   24.9035 H   0  0  0  0  0  0
   32.5614   36.2008   23.4500 H   0  0  0  0  0  0
   33.4509   37.7613   23.4548 H   0  0  0  0  0  0
   32.9063   37.0450   21.1396 H   0  0  0  0  0  0
   33.7908   35.5062   21.4158 H   0  0  0  0  0  0
   34.6804   37.0667   21.4205 H   0  0  0  0  0  0
  1  2  1  0  0  0
  1 28  1  0  0  0
  1 29  1  0  0  0
  1 30  1  0  0  0
  2  3  1  0  0  0
  2  5  1  0  0  0
  2 31  1  0  0  0
  3  4  2  0  0  0
  3 10  1  0  0  0
  5  6  1  0  0  0
  5 32  1  0  0  0
  5 33  1  0  0  0
  6  7  1  0  0  0
  6 34  1  0  0  0
  6 35  1  0  0  0
  7  8  1  0  0  0
  7 36  1  0  0  0
  7 37  1  0  0  0
  8  9  1  0  0  0
  8 38  1  0  0  0
  8 39  1  0  0  0
  9 40  1  0  0  0
  9 41  1  0  0  0
  9 42  1  0  0  0
 10 11  1  0  0  0
 10 43  1  0  0  0
 11 14  1  0  0  0
 11 12  1  0  0  0
 11 44  1  0  0  0
 12 13  2  0  0  0
 12 18  1  0  0  0
 14 15  1  0  0  0
 14 45  1  0  0  0
 14 46  1  0  0  0
 15 16  1  0  0  0
 15 47  1  0  0  0
 15 48  1  0  0  0
 16 17  1  0  0  0
 16 49  1  0  0  0
 16 50  1  0  0  0
 17 51  1  0  0  0
 17 52  1  0  0  0
 17 53  1  0  0  0
 18 19  1  0  0  0
 18 54  1  0  0  0
 19 20  1  0  0  0
 19 22  1  0  0  0
 19 55  1  0  0  0
 20 27  1  0  0  0
 20 21  2  0  0  0
 22 23  1  0  0  0
 22 56  1  0  0  0
 22 57  1  0  0  0
 23 24  1  0  0  0
 23 58  1  0  0  0
 23 59  1  0  0  0
 24 25  1  0  0  0
 24 60  1  0  0  0
 24 61  1  0  0  0
 25 26  1  0  0  0
 25 62  1  0  0  0
 25 63  1  0  0  0
 26 64  1  0  0  0
 26 65  1  0  0  0
 26 66  1  0  0  0
M  CHG  4   1   1   9   1  26   1  27  -1
M  END
> <s_m_source_file>
../1b7h_ligand.sdf

> <i_m_source_file_index>
1

> <s_epik_input>
W05IMytdW0NIMl1bQ0gyXVtDSDJdW0NIMl1bQ0BIXShbTkgzK10pQyg9TylbTkhdW0NAQEhdKFtDSDJdW0NIMl1bQ0gyXVtDSDNdKUMoPU8pW05IXVtDQEhdKEMoPU8pW09IXSlbQ0gyXVtDSDJdW0NIMl1bQ0gyXVtOSDMrXQ==

> <s_epik_cmdline>
J2VwaWtfYXBwJywgJy1pbWFlJywgJ2xpZ2FuZF9wcm8ubWFlJywgJy1vbWFlJywgJ2xpZ2FuZF9wcmVwLm1hZScsICctbXMnLCAnMScsICctcGgnLCAnNycsICctcGh0JywgJzAuNScsICctbnQn

> <r_epik_Ionization_Penalty>
  0.1175

> <r_epik_Ionization_Penalty_Charging>
  0.1175

> <r_epik_Ionization_Penalty_Neutral>
  0.0000

> <r_epik_State_Penalty>
  0.1060

> <r_epik_Charging_Adjusted_Penalty>
0.223452881146329

> <i_epik_Tot_Q>
2

> <i_epik_Tot_abs_Q>
4

$$$$
