1b8n_ligand
                    3D
 Schrodinger Suite 2020-3.
 35 37  0  0  1  0            999 V2000
  -66.6900   90.3810   97.6050 O   0  0  0  0  0  0
  -65.3860   90.2550   97.0230 C   0  0  0  0  0  0
  -65.0230   88.8980   96.3610 C   0  0  1  0  0  0
  -66.0870   88.7440   95.3660 N   0  0  1  0  0  0
  -63.7130   88.8060   95.5100 C   0  0  1  0  0  0
  -63.1890   87.4580   95.3440 O   0  0  0  0  0  0
  -64.1210   89.3510   94.0980 C   0  0  1  0  0  0
  -63.5970   88.5380   93.0400 O   0  0  0  0  0  0
  -65.6640   89.2910   94.0800 C   0  0  2  0  0  0
  -66.3690   90.7420   93.8760 C   0  0  0  0  0  0
  -67.6470   91.0320   94.1550 C   0  0  0  0  0  0
  -67.9010   92.4140   93.8430 N   0  3  0  0  0  0
  -66.6630   92.9030   93.3710 C   0  0  0  0  0  0
  -66.3870   94.2710   92.9020 C   0  0  0  0  0  0
  -67.1280   95.2670   92.8890 O   0  0  0  0  0  0
  -65.0700   94.3360   92.5080 N   0  0  0  0  0  0
  -62.9040   93.5180   91.9370 N   0  0  0  0  0  0
  -64.1390   93.3000   92.5200 C   0  0  0  0  0  0
  -64.4690   92.0930   92.9490 N   0  0  0  0  0  0
  -65.7330   91.9400   93.3610 C   0  0  0  0  0  0
  -66.9894   91.3246   98.0846 H   0  0  0  0  0  0
  -65.2646   91.0068   96.2292 H   0  0  0  0  0  0
  -64.6217   90.4134   97.7980 H   0  0  0  0  0  0
  -64.9439   88.1473   97.1611 H   0  0  0  0  0  0
  -66.3210   87.6764   95.2417 H   0  0  0  0  0  0
  -62.8756   89.3047   96.0199 H   0  0  0  0  0  0
  -62.8429   86.8906   96.2205 H   0  0  0  0  0  0
  -63.6957   90.3381   93.8641 H   0  0  0  0  0  0
  -62.5095   88.4572   92.8955 H   0  0  0  0  0  0
  -65.9643   88.5935   93.2841 H   0  0  0  0  0  0
  -68.3122   90.2541   94.5579 H   0  0  0  0  0  0
  -64.6537   95.2833   92.1346 H   0  0  0  0  0  0
  -62.6333   94.5232   91.5815 H   0  0  0  0  0  0
  -62.1924   92.6862   91.8288 H   0  0  0  0  0  0
  -68.9040   92.8378   93.9993 H   0  0  0  0  0  0
  1  2  1  0  0  0
  1 21  1  0  0  0
  2  3  1  0  0  0
  2 22  1  0  0  0
  2 23  1  0  0  0
  3  4  1  0  0  0
  3  5  1  0  0  0
  3 24  1  0  0  0
  4  9  1  0  0  0
  4 25  1  0  0  0
  5  6  1  0  0  0
  5  7  1  0  0  0
  5 26  1  0  0  0
  6 27  1  0  0  0
  7  8  1  0  0  0
  7  9  1  0  0  0
  7 28  1  0  0  0
  8 29  1  0  0  0
  9 10  1  0  0  0
  9 30  1  0  0  0
 10 11  2  0  0  0
 10 20  1  0  0  0
 11 12  1  0  0  0
 11 31  1  0  0  0
 12 13  1  0  0  0
 12 35  1  0  0  0
 13 14  1  0  0  0
 13 20  2  0  0  0
 14 15  2  0  0  0
 14 16  1  0  0  0
 16 18  1  0  0  0
 16 32  1  0  0  0
 17 18  1  0  0  0
 17 33  1  0  0  0
 17 34  1  0  0  0
 18 19  2  0  0  0
 19 20  1  0  0  0
M  CHG  1  12   1
M  END
> <s_m_source_file>
../1b8n_ligand.sdf

> <i_m_source_file_index>
1

> <s_epik_input>
W09IXVtDSDJdW0NASF0xW05IMitdW0NASF0oW0NASF0oW09IXSlbQ0BASF0xW09IXSljKFtjSF1bbkhdMiljKGMyMyluYyhbTkgyXSlbbkhdYzM9Tw==

> <s_epik_cmdline>
J2VwaWtfYXBwJywgJy1pbWFlJywgJ2xpZ2FuZF9wcm8ubWFlJywgJy1vbWFlJywgJ2xpZ2FuZF9wcmVwLm1hZScsICctbXMnLCAnMScsICctcGgnLCAnNycsICctcGh0JywgJzAuNScsICctbnQn

> <r_epik_Ionization_Penalty>
  0.0720

> <r_epik_Ionization_Penalty_Charging>
  0.0000

> <r_epik_Ionization_Penalty_Neutral>
  0.0720

> <r_epik_State_Penalty>
  0.0590

> <r_epik_Charging_Adjusted_Penalty>
0.0590474177737164

> <i_epik_Tot_Q>
1

> <i_epik_Tot_abs_Q>
1

$$$$
