1b8o_ligand
                    3D
 Schrodinger Suite 2020-3.
 32 34  0  0  1  0            999 V2000
   21.7480   90.5640   76.5980 O   0  0  0  0  0  0
   21.5380   89.1540   76.4120 C   0  0  0  0  0  0
   20.2210   88.7130   75.6980 C   0  0  1  0  0  0
   20.0680   89.7020   74.6260 N   0  0  1  0  0  0
   20.1890   87.3530   74.9510 C   0  0  1  0  0  0
   18.8590   86.7640   74.8620 O   0  0  0  0  0  0
   20.7010   87.6800   73.4910 C   0  0  1  0  0  0
   19.8950   87.0710   72.4580 O   0  0  0  0  0  0
   20.6180   89.2150   73.3680 C   0  0  2  0  0  0
   22.0500   89.9520   73.1120 C   0  0  0  0  0  0
   22.2840   91.2710   73.2430 C   0  0  0  0  0  0
   23.6620   91.5480   72.9460 N   0  0  0  0  0  0
   24.2050   90.2850   72.6460 C   0  0  3  0  0  0
   25.6000   90.0060   72.2640 C   0  0  0  0  0  0
   26.5520   90.7960   72.2070 O   0  0  0  0  0  0
   25.7420   88.6250   72.0150 N   0  0  0  0  0  0
   24.7180   87.6480   72.1050 C   0  0  0  0  0  0
   23.4910   87.9970   72.4590 N   0  0  0  0  0  0
   23.2780   89.3130   72.7160 C   0  0  0  0  0  0
   22.6608   90.9232   77.0958 H   0  0  0  0  0  0
   22.3541   88.7391   75.8022 H   0  0  0  0  0  0
   21.5211   88.6534   77.3914 H   0  0  0  0  0  0
   19.4346   88.6644   76.4656 H   0  0  0  0  0  0
   19.0000   89.9199   74.4779 H   0  0  0  0  0  0
   20.7395   86.5840   75.5127 H   0  0  0  0  0  0
   18.3276   86.4648   75.7775 H   0  0  0  0  0  0
   21.6929   87.2559   73.2758 H   0  0  0  0  0  0
   19.8299   85.9753   72.3855 H   0  0  0  0  0  0
   19.9171   89.4409   72.5509 H   0  0  0  0  0  0
   21.6067   92.0905   73.5253 H   0  0  0  0  0  0
   26.7200   88.2171   71.7199 H   0  0  0  0  0  0
   24.9470   86.5961   71.8791 H   0  0  0  0  0  0
  1  2  1  0  0  0
  1 20  1  0  0  0
  2  3  1  0  0  0
  2 21  1  0  0  0
  2 22  1  0  0  0
  3  5  1  0  0  0
  3  4  1  0  0  0
  3 23  1  0  0  0
  4  9  1  0  0  0
  4 24  1  0  0  0
  5  7  1  0  0  0
  5  6  1  0  0  0
  5 25  1  0  0  0
  6 26  1  0  0  0
  7  9  1  0  0  0
  7  8  1  0  0  0
  7 27  1  0  0  0
  8 28  1  0  0  0
  9 10  1  0  0  0
  9 29  1  0  0  0
 10 19  2  0  0  0
 10 11  1  0  0  0
 11 12  2  0  0  0
 11 30  1  0  0  0
 12 13  1  0  0  0
 13 19  1  0  0  0
 13 14  1  0  0  0
 14 16  1  0  0  0
 14 15  2  0  0  0
 16 17  1  0  0  0
 16 31  1  0  0  0
 17 18  2  0  0  0
 17 32  1  0  0  0
 18 19  1  0  0  0
M  END
> <s_m_source_file>
../1b8o_ligand.sdf

> <i_m_source_file_index>
1

> <s_epik_input>
W09IXVtDSDJdW0NASF0xW05IMitdW0NASF0oW0NASF0oW09IXSlbQ0BASF0xW09IXSlDKFtDSF09TjIpPUMoW0NIXTIzKU49W0NIXVtOSF1DMz1P

> <s_epik_cmdline>
J2VwaWtfYXBwJywgJy1pbWFlJywgJ2xpZ2FuZF9wcm8ubWFlJywgJy1vbWFlJywgJ2xpZ2FuZF9wcmVwLm1hZScsICctbXMnLCAnMScsICctcGgnLCAnNycsICctcGh0JywgJzAuNScsICctbnQn

> <r_lp_tautomer_probability>
1

> <r_epik_Ionization_Penalty>
  0.0001

> <r_epik_Ionization_Penalty_Charging>
  0.0000

> <r_epik_Ionization_Penalty_Neutral>
  0.0001

> <r_epik_State_Penalty>
 -0.0000

> <r_epik_Charging_Adjusted_Penalty>
0

> <i_epik_Tot_Q>
0

> <i_epik_Tot_abs_Q>
0

> <s_epik_Chemistry_Notes>
This compound has an imine and may undergo hydrolysis.

$$$$
