1b8y_ligand
                    3D
 Schrodinger Suite 2020-3.
 47 49  0  0  1  0            999 V2000
   16.4370    8.1110   18.8350 C   0  0  0  0  0  0
   16.4080    8.4840   20.1980 C   0  0  0  0  0  0
   15.9000    7.6090   21.1620 C   0  0  0  0  0  0
   18.0070    9.2300   15.6150 C   0  0  0  0  0  0
   15.9040    6.8600   18.4390 C   0  0  0  0  0  0
   15.0640    3.8730   21.5820 O   0  0  0  0  0  0
   15.4570    6.3390   20.7640 C   0  0  0  0  0  0
   15.3990    5.9670   19.4060 C   0  0  0  0  0  0
   11.8280    7.3580   21.4890 O   0  5  0  0  0  0
   15.0200    5.2200   22.0640 S   0  0  0  0  0  0
   18.5830   10.5510   16.1060 C   0  0  0  0  0  0
   18.6300   10.8780   17.5890 C   0  0  0  0  0  0
   17.4540   10.3170   18.3620 C   0  0  0  0  0  0
   16.9670    8.9940   17.9170 N   0  0  0  0  0  0
   16.8520    8.7250   16.4730 C   0  0  0  0  0  0
   20.6670   13.0040   13.2980 C   0  0  0  0  0  0
   21.2510   12.7380   14.5490 C   0  0  0  0  0  0
   20.5460   11.9450   15.4800 C   0  0  0  0  0  0
   19.2700   11.4320   15.1510 C   0  0  0  0  0  0
   18.6770   11.7290   13.9010 C   0  0  0  0  0  0
   19.3870   12.5120   12.9650 C   0  0  0  0  0  0
   15.7680    5.6020   23.2110 O   0  0  0  0  0  0
   13.4270    5.4730   22.6580 N   0  0  3  0  0  0
   12.2390    5.0450   21.9600 C   0  0  0  0  0  0
   11.8140    6.1060   21.0180 C   0  0  0  0  0  0
   11.5150    5.8160   19.9150 O   0  0  0  0  0  0
   16.7847    9.4614   20.4995 H   0  0  0  0  0  0
   15.8487    7.9092   22.2086 H   0  0  0  0  0  0
   17.6306    9.3530   14.5888 H   0  0  0  0  0  0
   18.7926    8.4602   15.6275 H   0  0  0  0  0  0
   15.8842    6.5870   17.3839 H   0  0  0  0  0  0
   14.9725    5.0087   19.1094 H   0  0  0  0  0  0
   17.7041   11.1796   15.9002 H   0  0  0  0  0  0
   19.5468   10.4578   18.0282 H   0  0  0  0  0  0
   18.6257   11.9697   17.7241 H   0  0  0  0  0  0
   17.7315   10.2034   19.4203 H   0  0  0  0  0  0
   16.5991   11.0042   18.2788 H   0  0  0  0  0  0
   15.9158    9.1994   16.1436 H   0  0  0  0  0  0
   16.7668    7.6334   16.3675 H   0  0  0  0  0  0
   21.2144   13.6028   12.5701 H   0  0  0  0  0  0
   22.2341   13.1384   14.7964 H   0  0  0  0  0  0
   20.9856   11.7279   16.4535 H   0  0  0  0  0  0
   17.6807   11.3565   13.6628 H   0  0  0  0  0  0
   18.9495   12.7349   11.9919 H   0  0  0  0  0  0
   13.3424    6.1316   23.5350 H   0  0  0  0  0  0
   12.4543    4.1221   21.4015 H   0  0  0  0  0  0
   11.4353    4.8548   22.6866 H   0  0  0  0  0  0
  1 14  1  0  0  0
  1  5  2  0  0  0
  1  2  1  0  0  0
  2  3  2  0  0  0
  2 27  1  0  0  0
  3  7  1  0  0  0
  3 28  1  0  0  0
  4 11  1  0  0  0
  4 15  1  0  0  0
  4 29  1  0  0  0
  4 30  1  0  0  0
  5  8  1  0  0  0
  5 31  1  0  0  0
  6 10  2  0  0  0
  7 10  1  0  0  0
  7  8  2  0  0  0
  8 32  1  0  0  0
  9 25  1  0  0  0
 10 23  1  0  0  0
 10 22  2  0  0  0
 11 12  1  0  0  0
 11 19  1  0  0  0
 11 33  1  0  0  0
 12 13  1  0  0  0
 12 34  1  0  0  0
 12 35  1  0  0  0
 13 14  1  0  0  0
 13 36  1  0  0  0
 13 37  1  0  0  0
 14 15  1  0  0  0
 15 38  1  0  0  0
 15 39  1  0  0  0
 16 17  1  0  0  0
 16 21  2  0  0  0
 16 40  1  0  0  0
 17 18  2  0  0  0
 17 41  1  0  0  0
 18 19  1  0  0  0
 18 42  1  0  0  0
 19 20  2  0  0  0
 20 21  1  0  0  0
 20 43  1  0  0  0
 21 44  1  0  0  0
 23 24  1  0  0  0
 23 45  1  0  0  0
 24 25  1  0  0  0
 24 46  1  0  0  0
 24 47  1  0  0  0
 25 26  2  0  0  0
M  CHG  1   9  -1
M  END
> <s_m_source_file>
../1b8y_ligand.sdf

> <i_m_source_file_index>
1

> <s_epik_input>
W09IXUMoPU8pW0NIMl1bTkhdUyg9TykoPU8pYyhbY0hdW2NIXTEpW2NIXVtjSF1jMU4oW0NIMl1bQ0gyXTIpW0NIMl1bQ0gyXVtDSF0yYzNbY0hdW2NIXVtjSF1bY0hdW2NIXTM=

> <s_epik_cmdline>
J2VwaWtfYXBwJywgJy1pbWFlJywgJ2xpZ2FuZF9wcm8ubWFlJywgJy1vbWFlJywgJ2xpZ2FuZF9wcmVwLm1hZScsICctbXMnLCAnMScsICctcGgnLCAnNycsICctcGh0JywgJzAuNScsICctbnQn

> <r_lp_tautomer_probability>
1

> <r_epik_Ionization_Penalty>
  0.0007

> <r_epik_Ionization_Penalty_Charging>
  0.0002

> <r_epik_Ionization_Penalty_Neutral>
  0.0005

> <r_epik_State_Penalty>
 -0.0000

> <r_epik_Charging_Adjusted_Penalty>
0.000158877882005628

> <i_epik_Tot_Q>
-1

> <i_epik_Tot_abs_Q>
1

$$$$
