1b9j_ligand
                    3D
 Schrodinger Suite 2020-3.
 66 65  0  0  1  0            999 V2000
    6.9680   16.5180   15.1370 N   0  3  0  0  0  0
    6.4590   17.7920   14.5610 C   0  0  2  0  0  0
    5.2330   18.2580   15.3170 C   0  0  0  0  0  0
    4.5010   17.4540   15.8810 O   0  0  0  0  0  0
    6.2740   17.7080   13.0310 C   0  0  0  0  0  0
    5.3660   16.5370   12.6220 C   0  0  0  0  0  0
    5.2460   16.4740   11.0950 C   0  0  0  0  0  0
    6.5240   15.8850   10.4800 C   0  0  0  0  0  0
    6.6860   14.4660   10.9100 N   0  3  0  0  0  0
    5.0010   19.5670   15.3040 N   0  0  0  0  0  0
    3.9000   20.1550   16.0690 C   0  0  2  0  0  0
    2.5980   20.1540   15.2880 C   0  0  0  0  0  0
    2.5550   20.4520   14.1020 O   0  0  0  0  0  0
    4.2860   21.6050   16.4320 C   0  0  0  0  0  0
    5.2310   21.6380   17.6610 C   0  0  0  0  0  0
    6.6620   21.3850   17.2120 C   0  0  0  0  0  0
    5.1140   22.9610   18.3830 C   0  0  0  0  0  0
    1.5100   19.7250   15.9380 N   0  0  0  0  0  0
    0.2260   19.7150   15.2460 C   0  0  2  0  0  0
   -0.7570   20.6010   16.0220 C   0  0  0  0  0  0
   -1.7670   20.9340   15.3740 O   0  0  0  0  0  0
   -0.3840   18.3050   15.1970 C   0  0  0  0  0  0
   -1.4300   18.2580   14.0720 C   0  0  0  0  0  0
   -2.1520   16.9300   14.0720 C   0  0  0  0  0  0
   -3.3970   16.9820   13.1820 C   0  0  0  0  0  0
   -2.9390   16.8030   11.7770 N   0  3  0  0  0  0
   -0.4940   20.9340   17.1970 O   0  5  0  0  0  0
    7.8577   16.1925   14.5780 H   0  0  0  0  0  0
    6.1876   15.7460   15.0661 H   0  0  0  0  0  0
    7.2350   16.6737   16.1927 H   0  0  0  0  0  0
    7.2318   18.5562   14.7306 H   0  0  0  0  0  0
    5.8175   18.6395   12.6652 H   0  0  0  0  0  0
    7.2533   17.5663   12.5505 H   0  0  0  0  0  0
    5.7959   15.5938   12.9901 H   0  0  0  0  0  0
    4.3660   16.6789   13.0577 H   0  0  0  0  0  0
    4.3911   15.8386   10.8203 H   0  0  0  0  0  0
    5.0920   17.4879   10.6971 H   0  0  0  0  0  0
    6.4557   15.9264    9.3829 H   0  0  0  0  0  0
    7.3946   16.4677   10.8154 H   0  0  0  0  0  0
    7.6028   14.0508   10.4661 H   0  0  0  0  0  0
    5.8179   13.8798   10.5742 H   0  0  0  0  0  0
    6.7568   14.4211   12.0068 H   0  0  0  0  0  0
    5.6578   20.2115   14.7013 H   0  0  0  0  0  0
    3.7620   19.5128   16.9514 H   0  0  0  0  0  0
    4.8004   22.0719   15.5791 H   0  0  0  0  0  0
    3.3775   22.1776   16.6704 H   0  0  0  0  0  0
    4.9526   20.8556   18.3823 H   0  0  0  0  0  0
    6.7172   20.4178   16.6909 H   0  0  0  0  0  0
    7.3240   21.3666   18.0903 H   0  0  0  0  0  0
    6.9796   22.1876   16.5301 H   0  0  0  0  0  0
    4.0709   23.1172   18.6954 H   0  0  0  0  0  0
    5.4208   23.7747   17.7094 H   0  0  0  0  0  0
    5.7652   22.9537   19.2695 H   0  0  0  0  0  0
    1.5752   19.3826   16.9813 H   0  0  0  0  0  0
    0.4466   20.0820   14.2328 H   0  0  0  0  0  0
    0.4093   17.5689   14.9999 H   0  0  0  0  0  0
   -0.8626   18.0788   16.1612 H   0  0  0  0  0  0
   -2.1647   19.0630   14.2206 H   0  0  0  0  0  0
   -0.9306   18.3921   13.1011 H   0  0  0  0  0  0
   -1.4793   16.1470   13.6920 H   0  0  0  0  0  0
   -2.4619   16.6811   15.0977 H   0  0  0  0  0  0
   -4.0877   16.1759   13.4703 H   0  0  0  0  0  0
   -3.8961   17.9543   13.3061 H   0  0  0  0  0  0
   -3.8068   16.8342   11.1017 H   0  0  0  0  0  0
   -2.4317   15.8320   11.6776 H   0  0  0  0  0  0
   -2.2401   17.6105   11.5135 H   0  0  0  0  0  0
  1  2  1  0  0  0
  1 28  1  0  0  0
  1 29  1  0  0  0
  1 30  1  0  0  0
  2  5  1  0  0  0
  2  3  1  0  0  0
  2 31  1  0  0  0
  3  4  2  0  0  0
  3 10  1  0  0  0
  5  6  1  0  0  0
  5 32  1  0  0  0
  5 33  1  0  0  0
  6  7  1  0  0  0
  6 34  1  0  0  0
  6 35  1  0  0  0
  7  8  1  0  0  0
  7 36  1  0  0  0
  7 37  1  0  0  0
  8  9  1  0  0  0
  8 38  1  0  0  0
  8 39  1  0  0  0
  9 40  1  0  0  0
  9 41  1  0  0  0
  9 42  1  0  0  0
 10 11  1  0  0  0
 10 43  1  0  0  0
 11 14  1  0  0  0
 11 12  1  0  0  0
 11 44  1  0  0  0
 12 13  2  0  0  0
 12 18  1  0  0  0
 14 15  1  0  0  0
 14 45  1  0  0  0
 14 46  1  0  0  0
 15 16  1  0  0  0
 15 17  1  0  0  0
 15 47  1  0  0  0
 16 48  1  0  0  0
 16 49  1  0  0  0
 16 50  1  0  0  0
 17 51  1  0  0  0
 17 52  1  0  0  0
 17 53  1  0  0  0
 18 19  1  0  0  0
 18 54  1  0  0  0
 19 22  1  0  0  0
 19 20  1  0  0  0
 19 55  1  0  0  0
 20 21  2  0  0  0
 20 27  1  0  0  0
 22 23  1  0  0  0
 22 56  1  0  0  0
 22 57  1  0  0  0
 23 24  1  0  0  0
 23 58  1  0  0  0
 23 59  1  0  0  0
 24 25  1  0  0  0
 24 60  1  0  0  0
 24 61  1  0  0  0
 25 26  1  0  0  0
 25 62  1  0  0  0
 25 63  1  0  0  0
 26 64  1  0  0  0
 26 65  1  0  0  0
 26 66  1  0  0  0
M  CHG  4   1   1   9   1  26   1  27  -1
M  END
> <s_m_source_file>
../1b9j_ligand.sdf

> <i_m_source_file_index>
1

> <s_epik_input>
W05IMytdW0NIMl1bQ0gyXVtDSDJdW0NIMl1bQ0BIXShbTkgzK10pQyg9TylbTkhdW0NAQEhdKFtDSDJdW0NIXShbQ0gzXSlbQ0gzXSlDKD1PKVtOSF1bQ0BIXShDKD1PKVtPSF0pW0NIMl1bQ0gyXVtDSDJdW0NIMl1bTkgzK10=

> <s_epik_cmdline>
J2VwaWtfYXBwJywgJy1pbWFlJywgJ2xpZ2FuZF9wcm8ubWFlJywgJy1vbWFlJywgJ2xpZ2FuZF9wcmVwLm1hZScsICctbXMnLCAnMScsICctcGgnLCAnNycsICctcGh0JywgJzAuNScsICctbnQn

> <r_epik_Ionization_Penalty>
  0.1161

> <r_epik_Ionization_Penalty_Charging>
  0.1160

> <r_epik_Ionization_Penalty_Neutral>
  0.0000

> <r_epik_State_Penalty>
  0.1046

> <r_epik_Charging_Adjusted_Penalty>
0.220653209208351

> <i_epik_Tot_Q>
2

> <i_epik_Tot_abs_Q>
4

$$$$
