1b9s_ligand
                    3D
 Schrodinger Suite 2020-3.
 40 40  0  0  1  0            999 V2000
   33.5870   -9.7130   64.2290 C   0  0  0  0  0  0
   32.2850   -9.4600   63.7000 C   0  0  0  0  0  0
   31.2190  -10.3660   64.0090 C   0  0  0  0  0  0
   31.4760  -11.5020   64.8300 C   0  0  0  0  0  0
   32.7670  -11.7590   65.3550 C   0  0  0  0  0  0
   33.8260  -10.8520   65.0500 C   0  0  0  0  0  0
   32.9920  -12.9650   66.2010 C   0  0  0  0  0  0
   31.9170  -13.7590   66.4190 O   0  5  0  0  0  0
   34.0660  -13.2130   66.6530 O   0  0  0  0  0  0
   29.9440  -10.1580   63.5200 N   0  0  0  0  0  0
   28.8040  -10.6760   64.0940 C   0  0  0  0  0  0
   27.9830   -9.6620   64.9570 C   0  0  0  0  0  0
   28.4160  -11.8350   63.9350 O   0  0  0  0  0  0
   27.6710   -8.3960   64.1190 C   0  0  0  0  0  0
   26.2190   -8.2830   63.6280 C   0  0  0  0  0  0
   28.7640   -9.3610   66.2760 C   0  0  0  0  0  0
   28.7360  -10.4960   67.3210 C   0  0  0  0  0  0
   32.0850   -8.3570   62.9020 N   0  0  0  0  0  0
   31.5340   -7.1880   63.3370 C   0  0  0  0  0  0
   31.4230   -6.1220   62.2430 C   0  0  0  0  0  0
   31.1480   -6.9660   64.4800 O   0  0  0  0  0  0
   34.4047   -9.0288   64.0026 H   0  0  0  0  0  0
   30.6612  -12.1888   65.0594 H   0  0  0  0  0  0
   34.8245  -11.0323   65.4481 H   0  0  0  0  0  0
   29.7938   -9.5460   62.6184 H   0  0  0  0  0  0
   27.0075  -10.0802   65.2459 H   0  0  0  0  0  0
   27.8699   -7.4984   64.7229 H   0  0  0  0  0  0
   28.3083   -8.3834   63.2225 H   0  0  0  0  0  0
   26.0996   -7.3568   63.0467 H   0  0  0  0  0  0
   25.5399   -8.2631   64.4931 H   0  0  0  0  0  0
   25.9784   -9.1482   62.9928 H   0  0  0  0  0  0
   29.8222   -9.1739   66.0410 H   0  0  0  0  0  0
   28.3339   -8.4730   66.7623 H   0  0  0  0  0  0
   29.3097  -10.1913   68.2087 H   0  0  0  0  0  0
   29.1833  -11.4033   66.8889 H   0  0  0  0  0  0
   27.6950  -10.7024   67.6103 H   0  0  0  0  0  0
   32.3762   -8.3852   61.8416 H   0  0  0  0  0  0
   31.8230   -6.5218   61.2995 H   0  0  0  0  0  0
   31.9992   -5.2326   62.5379 H   0  0  0  0  0  0
   30.3671   -5.8460   62.1058 H   0  0  0  0  0  0
  1  6  2  0  0  0
  1  2  1  0  0  0
  1 22  1  0  0  0
  2 18  1  0  0  0
  2  3  2  0  0  0
  3 10  1  0  0  0
  3  4  1  0  0  0
  4  5  2  0  0  0
  4 23  1  0  0  0
  5  7  1  0  0  0
  5  6  1  0  0  0
  6 24  1  0  0  0
  7  9  2  0  0  0
  7  8  1  0  0  0
 10 11  1  0  0  0
 10 25  1  0  0  0
 11 13  2  0  0  0
 11 12  1  0  0  0
 12 16  1  0  0  0
 12 14  1  0  0  0
 12 26  1  0  0  0
 14 15  1  0  0  0
 14 27  1  0  0  0
 14 28  1  0  0  0
 15 29  1  0  0  0
 15 30  1  0  0  0
 15 31  1  0  0  0
 16 17  1  0  0  0
 16 32  1  0  0  0
 16 33  1  0  0  0
 17 34  1  0  0  0
 17 35  1  0  0  0
 17 36  1  0  0  0
 18 19  1  0  0  0
 18 37  1  0  0  0
 19 21  2  0  0  0
 19 20  1  0  0  0
 20 38  1  0  0  0
 20 39  1  0  0  0
 20 40  1  0  0  0
M  CHG  1   8  -1
M  END
> <s_m_source_file>
../1b9s_ligand.sdf

> <i_m_source_file_index>
1

> <s_epik_input>
W0NIM11DKD1PKVtOSF1jMVtjSF1bY0hdYyhDKD1PKVtPSF0pW2NIXWMxW05IXUMoPU8pW0NIXShbQ0gyXVtDSDNdKVtDSDJdW0NIM10=

> <s_epik_cmdline>
J2VwaWtfYXBwJywgJy1pbWFlJywgJ2xpZ2FuZF9wcm8ubWFlJywgJy1vbWFlJywgJ2xpZ2FuZF9wcmVwLm1hZScsICctbXMnLCAnMScsICctcGgnLCAnNycsICctcGh0JywgJzAuNScsICctbnQn

> <r_lp_tautomer_probability>
1

> <r_epik_Ionization_Penalty>
  0.0008

> <r_epik_Ionization_Penalty_Charging>
  0.0008

> <r_epik_Ionization_Penalty_Neutral>
  0.0000

> <r_epik_State_Penalty>
 -0.0000

> <r_epik_Charging_Adjusted_Penalty>
0.000770299250149101

> <i_epik_Tot_Q>
-1

> <i_epik_Tot_abs_Q>
1

$$$$
