1b9t_ligand
                    3D
 Schrodinger Suite 2020-3.
 41 42  0  0  1  0            999 V2000
   33.8350   -9.7190   64.6050 C   0  0  0  0  0  0
   32.5300   -9.4640   64.0870 C   0  0  0  0  0  0
   31.4600  -10.3440   64.4570 C   0  0  0  0  0  0
   31.7010  -11.4430   65.3090 C   0  0  0  0  0  0
   32.9860  -11.7000   65.8150 C   0  0  0  0  0  0
   34.0630  -10.8250   65.4590 C   0  0  0  0  0  0
   33.2090  -12.8620   66.6940 C   0  0  0  0  0  0
   32.1250  -13.6200   66.9520 O   0  5  0  0  0  0
   30.1790  -10.1610   64.0130 N   0  0  0  0  0  0
   29.2990  -11.0450   63.5120 C   0  0  0  0  0  0
   29.7330  -12.1730   62.9090 N   0  0  0  0  0  0
   32.2740   -8.3760   63.2370 N   0  0  0  0  0  0
   32.4450   -8.3520   61.7310 C   0  0  0  0  0  0
   32.2020   -6.8470   61.4010 C   0  0  0  0  0  0
   31.5800   -6.1860   62.6270 C   0  0  0  0  0  0
   31.7990   -7.1960   63.7300 C   0  0  0  0  0  0
   31.3670   -9.2380   61.0210 C   0  0  0  0  0  0
   31.6700   -9.4450   59.6410 O   0  0  0  0  0  0
   33.8760   -8.8440   61.2880 C   0  0  0  0  0  0
   34.4430   -7.9650   60.3610 O   0  0  0  0  0  0
   34.2810  -13.1100   67.1400 O   0  0  0  0  0  0
   27.9970  -10.7800   63.6210 N   0  3  0  0  0  0
   31.5580   -6.9480   64.9060 O   0  0  0  0  0  0
   34.6611   -9.0584   64.3417 H   0  0  0  0  0  0
   30.8766  -12.1031   65.5788 H   0  0  0  0  0  0
   35.0640  -11.0118   65.8479 H   0  0  0  0  0  0
   29.7261   -9.1589   64.0380 H   0  0  0  0  0  0
   30.8115  -12.3738   62.8289 H   0  0  0  0  0  0
   29.0079  -12.8909   62.4980 H   0  0  0  0  0  0
   33.1606   -6.3658   61.1569 H   0  0  0  0  0  0
   31.5213   -6.7655   60.5408 H   0  0  0  0  0  0
   32.0904   -5.2325   62.8281 H   0  0  0  0  0  0
   30.5124   -5.9981   62.4403 H   0  0  0  0  0  0
   31.3178  -10.2205   61.5132 H   0  0  0  0  0  0
   30.3858   -8.7452   61.0873 H   0  0  0  0  0  0
   30.9978  -10.0503   59.0151 H   0  0  0  0  0  0
   34.5331   -8.9004   62.1683 H   0  0  0  0  0  0
   33.7950   -9.8393   60.8266 H   0  0  0  0  0  0
   35.4439   -8.1674   59.9520 H   0  0  0  0  0  0
   27.6633   -9.8559   64.1156 H   0  0  0  0  0  0
   27.2564  -11.4855   63.2163 H   0  0  0  0  0  0
  1  6  2  0  0  0
  1  2  1  0  0  0
  1 24  1  0  0  0
  2 12  1  0  0  0
  2  3  2  0  0  0
  3  9  1  0  0  0
  3  4  1  0  0  0
  4  5  2  0  0  0
  4 25  1  0  0  0
  5  7  1  0  0  0
  5  6  1  0  0  0
  6 26  1  0  0  0
  7 21  2  0  0  0
  7  8  1  0  0  0
  9 10  1  0  0  0
  9 27  1  0  0  0
 10 22  2  0  0  0
 10 11  1  0  0  0
 11 28  1  0  0  0
 11 29  1  0  0  0
 12 16  1  0  0  0
 12 13  1  0  0  0
 13 19  1  0  0  0
 13 17  1  0  0  0
 13 14  1  0  0  0
 14 15  1  0  0  0
 14 30  1  0  0  0
 14 31  1  0  0  0
 15 16  1  0  0  0
 15 32  1  0  0  0
 15 33  1  0  0  0
 16 23  2  0  0  0
 17 18  1  0  0  0
 17 34  1  0  0  0
 17 35  1  0  0  0
 18 36  1  0  0  0
 19 20  1  0  0  0
 19 37  1  0  0  0
 19 38  1  0  0  0
 20 39  1  0  0  0
 22 40  1  0  0  0
 22 41  1  0  0  0
M  CHG  2   8  -1  22   1
M  END
> <s_m_source_file>
../1b9t_ligand.sdf

> <i_m_source_file_index>
1

> <s_epik_input>
W0NIMl0xW0NIMl1DKD1PKU4oQzEoW0NIMl1bT0hdKVtDSDJdW09IXSljMltjSF1bY0hdYyhDKD1PKVtPSF0pW2NIXWMyW05IXS9DKFtOSDJdKT1OXFtIXQ==

> <s_epik_cmdline>
J2VwaWtfYXBwJywgJy1pbWFlJywgJ2xpZ2FuZF9wcm8ubWFlJywgJy1vbWFlJywgJ2xpZ2FuZF9wcmVwLm1hZScsICctbXMnLCAnMScsICctcGgnLCAnNycsICctcGh0JywgJzAuNScsICctbnQn

> <r_lp_tautomer_probability>
1

> <r_epik_Ionization_Penalty>
  0.0004

> <r_epik_Ionization_Penalty_Charging>
  0.0004

> <r_epik_Ionization_Penalty_Neutral>
  0.0000

> <r_epik_State_Penalty>
 -0.0000

> <r_epik_Charging_Adjusted_Penalty>
0.000356072376364393

> <i_epik_Tot_Q>
0

> <i_epik_Tot_abs_Q>
2

> <s_epik_Chemistry_Notes>
This compound has an imine and may undergo hydrolysis.

$$$$
