1b9v_ligand
                    3D
 Schrodinger Suite 2020-3.
 50 51  0  0  1  0            999 V2000
   33.8750   -9.4120   65.0710 C   0  0  0  0  0  0
   32.6830   -9.1850   64.3260 C   0  0  0  0  0  0
   31.6360  -10.1660   64.3690 C   0  0  0  0  0  0
   31.8140  -11.3380   65.1410 C   0  0  0  0  0  0
   32.9940  -11.5710   65.8730 C   0  0  0  0  0  0
   34.0310  -10.5980   65.8420 C   0  0  0  0  0  0
   33.1340  -12.8250   66.6530 C   0  0  0  0  0  0
   32.5210   -8.0310   63.5490 N   0  0  0  0  0  0
   30.4840   -9.9330   63.6410 N   0  0  0  0  0  0
   29.1840  -10.6300   63.7590 C   0  0  0  0  0  0
   29.2160  -11.9210   62.8880 C   0  0  0  0  0  0
   27.9490  -12.7780   62.9190 C   0  0  0  0  0  0
   28.0610   -9.6490   63.3340 C   0  0  0  0  0  0
   27.7650   -8.5320   64.3440 C   0  0  0  0  0  0
   33.0660   -7.7960   62.1590 C   0  0  0  0  0  0
   32.0960   -6.7030   61.6670 C   0  0  0  0  0  0
   31.7780   -5.8770   62.9210 C   0  0  0  0  0  0
   31.7970   -6.9540   63.9980 C   0  0  0  0  0  0
   31.2300   -6.8410   65.0770 O   0  0  0  0  0  0
   33.0290   -9.0750   61.2490 C   0  0  0  0  0  0
   31.7020   -9.4880   60.9290 O   0  0  0  0  0  0
   34.5150   -7.2100   62.1450 C   0  0  0  0  0  0
   35.1150   -7.1970   63.4350 O   0  0  0  0  0  0
   32.0780  -13.6760   66.5930 O   0  5  0  0  0  0
   34.1150  -13.0700   67.2850 O   0  0  0  0  0  0
   34.6745   -8.6714   65.0506 H   0  0  0  0  0  0
   31.0164  -12.0804   65.1699 H   0  0  0  0  0  0
   34.9470  -10.7610   66.4099 H   0  0  0  0  0  0
   30.6102   -9.1252   62.9051 H   0  0  0  0  0  0
   29.0287  -10.9175   64.8094 H   0  0  0  0  0  0
   29.3765  -11.6486   61.8344 H   0  0  0  0  0  0
   30.0352  -12.5720   63.2273 H   0  0  0  0  0  0
   28.0850  -13.6571   62.2719 H   0  0  0  0  0  0
   27.0962  -12.1848   62.5572 H   0  0  0  0  0  0
   27.7549  -13.1082   63.9501 H   0  0  0  0  0  0
   28.3414   -9.1571   62.3909 H   0  0  0  0  0  0
   27.1225  -10.2050   63.1926 H   0  0  0  0  0  0
   26.9592   -7.8913   63.9564 H   0  0  0  0  0  0
   28.6713   -7.9281   64.4988 H   0  0  0  0  0  0
   27.4524   -8.9760   65.3006 H   0  0  0  0  0  0
   32.5884   -6.0978   60.8916 H   0  0  0  0  0  0
   31.1950   -7.1742   61.2472 H   0  0  0  0  0  0
   32.5515   -5.1071   63.0588 H   0  0  0  0  0  0
   30.7968   -5.3940   62.8028 H   0  0  0  0  0  0
   33.5533   -8.8682   60.3043 H   0  0  0  0  0  0
   33.5242   -9.9088   61.7681 H   0  0  0  0  0  0
   31.5389  -10.3731   60.2965 H   0  0  0  0  0  0
   35.1502   -7.8184   61.4844 H   0  0  0  0  0  0
   34.4881   -6.1742   61.7757 H   0  0  0  0  0  0
   36.1361   -6.8084   63.5628 H   0  0  0  0  0  0
  1  6  2  0  0  0
  1  2  1  0  0  0
  1 26  1  0  0  0
  2  8  1  0  0  0
  2  3  2  0  0  0
  3  9  1  0  0  0
  3  4  1  0  0  0
  4  5  2  0  0  0
  4 27  1  0  0  0
  5  7  1  0  0  0
  5  6  1  0  0  0
  6 28  1  0  0  0
  7 25  2  0  0  0
  7 24  1  0  0  0
  8 18  1  0  0  0
  8 15  1  0  0  0
  9 10  1  0  0  0
  9 29  1  0  0  0
 10 13  1  0  0  0
 10 11  1  0  0  0
 10 30  1  0  0  0
 11 12  1  0  0  0
 11 31  1  0  0  0
 11 32  1  0  0  0
 12 33  1  0  0  0
 12 34  1  0  0  0
 12 35  1  0  0  0
 13 14  1  0  0  0
 13 36  1  0  0  0
 13 37  1  0  0  0
 14 38  1  0  0  0
 14 39  1  0  0  0
 14 40  1  0  0  0
 15 22  1  0  0  0
 15 20  1  0  0  0
 15 16  1  0  0  0
 16 17  1  0  0  0
 16 41  1  0  0  0
 16 42  1  0  0  0
 17 18  1  0  0  0
 17 43  1  0  0  0
 17 44  1  0  0  0
 18 19  2  0  0  0
 20 21  1  0  0  0
 20 45  1  0  0  0
 20 46  1  0  0  0
 21 47  1  0  0  0
 22 23  1  0  0  0
 22 48  1  0  0  0
 22 49  1  0  0  0
 23 50  1  0  0  0
M  CHG  1  24  -1
M  END
> <s_m_source_file>
../1b9v_ligand.sdf

> <i_m_source_file_index>
1

> <s_epik_input>
W0NIMl0xW0NIMl1DKD1PKU4oQzEoW0NIMl1bT0hdKVtDSDJdW09IXSljMltjSF1bY0hdYyhDKD1PKVtPSF0pW2NIXWMyW05IXVtDSF0oW0NIMl1bQ0gzXSlbQ0gyXVtDSDNd

> <s_epik_cmdline>
J2VwaWtfYXBwJywgJy1pbWFlJywgJ2xpZ2FuZF9wcm8ubWFlJywgJy1vbWFlJywgJ2xpZ2FuZF9wcmVwLm1hZScsICctbXMnLCAnMScsICctcGgnLCAnNycsICctcGh0JywgJzAuNScsICctbnQn

> <r_lp_tautomer_probability>
1

> <r_epik_Ionization_Penalty>
  0.0092

> <r_epik_Ionization_Penalty_Charging>
  0.0016

> <r_epik_Ionization_Penalty_Neutral>
  0.0075

> <r_epik_State_Penalty>
 -0.0000

> <r_epik_Charging_Adjusted_Penalty>
0.00164866547179271

> <i_epik_Tot_Q>
-1

> <i_epik_Tot_abs_Q>
1

$$$$
