1ba8_ligand
                    3D
 Schrodinger Suite 2020-3.
 65 66  0  0  1  0            999 V2000
   17.4360  -16.4350   23.5770 N   0  0  3  0  0  0
   18.4420  -15.7570   22.8520 C   0  0  1  0  0  0
   19.0330  -16.4690   21.6970 C   0  0  0  0  0  0
   19.9950  -15.6810   20.8840 C   0  0  0  0  0  0
   17.9020  -14.3370   22.4450 C   0  0  0  0  0  0
   19.7720  -14.1610   20.8010 C   0  0  0  0  0  0
   16.8830  -13.9820   22.9910 O   0  0  0  0  0  0
   18.5700  -13.7210   21.5090 N   0  0  0  0  0  0
   18.0610  -12.3810   21.1590 C   0  0  0  0  0  0
   16.7650  -12.5590   20.3690 C   0  0  0  0  0  0
   16.5080  -13.6410   19.8490 O   0  0  0  0  0  0
   15.9480  -11.5220   20.4040 N   0  0  0  0  0  0
   14.6430  -11.5230   19.6890 C   0  0  2  0  0  0
   14.7650  -10.7360   18.4010 C   0  0  0  0  0  0
   13.7430  -10.2930   17.8470 O   0  0  0  0  0  0
   13.5370  -10.9750   20.5490 C   0  0  0  0  0  0
   13.1190  -11.9050   21.6620 C   0  0  0  0  0  0
   12.1690  -11.2620   22.5840 C   0  0  0  0  0  0
   11.6040  -12.2630   23.4450 N   0  0  0  0  0  0
   10.8140  -12.0520   24.4600 C   0  0  0  0  0  0
   10.5110  -10.7690   24.7930 N   0  0  0  0  0  0
   10.1950  -13.0590   25.1040 N   0  3  0  0  0  0
   18.5050  -17.0080   26.1270 C   0  0  0  0  0  0
   19.7260  -16.1890   25.9210 C   0  0  0  0  0  0
   19.5880  -14.8030   26.0630 C   0  0  0  0  0  0
   20.7160  -14.0070   25.8690 C   0  0  0  0  0  0
   21.9460  -14.5170   25.5360 C   0  0  0  0  0  0
   22.0680  -15.8840   25.3950 C   0  0  0  0  0  0
   20.9500  -16.7130   25.5920 C   0  0  0  0  0  0
   17.8190  -17.6730   24.6280 S   0  0  0  0  0  0
   16.5900  -18.2410   24.9980 O   0  0  0  0  0  0
   18.8640  -18.3330   23.9230 O   0  0  0  0  0  0
   16.4063  -16.0480   23.5823 H   0  0  0  0  0  0
   19.2690  -15.7830   23.5768 H   0  0  0  0  0  0
   19.5800  -17.3545   22.0530 H   0  0  0  0  0  0
   18.2324  -16.7837   21.0115 H   0  0  0  0  0  0
   21.0086  -15.8055   21.2927 H   0  0  0  0  0  0
   19.9731  -16.0366   19.8433 H   0  0  0  0  0  0
   20.6321  -13.6394   21.2462 H   0  0  0  0  0  0
   19.6675  -13.8627   19.7474 H   0  0  0  0  0  0
   17.8693  -11.8097   22.0793 H   0  0  0  0  0  0
   18.8083  -11.8528   20.5486 H   0  0  0  0  0  0
   16.2569  -10.6396   20.9836 H   0  0  0  0  0  0
   14.3914  -12.5700   19.4641 H   0  0  0  0  0  0
   15.3836   -9.8431   18.5741 H   0  0  0  0  0  0
   15.2357  -11.3643   17.6305 H   0  0  0  0  0  0
   13.8286   -9.7210   16.9113 H   0  0  0  0  0  0
   13.8660  -10.0339   21.0138 H   0  0  0  0  0  0
   12.6489  -10.7863   19.9280 H   0  0  0  0  0  0
   12.6355  -12.7954   21.2337 H   0  0  0  0  0  0
   14.0055  -12.2102   22.2372 H   0  0  0  0  0  0
   12.6965  -10.5083   23.1871 H   0  0  0  0  0  0
   11.3696  -10.7752   22.0061 H   0  0  0  0  0  0
   11.8287  -13.3261   23.2739 H   0  0  0  0  0  0
   11.0079   -9.9347   24.2763 H   0  0  0  0  0  0
    9.7690  -10.5654   25.5791 H   0  0  0  0  0  0
   10.4288  -14.1026   24.8465 H   0  0  0  0  0  0
   18.7410  -17.8598   26.7818 H   0  0  0  0  0  0
   17.7242  -16.3908   26.5954 H   0  0  0  0  0  0
   18.6258  -14.3588   26.3180 H   0  0  0  0  0  0
   20.6164  -12.9280   25.9874 H   0  0  0  0  0  0
   22.8029  -13.8600   25.3870 H   0  0  0  0  0  0
   23.0310  -16.3210   25.1309 H   0  0  0  0  0  0
   21.0578  -17.7920   25.4813 H   0  0  0  0  0  0
    9.4554  -12.8383   25.8877 H   0  0  0  0  0  0
  1  2  1  0  0  0
  1 30  1  0  0  0
  1 33  1  0  0  0
  2  3  1  0  0  0
  2  5  1  0  0  0
  2 34  1  0  0  0
  3  4  1  0  0  0
  3 35  1  0  0  0
  3 36  1  0  0  0
  4  6  1  0  0  0
  4 37  1  0  0  0
  4 38  1  0  0  0
  5  7  2  0  0  0
  5  8  1  0  0  0
  6  8  1  0  0  0
  6 39  1  0  0  0
  6 40  1  0  0  0
  8  9  1  0  0  0
  9 10  1  0  0  0
  9 41  1  0  0  0
  9 42  1  0  0  0
 10 11  2  0  0  0
 10 12  1  0  0  0
 12 13  1  0  0  0
 12 43  1  0  0  0
 13 14  1  0  0  0
 13 16  1  0  0  0
 13 44  1  0  0  0
 14 15  1  0  0  0
 14 45  1  0  0  0
 14 46  1  0  0  0
 15 47  1  0  0  0
 16 17  1  0  0  0
 16 48  1  0  0  0
 16 49  1  0  0  0
 17 18  1  0  0  0
 17 50  1  0  0  0
 17 51  1  0  0  0
 18 19  1  0  0  0
 18 52  1  0  0  0
 18 53  1  0  0  0
 19 20  1  0  0  0
 19 54  1  0  0  0
 20 21  1  0  0  0
 20 22  2  0  0  0
 21 55  1  0  0  0
 21 56  1  0  0  0
 22 57  1  0  0  0
 22 65  1  0  0  0
 23 24  1  0  0  0
 23 30  1  0  0  0
 23 58  1  0  0  0
 23 59  1  0  0  0
 24 25  2  0  0  0
 24 29  1  0  0  0
 25 26  1  0  0  0
 25 60  1  0  0  0
 26 27  2  0  0  0
 26 61  1  0  0  0
 27 28  1  0  0  0
 27 62  1  0  0  0
 28 29  2  0  0  0
 28 63  1  0  0  0
 29 64  1  0  0  0
 30 31  2  0  0  0
 30 32  2  0  0  0
M  CHG  1  22   1
M  END
> <s_m_source_file>
../1ba8_ligand.sdf

> <i_m_source_file_index>
1

> <s_epik_input>
W2NIXTFbY0hdW2NIXVtjSF1bY0hdYzFbQ0gyXVMoPU8pKD1PKVtOSF1bQ0BIXTJbQ0gyXVtDSDJdW0NIMl1OKEMyPU8pW0NIMl1DKD1PKVtOSF1bQ0BIXShbQ0gyXVtPSF0pW0NIMl1bQ0gyXVtDSDJdW05IXS9DKFtOSDJdKT1OXFtIXQ==

> <s_epik_cmdline>
J2VwaWtfYXBwJywgJy1pbWFlJywgJ2xpZ2FuZF9wcm8ubWFlJywgJy1vbWFlJywgJ2xpZ2FuZF9wcmVwLm1hZScsICctbXMnLCAnMScsICctcGgnLCAnNycsICctcGh0JywgJzAuNScsICctbnQn

> <r_lp_tautomer_probability>
1

> <r_epik_Ionization_Penalty>
  0.0001

> <r_epik_Ionization_Penalty_Charging>
  0.0000

> <r_epik_Ionization_Penalty_Neutral>
  0.0001

> <r_epik_State_Penalty>
 -0.0000

> <r_epik_Charging_Adjusted_Penalty>
2.41654511826174e-06

> <i_epik_Tot_Q>
1

> <i_epik_Tot_abs_Q>
1

> <s_epik_Chemistry_Notes>
This compound has an imine and may undergo hydrolysis.

$$$$
