1bb0_ligand
                    3D
 Schrodinger Suite 2020-3.
 72 74  0  0  1  0            999 V2000
   18.4750  -17.0660   26.1510 C   0  0  0  0  0  0
   19.7430  -16.2770   26.0710 C   0  0  0  0  0  0
   19.6430  -14.9080   26.2530 C   0  0  0  0  0  0
   20.7650  -14.1190   25.9670 C   0  0  0  0  0  0
   21.8960  -14.6380   25.3580 C   0  0  0  0  0  0
   21.9440  -16.0070   25.1040 C   0  0  0  0  0  0
   20.9050  -16.8210   25.5490 C   0  0  0  0  0  0
   17.8250  -17.6630   24.6010 S   0  0  0  0  0  0
   16.5590  -18.1930   24.9700 O   0  0  0  0  0  0
   18.7900  -18.3260   23.7910 O   0  0  0  0  0  0
   17.4920  -16.3810   23.6000 N   0  0  3  0  0  0
   18.4820  -15.7300   22.8430 C   0  0  1  0  0  0
   19.1620  -16.4910   21.7530 C   0  0  0  0  0  0
   20.1430  -15.6500   20.9750 C   0  0  0  0  0  0
   17.9000  -14.3990   22.3120 C   0  0  0  0  0  0
   19.7760  -14.2200   20.6820 C   0  0  0  0  0  0
   16.9460  -13.9800   22.9600 O   0  0  0  0  0  0
   18.6560  -13.7130   21.4880 N   0  0  0  0  0  0
   18.1290  -12.3510   21.4180 C   0  0  0  0  0  0
   16.8320  -12.7310   20.6150 C   0  0  0  0  0  0
   16.7940  -13.6380   19.7430 O   0  0  0  0  0  0
   11.6690  -13.8310   21.5510 C   0  0  0  0  0  0
   12.2190  -13.8810   23.1160 C   0  0  0  0  0  0
   15.8250  -11.7010   20.5730 N   0  0  0  0  0  0
   14.6260  -11.6790   19.8100 C   0  0  2  0  0  0
   14.7720  -11.1810   18.4660 C   0  0  0  0  0  0
   13.9280  -10.6470   17.5260 O   0  0  0  0  0  0
   13.6810  -10.9870   20.6100 C   0  0  0  0  0  0
   11.2960  -11.9580   24.5990 C   0  0  0  0  0  0
   12.2760  -12.3890   23.7370 N   0  0  0  0  0  0
   12.9020  -13.0670   20.6870 C   0  0  0  0  0  0
   12.6450  -11.6780   21.3270 C   0  0  1  0  0  0
   13.0430  -11.6160   22.8430 C   0  0  0  0  0  0
   11.0470  -10.6820   24.7320 N   0  0  0  0  0  0
   10.5620  -12.7380   25.2420 N   0  3  0  0  0  0
   18.6358  -17.9559   26.7772 H   0  0  0  0  0  0
   17.6834  -16.4440   26.5942 H   0  0  0  0  0  0
   18.7169  -14.4566   26.6090 H   0  0  0  0  0  0
   20.7474  -13.0620   26.2324 H   0  0  0  0  0  0
   22.7288  -13.9904   25.0840 H   0  0  0  0  0  0
   22.7865  -16.4369   24.5623 H   0  0  0  0  0  0
   21.0081  -17.9043   25.4854 H   0  0  0  0  0  0
   16.4831  -15.9490   23.6736 H   0  0  0  0  0  0
   19.2704  -15.6584   23.6067 H   0  0  0  0  0  0
   19.7155  -17.3369   22.1866 H   0  0  0  0  0  0
   18.4096  -16.8693   21.0454 H   0  0  0  0  0  0
   21.0938  -15.5926   21.5252 H   0  0  0  0  0  0
   20.3167  -16.1067   19.9895 H   0  0  0  0  0  0
   20.6409  -13.5709   20.8834 H   0  0  0  0  0  0
   19.4847  -14.1253   19.6255 H   0  0  0  0  0  0
   17.9687  -11.9671   22.4363 H   0  0  0  0  0  0
   18.8483  -11.7061   20.8920 H   0  0  0  0  0  0
   11.4927  -14.8555   21.1914 H   0  0  0  0  0  0
   10.7288  -13.2615   21.5108 H   0  0  0  0  0  0
   11.5404  -14.4978   23.7236 H   0  0  0  0  0  0
   13.2284  -14.3178   23.1362 H   0  0  0  0  0  0
   16.0725  -10.8566   21.2331 H   0  0  0  0  0  0
   14.2751  -12.7037   19.6179 H   0  0  0  0  0  0
   15.4780  -10.3375   18.4622 H   0  0  0  0  0  0
   15.1551  -11.9827   17.8175 H   0  0  0  0  0  0
   14.3207  -10.3398   16.5455 H   0  0  0  0  0  0
   14.2063  -10.4362   21.4041 H   0  0  0  0  0  0
   13.1184  -10.2793   19.9834 H   0  0  0  0  0  0
   13.8646  -13.5446   20.9220 H   0  0  0  0  0  0
   12.7028  -13.1545   19.6087 H   0  0  0  0  0  0
   11.6194  -11.2923   21.2306 H   0  0  0  0  0  0
   12.9742  -10.5547   23.1238 H   0  0  0  0  0  0
   14.0935  -11.9395   22.8866 H   0  0  0  0  0  0
   11.6576   -9.9433   24.1921 H   0  0  0  0  0  0
   10.2268  -10.3467   25.3838 H   0  0  0  0  0  0
   10.7199  -13.8244   25.1730 H   0  0  0  0  0  0
    9.7578  -12.3384   25.8772 H   0  0  0  0  0  0
  1  2  1  0  0  0
  1  8  1  0  0  0
  1 36  1  0  0  0
  1 37  1  0  0  0
  2  3  2  0  0  0
  2  7  1  0  0  0
  3  4  1  0  0  0
  3 38  1  0  0  0
  4  5  2  0  0  0
  4 39  1  0  0  0
  5  6  1  0  0  0
  5 40  1  0  0  0
  6  7  2  0  0  0
  6 41  1  0  0  0
  7 42  1  0  0  0
  8  9  2  0  0  0
  8 10  2  0  0  0
  8 11  1  0  0  0
 11 12  1  0  0  0
 11 43  1  0  0  0
 12 13  1  0  0  0
 12 15  1  0  0  0
 12 44  1  0  0  0
 13 14  1  0  0  0
 13 45  1  0  0  0
 13 46  1  0  0  0
 14 16  1  0  0  0
 14 47  1  0  0  0
 14 48  1  0  0  0
 15 17  2  0  0  0
 15 18  1  0  0  0
 16 18  1  0  0  0
 16 49  1  0  0  0
 16 50  1  0  0  0
 18 19  1  0  0  0
 19 20  1  0  0  0
 19 51  1  0  0  0
 19 52  1  0  0  0
 20 21  2  0  0  0
 20 24  1  0  0  0
 22 23  1  0  0  0
 22 31  1  0  0  0
 22 53  1  0  0  0
 22 54  1  0  0  0
 23 30  1  0  0  0
 23 55  1  0  0  0
 23 56  1  0  0  0
 24 25  1  0  0  0
 24 57  1  0  0  0
 25 26  1  0  0  0
 25 28  1  0  0  0
 25 58  1  0  0  0
 26 27  1  0  0  0
 26 59  1  0  0  0
 26 60  1  0  0  0
 27 61  1  0  0  0
 28 32  1  0  0  0
 28 62  1  0  0  0
 28 63  1  0  0  0
 29 30  1  0  0  0
 29 34  1  0  0  0
 29 35  2  0  0  0
 30 33  1  0  0  0
 31 32  1  0  0  0
 31 64  1  0  0  0
 31 65  1  0  0  0
 32 33  1  0  0  0
 32 66  1  0  0  0
 33 67  1  0  0  0
 33 68  1  0  0  0
 34 69  1  0  0  0
 34 70  1  0  0  0
 35 71  1  0  0  0
 35 72  1  0  0  0
M  CHG  1  35   1
M  END
> <s_m_source_file>
../1bb0_ligand.sdf

> <i_m_source_file_index>
1

> <s_epik_input>
W2NIXTFbY0hdW2NIXVtjSF1bY0hdYzFbQ0gyXVMoPU8pKD1PKVtOSF1bQ0BIXTJbQ0gyXVtDSDJdW0NIMl1OKEMyPU8pW0NIMl1DKD1PKVtOSF1bQ0BIXShbQ0gyXVtPSF0pW0NIMl1bQ0BIXShbQ0gyXTMpW0NIMl1bQ0gyXVtDSDJdTjMvQyhbTkgyXSk9TlxbSF0=

> <s_epik_cmdline>
J2VwaWtfYXBwJywgJy1pbWFlJywgJ2xpZ2FuZF9wcm8ubWFlJywgJy1vbWFlJywgJ2xpZ2FuZF9wcmVwLm1hZScsICctbXMnLCAnMScsICctcGgnLCAnNycsICctcGh0JywgJzAuNScsICctbnQn

> <r_lp_tautomer_probability>
1

> <r_epik_Ionization_Penalty>
  0.0001

> <r_epik_Ionization_Penalty_Charging>
  0.0000

> <r_epik_Ionization_Penalty_Neutral>
  0.0001

> <r_epik_State_Penalty>
 -0.0000

> <r_epik_Charging_Adjusted_Penalty>
4.38469959711452e-06

> <i_epik_Tot_Q>
1

> <i_epik_Tot_abs_Q>
1

> <s_epik_Chemistry_Notes>
This compound has an imine and may undergo hydrolysis.

$$$$
