1bbz_ligand
                    3D
 Schrodinger Suite 2020-3.
144150  0  0  1  0            999 V2000
   15.9570   27.9000    9.3420 C   0  0  0  0  0  0
   15.4610   27.9470    8.2110 O   0  0  0  0  0  0
   17.2670   27.1320    9.5190 C   0  0  0  0  0  0
   15.3980   28.4630   10.4080 N   0  0  0  0  0  0
   14.1490   29.2120   10.3090 C   0  0  2  0  0  0
   14.3920   30.5550    9.6200 C   0  0  0  0  0  0
   15.4780   31.1040    9.7070 O   0  0  0  0  0  0
   13.5490   29.4250   11.6930 C   0  0  0  0  0  0
   13.3940   31.0830    8.8930 N   0  0  0  0  0  0
   13.6190   32.3740    8.2360 C   0  0  2  0  0  0
   13.9990   33.4520    9.2630 C   0  0  0  0  0  0
   13.5600   33.4130   10.4100 O   0  0  0  0  0  0
   12.2600   32.6630    7.5960 C   0  0  0  0  0  0
   11.7510   31.2870    7.2600 C   0  0  0  0  0  0
   12.0800   30.5250    8.5270 C   0  0  0  0  0  0
   14.8420   34.3980    8.8630 N   0  0  0  0  0  0
   15.2470   35.4610    9.7730 C   0  0  2  0  0  0
   14.2250   36.5950    9.7230 C   0  0  0  0  0  0
   14.0740   37.3490   10.6870 O   0  0  0  0  0  0
   16.6360   35.9820    9.3970 C   0  0  0  0  0  0
   17.5550   34.9070    9.2300 O   0  0  0  0  0  0
   13.5530   36.7260    8.5810 N   0  0  0  0  0  0
   12.5370   37.7530    8.4010 C   0  0  2  0  0  0
   11.2630   37.4040    9.1730 C   0  0  0  0  0  0
   11.1340   36.3070    9.7470 O   0  0  0  0  0  0
   12.2480   38.0010    6.9110 C   0  0  0  0  0  0
   11.9590   36.7600    6.0990 C   0  0  0  0  0  0
   10.7140   36.1220    6.1750 C   0  0  0  0  0  0
   12.9280   36.2190    5.2570 C   0  0  0  0  0  0
   10.4440   34.9720    5.4300 C   0  0  0  0  0  0
   12.6710   35.0710    4.5090 C   0  0  0  0  0  0
   11.4230   34.4490    4.6020 C   0  0  0  0  0  0
   11.1680   33.3000    3.8830 O   0  0  0  0  0  0
   10.3320   38.3430    9.2110 N   0  0  0  0  0  0
    9.1020   38.1320    9.9510 C   0  0  2  0  0  0
    8.0340   37.3430    9.2030 C   0  0  0  0  0  0
    7.9760   37.3800    7.9730 O   0  0  0  0  0  0
    8.5080   39.4780   10.3500 C   0  0  0  0  0  0
    7.2810   39.2950   11.0200 O   0  0  0  0  0  0
    7.2410   36.5350    9.9400 N   0  0  0  0  0  0
    6.1780   35.7700    9.2820 C   0  0  2  0  0  0
    5.0960   36.7940    8.9500 C   0  0  0  0  0  0
    4.9470   37.7980    9.6490 O   0  0  0  0  0  0
    5.7320   34.7900   10.3690 C   0  0  0  0  0  0
    6.0360   35.5230   11.6380 C   0  0  0  0  0  0
    7.3810   36.1360   11.3530 C   0  0  0  0  0  0
    4.3550   36.5840    7.8670 N   0  0  0  0  0  0
    3.3310   37.5820    7.5690 C   0  0  2  0  0  0
    2.2460   37.5330    8.6260 C   0  0  0  0  0  0
    1.9880   36.4780    9.2120 O   0  0  0  0  0  0
    2.8090   37.1320    6.2070 C   0  0  0  0  0  0
    2.9080   35.6320    6.3030 C   0  0  0  0  0  0
    4.2750   35.4390    6.9450 C   0  0  0  0  0  0
    1.6430   38.6870    8.9400 N   0  0  0  0  0  0
    0.5810   38.7330    9.9470 C   0  0  2  0  0  0
   -0.6560   38.0500    9.3990 C   0  0  0  0  0  0
   -0.7640   37.8280    8.2020 O   0  0  0  0  0  0
    0.3430   40.2320   10.1190 C   0  0  0  0  0  0
    0.6820   40.7810    8.7710 C   0  0  0  0  0  0
    1.9470   40.0330    8.4300 C   0  0  0  0  0  0
   -1.5750   37.6460   10.2750 N   0  0  0  0  0  0
   -2.7910   36.9880    9.7930 C   0  0  2  0  0  0
   -3.4880   37.8680    8.7490 C   0  0  0  0  0  0
   -3.4570   39.1040    8.8390 O   0  0  0  0  0  0
   -3.6190   36.8520   11.0650 C   0  0  0  0  0  0
   -2.5530   36.6530   12.1150 C   0  0  0  0  0  0
   -1.5520   37.7100   11.7450 C   0  0  0  0  0  0
   -4.0850   37.2430    7.7250 N   0  0  0  0  0  0
   -4.7770   37.9900    6.6730 C   0  0  2  0  0  0
   -6.0000   38.7590    7.1750 C   0  0  0  0  0  0
   -6.6030   38.3400    8.1920 O   0  5  0  0  0  0
   -5.1400   36.8990    5.6630 C   0  0  0  0  0  0
   -5.3150   35.6990    6.5210 C   0  0  0  0  0  0
   -4.1650   35.7930    7.4830 C   0  0  0  0  0  0
   -6.3070   39.7980    6.5530 O   0  0  0  0  0  0
   17.5918   26.7322    8.5471 H   0  0  0  0  0  0
   17.1129   26.3018   10.2240 H   0  0  0  0  0  0
   18.0388   27.8094    9.9133 H   0  0  0  0  0  0
   15.8985   28.3544   11.3815 H   0  0  0  0  0  0
   13.4682   28.5961    9.7030 H   0  0  0  0  0  0
   13.3809   28.4500   12.1738 H   0  0  0  0  0  0
   12.5911   29.9577   11.5993 H   0  0  0  0  0  0
   14.2417   30.0211   12.3052 H   0  0  0  0  0  0
   14.4491   32.3216    7.5162 H   0  0  0  0  0  0
   11.6185   33.1882    8.3189 H   0  0  0  0  0  0
   12.4007   33.2929    6.7053 H   0  0  0  0  0  0
   10.6724   31.3363    7.0498 H   0  0  0  0  0  0
   12.2802   30.9065    6.3739 H   0  0  0  0  0  0
   12.1744   29.4412    8.3642 H   0  0  0  0  0  0
   11.3627   30.7126    9.3396 H   0  0  0  0  0  0
   15.2345   34.3742    7.8357 H   0  0  0  0  0  0
   15.2756   35.0155   10.7783 H   0  0  0  0  0  0
   16.5739   36.5434    8.4531 H   0  0  0  0  0  0
   17.0074   36.6437   10.1934 H   0  0  0  0  0  0
   18.6004   35.1144    8.9577 H   0  0  0  0  0  0
   13.7838   36.0309    7.7603 H   0  0  0  0  0  0
   12.9781   38.6625    8.8348 H   0  0  0  0  0  0
   11.3678   38.6532    6.8119 H   0  0  0  0  0  0
   13.1181   38.4860    6.4445 H   0  0  0  0  0  0
    9.9422   36.5305    6.8273 H   0  0  0  0  0  0
   13.9027   36.7010    5.1818 H   0  0  0  0  0  0
    9.4692   34.4894    5.4998 H   0  0  0  0  0  0
   13.4399   34.6604    3.8546 H   0  0  0  0  0  0
   10.1852   32.8115    3.9572 H   0  0  0  0  0  0
   10.4963   39.2898    8.6756 H   0  0  0  0  0  0
    9.4412   37.5289   10.8061 H   0  0  0  0  0  0
    9.2061   40.0032   11.0185 H   0  0  0  0  0  0
    8.3368   40.0849    9.4487 H   0  0  0  0  0  0
    6.7149   40.1672   11.3789 H   0  0  0  0  0  0
    6.4801   35.2445    8.3641 H   0  0  0  0  0  0
    4.6590   34.5772   10.2529 H   0  0  0  0  0  0
    6.3035   33.8547   10.2763 H   0  0  0  0  0  0
    5.2560   36.2764   11.8221 H   0  0  0  0  0  0
    6.0626   34.8105   12.4757 H   0  0  0  0  0  0
    8.2109   35.4207   11.4515 H   0  0  0  0  0  0
    7.5887   37.0252   11.9663 H   0  0  0  0  0  0
    3.7302   38.6070    7.5738 H   0  0  0  0  0  0
    1.7756   37.4851    6.0755 H   0  0  0  0  0  0
    3.4441   37.5529    5.4136 H   0  0  0  0  0  0
    2.0846   35.2492    6.9239 H   0  0  0  0  0  0
    2.8415   35.1949    5.2958 H   0  0  0  0  0  0
    5.1001   35.4940    6.2196 H   0  0  0  0  0  0
    4.3510   34.5021    7.5164 H   0  0  0  0  0  0
    0.8587   38.2152   10.8769 H   0  0  0  0  0  0
   -0.7071   40.4071   10.3957 H   0  0  0  0  0  0
    1.0004   40.6191   10.9114 H   0  0  0  0  0  0
   -0.1416   40.5721    8.0723 H   0  0  0  0  0  0
    0.8331   41.8680    8.8452 H   0  0  0  0  0  0
    2.8361   40.4275    8.9436 H   0  0  0  0  0  0
    2.1416   39.9801    7.3486 H   0  0  0  0  0  0
   -2.5788   36.0251    9.3054 H   0  0  0  0  0  0
   -4.2087   37.7678   11.2183 H   0  0  0  0  0  0
   -4.2969   35.9908   10.9709 H   0  0  0  0  0  0
   -2.9895   36.8025   13.1136 H   0  0  0  0  0  0
   -2.1504   35.6321   12.0399 H   0  0  0  0  0  0
   -0.5366   37.4891   12.1058 H   0  0  0  0  0  0
   -1.8464   38.7179   12.0728 H   0  0  0  0  0  0
   -4.1196   38.7760    6.2730 H   0  0  0  0  0  0
   -6.0629   37.1807    5.1348 H   0  0  0  0  0  0
   -4.3220   36.7850    4.9365 H   0  0  0  0  0  0
   -6.2910   35.7485    7.0259 H   0  0  0  0  0  0
   -5.2698   34.7933    5.8984 H   0  0  0  0  0  0
   -3.2153   35.4398    7.0548 H   0  0  0  0  0  0
   -4.3548   35.2726    8.4333 H   0  0  0  0  0  0
  1  2  2  0  0  0
  1  3  1  0  0  0
  1  4  1  0  0  0
  3 76  1  0  0  0
  3 77  1  0  0  0
  3 78  1  0  0  0
  4  5  1  0  0  0
  4 79  1  0  0  0
  5  6  1  0  0  0
  5  8  1  0  0  0
  5 80  1  0  0  0
  6  7  2  0  0  0
  6  9  1  0  0  0
  8 81  1  0  0  0
  8 82  1  0  0  0
  8 83  1  0  0  0
  9 10  1  0  0  0
  9 15  1  0  0  0
 10 11  1  0  0  0
 10 13  1  0  0  0
 10 84  1  0  0  0
 11 12  2  0  0  0
 11 16  1  0  0  0
 13 14  1  0  0  0
 13 85  1  0  0  0
 13 86  1  0  0  0
 14 15  1  0  0  0
 14 87  1  0  0  0
 14 88  1  0  0  0
 15 89  1  0  0  0
 15 90  1  0  0  0
 16 17  1  0  0  0
 16 91  1  0  0  0
 17 18  1  0  0  0
 17 20  1  0  0  0
 17 92  1  0  0  0
 18 19  2  0  0  0
 18 22  1  0  0  0
 20 21  1  0  0  0
 20 93  1  0  0  0
 20 94  1  0  0  0
 21 95  1  0  0  0
 22 23  1  0  0  0
 22 96  1  0  0  0
 23 24  1  0  0  0
 23 26  1  0  0  0
 23 97  1  0  0  0
 24 25  2  0  0  0
 24 34  1  0  0  0
 26 27  1  0  0  0
 26 98  1  0  0  0
 26 99  1  0  0  0
 27 28  2  0  0  0
 27 29  1  0  0  0
 28 30  1  0  0  0
 28100  1  0  0  0
 29 31  2  0  0  0
 29101  1  0  0  0
 30 32  2  0  0  0
 30102  1  0  0  0
 31 32  1  0  0  0
 31103  1  0  0  0
 32 33  1  0  0  0
 33104  1  0  0  0
 34 35  1  0  0  0
 34105  1  0  0  0
 35 36  1  0  0  0
 35 38  1  0  0  0
 35106  1  0  0  0
 36 37  2  0  0  0
 36 40  1  0  0  0
 38 39  1  0  0  0
 38107  1  0  0  0
 38108  1  0  0  0
 39109  1  0  0  0
 40 41  1  0  0  0
 40 46  1  0  0  0
 41 42  1  0  0  0
 41 44  1  0  0  0
 41110  1  0  0  0
 42 43  2  0  0  0
 42 47  1  0  0  0
 44 45  1  0  0  0
 44111  1  0  0  0
 44112  1  0  0  0
 45 46  1  0  0  0
 45113  1  0  0  0
 45114  1  0  0  0
 46115  1  0  0  0
 46116  1  0  0  0
 47 48  1  0  0  0
 47 53  1  0  0  0
 48 49  1  0  0  0
 48 51  1  0  0  0
 48117  1  0  0  0
 49 50  2  0  0  0
 49 54  1  0  0  0
 51 52  1  0  0  0
 51118  1  0  0  0
 51119  1  0  0  0
 52 53  1  0  0  0
 52120  1  0  0  0
 52121  1  0  0  0
 53122  1  0  0  0
 53123  1  0  0  0
 54 55  1  0  0  0
 54 60  1  0  0  0
 55 56  1  0  0  0
 55 58  1  0  0  0
 55124  1  0  0  0
 56 57  2  0  0  0
 56 61  1  0  0  0
 58 59  1  0  0  0
 58125  1  0  0  0
 58126  1  0  0  0
 59 60  1  0  0  0
 59127  1  0  0  0
 59128  1  0  0  0
 60129  1  0  0  0
 60130  1  0  0  0
 61 62  1  0  0  0
 61 67  1  0  0  0
 62 63  1  0  0  0
 62 65  1  0  0  0
 62131  1  0  0  0
 63 64  2  0  0  0
 63 68  1  0  0  0
 65 66  1  0  0  0
 65132  1  0  0  0
 65133  1  0  0  0
 66 67  1  0  0  0
 66134  1  0  0  0
 66135  1  0  0  0
 67136  1  0  0  0
 67137  1  0  0  0
 68 69  1  0  0  0
 68 74  1  0  0  0
 69 70  1  0  0  0
 69 72  1  0  0  0
 69138  1  0  0  0
 70 71  1  0  0  0
 70 75  2  0  0  0
 72 73  1  0  0  0
 72139  1  0  0  0
 72140  1  0  0  0
 73 74  1  0  0  0
 73141  1  0  0  0
 73142  1  0  0  0
 74143  1  0  0  0
 74144  1  0  0  0
M  CHG  1  71  -1
M  END
> <s_m_source_file>
../1bbz_ligand.sdf

> <i_m_source_file_index>
1

> <s_epik_input>
Tz1DKFtDSDNdKVtOSF1bQ0BASF0oW0NIM10pQyg9TylOMVtDQEBIXShbQ0gyXVtDSDJdW0NIMl0xKUMoPU8pW05IXVtDQEBIXShbQ0gyXVtPSF0pQyg9TylbTkhdW0NAQEhdKFtDSDJdYzJbY0hdW2NIXWMoW09IXSlbY0hdW2NIXTIpQyg9TylbTkhdW0NAQEhdKFtDSDJdW09IXSlDKD1PKU4zW0NAQEhdKFtDSDJdW0NIMl1bQ0gyXTMpQyg9TylONFtDQEBIXShbQ0gyXVtDSDJdW0NIMl00KUMoPU8pTjVbQ0BASF0oW0NIMl1bQ0gyXVtDSDJdNSlDKD1PKU42W0NAQEhdKFtDSDJdW0NIMl1bQ0gyXTYpQyg9TylON1tDQEhdKEMoPU8pW09IXSlbQ0gyXVtDSDJdW0NIMl03

> <s_epik_cmdline>
J2VwaWtfYXBwJywgJy1pbWFlJywgJ2xpZ2FuZF9wcm8ubWFlJywgJy1vbWFlJywgJ2xpZ2FuZF9wcmVwLm1hZScsICctbXMnLCAnMScsICctcGgnLCAnNycsICctcGh0JywgJzAuNScsICctbnQn

> <r_lp_tautomer_probability>
1

> <r_epik_Ionization_Penalty>
  0.0013

> <r_epik_Ionization_Penalty_Charging>
  0.0004

> <r_epik_Ionization_Penalty_Neutral>
  0.0009

> <r_epik_State_Penalty>
 -0.0000

> <r_epik_Charging_Adjusted_Penalty>
0.000364607412312622

> <i_epik_Tot_Q>
-1

> <i_epik_Tot_abs_Q>
1

$$$$
