1bcj_ligand
                    3D
 Schrodinger Suite 2020-3.
 30 30  0  0  1  0            999 V2000
   48.0370   -3.1700   21.2800 C   0  0  2  0  0  0
   46.5930   -3.1570   21.8130 C   0  0  1  0  0  0
   46.5410   -3.9110   23.1570 C   0  0  2  0  0  0
   47.1420   -5.3110   23.0070 C   0  0  2  0  0  0
   48.5440   -5.2160   22.3930 C   0  0  1  0  0  0
   49.1810   -6.5670   22.1330 C   0  0  0  0  0  0
   45.4850   -1.1490   21.0440 C   0  0  0  0  0  0
   45.0800    0.2870   21.3510 C   0  0  0  0  0  0
   46.1600   -1.7860   21.9970 N   0  0  0  0  0  0
   48.0910   -2.5600   20.0400 O   0  0  0  0  0  0
   45.2020   -4.0180   23.6140 O   0  0  0  0  0  0
   46.3060   -6.1070   22.1810 O   0  0  0  0  0  0
   48.4880   -4.5190   21.1290 O   0  0  0  0  0  0
   50.5990   -6.4830   22.1910 O   0  0  0  0  0  0
   45.1780   -1.6630   19.9620 O   0  0  0  0  0  0
   48.7423   -2.6247   21.9244 H   0  0  0  0  0  0
   45.8935   -3.5975   21.0873 H   0  0  0  0  0  0
   47.0601   -3.3412   23.9417 H   0  0  0  0  0  0
   47.1682   -5.8349   23.9739 H   0  0  0  0  0  0
   49.1727   -4.6424   23.0899 H   0  0  0  0  0  0
   48.8395   -7.2857   22.8925 H   0  0  0  0  0  0
   48.8900   -6.9234   21.1339 H   0  0  0  0  0  0
   45.4404    0.5634   22.3529 H   0  0  0  0  0  0
   43.9839    0.3737   21.3188 H   0  0  0  0  0  0
   45.5233    0.9609   20.6031 H   0  0  0  0  0  0
   46.3887   -1.2581   22.9346 H   0  0  0  0  0  0
   49.0504   -2.4796   19.5079 H   0  0  0  0  0  0
   44.6039   -3.1102   23.7818 H   0  0  0  0  0  0
   45.2589   -6.2849   22.4671 H   0  0  0  0  0  0
   51.2105   -7.3819   22.0234 H   0  0  0  0  0  0
  1 13  1  0  0  0
  1 10  1  0  0  0
  1  2  1  0  0  0
  1 16  1  0  0  0
  2  9  1  0  0  0
  2  3  1  0  0  0
  2 17  1  0  0  0
  3 11  1  0  0  0
  3  4  1  0  0  0
  3 18  1  0  0  0
  4 12  1  0  0  0
  4  5  1  0  0  0
  4 19  1  0  0  0
  5 13  1  0  0  0
  5  6  1  0  0  0
  5 20  1  0  0  0
  6 14  1  0  0  0
  6 21  1  0  0  0
  6 22  1  0  0  0
  7  9  1  0  0  0
  7 15  2  0  0  0
  7  8  1  0  0  0
  8 23  1  0  0  0
  8 24  1  0  0  0
  8 25  1  0  0  0
  9 26  1  0  0  0
 10 27  1  0  0  0
 11 28  1  0  0  0
 12 29  1  0  0  0
 14 30  1  0  0  0
M  END
> <s_m_source_file>
../1bcj_ligand.sdf

> <i_m_source_file_index>
1

> <s_epik_input>
W0NIM11DKD1PKVtOSF1bQ0BASF0oW0NAQEhdMVtPSF0pW0NAQEhdKFtPSF0pW0NAQEhdKFtPSF0pW0NASF0oTzEpW0NIMl1bT0hd

> <s_epik_cmdline>
J2VwaWtfYXBwJywgJy1pbWFlJywgJ2xpZ2FuZF9wcm8ubWFlJywgJy1vbWFlJywgJ2xpZ2FuZF9wcmVwLm1hZScsICctbXMnLCAnMScsICctcGgnLCAnNycsICctcGh0JywgJzAuNScsICctbnQn

> <r_lp_tautomer_probability>
1

> <r_epik_Ionization_Penalty>
  0.0000

> <r_epik_Ionization_Penalty_Charging>
  0.0000

> <r_epik_Ionization_Penalty_Neutral>
  0.0000

> <r_epik_State_Penalty>
 -0.0000

> <r_epik_Charging_Adjusted_Penalty>
0

> <i_epik_Tot_Q>
0

> <i_epik_Tot_abs_Q>
0

> <s_epik_Chemistry_Notes>
This compound contains an acetal/aminal-like group ( X-CH(R)-Y where X, Y are N, S, or O) that may be acid/base labile, releasing an aldehyde.

$$$$
