1bdl_ligand
                    3D
 Schrodinger Suite 2020-3.
 80 82  0  0  1  0            999 V2000
  -13.6500   15.0960   42.0230 C   0  0  0  0  0  0
  -13.0110   16.2490   42.7830 C   0  0  0  0  0  0
  -14.5580   14.3960   43.0250 C   0  0  0  0  0  0
  -14.5160   15.6670   40.9040 C   0  0  0  0  0  0
  -12.6090   14.2160   41.6550 O   0  0  0  0  0  0
  -12.3090   13.6110   40.4230 C   0  0  0  0  0  0
  -11.1620   13.7590   39.9980 O   0  0  0  0  0  0
  -13.1870   12.9030   39.7080 N   0  0  0  0  0  0
  -12.8170   12.2760   38.4290 C   0  0  1  0  0  0
  -13.9030   11.2450   38.0990 C   0  0  0  0  0  0
  -13.4030    9.8120   38.2280 C   0  0  0  0  0  0
  -14.0170    8.8020   37.4810 C   0  0  0  0  0  0
  -13.5710    7.4880   37.6000 C   0  0  0  0  0  0
  -12.5130    7.1850   38.4560 C   0  0  0  0  0  0
  -11.9010    8.1870   39.2070 C   0  0  0  0  0  0
  -12.3420    9.5010   39.0930 C   0  0  0  0  0  0
  -12.4860   13.1280   37.1410 C   0  0  1  0  0  0
  -11.2820   12.5710   36.5960 O   0  0  0  0  0  0
  -13.5780   13.1830   36.0370 C   0  0  0  0  0  0
  -13.1420   13.2530   34.5700 C   0  0  1  0  0  0
  -14.4070   13.0000   33.7130 C   0  0  0  0  0  0
  -14.2220   13.1810   32.2030 C   0  0  0  0  0  0
  -14.8930   14.2080   31.5350 C   0  0  0  0  0  0
  -14.7020   14.3900   30.1680 C   0  0  0  0  0  0
  -13.8480   13.5420   29.4700 C   0  0  0  0  0  0
  -13.1750   12.5190   30.1290 C   0  0  0  0  0  0
  -13.3650   12.3340   31.4920 C   0  0  0  0  0  0
  -12.4650   14.5780   34.2000 C   0  0  0  0  0  0
  -12.8250   15.6470   34.7020 O   0  0  0  0  0  0
  -11.4980   14.5200   33.2920 N   0  0  0  0  0  0
  -10.7480   15.6810   32.7980 C   0  0  1  0  0  0
   -9.3160   15.7850   33.4010 C   0  0  0  0  0  0
   -9.3890   15.8910   34.9160 C   0  0  0  0  0  0
  -10.6210   15.4560   31.2890 C   0  0  0  0  0  0
   -9.7840   14.5510   30.8120 N   0  0  0  0  0  0
   -9.9720   14.5780   29.4460 C   0  0  0  0  0  0
  -10.9460   15.5330   29.1670 C   0  0  0  0  0  0
  -11.3380   16.0690   30.3710 N   0  0  0  0  0  0
   -8.6165   17.0357   32.8370 C   0  0  0  0  0  0
  -13.7901   16.9622   43.0902 H   0  0  0  0  0  0
  -12.2836   16.7579   42.1335 H   0  0  0  0  0  0
  -12.4974   15.8604   43.6747 H   0  0  0  0  0  0
  -15.3728   15.0745   43.3178 H   0  0  0  0  0  0
  -13.9753   14.1171   43.9153 H   0  0  0  0  0  0
  -14.9818   13.4908   42.5657 H   0  0  0  0  0  0
  -15.2801   16.3311   41.3343 H   0  0  0  0  0  0
  -15.0073   14.8440   40.3643 H   0  0  0  0  0  0
  -13.8849   16.2376   40.2068 H   0  0  0  0  0  0
  -14.2097   12.7945   40.0982 H   0  0  0  0  0  0
  -11.8329   11.8841   38.7255 H   0  0  0  0  0  0
  -14.7507   11.3719   38.7885 H   0  0  0  0  0  0
  -14.2465   11.3926   37.0645 H   0  0  0  0  0  0
  -14.8408    9.0419   36.8087 H   0  0  0  0  0  0
  -14.0493    6.6961   37.0236 H   0  0  0  0  0  0
  -12.1617    6.1565   38.5385 H   0  0  0  0  0  0
  -11.0801    7.9418   39.8809 H   0  0  0  0  0  0
  -11.8641   10.2890   39.6750 H   0  0  0  0  0  0
  -12.3162   14.1781   37.4210 H   0  0  0  0  0  0
  -10.3932   12.4526   37.2332 H   0  0  0  0  0  0
  -14.2060   12.2819   36.0973 H   0  0  0  0  0  0
  -14.2031   14.0761   36.1838 H   0  0  0  0  0  0
  -12.3666   12.4942   34.3883 H   0  0  0  0  0  0
  -14.7511   11.9661   33.8635 H   0  0  0  0  0  0
  -15.2009   13.6984   34.0161 H   0  0  0  0  0  0
  -15.5660   14.8667   32.0839 H   0  0  0  0  0  0
  -15.2201   15.1946   29.6461 H   0  0  0  0  0  0
  -13.7053   13.6806   28.3983 H   0  0  0  0  0  0
  -12.5004   11.8643   29.5773 H   0  0  0  0  0  0
  -12.8454   11.5273   32.0090 H   0  0  0  0  0  0
  -11.2102   13.5519   32.8560 H   0  0  0  0  0  0
   -8.7367   14.8840   33.1507 H   0  0  0  0  0  0
   -9.8882   14.9990   35.3223 H   0  0  0  0  0  0
   -9.9600   16.7892   35.1936 H   0  0  0  0  0  0
   -8.3715   15.9614   35.3281 H   0  0  0  0  0  0
   -9.4504   13.9610   28.7144 H   0  0  0  0  0  0
  -11.4031   15.8885   28.2318 H   0  0  0  0  0  0
   -8.5619   16.9623   31.7408 H   0  0  0  0  0  0
   -7.5997   17.1051   33.2509 H   0  0  0  0  0  0
   -9.1882   17.9329   33.1165 H   0  0  0  0  0  0
   -9.1404   13.9812   31.4984 H   0  0  0  0  0  0
  1  2  1  0  0  0
  1  3  1  0  0  0
  1  4  1  0  0  0
  1  5  1  0  0  0
  2 40  1  0  0  0
  2 41  1  0  0  0
  2 42  1  0  0  0
  3 43  1  0  0  0
  3 44  1  0  0  0
  3 45  1  0  0  0
  4 46  1  0  0  0
  4 47  1  0  0  0
  4 48  1  0  0  0
  5  6  1  0  0  0
  6  7  2  0  0  0
  6  8  1  0  0  0
  8  9  1  0  0  0
  8 49  1  0  0  0
  9 10  1  0  0  0
  9 17  1  0  0  0
  9 50  1  0  0  0
 10 11  1  0  0  0
 10 51  1  0  0  0
 10 52  1  0  0  0
 11 12  2  0  0  0
 11 16  1  0  0  0
 12 13  1  0  0  0
 12 53  1  0  0  0
 13 14  2  0  0  0
 13 54  1  0  0  0
 14 15  1  0  0  0
 14 55  1  0  0  0
 15 16  2  0  0  0
 15 56  1  0  0  0
 16 57  1  0  0  0
 17 18  1  0  0  0
 17 19  1  0  0  0
 17 58  1  0  0  0
 18 59  1  0  0  0
 19 20  1  0  0  0
 19 60  1  0  0  0
 19 61  1  0  0  0
 20 21  1  0  0  0
 20 28  1  0  0  0
 20 62  1  0  0  0
 21 22  1  0  0  0
 21 63  1  0  0  0
 21 64  1  0  0  0
 22 23  2  0  0  0
 22 27  1  0  0  0
 23 24  1  0  0  0
 23 65  1  0  0  0
 24 25  2  0  0  0
 24 66  1  0  0  0
 25 26  1  0  0  0
 25 67  1  0  0  0
 26 27  2  0  0  0
 26 68  1  0  0  0
 27 69  1  0  0  0
 28 29  2  0  0  0
 28 30  1  0  0  0
 30 31  1  0  0  0
 30 70  1  0  0  0
 31 32  1  0  0  0
 31 34  2  0  0  0
 32 33  1  0  0  0
 32 39  1  0  0  0
 32 71  1  0  0  0
 33 72  1  0  0  0
 33 73  1  0  0  0
 33 74  1  0  0  0
 34 35  1  0  0  0
 34 38  1  0  0  0
 35 36  1  0  0  0
 35 80  1  0  0  0
 36 37  1  0  0  0
 36 75  1  0  0  0
 37 38  2  0  0  0
 37 76  1  0  0  0
 39 77  1  0  0  0
 39 78  1  0  0  0
 39 79  1  0  0  0
M  END
> <s_m_source_file>
../1bdl_ligand.sdf

> <i_m_source_file_index>
1

> <s_epik_input>
W2NIXTFbY0hdW2NIXVtjSF1bY0hdYzFbQ0gyXVtDQEhdKFtOSF1DKD1PKU9DKFtDSDNdKShbQ0gzXSlbQ0gzXSlbQ0BASF0oW09IXSlbQ0gyXVtDQEBIXShbQ0gyXWMyW2NIXVtjSF1bY0hdW2NIXVtjSF0yKUMoPU8pW05IXVtDQEBIXShbQ0hdKFtDSDNdKVtDSDNdKUMzPU5bQ0gyXVtDSF09TjM=

> <s_epik_cmdline>
J2VwaWtfYXBwJywgJy1pbWFlJywgJ2xpZ2FuZF9wcm8ubWFlJywgJy1vbWFlJywgJ2xpZ2FuZF9wcmVwLm1hZScsICctbXMnLCAnMScsICctcGgnLCAnNycsICctcGh0JywgJzAuNScsICctbnQn

> <r_lp_tautomer_probability>
1

> <r_epik_Ionization_Penalty>
  0.0000

> <r_epik_Ionization_Penalty_Charging>
  0.0000

> <r_epik_Ionization_Penalty_Neutral>
  0.0000

> <r_epik_State_Penalty>
 -0.0000

> <r_epik_Charging_Adjusted_Penalty>
0

> <i_epik_Tot_Q>
0

> <i_epik_Tot_abs_Q>
0

> <s_epik_Chemistry_Notes>
This compound has an ester and may undergo hydrolysis at high or low pH. This compound has an imine and may undergo hydrolysis.

$$$$
