1bdq_ligand
                    3D
 Schrodinger Suite 2020-3.
 80 82  0  0  1  0            999 V2000
  -10.6520   15.6080   33.1220 C   0  0  0  0  0  0
  -12.1320   15.3120   32.9150 C   0  0  0  0  0  0
   -9.8390   14.3680   33.4500 C   0  0  0  0  0  0
  -10.5140   16.5010   34.3430 C   0  0  0  0  0  0
  -10.0810   15.7520   30.7350 C   0  0  0  0  0  0
  -11.0340   15.6200   28.4770 C   0  0  1  0  0  0
  -12.4740   15.3050   28.0710 C   0  0  0  0  0  0
  -13.0690   14.1930   28.9300 C   0  0  0  0  0  0
  -14.0650   14.4900   29.8700 C   0  0  0  0  0  0
  -14.5900   13.4580   30.6480 C   0  0  0  0  0  0
  -14.1380   12.1430   30.5000 C   0  0  0  0  0  0
  -13.1560   11.8530   29.5700 C   0  0  0  0  0  0
  -12.6200   12.8700   28.7860 C   0  0  0  0  0  0
  -10.4210   16.7000   27.5410 C   0  0  2  0  0  0
   -8.9600   16.8980   27.8650 C   0  0  0  0  0  0
   -8.1280   17.6210   26.8790 C   0  0  1  0  0  0
   -6.7630   17.8950   27.5820 C   0  0  0  0  0  0
   -5.5980   18.0140   26.6140 C   0  0  0  0  0  0
   -5.5060   19.1210   25.7610 C   0  0  0  0  0  0
   -4.5030   19.1510   24.8050 C   0  0  0  0  0  0
   -3.6020   18.0940   24.6950 C   0  0  0  0  0  0
   -3.6960   16.9950   25.5380 C   0  0  0  0  0  0
   -4.6910   16.9510   26.5000 C   0  0  0  0  0  0
   -8.0190   16.7770   25.6070 C   0  0  0  0  0  0
   -8.1050   16.7030   23.1800 C   0  0  1  0  0  0
   -9.4460   16.6830   22.4220 C   0  0  0  0  0  0
  -10.5120   15.9660   23.2260 C   0  0  0  0  0  0
   -7.0610   17.4910   22.3880 C   0  0  0  0  0  0
   -5.2960   17.7920   21.1950 C   0  0  0  0  0  0
   -5.8430   19.0150   21.5680 C   0  0  0  0  0  0
  -11.0090   16.1020   29.8520 N   0  0  0  0  0  0
   -8.2020   17.4050   24.4550 N   0  0  0  0  0  0
   -6.1220   16.8400   21.7460 N   0  0  0  0  0  0
   -6.9820   18.8040   22.3280 N   0  0  0  0  0  0
   -9.1690   14.9890   30.4220 O   0  0  0  0  0  0
  -11.0130   18.0050   27.7150 O   0  0  0  0  0  0
   -7.7480   15.5820   25.6600 O   0  0  0  0  0  0
  -10.1180   16.2780   32.0270 O   0  0  0  0  0  0
   -9.2544   15.9562   21.0779 C   0  0  0  0  0  0
  -12.6636   16.2463   32.6817 H   0  0  0  0  0  0
  -12.5497   14.8718   33.8325 H   0  0  0  0  0  0
  -12.2513   14.6042   32.0814 H   0  0  0  0  0  0
   -8.7839   14.6471   33.5872 H   0  0  0  0  0  0
   -9.9229   13.6456   32.6247 H   0  0  0  0  0  0
  -10.2213   13.9132   34.3757 H   0  0  0  0  0  0
   -9.4512   16.7286   34.5125 H   0  0  0  0  0  0
  -10.9233   15.9840   35.2235 H   0  0  0  0  0  0
  -11.0675   17.4370   34.1771 H   0  0  0  0  0  0
  -10.4391   14.6951   28.4525 H   0  0  0  0  0  0
  -13.0940   16.2057   28.1906 H   0  0  0  0  0  0
  -12.4962   14.9815   27.0199 H   0  0  0  0  0  0
  -14.4241   15.5120   29.9914 H   0  0  0  0  0  0
  -15.3643   13.6800   31.3824 H   0  0  0  0  0  0
  -14.5586   11.3483   31.1161 H   0  0  0  0  0  0
  -12.8024   10.8288   29.4514 H   0  0  0  0  0  0
  -11.8458   12.6382   28.0546 H   0  0  0  0  0  0
  -10.6066   16.3932   26.5011 H   0  0  0  0  0  0
   -8.8660   17.4728   28.7981 H   0  0  0  0  0  0
   -8.4755   15.9181   27.9876 H   0  0  0  0  0  0
   -8.5980   18.5675   26.5737 H   0  0  0  0  0  0
   -6.8229   18.8388   28.1439 H   0  0  0  0  0  0
   -6.5346   17.0705   28.2734 H   0  0  0  0  0  0
   -6.2125   19.9465   25.8477 H   0  0  0  0  0  0
   -4.4186   20.0067   24.1351 H   0  0  0  0  0  0
   -2.8163   18.1303   23.9404 H   0  0  0  0  0  0
   -2.9896   16.1703   25.4430 H   0  0  0  0  0  0
   -4.7689   16.0923   27.1668 H   0  0  0  0  0  0
   -9.7850   17.7174   22.2637 H   0  0  0  0  0  0
  -10.6538   16.4804   24.1879 H   0  0  0  0  0  0
  -10.1975   14.9278   23.4083 H   0  0  0  0  0  0
  -11.4584   15.9694   22.6653 H   0  0  0  0  0  0
   -4.4199   17.4850   20.6048 H   0  0  0  0  0  0
   -5.4372   19.9913   21.3027 H   0  0  0  0  0  0
  -11.7873   16.7938   30.2065 H   0  0  0  0  0  0
   -8.4330   18.4804   24.4455 H   0  0  0  0  0  0
  -12.0895   18.1484   27.5400 H   0  0  0  0  0  0
   -8.4815   16.4719   20.4891 H   0  0  0  0  0  0
  -10.2029   15.9596   20.5208 H   0  0  0  0  0  0
   -8.9420   14.9180   21.2637 H   0  0  0  0  0  0
   -7.7397   19.4241   22.8293 H   0  0  0  0  0  0
  1 38  1  0  0  0
  1  4  1  0  0  0
  1  3  1  0  0  0
  1  2  1  0  0  0
  2 40  1  0  0  0
  2 41  1  0  0  0
  2 42  1  0  0  0
  3 43  1  0  0  0
  3 44  1  0  0  0
  3 45  1  0  0  0
  4 46  1  0  0  0
  4 47  1  0  0  0
  4 48  1  0  0  0
  5 38  1  0  0  0
  5 35  2  0  0  0
  5 31  1  0  0  0
  6 31  1  0  0  0
  6 14  1  0  0  0
  6  7  1  0  0  0
  6 49  1  0  0  0
  7  8  1  0  0  0
  7 50  1  0  0  0
  7 51  1  0  0  0
  8 13  2  0  0  0
  8  9  1  0  0  0
  9 10  2  0  0  0
  9 52  1  0  0  0
 10 11  1  0  0  0
 10 53  1  0  0  0
 11 12  2  0  0  0
 11 54  1  0  0  0
 12 13  1  0  0  0
 12 55  1  0  0  0
 13 56  1  0  0  0
 14 36  1  0  0  0
 14 15  1  0  0  0
 14 57  1  0  0  0
 15 16  1  0  0  0
 15 58  1  0  0  0
 15 59  1  0  0  0
 16 24  1  0  0  0
 16 17  1  0  0  0
 16 60  1  0  0  0
 17 18  1  0  0  0
 17 61  1  0  0  0
 17 62  1  0  0  0
 18 23  2  0  0  0
 18 19  1  0  0  0
 19 20  2  0  0  0
 19 63  1  0  0  0
 20 21  1  0  0  0
 20 64  1  0  0  0
 21 22  2  0  0  0
 21 65  1  0  0  0
 22 23  1  0  0  0
 22 66  1  0  0  0
 23 67  1  0  0  0
 24 37  2  0  0  0
 24 32  1  0  0  0
 25 32  1  0  0  0
 25 28  2  0  0  0
 25 26  1  0  0  0
 26 27  1  0  0  0
 26 39  1  0  0  0
 26 68  1  0  0  0
 27 69  1  0  0  0
 27 70  1  0  0  0
 27 71  1  0  0  0
 28 34  1  0  0  0
 28 33  1  0  0  0
 29 33  2  0  0  0
 29 30  1  0  0  0
 29 72  1  0  0  0
 30 34  1  0  0  0
 30 73  1  0  0  0
 31 74  1  0  0  0
 32 75  1  0  0  0
 34 80  1  0  0  0
 36 76  1  0  0  0
 39 77  1  0  0  0
 39 78  1  0  0  0
 39 79  1  0  0  0
M  END
> <s_m_source_file>
../1bdq_ligand.sdf

> <i_m_source_file_index>
1

> <s_epik_input>
W2NIXTFbY0hdW2NIXVtjSF1bY0hdYzFbQ0gyXVtDQEhdKFtOSF1DKD1PKU9DKFtDSDNdKShbQ0gzXSlbQ0gzXSlbQ0BASF0oW09IXSlbQ0gyXVtDQEBIXShbQ0gyXWMyW2NIXVtjSF1bY0hdW2NIXVtjSF0yKUMoPU8pW05IXVtDQEBIXShbQ0hdKFtDSDNdKVtDSDNdKUMzPU5bQ0gyXVtDSF09TjM=

> <s_epik_cmdline>
J2VwaWtfYXBwJywgJy1pbWFlJywgJ2xpZ2FuZF9wcm8ubWFlJywgJy1vbWFlJywgJ2xpZ2FuZF9wcmVwLm1hZScsICctbXMnLCAnMScsICctcGgnLCAnNycsICctcGh0JywgJzAuNScsICctbnQn

> <r_lp_tautomer_probability>
1

> <r_epik_Ionization_Penalty>
  0.0000

> <r_epik_Ionization_Penalty_Charging>
  0.0000

> <r_epik_Ionization_Penalty_Neutral>
  0.0000

> <r_epik_State_Penalty>
 -0.0000

> <r_epik_Charging_Adjusted_Penalty>
0

> <i_epik_Tot_Q>
0

> <i_epik_Tot_abs_Q>
0

> <s_epik_Chemistry_Notes>
This compound has an ester and may undergo hydrolysis at high or low pH. This compound has an imine and may undergo hydrolysis.

$$$$
