1bdr_ligand
                    3D
 Schrodinger Suite 2020-3.
 80 82  0  0  1  0            999 V2000
   -9.8070   15.3220   33.3160 C   0  0  0  0  0  0
   -9.6100   13.8200   33.4420 C   0  0  0  0  0  0
   -8.4700   16.0600   33.3520 C   0  0  0  0  0  0
  -10.6140   15.7290   34.5360 C   0  0  0  0  0  0
  -10.5930   15.6350   32.2000 O   0  0  0  0  0  0
  -10.2920   15.3650   30.8580 C   0  0  0  0  0  0
   -9.2790   14.7630   30.5140 O   0  0  0  0  0  0
  -11.1550   15.7980   29.9440 N   0  0  0  0  0  0
  -10.9860   15.6030   28.5060 C   0  0  1  0  0  0
  -12.3440   15.2230   27.9240 C   0  0  0  0  0  0
  -12.8150   13.9680   28.6100 C   0  0  0  0  0  0
  -12.3310   12.7330   28.1900 C   0  0  0  0  0  0
  -12.6990   11.5860   28.8860 C   0  0  0  0  0  0
  -13.5380   11.6830   29.9920 C   0  0  0  0  0  0
  -14.0300   12.9210   30.4110 C   0  0  0  0  0  0
  -13.6690   14.0720   29.7150 C   0  0  0  0  0  0
  -10.3880   16.8070   27.7260 C   0  0  1  0  0  0
  -11.0810   18.0460   28.0080 O   0  0  0  0  0  0
   -8.9680   17.0680   28.0790 C   0  0  0  0  0  0
   -8.2310   17.6990   26.9490 C   0  0  1  0  0  0
   -6.9480   18.2370   27.6060 C   0  0  0  0  0  0
   -5.6410   18.2050   26.8190 C   0  0  0  0  0  0
   -5.3740   19.1550   25.8290 C   0  0  0  0  0  0
   -4.1700   19.0980   25.1430 C   0  0  0  0  0  0
   -3.2380   18.1100   25.4370 C   0  0  0  0  0  0
   -3.5000   17.1680   26.4200 C   0  0  0  0  0  0
   -4.7040   17.2110   27.1140 C   0  0  0  0  0  0
   -7.9950   16.7030   25.8020 C   0  0  0  0  0  0
   -7.8430   15.4890   25.9730 O   0  0  0  0  0  0
   -7.9590   17.2590   24.6020 N   0  0  0  0  0  0
   -7.7210   16.5210   23.3690 C   0  0  1  0  0  0
   -9.0260   16.2300   22.5970 C   0  0  0  0  0  0
   -8.7650   15.9230   21.1390 C   0  0  0  0  0  0
   -9.6260   14.9380   23.1210 C   0  0  0  0  0  0
   -6.8260   17.4830   22.5930 C   0  0  0  0  0  0
   -6.8490   18.8050   22.6390 N   0  0  0  0  0  0
   -5.7660   19.1670   21.8710 C   0  0  0  0  0  0
   -5.1420   18.0180   21.3920 C   0  0  0  0  0  0
   -5.8650   16.9570   21.8810 N   0  0  0  0  0  0
   -8.9905   13.6043   34.3250 H   0  0  0  0  0  0
   -9.1084   13.4391   32.5402 H   0  0  0  0  0  0
  -10.5886   13.3298   33.5520 H   0  0  0  0  0  0
   -7.9119   15.7640   34.2525 H   0  0  0  0  0  0
   -8.6505   17.1449   33.3726 H   0  0  0  0  0  0
   -7.8849   15.8025   32.4568 H   0  0  0  0  0  0
  -10.0401   15.5039   35.4470 H   0  0  0  0  0  0
  -11.5614   15.1702   34.5520 H   0  0  0  0  0  0
  -10.8252   16.8077   34.4928 H   0  0  0  0  0  0
  -12.0379   16.3308   30.3268 H   0  0  0  0  0  0
  -10.2460   14.7913   28.4455 H   0  0  0  0  0  0
  -13.0592   16.0404   28.0982 H   0  0  0  0  0  0
  -12.2435   15.0479   26.8427 H   0  0  0  0  0  0
  -11.6709   12.6649   27.3253 H   0  0  0  0  0  0
  -12.3303   10.6117   28.5651 H   0  0  0  0  0  0
  -13.8147   10.7812   30.5382 H   0  0  0  0  0  0
  -14.6909   12.9859   31.2754 H   0  0  0  0  0  0
  -14.0478   15.0451   30.0275 H   0  0  0  0  0  0
  -10.4858   16.5827   26.6536 H   0  0  0  0  0  0
  -12.1639   18.1232   27.8306 H   0  0  0  0  0  0
   -8.9239   17.7455   28.9445 H   0  0  0  0  0  0
   -8.4723   16.1188   28.3307 H   0  0  0  0  0  0
   -8.8100   18.5053   26.4751 H   0  0  0  0  0  0
   -7.0860   19.2969   27.8662 H   0  0  0  0  0  0
   -6.7335   17.6605   28.5180 H   0  0  0  0  0  0
   -6.1035   19.9315   25.5989 H   0  0  0  0  0  0
   -3.9533   19.8332   24.3680 H   0  0  0  0  0  0
   -2.2950   18.0754   24.8913 H   0  0  0  0  0  0
   -2.7646   16.3964   26.6479 H   0  0  0  0  0  0
   -4.9165   16.4715   27.8860 H   0  0  0  0  0  0
   -8.1143   18.3425   24.4930 H   0  0  0  0  0  0
   -9.6763   17.1105   22.7061 H   0  0  0  0  0  0
   -8.3226   16.8046   20.6522 H   0  0  0  0  0  0
   -9.7128   15.6671   20.6428 H   0  0  0  0  0  0
   -8.0698   15.0740   21.0618 H   0  0  0  0  0  0
   -9.8586   15.0490   24.1904 H   0  0  0  0  0  0
   -8.9056   14.1178   22.9857 H   0  0  0  0  0  0
  -10.5486   14.7109   22.5667 H   0  0  0  0  0  0
   -5.4475   20.1898   21.6698 H   0  0  0  0  0  0
   -4.2624   17.8379   20.7565 H   0  0  0  0  0  0
   -7.6328   19.3218   23.2122 H   0  0  0  0  0  0
  1  2  1  0  0  0
  1  3  1  0  0  0
  1  4  1  0  0  0
  1  5  1  0  0  0
  2 40  1  0  0  0
  2 41  1  0  0  0
  2 42  1  0  0  0
  3 43  1  0  0  0
  3 44  1  0  0  0
  3 45  1  0  0  0
  4 46  1  0  0  0
  4 47  1  0  0  0
  4 48  1  0  0  0
  5  6  1  0  0  0
  6  7  2  0  0  0
  6  8  1  0  0  0
  8  9  1  0  0  0
  8 49  1  0  0  0
  9 10  1  0  0  0
  9 17  1  0  0  0
  9 50  1  0  0  0
 10 11  1  0  0  0
 10 51  1  0  0  0
 10 52  1  0  0  0
 11 12  2  0  0  0
 11 16  1  0  0  0
 12 13  1  0  0  0
 12 53  1  0  0  0
 13 14  2  0  0  0
 13 54  1  0  0  0
 14 15  1  0  0  0
 14 55  1  0  0  0
 15 16  2  0  0  0
 15 56  1  0  0  0
 16 57  1  0  0  0
 17 18  1  0  0  0
 17 19  1  0  0  0
 17 58  1  0  0  0
 18 59  1  0  0  0
 19 20  1  0  0  0
 19 60  1  0  0  0
 19 61  1  0  0  0
 20 21  1  0  0  0
 20 28  1  0  0  0
 20 62  1  0  0  0
 21 22  1  0  0  0
 21 63  1  0  0  0
 21 64  1  0  0  0
 22 23  2  0  0  0
 22 27  1  0  0  0
 23 24  1  0  0  0
 23 65  1  0  0  0
 24 25  2  0  0  0
 24 66  1  0  0  0
 25 26  1  0  0  0
 25 67  1  0  0  0
 26 27  2  0  0  0
 26 68  1  0  0  0
 27 69  1  0  0  0
 28 29  2  0  0  0
 28 30  1  0  0  0
 30 31  1  0  0  0
 30 70  1  0  0  0
 31 32  1  0  0  0
 31 35  2  0  0  0
 32 33  1  0  0  0
 32 34  1  0  0  0
 32 71  1  0  0  0
 33 72  1  0  0  0
 33 73  1  0  0  0
 33 74  1  0  0  0
 34 75  1  0  0  0
 34 76  1  0  0  0
 34 77  1  0  0  0
 35 36  1  0  0  0
 35 39  1  0  0  0
 36 37  1  0  0  0
 36 80  1  0  0  0
 37 38  1  0  0  0
 37 78  1  0  0  0
 38 39  2  0  0  0
 38 79  1  0  0  0
M  END
> <s_m_source_file>
../1bdr_ligand.sdf

> <i_m_source_file_index>
1

> <s_epik_input>
W2NIXTFbY0hdW2NIXVtjSF1bY0hdYzFbQ0gyXVtDQEhdKFtOSF1DKD1PKU9DKFtDSDNdKShbQ0gzXSlbQ0gzXSlbQ0BASF0oW09IXSlbQ0gyXVtDQEBIXShbQ0gyXWMyW2NIXVtjSF1bY0hdW2NIXVtjSF0yKUMoPU8pW05IXVtDQEBIXShbQ0hdKFtDSDNdKVtDSDNdKUMzPU5bQ0gyXVtDSF09TjM=

> <s_epik_cmdline>
J2VwaWtfYXBwJywgJy1pbWFlJywgJ2xpZ2FuZF9wcm8ubWFlJywgJy1vbWFlJywgJ2xpZ2FuZF9wcmVwLm1hZScsICctbXMnLCAnMScsICctcGgnLCAnNycsICctcGh0JywgJzAuNScsICctbnQn

> <r_lp_tautomer_probability>
1

> <r_epik_Ionization_Penalty>
  0.0000

> <r_epik_Ionization_Penalty_Charging>
  0.0000

> <r_epik_Ionization_Penalty_Neutral>
  0.0000

> <r_epik_State_Penalty>
 -0.0000

> <r_epik_Charging_Adjusted_Penalty>
0

> <i_epik_Tot_Q>
0

> <i_epik_Tot_abs_Q>
0

> <s_epik_Chemistry_Notes>
This compound has an ester and may undergo hydrolysis at high or low pH. This compound has an imine and may undergo hydrolysis.

$$$$
