1bhf_ligand
                    3D
 Schrodinger Suite 2020-3.
 81 81  0  0  1  0            999 V2000
   27.6390   -3.7340   -1.7180 C   0  0  0  0  0  0
   28.2180   -4.1110   -0.6940 O   0  0  0  0  0  0
   27.6430   -4.6120   -2.9520 C   0  0  0  0  0  0
   26.9090   -2.6180   -1.7950 N   0  0  0  0  0  0
   26.8160   -1.6200   -0.7320 C   0  0  1  0  0  0
   27.3020   -0.2740   -1.2730 C   0  0  0  0  0  0
   28.7740   -0.2820   -1.5270 C   0  0  0  0  0  0
   29.6750   -0.2880   -0.4600 C   0  0  0  0  0  0
   31.0600   -0.3520   -0.6900 C   0  0  0  0  0  0
   29.2780   -0.3380   -2.8210 C   0  0  0  0  0  0
   30.6650   -0.4050   -3.0430 C   0  0  0  0  0  0
   31.5700   -0.4150   -1.9850 C   0  0  0  0  0  0
   33.0620   -0.5450   -2.2370 C   0  0  0  0  0  0
   33.8610   -0.9830   -1.0180 C   0  0  0  0  0  0
   33.5870   -2.0610   -0.4540 O   0  5  0  0  0  0
   34.7620   -0.2370   -0.5980 O   0  0  0  0  0  0
   25.4310   -1.4430   -0.1020 C   0  0  0  0  0  0
   24.4480   -1.1160   -0.7770 O   0  0  0  0  0  0
   25.3810   -1.6540    1.2010 N   0  0  0  0  0  0
   24.1590   -1.5130    1.9680 C   0  0  2  0  0  0
   23.8810   -0.0050    2.0920 C   0  0  0  0  0  0
   24.8030    0.8160    2.0170 O   0  0  0  0  0  0
   24.3850   -2.1560    3.3330 C   0  0  0  0  0  0
   23.1690   -2.3880    4.1900 C   0  0  0  0  0  0
   22.2020   -3.4460    3.6450 C   0  0  0  0  0  0
   22.4490   -4.0610    2.5940 O   0  5  0  0  0  0
   21.1720   -3.6520    4.2990 O   0  0  0  0  0  0
   22.6140    0.3660    2.2340 N   0  0  0  0  0  0
   22.2640    1.7710    2.3640 C   0  0  2  0  0  0
   21.3300    1.9310    3.5540 C   0  0  0  0  0  0
   20.7540    0.9580    4.0570 O   0  0  0  0  0  0
   21.5260    2.2980    1.1140 C   0  0  0  0  0  0
   22.2080    2.1130   -0.2250 C   0  0  0  0  0  0
   23.4140    3.0300   -0.4660 C   0  0  0  0  0  0
   23.7180    3.9120    0.3580 O   0  5  0  0  0  0
   24.0630    2.8480   -1.5050 O   0  0  0  0  0  0
   21.2330    3.1670    4.0250 N   0  0  0  0  0  0
   20.3300    3.5070    5.1040 C   0  0  2  0  0  0
   18.9680    3.7500    4.3940 C   0  0  0  0  0  0
   18.9640    4.3350    3.2920 O   0  0  0  0  0  0
   20.8310    4.7620    5.8580 C   0  0  2  0  0  0
   21.9400    4.3630    6.8260 C   0  0  0  0  0  0
   19.6850    5.4810    6.5640 C   0  0  0  0  0  0
   22.5100    5.5200    7.6340 C   0  0  0  0  0  0
   17.9340    3.2380    4.8710 O   0  5  0  0  0  0
   28.2734   -5.4952   -2.7715 H   0  0  0  0  0  0
   28.0431   -4.0440   -3.8048 H   0  0  0  0  0  0
   26.6154   -4.9345   -3.1759 H   0  0  0  0  0  0
   26.3552   -2.4741   -2.7345 H   0  0  0  0  0  0
   27.4637   -2.0419    0.0507 H   0  0  0  0  0  0
   26.7877   -0.0521   -2.2197 H   0  0  0  0  0  0
   27.0805    0.5169   -0.5413 H   0  0  0  0  0  0
   29.2999   -0.2425    0.5624 H   0  0  0  0  0  0
   31.7455   -0.3524    0.1575 H   0  0  0  0  0  0
   28.5937   -0.3299   -3.6694 H   0  0  0  0  0  0
   31.0397   -0.4501   -4.0656 H   0  0  0  0  0  0
   33.2370   -1.2924   -3.0249 H   0  0  0  0  0  0
   33.4658    0.4268   -2.5572 H   0  0  0  0  0  0
   26.3148   -1.9472    1.7031 H   0  0  0  0  0  0
   23.3307   -2.0255    1.4569 H   0  0  0  0  0  0
   24.8458   -3.1460    3.2002 H   0  0  0  0  0  0
   25.0516   -1.5188    3.9327 H   0  0  0  0  0  0
   23.4833   -2.7250    5.1888 H   0  0  0  0  0  0
   22.6005   -1.4507    4.2813 H   0  0  0  0  0  0
   21.8259   -0.4012    2.2528 H   0  0  0  0  0  0
   23.2230    2.2919    2.5018 H   0  0  0  0  0  0
   20.5548    1.7900    1.0202 H   0  0  0  0  0  0
   21.3649    3.3816    1.2129 H   0  0  0  0  0  0
   22.5743    1.0793   -0.3102 H   0  0  0  0  0  0
   21.4899    2.3153   -1.0333 H   0  0  0  0  0  0
   21.8647    3.9446    3.5708 H   0  0  0  0  0  0
   20.3003    2.6871    5.8368 H   0  0  0  0  0  0
   21.2484    5.4874    5.1442 H   0  0  0  0  0  0
   21.5513    3.6277    7.5459 H   0  0  0  0  0  0
   22.7753    3.9198    6.2641 H   0  0  0  0  0  0
   18.9117    5.7484    5.8289 H   0  0  0  0  0  0
   20.0658    6.3944    7.0444 H   0  0  0  0  0  0
   19.2515    4.8185    7.3276 H   0  0  0  0  0  0
   23.2995    5.1464    8.3027 H   0  0  0  0  0  0
   21.7092    5.9788    8.2326 H   0  0  0  0  0  0
   22.9332    6.2710    6.9507 H   0  0  0  0  0  0
  1  2  2  0  0  0
  1  3  1  0  0  0
  1  4  1  0  0  0
  3 46  1  0  0  0
  3 47  1  0  0  0
  3 48  1  0  0  0
  4  5  1  0  0  0
  4 49  1  0  0  0
  5 17  1  0  0  0
  5  6  1  0  0  0
  5 50  1  0  0  0
  6  7  1  0  0  0
  6 51  1  0  0  0
  6 52  1  0  0  0
  7 10  2  0  0  0
  7  8  1  0  0  0
  8  9  2  0  0  0
  8 53  1  0  0  0
  9 12  1  0  0  0
  9 54  1  0  0  0
 10 11  1  0  0  0
 10 55  1  0  0  0
 11 12  2  0  0  0
 11 56  1  0  0  0
 12 13  1  0  0  0
 13 14  1  0  0  0
 13 57  1  0  0  0
 13 58  1  0  0  0
 14 16  2  0  0  0
 14 15  1  0  0  0
 17 18  2  0  0  0
 17 19  1  0  0  0
 19 20  1  0  0  0
 19 59  1  0  0  0
 20 21  1  0  0  0
 20 23  1  0  0  0
 20 60  1  0  0  0
 21 22  2  0  0  0
 21 28  1  0  0  0
 23 24  1  0  0  0
 23 61  1  0  0  0
 23 62  1  0  0  0
 24 25  1  0  0  0
 24 63  1  0  0  0
 24 64  1  0  0  0
 25 26  1  0  0  0
 25 27  2  0  0  0
 28 29  1  0  0  0
 28 65  1  0  0  0
 29 30  1  0  0  0
 29 32  1  0  0  0
 29 66  1  0  0  0
 30 31  2  0  0  0
 30 37  1  0  0  0
 32 33  1  0  0  0
 32 67  1  0  0  0
 32 68  1  0  0  0
 33 34  1  0  0  0
 33 69  1  0  0  0
 33 70  1  0  0  0
 34 35  1  0  0  0
 34 36  2  0  0  0
 37 38  1  0  0  0
 37 71  1  0  0  0
 38 39  1  0  0  0
 38 41  1  0  0  0
 38 72  1  0  0  0
 39 45  1  0  0  0
 39 40  2  0  0  0
 41 42  1  0  0  0
 41 43  1  0  0  0
 41 73  1  0  0  0
 42 44  1  0  0  0
 42 74  1  0  0  0
 42 75  1  0  0  0
 43 76  1  0  0  0
 43 77  1  0  0  0
 43 78  1  0  0  0
 44 79  1  0  0  0
 44 80  1  0  0  0
 44 81  1  0  0  0
M  CHG  4  15  -1  26  -1  35  -1  45  -1
M  END
> <s_m_source_file>
../1bhf_ligand.sdf

> <i_m_source_file_index>
1

> <s_epik_input>
W09IXUMoPU8pW0NIMl1jKFtjSF1bY0hdMSlbY0hdW2NIXWMxW0NIMl1bQ0BIXShbTkhdQyg9TylbQ0gzXSlDKD1PKVtOSF1bQ0BASF0oW0NIMl1bQ0gyXUMoPU8pW09IXSlDKD1PKVtOSF1bQ0BASF0oW0NIMl1bQ0gyXUMoPU8pW09IXSlDKD1PKVtOSF1bQ0BIXShDKD1PKVtPSF0pW0NAQEhdKFtDSDNdKVtDSDJdW0NIM10=

> <s_epik_cmdline>
J2VwaWtfYXBwJywgJy1pbWFlJywgJ2xpZ2FuZF9wcm8ubWFlJywgJy1vbWFlJywgJ2xpZ2FuZF9wcmVwLm1hZScsICctbXMnLCAnMScsICctcGgnLCAnNycsICctcGh0JywgJzAuNScsICctbnQn

> <r_lp_tautomer_probability>
1

> <r_epik_Ionization_Penalty>
  0.0050

> <r_epik_Ionization_Penalty_Charging>
  0.0050

> <r_epik_Ionization_Penalty_Neutral>
  0.0000

> <r_epik_State_Penalty>
 -0.0000

> <r_epik_Charging_Adjusted_Penalty>
0.00500701989828108

> <i_epik_Tot_Q>
-4

> <i_epik_Tot_abs_Q>
4

$$$$
