1bhx_ligand
                    3D
 Schrodinger Suite 2020-3.
 60 62  0  0  1  0            999 V2000
   22.1690  -14.5920   25.7200 C   0  0  0  0  0  0
   22.1450  -15.9400   25.3790 C   0  0  0  0  0  0
   20.9710  -16.7030   25.6290 C   0  0  0  0  0  0
   19.8390  -16.0960   26.2060 C   0  0  0  0  0  0
   19.8790  -14.7540   26.5500 C   0  0  0  0  0  0
   21.0250  -14.0020   26.3100 C   0  0  0  0  0  0
   18.5670  -16.9220   26.4870 C   0  0  0  0  0  0
   17.8430  -17.3940   24.8500 S   0  0  0  0  0  0
   18.8810  -18.1230   24.0360 O   0  0  0  0  0  0
   16.5900  -17.9970   25.0660 O   0  0  0  0  0  0
   17.6520  -15.8550   24.1860 N   0  0  3  0  0  0
   18.0550  -15.5820   22.8040 C   0  0  1  0  0  0
   17.3480  -14.3450   22.3100 C   0  0  0  0  0  0
   16.3540  -13.9150   22.9140 O   0  0  0  0  0  0
   17.8480  -13.7720   21.1870 N   0  0  0  0  0  0
   19.0090  -14.3360   20.5480 C   0  0  2  0  0  0
   20.1060  -14.6080   21.5470 C   0  0  0  0  0  0
   19.5960  -15.4160   22.7580 C   0  0  0  0  0  0
   19.5770  -13.0300   19.5260 S   0  0  0  0  0  0
   17.9100  -12.3660   19.2870 C   0  0  0  0  0  0
   17.2240  -12.5620   20.5980 C   0  0  1  0  0  0
   15.6820  -12.7390   20.3790 C   0  0  0  0  0  0
   15.2270  -13.7840   19.9280 O   0  0  0  0  0  0
   14.8940  -11.6530   20.6710 N   0  0  0  0  0  0
   13.4600  -11.7790   20.4810 C   0  0  0  0  0  0
   12.7470  -10.6020   21.1150 C   0  0  0  0  0  0
   12.8600  -10.7240   22.6160 C   0  0  0  0  0  0
   12.0620  -11.8660   23.1110 N   0  0  0  0  0  0
   11.1950  -11.7100   24.0880 C   0  0  0  0  0  0
   11.0320  -10.5560   24.6390 N   0  3  0  0  0  0
   10.5070  -12.7250   24.5240 N   0  0  0  0  0  0
   23.0615  -13.9943   25.5345 H   0  0  0  0  0  0
   23.0182  -16.4077   24.9241 H   0  0  0  0  0  0
   20.9474  -17.7622   25.3728 H   0  0  0  0  0  0
   19.0091  -14.2856   27.0105 H   0  0  0  0  0  0
   21.0422  -12.9460   26.5795 H   0  0  0  0  0  0
   18.8329  -17.8197   27.0644 H   0  0  0  0  0  0
   17.8543  -16.3134   27.0629 H   0  0  0  0  0  0
   17.3756  -15.0247   24.8525 H   0  0  0  0  0  0
   17.7333  -16.4255   22.1755 H   0  0  0  0  0  0
   18.6985  -15.3206   20.1684 H   0  0  0  0  0  0
   20.9084  -15.1839   21.0627 H   0  0  0  0  0  0
   20.5107  -13.6540   21.9160 H   0  0  0  0  0  0
   19.9355  -14.8916   23.6634 H   0  0  0  0  0  0
   20.0703  -16.4073   22.7089 H   0  0  0  0  0  0
   17.9745  -11.3014   19.0179 H   0  0  0  0  0  0
   17.4075  -12.9185   18.4794 H   0  0  0  0  0  0
   17.3902  -11.7088   21.2721 H   0  0  0  0  0  0
   15.3191  -10.7075   21.0389 H   0  0  0  0  0  0
   13.2334  -11.8021   19.4048 H   0  0  0  0  0  0
   13.1084  -12.7099   20.9498 H   0  0  0  0  0  0
   13.2151   -9.6652   20.7785 H   0  0  0  0  0  0
   11.6883  -10.6106   20.8166 H   0  0  0  0  0  0
   13.9130  -10.8805   22.8929 H   0  0  0  0  0  0
   12.4900   -9.8017   23.0877 H   0  0  0  0  0  0
   12.1894  -12.8619   22.6615 H   0  0  0  0  0  0
   11.6069   -9.6893   24.2807 H   0  0  0  0  0  0
   10.6359  -13.7155   24.0632 H   0  0  0  0  0  0
    9.7966  -12.5924   25.3533 H   0  0  0  0  0  0
   10.3181  -10.4380   25.4675 H   0  0  0  0  0  0
  1  6  2  0  0  0
  1  2  1  0  0  0
  1 32  1  0  0  0
  2  3  2  0  0  0
  2 33  1  0  0  0
  3  4  1  0  0  0
  3 34  1  0  0  0
  4  7  1  0  0  0
  4  5  2  0  0  0
  5  6  1  0  0  0
  5 35  1  0  0  0
  6 36  1  0  0  0
  7  8  1  0  0  0
  7 37  1  0  0  0
  7 38  1  0  0  0
  8 11  1  0  0  0
  8 10  2  0  0  0
  8  9  2  0  0  0
 11 12  1  0  0  0
 11 39  1  0  0  0
 12 18  1  0  0  0
 12 13  1  0  0  0
 12 40  1  0  0  0
 13 15  1  0  0  0
 13 14  2  0  0  0
 15 21  1  0  0  0
 15 16  1  0  0  0
 16 19  1  0  0  0
 16 17  1  0  0  0
 16 41  1  0  0  0
 17 18  1  0  0  0
 17 42  1  0  0  0
 17 43  1  0  0  0
 18 44  1  0  0  0
 18 45  1  0  0  0
 19 20  1  0  0  0
 20 21  1  0  0  0
 20 46  1  0  0  0
 20 47  1  0  0  0
 21 22  1  0  0  0
 21 48  1  0  0  0
 22 24  1  0  0  0
 22 23  2  0  0  0
 24 25  1  0  0  0
 24 49  1  0  0  0
 25 26  1  0  0  0
 25 50  1  0  0  0
 25 51  1  0  0  0
 26 27  1  0  0  0
 26 52  1  0  0  0
 26 53  1  0  0  0
 27 28  1  0  0  0
 27 54  1  0  0  0
 27 55  1  0  0  0
 28 29  1  0  0  0
 28 56  1  0  0  0
 29 31  1  0  0  0
 29 30  2  0  0  0
 30 57  1  0  0  0
 30 60  1  0  0  0
 31 58  1  0  0  0
 31 59  1  0  0  0
M  CHG  1  30   1
M  END
> <s_m_source_file>
../1bhx_ligand.sdf

> <i_m_source_file_index>
1

> <s_epik_input>
W2NIXTFbY0hdW2NIXVtjSF1bY0hdYzFbQ0gyXVMoPU8pKD1PKVtOSF1bQ0BASF0oQzI9TylbQ0gyXVtDSDJdW0NAQEhdKE4yMylTW0NIMl1bQ0BIXTNDKD1PKVtOSF1bQ0gyXVtDSDJdW0NIMl1bTkhdL0MoPU5cW0hdKVtOSDJd

> <s_epik_cmdline>
J2VwaWtfYXBwJywgJy1pbWFlJywgJ2xpZ2FuZF9wcm8ubWFlJywgJy1vbWFlJywgJ2xpZ2FuZF9wcmVwLm1hZScsICctbXMnLCAnMScsICctcGgnLCAnNycsICctcGh0JywgJzAuNScsICctbnQn

> <r_lp_tautomer_probability>
1

> <r_epik_Ionization_Penalty>
  0.0001

> <r_epik_Ionization_Penalty_Charging>
  0.0000

> <r_epik_Ionization_Penalty_Neutral>
  0.0001

> <r_epik_State_Penalty>
 -0.0000

> <r_epik_Charging_Adjusted_Penalty>
1.96926722505323e-05

> <i_epik_Tot_Q>
1

> <i_epik_Tot_abs_Q>
1

> <s_epik_Chemistry_Notes>
This compound has an imine and may undergo hydrolysis. This compound contains an acetal/aminal-like group ( X-CH(R)-Y where X, Y are N, S, or O) that may be acid/base labile, releasing an aldehyde.

$$$$
