1bil_ligand
                    3D
 Schrodinger Suite 2020-3.
 98100  0  0  1  0            999 V2000
   42.6780   61.3260   49.5400 C   0  0  0  0  0  0
   43.8000   62.4050   47.5520 C   0  0  0  0  0  0
   41.6350   61.3190   47.3170 C   0  0  0  0  0  0
   41.6010   61.6280   46.1740 O   0  0  0  0  0  0
   42.6860   61.6600   48.1050 N   0  0  0  0  0  0
   39.5960   60.0250   46.8630 N   0  0  0  0  0  0
   38.8020   60.9020   46.2930 C   0  0  0  0  0  0
   38.9480   62.0460   46.6140 O   0  0  0  0  0  0
   40.5160   60.4930   47.9050 C   0  0  0  0  0  0
   39.5960   58.6350   46.4440 C   0  0  1  0  0  0
   41.0710   58.3440   46.0070 C   0  0  0  0  0  0
   39.2750   57.7620   47.6730 C   0  0  0  0  0  0
   40.0460   56.7350   47.9830 C   0  0  0  0  0  0
   38.2760   58.0740   48.4460 C   0  0  0  0  0  0
   39.8170   56.0270   49.0960 C   0  0  0  0  0  0
   38.0320   57.3560   49.5440 C   0  0  0  0  0  0
   38.7890   56.3200   49.8620 C   0  0  0  0  0  0
   36.2920   61.0310   43.5100 C   0  0  0  0  0  0
   36.5720   60.1740   42.6580 O   0  0  0  0  0  0
   37.4220   61.6330   44.2900 C   0  0  1  0  0  0
   37.7980   60.4680   45.2390 C   0  0  0  0  0  0
   38.6110   61.9110   43.3530 C   0  0  0  0  0  0
   38.4330   63.2880   42.7490 C   0  0  0  0  0  0
   37.8310   63.4240   41.5910 C   0  0  0  0  0  0
   37.6200   65.1320   41.1860 S   0  0  0  0  0  0
   38.4270   65.4480   42.6970 C   0  0  0  0  0  0
   38.7640   64.4180   43.3590 N   0  0  0  0  0  0
   38.6720   66.6810   43.0370 N   0  0  0  0  0  0
   32.9370   61.5410   42.5010 C   0  0  1  0  0  0
   33.8720   60.5950   43.2990 C   0  0  2  0  0  0
   33.0270   59.8490   44.3920 C   0  0  0  0  0  0
   33.8770   59.1580   45.4910 C   0  0  0  0  0  0
   32.9940   58.8390   46.7460 C   0  0  0  0  0  0
   33.8070   57.9750   47.7630 C   0  0  0  0  0  0
   34.1990   56.6280   47.0890 C   0  0  0  0  0  0
   35.1680   56.9920   45.9410 C   0  0  0  0  0  0
   34.3530   57.8270   44.9140 C   0  0  0  0  0  0
   35.0080   61.2930   43.9130 N   0  0  0  0  0  0
   32.7980   62.8060   43.1460 O   0  0  0  0  0  0
   33.5000   61.7800   41.0910 C   0  0  2  0  0  0
   32.5460   62.7620   40.3350 C   0  0  0  0  0  0
   33.1650   63.1330   38.9640 C   0  0  0  0  0  0
   32.1240   63.6600   37.9810 C   0  0  0  0  0  0
   34.2660   64.1800   39.1790 C   0  0  0  0  0  0
   33.4940   60.5190   40.4480 O   0  0  0  0  0  0
   43.6094   61.6820   50.0045 H   0  0  0  0  0  0
   42.6008   60.2355   49.6622 H   0  0  0  0  0  0
   41.8179   61.8111   50.0246 H   0  0  0  0  0  0
   44.5474   62.5849   48.3388 H   0  0  0  0  0  0
   43.4393   63.3681   47.1617 H   0  0  0  0  0  0
   44.2585   61.8272   46.7360 H   0  0  0  0  0  0
   40.9381   59.6168   48.4189 H   0  0  0  0  0  0
   39.9495   61.1024   48.6245 H   0  0  0  0  0  0
   38.8440   58.4877   45.6548 H   0  0  0  0  0  0
   41.3213   58.9581   45.1294 H   0  0  0  0  0  0
   41.1743   57.2792   45.7510 H   0  0  0  0  0  0
   41.7537   58.5903   46.8336 H   0  0  0  0  0  0
   40.8738   56.4623   47.3285 H   0  0  0  0  0  0
   37.6383   58.9221   48.1966 H   0  0  0  0  0  0
   40.4827   55.2076   49.3673 H   0  0  0  0  0  0
   37.1959   57.6278   50.1884 H   0  0  0  0  0  0
   38.5651   55.7192   50.7435 H   0  0  0  0  0  0
   37.1456   62.5792   44.7781 H   0  0  0  0  0  0
   38.2284   59.6554   44.6352 H   0  0  0  0  0  0
   36.8804   60.1129   45.7308 H   0  0  0  0  0  0
   39.5480   61.8709   43.9278 H   0  0  0  0  0  0
   38.6362   61.1518   42.5574 H   0  0  0  0  0  0
   37.5047   62.5950   40.9629 H   0  0  0  0  0  0
   38.3364   67.5064   42.3920 H   0  0  0  0  0  0
   39.2146   66.8970   43.9692 H   0  0  0  0  0  0
   31.9197   61.1233   42.4763 H   0  0  0  0  0  0
   34.3671   59.9047   42.6002 H   0  0  0  0  0  0
   32.3668   60.5680   44.8990 H   0  0  0  0  0  0
   32.4190   59.0665   43.9146 H   0  0  0  0  0  0
   34.7221   59.8027   45.7740 H   0  0  0  0  0  0
   32.6911   59.7793   47.2298 H   0  0  0  0  0  0
   32.0983   58.2829   46.4324 H   0  0  0  0  0  0
   34.7162   58.5179   48.0607 H   0  0  0  0  0  0
   33.1900   57.7778   48.6521 H   0  0  0  0  0  0
   34.6865   55.9761   47.8288 H   0  0  0  0  0  0
   33.2948   56.1338   46.7041 H   0  0  0  0  0  0
   36.0080   57.5780   46.3422 H   0  0  0  0  0  0
   35.5515   56.0704   45.4788 H   0  0  0  0  0  0
   33.4829   57.2291   44.6051 H   0  0  0  0  0  0
   34.9970   58.0146   44.0422 H   0  0  0  0  0  0
   34.8340   62.0356   44.7057 H   0  0  0  0  0  0
   32.4076   62.8598   44.1730 H   0  0  0  0  0  0
   34.5414   62.1342   41.0835 H   0  0  0  0  0  0
   31.5711   62.2775   40.1774 H   0  0  0  0  0  0
   32.4094   63.6745   40.9340 H   0  0  0  0  0  0
   33.5870   62.2249   38.5088 H   0  0  0  0  0  0
   31.3407   62.9017   37.8349 H   0  0  0  0  0  0
   32.6072   63.8784   37.0173 H   0  0  0  0  0  0
   31.6736   64.5799   38.3821 H   0  0  0  0  0  0
   35.0100   63.7892   39.8888 H   0  0  0  0  0  0
   33.8218   65.1014   39.5836 H   0  0  0  0  0  0
   34.7554   64.3999   38.2187 H   0  0  0  0  0  0
   34.1104   59.6976   40.8423 H   0  0  0  0  0  0
  1  5  1  0  0  0
  1 46  1  0  0  0
  1 47  1  0  0  0
  1 48  1  0  0  0
  2  5  1  0  0  0
  2 49  1  0  0  0
  2 50  1  0  0  0
  2 51  1  0  0  0
  3  5  1  0  0  0
  3  4  2  0  0  0
  3  9  1  0  0  0
  6 10  1  0  0  0
  6  9  1  0  0  0
  6  7  1  0  0  0
  7  8  2  0  0  0
  7 21  1  0  0  0
  9 52  1  0  0  0
  9 53  1  0  0  0
 10 12  1  0  0  0
 10 11  1  0  0  0
 10 54  1  0  0  0
 11 55  1  0  0  0
 11 56  1  0  0  0
 11 57  1  0  0  0
 12 14  2  0  0  0
 12 13  1  0  0  0
 13 15  2  0  0  0
 13 58  1  0  0  0
 14 16  1  0  0  0
 14 59  1  0  0  0
 15 17  1  0  0  0
 15 60  1  0  0  0
 16 17  2  0  0  0
 16 61  1  0  0  0
 17 62  1  0  0  0
 18 20  1  0  0  0
 18 19  2  0  0  0
 18 38  1  0  0  0
 20 22  1  0  0  0
 20 21  1  0  0  0
 20 63  1  0  0  0
 21 64  1  0  0  0
 21 65  1  0  0  0
 22 23  1  0  0  0
 22 66  1  0  0  0
 22 67  1  0  0  0
 23 27  1  0  0  0
 23 24  2  0  0  0
 24 25  1  0  0  0
 24 68  1  0  0  0
 25 26  1  0  0  0
 26 28  1  0  0  0
 26 27  2  0  0  0
 28 69  1  0  0  0
 28 70  1  0  0  0
 29 39  1  0  0  0
 29 30  1  0  0  0
 29 40  1  0  0  0
 29 71  1  0  0  0
 30 38  1  0  0  0
 30 31  1  0  0  0
 30 72  1  0  0  0
 31 32  1  0  0  0
 31 73  1  0  0  0
 31 74  1  0  0  0
 32 37  1  0  0  0
 32 33  1  0  0  0
 32 75  1  0  0  0
 33 34  1  0  0  0
 33 76  1  0  0  0
 33 77  1  0  0  0
 34 35  1  0  0  0
 34 78  1  0  0  0
 34 79  1  0  0  0
 35 36  1  0  0  0
 35 80  1  0  0  0
 35 81  1  0  0  0
 36 37  1  0  0  0
 36 82  1  0  0  0
 36 83  1  0  0  0
 37 84  1  0  0  0
 37 85  1  0  0  0
 38 86  1  0  0  0
 39 87  1  0  0  0
 40 45  1  0  0  0
 40 41  1  0  0  0
 40 88  1  0  0  0
 41 42  1  0  0  0
 41 89  1  0  0  0
 41 90  1  0  0  0
 42 44  1  0  0  0
 42 43  1  0  0  0
 42 91  1  0  0  0
 43 92  1  0  0  0
 43 93  1  0  0  0
 43 94  1  0  0  0
 44 95  1  0  0  0
 44 96  1  0  0  0
 44 97  1  0  0  0
 45 98  1  0  0  0
M  END
> <s_m_source_file>
../1bil_ligand.sdf

> <i_m_source_file_index>
1

> <s_epik_input>
W2NIXTFbY0hdW2NIXVtjSF1bY0hdYzFbQ0BIXShbQ0gzXSlOKFtDSDJdQyg9TylOKFtDSDNdKVtDSDNdKUMoPU8pW0NIMl1bQ0BASF0oW0NIMl1jMltjSF1zYyhuMilbTkgyXSlDKD1PKVtOSF1bQ0BIXShbQ0BASF0oW09IXSlbQ0BASF0oW09IXSlbQ0gyXVtDSF0oW0NIM10pW0NIM10pW0NIMl1bQ0hdM1tDSDJdW0NIMl1bQ0gyXVtDSDJdW0NIMl0z

> <s_epik_cmdline>
J2VwaWtfYXBwJywgJy1pbWFlJywgJ2xpZ2FuZF9wcm8ubWFlJywgJy1vbWFlJywgJ2xpZ2FuZF9wcmVwLm1hZScsICctbXMnLCAnMScsICctcGgnLCAnNycsICctcGh0JywgJzAuNScsICctbnQn

> <r_lp_tautomer_probability>
1

> <r_epik_Ionization_Penalty>
  0.0102

> <r_epik_Ionization_Penalty_Charging>
  0.0000

> <r_epik_Ionization_Penalty_Neutral>
  0.0102

> <r_epik_State_Penalty>
 -0.0000

> <r_epik_Charging_Adjusted_Penalty>
0

> <i_epik_Tot_Q>
0

> <i_epik_Tot_abs_Q>
0

$$$$
