1bim_ligand
                    3D
 Schrodinger Suite 2020-3.
 92 95  0  0  1  0            999 V2000
   39.5920   60.1220   46.4970 N   0  0  0  0  0  0
   38.6110   60.9360   46.0590 C   0  0  0  0  0  0
   38.4800   62.0600   46.4600 O   0  0  0  0  0  0
   40.4930   60.5570   47.5680 C   0  0  0  0  0  0
   39.6150   58.7620   46.0070 C   0  0  1  0  0  0
   41.0300   58.5410   45.4730 C   0  0  0  0  0  0
   39.1830   57.8390   47.1730 C   0  0  0  0  0  0
   39.9930   56.8620   47.5970 C   0  0  0  0  0  0
   38.0190   58.0380   47.8010 C   0  0  0  0  0  0
   39.6280   56.0880   48.6330 C   0  0  0  0  0  0
   37.6500   57.2460   48.8200 C   0  0  0  0  0  0
   38.4480   56.2730   49.2350 C   0  0  0  0  0  0
   36.1270   60.9350   43.2480 C   0  0  0  0  0  0
   36.4230   60.0650   42.4830 O   0  0  0  0  0  0
   37.2820   61.5240   44.0390 C   0  0  1  0  0  0
   37.6760   60.3910   44.9980 C   0  0  0  0  0  0
   38.4440   61.7430   43.0450 C   0  0  0  0  0  0
   38.2710   63.1290   42.3880 C   0  0  0  0  0  0
   37.8130   63.2570   41.1440 C   0  0  0  0  0  0
   37.6750   64.9940   40.7120 S   0  0  0  0  0  0
   38.2670   65.3290   42.3370 C   0  0  0  0  0  0
   38.5120   64.2890   43.0470 N   0  0  0  0  0  0
   38.3810   66.5610   42.7250 N   0  0  0  0  0  0
   32.8300   61.7010   41.9250 C   0  0  1  0  0  0
   33.6700   60.6620   42.7430 C   0  0  2  0  0  0
   32.7340   59.9840   43.8030 C   0  0  0  0  0  0
   33.5630   59.1690   44.8190 C   0  0  0  0  0  0
   32.9620   59.2690   46.2580 C   0  0  0  0  0  0
   33.7150   58.3510   47.2640 C   0  0  0  0  0  0
   33.6750   56.8850   46.7780 C   0  0  0  0  0  0
   34.2870   56.7900   45.3440 C   0  0  0  0  0  0
   33.5140   57.7030   44.3480 C   0  0  0  0  0  0
   34.8120   61.2980   43.4700 N   0  0  0  0  0  0
   32.5860   62.8260   42.7790 O   0  0  0  0  0  0
   32.8920   62.1410   38.3470 N   0  0  0  0  0  0
   33.2300   61.3470   39.4030 C   0  0  0  0  0  0
   33.3560   60.0740   39.3260 O   0  0  0  0  0  0
   33.6080   62.1480   40.6410 C   0  0  1  0  0  0
   33.2880   63.6170   40.1620 C   0  0  0  0  0  0
   32.8100   63.5250   38.6600 C   0  0  0  0  0  0
   32.4770   61.6360   37.0810 C   0  0  0  0  0  0
   31.3000   63.8770   38.4600 C   0  0  0  0  0  0
   33.6980   64.4360   37.7510 C   0  0  0  0  0  0
   40.3140   61.6196   47.7888 H   0  0  0  0  0  0
   41.5364   60.4197   47.2477 H   0  0  0  0  0  0
   40.3049   59.9581   48.4713 H   0  0  0  0  0  0
   38.9074   58.6028   45.1800 H   0  0  0  0  0  0
   41.2268   59.2470   44.6527 H   0  0  0  0  0  0
   41.1244   57.5104   45.1003 H   0  0  0  0  0  0
   41.7571   58.7066   46.2817 H   0  0  0  0  0  0
   40.9494   56.6939   47.1018 H   0  0  0  0  0  0
   37.3648   58.8497   47.4828 H   0  0  0  0  0  0
   40.2982   55.3039   48.9853 H   0  0  0  0  0  0
   36.6886   57.4041   49.3088 H   0  0  0  0  0  0
   38.1453   55.6286   50.0603 H   0  0  0  0  0  0
   37.0316   62.4627   44.5549 H   0  0  0  0  0  0
   38.1839   59.5930   44.4366 H   0  0  0  0  0  0
   36.7738   59.9843   45.4782 H   0  0  0  0  0  0
   39.4014   61.7001   43.5850 H   0  0  0  0  0  0
   38.4215   60.9571   42.2756 H   0  0  0  0  0  0
   37.5589   62.4276   40.4840 H   0  0  0  0  0  0
   38.1436   67.3805   42.0307 H   0  0  0  0  0  0
   38.7151   66.7866   43.7485 H   0  0  0  0  0  0
   31.8383   61.3163   41.6449 H   0  0  0  0  0  0
   34.1264   59.9443   42.0454 H   0  0  0  0  0  0
   32.1704   60.7588   44.3434 H   0  0  0  0  0  0
   32.0316   59.3083   43.2931 H   0  0  0  0  0  0
   34.5933   59.5528   44.8524 H   0  0  0  0  0  0
   33.0365   60.3067   46.6151 H   0  0  0  0  0  0
   31.9054   58.9637   46.2361 H   0  0  0  0  0  0
   34.7628   58.6763   47.3437 H   0  0  0  0  0  0
   33.2344   58.4171   48.2513 H   0  0  0  0  0  0
   34.2575   56.2546   47.4660 H   0  0  0  0  0  0
   32.6324   56.5350   46.7538 H   0  0  0  0  0  0
   35.3392   57.1094   45.3725 H   0  0  0  0  0  0
   34.2289   55.7506   44.9886 H   0  0  0  0  0  0
   32.4670   57.3701   44.2939 H   0  0  0  0  0  0
   33.9764   57.6218   43.3532 H   0  0  0  0  0  0
   34.6204   62.0860   44.2132 H   0  0  0  0  0  0
   32.0479   62.6892   43.7286 H   0  0  0  0  0  0
   34.6528   61.9916   40.9475 H   0  0  0  0  0  0
   32.4961   64.0445   40.7945 H   0  0  0  0  0  0
   34.1947   64.2346   40.2422 H   0  0  0  0  0  0
   32.6263   60.5465   37.0540 H   0  0  0  0  0  0
   33.0722   62.1075   36.2852 H   0  0  0  0  0  0
   31.4121   61.8641   36.9265 H   0  0  0  0  0  0
   30.6846   63.2310   39.1034 H   0  0  0  0  0  0
   31.0226   63.7174   37.4076 H   0  0  0  0  0  0
   31.1304   64.9302   38.7283 H   0  0  0  0  0  0
   34.7576   64.1804   37.8993 H   0  0  0  0  0  0
   33.5344   65.4906   38.0175 H   0  0  0  0  0  0
   33.4267   64.2779   36.6968 H   0  0  0  0  0  0
  1  2  1  0  0  0
  1  4  1  0  0  0
  1  5  1  0  0  0
  2  3  2  0  0  0
  2 16  1  0  0  0
  4 44  1  0  0  0
  4 45  1  0  0  0
  4 46  1  0  0  0
  5  6  1  0  0  0
  5  7  1  0  0  0
  5 47  1  0  0  0
  6 48  1  0  0  0
  6 49  1  0  0  0
  6 50  1  0  0  0
  7  8  2  0  0  0
  7  9  1  0  0  0
  8 10  1  0  0  0
  8 51  1  0  0  0
  9 11  2  0  0  0
  9 52  1  0  0  0
 10 12  2  0  0  0
 10 53  1  0  0  0
 11 12  1  0  0  0
 11 54  1  0  0  0
 12 55  1  0  0  0
 13 14  2  0  0  0
 13 15  1  0  0  0
 13 33  1  0  0  0
 15 16  1  0  0  0
 15 17  1  0  0  0
 15 56  1  0  0  0
 16 57  1  0  0  0
 16 58  1  0  0  0
 17 18  1  0  0  0
 17 59  1  0  0  0
 17 60  1  0  0  0
 18 19  2  0  0  0
 18 22  1  0  0  0
 19 20  1  0  0  0
 19 61  1  0  0  0
 20 21  1  0  0  0
 21 22  2  0  0  0
 21 23  1  0  0  0
 23 62  1  0  0  0
 23 63  1  0  0  0
 24 25  1  0  0  0
 24 34  1  0  0  0
 24 38  1  0  0  0
 24 64  1  0  0  0
 25 26  1  0  0  0
 25 33  1  0  0  0
 25 65  1  0  0  0
 26 27  1  0  0  0
 26 66  1  0  0  0
 26 67  1  0  0  0
 27 28  1  0  0  0
 27 32  1  0  0  0
 27 68  1  0  0  0
 28 29  1  0  0  0
 28 69  1  0  0  0
 28 70  1  0  0  0
 29 30  1  0  0  0
 29 71  1  0  0  0
 29 72  1  0  0  0
 30 31  1  0  0  0
 30 73  1  0  0  0
 30 74  1  0  0  0
 31 32  1  0  0  0
 31 75  1  0  0  0
 31 76  1  0  0  0
 32 77  1  0  0  0
 32 78  1  0  0  0
 33 79  1  0  0  0
 34 80  1  0  0  0
 35 36  1  0  0  0
 35 40  1  0  0  0
 35 41  1  0  0  0
 36 37  2  0  0  0
 36 38  1  0  0  0
 38 39  1  0  0  0
 38 81  1  0  0  0
 39 40  1  0  0  0
 39 82  1  0  0  0
 39 83  1  0  0  0
 40 42  1  0  0  0
 40 43  1  0  0  0
 41 84  1  0  0  0
 41 85  1  0  0  0
 41 86  1  0  0  0
 42 87  1  0  0  0
 42 88  1  0  0  0
 42 89  1  0  0  0
 43 90  1  0  0  0
 43 91  1  0  0  0
 43 92  1  0  0  0
M  END
> <s_m_source_file>
../1bim_ligand.sdf

> <i_m_source_file_index>
1

> <s_epik_input>
W2NIXTFbY0hdW2NIXVtjSF1bY0hdYzFbQ0BIXShbQ0gzXSlOKFtDSDNdKUMoPU8pW0NIMl1bQ0BASF0oW0NIMl1jMltjSF1zYyhuMilbTkgyXSlDKD1PKVtOSF1bQ0BIXShbQ0BASF0oW09IXSlbQ0BIXShbQ0gyXTMpQyg9TylOKFtDSDNdKUMzKFtDSDNdKVtDSDNdKVtDSDJdW0NIXTRbQ0gyXVtDSDJdW0NIMl1bQ0gyXVtDSDJdNA==

> <s_epik_cmdline>
J2VwaWtfYXBwJywgJy1pbWFlJywgJ2xpZ2FuZF9wcm8ubWFlJywgJy1vbWFlJywgJ2xpZ2FuZF9wcmVwLm1hZScsICctbXMnLCAnMScsICctcGgnLCAnNycsICctcGh0JywgJzAuNScsICctbnQn

> <r_lp_tautomer_probability>
1

> <r_epik_Ionization_Penalty>
  0.0108

> <r_epik_Ionization_Penalty_Charging>
  0.0000

> <r_epik_Ionization_Penalty_Neutral>
  0.0108

> <r_epik_State_Penalty>
 -0.0000

> <r_epik_Charging_Adjusted_Penalty>
0

> <i_epik_Tot_Q>
0

> <i_epik_Tot_abs_Q>
0

$$$$
