1biw_ligand
                    3D
 Schrodinger Suite 2020-3.
 66 66  0  0  1  0            999 V2000
    7.7280   48.8860   54.7260 C   0  0  0  0  0  0
    7.1300   48.7430   55.7910 O   0  0  0  0  0  0
    9.0640   48.6640   54.5960 N   0  0  0  0  0  0
    9.7910   48.5950   53.3280 C   0  0  0  0  0  0
   10.0530   49.9670   52.7000 C   0  0  0  0  0  0
    8.8120   50.5880   52.0720 C   0  0  0  0  0  0
    7.6010   50.7340   52.9270 C   0  0  0  0  0  0
    6.9830   49.5680   53.6070 C   0  0  2  0  0  0
    5.5340   49.6070   53.8140 N   0  0  0  0  0  0
    4.6060   48.8100   53.2170 C   0  0  0  0  0  0
    3.2000   48.7670   53.6500 C   0  0  1  0  0  0
    2.2080   49.3600   52.6880 C   0  0  1  0  0  0
    0.8270   49.4610   53.2340 C   0  0  0  0  0  0
    0.6530   50.2790   54.1110 O   0  0  0  0  0  0
   -0.2040   48.7210   52.8070 N   0  0  0  0  0  0
   -1.4000   48.9070   53.4850 O   0  0  0  0  0  0
    2.5090   50.1180   51.3890 C   0  0  0  0  0  0
    2.7640   51.5950   51.7610 C   0  0  0  0  0  0
    2.7820   52.5070   50.5140 C   0  0  0  0  0  0
    1.4680   52.5610   49.9590 O   0  0  0  0  0  0
    2.7900   47.7390   54.6160 C   0  0  0  0  0  0
    3.1310   47.5590   56.0000 C   0  0  0  0  0  0
    3.0120   48.6560   57.0090 C   0  0  0  0  0  0
    3.0420   46.1870   56.6390 C   0  0  0  0  0  0
    4.8460   48.0310   52.3310 O   0  0  0  0  0  0
    9.9330   48.5750   55.7860 C   0  0  0  0  0  0
    9.9770   47.1930   56.4310 C   0  0  0  0  0  0
   10.5110   46.2280   55.5420 O   0  0  0  0  0  0
   10.4720   44.9290   56.1410 C   0  0  0  0  0  0
   10.7673   48.1150   53.4908 H   0  0  0  0  0  0
    9.2093   48.0063   52.6034 H   0  0  0  0  0  0
   10.4161   50.6606   53.4727 H   0  0  0  0  0  0
   10.8114   49.8695   51.9092 H   0  0  0  0  0  0
    9.0459   51.6061   51.7273 H   0  0  0  0  0  0
    8.4888   49.9765   51.2166 H   0  0  0  0  0  0
    7.8197   51.4203   53.7584 H   0  0  0  0  0  0
    6.7739   51.1388   52.3253 H   0  0  0  0  0  0
    7.0962   48.8795   52.7566 H   0  0  0  0  0  0
    5.0977   50.3359   54.5128 H   0  0  0  0  0  0
    3.1924   49.5090   54.4620 H   0  0  0  0  0  0
    2.4849   48.5229   52.0303 H   0  0  0  0  0  0
   -0.1485   48.0014   51.9769 H   0  0  0  0  0  0
   -2.2928   48.3349   53.1924 H   0  0  0  0  0  0
    3.3983   49.6838   50.9088 H   0  0  0  0  0  0
    1.6483   50.0363   50.7089 H   0  0  0  0  0  0
    1.9678   51.9464   52.4338 H   0  0  0  0  0  0
    3.7368   51.6831   52.2668 H   0  0  0  0  0  0
    3.1042   53.5180   50.8038 H   0  0  0  0  0  0
    3.4822   52.0980   49.7707 H   0  0  0  0  0  0
    1.2752   53.1641   49.0595 H   0  0  0  0  0  0
    1.6962   47.7590   54.7305 H   0  0  0  0  0  0
    3.1026   46.7489   54.2527 H   0  0  0  0  0  0
    4.1105   47.7285   55.5290 H   0  0  0  0  0  0
    3.0819   49.6297   56.5020 H   0  0  0  0  0  0
    3.8245   48.5668   57.7451 H   0  0  0  0  0  0
    2.0421   48.5785   57.5221 H   0  0  0  0  0  0
    3.1341   45.4139   55.8619 H   0  0  0  0  0  0
    2.0725   46.0817   57.1478 H   0  0  0  0  0  0
    3.8548   46.0700   57.3708 H   0  0  0  0  0  0
   10.9653   48.8319   55.5062 H   0  0  0  0  0  0
    9.5759   49.2767   56.5541 H   0  0  0  0  0  0
   10.6090   47.2282   57.3306 H   0  0  0  0  0  0
    8.9583   46.8861   56.7104 H   0  0  0  0  0  0
   10.8890   44.1899   55.4412 H   0  0  0  0  0  0
    9.4304   44.6647   56.3759 H   0  0  0  0  0  0
   11.0666   44.9340   57.0664 H   0  0  0  0  0  0
  1  2  2  0  0  0
  1  3  1  0  0  0
  1  8  1  0  0  0
  3  4  1  0  0  0
  3 26  1  0  0  0
  4  5  1  0  0  0
  4 30  1  0  0  0
  4 31  1  0  0  0
  5  6  1  0  0  0
  5 32  1  0  0  0
  5 33  1  0  0  0
  6  7  1  0  0  0
  6 34  1  0  0  0
  6 35  1  0  0  0
  7  8  1  0  0  0
  7 36  1  0  0  0
  7 37  1  0  0  0
  8  9  1  0  0  0
  8 38  1  0  0  0
  9 10  1  0  0  0
  9 39  1  0  0  0
 10 11  1  0  0  0
 10 25  2  0  0  0
 11 12  1  0  0  0
 11 21  1  0  0  0
 11 40  1  0  0  0
 12 13  1  0  0  0
 12 17  1  0  0  0
 12 41  1  0  0  0
 13 14  2  0  0  0
 13 15  1  0  0  0
 15 16  1  0  0  0
 15 42  1  0  0  0
 16 43  1  0  0  0
 17 18  1  0  0  0
 17 44  1  0  0  0
 17 45  1  0  0  0
 18 19  1  0  0  0
 18 46  1  0  0  0
 18 47  1  0  0  0
 19 20  1  0  0  0
 19 48  1  0  0  0
 19 49  1  0  0  0
 20 50  1  0  0  0
 21 22  1  0  0  0
 21 51  1  0  0  0
 21 52  1  0  0  0
 22 23  1  0  0  0
 22 24  1  0  0  0
 22 53  1  0  0  0
 23 54  1  0  0  0
 23 55  1  0  0  0
 23 56  1  0  0  0
 24 57  1  0  0  0
 24 58  1  0  0  0
 24 59  1  0  0  0
 26 27  1  0  0  0
 26 60  1  0  0  0
 26 61  1  0  0  0
 27 28  1  0  0  0
 27 62  1  0  0  0
 27 63  1  0  0  0
 28 29  1  0  0  0
 29 64  1  0  0  0
 29 65  1  0  0  0
 29 66  1  0  0  0
M  END
> <s_m_source_file>
../1biw_ligand.sdf

> <i_m_source_file_index>
1

> <s_epik_input>
W0NIM11PW0NIMl1bQ0gyXU4oQzE9TylbQ0gyXVtDSDJdW0NIMl1bQ0gyXVtDQEBIXTFbTkhdQyg9TylbQ0BIXShbQ0gyXVtDSF0oW0NIM10pW0NIM10pW0NAQEhdKEMoPU8pW05IXVtPSF0pW0NIMl1bQ0gyXVtDSDJdW09IXQ==

> <s_epik_cmdline>
J2VwaWtfYXBwJywgJy1pbWFlJywgJ2xpZ2FuZF9wcm8ubWFlJywgJy1vbWFlJywgJ2xpZ2FuZF9wcmVwLm1hZScsICctbXMnLCAnMScsICctcGgnLCAnNycsICctcGh0JywgJzAuNScsICctbnQn

> <r_lp_tautomer_probability>
1

> <r_epik_Ionization_Penalty>
  0.0050

> <r_epik_Ionization_Penalty_Charging>
  0.0000

> <r_epik_Ionization_Penalty_Neutral>
  0.0050

> <r_epik_State_Penalty>
 -0.0000

> <r_epik_Charging_Adjusted_Penalty>
0

> <i_epik_Tot_Q>
0

> <i_epik_Tot_abs_Q>
0

> <s_epik_Chemistry_Notes>
This compound has a N-S or N-O group and may undergo hydrolysis at high or low pH.

$$$$
