1bji_ligand
                    3D
 Schrodinger Suite 2020-3.
 55 56  0  0  1  0            999 V2000
   23.7040   20.1290   65.2380 C   0  0  0  0  0  0
   24.3820   21.1730   65.2880 O   0  0  0  0  0  0
   22.5200   20.0760   65.6350 O   0  5  0  0  0  0
   24.2850   19.0260   64.6280 C   0  0  0  0  0  0
   23.6200   17.9000   64.2370 C   0  0  0  0  0  0
   24.2200   17.0020   63.1800 C   0  0  1  0  0  0
   25.6680   16.9470   63.2730 C   0  0  1  0  0  0
   26.3350   16.2020   62.1880 N   0  0  0  0  0  0
   27.0420   15.0800   62.3280 C   0  0  0  0  0  0
   27.2660   14.5750   63.4110 O   0  0  0  0  0  0
   27.7040   14.3420   61.2240 C   0  0  0  0  0  0
   26.1640   18.3740   63.3030 C   0  0  1  0  0  0
   25.6120   19.0450   64.3690 O   0  0  0  0  0  0
   27.6610   18.2750   63.5730 C   0  0  0  0  0  0
   27.9280   17.9720   64.7320 O   0  0  0  0  0  0
   28.6180   18.4690   62.6520 N   0  0  0  0  0  0
   30.0060   18.3720   63.1720 C   0  0  0  0  0  0
   30.5980   16.9840   62.9900 C   0  0  0  0  0  0
   32.0180   17.0640   63.4730 C   0  0  0  0  0  0
   32.2970   17.0400   64.8270 C   0  0  0  0  0  0
   33.0810   17.1290   62.5700 C   0  0  0  0  0  0
   33.6060   17.0720   65.2810 C   0  0  0  0  0  0
   34.3940   17.1650   63.0160 C   0  0  0  0  0  0
   34.6500   17.1340   64.3760 C   0  0  0  0  0  0
   28.2350   18.8470   61.2970 C   0  0  0  0  0  0
   28.0520   20.4090   61.2910 C   0  0  0  0  0  0
   29.1410   21.3770   61.6740 C   0  0  0  0  0  0
   23.7350   15.7120   63.4460 N   0  3  0  0  0  0
   22.6502   17.6484   64.6910 H   0  0  0  0  0  0
   23.9588   17.3237   62.1610 H   0  0  0  0  0  0
   25.8929   16.3653   64.1791 H   0  0  0  0  0  0
   26.2721   16.5656   61.1517 H   0  0  0  0  0  0
   27.4750   14.8321   60.2662 H   0  0  0  0  0  0
   27.3355   13.3058   61.2030 H   0  0  0  0  0  0
   28.7922   14.3410   61.3844 H   0  0  0  0  0  0
   25.8599   18.9530   62.4185 H   0  0  0  0  0  0
   30.6484   19.0876   62.6380 H   0  0  0  0  0  0
   30.0120   18.6052   64.2470 H   0  0  0  0  0  0
   30.0203   16.2585   63.5816 H   0  0  0  0  0  0
   30.5580   16.7048   61.9268 H   0  0  0  0  0  0
   31.4783   16.9954   65.5453 H   0  0  0  0  0  0
   32.8762   17.1518   61.4996 H   0  0  0  0  0  0
   33.8127   17.0483   66.3510 H   0  0  0  0  0  0
   35.2163   17.2172   62.3024 H   0  0  0  0  0  0
   35.6788   17.1586   64.7352 H   0  0  0  0  0  0
   29.0260   18.5452   60.5947 H   0  0  0  0  0  0
   27.2944   18.3440   61.0280 H   0  0  0  0  0  0
   27.7942   20.7441   60.2755 H   0  0  0  0  0  0
   27.2445   20.6863   61.9846 H   0  0  0  0  0  0
   28.7635   22.4066   61.5874 H   0  0  0  0  0  0
   30.0021   21.2445   61.0025 H   0  0  0  0  0  0
   29.4524   21.1867   62.7117 H   0  0  0  0  0  0
   22.6367   15.7133   63.3846 H   0  0  0  0  0  0
   24.0455   15.4045   64.4555 H   0  0  0  0  0  0
   24.1427   15.0073   62.7063 H   0  0  0  0  0  0
  1  4  1  0  0  0
  1  3  1  0  0  0
  1  2  2  0  0  0
  4 13  1  0  0  0
  4  5  2  0  0  0
  5  6  1  0  0  0
  5 29  1  0  0  0
  6 28  1  0  0  0
  6  7  1  0  0  0
  6 30  1  0  0  0
  7 12  1  0  0  0
  7  8  1  0  0  0
  7 31  1  0  0  0
  8  9  1  0  0  0
  8 32  1  0  0  0
  9 11  1  0  0  0
  9 10  2  0  0  0
 11 33  1  0  0  0
 11 34  1  0  0  0
 11 35  1  0  0  0
 12 14  1  0  0  0
 12 13  1  0  0  0
 12 36  1  0  0  0
 14 16  1  0  0  0
 14 15  2  0  0  0
 16 25  1  0  0  0
 16 17  1  0  0  0
 17 18  1  0  0  0
 17 37  1  0  0  0
 17 38  1  0  0  0
 18 19  1  0  0  0
 18 39  1  0  0  0
 18 40  1  0  0  0
 19 21  2  0  0  0
 19 20  1  0  0  0
 20 22  2  0  0  0
 20 41  1  0  0  0
 21 23  1  0  0  0
 21 42  1  0  0  0
 22 24  1  0  0  0
 22 43  1  0  0  0
 23 24  2  0  0  0
 23 44  1  0  0  0
 24 45  1  0  0  0
 25 26  1  0  0  0
 25 46  1  0  0  0
 25 47  1  0  0  0
 26 27  1  0  0  0
 26 48  1  0  0  0
 26 49  1  0  0  0
 27 50  1  0  0  0
 27 51  1  0  0  0
 27 52  1  0  0  0
 28 53  1  0  0  0
 28 54  1  0  0  0
 28 55  1  0  0  0
M  CHG  2   3  -1  28   1
M  END
> <s_m_source_file>
../1bji_ligand.sdf

> <i_m_source_file_index>
1

> <s_epik_input>
Tz1DKFtPSF0pQzE9W0NIXVtDQEhdKFtOSDMrXSlbQ0BASF0oW05IXUMoPU8pW0NIM10pW0NAQEhdKE8xKUMoPU8pTihbQ0gyXVtDSDJdW0NIM10pW0NIMl1bQ0gyXWMyW2NIXVtjSF1bY0hdW2NIXVtjSF0y

> <s_epik_cmdline>
J2VwaWtfYXBwJywgJy1pbWFlJywgJ2xpZ2FuZF9wcm8ubWFlJywgJy1vbWFlJywgJ2xpZ2FuZF9wcmVwLm1hZScsICctbXMnLCAnMScsICctcGgnLCAnNycsICctcGh0JywgJzAuNScsICctbnQn

> <r_epik_Ionization_Penalty>
  0.1520

> <r_epik_Ionization_Penalty_Charging>
  0.1520

> <r_epik_Ionization_Penalty_Neutral>
  0.0000

> <r_epik_State_Penalty>
  0.1413

> <r_epik_Charging_Adjusted_Penalty>
0.293325239219873

> <i_epik_Tot_Q>
0

> <i_epik_Tot_abs_Q>
2

$$$$
