1bjr_ligand
                    3D
 Schrodinger Suite 2020-3.
116115  0  0  1  0            999 V2000
    7.0510   -8.3090   16.2430 N   0  3  0  0  0  0
    6.3720   -9.0950   15.2230 C   0  0  2  0  0  0
    5.1310   -9.8360   15.7520 C   0  0  0  0  0  0
    4.1710   -9.2030   16.2240 O   0  0  0  0  0  0
    7.1920  -10.1470   14.5500 C   0  0  0  0  0  0
    6.9650  -10.2060   13.0380 C   0  0  0  0  0  0
    8.6970   -9.9410   14.7350 C   0  0  0  0  0  0
    5.1670  -11.1850   15.6720 N   0  0  0  0  0  0
    3.9570  -11.9790   15.9840 C   0  0  2  0  0  0
    4.0350  -13.1460   17.0400 C   0  0  0  0  0  0
    4.4890  -12.9700   18.1760 O   0  0  0  0  0  0
    3.3800  -12.6160   14.7300 C   0  0  0  0  0  0
    3.5940  -14.3280   16.5500 N   0  0  0  0  0  0
    3.0040  -15.4230   17.4000 C   0  0  2  0  0  0
    2.8270  -15.0320   18.8510 C   0  0  0  0  0  0
    3.3770  -14.0440   19.3210 O   0  0  0  0  0  0
    3.5010  -16.8910   17.4000 C   0  0  0  0  0  0
    2.2330  -17.8280   17.1680 C   0  0  0  0  0  0
    1.8760  -18.9260   18.2370 C   0  0  0  0  0  0
    0.8730  -19.6530   18.0690 O   0  0  0  0  0  0
    2.6440  -19.1460   19.2820 N   0  0  0  0  0  0
    2.0040  -15.8660   19.4210 N   0  0  0  0  0  0
    1.5090  -15.8410   20.8080 C   0  0  0  0  0  0
    1.9530  -14.6560   21.7060 C   0  0  0  0  0  0
    2.9770  -14.7330   22.3960 O   0  0  0  0  0  0
    1.1250  -13.6080   21.6960 N   0  0  0  0  0  0
    1.2340  -12.4240   22.6080 C   0  0  0  0  0  0
    2.4670  -11.5160   22.3770 C   0  0  0  0  0  0
    2.3290  -10.3370   22.0240 O   0  0  0  0  0  0
    3.6360  -12.0890   22.6260 N   0  0  0  0  0  0
    4.9660  -11.4080   22.5130 C   0  0  2  0  0  0
    4.8860  -10.0240   21.8080 C   0  0  0  0  0  0
    3.8220   -9.3910   21.7630 O   0  0  0  0  0  0
    5.9330  -12.2880   21.7270 C   0  0  0  0  0  0
    6.0540   -9.5840   21.2660 N   0  0  0  0  0  0
    6.2080   -8.2520   20.5710 C   0  0  2  0  0  0
    7.3620   -8.2560   19.5180 C   0  0  0  0  0  0
    7.8650   -9.3160   19.1140 O   0  0  0  0  0  0
    6.5200   -7.1640   21.5950 C   0  0  0  0  0  0
    7.7910   -7.0390   19.0650 N   0  0  0  0  0  0
    8.8680   -6.9430   18.0300 C   0  0  0  0  0  0
    9.3050   -5.5030   17.5910 C   0  0  0  0  0  0
    9.4460   -4.5790   18.4170 O   0  0  0  0  0  0
    9.4970   -5.4150   16.2490 N   0  0  0  0  0  0
   10.0890   -4.2450   15.5470 C   0  0  2  0  0  0
   11.5770   -4.5170   15.5150 C   0  0  0  0  0  0
   12.3900   -3.7820   14.9700 O   0  0  0  0  0  0
    9.8450   -2.9760   16.3420 C   0  0  0  0  0  0
    9.7060   -1.7420   15.4620 C   0  0  0  0  0  0
    8.3910   -1.7310   14.6860 C   0  0  0  0  0  0
    9.7360   -0.4410   16.2640 C   0  0  0  0  0  0
   11.8280   -5.5820   16.1350 N   0  0  0  0  0  0
   13.1170   -6.1080   16.3410 C   0  0  2  0  0  0
   12.8610   -7.1500   17.4520 C   0  0  0  0  0  0
   11.6780   -7.1840   17.8570 O   0  0  0  0  0  0
   14.0870   -5.0080   16.7760 C   0  0  0  0  0  0
    6.3513   -7.5721   16.6642 H   0  0  0  0  0  0
    7.9075   -7.7858   15.7929 H   0  0  0  0  0  0
    7.4072   -8.9752   17.0425 H   0  0  0  0  0  0
    6.1632   -8.2802   14.5142 H   0  0  0  0  0  0
    6.8423  -11.0626   15.0494 H   0  0  0  0  0  0
    5.8944  -10.3539   12.8335 H   0  0  0  0  0  0
    7.5385  -11.0432   12.6135 H   0  0  0  0  0  0
    7.2990   -9.2633   12.5800 H   0  0  0  0  0  0
    8.9308   -9.8893   15.8086 H   0  0  0  0  0  0
    9.0013   -9.0028   14.2479 H   0  0  0  0  0  0
    9.2408  -10.7828   14.2814 H   0  0  0  0  0  0
    6.0965  -11.6927   15.3748 H   0  0  0  0  0  0
    3.3717  -11.1476   16.4038 H   0  0  0  0  0  0
    3.2942  -11.8563   13.9391 H   0  0  0  0  0  0
    2.3845  -13.0276   14.9526 H   0  0  0  0  0  0
    4.0438  -13.4249   14.3910 H   0  0  0  0  0  0
    3.6862  -14.4652   15.4625 H   0  0  0  0  0  0
    2.0862  -15.4412   16.7939 H   0  0  0  0  0  0
    4.2339  -17.0300   16.5916 H   0  0  0  0  0  0
    3.9741  -17.1180   18.3668 H   0  0  0  0  0  0
    1.3264  -17.2085   17.1025 H   0  0  0  0  0  0
    2.3601  -18.3920   16.2322 H   0  0  0  0  0  0
    3.5326  -18.5206   19.4529 H   0  0  0  0  0  0
    2.3976  -19.9554   19.9850 H   0  0  0  0  0  0
    1.6756  -16.6599   18.7341 H   0  0  0  0  0  0
    0.4095  -15.8069   20.8044 H   0  0  0  0  0  0
    1.8460  -16.7464   21.3340 H   0  0  0  0  0  0
    0.3180  -13.6552   20.9500 H   0  0  0  0  0  0
    0.3489  -11.7828   22.4838 H   0  0  0  0  0  0
    1.2936  -12.7687   23.6509 H   0  0  0  0  0  0
    3.5824  -13.1431   22.9358 H   0  0  0  0  0  0
    5.3002  -11.2745   23.5525 H   0  0  0  0  0  0
    6.0054  -13.2743   22.2087 H   0  0  0  0  0  0
    6.9261  -11.8154   21.7081 H   0  0  0  0  0  0
    5.5647  -12.4088   20.6976 H   0  0  0  0  0  0
    6.9167  -10.2605   21.3558 H   0  0  0  0  0  0
    5.2408   -8.0692   20.0800 H   0  0  0  0  0  0
    5.7236   -7.1349   22.3533 H   0  0  0  0  0  0
    6.5794   -6.1896   21.0881 H   0  0  0  0  0  0
    7.4818   -7.3834   22.0816 H   0  0  0  0  0  0
    7.3347   -6.1239   19.4705 H   0  0  0  0  0  0
    9.7812   -7.4281   18.4051 H   0  0  0  0  0  0
    8.5375   -7.4458   17.1091 H   0  0  0  0  0  0
    9.1770   -6.2969   15.6746 H   0  0  0  0  0  0
    9.6443   -4.1270   14.5478 H   0  0  0  0  0  0
    8.9161   -3.0796   16.9221 H   0  0  0  0  0  0
   10.6881   -2.8049   17.0274 H   0  0  0  0  0  0
   10.5677   -1.8006   14.7808 H   0  0  0  0  0  0
    8.3119   -2.6492   14.0855 H   0  0  0  0  0  0
    8.3648   -0.8549   14.0214 H   0  0  0  0  0  0
    7.5490   -1.6810   15.3921 H   0  0  0  0  0  0
   10.6670   -0.3916   16.8478 H   0  0  0  0  0  0
    8.8734   -0.4107   16.9460 H   0  0  0  0  0  0
    9.6892    0.4154   15.5753 H   0  0  0  0  0  0
   10.9483   -6.1115   16.5297 H   0  0  0  0  0  0
   13.5197   -6.5170   15.4026 H   0  0  0  0  0  0
   13.6108   -7.8274   17.8866 H   0  0  0  0  0  0
   14.2309   -4.2978   15.9484 H   0  0  0  0  0  0
   15.0540   -5.4575   17.0458 H   0  0  0  0  0  0
   13.6735   -4.4778   17.6466 H   0  0  0  0  0  0
  1  2  1  0  0  0
  1 57  1  0  0  0
  1 58  1  0  0  0
  1 59  1  0  0  0
  2  3  1  0  0  0
  2  5  1  0  0  0
  2 60  1  0  0  0
  3  4  2  0  0  0
  3  8  1  0  0  0
  5  6  1  0  0  0
  5  7  1  0  0  0
  5 61  1  0  0  0
  6 62  1  0  0  0
  6 63  1  0  0  0
  6 64  1  0  0  0
  7 65  1  0  0  0
  7 66  1  0  0  0
  7 67  1  0  0  0
  8  9  1  0  0  0
  8 68  1  0  0  0
  9 10  1  0  0  0
  9 12  1  0  0  0
  9 69  1  0  0  0
 10 11  2  0  0  0
 10 13  1  0  0  0
 12 70  1  0  0  0
 12 71  1  0  0  0
 12 72  1  0  0  0
 13 14  1  0  0  0
 13 73  1  0  0  0
 14 15  1  0  0  0
 14 17  1  0  0  0
 14 74  1  0  0  0
 15 16  2  0  0  0
 15 22  1  0  0  0
 17 18  1  0  0  0
 17 75  1  0  0  0
 17 76  1  0  0  0
 18 19  1  0  0  0
 18 77  1  0  0  0
 18 78  1  0  0  0
 19 20  2  0  0  0
 19 21  1  0  0  0
 21 79  1  0  0  0
 21 80  1  0  0  0
 22 23  1  0  0  0
 22 81  1  0  0  0
 23 24  1  0  0  0
 23 82  1  0  0  0
 23 83  1  0  0  0
 24 25  2  0  0  0
 24 26  1  0  0  0
 26 27  1  0  0  0
 26 84  1  0  0  0
 27 28  1  0  0  0
 27 85  1  0  0  0
 27 86  1  0  0  0
 28 29  2  0  0  0
 28 30  1  0  0  0
 30 31  1  0  0  0
 30 87  1  0  0  0
 31 32  1  0  0  0
 31 34  1  0  0  0
 31 88  1  0  0  0
 32 33  2  0  0  0
 32 35  1  0  0  0
 34 89  1  0  0  0
 34 90  1  0  0  0
 34 91  1  0  0  0
 35 36  1  0  0  0
 35 92  1  0  0  0
 36 37  1  0  0  0
 36 39  1  0  0  0
 36 93  1  0  0  0
 37 38  2  0  0  0
 37 40  1  0  0  0
 39 94  1  0  0  0
 39 95  1  0  0  0
 39 96  1  0  0  0
 40 41  1  0  0  0
 40 97  1  0  0  0
 41 42  1  0  0  0
 41 98  1  0  0  0
 41 99  1  0  0  0
 42 43  2  0  0  0
 42 44  1  0  0  0
 44 45  1  0  0  0
 44100  1  0  0  0
 45 46  1  0  0  0
 45 48  1  0  0  0
 45101  1  0  0  0
 46 47  2  0  0  0
 46 52  1  0  0  0
 48 49  1  0  0  0
 48102  1  0  0  0
 48103  1  0  0  0
 49 50  1  0  0  0
 49 51  1  0  0  0
 49104  1  0  0  0
 50105  1  0  0  0
 50106  1  0  0  0
 50107  1  0  0  0
 51108  1  0  0  0
 51109  1  0  0  0
 51110  1  0  0  0
 52 53  1  0  0  0
 52111  1  0  0  0
 53 54  1  0  0  0
 53 56  1  0  0  0
 53112  1  0  0  0
 54 55  2  0  0  0
 54113  1  0  0  0
 56114  1  0  0  0
 56115  1  0  0  0
 56116  1  0  0  0
M  CHG  1   1   1
M  END
> <s_m_source_file>
../1bjr_ligand.sdf

> <i_m_source_file_index>
1

> <s_epik_input>
W0NIM11bQ0hdKFtDSDNdKVtDQEhdKFtOSDMrXSlDKD1PKVtOSF1bQ0BASF0oW0NIM10pQyg9TylbTkhdW0NAQEhdKFtDSDJdW0NIMl1DKD1PKVtOSDJdKUMoPU8pW05IXVtDSDJdQyg9TylbTkhdW0NIMl1DKD1PKVtOSF1bQ0BASF0oW0NIM10pQyg9TylbTkhdW0NAQEhdKFtDSDNdKUMoPU8pW05IXVtDSDJdQyg9TylbTkhdW0NAQEhdKFtDSDJdW0NIXShbQ0gzXSlbQ0gzXSlDKD1PKVtOSF1bQ0BIXShbQ0hdPU8pW0NIM10=

> <s_epik_cmdline>
J2VwaWtfYXBwJywgJy1pbWFlJywgJ2xpZ2FuZF9wcm8ubWFlJywgJy1vbWFlJywgJ2xpZ2FuZF9wcmVwLm1hZScsICctbXMnLCAnMScsICctcGgnLCAnNycsICctcGh0JywgJzAuNScsICctbnQn

> <r_lp_tautomer_probability>
0.99990000499975

> <r_epik_Ionization_Penalty>
  0.0833

> <r_epik_Ionization_Penalty_Charging>
  0.0832

> <r_epik_Ionization_Penalty_Neutral>
  0.0002

> <r_epik_State_Penalty>
  0.0738

> <r_epik_Charging_Adjusted_Penalty>
0.157015671491568

> <i_epik_Tot_Q>
1

> <i_epik_Tot_abs_Q>
1

$$$$
