1bju_ligand
                    3D
 Schrodinger Suite 2020-3.
 34 35  0  0  1  0            999 V2000
   -2.7990   13.9840   14.4490 N   0  3  0  0  0  0
   -2.0060   12.2130   15.6660 N   0  0  0  0  0  0
   -2.3010   13.5080   15.5820 C   0  0  0  0  0  0
   -1.8870   14.3700   16.6050 C   0  0  0  0  0  0
   -1.9370   15.7610   16.4670 C   0  0  0  0  0  0
   -1.5410   16.6110   17.5040 C   0  0  0  0  0  0
   -1.0780   16.0860   18.7200 C   0  0  0  0  0  0
   -1.0270   14.6990   18.8660 C   0  0  0  0  0  0
   -1.4250   13.8630   17.8200 C   0  0  0  0  0  0
   -0.6720   16.8760   19.7460 N   0  0  0  0  0  0
    0.2400   17.8600   19.6510 C   0  0  0  0  0  0
    0.7740   18.1990   18.5840 O   0  0  0  0  0  0
    0.5310   18.4530   20.8150 N   0  0  0  0  0  0
    1.5460   19.2940   21.0740 C   0  0  0  0  0  0
    1.3980   20.2380   22.0940 C   0  0  0  0  0  0
    2.4440   21.1080   22.4110 C   0  0  0  0  0  0
    3.6410   21.0470   21.6980 C   0  0  0  0  0  0
    3.7940   20.1190   20.6750 C   0  0  0  0  0  0
    2.7500   19.2470   20.3620 C   0  0  0  0  0  0
    4.9500   22.0990   22.0540 Cl  0  0  0  0  0  0
   -3.1194   13.2926   13.6557 H   0  0  0  0  0  0
   -2.3245   11.5236   14.8702 H   0  0  0  0  0  0
   -1.4437   11.8320   16.5312 H   0  0  0  0  0  0
   -2.2924   16.1916   15.5308 H   0  0  0  0  0  0
   -1.5924   17.6911   17.3666 H   0  0  0  0  0  0
   -0.6745   14.2654   19.8019 H   0  0  0  0  0  0
   -1.3731   12.7829   17.9570 H   0  0  0  0  0  0
   -1.0967   16.7342   20.7507 H   0  0  0  0  0  0
   -0.0980   18.2689   21.6984 H   0  0  0  0  0  0
    0.4599   20.2958   22.6460 H   0  0  0  0  0  0
    2.3247   21.8341   23.2152 H   0  0  0  0  0  0
    4.7292   20.0721   20.1171 H   0  0  0  0  0  0
    2.8735   18.5234   19.5563 H   0  0  0  0  0  0
   -2.8917   15.0702   14.3024 H   0  0  0  0  0  0
  1  3  2  0  0  0
  1 21  1  0  0  0
  1 34  1  0  0  0
  2  3  1  0  0  0
  2 22  1  0  0  0
  2 23  1  0  0  0
  3  4  1  0  0  0
  4  5  2  0  0  0
  4  9  1  0  0  0
  5  6  1  0  0  0
  5 24  1  0  0  0
  6  7  2  0  0  0
  6 25  1  0  0  0
  7  8  1  0  0  0
  7 10  1  0  0  0
  8  9  2  0  0  0
  8 26  1  0  0  0
  9 27  1  0  0  0
 10 11  1  0  0  0
 10 28  1  0  0  0
 11 12  2  0  0  0
 11 13  1  0  0  0
 13 14  1  0  0  0
 13 29  1  0  0  0
 14 15  2  0  0  0
 14 19  1  0  0  0
 15 16  1  0  0  0
 15 30  1  0  0  0
 16 17  2  0  0  0
 16 31  1  0  0  0
 17 18  1  0  0  0
 17 20  1  0  0  0
 18 19  2  0  0  0
 18 32  1  0  0  0
 19 33  1  0  0  0
M  CHG  1   1   1
M  END
> <s_m_source_file>
../1bju_ligand.sdf

> <i_m_source_file_index>
1

> <s_epik_input>
W0hdL049QyhcW05IMl0pYzFbY0hdW2NIXWMoW2NIXVtjSF0xKVtOSF1DKD1PKVtOSF1jMltjSF1bY0hdYyhDbClbY0hdW2NIXTI=

> <s_epik_cmdline>
J2VwaWtfYXBwJywgJy1pbWFlJywgJ2xpZ2FuZF9wcm8ubWFlJywgJy1vbWFlJywgJ2xpZ2FuZF9wcmVwLm1hZScsICctbXMnLCAnMScsICctcGgnLCAnNycsICctcGh0JywgJzAuNScsICctbnQn

> <r_lp_tautomer_probability>
1

> <r_epik_Ionization_Penalty>
  0.0003

> <r_epik_Ionization_Penalty_Charging>
  0.0003

> <r_epik_Ionization_Penalty_Neutral>
  0.0000

> <r_epik_State_Penalty>
 -0.0000

> <r_epik_Charging_Adjusted_Penalty>
0.0003115973184836

> <i_epik_Tot_Q>
1

> <i_epik_Tot_abs_Q>
1

> <s_epik_Chemistry_Notes>
This compound has an imine and may undergo hydrolysis.

$$$$
