1bkj_ligand
                    3D
 Schrodinger Suite 2020-3.
 50 52  0  0  1  0            999 V2000
   -7.0160   -3.0430    8.3220 N   0  0  0  0  0  0
   -7.4830   -3.4410    7.0910 C   0  0  0  0  0  0
   -8.4010   -4.1990    6.9090 O   0  0  0  0  0  0
   -6.7230   -2.9420    6.0420 N   0  0  0  0  0  0
   -5.4590   -2.2870    6.1270 C   0  0  0  0  0  0
   -4.8760   -2.0360    5.0880 O   0  0  0  0  0  0
   -5.0210   -2.0120    7.4650 C   0  0  0  0  0  0
   -3.9410   -1.1450    7.5790 N   0  0  0  0  0  0
   -3.6080   -0.5860    8.8220 C   0  0  0  0  0  0
   -2.6170    0.3780    8.8450 C   0  0  0  0  0  0
   -2.2870    1.0130   10.0410 C   0  0  0  0  0  0
   -1.3180    2.2300    9.9540 C   0  0  0  0  0  0
   -2.9440    0.6310   11.2460 C   0  0  0  0  0  0
   -2.5670    1.1570   12.5920 C   0  0  0  0  0  0
   -3.9280   -0.3230   11.2320 C   0  0  0  0  0  0
   -4.2980   -0.9560   10.0050 C   0  0  0  0  0  0
   -5.3830   -1.9000    9.8890 N   0  0  0  0  0  0
   -5.8110   -2.3570    8.6160 C   0  0  0  0  0  0
   -6.2170   -2.1590   10.9360 C   0  0  0  0  0  0
   -5.9960   -3.4360   11.7130 C   0  0  2  0  0  0
   -5.6350   -4.6040   11.1080 O   0  0  0  0  0  0
   -6.2720   -3.4100   13.1580 C   0  0  2  0  0  0
   -6.0480   -2.1900   13.8180 O   0  0  0  0  0  0
   -6.1260   -4.6200   14.0400 C   0  0  2  0  0  0
   -6.0360   -5.9010   13.4640 O   0  0  0  0  0  0
   -6.4760   -4.5560   15.4490 C   0  0  0  0  0  0
   -7.9340   -4.6120   15.3980 O   0  0  0  0  0  0
   -8.9270   -3.3940   15.8300 P   0  0  0  0  0  0
   -8.7390   -3.2910   17.2650 O   0  0  0  0  0  0
  -10.2480   -3.8600   15.3420 O   0  5  0  0  0  0
   -8.4390   -2.1320   15.2260 O   0  5  0  0  0  0
   -7.0860   -3.0335    5.0077 H   0  0  0  0  0  0
   -2.0930    0.6417    7.9263 H   0  0  0  0  0  0
   -0.9378    2.3232    8.9260 H   0  0  0  0  0  0
   -0.4752    2.0777   10.6443 H   0  0  0  0  0  0
   -1.8569    3.1483   10.2303 H   0  0  0  0  0  0
   -1.7740    1.9113   12.4819 H   0  0  0  0  0  0
   -2.2024    0.3305   13.2197 H   0  0  0  0  0  0
   -3.4470    1.6166   13.0657 H   0  0  0  0  0  0
   -4.4298   -0.5998   12.1592 H   0  0  0  0  0  0
   -6.1344   -1.3519   11.6789 H   0  0  0  0  0  0
   -7.2537   -2.2185   10.5730 H   0  0  0  0  0  0
   -5.2544   -4.1722   11.3695 H   0  0  0  0  0  0
   -5.4288   -4.6230   10.0277 H   0  0  0  0  0  0
   -7.3595   -3.3831   12.9947 H   0  0  0  0  0  0
   -6.1293   -1.2425   13.2651 H   0  0  0  0  0  0
   -5.0341   -4.6012   14.1718 H   0  0  0  0  0  0
   -5.7745   -6.0089   12.4010 H   0  0  0  0  0  0
   -6.0287   -5.4110   15.9771 H   0  0  0  0  0  0
   -6.0941   -3.6185   15.8795 H   0  0  0  0  0  0
  1  2  1  0  0  0
  1 18  2  0  0  0
  2  3  2  0  0  0
  2  4  1  0  0  0
  4  5  1  0  0  0
  4 32  1  0  0  0
  5  6  2  0  0  0
  5  7  1  0  0  0
  7  8  2  0  0  0
  7 18  1  0  0  0
  8  9  1  0  0  0
  9 10  2  0  0  0
  9 16  1  0  0  0
 10 11  1  0  0  0
 10 33  1  0  0  0
 11 12  1  0  0  0
 11 13  2  0  0  0
 12 34  1  0  0  0
 12 35  1  0  0  0
 12 36  1  0  0  0
 13 14  1  0  0  0
 13 15  1  0  0  0
 14 37  1  0  0  0
 14 38  1  0  0  0
 14 39  1  0  0  0
 15 16  2  0  0  0
 15 40  1  0  0  0
 16 17  1  0  0  0
 17 18  1  0  0  0
 17 19  1  0  0  0
 19 20  1  0  0  0
 19 41  1  0  0  0
 19 42  1  0  0  0
 20 21  1  0  0  0
 20 22  1  0  0  0
 20 43  1  0  0  0
 21 44  1  0  0  0
 22 23  1  0  0  0
 22 24  1  0  0  0
 22 45  1  0  0  0
 23 46  1  0  0  0
 24 25  1  0  0  0
 24 26  1  0  0  0
 24 47  1  0  0  0
 25 48  1  0  0  0
 26 27  1  0  0  0
 26 49  1  0  0  0
 26 50  1  0  0  0
 27 28  1  0  0  0
 28 29  2  0  0  0
 28 30  1  0  0  0
 28 31  1  0  0  0
M  CHG  2  30  -1  31  -1
M  END
> <s_m_source_file>
../1bkj_ligand.sdf

> <i_m_source_file_index>
1

> <s_epik_input>
Tz1jMVtuSF1jKD1PKW5jKGMxMiluKGMzYyhuMilbY0hdYyhbQ0gzXSljKFtDSDNdKVtjSF0zKVtDSDJdW0NASF0oW09IXSlbQ0BIXShbT0hdKVtDQEhdKFtPSF0pW0NIMl1PUCg9TykoW09IXSlbT0hd

> <s_epik_cmdline>
J2VwaWtfYXBwJywgJy1pbWFlJywgJ2xpZ2FuZF9wcm8ubWFlJywgJy1vbWFlJywgJ2xpZ2FuZF9wcmVwLm1hZScsICctbXMnLCAnMScsICctcGgnLCAnNycsICctcGh0JywgJzAuNScsICctbnQn

> <r_epik_Ionization_Penalty>
  0.1164

> <r_epik_Ionization_Penalty_Charging>
  0.1164

> <r_epik_Ionization_Penalty_Neutral>
  0.0000

> <r_epik_State_Penalty>
  0.1054

> <r_epik_Charging_Adjusted_Penalty>
0.2218027979184

> <i_epik_Tot_Q>
-2

> <i_epik_Tot_abs_Q>
2

$$$$
