1bkm_ligand
                    3D
 Schrodinger Suite 2020-3.
 77 78  0  0  1  0            999 V2000
    0.0490   17.6680   19.9580 C   0  0  0  0  0  0
    0.5130   19.1040   19.7090 C   0  0  0  0  0  0
    1.9840   19.1670   19.2470 C   0  0  0  0  0  0
    2.9170   18.4970   20.2730 C   0  0  0  0  0  0
    2.4670   17.0430   20.4580 C   0  0  0  0  0  0
    0.9990   16.9450   20.9150 C   0  0  0  0  0  0
    4.4180   18.6760   19.9350 C   0  0  0  0  0  0
    5.3910   18.0650   20.9530 C   0  0  0  0  0  0
    6.8810   18.0570   20.5390 C   0  0  2  0  0  0
    7.6150   19.3210   20.9890 C   0  0  0  0  0  0
    7.3440   16.5630   18.8950 C   0  0  0  0  0  0
    7.5680   16.4630   17.2550 C   0  0  2  0  0  0
    6.2560   16.5090   16.5900 C   0  0  0  0  0  0
    6.4170   16.2580   15.0930 C   0  0  0  0  0  0
    7.1380   17.4500   14.4580 C   0  0  0  0  0  0
    9.4820   14.9260   17.4440 C   0  0  0  0  0  0
   10.1690   13.5830   17.2000 C   0  0  2  0  0  0
    9.8100   12.6180   18.3570 C   0  0  0  0  0  0
   10.2920   11.1730   18.1650 C   0  0  0  0  0  0
    9.5900   10.2970   17.3210 C   0  0  0  0  0  0
   10.0210    8.9640   17.1990 C   0  0  0  0  0  0
   11.1380    8.5110   17.9250 C   0  0  0  0  0  0
   11.8360    9.3820   18.7740 C   0  0  0  0  0  0
   11.4280   10.7210   18.8670 C   0  0  0  0  0  0
   12.1110   13.5990   15.8540 C   0  0  0  0  0  0
   13.6130   13.8620   15.7380 C   0  0  0  0  0  0
    8.7180   19.6270   20.3290 N   0  0  0  0  0  0
    7.0850   17.6560   19.0960 N   0  0  0  0  0  0
    8.3550   15.1370   16.7650 N   0  0  0  0  0  0
   11.6200   13.7530   17.0710 N   0  0  0  0  0  0
    7.2270   19.9610   21.9390 O   0  0  0  0  0  0
    7.3860   15.7290   19.6420 O   0  0  0  0  0  0
    8.1760   17.2500   13.8290 O   0  5  0  0  0  0
    6.6930   18.5670   14.5280 O   0  0  0  0  0  0
    9.9490   15.7270   18.2410 O   0  0  0  0  0  0
   11.4190   13.2160   14.9150 O   0  0  0  0  0  0
   11.5880    7.1800   17.7840 O   0  0  0  0  0  0
   12.0490    7.7110   15.3880 O   0  5  0  0  0  0
   12.2410    5.4440   16.1350 O   0  5  0  0  0  0
   13.8830    7.0840   16.8590 O   0  0  0  0  0  0
   12.4560    6.8530   16.5450 P   0  0  0  0  0  0
   -0.9577   17.6796   20.4011 H   0  0  0  0  0  0
    0.0236   17.1203   19.0044 H   0  0  0  0  0  0
   -0.1114   19.5607   18.9270 H   0  0  0  0  0  0
    0.4206   19.6855   20.6381 H   0  0  0  0  0  0
    2.0885   18.6459   18.2839 H   0  0  0  0  0  0
    2.2869   20.2180   19.1300 H   0  0  0  0  0  0
    2.8194   18.9972   21.2478 H   0  0  0  0  0  0
    2.5657   16.5044   19.5039 H   0  0  0  0  0  0
    3.0961   16.5585   21.2193 H   0  0  0  0  0  0
    0.9214   17.3929   21.9167 H   0  0  0  0  0  0
    0.7268   15.8805   20.9673 H   0  0  0  0  0  0
    4.6353   18.1999   18.9674 H   0  0  0  0  0  0
    4.6556   19.7485   19.8775 H   0  0  0  0  0  0
    5.3371   18.6290   21.8959 H   0  0  0  0  0  0
    5.1177   17.0156   21.1373 H   0  0  0  0  0  0
    7.3944   17.2468   21.0776 H   0  0  0  0  0  0
    8.1249   17.3404   16.8944 H   0  0  0  0  0  0
    5.6011   15.7353   17.0172 H   0  0  0  0  0  0
    5.8019   17.4991   16.7430 H   0  0  0  0  0  0
    7.0071   15.3430   14.9360 H   0  0  0  0  0  0
    5.4252   16.1382   14.6325 H   0  0  0  0  0  0
    9.8603   13.1653   16.2304 H   0  0  0  0  0  0
   10.2630   12.9812   19.2913 H   0  0  0  0  0  0
    8.7169   12.5743   18.4723 H   0  0  0  0  0  0
    8.7196   10.6469   16.7660 H   0  0  0  0  0  0
    9.4878    8.2791   16.5396 H   0  0  0  0  0  0
   12.6856    9.0228   19.3548 H   0  0  0  0  0  0
   11.9935   11.4170   19.4866 H   0  0  0  0  0  0
   14.0031   14.1950   16.7111 H   0  0  0  0  0  0
   13.7913   14.6434   14.9846 H   0  0  0  0  0  0
   14.1249   12.9368   15.4349 H   0  0  0  0  0  0
    9.0325   19.0158   19.4702 H   0  0  0  0  0  0
    9.3217   20.4929   20.6383 H   0  0  0  0  0  0
    6.9820   18.4052   18.2971 H   0  0  0  0  0  0
    7.9432   14.5223   15.9510 H   0  0  0  0  0  0
   12.2265   13.9934   17.9566 H   0  0  0  0  0  0
  1  2  1  0  0  0
  1  6  1  0  0  0
  1 42  1  0  0  0
  1 43  1  0  0  0
  2  3  1  0  0  0
  2 44  1  0  0  0
  2 45  1  0  0  0
  3  4  1  0  0  0
  3 46  1  0  0  0
  3 47  1  0  0  0
  4  5  1  0  0  0
  4  7  1  0  0  0
  4 48  1  0  0  0
  5  6  1  0  0  0
  5 49  1  0  0  0
  5 50  1  0  0  0
  6 51  1  0  0  0
  6 52  1  0  0  0
  7  8  1  0  0  0
  7 53  1  0  0  0
  7 54  1  0  0  0
  8  9  1  0  0  0
  8 55  1  0  0  0
  8 56  1  0  0  0
  9 10  1  0  0  0
  9 28  1  0  0  0
  9 57  1  0  0  0
 10 27  1  0  0  0
 10 31  2  0  0  0
 11 12  1  0  0  0
 11 28  1  0  0  0
 11 32  2  0  0  0
 12 13  1  0  0  0
 12 29  1  0  0  0
 12 58  1  0  0  0
 13 14  1  0  0  0
 13 59  1  0  0  0
 13 60  1  0  0  0
 14 15  1  0  0  0
 14 61  1  0  0  0
 14 62  1  0  0  0
 15 33  1  0  0  0
 15 34  2  0  0  0
 16 17  1  0  0  0
 16 29  1  0  0  0
 16 35  2  0  0  0
 17 18  1  0  0  0
 17 30  1  0  0  0
 17 63  1  0  0  0
 18 19  1  0  0  0
 18 64  1  0  0  0
 18 65  1  0  0  0
 19 20  2  0  0  0
 19 24  1  0  0  0
 20 21  1  0  0  0
 20 66  1  0  0  0
 21 22  2  0  0  0
 21 67  1  0  0  0
 22 23  1  0  0  0
 22 37  1  0  0  0
 23 24  2  0  0  0
 23 68  1  0  0  0
 24 69  1  0  0  0
 25 26  1  0  0  0
 25 30  1  0  0  0
 25 36  2  0  0  0
 26 70  1  0  0  0
 26 71  1  0  0  0
 26 72  1  0  0  0
 27 73  1  0  0  0
 27 74  1  0  0  0
 28 75  1  0  0  0
 29 76  1  0  0  0
 30 77  1  0  0  0
 37 41  1  0  0  0
 38 41  1  0  0  0
 39 41  1  0  0  0
 40 41  2  0  0  0
M  CHG  3  33  -1  38  -1  39  -1
M  END
> <s_m_source_file>
../1bkm_ligand.sdf

> <i_m_source_file_index>
1

> <s_epik_input>
W0NIMl0xW0NIMl1bQ0gyXVtDSDJdW0NIMl1bQ0hdMVtDSDJdW0NIMl1bQ0BIXShDKD1PKVtOSDJdKVtOSF1DKD1PKVtDQEhdKFtDSDJdW0NIMl1DKD1PKVtPSF0pW05IXUMoPU8pW0NAQEhdKFtOSF1DKD1PKVtDSDNdKVtDSDJdYzJbY0hdW2NIXWMoW2NIXVtjSF0yKU9QKD1PKShbT0hdKVtPSF0=

> <s_epik_cmdline>
J2VwaWtfYXBwJywgJy1pbWFlJywgJ2xpZ2FuZF9wcm8ubWFlJywgJy1vbWFlJywgJ2xpZ2FuZF9wcmVwLm1hZScsICctbXMnLCAnMScsICctcGgnLCAnNycsICctcGh0JywgJzAuNScsICctbnQn

> <r_epik_Ionization_Penalty>
  0.0860

> <r_epik_Ionization_Penalty_Charging>
  0.0860

> <r_epik_Ionization_Penalty_Neutral>
  0.0000

> <r_epik_State_Penalty>
  0.0749

> <r_epik_Charging_Adjusted_Penalty>
0.160808924584229

> <i_epik_Tot_Q>
-3

> <i_epik_Tot_abs_Q>
3

$$$$
