1bl4_ligand
                    3D
 Schrodinger Suite 2020-3.
 96 99  0  0  1  0            999 V2000
    6.5130    1.1850   -3.4200 C   0  0  0  0  0  0
    5.0160    1.5050   -3.4870 C   0  0  2  0  0  0
    4.0720    0.7010   -2.5580 C   0  0  0  0  0  0
    4.0060   -0.7900   -3.0250 C   0  0  0  0  0  0
    3.4390   -0.8850   -4.4630 C   0  0  0  0  0  0
    4.3100   -0.0500   -5.4230 C   0  0  0  0  0  0
    4.4860    2.4000   -5.7520 C   0  0  0  0  0  0
    4.0740    2.1860   -7.2080 C   0  0  2  0  0  0
    5.2780    1.7120   -8.0250 C   0  0  0  0  0  0
    6.4360    2.5060   -8.1080 C   0  0  0  0  0  0
    7.5810    2.0460   -8.7940 C   0  0  0  0  0  0
    7.5420    0.7970   -9.4140 C   0  0  0  0  0  0
    6.3750    0.0000   -9.3550 C   0  0  0  0  0  0
    6.3520   -1.2400   -9.9810 O   0  0  0  0  0  0
    2.0590    3.7820   -7.1820 C   0  0  0  0  0  0
    8.7460    2.8080   -8.8680 O   0  0  0  0  0  0
    5.3220   -2.1900   -9.6560 C   0  0  0  0  0  0
    8.7060    0.6920  -11.4940 C   0  0  0  0  0  0
    8.8100    4.0970   -8.2310 C   0  0  0  0  0  0
   12.4770    1.2830    1.2960 C   0  0  0  0  0  0
    8.2750   -1.2250   -6.5440 C   0  0  0  0  0  0
    8.2480   -2.5460   -7.0220 C   0  0  0  0  0  0
    8.4320   -3.6130   -6.1390 C   0  0  0  0  0  0
    8.4890   -0.9420   -5.1890 C   0  0  0  0  0  0
    8.4950    0.4960   -4.6400 C   0  0  1  0  0  0
    9.3220    1.4810   -5.5120 C   0  0  0  0  0  0
   10.8290    1.4840   -5.1660 C   0  0  0  0  0  0
   11.1830    1.6610   -3.6810 C   0  0  0  0  0  0
   11.3100    2.9570   -3.1730 C   0  0  0  0  0  0
   11.6380    3.1750   -1.8220 C   0  0  0  0  0  0
   11.8430    2.0830   -0.9640 C   0  0  0  0  0  0
   11.7160    0.7820   -1.4670 C   0  0  0  0  0  0
   11.3890    0.5790   -2.8110 C   0  0  0  0  0  0
    8.6500   -3.3630   -4.7680 C   0  0  0  0  0  0
    8.8190   -4.4130   -3.8280 O   0  0  0  0  0  0
    9.9960   -5.2510   -3.7220 C   0  0  0  0  0  0
   10.4530   -5.6720   -5.1030 C   0  0  0  0  0  0
   11.5000   -5.1490   -5.5780 O   0  0  0  0  0  0
    9.7610   -6.5390   -5.7260 O   0  5  0  0  0  0
    8.6770   -2.0240   -4.3100 C   0  0  0  0  0  0
   11.1230    5.5950   -1.8920 C   0  0  0  0  0  0
    4.5320    1.3440   -4.9000 N   0  0  0  0  0  0
    7.0840    0.8510   -4.5990 O   0  0  0  0  0  0
    7.0900    1.2300   -2.3480 O   0  0  0  0  0  0
    4.7630    3.5220   -5.3860 O   0  0  0  0  0  0
    3.4470    3.4820   -7.8060 C   0  0  0  0  0  0
    5.2510    0.4690   -8.6630 C   0  0  0  0  0  0
    8.6710    0.3420  -10.0960 O   0  0  0  0  0  0
   11.7730    4.4680   -1.2870 O   0  0  0  0  0  0
   12.1730    2.3510    0.3760 O   0  0  0  0  0  0
    4.9599    2.5499   -3.1479 H   0  0  0  0  0  0
    4.4515    0.7410   -1.5263 H   0  0  0  0  0  0
    3.0628    1.1370   -2.5946 H   0  0  0  0  0  0
    5.0168   -1.2238   -3.0107 H   0  0  0  0  0  0
    3.3534   -1.3584   -2.3460 H   0  0  0  0  0  0
    3.4416   -1.9354   -4.7895 H   0  0  0  0  0  0
    2.4090   -0.4992   -4.4773 H   0  0  0  0  0  0
    5.2898   -0.5350   -5.5448 H   0  0  0  0  0  0
    3.8122    0.0216   -6.4013 H   0  0  0  0  0  0
    3.3148    1.3907   -7.2395 H   0  0  0  0  0  0
    6.4496    3.4888   -7.6368 H   0  0  0  0  0  0
    1.6480    4.7005   -7.6263 H   0  0  0  0  0  0
    2.1668    3.9166   -6.0956 H   0  0  0  0  0  0
    1.3779    2.9416   -7.3816 H   0  0  0  0  0  0
    5.4679   -3.1057  -10.2477 H   0  0  0  0  0  0
    4.3376   -1.7569   -9.8872 H   0  0  0  0  0  0
    5.3729   -2.4338   -8.5846 H   0  0  0  0  0  0
    9.6256    0.2947  -11.9485 H   0  0  0  0  0  0
    8.6888    1.7869  -11.5984 H   0  0  0  0  0  0
    7.8303    0.2614  -12.0018 H   0  0  0  0  0  0
    9.8024    4.5405   -8.3997 H   0  0  0  0  0  0
    8.6391    3.9809   -7.1506 H   0  0  0  0  0  0
    8.0374    4.7547   -8.6559 H   0  0  0  0  0  0
   12.7067    1.7055    2.2853 H   0  0  0  0  0  0
   13.3461    0.7181    0.9277 H   0  0  0  0  0  0
   11.6101    0.6107    1.3767 H   0  0  0  0  0  0
    8.1261   -0.4022   -7.2432 H   0  0  0  0  0  0
    8.0834   -2.7384   -8.0822 H   0  0  0  0  0  0
    8.4071   -4.6379   -6.5093 H   0  0  0  0  0  0
    8.9265    0.5677   -3.6307 H   0  0  0  0  0  0
    9.2253    1.2024   -6.5717 H   0  0  0  0  0  0
    8.9459    2.5044   -5.3661 H   0  0  0  0  0  0
   11.2776    0.5278   -5.4733 H   0  0  0  0  0  0
   11.3255    2.3095   -5.6971 H   0  0  0  0  0  0
   11.1528    3.8106   -3.8324 H   0  0  0  0  0  0
   11.8723   -0.0733   -0.8097 H   0  0  0  0  0  0
   11.2922   -0.4383   -3.1903 H   0  0  0  0  0  0
   10.8025   -4.6895   -3.2278 H   0  0  0  0  0  0
    9.7564   -6.1465   -3.1298 H   0  0  0  0  0  0
    8.8474   -1.8267   -3.2516 H   0  0  0  0  0  0
   11.3582    6.5046   -1.3199 H   0  0  0  0  0  0
   10.0349    5.4336   -1.8931 H   0  0  0  0  0  0
   11.4776    5.7107   -2.9268 H   0  0  0  0  0  0
    4.1106    4.3363   -7.6062 H   0  0  0  0  0  0
    3.3217    3.3613   -8.8922 H   0  0  0  0  0  0
    4.3482   -0.1404   -8.6218 H   0  0  0  0  0  0
  1 44  2  0  0  0
  1 43  1  0  0  0
  1  2  1  0  0  0
  2 42  1  0  0  0
  2  3  1  0  0  0
  2 51  1  0  0  0
  3  4  1  0  0  0
  3 52  1  0  0  0
  3 53  1  0  0  0
  4  5  1  0  0  0
  4 54  1  0  0  0
  4 55  1  0  0  0
  5  6  1  0  0  0
  5 56  1  0  0  0
  5 57  1  0  0  0
  6 42  1  0  0  0
  6 58  1  0  0  0
  6 59  1  0  0  0
  7 42  1  0  0  0
  7 45  2  0  0  0
  7  8  1  0  0  0
  8 46  1  0  0  0
  8  9  1  0  0  0
  8 60  1  0  0  0
  9 47  2  0  0  0
  9 10  1  0  0  0
 10 11  2  0  0  0
 10 61  1  0  0  0
 11 16  1  0  0  0
 11 12  1  0  0  0
 12 48  1  0  0  0
 12 13  2  0  0  0
 13 47  1  0  0  0
 13 14  1  0  0  0
 14 17  1  0  0  0
 15 46  1  0  0  0
 15 62  1  0  0  0
 15 63  1  0  0  0
 15 64  1  0  0  0
 16 19  1  0  0  0
 17 65  1  0  0  0
 17 66  1  0  0  0
 17 67  1  0  0  0
 18 48  1  0  0  0
 18 68  1  0  0  0
 18 69  1  0  0  0
 18 70  1  0  0  0
 19 71  1  0  0  0
 19 72  1  0  0  0
 19 73  1  0  0  0
 20 50  1  0  0  0
 20 74  1  0  0  0
 20 75  1  0  0  0
 20 76  1  0  0  0
 21 24  1  0  0  0
 21 22  2  0  0  0
 21 77  1  0  0  0
 22 23  1  0  0  0
 22 78  1  0  0  0
 23 34  2  0  0  0
 23 79  1  0  0  0
 24 25  1  0  0  0
 24 40  2  0  0  0
 25 43  1  0  0  0
 25 26  1  0  0  0
 25 80  1  0  0  0
 26 27  1  0  0  0
 26 81  1  0  0  0
 26 82  1  0  0  0
 27 28  1  0  0  0
 27 83  1  0  0  0
 27 84  1  0  0  0
 28 33  2  0  0  0
 28 29  1  0  0  0
 29 30  2  0  0  0
 29 85  1  0  0  0
 30 49  1  0  0  0
 30 31  1  0  0  0
 31 50  1  0  0  0
 31 32  2  0  0  0
 32 33  1  0  0  0
 32 86  1  0  0  0
 33 87  1  0  0  0
 34 40  1  0  0  0
 34 35  1  0  0  0
 35 36  1  0  0  0
 36 37  1  0  0  0
 36 88  1  0  0  0
 36 89  1  0  0  0
 37 39  1  0  0  0
 37 38  2  0  0  0
 40 90  1  0  0  0
 41 49  1  0  0  0
 41 91  1  0  0  0
 41 92  1  0  0  0
 41 93  1  0  0  0
 46 94  1  0  0  0
 46 95  1  0  0  0
 47 96  1  0  0  0
M  CHG  1  39  -1
M  END
> <s_m_source_file>
../1bl4_ligand.sdf

> <i_m_source_file_index>
1

> <s_epik_input>
Tz1DKFtPSF0pW0NIMl1PYyhbY0hdMSlbY0hdW2NIXVtjSF1jMVtDQEBIXShbQ0gyXVtDSDJdYzJbY0hdYyhPW0NIM10pYyhbY0hdW2NIXTIpT1tDSDNdKU9DKD1PKVtDQEBIXTNbQ0gyXVtDSDJdW0NIMl1bQ0gyXU4zQyg9TylbQ0BASF0oW0NIMl1bQ0gzXSljNFtjSF1jKE9bQ0gzXSljKE9bQ0gzXSljKFtjSF00KU9bQ0gzXQ==

> <s_epik_cmdline>
J2VwaWtfYXBwJywgJy1pbWFlJywgJ2xpZ2FuZF9wcm8ubWFlJywgJy1vbWFlJywgJ2xpZ2FuZF9wcmVwLm1hZScsICctbXMnLCAnMScsICctcGgnLCAnNycsICctcGh0JywgJzAuNScsICctbnQn

> <r_lp_tautomer_probability>
1

> <r_epik_Ionization_Penalty>
  0.0001

> <r_epik_Ionization_Penalty_Charging>
  0.0001

> <r_epik_Ionization_Penalty_Neutral>
  0.0000

> <r_epik_State_Penalty>
 -0.0000

> <r_epik_Charging_Adjusted_Penalty>
8.31283462220233e-05

> <i_epik_Tot_Q>
-1

> <i_epik_Tot_abs_Q>
1

> <s_epik_Chemistry_Notes>
This compound has an ester and may undergo hydrolysis at high or low pH.

$$$$
