1bl7_ligand
                    3D
 Schrodinger Suite 2020-3.
 45 48  0  0  1  0            999 V2000
   -0.7150   13.9340   31.0480 C   0  0  0  0  0  0
   -2.2560   14.0530   31.0450 C   0  0  0  0  0  0
   -2.7750   15.2930   30.3480 N   0  3  0  0  0  0
   -2.1910   15.6130   28.9920 C   0  0  0  0  0  0
   -0.6460   15.4360   28.9680 C   0  0  0  0  0  0
   -0.1460   14.1020   29.6150 C   0  0  0  0  0  0
    5.3620   11.7460   28.8610 C   0  0  0  0  0  0
    6.5890   11.0630   29.0130 C   0  0  0  0  0  0
    7.3730   11.2740   30.1640 C   0  0  0  0  0  0
    6.9400   12.1690   31.1760 C   0  0  0  0  0  0
    5.7110   12.8560   31.0300 C   0  0  0  0  0  0
    4.8890   12.6620   29.8690 C   0  0  0  0  0  0
    8.5510   10.6150   30.3030 F   0  0  0  0  0  0
    2.2910   10.5090   30.5950 C   0  0  0  0  0  0
    1.7660   11.5090   29.6870 C   0  0  0  0  0  0
    0.7890   11.1550   28.7880 N   0  0  0  0  0  0
    0.3490    9.8990   28.7720 C   0  0  0  0  0  0
    0.7740    8.9170   29.5640 N   0  0  0  0  0  0
    1.7370    9.2020   30.4730 C   0  0  0  0  0  0
   -0.5830    9.6050   27.9020 N   0  0  0  0  0  0
    1.3580   13.9970   29.6610 N   0  0  0  0  0  0
    2.2980   15.0140   29.6890 C   0  0  0  0  0  0
    3.6240   14.7740   29.7430 N   0  0  0  0  0  0
    3.6470   13.3730   29.7540 C   0  0  0  0  0  0
    2.2430   12.8750   29.6980 C   0  0  0  0  0  0
   -0.4369   12.9443   31.4392 H   0  0  0  0  0  0
   -0.3006   14.7161   31.7011 H   0  0  0  0  0  0
   -2.6898   13.1840   30.5286 H   0  0  0  0  0  0
   -2.6234   14.0847   32.0814 H   0  0  0  0  0  0
   -3.8590   15.1969   30.1877 H   0  0  0  0  0  0
   -2.5736   16.1760   30.9723 H   0  0  0  0  0  0
   -2.6259   14.9409   28.2376 H   0  0  0  0  0  0
   -2.4218   16.6562   28.7303 H   0  0  0  0  0  0
   -0.2923   15.4432   27.9265 H   0  0  0  0  0  0
   -0.1737   16.2611   29.5213 H   0  0  0  0  0  0
   -0.4837   13.2782   28.9690 H   0  0  0  0  0  0
    4.7625   11.5777   27.9664 H   0  0  0  0  0  0
    6.9288   10.3733   28.2404 H   0  0  0  0  0  0
    7.5522   12.3273   32.0638 H   0  0  0  0  0  0
    5.3838   13.5426   31.8108 H   0  0  0  0  0  0
    3.0636   10.7428   31.3275 H   0  0  0  0  0  0
    2.0979    8.4099   31.1290 H   0  0  0  0  0  0
   -0.9679   10.3816   27.2247 H   0  0  0  0  0  0
   -0.9817    8.5812   27.8479 H   0  0  0  0  0  0
    1.9528   16.0477   29.6665 H   0  0  0  0  0  0
  1  6  1  0  0  0
  1  2  1  0  0  0
  1 26  1  0  0  0
  1 27  1  0  0  0
  2  3  1  0  0  0
  2 28  1  0  0  0
  2 29  1  0  0  0
  3  4  1  0  0  0
  3 30  1  0  0  0
  3 31  1  0  0  0
  4  5  1  0  0  0
  4 32  1  0  0  0
  4 33  1  0  0  0
  5  6  1  0  0  0
  5 34  1  0  0  0
  5 35  1  0  0  0
  6 21  1  0  0  0
  6 36  1  0  0  0
  7 12  1  0  0  0
  7  8  2  0  0  0
  7 37  1  0  0  0
  8  9  1  0  0  0
  8 38  1  0  0  0
  9 13  1  0  0  0
  9 10  2  0  0  0
 10 11  1  0  0  0
 10 39  1  0  0  0
 11 12  2  0  0  0
 11 40  1  0  0  0
 12 24  1  0  0  0
 14 15  1  0  0  0
 14 19  2  0  0  0
 14 41  1  0  0  0
 15 25  1  0  0  0
 15 16  2  0  0  0
 16 17  1  0  0  0
 17 18  2  0  0  0
 17 20  1  0  0  0
 18 19  1  0  0  0
 19 42  1  0  0  0
 20 43  1  0  0  0
 20 44  1  0  0  0
 21 25  1  0  0  0
 21 22  1  0  0  0
 22 23  2  0  0  0
 22 45  1  0  0  0
 23 24  1  0  0  0
 24 25  2  0  0  0
M  CHG  1   3   1
M  END
> <s_m_source_file>
../1bl7_ligand.sdf

> <i_m_source_file_index>
1

> <s_epik_input>
W0NIMl0xW0NIMl1bTkgyK11bQ0gyXVtDSDJdW0NIXTFuMltjSF1uYygtYyhbY0hdW2NIXTMpW2NIXVtjSF1jM0YpYzItYzRbY0hdW2NIXW5jKG40KVtOSDJd

> <s_epik_cmdline>
J2VwaWtfYXBwJywgJy1pbWFlJywgJ2xpZ2FuZF9wcm8ubWFlJywgJy1vbWFlJywgJ2xpZ2FuZF9wcmVwLm1hZScsICctbXMnLCAnMScsICctcGgnLCAnNycsICctcGh0JywgJzAuNScsICctbnQn

> <r_lp_tautomer_probability>
1

> <r_epik_Ionization_Penalty>
  0.0077

> <r_epik_Ionization_Penalty_Charging>
  0.0071

> <r_epik_Ionization_Penalty_Neutral>
  0.0005

> <r_epik_State_Penalty>
 -0.0000

> <r_epik_Charging_Adjusted_Penalty>
0.00714851862785632

> <i_epik_Tot_Q>
1

> <i_epik_Tot_abs_Q>
1

$$$$
