1bm2_ligand
                    3D
 Schrodinger Suite 2020-3.
111112  0  0  1  0            999 V2000
   35.4540   27.7120   22.8160 C   0  0  0  0  0  0
   35.6410   28.6930   22.0890 O   0  0  0  0  0  0
   34.6570   27.8440   24.1000 C   0  0  0  0  0  0
   35.9300   26.4970   22.5490 N   0  0  0  0  0  0
   36.7080   26.1910   21.3590 C   0  0  1  0  0  0
   37.9670   25.4240   21.7290 C   0  0  0  0  0  0
   39.0610   26.2590   22.8870 S   0  0  0  0  0  0
   39.3040   27.8400   22.0480 C   0  0  0  0  0  0
   40.5490   27.9090   21.1710 C   0  0  0  0  0  0
   40.3500   27.1840   19.9170 N   0  0  0  0  0  0
   35.8790   25.3380   20.4100 C   0  0  0  0  0  0
   35.1690   24.4140   20.8300 O   0  0  0  0  0  0
   35.9850   25.6380   19.1240 N   0  3  0  0  0  0
   35.2310   24.9020   18.1280 C   0  0  2  0  0  0
   36.1270   24.4840   16.9810 C   0  0  0  0  0  0
   37.2350   24.9910   16.8400 O   0  0  0  0  0  0
   34.0670   25.7520   17.6330 C   0  0  0  0  0  0
   33.0930   26.1350   18.7300 C   0  0  0  0  0  0
   31.9110   25.4300   18.9200 C   0  0  0  0  0  0
   33.3370   27.2310   19.5530 C   0  0  0  0  0  0
   30.9870   25.8160   19.8990 C   0  0  0  0  0  0
   32.4200   27.6200   20.5370 C   0  0  0  0  0  0
   31.2480   26.9170   20.7010 C   0  0  0  0  0  0
   30.2860   27.3970   21.6040 O   0  0  0  0  0  0
   29.7000   26.4850   22.7420 P   0  0  0  0  0  0
   30.2160   27.0720   24.0820 O   0  5  0  0  0  0
   30.1810   25.0280   22.5510 O   0  5  0  0  0  0
   28.1610   26.5680   22.6730 O   0  0  0  0  0  0
   35.6540   23.5410   16.1770 N   0  0  0  0  0  0
   36.4170   23.0580   15.0410 C   0  0  2  0  0  0
   36.7320   24.2130   14.0900 C   0  0  0  0  0  0
   37.8790   24.3750   13.6740 O   0  0  0  0  0  0
   35.6530   21.9390   14.3000 C   0  0  0  0  0  0
   36.3890   21.5380   13.0190 C   0  0  0  0  0  0
   35.4880   20.7330   15.2150 C   0  0  0  0  0  0
   35.7370   25.0580   13.8130 N   0  0  0  0  0  0
   35.9190   26.1940   12.9060 C   0  0  2  0  0  0
   36.5320   27.4350   13.5410 C   0  0  0  0  0  0
   36.8770   28.3850   12.8410 O   0  0  0  0  0  0
   34.6200   26.5410   12.1690 C   0  0  0  0  0  0
   33.4930   26.9030   13.1050 C   0  0  0  0  0  0
   33.3590   26.3290   14.1910 O   0  0  0  0  0  0
   32.6570   27.8390   12.6850 N   0  0  0  0  0  0
   36.5970   27.4610   14.8670 N   0  0  0  0  0  0
   37.2310   28.5670   15.5840 C   0  0  2  0  0  0
   37.9860   27.9350   16.7640 C   0  0  0  0  0  0
   37.4390   27.7930   17.8660 O   0  0  0  0  0  0
   36.2220   29.6200   16.1120 C   0  0  0  0  0  0
   36.9800   30.8220   16.6570 C   0  0  0  0  0  0
   35.2550   30.0610   15.0140 C   0  0  0  0  0  0
   39.2090   27.4280   16.5070 N   0  0  0  0  0  0
   40.0350   26.8000   17.5410 C   0  0  2  0  0  0
   40.2580   27.7530   18.7190 C   0  0  0  0  0  0
   40.3540   28.9730   18.5360 O   0  0  0  0  0  0
   41.3410   26.5230   16.7960 C   0  0  0  0  0  0
   40.8900   26.2690   15.4100 C   0  0  0  0  0  0
   39.9070   27.3880   15.2070 C   0  0  0  0  0  0
   34.3169   28.8838   24.2152 H   0  0  0  0  0  0
   35.2916   27.5688   24.9553 H   0  0  0  0  0  0
   33.7846   27.1751   24.0604 H   0  0  0  0  0  0
   35.7094   25.7056   23.2804 H   0  0  0  0  0  0
   36.9649   27.1609   20.9080 H   0  0  0  0  0  0
   37.6897   24.4671   22.1952 H   0  0  0  0  0  0
   38.5592   25.2320   20.8221 H   0  0  0  0  0  0
   38.4427   28.0448   21.3952 H   0  0  0  0  0  0
   39.3962   28.6415   22.7957 H   0  0  0  0  0  0
   40.7754   28.9599   20.9378 H   0  0  0  0  0  0
   41.3994   27.4606   21.7056 H   0  0  0  0  0  0
   40.2654   26.0873   19.9232 H   0  0  0  0  0  0
   35.9186   25.5550   19.3323 H   0  0  0  0  0  0
   35.3166   25.9316   19.9468 H   0  0  0  0  0  0
   36.4182   26.5386   18.6643 H   0  0  0  0  0  0
   36.7923   25.0022   19.5165 H   0  0  0  0  0  0
   34.8546   23.9975   18.6283 H   0  0  0  0  0  0
   34.4538   26.6836   17.1942 H   0  0  0  0  0  0
   33.5036   25.1940   16.8706 H   0  0  0  0  0  0
   31.6992   24.5615   18.2963 H   0  0  0  0  0  0
   34.2600   27.7974   19.4289 H   0  0  0  0  0  0
   30.0637   25.2518   20.0305 H   0  0  0  0  0  0
   32.6341   28.4791   21.1728 H   0  0  0  0  0  0
   34.6582   23.1240   16.3881 H   0  0  0  0  0  0
   37.3487   22.6590   15.4684 H   0  0  0  0  0  0
   34.6540   22.3042   14.0194 H   0  0  0  0  0  0
   36.5004   22.4185   12.3692 H   0  0  0  0  0  0
   35.8122   20.7638   12.4918 H   0  0  0  0  0  0
   37.3833   21.1435   13.2756 H   0  0  0  0  0  0
   34.9582   21.0367   16.1299 H   0  0  0  0  0  0
   36.4789   20.3355   15.4799 H   0  0  0  0  0  0
   34.9078   19.9557   14.6961 H   0  0  0  0  0  0
   34.7596   24.8833   14.2865 H   0  0  0  0  0  0
   36.6725   25.8016   12.2072 H   0  0  0  0  0  0
   34.7936   27.4007   11.5051 H   0  0  0  0  0  0
   34.2950   25.6763   11.5718 H   0  0  0  0  0  0
   32.8173   28.3222   11.7099 H   0  0  0  0  0  0
   31.8019   28.1337   13.3110 H   0  0  0  0  0  0
   36.1583   26.6220   15.4271 H   0  0  0  0  0  0
   37.8837   29.0705   14.8556 H   0  0  0  0  0  0
   35.6228   29.1781   16.9217 H   0  0  0  0  0  0
   37.6721   30.4921   17.4458 H   0  0  0  0  0  0
   36.2661   31.5468   17.0752 H   0  0  0  0  0  0
   37.5496   31.2957   15.8439 H   0  0  0  0  0  0
   34.7136   29.1845   14.6285 H   0  0  0  0  0  0
   35.8194   30.5324   14.1960 H   0  0  0  0  0  0
   34.5359   30.7836   15.4273 H   0  0  0  0  0  0
   39.5513   25.9028   17.9545 H   0  0  0  0  0  0
   41.9992   27.4011   16.8710 H   0  0  0  0  0  0
   41.8405   25.6510   17.2434 H   0  0  0  0  0  0
   41.7525   26.3179   14.7290 H   0  0  0  0  0  0
   40.4320   25.2706   15.3506 H   0  0  0  0  0  0
   39.1806   27.1821   14.4070 H   0  0  0  0  0  0
   40.3920   28.3577   15.0212 H   0  0  0  0  0  0
  1  2  2  0  0  0
  1  3  1  0  0  0
  1  4  1  0  0  0
  3 58  1  0  0  0
  3 59  1  0  0  0
  3 60  1  0  0  0
  4  5  1  0  0  0
  4 61  1  0  0  0
  5 11  1  0  0  0
  5  6  1  0  0  0
  5 62  1  0  0  0
  6  7  1  0  0  0
  6 63  1  0  0  0
  6 64  1  0  0  0
  7  8  1  0  0  0
  8  9  1  0  0  0
  8 65  1  0  0  0
  8 66  1  0  0  0
  9 10  1  0  0  0
  9 67  1  0  0  0
  9 68  1  0  0  0
 10 53  1  0  0  0
 10 69  1  0  0  0
 11 12  2  0  0  0
 11 70  1  0  0  0
 13 14  1  0  0  0
 13 71  1  0  0  0
 13 72  1  0  0  0
 13 73  1  0  0  0
 14 17  1  0  0  0
 14 15  1  0  0  0
 14 74  1  0  0  0
 15 16  2  0  0  0
 15 29  1  0  0  0
 17 18  1  0  0  0
 17 75  1  0  0  0
 17 76  1  0  0  0
 18 20  2  0  0  0
 18 19  1  0  0  0
 19 21  2  0  0  0
 19 77  1  0  0  0
 20 22  1  0  0  0
 20 78  1  0  0  0
 21 23  1  0  0  0
 21 79  1  0  0  0
 22 23  2  0  0  0
 22 80  1  0  0  0
 23 24  1  0  0  0
 24 25  1  0  0  0
 25 28  2  0  0  0
 25 27  1  0  0  0
 25 26  1  0  0  0
 29 30  1  0  0  0
 29 81  1  0  0  0
 30 31  1  0  0  0
 30 33  1  0  0  0
 30 82  1  0  0  0
 31 32  2  0  0  0
 31 36  1  0  0  0
 33 34  1  0  0  0
 33 35  1  0  0  0
 33 83  1  0  0  0
 34 84  1  0  0  0
 34 85  1  0  0  0
 34 86  1  0  0  0
 35 87  1  0  0  0
 35 88  1  0  0  0
 35 89  1  0  0  0
 36 37  1  0  0  0
 36 90  1  0  0  0
 37 38  1  0  0  0
 37 40  1  0  0  0
 37 91  1  0  0  0
 38 39  2  0  0  0
 38 44  1  0  0  0
 40 41  1  0  0  0
 40 92  1  0  0  0
 40 93  1  0  0  0
 41 42  2  0  0  0
 41 43  1  0  0  0
 43 94  1  0  0  0
 43 95  1  0  0  0
 44 45  1  0  0  0
 44 96  1  0  0  0
 45 46  1  0  0  0
 45 48  1  0  0  0
 45 97  1  0  0  0
 46 47  2  0  0  0
 46 51  1  0  0  0
 48 49  1  0  0  0
 48 50  1  0  0  0
 48 98  1  0  0  0
 49 99  1  0  0  0
 49100  1  0  0  0
 49101  1  0  0  0
 50102  1  0  0  0
 50103  1  0  0  0
 50104  1  0  0  0
 51 52  1  0  0  0
 51 57  1  0  0  0
 52 55  1  0  0  0
 52 53  1  0  0  0
 52105  1  0  0  0
 53 54  2  0  0  0
 55 56  1  0  0  0
 55106  1  0  0  0
 55107  1  0  0  0
 56 57  1  0  0  0
 56108  1  0  0  0
 56109  1  0  0  0
 57110  1  0  0  0
 57111  1  0  0  0
M  CHG  3  13   1  26  -1  27  -1
M  END
> <s_m_source_file>
../1bm2_ligand.sdf

> <i_m_source_file_index>
1

> <s_epik_input>
Tz1DKFtDSDNdKVtOSF1bQ0BIXShbQ0hdPU8pW0NIMl1TW0NIMl1bQ0gyXVtOSF1DKD1PKVtDQEhdKFtDSDJdW0NIMl1bQ0gyXTEpTjFDKD1PKVtDQEhdKFtDSF0oW0NIM10pW0NIM10pW05IXUMoPU8pW0NASF0oW0NIMl1DKD1PKVtOSDJdKVtOSF1DKD1PKVtDQEhdKFtDSF0oW0NIM10pW0NIM10pW05IXUMoPU8pW0NAQEhdKFtOSDMrXSlbQ0gyXWMyW2NIXVtjSF1jKFtjSF1bY0hdMilPUCg9TykoW09IXSlbT0hd

> <s_epik_cmdline>
J2VwaWtfYXBwJywgJy1pbWFlJywgJ2xpZ2FuZF9wcm8ubWFlJywgJy1vbWFlJywgJ2xpZ2FuZF9wcmVwLm1hZScsICctbXMnLCAnMScsICctcGgnLCAnNycsICctcGh0JywgJzAuNScsICctbnQn

> <r_lp_tautomer_probability>
1

> <r_epik_Ionization_Penalty>
  0.2736

> <r_epik_Ionization_Penalty_Charging>
  0.2710

> <r_epik_Ionization_Penalty_Neutral>
  0.0026

> <r_epik_State_Penalty>
 -0.0000

> <r_epik_Charging_Adjusted_Penalty>
0.271007622005506

> <i_epik_Tot_Q>
-1

> <i_epik_Tot_abs_Q>
3

$$$$
