1bm6_ligand
                    3D
 Schrodinger Suite 2020-3.
 50 51  0  0  1  0            999 V2000
   -1.6310    0.7510    0.8530 N   0  0  1  0  0  0
   -2.4850   -0.3800    0.4250 C   0  0  2  0  0  0
   -2.6800   -1.2620    1.6390 C   0  0  0  0  0  0
   -3.1730   -2.6440    1.2100 C   0  0  0  0  0  0
   -3.7090   -0.6140    2.5650 C   0  0  0  0  0  0
   -1.7960   -1.1870   -0.6890 C   0  0  0  0  0  0
   -0.6210   -1.0400   -0.9570 O   0  0  0  0  0  0
   -1.9810   -2.8210   -2.3560 O   0  0  0  0  0  0
   -2.5400   -2.0350   -1.3490 N   0  0  0  0  0  0
   -0.2070    0.3900    1.1270 C   0  0  0  0  0  0
    0.1120    0.7340    2.5600 C   0  0  0  0  0  0
   -0.7440    1.5370    3.2970 C   0  0  0  0  0  0
    1.2730    0.2410    3.1680 C   0  0  0  0  0  0
   -0.4090    1.8190    4.6120 C   0  0  0  0  0  0
    0.7730    1.2850    5.1410 C   0  0  0  0  0  0
    1.6060    0.5080    4.4380 N   0  0  0  0  0  0
   -1.8470    2.1640    0.0700 S   0  0  0  0  0  0
   -1.4340    3.1920    0.9660 O   0  0  0  0  0  0
   -3.2030    2.1710   -0.3540 O   0  0  0  0  0  0
   -0.8490    2.1840   -1.3690 C   0  0  0  0  0  0
   -1.4510    1.9840   -2.6060 C   0  0  0  0  0  0
    0.5190    2.4090   -1.2690 C   0  0  0  0  0  0
   -0.6800    2.0170   -3.7660 C   0  0  0  0  0  0
    1.3040    2.4340   -2.4280 C   0  0  0  0  0  0
    0.6990    2.2420   -3.6800 C   0  0  0  0  0  0
    1.4550    2.2850   -4.8300 O   0  0  0  0  0  0
    0.8670    2.9780   -5.9220 C   0  0  0  0  0  0
   -3.4407    0.0156    0.0507 H   0  0  0  0  0  0
   -1.7169   -1.3694    2.1594 H   0  0  0  0  0  0
   -2.4305   -3.1077    0.5439 H   0  0  0  0  0  0
   -4.1304   -2.5429    0.6780 H   0  0  0  0  0  0
   -3.3128   -3.2758    2.0995 H   0  0  0  0  0  0
   -3.3515    0.3800    2.8719 H   0  0  0  0  0  0
   -3.8492   -1.2443    3.4555 H   0  0  0  0  0  0
   -4.6668   -0.5113    2.0340 H   0  0  0  0  0  0
   -2.6094   -3.5339   -2.9100 H   0  0  0  0  0  0
   -3.6094   -2.1279   -1.1086 H   0  0  0  0  0  0
   -0.0635   -0.6878    0.9607 H   0  0  0  0  0  0
    0.4513    0.9560    0.4515 H   0  0  0  0  0  0
   -1.6565    1.9362    2.8542 H   0  0  0  0  0  0
    1.9383   -0.3908    2.5794 H   0  0  0  0  0  0
   -1.0555    2.4468    5.2252 H   0  0  0  0  0  0
    1.0270    1.5134    6.1761 H   0  0  0  0  0  0
   -2.5239    1.8018   -2.6682 H   0  0  0  0  0  0
    0.9784    2.5652   -0.2930 H   0  0  0  0  0  0
   -1.1495    1.8680   -4.7383 H   0  0  0  0  0  0
    2.3788    2.6016   -2.3585 H   0  0  0  0  0  0
    1.5504    2.9518   -6.7836 H   0  0  0  0  0  0
    0.6791    4.0230   -5.6346 H   0  0  0  0  0  0
   -0.0837    2.4957   -6.1932 H   0  0  0  0  0  0
  1  2  1  0  0  0
  1 10  1  0  0  0
  1 17  1  0  0  0
  2  3  1  0  0  0
  2  6  1  0  0  0
  2 28  1  0  0  0
  3  4  1  0  0  0
  3  5  1  0  0  0
  3 29  1  0  0  0
  4 30  1  0  0  0
  4 31  1  0  0  0
  4 32  1  0  0  0
  5 33  1  0  0  0
  5 34  1  0  0  0
  5 35  1  0  0  0
  6  7  2  0  0  0
  6  9  1  0  0  0
  8  9  1  0  0  0
  8 36  1  0  0  0
  9 37  1  0  0  0
 10 11  1  0  0  0
 10 38  1  0  0  0
 10 39  1  0  0  0
 11 12  2  0  0  0
 11 13  1  0  0  0
 12 14  1  0  0  0
 12 40  1  0  0  0
 13 16  2  0  0  0
 13 41  1  0  0  0
 14 15  2  0  0  0
 14 42  1  0  0  0
 15 16  1  0  0  0
 15 43  1  0  0  0
 17 18  2  0  0  0
 17 19  2  0  0  0
 17 20  1  0  0  0
 20 21  2  0  0  0
 20 22  1  0  0  0
 21 23  1  0  0  0
 21 44  1  0  0  0
 22 24  2  0  0  0
 22 45  1  0  0  0
 23 25  2  0  0  0
 23 46  1  0  0  0
 24 25  1  0  0  0
 24 47  1  0  0  0
 25 26  1  0  0  0
 26 27  1  0  0  0
 27 48  1  0  0  0
 27 49  1  0  0  0
 27 50  1  0  0  0
M  END
> <s_m_source_file>
../1bm6_ligand.sdf

> <i_m_source_file_index>
1

> <s_epik_input>
W2NIXTFbY0hdYyhPW0NIM10pW2NIXVtjSF1jMVMoPU8pKD1PKU4oW0NASF0oW0NIXShbQ0gzXSlbQ0gzXSlDKD1PKVtOSF1bT0hdKVtDSDJdYzJbY0hdW2NIXVtjSF1uW2NIXTI=

> <s_epik_cmdline>
J2VwaWtfYXBwJywgJy1pbWFlJywgJ2xpZ2FuZF9wcm8ubWFlJywgJy1vbWFlJywgJ2xpZ2FuZF9wcmVwLm1hZScsICctbXMnLCAnMScsICctcGgnLCAnNycsICctcGh0JywgJzAuNScsICctbnQn

> <r_lp_tautomer_probability>
1

> <r_epik_Ionization_Penalty>
  0.0224

> <r_epik_Ionization_Penalty_Charging>
  0.0000

> <r_epik_Ionization_Penalty_Neutral>
  0.0224

> <r_epik_State_Penalty>
  0.0110

> <r_epik_Charging_Adjusted_Penalty>
0.0109823314056708

> <i_epik_Tot_Q>
0

> <i_epik_Tot_abs_Q>
0

> <s_epik_Chemistry_Notes>
This compound has a N-S or N-O group and may undergo hydrolysis at high or low pH.

$$$$
