1bma_ligand
                    3D
 Schrodinger Suite 2020-3.
 73 74  0  0  1  0            999 V2000
   41.1490   23.3540   37.6440 C   0  0  0  0  0  0
   41.3470   24.6160   38.5620 C   0  0  0  0  0  0
   40.7380   23.4660   36.4830 O   0  0  0  0  0  0
   41.8710   24.3920   39.7540 F   0  0  0  0  0  0
   42.1300   25.5370   38.0580 F   0  0  0  0  0  0
   40.2100   25.2310   38.7870 F   0  0  0  0  0  0
   41.4280   22.1360   38.1490 N   0  0  0  0  0  0
   40.8000   20.9190   37.7020 C   0  0  2  0  0  0
   39.3070   21.0480   37.4350 C   0  0  0  0  0  0
   38.5140   21.5650   38.2110 O   0  0  0  0  0  0
   41.1000   19.8690   38.7470 C   0  0  0  0  0  0
   41.2800   18.4430   38.2880 C   0  0  0  0  0  0
   42.2250   18.3330   37.0870 C   0  0  0  0  0  0
   41.8110   17.6760   39.4790 C   0  0  0  0  0  0
   37.7730   20.6860   35.4060 N   0  3  1  0  0  0
   39.1210   20.5680   36.1900 N   0  0  0  0  0  0
   37.7120   22.1170   34.9400 C   0  0  0  0  0  0
   36.5220   22.5540   34.0800 C   0  0  0  0  0  0
   35.7530   23.6410   34.4900 C   0  0  0  0  0  0
   34.7240   24.0770   33.6770 C   0  0  0  0  0  0
   34.4260   23.4610   32.4590 C   0  0  0  0  0  0
   35.1790   22.3730   32.0390 C   0  0  0  0  0  0
   36.2250   21.9230   32.8500 C   0  0  0  0  0  0
   38.1600   19.7130   34.3160 C   0  0  0  0  0  0
   36.5310   20.2380   36.1060 C   0  0  0  0  0  0
   36.5440   18.8920   36.8120 C   0  0  0  0  0  0
   36.6680   17.7920   36.2510 O   0  0  0  0  0  0
   36.1950   18.3510   39.0700 C   0  0  0  0  0  0
   36.4320   19.2410   38.1030 N   0  0  0  0  0  0
   36.8200   17.0940   39.1380 C   0  0  0  0  0  0
   36.5290   16.2290   40.2070 C   0  0  0  0  0  0
   35.6130   16.6130   41.2160 C   0  0  0  0  0  0
   35.0070   17.8720   41.1250 C   0  0  0  0  0  0
   35.2900   18.7230   40.0590 C   0  0  0  0  0  0
   35.2730   15.6970   42.4140 C   0  0  0  0  0  0
   35.7420   14.2420   42.2510 C   0  0  0  0  0  0
   33.7770   15.6910   42.5010 C   0  0  0  0  0  0
   42.1837   22.1037   38.9477 H   0  0  0  0  0  0
   41.2500   20.6832   36.7263 H   0  0  0  0  0  0
   42.0374   20.1231   39.2635 H   0  0  0  0  0  0
   40.2776   19.8324   39.4766 H   0  0  0  0  0  0
   40.3150   18.0342   37.9537 H   0  0  0  0  0  0
   41.8101   18.9004   36.2408 H   0  0  0  0  0  0
   42.3339   17.2762   36.8017 H   0  0  0  0  0  0
   43.2094   18.7434   37.3562 H   0  0  0  0  0  0
   41.1105   17.7757   40.3212 H   0  0  0  0  0  0
   42.7920   18.0809   39.7681 H   0  0  0  0  0  0
   41.9165   16.6137   39.2136 H   0  0  0  0  0  0
   39.9853   20.0703   35.7261 H   0  0  0  0  0  0
   37.6892   22.7862   35.8128 H   0  0  0  0  0  0
   38.5985   22.3417   34.3287 H   0  0  0  0  0  0
   35.9597   24.1396   35.4370 H   0  0  0  0  0  0
   34.1251   24.9298   33.9967 H   0  0  0  0  0  0
   33.6075   23.8323   31.8424 H   0  0  0  0  0  0
   34.9585   21.8781   31.0932 H   0  0  0  0  0  0
   36.8226   21.0701   32.5282 H   0  0  0  0  0  0
   37.3315   19.6174   33.5987 H   0  0  0  0  0  0
   38.3749   18.7303   34.7611 H   0  0  0  0  0  0
   39.0552   20.0832   33.7949 H   0  0  0  0  0  0
   36.2694   20.9644   36.8895 H   0  0  0  0  0  0
   35.7066   20.1678   35.3811 H   0  0  0  0  0  0
   36.5359   20.2954   38.3987 H   0  0  0  0  0  0
   37.5269   16.7914   38.3655 H   0  0  0  0  0  0
   37.0129   15.2537   40.2597 H   0  0  0  0  0  0
   34.3060   18.1898   41.8968 H   0  0  0  0  0  0
   34.7960   19.6928   39.9990 H   0  0  0  0  0  0
   35.7616   16.0846   43.3201 H   0  0  0  0  0  0
   36.8397   14.2159   42.1843 H   0  0  0  0  0  0
   35.3087   13.8177   41.3333 H   0  0  0  0  0  0
   35.4132   13.6514   43.1188 H   0  0  0  0  0  0
   33.4124   16.7222   42.6184 H   0  0  0  0  0  0
   33.4625   15.0900   43.3670 H   0  0  0  0  0  0
   33.3580   15.2564   41.5815 H   0  0  0  0  0  0
  1  3  2  0  0  0
  1  2  1  0  0  0
  1  7  1  0  0  0
  2  6  1  0  0  0
  2  5  1  0  0  0
  2  4  1  0  0  0
  7  8  1  0  0  0
  7 38  1  0  0  0
  8  9  1  0  0  0
  8 11  1  0  0  0
  8 39  1  0  0  0
  9 10  2  0  0  0
  9 16  1  0  0  0
 11 12  1  0  0  0
 11 40  1  0  0  0
 11 41  1  0  0  0
 12 14  1  0  0  0
 12 13  1  0  0  0
 12 42  1  0  0  0
 13 43  1  0  0  0
 13 44  1  0  0  0
 13 45  1  0  0  0
 14 46  1  0  0  0
 14 47  1  0  0  0
 14 48  1  0  0  0
 15 25  1  0  0  0
 15 24  1  0  0  0
 15 17  1  0  0  0
 15 16  1  0  0  0
 16 49  1  0  0  0
 17 18  1  0  0  0
 17 50  1  0  0  0
 17 51  1  0  0  0
 18 23  2  0  0  0
 18 19  1  0  0  0
 19 20  2  0  0  0
 19 52  1  0  0  0
 20 21  1  0  0  0
 20 53  1  0  0  0
 21 22  2  0  0  0
 21 54  1  0  0  0
 22 23  1  0  0  0
 22 55  1  0  0  0
 23 56  1  0  0  0
 24 57  1  0  0  0
 24 58  1  0  0  0
 24 59  1  0  0  0
 25 26  1  0  0  0
 25 60  1  0  0  0
 25 61  1  0  0  0
 26 27  2  0  0  0
 26 29  1  0  0  0
 28 34  2  0  0  0
 28 30  1  0  0  0
 28 29  1  0  0  0
 29 62  1  0  0  0
 30 31  2  0  0  0
 30 63  1  0  0  0
 31 32  1  0  0  0
 31 64  1  0  0  0
 32 35  1  0  0  0
 32 33  2  0  0  0
 33 34  1  0  0  0
 33 65  1  0  0  0
 34 66  1  0  0  0
 35 37  1  0  0  0
 35 36  1  0  0  0
 35 67  1  0  0  0
 36 68  1  0  0  0
 36 69  1  0  0  0
 36 70  1  0  0  0
 37 71  1  0  0  0
 37 72  1  0  0  0
 37 73  1  0  0  0
M  CHG  1  15   1
M  END
> <s_m_source_file>
../1bma_ligand.sdf

> <i_m_source_file_index>
1

> <s_epik_input>
RkMoRikoRilDKD1PKVtOSF1bQ0BASF0oW0NIMl1bQ0hdKFtDSDNdKVtDSDNdKUMoPU8pW05IXVtOQCtdKFtDSDNdKShbQ0gyXWMxW2NIXVtjSF1bY0hdW2NIXVtjSF0xKVtDSDJdQyg9TylbTkhdYzJbY0hdW2NIXWMoW2NIXVtjSF0yKVtDSF0oW0NIM10pW0NIM10=

> <s_epik_cmdline>
J2VwaWtfYXBwJywgJy1pbWFlJywgJ2xpZ2FuZF9wcm8ubWFlJywgJy1vbWFlJywgJ2xpZ2FuZF9wcmVwLm1hZScsICctbXMnLCAnMScsICctcGgnLCAnNycsICctcGh0JywgJzAuNScsICctbnQn

> <r_epik_Ionization_Penalty>
  0.0496

> <r_epik_Ionization_Penalty_Charging>
  0.0000

> <r_epik_Ionization_Penalty_Neutral>
  0.0496

> <r_epik_State_Penalty>
  0.0418

> <r_epik_Charging_Adjusted_Penalty>
0.0418190235760972

> <i_epik_Tot_Q>
1

> <i_epik_Tot_abs_Q>
1

$$$$
