1bmb_ligand
                    3D
 Schrodinger Suite 2020-3.
168171  0  0  1  0            999 V2000
   31.2670   35.6230   22.6650 N   0  3  0  0  0  0
   30.9650   35.2840   21.2440 C   0  0  2  0  0  0
   30.9820   33.7650   21.0340 C   0  0  0  0  0  0
   31.4600   33.0170   21.8950 O   0  0  0  0  0  0
   31.9680   35.9670   20.3100 C   0  0  0  0  0  0
   33.4050   35.5340   20.5000 C   0  0  0  0  0  0
   34.3100   36.3090   19.5580 C   0  0  0  0  0  0
   35.7680   35.9690   19.7850 C   0  0  0  0  0  0
   36.6800   36.9050   19.0740 N   0  3  0  0  0  0
   30.3910   33.2880   19.9230 N   0  0  0  0  0  0
   30.3560   31.8500   19.6340 C   0  0  2  0  0  0
   31.7440   31.2290   19.4950 C   0  0  0  0  0  0
   32.6560   31.8330   18.9430 O   0  0  0  0  0  0
   29.5630   31.7810   18.3200 C   0  0  0  0  0  0
   29.7820   33.1300   17.7050 C   0  0  0  0  0  0
   29.6660   34.0430   18.8870 C   0  0  0  0  0  0
   31.8900   30.0240   20.0290 N   0  0  0  0  0  0
   33.1520   29.3060   19.9780 C   0  0  2  0  0  0
   33.1040   28.2190   18.9070 C   0  0  0  0  0  0
   32.0310   27.7480   18.5400 O   0  0  0  0  0  0
   33.4650   28.6960   21.3550 C   0  0  0  0  0  0
   32.3780   27.7960   21.8880 C   0  0  0  0  0  0
   31.3130   28.3320   22.6080 C   0  0  0  0  0  0
   32.3900   26.4270   21.6210 C   0  0  0  0  0  0
   30.2730   27.5220   23.0460 C   0  0  0  0  0  0
   31.3550   25.6070   22.0540 C   0  0  0  0  0  0
   30.2910   26.1550   22.7680 C   0  0  0  0  0  0
   34.2660   27.8590   18.3830 N   0  0  0  0  0  0
   34.3660   26.8130   17.3770 C   0  0  2  0  0  0
   35.5640   25.9710   17.7690 C   0  0  0  0  0  0
   36.6000   26.4970   18.1700 O   0  0  0  0  0  0
   34.5500   27.3970   15.9730 C   0  0  0  0  0  0
   33.4070   28.2930   15.5420 C   0  0  0  0  0  0
   32.2620   27.7710   14.9320 C   0  0  0  0  0  0
   33.4420   29.6560   15.8040 C   0  0  0  0  0  0
   31.1670   28.6030   14.5950 C   0  0  0  0  0  0
   32.3790   30.4800   15.4820 C   0  0  0  0  0  0
   31.2380   29.9640   14.8820 C   0  0  0  0  0  0
   30.2050   30.8690   14.5680 O   0  0  0  0  0  0
   28.7040   30.4420   14.3680 P   0  0  0  0  0  0
   27.8520   31.6450   14.8410 O   0  0  0  0  0  0
   28.3810   29.1850   15.2170 O   0  0  0  0  0  0
   28.4750   30.1820   12.8630 O   0  0  0  0  0  0
   35.4170   24.6600   17.6600 N   0  0  0  0  0  0
   36.4690   23.7180   18.0300 C   0  0  2  0  0  0
   37.8250   23.9800   17.3810 C   0  0  0  0  0  0
   38.8630   23.7510   18.0010 O   0  0  0  0  0  0
   36.0180   22.2590   17.7520 C   0  0  0  0  0  0
   37.1090   21.2520   18.1430 C   0  0  0  0  0  0
   34.7280   21.9700   18.5130 C   0  0  0  0  0  0
   37.8170   24.4850   16.1510 N   0  0  0  0  0  0
   39.0580   24.7510   15.4310 C   0  0  2  0  0  0
   39.5200   26.1990   15.4440 C   0  0  0  0  0  0
   40.4030   26.5680   14.6730 O   0  0  0  0  0  0
   38.9580   24.2690   13.9860 C   0  0  0  0  0  0
   37.8980   25.0040   13.2050 C   0  0  0  0  0  0
   36.8670   25.3870   13.7530 O   0  0  0  0  0  0
   38.1360   25.1990   11.9170 N   0  0  0  0  0  0
   38.9440   27.0150   16.3200 N   0  0  0  0  0  0
   39.3240   28.4230   16.4220 C   0  0  2  0  0  0
   39.7420   28.7350   17.8550 C   0  0  0  0  0  0
   38.9650   28.5700   18.7990 O   0  0  0  0  0  0
   38.1690   29.3750   15.9980 C   0  0  0  0  0  0
   38.5740   30.8260   16.2030 C   0  0  0  0  0  0
   37.8070   29.1440   14.5400 C   0  0  0  0  0  0
   40.9860   29.1640   18.0210 N   0  0  0  0  0  0
   41.4890   29.4880   19.3450 C   0  0  2  0  0  0
   41.1940   30.9280   19.7470 C   0  0  0  0  0  0
   41.3590   31.8510   18.9430 O   0  0  0  0  0  0
   42.9930   29.2240   19.4200 C   0  0  0  0  0  0
   43.5410   29.2700   20.8380 C   0  0  0  0  0  0
   45.0410   29.0920   20.8970 C   0  0  0  0  0  0
   45.5690   28.1420   20.2750 O   0  0  0  0  0  0
   45.6900   29.9120   21.5770 O   0  0  0  0  0  0
   40.6870   31.1050   20.9640 N   0  0  0  0  0  0
   40.4050   32.4360   21.4900 C   0  0  2  0  0  0
   41.7000   33.0260   22.0670 C   0  0  0  0  0  0
   42.4230   32.2920   22.7810 O   0  0  0  0  0  0
   39.3310   32.3810   22.5850 C   0  0  0  0  0  0
   37.9160   32.3910   22.0720 C   0  0  0  0  0  0
   37.6310   32.0470   20.7600 C   0  0  0  0  0  0
   36.8630   32.7230   22.9180 C   0  0  0  0  0  0
   36.3410   32.0260   20.3100 C   0  0  0  0  0  0
   35.5510   32.7030   22.4650 C   0  0  0  0  0  0
   35.2920   32.3540   21.1600 C   0  0  0  0  0  0
   41.9580   34.2250   21.8420 O   0  0  0  0  0  0
   30.5392   35.1259   23.3232 H   0  0  0  0  0  0
   31.2026   36.7123   22.8037 H   0  0  0  0  0  0
   32.2819   35.2808   22.9159 H   0  0  0  0  0  0
   29.9546   35.6639   21.0323 H   0  0  0  0  0  0
   31.7050   35.7462   19.2650 H   0  0  0  0  0  0
   31.9394   37.0544   20.4733 H   0  0  0  0  0  0
   33.7122   35.7281   21.5383 H   0  0  0  0  0  0
   33.4954   34.4589   20.2858 H   0  0  0  0  0  0
   34.0529   36.0627   18.5172 H   0  0  0  0  0  0
   34.1741   37.3879   19.7238 H   0  0  0  0  0  0
   35.9938   36.0224   20.8602 H   0  0  0  0  0  0
   35.9687   34.9515   19.4183 H   0  0  0  0  0  0
   37.7240   36.6184   19.2686 H   0  0  0  0  0  0
   36.5077   37.9297   19.4349 H   0  0  0  0  0  0
   36.4825   36.8589   17.9929 H   0  0  0  0  0  0
   29.9002   31.3088   20.4762 H   0  0  0  0  0  0
   29.9595   30.9674   17.6948 H   0  0  0  0  0  0
   28.5026   31.5899   18.5413 H   0  0  0  0  0  0
   30.7761   33.1618   17.2352 H   0  0  0  0  0  0
   29.0104   33.3154   16.9432 H   0  0  0  0  0  0
   28.6266   34.2030   19.2097 H   0  0  0  0  0  0
   30.1556   35.0157   18.7320 H   0  0  0  0  0  0
   31.0180   29.5693   20.5218 H   0  0  0  0  0  0
   33.9124   30.0527   19.7057 H   0  0  0  0  0  0
   34.3827   28.0931   21.2889 H   0  0  0  0  0  0
   33.6082   29.5024   22.0893 H   0  0  0  0  0  0
   31.2954   29.3990   22.8302 H   0  0  0  0  0  0
   33.2222   25.9947   21.0654 H   0  0  0  0  0  0
   29.4438   27.9540   23.6063 H   0  0  0  0  0  0
   31.3753   24.5392   21.8360 H   0  0  0  0  0  0
   29.4751   25.5173   23.1083 H   0  0  0  0  0  0
   35.1724   28.3767   18.7302 H   0  0  0  0  0  0
   33.4289   26.2370   17.3814 H   0  0  0  0  0  0
   35.4710   27.9978   15.9436 H   0  0  0  0  0  0
   34.6228   26.5783   15.2420 H   0  0  0  0  0  0
   32.2116   26.7046   14.7120 H   0  0  0  0  0  0
   34.3266   30.0860   16.2737 H   0  0  0  0  0  0
   30.2810   28.1843   14.1177 H   0  0  0  0  0  0
   32.4375   31.5461   15.7016 H   0  0  0  0  0  0
   27.8939   31.9695   15.8912 H   0  0  0  0  0  0
   28.4963   29.2154   16.3105 H   0  0  0  0  0  0
   34.4567   24.2880   17.2733 H   0  0  0  0  0  0
   36.5906   23.9289   19.1027 H   0  0  0  0  0  0
   35.8283   22.1363   16.6755 H   0  0  0  0  0  0
   38.0307   21.4751   17.5855 H   0  0  0  0  0  0
   36.7715   20.2334   17.9010 H   0  0  0  0  0  0
   37.3064   21.3261   19.2226 H   0  0  0  0  0  0
   33.9586   22.6999   18.2209 H   0  0  0  0  0  0
   34.9150   22.0472   19.5942 H   0  0  0  0  0  0
   34.3801   20.9545   18.2726 H   0  0  0  0  0  0
   36.8486   24.7026   15.6769 H   0  0  0  0  0  0
   39.7849   24.1722   16.0198 H   0  0  0  0  0  0
   39.9219   24.4257   13.4797 H   0  0  0  0  0  0
   38.7070   23.1981   13.9732 H   0  0  0  0  0  0
   39.0741   24.8379   11.4702 H   0  0  0  0  0  0
   37.3956   25.7221   11.2939 H   0  0  0  0  0  0
   38.1631   26.6070   16.9786 H   0  0  0  0  0  0
   40.1737   28.5325   15.7321 H   0  0  0  0  0  0
   37.2794   29.1760   16.6136 H   0  0  0  0  0  0
   38.8349   30.9881   17.2592 H   0  0  0  0  0  0
   37.7360   31.4830   15.9273 H   0  0  0  0  0  0
   39.4441   31.0566   15.5708 H   0  0  0  0  0  0
   37.5148   28.0932   14.3968 H   0  0  0  0  0  0
   38.6762   29.3726   13.9058 H   0  0  0  0  0  0
   36.9680   29.7990   14.2623 H   0  0  0  0  0  0
   41.6390   29.2735   17.1426 H   0  0  0  0  0  0
   40.9317   28.8154   20.0136 H   0  0  0  0  0  0
   43.2108   28.2257   19.0126 H   0  0  0  0  0  0
   43.5285   29.9845   18.8327 H   0  0  0  0  0  0
   43.3017   30.2429   21.2922 H   0  0  0  0  0  0
   43.0852   28.4653   21.4336 H   0  0  0  0  0  0
   46.6593   28.0006   20.3092 H   0  0  0  0  0  0
   40.4803   30.2159   21.5778 H   0  0  0  0  0  0
   40.0320   33.0263   20.6401 H   0  0  0  0  0  0
   43.3565   32.6875   23.2079 H   0  0  0  0  0  0
   39.4522   31.4583   23.1714 H   0  0  0  0  0  0
   39.4374   33.2529   23.2472 H   0  0  0  0  0  0
   38.4438   31.7907   20.0805 H   0  0  0  0  0  0
   37.0709   33.0027   23.9508 H   0  0  0  0  0  0
   36.1333   31.7498   19.2762 H   0  0  0  0  0  0
   34.7332   32.9616   23.1376 H   0  0  0  0  0  0
   34.2657   32.3348   20.7933 H   0  0  0  0  0  0
  1  2  1  0  0  0
  1 87  1  0  0  0
  1 88  1  0  0  0
  1 89  1  0  0  0
  2  3  1  0  0  0
  2  5  1  0  0  0
  2 90  1  0  0  0
  3  4  2  0  0  0
  3 10  1  0  0  0
  5  6  1  0  0  0
  5 91  1  0  0  0
  5 92  1  0  0  0
  6  7  1  0  0  0
  6 93  1  0  0  0
  6 94  1  0  0  0
  7  8  1  0  0  0
  7 95  1  0  0  0
  7 96  1  0  0  0
  8  9  1  0  0  0
  8 97  1  0  0  0
  8 98  1  0  0  0
  9 99  1  0  0  0
  9100  1  0  0  0
  9101  1  0  0  0
 10 11  1  0  0  0
 10 16  1  0  0  0
 11 12  1  0  0  0
 11 14  1  0  0  0
 11102  1  0  0  0
 12 13  2  0  0  0
 12 17  1  0  0  0
 14 15  1  0  0  0
 14103  1  0  0  0
 14104  1  0  0  0
 15 16  1  0  0  0
 15105  1  0  0  0
 15106  1  0  0  0
 16107  1  0  0  0
 16108  1  0  0  0
 17 18  1  0  0  0
 17109  1  0  0  0
 18 19  1  0  0  0
 18 21  1  0  0  0
 18110  1  0  0  0
 19 20  2  0  0  0
 19 28  1  0  0  0
 21 22  1  0  0  0
 21111  1  0  0  0
 21112  1  0  0  0
 22 23  2  0  0  0
 22 24  1  0  0  0
 23 25  1  0  0  0
 23113  1  0  0  0
 24 26  2  0  0  0
 24114  1  0  0  0
 25 27  2  0  0  0
 25115  1  0  0  0
 26 27  1  0  0  0
 26116  1  0  0  0
 27117  1  0  0  0
 28 29  1  0  0  0
 28118  1  0  0  0
 29 30  1  0  0  0
 29 32  1  0  0  0
 29119  1  0  0  0
 30 31  2  0  0  0
 30 44  1  0  0  0
 32 33  1  0  0  0
 32120  1  0  0  0
 32121  1  0  0  0
 33 34  2  0  0  0
 33 35  1  0  0  0
 34 36  1  0  0  0
 34122  1  0  0  0
 35 37  2  0  0  0
 35123  1  0  0  0
 36 38  2  0  0  0
 36124  1  0  0  0
 37 38  1  0  0  0
 37125  1  0  0  0
 38 39  1  0  0  0
 39 40  1  0  0  0
 40 41  1  0  0  0
 40 42  1  0  0  0
 40 43  2  0  0  0
 41126  1  0  0  0
 42127  1  0  0  0
 44 45  1  0  0  0
 44128  1  0  0  0
 45 46  1  0  0  0
 45 48  1  0  0  0
 45129  1  0  0  0
 46 47  2  0  0  0
 46 51  1  0  0  0
 48 49  1  0  0  0
 48 50  1  0  0  0
 48130  1  0  0  0
 49131  1  0  0  0
 49132  1  0  0  0
 49133  1  0  0  0
 50134  1  0  0  0
 50135  1  0  0  0
 50136  1  0  0  0
 51 52  1  0  0  0
 51137  1  0  0  0
 52 53  1  0  0  0
 52 55  1  0  0  0
 52138  1  0  0  0
 53 54  2  0  0  0
 53 59  1  0  0  0
 55 56  1  0  0  0
 55139  1  0  0  0
 55140  1  0  0  0
 56 57  2  0  0  0
 56 58  1  0  0  0
 58141  1  0  0  0
 58142  1  0  0  0
 59 60  1  0  0  0
 59143  1  0  0  0
 60 61  1  0  0  0
 60 63  1  0  0  0
 60144  1  0  0  0
 61 62  2  0  0  0
 61 66  1  0  0  0
 63 64  1  0  0  0
 63 65  1  0  0  0
 63145  1  0  0  0
 64146  1  0  0  0
 64147  1  0  0  0
 64148  1  0  0  0
 65149  1  0  0  0
 65150  1  0  0  0
 65151  1  0  0  0
 66 67  1  0  0  0
 66152  1  0  0  0
 67 68  1  0  0  0
 67 70  1  0  0  0
 67153  1  0  0  0
 68 69  2  0  0  0
 68 75  1  0  0  0
 70 71  1  0  0  0
 70154  1  0  0  0
 70155  1  0  0  0
 71 72  1  0  0  0
 71156  1  0  0  0
 71157  1  0  0  0
 72 73  1  0  0  0
 72 74  2  0  0  0
 73158  1  0  0  0
 75 76  1  0  0  0
 75159  1  0  0  0
 76 77  1  0  0  0
 76 79  1  0  0  0
 76160  1  0  0  0
 77 78  1  0  0  0
 77 86  2  0  0  0
 78161  1  0  0  0
 79 80  1  0  0  0
 79162  1  0  0  0
 79163  1  0  0  0
 80 81  2  0  0  0
 80 82  1  0  0  0
 81 83  1  0  0  0
 81164  1  0  0  0
 82 84  2  0  0  0
 82165  1  0  0  0
 83 85  2  0  0  0
 83166  1  0  0  0
 84 85  1  0  0  0
 84167  1  0  0  0
 85168  1  0  0  0
M  CHG  2   1   1   9   1
M  END
> <s_m_source_file>
../1bmb_ligand.sdf

> <i_m_source_file_index>
1

> <s_epik_input>
W05IMytdW0NIMl1bQ0gyXVtDSDJdW0NIMl1bQ0BIXShbTkgzK10pQyg9TylOMVtDQEBIXShbQ0gyXVtDSDJdW0NIMl0xKUMoPU8pW05IXVtDQEBIXShbQ0gyXWMyW2NIXVtjSF1bY0hdW2NIXVtjSF0yKUMoPU8pW05IXVtDQEBIXShbQ0gyXWMzW2NIXVtjSF1jKFtjSF1bY0hdMylPUCg9TykoW09IXSlbT0hdKUMoPU8pW05IXVtDQEBIXShbQ0hdKFtDSDNdKVtDSDNdKUMoPU8pW05IXVtDQEBIXShbQ0gyXUMoPU8pW05IMl0pQyg9TylbTkhdW0NAQEhdKFtDSF0oW0NIM10pW0NIM10pQyg9TylbTkhdW0NAQEhdKFtDSDJdW0NIMl1DKD1PKVtPSF0pQyg9TylbTkhdW0NASF0oQyg9TylbT0hdKVtDSDJdYzRbY0hdW2NIXVtjSF1bY0hdW2NIXTQ=

> <s_epik_cmdline>
J2VwaWtfYXBwJywgJy1pbWFlJywgJ2xpZ2FuZF9wcm8ubWFlJywgJy1vbWFlJywgJ2xpZ2FuZF9wcmVwLm1hZScsICctbXMnLCAnMScsICctcGgnLCAnNycsICctcGh0JywgJzAuNScsICctbnQn

> <s_epik_pKa_notes>
Molecule size exceeds maximum supported for generating protonation states

$$$$
