1bmm_ligand
                    3D
 Schrodinger Suite 2020-3.
 68 70  0  0  1  0            999 V2000
   10.9130   47.9230   22.0170 C   0  0  0  0  0  0
   11.3460   48.8200   21.1460 C   0  0  0  0  0  0
   12.8900   50.4720   20.8230 C   0  0  0  0  0  0
   13.9140   51.1740   21.4530 C   0  0  0  0  0  0
   14.3090   51.1210   22.8050 C   0  0  0  0  0  0
   13.6510   50.3150   23.6070 C   0  0  0  0  0  0
   12.1090   48.6970   23.6530 C   0  0  0  0  0  0
   11.3060   47.9150   23.1990 C   0  0  0  0  0  0
   12.2510   49.6820   21.6080 C   0  0  0  0  0  0
   12.6360   49.6140   22.9540 C   0  0  0  0  0  0
    9.9810   46.5140   21.7150 S   0  0  0  0  0  0
    8.6800   46.8860   21.1350 O   0  0  0  0  0  0
    9.5740   45.9630   22.9530 O   0  0  0  0  0  0
   10.6350   45.5750   20.9180 N   0  0  3  0  0  0
   11.5470   44.8970   21.3590 C   0  0  1  0  0  0
   11.8980   43.6900   20.5610 C   0  0  0  0  0  0
   10.6850   43.0680   20.4350 O   0  0  0  0  0  0
   12.6480   45.7050   20.9680 C   0  0  0  0  0  0
   12.5100   46.1940   19.7730 O   0  0  0  0  0  0
   13.7350   45.6210   21.8180 N   0  0  0  0  0  0
   13.7420   45.0740   23.2630 C   0  0  0  0  0  0
   15.0590   44.5900   23.3910 C   0  0  0  0  0  0
   15.6000   45.6250   22.6470 C   0  0  0  0  0  0
   14.9560   45.9150   21.4080 C   0  0  1  0  0  0
   15.4120   44.9070   20.5350 C   0  0  0  0  0  0
   15.1800   44.7030   19.0280 N   0  0  0  0  0  0
   14.8680   43.5620   18.2060 C   0  0  0  0  0  0
   14.8240   42.2270   18.4340 O   0  0  0  0  0  0
   14.6200   43.7730   16.9250 C   0  0  0  0  0  0
   13.1260   43.7070   16.8620 C   0  0  0  0  0  0
   12.7030   43.7500   15.5350 C   0  0  0  0  0  0
   11.4210   43.7390   15.3540 N   0  0  0  0  0  0
   10.8980   44.0430   14.1690 C   0  0  0  0  0  0
   11.7210   44.2910   13.2180 N   0  0  0  0  0  0
    9.6950   43.9820   14.1280 N   0  3  0  0  0  0
   10.9859   48.8517   20.1177 H   0  0  0  0  0  0
   12.6534   50.5824   19.7647 H   0  0  0  0  0  0
   14.4841   51.8525   20.8185 H   0  0  0  0  0  0
   15.1346   51.7298   23.1736 H   0  0  0  0  0  0
   13.8738   50.2055   24.6684 H   0  0  0  0  0  0
   12.3902   48.6102   24.7025 H   0  0  0  0  0  0
   10.9003   47.1548   23.8666 H   0  0  0  0  0  0
   10.4210   45.5741   19.8390 H   0  0  0  0  0  0
   11.2056   44.7206   22.3897 H   0  0  0  0  0  0
   12.3252   44.0000   19.5959 H   0  0  0  0  0  0
   12.6355   43.0879   21.1120 H   0  0  0  0  0  0
   10.6075   42.1208   19.8810 H   0  0  0  0  0  0
   13.5139   45.8897   23.9649 H   0  0  0  0  0  0
   12.9827   44.2840   23.3597 H   0  0  0  0  0  0
   15.3327   44.5490   24.4556 H   0  0  0  0  0  0
   15.1228   43.5813   22.9569 H   0  0  0  0  0  0
   15.5634   46.5555   23.2325 H   0  0  0  0  0  0
   16.6452   45.3898   22.3973 H   0  0  0  0  0  0
   15.0310   46.9015   20.9271 H   0  0  0  0  0  0
   16.5119   44.9025   20.5229 H   0  0  0  0  0  0
   15.0451   43.9292   20.8804 H   0  0  0  0  0  0
   15.2452   45.5593   18.3406 H   0  0  0  0  0  0
   15.0143   44.7574   16.6325 H   0  0  0  0  0  0
   15.1054   42.9902   16.3237 H   0  0  0  0  0  0
   12.7807   42.7693   17.3219 H   0  0  0  0  0  0
   12.6979   44.5617   17.4063 H   0  0  0  0  0  0
   13.0734   44.6714   15.0618 H   0  0  0  0  0  0
   13.0981   42.8765   14.9957 H   0  0  0  0  0  0
   10.7504   43.4761   16.1854 H   0  0  0  0  0  0
   12.8025   44.3115   13.4179 H   0  0  0  0  0  0
   11.3457   44.4833   12.2020 H   0  0  0  0  0  0
    9.1243   43.7566   15.0410 H   0  0  0  0  0  0
    9.1678   44.1517   13.1776 H   0  0  0  0  0  0
  1  2  2  0  0  0
  1  8  1  0  0  0
  1 11  1  0  0  0
  2  9  1  0  0  0
  2 36  1  0  0  0
  3  4  1  0  0  0
  3  9  2  0  0  0
  3 37  1  0  0  0
  4  5  2  0  0  0
  4 38  1  0  0  0
  5  6  1  0  0  0
  5 39  1  0  0  0
  6 10  2  0  0  0
  6 40  1  0  0  0
  7  8  2  0  0  0
  7 10  1  0  0  0
  7 41  1  0  0  0
  8 42  1  0  0  0
  9 10  1  0  0  0
 11 12  2  0  0  0
 11 13  2  0  0  0
 11 14  1  0  0  0
 14 15  1  0  0  0
 14 43  1  0  0  0
 15 16  1  0  0  0
 15 18  1  0  0  0
 15 44  1  0  0  0
 16 17  1  0  0  0
 16 45  1  0  0  0
 16 46  1  0  0  0
 17 47  1  0  0  0
 18 19  2  0  0  0
 18 20  1  0  0  0
 20 21  1  0  0  0
 20 24  1  0  0  0
 21 22  1  0  0  0
 21 48  1  0  0  0
 21 49  1  0  0  0
 22 23  1  0  0  0
 22 50  1  0  0  0
 22 51  1  0  0  0
 23 24  1  0  0  0
 23 52  1  0  0  0
 23 53  1  0  0  0
 24 25  1  0  0  0
 24 54  1  0  0  0
 25 26  1  0  0  0
 25 55  1  0  0  0
 25 56  1  0  0  0
 26 27  1  0  0  0
 26 57  1  0  0  0
 27 28  2  0  0  0
 27 29  1  0  0  0
 29 30  1  0  0  0
 29 58  1  0  0  0
 29 59  1  0  0  0
 30 31  1  0  0  0
 30 60  1  0  0  0
 30 61  1  0  0  0
 31 32  1  0  0  0
 31 62  1  0  0  0
 31 63  1  0  0  0
 32 33  1  0  0  0
 32 64  1  0  0  0
 33 34  1  0  0  0
 33 35  2  0  0  0
 34 65  1  0  0  0
 34 66  1  0  0  0
 35 67  1  0  0  0
 35 68  1  0  0  0
M  CHG  1  35   1
M  END
> <s_m_source_file>
../1bmm_ligand.sdf

> <i_m_source_file_index>
1

> <s_epik_input>
W2NIXTFbY0hdW2NIXVtjSF1jKGMxMilbY0hdW2NIXWMoW2NIXTIpUyg9TykoPU8pW05IXVtDQEBIXShbQ0gyXVtPSF0pQyg9TylOM1tDSDJdW0NIMl1bQ0gyXVtDQEhdM1tDSDJdW05IXUMoPU8pW0NIMl1bQ0gyXVtDSDJdW05IXS9DKFtOSDJdKT1OXFtIXQ==

> <s_epik_cmdline>
J2VwaWtfYXBwJywgJy1pbWFlJywgJ2xpZ2FuZF9wcm8ubWFlJywgJy1vbWFlJywgJ2xpZ2FuZF9wcmVwLm1hZScsICctbXMnLCAnMScsICctcGgnLCAnNycsICctcGh0JywgJzAuNScsICctbnQn

> <r_lp_tautomer_probability>
1

> <r_epik_Ionization_Penalty>
  0.0015

> <r_epik_Ionization_Penalty_Charging>
  0.0000

> <r_epik_Ionization_Penalty_Neutral>
  0.0015

> <r_epik_State_Penalty>
 -0.0000

> <r_epik_Charging_Adjusted_Penalty>
3.49128056607461e-06

> <i_epik_Tot_Q>
1

> <i_epik_Tot_abs_Q>
1

> <s_epik_Chemistry_Notes>
This compound has an imine and may undergo hydrolysis.

$$$$
