1bmq_ligand
                    3D
 Schrodinger Suite 2020-3.
 71 73  0  0  1  0            999 V2000
   34.2130   70.0440   11.3720 C   0  0  0  0  0  0
   34.5360   68.8900   10.5870 C   0  0  0  0  0  0
   35.7850   68.7480    9.8930 C   0  0  0  0  0  0
   36.7550   69.7900    9.9520 C   0  0  0  0  0  0
   36.4610   70.9540   10.7180 C   0  0  0  0  0  0
   35.1640   71.1030   11.4660 C   0  0  0  0  0  0
   34.9430   72.2750   12.2620 C   0  0  0  0  0  0
   35.9560   73.3010   12.3350 C   0  0  0  0  0  0
   37.1990   73.1710   11.6110 C   0  0  0  0  0  0
   37.4430   72.0010   10.8110 C   0  0  0  0  0  0
   33.5470   67.8210   10.4700 C   0  0  0  0  0  0
   32.5810   67.6660   11.2140 O   0  0  0  0  0  0
   33.7680   66.9870    9.4460 N   0  0  0  0  0  0
   32.9160   65.8570    9.1460 C   0  0  2  0  0  0
   33.8450   64.8570    8.4600 C   0  0  0  0  0  0
   34.7280   65.2450    7.6940 O   0  0  0  0  0  0
   31.7930   66.2700    8.1690 C   0  0  0  0  0  0
   30.7730   65.1480    8.0400 C   0  0  0  0  0  0
   31.1220   67.5450    8.6510 C   0  0  0  0  0  0
   33.6690   63.5550    8.7410 N   0  0  0  0  0  0
   34.5310   62.5540    8.1060 C   0  0  2  0  0  0
   34.1510   62.3430    6.6380 C   0  0  0  0  0  0
   32.9680   62.3310    6.2910 O   0  0  0  0  0  0
   34.3050   61.3000    8.9460 C   0  0  0  0  0  0
   32.9250   61.4650    9.4930 C   0  0  0  0  0  0
   32.6900   62.9450    9.6590 C   0  0  0  0  0  0
   35.1990   62.1830    5.7990 N   0  0  0  0  0  0
   35.4540   62.6050    3.3400 C   0  0  0  0  0  0
   34.3940   63.4640    2.6940 C   0  0  0  0  0  0
   33.2020   62.8630    2.3380 N   0  0  0  0  0  0
   34.6210   64.6530    2.4930 O   0  5  0  0  0  0
   34.8940   61.7220    4.4500 C   0  0  1  0  0  0
   31.9200   62.2980    3.3010 S   0  0  0  0  0  0
   31.4050   63.3940    4.0810 O   0  0  0  0  0  0
   32.3220   61.1080    4.0020 O   0  0  0  0  0  0
   30.5750   61.6910    2.2590 C   0  0  0  0  0  0
   34.3580   59.4410    3.8250 O   0  0  0  0  0  0
   35.4060   60.2890    4.2820 C   0  0  0  0  0  0
   33.2559   70.1117   11.8892 H   0  0  0  0  0  0
   35.9910   67.8432    9.3211 H   0  0  0  0  0  0
   37.7028   69.6981    9.4216 H   0  0  0  0  0  0
   34.0094   72.3914   12.8124 H   0  0  0  0  0  0
   35.7802   74.1867   12.9454 H   0  0  0  0  0  0
   37.9507   73.9581   11.6708 H   0  0  0  0  0  0
   38.3836   71.9065   10.2685 H   0  0  0  0  0  0
   34.6473   67.1947    8.8186 H   0  0  0  0  0  0
   32.4659   65.4855   10.0784 H   0  0  0  0  0  0
   32.2182   66.4646    7.1734 H   0  0  0  0  0  0
   31.2755   64.2340    7.6905 H   0  0  0  0  0  0
   29.9971   65.4392    7.3167 H   0  0  0  0  0  0
   30.3092   64.9598    9.0195 H   0  0  0  0  0  0
   31.8729   68.3440    8.7384 H   0  0  0  0  0  0
   30.6597   67.3673    9.6332 H   0  0  0  0  0  0
   30.3476   67.8468    7.9304 H   0  0  0  0  0  0
   35.5798   62.8855    8.1010 H   0  0  0  0  0  0
   34.3903   60.4096    8.3058 H   0  0  0  0  0  0
   35.0609   61.2518    9.7437 H   0  0  0  0  0  0
   32.1978   61.0326    8.7900 H   0  0  0  0  0  0
   32.8503   60.9488   10.4615 H   0  0  0  0  0  0
   32.8873   63.2873   10.6856 H   0  0  0  0  0  0
   31.6736   63.2431    9.3620 H   0  0  0  0  0  0
   36.2410   62.3823    6.0897 H   0  0  0  0  0  0
   35.9068   61.9492    2.5818 H   0  0  0  0  0  0
   36.2305   63.2488    3.7788 H   0  0  0  0  0  0
   33.7977   61.7929    4.3935 H   0  0  0  0  0  0
   30.1723   62.5209    1.6597 H   0  0  0  0  0  0
   29.7779   61.2765    2.8937 H   0  0  0  0  0  0
   30.9558   60.9060    1.5891 H   0  0  0  0  0  0
   34.5519   58.3725    3.6500 H   0  0  0  0  0  0
   36.2248   60.2760    3.5476 H   0  0  0  0  0  0
   35.7746   59.9156    5.2488 H   0  0  0  0  0  0
  1  2  2  0  0  0
  1  6  1  0  0  0
  1 39  1  0  0  0
  2  3  1  0  0  0
  2 11  1  0  0  0
  3  4  2  0  0  0
  3 40  1  0  0  0
  4  5  1  0  0  0
  4 41  1  0  0  0
  5  6  2  0  0  0
  5 10  1  0  0  0
  6  7  1  0  0  0
  7  8  2  0  0  0
  7 42  1  0  0  0
  8  9  1  0  0  0
  8 43  1  0  0  0
  9 10  2  0  0  0
  9 44  1  0  0  0
 10 45  1  0  0  0
 11 12  2  0  0  0
 11 13  1  0  0  0
 13 14  1  0  0  0
 13 46  1  0  0  0
 14 15  1  0  0  0
 14 17  1  0  0  0
 14 47  1  0  0  0
 15 16  2  0  0  0
 15 20  1  0  0  0
 17 18  1  0  0  0
 17 19  1  0  0  0
 17 48  1  0  0  0
 18 49  1  0  0  0
 18 50  1  0  0  0
 18 51  1  0  0  0
 19 52  1  0  0  0
 19 53  1  0  0  0
 19 54  1  0  0  0
 20 21  1  0  0  0
 20 26  1  0  0  0
 21 22  1  0  0  0
 21 24  1  0  0  0
 21 55  1  0  0  0
 22 23  2  0  0  0
 22 27  1  0  0  0
 24 25  1  0  0  0
 24 56  1  0  0  0
 24 57  1  0  0  0
 25 26  1  0  0  0
 25 58  1  0  0  0
 25 59  1  0  0  0
 26 60  1  0  0  0
 26 61  1  0  0  0
 27 32  1  0  0  0
 27 62  1  0  0  0
 28 29  1  0  0  0
 28 32  1  0  0  0
 28 63  1  0  0  0
 28 64  1  0  0  0
 29 30  2  0  0  0
 29 31  1  0  0  0
 30 33  1  0  0  0
 32 38  1  0  0  0
 32 65  1  0  0  0
 33 34  2  0  0  0
 33 35  2  0  0  0
 33 36  1  0  0  0
 36 66  1  0  0  0
 36 67  1  0  0  0
 36 68  1  0  0  0
 37 38  1  0  0  0
 37 69  1  0  0  0
 38 70  1  0  0  0
 38 71  1  0  0  0
M  CHG  1  31  -1
M  END
> <s_m_source_file>
../1bmq_ligand.sdf

> <i_m_source_file_index>
1

> <s_epik_input>
W2NIXTFbY0hdW2NIXVtjSF1jKGMxMilbY0hdYyhbY0hdW2NIXTIpQyg9TylbTkhdW0NAQEhdKFtDSF0oW0NIM10pW0NIM10pQyg9TylOM1tDQEBIXShbQ0gyXVtDSDJdW0NIMl0zKUMoPU8pW05IXVtDQEhdKFtDSDJdW09IXSlbQ0gyXUMoPU8pW05IXVMoPU8pKD1PKVtDSDNd

> <s_epik_cmdline>
J2VwaWtfYXBwJywgJy1pbWFlJywgJ2xpZ2FuZF9wcm8ubWFlJywgJy1vbWFlJywgJ2xpZ2FuZF9wcmVwLm1hZScsICctbXMnLCAnMScsICctcGgnLCAnNycsICctcGh0JywgJzAuNScsICctbnQn

> <r_lp_tautomer_probability>
1

> <r_epik_Ionization_Penalty>
  0.0085

> <r_epik_Ionization_Penalty_Charging>
  0.0085

> <r_epik_Ionization_Penalty_Neutral>
  0.0000

> <r_epik_State_Penalty>
 -0.0000

> <r_epik_Charging_Adjusted_Penalty>
0.0085132020522621

> <i_epik_Tot_Q>
-1

> <i_epik_Tot_abs_Q>
1

$$$$
