1bn1_ligand
                    3D
 Schrodinger Suite 2020-3.
 35 36  0  0  1  0            999 V2000
   -5.2620    1.9170   15.8680 C   0  0  0  0  0  0
   -2.5330    6.0160   13.9960 C   0  0  0  0  0  0
   -2.0730    7.4580   14.0060 C   0  0  0  0  0  0
   -2.0590    8.2370   12.8360 C   0  0  0  0  0  0
   -1.6300    9.5640   12.8920 C   0  0  0  0  0  0
   -1.2090   10.1180   14.1120 C   0  0  0  0  0  0
   -1.2240    9.3400   15.2660 C   0  0  0  0  0  0
   -1.6550    8.0180   15.2120 C   0  0  0  0  0  0
   -0.7060   11.5750   14.2040 C   0  0  0  0  0  0
   -7.3420    0.8980   16.8160 O   0  0  0  0  0  0
   -5.4520    0.8900   18.2090 O   0  0  0  0  0  0
   -5.4260   -0.6700   16.2410 N   0  0  0  0  0  0
   -5.9230    0.6800   16.8870 S   0  0  0  0  0  0
   -3.9450    1.9180   15.4540 C   0  0  0  0  0  0
   -3.6630    3.0440   14.7110 C   0  0  0  0  0  0
   -4.7720    3.8640   14.5850 C   0  0  0  0  0  0
   -6.1860    3.2900   15.3520 S   0  0  0  0  0  0
   -4.9240    5.4130   13.8250 S   0  0  0  0  0  0
   -6.0860    5.4170   12.9990 O   0  0  0  0  0  0
   -5.2530    6.3320   14.8660 O   0  0  0  0  0  0
   -3.6740    5.7880   13.1100 N   0  0  3  0  0  0
   -2.8088    5.7455   15.0259 H   0  0  0  0  0  0
   -1.6850    5.3964   13.6687 H   0  0  0  0  0  0
   -2.3821    7.8062   11.8883 H   0  0  0  0  0  0
   -1.6217   10.1716   11.9871 H   0  0  0  0  0  0
   -0.8974    9.7672   16.2141 H   0  0  0  0  0  0
   -1.6658    7.4155   16.1203 H   0  0  0  0  0  0
   -0.7594   12.0447   13.2108 H   0  0  0  0  0  0
    0.3357   11.5816   14.5572 H   0  0  0  0  0  0
   -1.3360   12.1365   14.9096 H   0  0  0  0  0  0
   -5.8032   -1.5190   16.8300 H   0  0  0  0  0  0
   -4.3262   -0.6894   16.2326 H   0  0  0  0  0  0
   -3.2245    1.1331   15.6840 H   0  0  0  0  0  0
   -2.6876    3.2622   14.2762 H   0  0  0  0  0  0
   -3.6058    6.0559   12.0453 H   0  0  0  0  0  0
  1 17  1  0  0  0
  1 14  2  0  0  0
  1 13  1  0  0  0
  2 21  1  0  0  0
  2  3  1  0  0  0
  2 22  1  0  0  0
  2 23  1  0  0  0
  3  8  2  0  0  0
  3  4  1  0  0  0
  4  5  2  0  0  0
  4 24  1  0  0  0
  5  6  1  0  0  0
  5 25  1  0  0  0
  6  9  1  0  0  0
  6  7  2  0  0  0
  7  8  1  0  0  0
  7 26  1  0  0  0
  8 27  1  0  0  0
  9 28  1  0  0  0
  9 29  1  0  0  0
  9 30  1  0  0  0
 10 13  2  0  0  0
 11 13  2  0  0  0
 12 13  1  0  0  0
 12 31  1  0  0  0
 12 32  1  0  0  0
 14 15  1  0  0  0
 14 33  1  0  0  0
 15 16  2  0  0  0
 15 34  1  0  0  0
 16 18  1  0  0  0
 16 17  1  0  0  0
 18 21  1  0  0  0
 18 20  2  0  0  0
 18 19  2  0  0  0
 21 35  1  0  0  0
M  END
> <s_m_source_file>
../1bn1_ligand.sdf

> <i_m_source_file_index>
1

> <s_epik_input>
Tz1TKD1PKShbTkgyXSljMVtjSF1bY0hdYyhzMSlTKD1PKSg9TylbTkhdW0NIMl1jMltjSF1bY0hdYyhbQ0gzXSlbY0hdW2NIXTI=

> <s_epik_cmdline>
J2VwaWtfYXBwJywgJy1pbWFlJywgJ2xpZ2FuZF9wcm8ubWFlJywgJy1vbWFlJywgJ2xpZ2FuZF9wcmVwLm1hZScsICctbXMnLCAnMScsICctcGgnLCAnNycsICctcGh0JywgJzAuNScsICctbnQn

> <r_epik_Ionization_Penalty>
  0.0347

> <r_epik_Ionization_Penalty_Charging>
  0.0000

> <r_epik_Ionization_Penalty_Neutral>
  0.0347

> <r_epik_State_Penalty>
  0.0272

> <r_epik_Charging_Adjusted_Penalty>
0.0272445529738556

> <i_epik_Tot_Q>
0

> <i_epik_Tot_abs_Q>
0

$$$$
