1bnm_ligand
                    3D
 Schrodinger Suite 2020-3.
 43 45  0  0  1  0            999 V2000
   -5.4000    1.9440   15.9240 C   0  0  0  0  0  0
   -2.4630    4.8670   13.9500 C   0  0  0  0  0  0
   -2.8930    3.4230   13.6810 C   0  0  1  0  0  0
   -1.7410    2.8760   12.0540 C   0  0  0  0  0  0
   -2.7850    9.0350   12.1510 C   0  0  0  0  0  0
   -2.0570    9.6170   13.1770 C   0  0  0  0  0  0
   -1.8380    8.8910   14.3630 C   0  0  0  0  0  0
   -2.3290    7.6200   14.5370 C   0  0  0  0  0  0
   -0.6130   10.6880   15.2670 C   0  0  0  0  0  0
   -5.5380   -0.6170   16.2430 N   0  0  0  0  0  0
   -5.9500    0.6570   16.8730 S   0  0  0  0  0  0
   -5.3910    0.7990   18.1650 O   0  0  0  0  0  0
   -7.3510    0.9550   16.9350 O   0  0  0  0  0  0
   -6.2800    3.4070   15.8760 S   0  0  0  0  0  0
   -5.0780    4.0110   14.8260 C   0  0  0  0  0  0
   -4.0830    3.0570   14.5530 C   0  0  0  0  0  0
   -4.2700    1.8750   15.1870 C   0  0  0  0  0  0
   -3.5320    5.8130   13.6450 N   0  0  0  0  0  0
   -4.9100    5.6420   14.3140 S   0  0  0  0  0  0
   -6.1270    6.0410   13.5250 O   0  0  0  0  0  0
   -4.9680    6.5100   15.5190 O   0  0  0  0  0  0
   -3.1500    3.2010   12.2660 N   0  3  0  0  0  0
   -3.0530    7.0560   13.5040 C   0  0  0  0  0  0
   -3.2870    7.7480   12.3110 C   0  0  0  0  0  0
   -1.1630    9.3500   15.3770 O   0  0  0  0  0  0
   -2.1941    4.9779   15.0109 H   0  0  0  0  0  0
   -1.5930    5.1133   13.3236 H   0  0  0  0  0  0
   -2.0688    2.7292   13.9031 H   0  0  0  0  0  0
   -1.5754    2.6373   10.9931 H   0  0  0  0  0  0
   -1.4679    2.0080   12.6721 H   0  0  0  0  0  0
   -1.1192    3.7381   12.3373 H   0  0  0  0  0  0
   -2.9628    9.5823   11.2253 H   0  0  0  0  0  0
   -1.6586   10.6256   13.0667 H   0  0  0  0  0  0
   -2.1527    7.0724   15.4628 H   0  0  0  0  0  0
   -0.0726   10.9394   16.1915 H   0  0  0  0  0  0
   -1.4296   11.4085   15.1121 H   0  0  0  0  0  0
    0.0802   10.7305   14.4140 H   0  0  0  0  0  0
   -5.8922   -1.4599   16.8547 H   0  0  0  0  0  0
   -4.4410   -0.6522   16.1703 H   0  0  0  0  0  0
   -3.6141    1.0074   15.1143 H   0  0  0  0  0  0
   -3.8895    2.3950   12.1497 H   0  0  0  0  0  0
   -3.5408    4.1250   11.8149 H   0  0  0  0  0  0
   -3.8602    7.2805   11.5104 H   0  0  0  0  0  0
  1 11  1  0  0  0
  1 14  1  0  0  0
  1 17  2  0  0  0
  2  3  1  0  0  0
  2 18  1  0  0  0
  2 26  1  0  0  0
  2 27  1  0  0  0
  3 16  1  0  0  0
  3 22  1  0  0  0
  3 28  1  0  0  0
  4 22  1  0  0  0
  4 29  1  0  0  0
  4 30  1  0  0  0
  4 31  1  0  0  0
  5  6  2  0  0  0
  5 24  1  0  0  0
  5 32  1  0  0  0
  6  7  1  0  0  0
  6 33  1  0  0  0
  7  8  2  0  0  0
  7 25  1  0  0  0
  8 23  1  0  0  0
  8 34  1  0  0  0
  9 25  1  0  0  0
  9 35  1  0  0  0
  9 36  1  0  0  0
  9 37  1  0  0  0
 10 11  1  0  0  0
 10 38  1  0  0  0
 10 39  1  0  0  0
 11 12  2  0  0  0
 11 13  2  0  0  0
 14 15  1  0  0  0
 15 16  2  0  0  0
 15 19  1  0  0  0
 16 17  1  0  0  0
 17 40  1  0  0  0
 18 19  1  0  0  0
 18 23  1  0  0  0
 19 20  2  0  0  0
 19 21  2  0  0  0
 22 41  1  0  0  0
 22 42  1  0  0  0
 23 24  2  0  0  0
 24 43  1  0  0  0
M  CHG  1  22   1
M  END
> <s_m_source_file>
../1bnm_ligand.sdf

> <i_m_source_file_index>
1

> <s_epik_input>
W05IMl1TKD1PKSg9TyljKHMxKVtjSF1jKGMxMilbQ0BASF0oW05IMitdW0NIM10pW0NIMl1OKFMyKD1PKT1PKWMoW2NIXTMpW2NIXVtjSF1bY0hdYzNPW0NIM10=

> <s_epik_cmdline>
J2VwaWtfYXBwJywgJy1pbWFlJywgJ2xpZ2FuZF9wcm8ubWFlJywgJy1vbWFlJywgJ2xpZ2FuZF9wcmVwLm1hZScsICctbXMnLCAnMScsICctcGgnLCAnNycsICctcGh0JywgJzAuNScsICctbnQn

> <r_lp_tautomer_probability>
1

> <r_epik_Ionization_Penalty>
  0.0814

> <r_epik_Ionization_Penalty_Charging>
  0.0171

> <r_epik_Ionization_Penalty_Neutral>
  0.0643

> <r_epik_State_Penalty>
 -0.0000

> <r_epik_Charging_Adjusted_Penalty>
0.0171166842628382

> <i_epik_Tot_Q>
1

> <i_epik_Tot_abs_Q>
1

$$$$
