1bnt_ligand
                    3D
 Schrodinger Suite 2020-3.
 38 40  0  0  1  0            999 V2000
   -5.2980    2.0710   15.9760 C   0  0  0  0  0  0
   -2.3840    2.8150   12.7910 O   0  0  0  0  0  0
   -3.1400    5.0670   12.8350 C   0  0  0  0  0  0
   -2.7570    3.8410   13.6970 C   0  0  1  0  0  0
   -3.0180    7.2900   13.8320 C   0  0  0  0  0  0
   -2.9630    8.0310   12.6430 C   0  0  0  0  0  0
   -2.4250    9.3160   12.6570 C   0  0  0  0  0  0
   -1.9250    9.8350   13.8530 C   0  0  0  0  0  0
   -1.9510    9.0880   15.0400 C   0  0  0  0  0  0
   -2.5070    7.8110   15.0280 C   0  0  0  0  0  0
   -5.4860    0.8180   18.2380 O   0  0  0  0  0  0
   -7.3100    0.9230   16.8750 O   0  0  0  0  0  0
   -5.5200   -0.5310   16.2930 N   0  0  0  0  0  0
   -5.9080    0.7570   16.8950 S   0  0  0  0  0  0
   -4.1150    2.1470   15.2890 C   0  0  0  0  0  0
   -3.8850    3.3250   14.6260 C   0  0  0  0  0  0
   -4.9450    4.1890   14.8420 C   0  0  0  0  0  0
   -6.1910    3.5260   15.8110 S   0  0  0  0  0  0
   -4.9630    5.7960   14.2370 S   0  0  0  0  0  0
   -5.8730    5.8450   13.1410 O   0  0  0  0  0  0
   -5.4530    6.6170   15.3010 O   0  0  0  0  0  0
   -3.5200    6.0470   13.8370 N   0  0  0  0  0  0
   -1.4580   11.1370   13.8280 O   0  0  0  0  0  0
   -0.0750   11.2720   13.4630 C   0  0  0  0  0  0
   -1.5925    2.9973   12.0492 H   0  0  0  0  0  0
   -2.2713    5.3810   12.2377 H   0  0  0  0  0  0
   -3.9689    4.7986   12.1635 H   0  0  0  0  0  0
   -1.8929    4.0809   14.3340 H   0  0  0  0  0  0
   -3.3390    7.6042   11.7132 H   0  0  0  0  0  0
   -2.3947    9.9102   11.7437 H   0  0  0  0  0  0
   -1.5408    9.5021   15.9611 H   0  0  0  0  0  0
   -2.5443    7.2206   15.9435 H   0  0  0  0  0  0
   -5.9226   -1.3554   16.8998 H   0  0  0  0  0  0
   -4.4230   -0.6035   16.2576 H   0  0  0  0  0  0
   -3.4017    1.3230   15.2707 H   0  0  0  0  0  0
    0.2040   12.3360   13.4704 H   0  0  0  0  0  0
    0.0802   10.8593   12.4553 H   0  0  0  0  0  0
    0.5496   10.7241   14.1839 H   0  0  0  0  0  0
  1 18  1  0  0  0
  1 15  2  0  0  0
  1 14  1  0  0  0
  2  4  1  0  0  0
  2 25  1  0  0  0
  3  4  1  0  0  0
  3 22  1  0  0  0
  3 26  1  0  0  0
  3 27  1  0  0  0
  4 16  1  0  0  0
  4 28  1  0  0  0
  5 22  1  0  0  0
  5 10  2  0  0  0
  5  6  1  0  0  0
  6  7  2  0  0  0
  6 29  1  0  0  0
  7  8  1  0  0  0
  7 30  1  0  0  0
  8 23  1  0  0  0
  8  9  2  0  0  0
  9 10  1  0  0  0
  9 31  1  0  0  0
 10 32  1  0  0  0
 11 14  2  0  0  0
 12 14  2  0  0  0
 13 14  1  0  0  0
 13 33  1  0  0  0
 13 34  1  0  0  0
 15 16  1  0  0  0
 15 35  1  0  0  0
 16 17  2  0  0  0
 17 19  1  0  0  0
 17 18  1  0  0  0
 19 22  1  0  0  0
 19 21  2  0  0  0
 19 20  2  0  0  0
 23 24  1  0  0  0
 24 36  1  0  0  0
 24 37  1  0  0  0
 24 38  1  0  0  0
M  END
> <s_m_source_file>
../1bnt_ligand.sdf

> <i_m_source_file_index>
1

> <s_epik_input>
Tz1TKD1PKShbTkgyXSljKFtjSF0xKXNjKGMxMilTKD1PKSg9TylOKFtDSDJdW0NAQEhdMltPSF0pYzNbY0hdW2NIXWMoW2NIXVtjSF0zKU9bQ0gzXQ==

> <s_epik_cmdline>
J2VwaWtfYXBwJywgJy1pbWFlJywgJ2xpZ2FuZF9wcm8ubWFlJywgJy1vbWFlJywgJ2xpZ2FuZF9wcmVwLm1hZScsICctbXMnLCAnMScsICctcGgnLCAnNycsICctcGh0JywgJzAuNScsICctbnQn

> <r_lp_tautomer_probability>
1

> <r_epik_Ionization_Penalty>
  0.0274

> <r_epik_Ionization_Penalty_Charging>
  0.0000

> <r_epik_Ionization_Penalty_Neutral>
  0.0274

> <r_epik_State_Penalty>
  0.0225

> <r_epik_Charging_Adjusted_Penalty>
0.0224628779340827

> <i_epik_Tot_Q>
0

> <i_epik_Tot_abs_Q>
0

$$$$
