1bnu_ligand
                    3D
 Schrodinger Suite 2020-3.
 34 36  0  0  1  0            999 V2000
   -5.3870    2.1330   15.8720 C   0  0  0  0  0  0
   -2.3100    3.0260   12.8700 O   0  0  0  0  0  0
   -3.3960    5.1670   12.7360 C   0  0  0  0  0  0
   -2.9520    4.0030   13.6750 C   0  0  1  0  0  0
   -3.0250    6.6200   14.5750 C   0  0  0  0  0  0
   -2.4260    7.8850   14.2360 C   0  0  0  0  0  0
   -2.4300    8.5120   13.0050 C   0  0  0  0  0  0
   -1.7940    9.7230   13.0680 C   0  0  0  0  0  0
   -1.2980   10.0360   14.3240 C   0  0  0  0  0  0
   -5.4610    0.9870   18.1890 O   0  0  0  0  0  0
   -7.3040    0.8500   16.8940 O   0  0  0  0  0  0
   -5.3540   -0.3940   16.2360 N   0  0  0  0  0  0
   -5.8810    0.8350   16.8560 S   0  0  0  0  0  0
   -4.2640    2.2050   15.1130 C   0  0  0  0  0  0
   -4.1360    3.3590   14.4010 C   0  0  0  0  0  0
   -5.2000    4.1940   14.6360 C   0  0  0  0  0  0
   -6.3430    3.5400   15.7230 S   0  0  0  0  0  0
   -5.3150    5.8180   14.0610 S   0  0  0  0  0  0
   -6.2970    5.8260   13.0500 O   0  0  0  0  0  0
   -5.8480    6.6350   15.1020 O   0  0  0  0  0  0
   -3.9840    6.2390   13.5360 N   0  0  2  0  0  0
   -1.6320    8.7810   15.4670 S   0  0  0  0  0  0
   -1.4312    3.3004   12.2680 H   0  0  0  0  0  0
   -2.5215    5.5526   12.1914 H   0  0  0  0  0  0
   -4.1407    4.7945   12.0172 H   0  0  0  0  0  0
   -2.2236    4.3406   14.4270 H   0  0  0  0  0  0
   -3.5456    6.7081   15.5400 H   0  0  0  0  0  0
   -2.2412    5.8519   14.6500 H   0  0  0  0  0  0
   -2.8799    8.0975   12.1029 H   0  0  0  0  0  0
   -1.6872   10.3825   12.2067 H   0  0  0  0  0  0
   -0.7649   10.9566   14.5615 H   0  0  0  0  0  0
   -5.6492   -1.2649   16.8397 H   0  0  0  0  0  0
   -4.2566   -0.3377   16.1856 H   0  0  0  0  0  0
   -3.5250    1.4046   15.0763 H   0  0  0  0  0  0
  1 17  1  0  0  0
  1 14  2  0  0  0
  1 13  1  0  0  0
  2  4  1  0  0  0
  2 23  1  0  0  0
  3  4  1  0  0  0
  3 21  1  0  0  0
  3 24  1  0  0  0
  3 25  1  0  0  0
  4 15  1  0  0  0
  4 26  1  0  0  0
  5 21  1  0  0  0
  5  6  1  0  0  0
  5 27  1  0  0  0
  5 28  1  0  0  0
  6 22  1  0  0  0
  6  7  2  0  0  0
  7  8  1  0  0  0
  7 29  1  0  0  0
  8  9  2  0  0  0
  8 30  1  0  0  0
  9 22  1  0  0  0
  9 31  1  0  0  0
 10 13  2  0  0  0
 11 13  2  0  0  0
 12 13  1  0  0  0
 12 32  1  0  0  0
 12 33  1  0  0  0
 14 15  1  0  0  0
 14 34  1  0  0  0
 15 16  2  0  0  0
 16 18  1  0  0  0
 16 17  1  0  0  0
 18 21  1  0  0  0
 18 20  2  0  0  0
 18 19  2  0  0  0
M  END
> <s_m_source_file>
../1bnu_ligand.sdf

> <i_m_source_file_index>
1

> <s_epik_input>
Tz1TKD1PKShbTkgyXSljKFtjSF0xKXNjKGMxMilTKD1PKSg9TylOKFtDSDJdW0NAQEhdMltPSF0pW0NIMl1jM1tjSF1bY0hdW2NIXXMz

> <s_epik_cmdline>
J2VwaWtfYXBwJywgJy1pbWFlJywgJ2xpZ2FuZF9wcm8ubWFlJywgJy1vbWFlJywgJ2xpZ2FuZF9wcmVwLm1hZScsICctbXMnLCAnMScsICctcGgnLCAnNycsICctcGh0JywgJzAuNScsICctbnQn

> <r_epik_Ionization_Penalty>
  0.0377

> <r_epik_Ionization_Penalty_Charging>
  0.0000

> <r_epik_Ionization_Penalty_Neutral>
  0.0377

> <r_epik_State_Penalty>
  0.0316

> <r_epik_Charging_Adjusted_Penalty>
0.0315822774139206

> <i_epik_Tot_Q>
0

> <i_epik_Tot_abs_Q>
0

$$$$
