1bnv_ligand
                    3D
 Schrodinger Suite 2020-3.
 43 45  0  0  1  0            999 V2000
   -5.4570    1.8790   15.8760 C   0  0  0  0  0  0
   -4.1420    4.6350   12.2540 C   0  0  0  0  0  0
   -3.4840    3.4720   13.0120 C   0  0  2  0  0  0
   -1.5470    3.0460   12.4460 C   0  0  0  0  0  0
   -2.6170    8.7210   11.8780 C   0  0  0  0  0  0
   -1.8960    9.1920   12.9630 C   0  0  0  0  0  0
   -1.9140    8.4830   14.1610 C   0  0  0  0  0  0
   -2.6460    7.2920   14.2810 C   0  0  0  0  0  0
   -0.6030   10.1410   15.2420 C   0  0  0  0  0  0
   -5.6080   -0.7560   16.4350 N   0  0  0  0  0  0
   -5.9320    0.5970   16.9390 S   0  0  0  0  0  0
   -5.3140    0.8520   18.1880 O   0  0  0  0  0  0
   -7.3140    0.7730   16.9140 O   0  0  0  0  0  0
   -6.1480    3.4410   16.0360 S   0  0  0  0  0  0
   -5.2150    3.9570   14.7200 C   0  0  0  0  0  0
   -4.3770    2.9900   14.1530 C   0  0  0  0  0  0
   -4.5440    1.8080   14.8390 C   0  0  0  0  0  0
   -4.1910    5.7360   13.2140 N   0  0  0  0  0  0
   -5.3450    5.5640   14.1550 S   0  0  0  0  0  0
   -6.6280    5.7420   13.4100 O   0  0  0  0  0  0
   -5.2660    6.4310   15.3640 O   0  0  0  0  0  0
   -2.1620    3.8540   13.4980 N   0  3  0  0  0  0
   -3.3910    6.8190   13.1810 C   0  0  0  0  0  0
   -3.3590    7.5480   11.9850 C   0  0  0  0  0  0
   -1.3110    8.8950   15.2380 O   0  0  0  0  0  0
   -3.5326    4.8910   11.3747 H   0  0  0  0  0  0
   -5.1493    4.3368   11.9278 H   0  0  0  0  0  0
   -3.3030    2.6320   12.3253 H   0  0  0  0  0  0
   -0.4519    3.1130   12.5252 H   0  0  0  0  0  0
   -1.8671    3.4198   11.4622 H   0  0  0  0  0  0
   -1.8594    1.9974   12.5592 H   0  0  0  0  0  0
   -2.6033    9.2709   10.9370 H   0  0  0  0  0  0
   -1.3180   10.1123   12.8793 H   0  0  0  0  0  0
   -2.6389    6.7359   15.2185 H   0  0  0  0  0  0
   -0.1655   10.3109   16.2368 H   0  0  0  0  0  0
   -1.2987   10.9588   15.0029 H   0  0  0  0  0  0
    0.1986   10.1096   14.4894 H   0  0  0  0  0  0
   -5.9407   -1.5086   17.1650 H   0  0  0  0  0  0
   -4.5212   -0.8423   16.2888 H   0  0  0  0  0  0
   -4.0038    0.8955   14.5869 H   0  0  0  0  0  0
   -2.0534    4.9473   13.4441 H   0  0  0  0  0  0
   -2.0456    3.5249   14.5412 H   0  0  0  0  0  0
   -3.9243    7.1909   11.1242 H   0  0  0  0  0  0
  1 17  2  0  0  0
  1 14  1  0  0  0
  1 11  1  0  0  0
  2  3  1  0  0  0
  2 18  1  0  0  0
  2 26  1  0  0  0
  2 27  1  0  0  0
  3 16  1  0  0  0
  3 22  1  0  0  0
  3 28  1  0  0  0
  4 22  1  0  0  0
  4 29  1  0  0  0
  4 30  1  0  0  0
  4 31  1  0  0  0
  5 24  2  0  0  0
  5  6  1  0  0  0
  5 32  1  0  0  0
  6  7  2  0  0  0
  6 33  1  0  0  0
  7 25  1  0  0  0
  7  8  1  0  0  0
  8 23  2  0  0  0
  8 34  1  0  0  0
  9 25  1  0  0  0
  9 35  1  0  0  0
  9 36  1  0  0  0
  9 37  1  0  0  0
 10 11  1  0  0  0
 10 38  1  0  0  0
 10 39  1  0  0  0
 11 13  2  0  0  0
 11 12  2  0  0  0
 14 15  1  0  0  0
 15 19  1  0  0  0
 15 16  2  0  0  0
 16 17  1  0  0  0
 17 40  1  0  0  0
 18 19  1  0  0  0
 18 23  1  0  0  0
 19 21  2  0  0  0
 19 20  2  0  0  0
 22 41  1  0  0  0
 22 42  1  0  0  0
 23 24  1  0  0  0
 24 43  1  0  0  0
M  CHG  1  22   1
M  END
> <s_m_source_file>
../1bnv_ligand.sdf

> <i_m_source_file_index>
1

> <s_epik_input>
W05IMl1TKD1PKSg9TyljKHMxKVtjSF1jKGMxMilbQ0BIXShbTkgyK11bQ0gzXSlbQ0gyXU4oUzIoPU8pPU8pYyhbY0hdMylbY0hdW2NIXVtjSF1jM09bQ0gzXQ==

> <s_epik_cmdline>
J2VwaWtfYXBwJywgJy1pbWFlJywgJ2xpZ2FuZF9wcm8ubWFlJywgJy1vbWFlJywgJ2xpZ2FuZF9wcmVwLm1hZScsICctbXMnLCAnMScsICctcGgnLCAnNycsICctcGh0JywgJzAuNScsICctbnQn

> <r_lp_tautomer_probability>
1

> <r_epik_Ionization_Penalty>
  0.0814

> <r_epik_Ionization_Penalty_Charging>
  0.0171

> <r_epik_Ionization_Penalty_Neutral>
  0.0643

> <r_epik_State_Penalty>
 -0.0000

> <r_epik_Charging_Adjusted_Penalty>
0.0171166842628382

> <i_epik_Tot_Q>
1

> <i_epik_Tot_abs_Q>
1

$$$$
