1bo5_ligand
                    3D
 Schrodinger Suite 2020-3.
 30 30  0  0  1  0            999 V2000
    7.8280   71.7600   73.8110 P   0  0  0  0  0  0
    9.0160   71.3110   74.5710 O   0  0  0  0  0  0
    6.7770   71.9780   74.8430 O   0  5  0  0  0  0
    7.7190   70.8740   72.6140 O   0  5  0  0  0  0
    8.1310   73.2240   73.2520 O   0  0  0  0  0  0
    7.9910   74.3280   74.1540 C   0  0  0  0  0  0
    8.4180   75.6110   73.4320 C   0  0  2  0  0  0
    7.6740   76.7710   73.8030 O   0  0  0  0  0  0
    7.9370   75.7350   72.0140 C   0  0  1  0  0  0
    6.7780   76.5410   71.9580 O   0  0  0  0  0  0
    9.0980   76.4240   71.3060 C   0  0  2  0  0  0
    9.2950   75.8900   70.0120 O   0  0  0  0  0  0
   10.2590   75.9920   72.1240 C   0  0  2  0  0  0
    9.8270   75.9590   73.4780 O   0  0  0  0  0  0
   11.4600   76.9110   71.9800 C   0  0  0  0  0  0
   12.5040   76.1410   71.4010 O   0  0  0  0  0  0
   13.7820   75.9730   72.3240 P   0  0  0  0  0  0
   14.7490   77.0230   71.9650 O   0  0  0  0  0  0
   13.3530   76.1950   73.7230 O   0  5  0  0  0  0
   14.4160   74.6970   71.9530 O   0  5  0  0  0  0
    6.9413   74.4105   74.4724 H   0  0  0  0  0  0
    8.6295   74.1652   75.0348 H   0  0  0  0  0  0
    6.5752   76.7325   73.8356 H   0  0  0  0  0  0
    7.6037   74.7889   71.5627 H   0  0  0  0  0  0
    5.8433   76.1933   72.4223 H   0  0  0  0  0  0
    8.9692   77.5059   71.1543 H   0  0  0  0  0  0
    8.5547   76.0787   69.2206 H   0  0  0  0  0  0
   10.5606   74.9780   71.8224 H   0  0  0  0  0  0
   11.1967   77.7595   71.3314 H   0  0  0  0  0  0
   11.7563   77.2852   72.9710 H   0  0  0  0  0  0
  1  2  2  0  0  0
  1  3  1  0  0  0
  1  4  1  0  0  0
  1  5  1  0  0  0
  5  6  1  0  0  0
  6  7  1  0  0  0
  6 21  1  0  0  0
  6 22  1  0  0  0
  7  8  1  0  0  0
  7  9  1  0  0  0
  7 14  1  0  0  0
  8 23  1  0  0  0
  9 10  1  0  0  0
  9 11  1  0  0  0
  9 24  1  0  0  0
 10 25  1  0  0  0
 11 12  1  0  0  0
 11 13  1  0  0  0
 11 26  1  0  0  0
 12 27  1  0  0  0
 13 14  1  0  0  0
 13 15  1  0  0  0
 13 28  1  0  0  0
 15 16  1  0  0  0
 15 29  1  0  0  0
 15 30  1  0  0  0
 16 17  1  0  0  0
 17 18  2  0  0  0
 17 19  1  0  0  0
 17 20  1  0  0  0
M  CHG  4   3  -1   4  -1  19  -1  20  -1
M  END
> <s_m_source_file>
../1bo5_ligand.sdf

> <i_m_source_file_index>
1

> <s_epik_input>
Tz1QKFtPSF0pKFtPSF0pT1tDSDJdW0NAXTEoW09IXSlbQ0BASF0oW09IXSlbQ0BIXShbT0hdKVtDQEhdKE8xKVtDSDJdT1AoPU8pKFtPSF0pW09IXQ==

> <s_epik_cmdline>
J2VwaWtfYXBwJywgJy1pbWFlJywgJ2xpZ2FuZF9wcm8ubWFlJywgJy1vbWFlJywgJ2xpZ2FuZF9wcmVwLm1hZScsICctbXMnLCAnMScsICctcGgnLCAnNycsICctcGh0JywgJzAuNScsICctbnQn

> <r_lp_tautomer_probability>
1

> <r_epik_Ionization_Penalty>
  0.1882

> <r_epik_Ionization_Penalty_Charging>
  0.1882

> <r_epik_Ionization_Penalty_Neutral>
  0.0000

> <r_epik_State_Penalty>
 -0.0000

> <r_epik_Charging_Adjusted_Penalty>
0.188195921498509

> <i_epik_Tot_Q>
-4

> <i_epik_Tot_abs_Q>
4

$$$$
