1bp0_ligand
                    3D
 Schrodinger Suite 2020-3.
 31 32  0  0  1  0            999 V2000
   14.6320   49.3690  -54.0670 N   0  0  0  0  0  0
   13.7590   48.3600  -53.6130 C   0  0  0  0  0  0
   12.9080   48.7720  -52.6010 N   0  0  0  0  0  0
   12.8720   50.0530  -52.0340 C   0  0  0  0  0  0
   13.8180   51.0080  -52.5780 C   0  0  0  0  0  0
   14.6710   50.5960  -53.5940 C   0  0  0  0  0  0
   13.6830   47.1930  -54.0040 O   0  0  0  0  0  0
   12.0820   50.3120  -51.1310 O   0  0  0  0  0  0
   15.5860   49.1780  -55.1500 C   0  0  1  0  0  0
   14.9980   48.8780  -56.5280 C   0  0  0  0  0  0
   16.2310   49.0110  -57.4080 C   0  0  1  0  0  0
   16.9300   50.3020  -56.9630 C   0  0  2  0  0  0
   17.0860   47.8970  -57.0730 O   0  0  0  0  0  0
   16.5220   50.3020  -55.5030 O   0  0  0  0  0  0
   16.3330   51.5210  -57.6790 C   0  0  0  0  0  0
   16.7830   51.5820  -59.0900 O   0  0  0  0  0  0
   15.8340   52.2120  -60.1670 P   0  0  0  0  0  0
   14.7850   51.2090  -60.2900 O   0  0  0  0  0  0
   15.2740   53.4900  -59.6740 O   0  5  0  0  0  0
   16.3700   52.4670  -61.5100 O   0  5  0  0  0  0
   12.1797   48.0670  -52.1737 H   0  0  0  0  0  0
   13.8589   52.0286  -52.1973 H   0  0  0  0  0  0
   15.3881   51.3046  -54.0083 H   0  0  0  0  0  0
   16.0805   48.3498  -54.6213 H   0  0  0  0  0  0
   14.5654   47.8666  -56.5298 H   0  0  0  0  0  0
   14.2130   49.6129  -56.7596 H   0  0  0  0  0  0
   16.0222   48.9824  -58.4876 H   0  0  0  0  0  0
   18.0125   50.3477  -57.1529 H   0  0  0  0  0  0
   16.7694   46.8703  -57.3089 H   0  0  0  0  0  0
   15.2351   51.4551  -57.6617 H   0  0  0  0  0  0
   16.6532   52.4403  -57.1668 H   0  0  0  0  0  0
  1  2  1  0  0  0
  1  6  1  0  0  0
  1  9  1  0  0  0
  2  3  1  0  0  0
  2  7  2  0  0  0
  3  4  1  0  0  0
  3 21  1  0  0  0
  4  5  1  0  0  0
  4  8  2  0  0  0
  5  6  2  0  0  0
  5 22  1  0  0  0
  6 23  1  0  0  0
  9 10  1  0  0  0
  9 14  1  0  0  0
  9 24  1  0  0  0
 10 11  1  0  0  0
 10 25  1  0  0  0
 10 26  1  0  0  0
 11 12  1  0  0  0
 11 13  1  0  0  0
 11 27  1  0  0  0
 12 14  1  0  0  0
 12 15  1  0  0  0
 12 28  1  0  0  0
 13 29  1  0  0  0
 15 16  1  0  0  0
 15 30  1  0  0  0
 15 31  1  0  0  0
 16 17  1  0  0  0
 17 18  2  0  0  0
 17 19  1  0  0  0
 17 20  1  0  0  0
M  CHG  2  19  -1  20  -1
M  END
> <s_m_source_file>
../1bp0_ligand.sdf

> <i_m_source_file_index>
1

> <s_epik_input>
W2NIXTFbY0hdYyg9TylbbkhdYyg9TyluMVtDQEhdMltDSDJdW0NASF0oW09IXSlbQ0BIXShPMilbQ0gyXU9QKD1PKShbT0hdKVtPSF0=

> <s_epik_cmdline>
J2VwaWtfYXBwJywgJy1pbWFlJywgJ2xpZ2FuZF9wcm8ubWFlJywgJy1vbWFlJywgJ2xpZ2FuZF9wcmVwLm1hZScsICctbXMnLCAnMScsICctcGgnLCAnNycsICctcGh0JywgJzAuNScsICctbnQn

> <r_lp_tautomer_probability>
0.999537046341301

> <r_epik_Ionization_Penalty>
  0.1102

> <r_epik_Ionization_Penalty_Charging>
  0.1102

> <r_epik_Ionization_Penalty_Neutral>
  0.0000

> <r_epik_State_Penalty>
  0.0980

> <r_epik_Charging_Adjusted_Penalty>
0.208182664404309

> <i_epik_Tot_Q>
-2

> <i_epik_Tot_abs_Q>
2

> <s_epik_Chemistry_Notes>
This compound contains an acetal/aminal-like group ( X-CH(R)-Y where X, Y are N, S, or O) that may be acid/base labile, releasing an aldehyde.

$$$$
