1bqm_ligand
                    3D
 Schrodinger Suite 2020-3.
 42 43  0  0  1  0            999 V2000
  143.3080  -26.7940   71.7780 C   0  0  2  0  0  0
  142.2270  -27.6930   70.8790 C   0  0  0  0  0  0
  141.9390  -29.2540   72.8390 C   0  0  0  0  0  0
  143.0130  -28.5030   73.6420 C   0  0  0  0  0  0
  143.6540  -29.1090   74.7660 C   0  0  0  0  0  0
  143.3430  -30.4270   75.1680 C   0  0  0  0  0  0
  142.1390  -31.1500   74.5210 C   0  0  0  0  0  0
  141.3980  -30.4820   73.3910 C   0  0  0  0  0  0
  144.0780  -26.0980   74.2440 C   0  0  0  0  0  0
  144.0830  -25.6040   76.7710 C   0  0  0  0  0  0
  145.2930  -24.8540   77.3910 C   0  0  0  0  0  0
  142.9760  -24.6160   76.2600 C   0  0  0  0  0  0
  144.7870  -26.7570   71.1570 C   0  0  0  0  0  0
  147.3120  -27.9380   70.9790 C   0  0  0  0  0  0
  143.8060  -32.2590   77.0390 C   0  0  0  0  0  0
  143.3390  -27.1230   73.3180 N   0  0  0  0  0  0
  141.4890  -28.7400   71.5500 N   0  0  0  0  0  0
  144.3020  -24.8810   73.8050 O   0  0  0  0  0  0
  144.4690  -26.5310   75.5540 O   0  0  0  0  0  0
  144.2650  -31.0640   76.2330 O   0  0  0  0  0  0
  141.9050  -27.1290   69.1770 S   0  0  0  0  0  0
  145.9590  -27.7730   72.2290 S   0  0  0  0  0  0
  142.9353  -25.7592   71.7606 H   0  0  0  0  0  0
  144.3987  -28.5424   75.3250 H   0  0  0  0  0  0
  141.8294  -32.1322   74.8782 H   0  0  0  0  0  0
  140.4768  -30.9117   72.9975 H   0  0  0  0  0  0
  143.7140  -26.2160   77.6072 H   0  0  0  0  0  0
  144.9478  -24.2311   78.2293 H   0  0  0  0  0  0
  145.7589  -24.2147   76.6266 H   0  0  0  0  0  0
  146.0294  -25.5849   77.7562 H   0  0  0  0  0  0
  142.6749  -23.9470   77.0797 H   0  0  0  0  0  0
  142.1030  -25.1899   75.9156 H   0  0  0  0  0  0
  143.3741  -24.0186   75.4266 H   0  0  0  0  0  0
  144.7686  -27.1775   70.1407 H   0  0  0  0  0  0
  145.1420  -25.7166   71.1170 H   0  0  0  0  0  0
  148.1389  -28.5225   71.4087 H   0  0  0  0  0  0
  147.6762  -26.9386   70.6988 H   0  0  0  0  0  0
  146.9256  -28.4511   70.0860 H   0  0  0  0  0  0
  144.6019  -32.5582   77.7368 H   0  0  0  0  0  0
  143.5805  -33.0945   76.3600 H   0  0  0  0  0  0
  142.9018  -31.9932   77.6063 H   0  0  0  0  0  0
  140.5807  -29.1551   71.0887 H   0  0  0  0  0  0
  1  2  1  0  0  0
  1 13  1  0  0  0
  1 16  1  0  0  0
  1 23  1  0  0  0
  2 17  1  0  0  0
  2 21  2  0  0  0
  3  4  2  0  0  0
  3  8  1  0  0  0
  3 17  1  0  0  0
  4  5  1  0  0  0
  4 16  1  0  0  0
  5  6  2  0  0  0
  5 24  1  0  0  0
  6  7  1  0  0  0
  6 20  1  0  0  0
  7  8  2  0  0  0
  7 25  1  0  0  0
  8 26  1  0  0  0
  9 16  1  0  0  0
  9 18  2  0  0  0
  9 19  1  0  0  0
 10 11  1  0  0  0
 10 12  1  0  0  0
 10 19  1  0  0  0
 10 27  1  0  0  0
 11 28  1  0  0  0
 11 29  1  0  0  0
 11 30  1  0  0  0
 12 31  1  0  0  0
 12 32  1  0  0  0
 12 33  1  0  0  0
 13 22  1  0  0  0
 13 34  1  0  0  0
 13 35  1  0  0  0
 14 22  1  0  0  0
 14 36  1  0  0  0
 14 37  1  0  0  0
 14 38  1  0  0  0
 15 20  1  0  0  0
 15 39  1  0  0  0
 15 40  1  0  0  0
 15 41  1  0  0  0
 17 42  1  0  0  0
M  END
> <s_m_source_file>
../1bqm_ligand.sdf

> <i_m_source_file_index>
1

> <s_epik_input>
W0NIM11bQ0hdKFtDSDNdKU9DKD1PKU4oW0NASF0oQyg9UylbTkhdMSlbQ0gyXVNbQ0gzXSljKGMxMilbY0hdYyhbY0hdW2NIXTIpT1tDSDNd

> <s_epik_cmdline>
J2VwaWtfYXBwJywgJy1pbWFlJywgJ2xpZ2FuZF9wcm8ubWFlJywgJy1vbWFlJywgJ2xpZ2FuZF9wcmVwLm1hZScsICctbXMnLCAnMScsICctcGgnLCAnNycsICctcGh0JywgJzAuNScsICctbnQn

> <r_lp_tautomer_probability>
1

> <r_epik_Ionization_Penalty>
  0.0000

> <r_epik_Ionization_Penalty_Charging>
  0.0000

> <r_epik_Ionization_Penalty_Neutral>
  0.0000

> <r_epik_State_Penalty>
 -0.0000

> <r_epik_Charging_Adjusted_Penalty>
0

> <i_epik_Tot_Q>
0

> <i_epik_Tot_abs_Q>
0

> <s_epik_Chemistry_Notes>
This compound has an ester and may undergo hydrolysis at high or low pH.

$$$$
