1bqn_ligand
                    3D
 Schrodinger Suite 2020-3.
 42 43  0  0  1  0            999 V2000
  143.9560  -27.3820   72.1070 C   0  0  2  0  0  0
  142.5410  -27.8860   71.4070 C   0  0  0  0  0  0
  142.3180  -29.5460   73.2470 C   0  0  0  0  0  0
  143.4460  -28.9490   74.0060 C   0  0  0  0  0  0
  143.9620  -29.6270   75.1350 C   0  0  0  0  0  0
  143.3740  -30.8700   75.5670 C   0  0  0  0  0  0
  142.2430  -31.4130   74.8510 C   0  0  0  0  0  0
  141.7250  -30.7420   73.6910 C   0  0  0  0  0  0
  145.0120  -26.8940   74.4610 C   0  0  0  0  0  0
  144.6230  -25.9730   76.8710 C   0  0  0  0  0  0
  145.6770  -24.8610   76.8150 C   0  0  0  0  0  0
  143.2270  -25.4470   76.5330 C   0  0  0  0  0  0
  145.2460  -27.9690   71.4050 C   0  0  0  0  0  0
  147.8000  -29.1520   71.6900 C   0  0  0  0  0  0
  143.3650  -32.9040   77.1590 C   0  0  0  0  0  0
  144.0030  -27.6550   73.6310 N   0  0  0  0  0  0
  141.8150  -28.9190   72.0630 N   0  0  0  0  0  0
  145.8580  -26.1200   73.8770 O   0  0  0  0  0  0
  144.9670  -27.1170   75.8890 O   0  0  0  0  0  0
  143.9250  -31.5960   76.7300 O   0  0  0  0  0  0
  142.0210  -27.1610   69.8910 S   0  0  0  0  0  0
  146.5300  -28.4160   72.7410 S   0  0  0  0  0  0
  144.0186  -26.2881   72.0092 H   0  0  0  0  0  0
  144.8075  -29.2079   75.6804 H   0  0  0  0  0  0
  141.7794  -32.3382   75.1932 H   0  0  0  0  0  0
  140.8727  -31.1595   73.1550 H   0  0  0  0  0  0
  144.6215  -26.3447   77.9063 H   0  0  0  0  0  0
  145.4062  -24.0632   77.5223 H   0  0  0  0  0  0
  145.7210  -24.4485   75.7962 H   0  0  0  0  0  0
  146.6600  -25.2735   77.0863 H   0  0  0  0  0  0
  142.9656  -24.6312   77.2230 H   0  0  0  0  0  0
  142.4942  -26.2612   76.6334 H   0  0  0  0  0  0
  143.2174  -25.0704   75.4995 H   0  0  0  0  0  0
  144.9752  -28.8697   70.8345 H   0  0  0  0  0  0
  145.6671  -27.2158   70.7229 H   0  0  0  0  0  0
  148.6465  -29.4787   72.3119 H   0  0  0  0  0  0
  148.1480  -28.4072   70.9591 H   0  0  0  0  0  0
  147.3794  -30.0185   71.1587 H   0  0  0  0  0  0
  143.9167  -33.2685   78.0381 H   0  0  0  0  0  0
  143.4608  -33.6306   76.3387 H   0  0  0  0  0  0
  142.3030  -32.7810   77.4177 H   0  0  0  0  0  0
  140.8463  -29.2509   71.6612 H   0  0  0  0  0  0
  1  2  1  0  0  0
  1 13  1  0  0  0
  1 16  1  0  0  0
  1 23  1  0  0  0
  2 17  1  0  0  0
  2 21  2  0  0  0
  3  4  2  0  0  0
  3  8  1  0  0  0
  3 17  1  0  0  0
  4  5  1  0  0  0
  4 16  1  0  0  0
  5  6  2  0  0  0
  5 24  1  0  0  0
  6  7  1  0  0  0
  6 20  1  0  0  0
  7  8  2  0  0  0
  7 25  1  0  0  0
  8 26  1  0  0  0
  9 16  1  0  0  0
  9 18  2  0  0  0
  9 19  1  0  0  0
 10 11  1  0  0  0
 10 12  1  0  0  0
 10 19  1  0  0  0
 10 27  1  0  0  0
 11 28  1  0  0  0
 11 29  1  0  0  0
 11 30  1  0  0  0
 12 31  1  0  0  0
 12 32  1  0  0  0
 12 33  1  0  0  0
 13 22  1  0  0  0
 13 34  1  0  0  0
 13 35  1  0  0  0
 14 22  1  0  0  0
 14 36  1  0  0  0
 14 37  1  0  0  0
 14 38  1  0  0  0
 15 20  1  0  0  0
 15 39  1  0  0  0
 15 40  1  0  0  0
 15 41  1  0  0  0
 17 42  1  0  0  0
M  END
> <s_m_source_file>
../1bqn_ligand.sdf

> <i_m_source_file_index>
1

> <s_epik_input>
W0NIM11bQ0hdKFtDSDNdKU9DKD1PKU4oW0NASF0oQyg9UylbTkhdMSlbQ0gyXVNbQ0gzXSljKGMxMilbY0hdYyhbY0hdW2NIXTIpT1tDSDNd

> <s_epik_cmdline>
J2VwaWtfYXBwJywgJy1pbWFlJywgJ2xpZ2FuZF9wcm8ubWFlJywgJy1vbWFlJywgJ2xpZ2FuZF9wcmVwLm1hZScsICctbXMnLCAnMScsICctcGgnLCAnNycsICctcGh0JywgJzAuNScsICctbnQn

> <r_lp_tautomer_probability>
1

> <r_epik_Ionization_Penalty>
  0.0000

> <r_epik_Ionization_Penalty_Charging>
  0.0000

> <r_epik_Ionization_Penalty_Neutral>
  0.0000

> <r_epik_State_Penalty>
 -0.0000

> <r_epik_Charging_Adjusted_Penalty>
0

> <i_epik_Tot_Q>
0

> <i_epik_Tot_abs_Q>
0

> <s_epik_Chemistry_Notes>
This compound has an ester and may undergo hydrolysis at high or low pH.

$$$$
