1bqo_ligand
                    3D
 Schrodinger Suite 2020-3.
 61 63  0  0  1  0            999 V2000
    3.3340   48.5830   54.3740 C   0  0  0  0  0  0
    3.7130   49.4900   55.4530 C   0  0  0  0  0  0
    3.2370   49.1770   56.7950 C   0  0  0  0  0  0
    2.4180   47.9900   57.0030 C   0  0  0  0  0  0
    2.0140   47.1210   55.9120 C   0  0  0  0  0  0
    2.4780   47.4190   54.5640 C   0  0  0  0  0  0
    2.0120   47.5280   58.1940 O   0  0  0  0  0  0
    2.5440   48.0860   59.2890 C   0  0  0  0  0  0
    3.5020   50.0930   51.9530 N   0  0  1  0  0  0
    4.0650   48.6710   52.7060 S   0  0  0  0  0  0
    5.5090   48.7260   52.7520 O   0  0  0  0  0  0
    3.7150   47.6060   51.8130 O   0  0  0  0  0  0
    2.1570   50.3200   51.4250 C   0  0  0  0  0  0
    2.1750   50.9270   50.0930 N   0  0  2  0  0  0
    2.6570   52.3080   50.2790 C   0  0  0  0  0  0
    3.9350   52.3800   51.0890 C   0  0  0  0  0  0
    3.9910   51.4430   52.2790 C   0  0  0  0  0  0
    3.9490   53.8060   51.5880 C   0  0  0  0  0  0
    5.1420   52.0030   50.2370 C   0  0  0  0  0  0
    0.8660   50.6730   49.0300 S   0  0  0  0  0  0
    0.6910   49.2620   48.7570 O   0  0  0  0  0  0
    1.1610   51.4860   47.8860 O   0  0  0  0  0  0
    0.8890   50.1660   52.2680 C   0  0  0  0  0  0
    0.2950   48.9820   52.3440 N   0  0  0  0  0  0
   -0.7000   51.3100   49.6620 C   0  0  0  0  0  0
   -1.6180   50.2390   50.0370 C   0  0  0  0  0  0
   -2.9690   50.6320   50.3930 C   0  0  0  0  0  0
   -3.2890   52.0490   50.3410 C   0  0  0  0  0  0
   -2.3560   53.1080   49.9980 C   0  0  0  0  0  0
   -0.9980   52.7370   49.6400 C   0  0  0  0  0  0
   -4.5680   52.3730   50.5330 O   0  0  0  0  0  0
   -5.2220   52.1800   49.3750 C   0  0  0  0  0  0
    0.3980   51.1110   52.8920 O   0  0  0  0  0  0
   -0.9690   49.1610   52.9340 O   0  0  0  0  0  0
    4.3291   50.3688   55.2625 H   0  0  0  0  0  0
    3.4912   49.8244   57.6342 H   0  0  0  0  0  0
    1.3735   46.2591   56.0990 H   0  0  0  0  0  0
    2.1931   46.7893   53.7212 H   0  0  0  0  0  0
    2.1204   47.6101   60.1857 H   0  0  0  0  0  0
    2.3137   49.1616   59.3012 H   0  0  0  0  0  0
    3.6348   47.9446   59.2795 H   0  0  0  0  0  0
    1.7360   49.3185   51.2522 H   0  0  0  0  0  0
    2.8557   52.7624   49.2971 H   0  0  0  0  0  0
    1.8914   52.8956   50.8067 H   0  0  0  0  0  0
    3.3722   51.8736   53.0801 H   0  0  0  0  0  0
    5.0366   51.3830   52.6154 H   0  0  0  0  0  0
    3.0477   53.9925   52.1904 H   0  0  0  0  0  0
    3.9657   54.4945   50.7302 H   0  0  0  0  0  0
    4.8438   53.9692   52.2066 H   0  0  0  0  0  0
    5.0520   50.9543   49.9174 H   0  0  0  0  0  0
    6.0614   52.1287   50.8277 H   0  0  0  0  0  0
    5.1833   52.6540   49.3513 H   0  0  0  0  0  0
    0.6223   47.9771   52.0391 H   0  0  0  0  0  0
   -1.3043   49.1952   50.0491 H   0  0  0  0  0  0
   -3.7145   49.8935   50.6878 H   0  0  0  0  0  0
   -2.6664   54.1528   50.0089 H   0  0  0  0  0  0
   -0.2474   53.4803   49.3713 H   0  0  0  0  0  0
   -6.2828   52.4404   49.5052 H   0  0  0  0  0  0
   -5.1374   51.1243   49.0777 H   0  0  0  0  0  0
   -4.7811   52.8173   48.5943 H   0  0  0  0  0  0
   -1.6303   48.2961   53.0906 H   0  0  0  0  0  0
  1 10  1  0  0  0
  1  6  2  0  0  0
  1  2  1  0  0  0
  2  3  2  0  0  0
  2 35  1  0  0  0
  3  4  1  0  0  0
  3 36  1  0  0  0
  4  7  1  0  0  0
  4  5  2  0  0  0
  5  6  1  0  0  0
  5 37  1  0  0  0
  6 38  1  0  0  0
  7  8  1  0  0  0
  8 39  1  0  0  0
  8 40  1  0  0  0
  8 41  1  0  0  0
  9 13  1  0  0  0
  9 17  1  0  0  0
  9 10  1  0  0  0
 10 12  2  0  0  0
 10 11  2  0  0  0
 13 14  1  0  0  0
 13 23  1  0  0  0
 13 42  1  0  0  0
 14 15  1  0  0  0
 14 20  1  0  0  0
 15 16  1  0  0  0
 15 43  1  0  0  0
 15 44  1  0  0  0
 16 17  1  0  0  0
 16 19  1  0  0  0
 16 18  1  0  0  0
 17 45  1  0  0  0
 17 46  1  0  0  0
 18 47  1  0  0  0
 18 48  1  0  0  0
 18 49  1  0  0  0
 19 50  1  0  0  0
 19 51  1  0  0  0
 19 52  1  0  0  0
 20 25  1  0  0  0
 20 22  2  0  0  0
 20 21  2  0  0  0
 23 33  2  0  0  0
 23 24  1  0  0  0
 24 34  1  0  0  0
 24 53  1  0  0  0
 25 30  2  0  0  0
 25 26  1  0  0  0
 26 27  2  0  0  0
 26 54  1  0  0  0
 27 28  1  0  0  0
 27 55  1  0  0  0
 28 31  1  0  0  0
 28 29  2  0  0  0
 29 30  1  0  0  0
 29 56  1  0  0  0
 30 57  1  0  0  0
 31 32  1  0  0  0
 32 58  1  0  0  0
 32 59  1  0  0  0
 32 60  1  0  0  0
 34 61  1  0  0  0
M  END
> <s_m_source_file>
../1bqo_ligand.sdf

> <i_m_source_file_index>
1

> <s_epik_input>
W2NIXTFbY0hdYyhPW0NIM10pW2NIXVtjSF1jMVMoPU8pKD1PKU4oW0NIMl0yKVtDSF0oQyg9TylbTkhdW09IXSlOKFtDSDJdQzIoW0NIM10pW0NIM10pUyg9TykoPU8pYzNbY0hdW2NIXWMoW2NIXVtjSF0zKU9bQ0gzXQ==

> <s_epik_cmdline>
J2VwaWtfYXBwJywgJy1pbWFlJywgJ2xpZ2FuZF9wcm8ubWFlJywgJy1vbWFlJywgJ2xpZ2FuZF9wcmVwLm1hZScsICctbXMnLCAnMScsICctcGgnLCAnNycsICctcGh0JywgJzAuNScsICctbnQn

> <r_lp_tautomer_probability>
1

> <r_epik_Ionization_Penalty>
  0.0554

> <r_epik_Ionization_Penalty_Charging>
  0.0000

> <r_epik_Ionization_Penalty_Neutral>
  0.0554

> <r_epik_State_Penalty>
  0.0476

> <r_epik_Charging_Adjusted_Penalty>
0.0476244227241242

> <i_epik_Tot_Q>
0

> <i_epik_Tot_abs_Q>
0

> <s_epik_Chemistry_Notes>
This compound contains an acetal/aminal-like group ( X-CH(R)-Y where X, Y are N, S, or O) that may be acid/base labile, releasing an aldehyde. This compound has a N-S or N-O group and may undergo hydrolysis at high or low pH.

$$$$
