1br5_ligand
                    3D
 Schrodinger Suite 2020-3.
 29 30  0  0  1  0            999 V2000
    1.5530    0.2000    8.7160 N   0  0  0  0  0  0
    0.4910    0.6730    8.0140 C   0  0  0  0  0  0
    0.6880    1.3640    6.8030 C   0  0  0  0  0  0
   -0.2930    1.8640    5.9930 N   0  0  0  0  0  0
    0.0180    2.5660    4.8470 C   0  0  0  0  0  0
    1.3970    2.7510    4.5250 C   0  0  0  0  0  0
    2.3650    2.2240    5.3160 N   0  0  0  0  0  0
    2.0460    1.5410    6.4300 C   0  0  0  0  0  0
    3.0470    1.0660    7.1590 N   0  0  0  0  0  0
    2.8270    0.3950    8.2910 C   0  0  0  0  0  0
    3.8670    0.2480    9.1050 N   0  0  0  0  0  0
   -1.1430    3.1220    3.9790 C   0  0  1  0  0  0
   -2.4010    2.6330    4.4350 O   0  0  0  0  0  0
   -1.2830    4.6450    3.8280 C   0  0  2  0  0  0
   -2.5800    5.0780    4.3140 O   0  0  0  0  0  0
   -1.0770    5.1640    2.3550 C   0  0  0  0  0  0
   -0.0520    4.4460    1.6220 O   0  0  0  0  0  0
   -0.7550    0.6090    8.6080 O   0  0  0  0  0  0
    1.3626   -0.3519    9.6483 H   0  0  0  0  0  0
    1.6738    3.3197    3.6373 H   0  0  0  0  0  0
    3.7501   -0.2957   10.0541 H   0  0  0  0  0  0
    4.8448    0.6700    8.8297 H   0  0  0  0  0  0
   -0.9407    2.7140    2.9777 H   0  0  0  0  0  0
   -2.5399    1.5569    4.6161 H   0  0  0  0  0  0
   -0.5299    5.0972    4.4901 H   0  0  0  0  0  0
   -2.9042    4.8095    5.3303 H   0  0  0  0  0  0
   -2.0169    5.0568    1.7937 H   0  0  0  0  0  0
   -0.7822    6.2235    2.3774 H   0  0  0  0  0  0
    0.1773    4.7235    0.5826 H   0  0  0  0  0  0
  1 10  1  0  0  0
  1  2  1  0  0  0
  1 19  1  0  0  0
  2 18  2  0  0  0
  2  3  1  0  0  0
  3  8  2  0  0  0
  3  4  1  0  0  0
  4  5  2  0  0  0
  5 12  1  0  0  0
  5  6  1  0  0  0
  6  7  2  0  0  0
  6 20  1  0  0  0
  7  8  1  0  0  0
  8  9  1  0  0  0
  9 10  2  0  0  0
 10 11  1  0  0  0
 11 21  1  0  0  0
 11 22  1  0  0  0
 12 14  1  0  0  0
 12 13  1  0  0  0
 12 23  1  0  0  0
 13 24  1  0  0  0
 14 16  1  0  0  0
 14 15  1  0  0  0
 14 25  1  0  0  0
 15 26  1  0  0  0
 16 17  1  0  0  0
 16 27  1  0  0  0
 16 28  1  0  0  0
 17 29  1  0  0  0
M  END
> <s_m_source_file>
../1br5_ligand.sdf

> <i_m_source_file_index>
1

> <s_epik_input>
Tz1jMVtuSF1jKFtOSDJdKW5jKGMxMiluW2NIXWMobjIpW0NAQEhdKFtPSF0pW0NASF0oW09IXSlbQ0gyXVtPSF0=

> <s_epik_cmdline>
J2VwaWtfYXBwJywgJy1pbWFlJywgJ2xpZ2FuZF9wcm8ubWFlJywgJy1vbWFlJywgJ2xpZ2FuZF9wcmVwLm1hZScsICctbXMnLCAnMScsICctcGgnLCAnNycsICctcGh0JywgJzAuNScsICctbnQn

> <r_epik_Ionization_Penalty>
  0.2941

> <r_epik_Ionization_Penalty_Charging>
  0.0062

> <r_epik_Ionization_Penalty_Neutral>
  0.2878

> <r_epik_State_Penalty>
  0.2523

> <r_epik_Charging_Adjusted_Penalty>
0.258484826033049

> <i_epik_Tot_Q>
0

> <i_epik_Tot_abs_Q>
0

$$$$
