1br6_ligand
                    3D
 Schrodinger Suite 2020-3.
 35 37  0  0  1  0            999 V2000
    0.6780    0.7050   10.6750 C   0  0  0  0  0  0
    0.7980    1.3100    9.4140 C   0  0  0  0  0  0
    2.1250    1.5180    8.9350 C   0  0  0  0  0  0
   -0.2510    1.6380    8.6590 N   0  0  0  0  0  0
    2.9780    0.6080   10.8590 C   0  0  0  0  0  0
    3.2270    1.1720    9.6630 N   0  0  0  0  0  0
   -0.0280    2.2070    7.4500 C   0  0  0  0  0  0
    4.0760    0.3350   11.6120 N   0  0  0  0  0  0
    1.2760    2.4270    6.9810 C   0  0  0  0  0  0
   -0.1390    7.7190   10.8800 C   0  0  0  0  0  0
    0.9750    8.3470   11.0220 O   0  0  0  0  0  0
   -0.5690    0.4770   11.1970 O   0  0  0  0  0  0
    1.7830    0.3570   11.4200 N   0  3  0  0  0  0
    2.3360    2.0850    7.7300 N   0  0  0  0  0  0
   -1.2130    2.7380    6.6770 C   0  0  0  0  0  0
   -1.1070    4.1650    6.5300 N   0  0  0  0  0  0
   -0.8550    4.9850    7.6240 C   0  0  0  0  0  0
    0.1940    5.9150    7.5660 C   0  0  0  0  0  0
   -1.6500    4.9390    8.7720 C   0  0  0  0  0  0
    0.4380    6.7850    8.6300 C   0  0  0  0  0  0
   -1.3980    5.8170    9.8350 C   0  0  0  0  0  0
   -0.3630    6.7460    9.7560 C   0  0  0  0  0  0
   -1.0860    7.9440   11.7240 O   0  5  0  0  0  0
    5.0814    0.5201   11.2058 H   0  0  0  0  0  0
    3.9593   -0.0710   12.6276 H   0  0  0  0  0  0
    1.4293    2.8790    6.0011 H   0  0  0  0  0  0
    1.6556   -0.0982   12.4132 H   0  0  0  0  0  0
   -1.2388    2.2731    5.6804 H   0  0  0  0  0  0
   -2.1406    2.4984    7.2175 H   0  0  0  0  0  0
   -1.2258    4.6261    5.5384 H   0  0  0  0  0  0
    0.8262    5.9587    6.6791 H   0  0  0  0  0  0
   -2.4664    4.2201    8.8409 H   0  0  0  0  0  0
    1.2618    7.4965    8.5729 H   0  0  0  0  0  0
   -2.0171    5.7725   10.7310 H   0  0  0  0  0  0
    4.2333    1.3598    9.2605 H   0  0  0  0  0  0
  1 13  1  0  0  0
  1 12  2  0  0  0
  1  2  1  0  0  0
  2  4  2  0  0  0
  2  3  1  0  0  0
  3 14  2  0  0  0
  3  6  1  0  0  0
  4  7  1  0  0  0
  5  6  1  0  0  0
  5  8  1  0  0  0
  5 13  2  0  0  0
  6 35  1  0  0  0
  7  9  2  0  0  0
  7 15  1  0  0  0
  8 24  1  0  0  0
  8 25  1  0  0  0
  9 14  1  0  0  0
  9 26  1  0  0  0
 10 22  1  0  0  0
 10 23  1  0  0  0
 10 11  2  0  0  0
 13 27  1  0  0  0
 15 16  1  0  0  0
 15 28  1  0  0  0
 15 29  1  0  0  0
 16 17  1  0  0  0
 16 30  1  0  0  0
 17 19  2  0  0  0
 17 18  1  0  0  0
 18 20  2  0  0  0
 18 31  1  0  0  0
 19 21  1  0  0  0
 19 32  1  0  0  0
 20 22  1  0  0  0
 20 33  1  0  0  0
 21 22  2  0  0  0
 21 34  1  0  0  0
M  CHG  2  13   1  23  -1
M  END
> <s_m_source_file>
../1br6_ligand.sdf

> <i_m_source_file_index>
1

> <s_epik_input>
Tz1jMVtuSF1jKFtOSDJdKW5jKGMxMiluW2NIXWMobjIpW0NIMl1bTkhdYzNbY0hdW2NIXWMoQyg9TylbT0hdKVtjSF1bY0hdMw==

> <s_epik_cmdline>
J2VwaWtfYXBwJywgJy1pbWFlJywgJ2xpZ2FuZF9wcm8ubWFlJywgJy1vbWFlJywgJ2xpZ2FuZF9wcmVwLm1hZScsICctbXMnLCAnMScsICctcGgnLCAnNycsICctcGh0JywgJzAuNScsICctbnQn

> <r_epik_Ionization_Penalty>
  0.1979

> <r_epik_Ionization_Penalty_Charging>
  0.1977

> <r_epik_Ionization_Penalty_Neutral>
  0.0002

> <r_epik_State_Penalty>
  0.2798

> <r_epik_Charging_Adjusted_Penalty>
0.477450669551192

> <i_epik_Tot_Q>
0

> <i_epik_Tot_abs_Q>
2

$$$$
