1br8_ligand
                    3D
 Schrodinger Suite 2020-3.
157156  0  0  1  0            999 V2000
   31.2460    9.5370   86.9010 N   0  3  0  0  0  0
   30.0790    9.3290   86.0410 C   0  0  2  0  0  0
   29.2540   10.6170   85.8580 C   0  0  0  0  0  0
   28.6810   11.1420   86.8130 O   0  0  0  0  0  0
   29.2040    8.2080   86.6080 C   0  0  0  0  0  0
   28.1610    7.8700   85.7190 O   0  0  0  0  0  0
   29.1700   11.0870   84.6150 N   0  0  0  0  0  0
   28.4420   12.3170   84.2860 C   0  0  2  0  0  0
   27.6410   12.1320   83.0300 C   0  0  0  0  0  0
   28.1660   11.6550   82.0180 O   0  0  0  0  0  0
   29.4210   13.4500   84.0500 C   0  0  0  0  0  0
   28.8240   14.6120   83.2720 C   0  0  0  0  0  0
   29.8460   15.7100   82.9890 C   0  0  0  0  0  0
   31.0650   15.4280   83.1050 O   0  0  0  0  0  0
   29.4300   16.8820   82.7980 O   0  0  0  0  0  0
   26.3790   12.5490   83.0740 N   0  0  0  0  0  0
   25.4760   12.3740   81.9470 C   0  0  2  0  0  0
   24.4420   13.4650   81.8450 C   0  0  0  0  0  0
   24.1440   14.1610   82.8120 O   0  0  0  0  0  0
   24.7830   11.0100   82.0460 C   0  0  0  0  0  0
   23.8770   13.5970   80.6600 N   0  0  0  0  0  0
   22.8860   14.6170   80.4040 C   0  0  2  0  0  0
   22.1380   14.2850   79.1290 C   0  0  0  0  0  0
   22.6010   13.4840   78.3090 O   0  0  0  0  0  0
   23.5660   15.9770   80.2790 C   0  0  0  0  0  0
   20.9810   14.9000   78.9580 N   0  0  0  0  0  0
   20.1850   14.6650   77.7810 C   0  0  2  0  0  0
   19.0790   15.7000   77.6680 C   0  0  0  0  0  0
   18.7170   16.3590   78.6490 O   0  0  0  0  0  0
   19.6080   13.2590   77.8070 C   0  0  0  0  0  0
   18.5490   15.8450   76.4610 N   0  0  0  0  0  0
   17.4760   16.7840   76.2140 C   0  0  2  0  0  0
   16.4970   16.1890   75.2160 C   0  0  0  0  0  0
   16.8620   15.3480   74.3940 O   0  0  0  0  0  0
   18.0220   18.1020   75.6780 C   0  0  0  0  0  0
   16.9680   19.0290   75.4720 O   0  0  0  0  0  0
   15.2570   16.6530   75.2720 N   0  0  0  0  0  0
   14.2200   16.1780   74.3710 C   0  0  2  0  0  0
   13.3620   17.3520   73.9110 C   0  0  0  0  0  0
   12.6400   17.9720   74.6990 O   0  0  0  0  0  0
   13.3460   15.1430   75.0500 C   0  0  2  0  0  0
   14.1550   14.0360   75.4610 O   0  0  0  0  0  0
   12.2620   14.6560   74.1080 C   0  0  0  0  0  0
   13.4970   17.6890   72.6370 N   0  0  0  0  0  0
   12.7610   18.7910   72.0600 C   0  0  2  0  0  0
   11.5900   18.2700   71.2690 C   0  0  0  0  0  0
   11.6960   17.2370   70.6210 O   0  0  0  0  0  0
   13.6650   19.6040   71.1610 C   0  0  0  0  0  0
   10.4980   19.0310   71.2680 N   0  0  0  0  0  0
    9.2910   18.6720   70.5220 C   0  0  2  0  0  0
    8.7620   19.8960   69.7570 C   0  0  0  0  0  0
    8.1540   20.7900   70.3480 O   0  0  0  0  0  0
    8.1780   18.1370   71.4670 C   0  0  0  0  0  0
    6.8210   18.2550   70.8140 C   0  0  0  0  0  0
    8.4470   16.6940   71.8540 C   0  0  0  0  0  0
    9.0060   19.9330   68.4440 N   0  0  0  0  0  0
    8.5490   21.0540   67.6130 C   0  0  2  0  0  0
    7.1090   20.8600   67.1090 C   0  0  0  0  0  0
    6.7870   19.8300   66.5030 O   0  0  0  0  0  0
    9.5020   21.3210   66.4200 C   0  0  0  0  0  0
   10.9510   21.2270   66.8590 C   0  0  0  0  0  0
    9.2150   20.3760   65.2740 C   0  0  0  0  0  0
    6.2510   21.8440   67.3940 N   0  0  0  0  0  0
    4.8320   21.8210   66.9850 C   0  0  2  0  0  0
    4.5420   22.8200   65.8440 C   0  0  0  0  0  0
    5.1280   23.9070   65.8050 O   0  0  0  0  0  0
    3.8930   22.0390   68.1760 C   0  0  2  0  0  0
    3.9230   20.8150   69.1000 C   0  0  0  0  0  0
    2.4770   22.3260   67.6980 C   0  0  0  0  0  0
    3.0700   20.9610   70.3430 C   0  0  0  0  0  0
    3.6350   22.4600   64.9300 N   0  0  0  0  0  0
    3.3700   23.3020   63.7610 C   0  0  2  0  0  0
    1.9140   23.6020   63.4420 C   0  0  0  0  0  0
    1.6048   24.6653   62.8409 O   0  0  0  0  0  0
    4.0500   22.6880   62.5350 C   0  0  0  0  0  0
    1.0109   22.7357   63.5882 O   0  0  0  0  0  0
   31.8009    8.5925   87.0009 H   0  0  0  0  0  0
   30.9142    9.8741   87.8941 H   0  0  0  0  0  0
   31.8995   10.3006   86.4539 H   0  0  0  0  0  0
   30.4965    9.0353   85.0666 H   0  0  0  0  0  0
   29.8202    7.3132   86.7798 H   0  0  0  0  0  0
   28.7596    8.5354   87.5595 H   0  0  0  0  0  0
   27.4454    7.0785   85.9862 H   0  0  0  0  0  0
   29.6726   10.5161   83.8203 H   0  0  0  0  0  0
   27.7780   12.5237   85.1383 H   0  0  0  0  0  0
   29.7668   13.8433   85.0174 H   0  0  0  0  0  0
   30.2825   13.0768   83.4768 H   0  0  0  0  0  0
   28.4403   14.2487   82.3072 H   0  0  0  0  0  0
   28.0004   15.0559   83.8504 H   0  0  0  0  0  0
   30.1446   17.6925   82.5920 H   0  0  0  0  0  0
   26.0231   13.0372   83.9933 H   0  0  0  0  0  0
   26.1248   12.4512   81.0620 H   0  0  0  0  0  0
   25.5423   10.2175   82.1202 H   0  0  0  0  0  0
   24.1676   10.8454   81.1492 H   0  0  0  0  0  0
   24.1419   10.9885   82.9396 H   0  0  0  0  0  0
   24.1768   12.9075   79.8570 H   0  0  0  0  0  0
   22.1953   14.6110   81.2601 H   0  0  0  0  0  0
   24.1045   16.2047   81.2107 H   0  0  0  0  0  0
   22.8064   16.7513   80.0959 H   0  0  0  0  0  0
   24.2773   15.9556   79.4402 H   0  0  0  0  0  0
   20.6281   15.5996   79.7300 H   0  0  0  0  0  0
   20.8761   14.7710   76.9318 H   0  0  0  0  0  0
   20.4262   12.5284   77.8891 H   0  0  0  0  0  0
   19.0451   13.0765   76.8798 H   0  0  0  0  0  0
   18.9352   13.1547   78.6710 H   0  0  0  0  0  0
   18.9433   15.2314   75.6376 H   0  0  0  0  0  0
   16.9916   16.9475   77.1880 H   0  0  0  0  0  0
   18.7340   18.5253   76.4018 H   0  0  0  0  0  0
   18.5341   17.9246   74.7208 H   0  0  0  0  0  0
   17.1882   20.0353   75.0862 H   0  0  0  0  0  0
   15.0219   17.4182   76.0264 H   0  0  0  0  0  0
   14.7458   15.7135   73.5237 H   0  0  0  0  0  0
   12.8951   15.5638   75.9608 H   0  0  0  0  0  0
   14.9975   14.1963   76.1498 H   0  0  0  0  0  0
   11.6407   15.5072   73.7926 H   0  0  0  0  0  0
   11.6338   13.9148   74.6238 H   0  0  0  0  0  0
   12.7251   14.1927   73.2243 H   0  0  0  0  0  0
   14.1912   17.1054   72.0146 H   0  0  0  0  0  0
   12.4062   19.4037   72.9019 H   0  0  0  0  0  0
   14.5181   19.9818   71.7437 H   0  0  0  0  0  0
   13.1014   20.4518   70.7443 H   0  0  0  0  0  0
   14.0331   18.9699   70.3410 H   0  0  0  0  0  0
   10.5250   19.9600   71.8563 H   0  0  0  0  0  0
    9.6177   17.8849   69.8265 H   0  0  0  0  0  0
    8.1590   18.7379   72.3882 H   0  0  0  0  0  0
    6.6369   19.3038   70.5380 H   0  0  0  0  0  0
    6.0450   17.9193   71.5177 H   0  0  0  0  0  0
    6.7930   17.6278   69.9108 H   0  0  0  0  0  0
    9.4368   16.6200   72.3281 H   0  0  0  0  0  0
    8.4235   16.0625   70.9537 H   0  0  0  0  0  0
    7.6756   16.3540   72.5606 H   0  0  0  0  0  0
    9.5617   19.1007   67.9874 H   0  0  0  0  0  0
    8.5733   21.9017   68.3135 H   0  0  0  0  0  0
    9.3388   22.3405   66.0406 H   0  0  0  0  0  0
   11.1279   21.9241   67.6913 H   0  0  0  0  0  0
   11.6073   21.4886   66.0158 H   0  0  0  0  0  0
   11.1685   20.2002   67.1881 H   0  0  0  0  0  0
    8.1592   20.4673   64.9791 H   0  0  0  0  0  0
    9.4192   19.3426   65.5910 H   0  0  0  0  0  0
    9.8579   20.6310   64.4187 H   0  0  0  0  0  0
    6.6462   22.6998   67.9610 H   0  0  0  0  0  0
    4.6755   20.7999   66.6070 H   0  0  0  0  0  0
    4.2332   22.9181   68.7430 H   0  0  0  0  0  0
    3.5535   19.9344   68.5541 H   0  0  0  0  0  0
    4.9551   20.6329   69.4340 H   0  0  0  0  0  0
    2.4840   23.2065   67.0386 H   0  0  0  0  0  0
    1.8300   22.5227   68.5656 H   0  0  0  0  0  0
    2.0936   21.4563   67.1443 H   0  0  0  0  0  0
    3.1455   20.0461   70.9490 H   0  0  0  0  0  0
    2.0217   21.1222   70.0514 H   0  0  0  0  0  0
    3.4233   21.8207   70.9312 H   0  0  0  0  0  0
    3.0845   21.5173   65.0649 H   0  0  0  0  0  0
    3.7963   24.2663   64.0747 H   0  0  0  0  0  0
    0.5509   24.8806   62.6110 H   0  0  0  0  0  0
    5.1029   22.4723   62.7693 H   0  0  0  0  0  0
    3.9989   23.3958   61.6945 H   0  0  0  0  0  0
    3.5369   21.7547   62.2601 H   0  0  0  0  0  0
  1  2  1  0  0  0
  1 77  1  0  0  0
  1 78  1  0  0  0
  1 79  1  0  0  0
  2  5  1  0  0  0
  2  3  1  0  0  0
  2 80  1  0  0  0
  3  4  2  0  0  0
  3  7  1  0  0  0
  5  6  1  0  0  0
  5 81  1  0  0  0
  5 82  1  0  0  0
  6 83  1  0  0  0
  7  8  1  0  0  0
  7 84  1  0  0  0
  8 11  1  0  0  0
  8  9  1  0  0  0
  8 85  1  0  0  0
  9 10  2  0  0  0
  9 16  1  0  0  0
 11 12  1  0  0  0
 11 86  1  0  0  0
 11 87  1  0  0  0
 12 13  1  0  0  0
 12 88  1  0  0  0
 12 89  1  0  0  0
 13 15  1  0  0  0
 13 14  2  0  0  0
 15 90  1  0  0  0
 16 17  1  0  0  0
 16 91  1  0  0  0
 17 20  1  0  0  0
 17 18  1  0  0  0
 17 92  1  0  0  0
 18 19  2  0  0  0
 18 21  1  0  0  0
 20 93  1  0  0  0
 20 94  1  0  0  0
 20 95  1  0  0  0
 21 22  1  0  0  0
 21 96  1  0  0  0
 22 25  1  0  0  0
 22 23  1  0  0  0
 22 97  1  0  0  0
 23 24  2  0  0  0
 23 26  1  0  0  0
 25 98  1  0  0  0
 25 99  1  0  0  0
 25100  1  0  0  0
 26 27  1  0  0  0
 26101  1  0  0  0
 27 30  1  0  0  0
 27 28  1  0  0  0
 27102  1  0  0  0
 28 29  2  0  0  0
 28 31  1  0  0  0
 30103  1  0  0  0
 30104  1  0  0  0
 30105  1  0  0  0
 31 32  1  0  0  0
 31106  1  0  0  0
 32 35  1  0  0  0
 32 33  1  0  0  0
 32107  1  0  0  0
 33 34  2  0  0  0
 33 37  1  0  0  0
 35 36  1  0  0  0
 35108  1  0  0  0
 35109  1  0  0  0
 36110  1  0  0  0
 37 38  1  0  0  0
 37111  1  0  0  0
 38 41  1  0  0  0
 38 39  1  0  0  0
 38112  1  0  0  0
 39 40  2  0  0  0
 39 44  1  0  0  0
 41 43  1  0  0  0
 41 42  1  0  0  0
 41113  1  0  0  0
 42114  1  0  0  0
 43115  1  0  0  0
 43116  1  0  0  0
 43117  1  0  0  0
 44 45  1  0  0  0
 44118  1  0  0  0
 45 48  1  0  0  0
 45 46  1  0  0  0
 45119  1  0  0  0
 46 47  2  0  0  0
 46 49  1  0  0  0
 48120  1  0  0  0
 48121  1  0  0  0
 48122  1  0  0  0
 49 50  1  0  0  0
 49123  1  0  0  0
 50 53  1  0  0  0
 50 51  1  0  0  0
 50124  1  0  0  0
 51 52  2  0  0  0
 51 56  1  0  0  0
 53 55  1  0  0  0
 53 54  1  0  0  0
 53125  1  0  0  0
 54126  1  0  0  0
 54127  1  0  0  0
 54128  1  0  0  0
 55129  1  0  0  0
 55130  1  0  0  0
 55131  1  0  0  0
 56 57  1  0  0  0
 56132  1  0  0  0
 57 60  1  0  0  0
 57 58  1  0  0  0
 57133  1  0  0  0
 58 59  2  0  0  0
 58 63  1  0  0  0
 60 62  1  0  0  0
 60 61  1  0  0  0
 60134  1  0  0  0
 61135  1  0  0  0
 61136  1  0  0  0
 61137  1  0  0  0
 62138  1  0  0  0
 62139  1  0  0  0
 62140  1  0  0  0
 63 64  1  0  0  0
 63141  1  0  0  0
 64 67  1  0  0  0
 64 65  1  0  0  0
 64142  1  0  0  0
 65 66  2  0  0  0
 65 71  1  0  0  0
 67 69  1  0  0  0
 67 68  1  0  0  0
 67143  1  0  0  0
 68 70  1  0  0  0
 68144  1  0  0  0
 68145  1  0  0  0
 69146  1  0  0  0
 69147  1  0  0  0
 69148  1  0  0  0
 70149  1  0  0  0
 70150  1  0  0  0
 70151  1  0  0  0
 71 72  1  0  0  0
 71152  1  0  0  0
 72 75  1  0  0  0
 72 73  1  0  0  0
 72153  1  0  0  0
 73 74  1  0  0  0
 73 76  2  0  0  0
 74154  1  0  0  0
 75155  1  0  0  0
 75156  1  0  0  0
 75157  1  0  0  0
M  CHG  1   1   1
M  END
> <s_m_source_file>
../1br8_ligand.sdf

> <i_m_source_file_index>
1

> <s_epik_input>
W09IXVtDSDJdW0NASF0oW05IMytdKUMoPU8pW05IXVtDQEBIXShbQ0gyXVtDSDJdQyg9TylbT0hdKUMoPU8pW05IXVtDQEBIXShbQ0gzXSlDKD1PKVtOSF1bQ0BASF0oW0NIM10pQyg9TylbTkhdW0NAQEhdKFtDSDNdKUMoPU8pW05IXVtDQEBIXShbQ0gyXVtPSF0pQyg9TylbTkhdW0NAQEhdKFtDQEhdKFtPSF0pW0NIM10pQyg9TylbTkhdW0NAQEhdKFtDSDNdKUMoPU8pW05IXVtDQEBIXShbQ0hdKFtDSDNdKVtDSDNdKUMoPU8pW05IXVtDQEBIXShbQ0hdKFtDSDNdKVtDSDNdKUMoPU8pW05IXVtDQEBIXShbQ0BASF0oW0NIM10pW0NIMl1bQ0gzXSlDKD1PKVtOSF1bQ0BASF0oW0NIM10pQyg9TylbT0hd

> <s_epik_cmdline>
J2VwaWtfYXBwJywgJy1pbWFlJywgJ2xpZ2FuZF9wcm8ubWFlJywgJy1vbWFlJywgJ2xpZ2FuZF9wcmVwLm1hZScsICctbXMnLCAnMScsICctcGgnLCAnNycsICctcGh0JywgJzAuNScsICctbnQn

> <s_epik_pKa_notes>
Molecule size exceeds maximum supported for generating protonation states

$$$$
