1bsk_ligand
                    3D
 Schrodinger Suite 2020-3.
 56 56  0  0  1  0            999 V2000
   40.9070   53.3330   71.5810 O   0  5  0  0  0  0
   40.0490   54.2300   72.6150 P   0  0  0  0  0  0
   41.0890   54.5890   74.0060 O   0  0  0  0  0  0
   38.6730   53.5140   72.9130 O   0  5  0  0  0  0
   41.3480   53.5070   74.8520 C   0  0  2  0  0  0
   40.8190   53.9030   76.1980 C   0  0  0  0  0  0
   42.8860   53.4450   74.5760 C   0  0  0  0  0  0
   43.9560   53.9030   75.5980 C   0  0  0  0  0  0
   45.2570   53.0700   75.8210 C   0  0  0  0  0  0
   44.7550   51.7370   76.3360 C   0  0  0  0  0  0
   40.4740   55.0230   76.4560 O   0  0  0  0  0  0
   40.7910   52.8440   77.0550 N   0  0  0  0  0  0
   40.4450   53.0020   78.4640 C   0  0  1  0  0  0
   39.1700   52.1970   78.6850 C   0  0  0  0  0  0
   38.0360   52.8700   77.9270 C   0  0  0  0  0  0
   36.8610   51.9560   77.9590 C   0  0  0  0  0  0
   37.5650   54.1790   78.5290 C   0  0  0  0  0  0
   41.7230   52.5400   79.1180 C   0  0  0  0  0  0
   42.3420   53.4540   80.1810 N   0  0  0  0  0  0
   42.2410   51.4860   78.8000 O   0  0  0  0  0  0
   43.3610   53.1630   80.9330 C   0  0  0  0  0  0
   43.8660   51.8440   81.0700 C   0  0  0  0  0  0
   44.8570   51.6110   82.0370 C   0  0  0  0  0  0
   45.4180   52.7360   82.7420 C   0  0  0  0  0  0
   44.9410   54.0640   82.5840 C   0  0  0  0  0  0
   43.9260   54.2800   81.6050 C   0  0  0  0  0  0
   46.5100   52.5080   83.6280 N   0  3  0  0  0  0
   47.1580   53.4810   84.1960 O   0  0  0  0  0  0
   46.8640   51.2440   83.8530 O   0  5  0  0  0  0
   39.7249   55.5300   71.9631 O   0  0  0  0  0  0
   40.8381   52.5443   74.6997 H   0  0  0  0  0  0
   43.1822   52.4033   74.3833 H   0  0  0  0  0  0
   43.1262   54.0629   73.6982 H   0  0  0  0  0  0
   44.3321   54.8970   75.3144 H   0  0  0  0  0  0
   43.5073   53.9532   76.6011 H   0  0  0  0  0  0
   45.7960   52.9695   74.8674 H   0  0  0  0  0  0
   45.8992   53.5818   76.5529 H   0  0  0  0  0  0
   45.6101   51.0715   76.5254 H   0  0  0  0  0  0
   44.0936   51.2795   75.5855 H   0  0  0  0  0  0
   44.1967   51.8919   77.2711 H   0  0  0  0  0  0
   41.0387   51.8486   76.6578 H   0  0  0  0  0  0
   40.1991   54.0060   78.8402 H   0  0  0  0  0  0
   39.3142   51.1722   78.3122 H   0  0  0  0  0  0
   38.9370   52.1669   79.7596 H   0  0  0  0  0  0
   38.4092   53.0727   76.9123 H   0  0  0  0  0  0
   37.1423   50.9821   77.5319 H   0  0  0  0  0  0
   36.0412   52.3920   77.3693 H   0  0  0  0  0  0
   36.5315   51.8187   78.9995 H   0  0  0  0  0  0
   38.3953   54.9005   78.5330 H   0  0  0  0  0  0
   37.2241   54.0065   79.5605 H   0  0  0  0  0  0
   36.7338   54.5798   77.9303 H   0  0  0  0  0  0
   41.9206   54.4544   80.3591 H   0  0  0  0  0  0
   43.4949   51.0341   80.4419 H   0  0  0  0  0  0
   45.1960   50.5974   82.2507 H   0  0  0  0  0  0
   45.3338   54.8839   83.1854 H   0  0  0  0  0  0
   43.5879   55.2904   81.3752 H   0  0  0  0  0  0
  1  2  1  0  0  0
  2  3  1  0  0  0
  2  4  1  0  0  0
  2 30  2  0  0  0
  3  5  1  0  0  0
  5  6  1  0  0  0
  5  7  1  0  0  0
  5 31  1  0  0  0
  6 11  2  0  0  0
  6 12  1  0  0  0
  7  8  1  0  0  0
  7 32  1  0  0  0
  7 33  1  0  0  0
  8  9  1  0  0  0
  8 34  1  0  0  0
  8 35  1  0  0  0
  9 10  1  0  0  0
  9 36  1  0  0  0
  9 37  1  0  0  0
 10 38  1  0  0  0
 10 39  1  0  0  0
 10 40  1  0  0  0
 12 13  1  0  0  0
 12 41  1  0  0  0
 13 14  1  0  0  0
 13 18  1  0  0  0
 13 42  1  0  0  0
 14 15  1  0  0  0
 14 43  1  0  0  0
 14 44  1  0  0  0
 15 16  1  0  0  0
 15 17  1  0  0  0
 15 45  1  0  0  0
 16 46  1  0  0  0
 16 47  1  0  0  0
 16 48  1  0  0  0
 17 49  1  0  0  0
 17 50  1  0  0  0
 17 51  1  0  0  0
 18 19  1  0  0  0
 18 20  2  0  0  0
 19 21  1  0  0  0
 19 52  1  0  0  0
 21 22  2  0  0  0
 21 26  1  0  0  0
 22 23  1  0  0  0
 22 53  1  0  0  0
 23 24  2  0  0  0
 23 54  1  0  0  0
 24 25  1  0  0  0
 24 27  1  0  0  0
 25 26  2  0  0  0
 25 55  1  0  0  0
 26 56  1  0  0  0
 27 28  2  0  0  0
 27 29  1  0  0  0
M  CHG  4   1  -1   4  -1  27   1  29  -1
M  END
> <s_m_source_file>
../1bsk_ligand.sdf

> <i_m_source_file_index>
1

> <s_epik_input>
W0NIM11bQ0gyXVtDSDJdW0NIMl1bQ0BIXShPUCg9TykoW09IXSlbT0hdKUMoPU8pW05IXVtDQEBIXShbQ0gyXVtDSF0oW0NIM10pW0NIM10pQyg9TylbTkhdYzFbY0hdW2NIXWMoW04rXSg9TylbTy1dKVtjSF1bY0hdMQ==

> <s_epik_cmdline>
J2VwaWtfYXBwJywgJy1pbWFlJywgJ2xpZ2FuZF9wcm8ubWFlJywgJy1vbWFlJywgJ2xpZ2FuZF9wcmVwLm1hZScsICctbXMnLCAnMScsICctcGgnLCAnNycsICctcGh0JywgJzAuNScsICctbnQn

> <r_epik_Ionization_Penalty>
  0.1082

> <r_epik_Ionization_Penalty_Charging>
  0.1082

> <r_epik_Ionization_Penalty_Neutral>
  0.0000

> <r_epik_State_Penalty>
  0.0980

> <r_epik_Charging_Adjusted_Penalty>
0.206171159392115

> <i_epik_Tot_Q>
-2

> <i_epik_Tot_abs_Q>
4

$$$$
