1bt6_ligand
                    3D
 Schrodinger Suite 2020-3.
182182  0  0  1  0            999 V2000
   60.8150   26.5290   29.0780 C   0  0  0  0  0  0
   59.8440   27.1110   29.5550 O   0  0  0  0  0  0
   62.1690   26.6070   29.7410 C   0  0  0  0  0  0
   61.0100   25.7170   28.0480 N   0  0  0  0  0  0
   60.1410   25.5590   26.9580 C   0  0  2  0  0  0
   58.9520   24.7790   27.5500 C   0  0  0  0  0  0
   57.7600   25.0950   27.4030 O   0  0  0  0  0  0
   60.7130   24.9870   25.6720 C   0  0  0  0  0  0
   60.4540   23.5840   25.7250 O   0  0  0  0  0  0
   59.2980   23.8650   28.4730 N   0  0  0  0  0  0
   58.1770   23.1960   29.1930 C   0  0  2  0  0  0
   57.6140   24.0110   30.3310 C   0  0  0  0  0  0
   56.3650   24.0160   31.0000 O   0  0  0  0  0  0
   58.4090   21.7520   29.3850 C   0  0  2  0  0  0
   58.0600   21.1530   30.5760 O   0  0  0  0  0  0
   59.6450   21.1910   28.7670 C   0  0  0  0  0  0
   58.3870   24.8420   31.0740 N   0  0  0  0  0  0
   57.7830   25.6520   32.1490 C   0  0  2  0  0  0
   56.9580   26.7480   31.5270 C   0  0  0  0  0  0
   55.9050   27.1220   32.0450 O   0  0  0  0  0  0
   58.8560   26.2500   33.1460 C   0  0  0  0  0  0
   58.4170   27.4620   33.9090 C   0  0  0  0  0  0
   59.2140   25.1610   34.1550 C   0  0  0  0  0  0
   57.4450   27.2570   30.3970 N   0  0  0  0  0  0
   56.7210   28.3130   29.6690 C   0  0  2  0  0  0
   55.3290   27.8300   29.2980 C   0  0  0  0  0  0
   54.3560   28.4990   29.6250 O   0  0  0  0  0  0
   57.5290   28.7900   28.4770 C   0  0  0  0  0  0
   56.7460   29.7860   27.6760 C   0  0  0  0  0  0
   56.8950   31.1340   27.7650 N   0  0  0  0  0  0
   55.7480   29.5930   26.7640 C   0  0  0  0  0  0
   56.0290   31.7650   27.0280 C   0  0  0  0  0  0
   55.3450   30.8430   26.3840 N   0  0  0  0  0  0
   55.1570   26.6500   28.7390 N   0  0  0  0  0  0
   53.8840   26.0850   28.3600 C   0  0  2  0  0  0
   53.0560   25.7500   29.5720 C   0  0  0  0  0  0
   51.8390   25.9930   29.5280 O   0  0  0  0  0  0
   54.0170   24.8250   27.5140 C   0  0  0  0  0  0
   55.0160   24.9790   26.3520 C   0  0  0  0  0  0
   54.3240   25.3630   25.0390 C   0  0  0  0  0  0
   53.2510   24.7620   24.7850 O   0  0  0  0  0  0
   54.8320   26.2430   24.3040 O   0  0  0  0  0  0
   53.6740   25.2150   30.6380 N   0  0  0  0  0  0
   52.7930   24.9690   31.8100 C   0  0  2  0  0  0
   52.3610   26.3110   32.3580 C   0  0  0  0  0  0
   51.1840   26.4530   32.6940 O   0  0  0  0  0  0
   53.4480   24.0900   32.8800 C   0  0  2  0  0  0
   53.8500   22.7800   32.2630 C   0  0  0  0  0  0
   52.5840   23.9340   34.1160 C   0  0  0  0  0  0
   54.2940   21.6340   33.1020 C   0  0  0  0  0  0
   53.2280   27.3420   32.4500 N   0  0  0  0  0  0
   52.6980   28.5940   33.0220 C   0  0  2  0  0  0
   51.4500   29.0780   32.3180 C   0  0  0  0  0  0
   50.5110   29.5700   32.9260 O   0  0  0  0  0  0
   53.7430   29.6730   33.2480 C   0  0  0  0  0  0
   54.8740   29.1780   34.2170 C   0  0  0  0  0  0
   56.0130   30.1640   34.2260 C   0  0  0  0  0  0
   54.3010   28.8940   35.5740 C   0  0  0  0  0  0
   51.4590   28.8890   30.9950 N   0  0  0  0  0  0
   50.3360   29.1660   30.1030 C   0  0  2  0  0  0
   49.1150   28.3350   30.4280 C   0  0  0  0  0  0
   48.0260   28.8800   30.3090 O   0  0  0  0  0  0
   50.7740   29.0420   28.6420 C   0  0  0  0  0  0
   51.2360   30.3830   28.3030 O   0  0  0  0  0  0
   49.2130   27.1200   30.9230 N   0  0  0  0  0  0
   48.0930   26.3020   31.3630 C   0  0  2  0  0  0
   47.6270   26.6870   32.7780 C   0  0  0  0  0  0
   46.6770   26.1400   33.3510 O   0  0  0  0  0  0
   48.4400   24.8090   31.4070 C   0  0  0  0  0  0
   48.0090   24.0090   30.2010 C   0  0  0  0  0  0
   48.4080   24.7240   28.9160 C   0  0  0  0  0  0
   48.4380   23.7510   27.7430 C   0  0  0  0  0  0
   49.1220   24.3580   26.5560 N   0  3  0  0  0  0
   48.3460   27.6010   33.4180 N   0  0  0  0  0  0
   47.9710   28.0520   34.7640 C   0  0  2  0  0  0
   47.3690   29.4480   34.5580 C   0  0  0  0  0  0
   46.7640   29.9910   35.4520 O   0  0  0  0  0  0
   49.1140   28.0900   35.7330 C   0  0  0  0  0  0
   49.9170   26.8440   36.0540 C   0  0  0  0  0  0
   50.6750   27.0270   37.3640 C   0  0  0  0  0  0
   49.0640   25.5940   36.0720 C   0  0  0  0  0  0
   47.5570   29.9250   33.3280 N   0  0  0  0  0  0
   47.0760   31.1820   32.8070 C   0  0  2  0  0  0
   46.0270   31.0420   31.7030 C   0  0  0  0  0  0
   45.1860   30.0930   31.7800 O   0  0  0  0  0  0
   48.2760   32.0000   32.2800 C   0  0  0  0  0  0
   48.5580   33.0450   33.1960 O   0  0  0  0  0  0
   45.9959   31.8958   30.6837 O   0  0  0  0  0  0
   62.1098   27.2670   30.6190 H   0  0  0  0  0  0
   62.9036   27.0099   29.0282 H   0  0  0  0  0  0
   62.4801   25.6009   30.0588 H   0  0  0  0  0  0
   61.9445   25.1386   28.0947 H   0  0  0  0  0  0
   59.9249   26.5827   26.6185 H   0  0  0  0  0  0
   60.2145   25.4536   24.8096 H   0  0  0  0  0  0
   61.7926   25.1932   25.6273 H   0  0  0  0  0  0
   60.7753   22.9338   24.8980 H   0  0  0  0  0  0
   60.3392   23.6006   28.7096 H   0  0  0  0  0  0
   57.3070   23.1520   28.5213 H   0  0  0  0  0  0
   57.5186   21.3660   28.8671 H   0  0  0  0  0  0
   57.1642   21.4889   31.1188 H   0  0  0  0  0  0
   59.8559   21.7185   27.8251 H   0  0  0  0  0  0
   59.4992   20.1200   28.5627 H   0  0  0  0  0  0
   60.4915   21.3207   29.4574 H   0  0  0  0  0  0
   59.4664   24.9112   30.8735 H   0  0  0  0  0  0
   57.1199   24.9640   32.6938 H   0  0  0  0  0  0
   59.7201   26.6057   32.5657 H   0  0  0  0  0  0
   58.1527   28.2635   33.2035 H   0  0  0  0  0  0
   59.2359   27.8019   34.5601 H   0  0  0  0  0  0
   57.5401   27.2106   34.5236 H   0  0  0  0  0  0
   59.5405   24.2576   33.6190 H   0  0  0  0  0  0
   58.3318   24.9249   34.7681 H   0  0  0  0  0  0
   60.0276   25.5162   34.8046 H   0  0  0  0  0  0
   58.4018   26.8781   30.0086 H   0  0  0  0  0  0
   56.6076   29.1731   30.3453 H   0  0  0  0  0  0
   58.4565   29.2650   28.8292 H   0  0  0  0  0  0
   57.7774   27.9318   27.8353 H   0  0  0  0  0  0
   55.2660   28.7043   26.3306 H   0  0  0  0  0  0
   55.8958   32.8445   26.9575 H   0  0  0  0  0  0
   56.0838   26.0836   28.5651 H   0  0  0  0  0  0
   53.4287   26.8964   27.7731 H   0  0  0  0  0  0
   54.3663   23.9947   28.1453 H   0  0  0  0  0  0
   53.0389   24.5696   27.0803 H   0  0  0  0  0  0
   55.7445   25.7660   26.5967 H   0  0  0  0  0  0
   55.5440   24.0271   26.1937 H   0  0  0  0  0  0
   52.7002   24.9871   23.8598 H   0  0  0  0  0  0
   54.7430   24.9609   30.6905 H   0  0  0  0  0  0
   51.9167   24.4062   31.4560 H   0  0  0  0  0  0
   54.3649   24.5719   33.2502 H   0  0  0  0  0  0
   53.0023   22.3655   31.6976 H   0  0  0  0  0  0
   54.7004   22.9402   31.5839 H   0  0  0  0  0  0
   52.3287   24.9277   34.5127 H   0  0  0  0  0  0
   53.1352   23.3650   34.8792 H   0  0  0  0  0  0
   51.6613   23.3961   33.8528 H   0  0  0  0  0  0
   54.5399   20.7793   32.4547 H   0  0  0  0  0  0
   53.4861   21.3505   33.7926 H   0  0  0  0  0  0
   55.1842   21.9251   33.6789 H   0  0  0  0  0  0
   54.2778   27.2864   32.1262 H   0  0  0  0  0  0
   52.3833   28.2947   34.0326 H   0  0  0  0  0  0
   54.2014   29.9466   32.2862 H   0  0  0  0  0  0
   53.2653   30.5590   33.6917 H   0  0  0  0  0  0
   55.3237   28.2252   33.9010 H   0  0  0  0  0  0
   56.3743   30.3162   33.1982 H   0  0  0  0  0  0
   56.8315   29.7730   34.8483 H   0  0  0  0  0  0
   55.6648   31.1226   34.6381 H   0  0  0  0  0  0
   53.4791   28.1689   35.4805 H   0  0  0  0  0  0
   53.9186   29.8272   36.0131 H   0  0  0  0  0  0
   55.0852   28.4776   36.2233 H   0  0  0  0  0  0
   52.4011   28.4942   30.5869 H   0  0  0  0  0  0
   50.0486   30.2076   30.3093 H   0  0  0  0  0  0
   51.5755   28.2929   28.5618 H   0  0  0  0  0  0
   49.9169   28.7292   28.0275 H   0  0  0  0  0  0
   51.6170   30.5945   27.2930 H   0  0  0  0  0  0
   50.2393   26.7303   30.9922 H   0  0  0  0  0  0
   47.3376   26.5209   30.5940 H   0  0  0  0  0  0
   49.5304   24.6882   31.4875 H   0  0  0  0  0  0
   47.9544   24.3452   32.2783 H   0  0  0  0  0  0
   48.4918   23.0209   30.2248 H   0  0  0  0  0  0
   46.9163   23.8836   30.2156 H   0  0  0  0  0  0
   47.6806   25.5200   28.6983 H   0  0  0  0  0  0
   49.4085   25.1647   29.0371 H   0  0  0  0  0  0
   48.9823   22.8409   28.0354 H   0  0  0  0  0  0
   47.4086   23.4872   27.4590 H   0  0  0  0  0  0
   49.1286   23.6348   25.7271 H   0  0  0  0  0  0
   50.1567   24.6192   26.8229 H   0  0  0  0  0  0
   48.5829   25.2655   26.2466 H   0  0  0  0  0  0
   49.2348   28.0215   32.9248 H   0  0  0  0  0  0
   47.2831   27.3137   35.2018 H   0  0  0  0  0  0
   49.8767   28.7961   35.3728 H   0  0  0  0  0  0
   48.7489   28.4158   36.7182 H   0  0  0  0  0  0
   50.6428   26.6993   35.2402 H   0  0  0  0  0  0
   51.2814   27.9433   37.3118 H   0  0  0  0  0  0
   51.3325   26.1611   37.5312 H   0  0  0  0  0  0
   49.9580   27.1087   38.1942 H   0  0  0  0  0  0
   48.5347   25.4975   35.1126 H   0  0  0  0  0  0
   48.3314   25.6618   36.8897 H   0  0  0  0  0  0
   49.7059   24.7143   36.2268 H   0  0  0  0  0  0
   48.1448   29.2524   32.6861 H   0  0  0  0  0  0
   46.5803   31.6361   33.6776 H   0  0  0  0  0  0
   49.1533   31.3434   32.1837 H   0  0  0  0  0  0
   48.0265   32.4251   31.2966 H   0  0  0  0  0  0
   49.3846   33.7428   32.9968 H   0  0  0  0  0  0
   45.2363   31.7844   29.8959 H   0  0  0  0  0  0
  1  2  2  0  0  0
  1  3  1  0  0  0
  1  4  1  0  0  0
  3 89  1  0  0  0
  3 90  1  0  0  0
  3 91  1  0  0  0
  4  5  1  0  0  0
  4 92  1  0  0  0
  5  8  1  0  0  0
  5  6  1  0  0  0
  5 93  1  0  0  0
  6  7  2  0  0  0
  6 10  1  0  0  0
  8  9  1  0  0  0
  8 94  1  0  0  0
  8 95  1  0  0  0
  9 96  1  0  0  0
 10 11  1  0  0  0
 10 97  1  0  0  0
 11 14  1  0  0  0
 11 12  1  0  0  0
 11 98  1  0  0  0
 12 13  2  0  0  0
 12 17  1  0  0  0
 14 16  1  0  0  0
 14 15  1  0  0  0
 14 99  1  0  0  0
 15100  1  0  0  0
 16101  1  0  0  0
 16102  1  0  0  0
 16103  1  0  0  0
 17 18  1  0  0  0
 17104  1  0  0  0
 18 21  1  0  0  0
 18 19  1  0  0  0
 18105  1  0  0  0
 19 20  2  0  0  0
 19 24  1  0  0  0
 21 23  1  0  0  0
 21 22  1  0  0  0
 21106  1  0  0  0
 22107  1  0  0  0
 22108  1  0  0  0
 22109  1  0  0  0
 23110  1  0  0  0
 23111  1  0  0  0
 23112  1  0  0  0
 24 25  1  0  0  0
 24113  1  0  0  0
 25 28  1  0  0  0
 25 26  1  0  0  0
 25114  1  0  0  0
 26 27  2  0  0  0
 26 34  1  0  0  0
 28 29  1  0  0  0
 28115  1  0  0  0
 28116  1  0  0  0
 29 30  2  0  0  0
 29 31  1  0  0  0
 30 32  1  0  0  0
 31 33  2  0  0  0
 31117  1  0  0  0
 32 33  1  0  0  0
 32118  1  0  0  0
 34 35  1  0  0  0
 34119  1  0  0  0
 35 38  1  0  0  0
 35 36  1  0  0  0
 35120  1  0  0  0
 36 37  2  0  0  0
 36 43  1  0  0  0
 38 39  1  0  0  0
 38121  1  0  0  0
 38122  1  0  0  0
 39 40  1  0  0  0
 39123  1  0  0  0
 39124  1  0  0  0
 40 42  2  0  0  0
 40 41  1  0  0  0
 41125  1  0  0  0
 43 44  1  0  0  0
 43126  1  0  0  0
 44 47  1  0  0  0
 44 45  1  0  0  0
 44127  1  0  0  0
 45 46  2  0  0  0
 45 51  1  0  0  0
 47 49  1  0  0  0
 47 48  1  0  0  0
 47128  1  0  0  0
 48 50  1  0  0  0
 48129  1  0  0  0
 48130  1  0  0  0
 49131  1  0  0  0
 49132  1  0  0  0
 49133  1  0  0  0
 50134  1  0  0  0
 50135  1  0  0  0
 50136  1  0  0  0
 51 52  1  0  0  0
 51137  1  0  0  0
 52 55  1  0  0  0
 52 53  1  0  0  0
 52138  1  0  0  0
 53 54  2  0  0  0
 53 59  1  0  0  0
 55 56  1  0  0  0
 55139  1  0  0  0
 55140  1  0  0  0
 56 57  1  0  0  0
 56 58  1  0  0  0
 56141  1  0  0  0
 57142  1  0  0  0
 57143  1  0  0  0
 57144  1  0  0  0
 58145  1  0  0  0
 58146  1  0  0  0
 58147  1  0  0  0
 59 60  1  0  0  0
 59148  1  0  0  0
 60 63  1  0  0  0
 60 61  1  0  0  0
 60149  1  0  0  0
 61 62  2  0  0  0
 61 65  1  0  0  0
 63 64  1  0  0  0
 63150  1  0  0  0
 63151  1  0  0  0
 64152  1  0  0  0
 65 66  1  0  0  0
 65153  1  0  0  0
 66 69  1  0  0  0
 66 67  1  0  0  0
 66154  1  0  0  0
 67 68  2  0  0  0
 67 74  1  0  0  0
 69 70  1  0  0  0
 69155  1  0  0  0
 69156  1  0  0  0
 70 71  1  0  0  0
 70157  1  0  0  0
 70158  1  0  0  0
 71 72  1  0  0  0
 71159  1  0  0  0
 71160  1  0  0  0
 72 73  1  0  0  0
 72161  1  0  0  0
 72162  1  0  0  0
 73163  1  0  0  0
 73164  1  0  0  0
 73165  1  0  0  0
 74 75  1  0  0  0
 74166  1  0  0  0
 75 78  1  0  0  0
 75 76  1  0  0  0
 75167  1  0  0  0
 76 77  2  0  0  0
 76 82  1  0  0  0
 78 79  1  0  0  0
 78168  1  0  0  0
 78169  1  0  0  0
 79 80  1  0  0  0
 79 81  1  0  0  0
 79170  1  0  0  0
 80171  1  0  0  0
 80172  1  0  0  0
 80173  1  0  0  0
 81174  1  0  0  0
 81175  1  0  0  0
 81176  1  0  0  0
 82 83  1  0  0  0
 82177  1  0  0  0
 83 86  1  0  0  0
 83 84  1  0  0  0
 83178  1  0  0  0
 84 85  2  0  0  0
 84 88  1  0  0  0
 86 87  1  0  0  0
 86179  1  0  0  0
 86180  1  0  0  0
 87181  1  0  0  0
 88182  1  0  0  0
M  CHG  1  73   1
M  END
> <s_m_source_file>
../1bt6_ligand.sdf

> <i_m_source_file_index>
1

> <s_epik_input>
Tz1DKFtDSDNdKVtOSF1bQ0BASF0oW0NIMl1bT0hdKUMoPU8pW05IXVtDQEBIXShbQ0BIXShbT0hdKVtDSDNdKUMoPU8pW05IXVtDQEBIXShbQ0hdKFtDSDNdKVtDSDNdKUMoPU8pW05IXVtDQEBIXShbQ0gyXUMxPU5bQ0gyXU49W0NIXTEpQyg9TylbTkhdW0NAQEhdKFtDSDJdW0NIMl1DKD1PKVtPSF0pQyg9TylbTkhdW0NAQEhdKFtDQEBIXShbQ0gzXSlbQ0gyXVtDSDNdKUMoPU8pW05IXVtDQEBIXShbQ0gyXVtDSF0oW0NIM10pW0NIM10pQyg9TylbTkhdW0NAQEhdKFtDSDJdW09IXSlDKD1PKVtOSF1bQ0BASF0oW0NIMl1bQ0gyXVtDSDJdW0NIMl1bTkgzK10pQyg9TylbTkhdW0NAQEhdKFtDSDJdW0NIXShbQ0gzXSlbQ0gzXSlDKD1PKVtOSF1bQ0BIXShDKD1PKVtPSF0pW0NIMl1bT0hd

> <s_epik_cmdline>
J2VwaWtfYXBwJywgJy1pbWFlJywgJ2xpZ2FuZF9wcm8ubWFlJywgJy1vbWFlJywgJ2xpZ2FuZF9wcmVwLm1hZScsICctbXMnLCAnMScsICctcGgnLCAnNycsICctcGh0JywgJzAuNScsICctbnQn

> <s_epik_pKa_notes>
Molecule size exceeds maximum supported for generating protonation states

> <s_epik_Chemistry_Notes>
This compound has an imine and may undergo hydrolysis.

$$$$
