1btn_ligand
                    3D
 Schrodinger Suite 2020-3.
 33 33  0  0  1  0            999 V2000
    2.9720   57.1700   28.8190 C   0  0  2  0  0  0
    2.4020   58.3430   28.1350 C   0  0  1  0  0  0
    1.4030   57.9360   27.0360 C   0  0  1  0  0  0
    0.3390   57.0300   27.6070 C   0  0  2  0  0  0
    1.0100   55.8010   28.2000 C   0  0  1  0  0  0
    1.9660   56.2270   29.3130 C   0  0  1  0  0  0
    3.9250   57.5400   29.8890 O   0  0  0  0  0  0
    1.7800   59.2290   29.0640 O   0  0  0  0  0  0
    0.7800   59.0900   26.5110 O   0  0  0  0  0  0
   -0.5670   56.7020   26.5080 O   0  0  0  0  0  0
   -0.0140   54.9490   28.7810 O   0  0  0  0  0  0
    2.5840   55.0740   29.9100 O   0  0  0  0  0  0
    5.3330   57.8810   29.8540 P   0  0  0  0  0  0
    5.4030   59.2600   29.6600 O   0  5  0  0  0  0
    5.8470   57.1720   28.7090 O   0  5  0  0  0  0
    6.0190   57.2350   30.8790 O   0  0  0  0  0  0
   -1.9800   57.0140   26.2900 P   0  0  0  0  0  0
   -2.7620   56.8830   27.4260 O   0  5  0  0  0  0
   -1.8490   58.3970   26.0960 O   0  5  0  0  0  0
   -2.3680   56.6220   25.0320 O   0  0  0  0  0  0
   -0.3600   53.6560   28.4800 P   0  0  0  0  0  0
   -1.6900   53.6490   28.3100 O   0  0  0  0  0  0
    0.1900   53.1570   27.2850 O   0  5  0  0  0  0
    0.2120   52.9030   29.4380 O   0  5  0  0  0  0
    3.5274   56.6351   28.0345 H   0  0  0  0  0  0
    3.2519   58.9042   27.7194 H   0  0  0  0  0  0
    1.9117   57.4517   26.1894 H   0  0  0  0  0  0
   -0.2661   57.5052   28.3931 H   0  0  0  0  0  0
    1.5344   55.2312   27.4187 H   0  0  0  0  0  0
    1.4288   56.7385   30.1253 H   0  0  0  0  0  0
    2.3521   59.6207   29.9180 H   0  0  0  0  0  0
    1.3880   59.8799   26.0459 H   0  0  0  0  0  0
    3.3043   55.1997   30.7318 H   0  0  0  0  0  0
  1  2  1  0  0  0
  1  6  1  0  0  0
  1  7  1  0  0  0
  1 25  1  0  0  0
  2  3  1  0  0  0
  2  8  1  0  0  0
  2 26  1  0  0  0
  3  4  1  0  0  0
  3  9  1  0  0  0
  3 27  1  0  0  0
  4  5  1  0  0  0
  4 10  1  0  0  0
  4 28  1  0  0  0
  5  6  1  0  0  0
  5 11  1  0  0  0
  5 29  1  0  0  0
  6 12  1  0  0  0
  6 30  1  0  0  0
  7 13  1  0  0  0
  8 31  1  0  0  0
  9 32  1  0  0  0
 10 17  1  0  0  0
 11 21  1  0  0  0
 12 33  1  0  0  0
 13 14  1  0  0  0
 13 15  1  0  0  0
 13 16  2  0  0  0
 17 18  1  0  0  0
 17 19  1  0  0  0
 17 20  2  0  0  0
 21 22  2  0  0  0
 21 23  1  0  0  0
 21 24  1  0  0  0
M  CHG  6  14  -1  15  -1  18  -1  19  -1  23  -1  24  -1
M  END
> <s_m_source_file>
../1btn_ligand.sdf

> <i_m_source_file_index>
1

> <s_epik_input>
W09IXVAoPU8pKFtPSF0pT1tDQEBIXTFbQ0BIXShbT0hdKVtDQEhdKFtPSF0pW0NAQEhdKE9QKD1PKShbT0hdKVtPSF0pW0NAQEhdKFtDQEhdMVtPSF0pT1AoPU8pKFtPSF0pW09IXQ==

> <s_epik_cmdline>
J2VwaWtfYXBwJywgJy1pbWFlJywgJ2xpZ2FuZF9wcm8ubWFlJywgJy1vbWFlJywgJ2xpZ2FuZF9wcmVwLm1hZScsICctbXMnLCAnMScsICctcGgnLCAnNycsICctcGh0JywgJzAuNScsICctbnQn

> <r_epik_Ionization_Penalty>
  0.3495

> <r_epik_Ionization_Penalty_Charging>
  0.3495

> <r_epik_Ionization_Penalty_Neutral>
  0.0000

> <r_epik_State_Penalty>
  0.1949

> <r_epik_Charging_Adjusted_Penalty>
0.544395994108791

> <i_epik_Tot_Q>
-6

> <i_epik_Tot_abs_Q>
6

$$$$
