1bux_ligand
                    3D
 Schrodinger Suite 2020-3.
 42 44  0  0  1  0            999 V2000
   64.4620   31.8270   -4.9270 S   0  0  0  0  0  0
   63.4630   30.8240   -4.4800 O   0  5  0  0  0  0
   64.5460   31.9960   -6.3970 O   0  0  0  0  0  0
   64.4110   33.0890   -4.1860 O   0  0  0  0  0  0
   65.8810   31.1630   -4.5200 O   0  0  0  0  0  0
   66.1600   30.0620   -3.3690 P   0  0  1  0  0  0
   65.0080   30.1890   -2.4640 O   0  0  0  0  0  0
   66.4880   28.7610   -4.0030 O   0  5  0  0  0  0
   67.4730   30.6040   -2.6090 O   0  0  0  0  0  0
   67.8820   31.8910   -2.6870 C   0  0  0  0  0  0
   68.7900   32.1000   -1.5790 C   0  0  1  0  0  0
   68.8780   33.5340   -1.5560 O   0  0  0  0  0  0
   67.8500   34.1180   -0.7090 C   0  0  1  0  0  0
   66.9980   34.9130   -1.5320 N   0  0  0  0  0  0
   66.7830   36.2510   -1.4840 C   0  0  0  0  0  0
   67.4520   37.1230   -0.6970 N   0  0  0  0  0  0
   66.9180   38.2970   -0.9720 C   0  0  0  0  0  0
   65.9440   38.6950   -1.8470 N   0  0  0  0  0  0
   65.3080   37.8040   -2.6120 C   0  0  0  0  0  0
   64.2650   38.1200   -3.4060 N   0  0  0  0  0  0
   65.7680   36.5080   -2.4140 C   0  0  0  0  0  0
   65.3500   35.3550   -3.0020 N   0  0  0  0  0  0
   66.1200   34.4670   -2.4500 C   0  0  0  0  0  0
   67.0910   32.8950   -0.1870 C   0  0  2  0  0  0
   66.5500   33.0530    1.1330 O   0  0  0  0  0  0
   68.1600   31.7600   -0.2230 C   0  0  2  0  0  0
   69.0870   31.9080    0.9300 O   0  0  0  0  0  0
   69.3600   30.6950    1.9750 P   0  0  0  0  0  0
   70.0190   31.3830    3.1250 O   0  5  0  0  0  0
   68.0080   30.1210    2.2090 O   0  5  0  0  0  0
   70.2490   29.7790    1.2460 O   0  0  0  0  0  0
   68.3897   32.0567   -3.6487 H   0  0  0  0  0  0
   67.0104   32.5579   -2.6128 H   0  0  0  0  0  0
   69.7172   31.5341   -1.7523 H   0  0  0  0  0  0
   68.2416   34.7978    0.0621 H   0  0  0  0  0  0
   67.3363   39.1143   -0.3845 H   0  0  0  0  0  0
   63.9556   39.1699   -3.5157 H   0  0  0  0  0  0
   63.7235   37.3279   -3.9440 H   0  0  0  0  0  0
   66.0585   33.4120   -2.7169 H   0  0  0  0  0  0
   66.1570   32.7165   -0.7400 H   0  0  0  0  0  0
   65.7813   33.8161    1.3246 H   0  0  0  0  0  0
   67.8448   30.7117   -0.1151 H   0  0  0  0  0  0
  1  2  1  0  0  0
  1  3  2  0  0  0
  1  4  2  0  0  0
  1  5  1  0  0  0
  5  6  1  0  0  0
  6  7  2  0  0  0
  6  8  1  0  0  0
  6  9  1  0  0  0
  9 10  1  0  0  0
 10 11  1  0  0  0
 10 32  1  0  0  0
 10 33  1  0  0  0
 11 12  1  0  0  0
 11 26  1  0  0  0
 11 34  1  0  0  0
 12 13  1  0  0  0
 13 14  1  0  0  0
 13 24  1  0  0  0
 13 35  1  0  0  0
 14 15  1  0  0  0
 14 23  1  0  0  0
 15 16  1  0  0  0
 15 21  2  0  0  0
 16 17  2  0  0  0
 17 18  1  0  0  0
 17 36  1  0  0  0
 18 19  2  0  0  0
 19 20  1  0  0  0
 19 21  1  0  0  0
 20 37  1  0  0  0
 20 38  1  0  0  0
 21 22  1  0  0  0
 22 23  2  0  0  0
 23 39  1  0  0  0
 24 25  1  0  0  0
 24 26  1  0  0  0
 24 40  1  0  0  0
 25 41  1  0  0  0
 26 27  1  0  0  0
 26 42  1  0  0  0
 27 28  1  0  0  0
 28 29  1  0  0  0
 28 30  1  0  0  0
 28 31  2  0  0  0
M  CHG  4   2  -1   8  -1  29  -1  30  -1
M  END
> <s_m_source_file>
../1bux_ligand.sdf

> <i_m_source_file_index>
1

> <s_epik_input>
W09IXVMoPU8pKD1PKU9bUEBAXSg9TykoW09IXSlPW0NIMl1bQ0BIXTFPW0NASF0oW0NASF0oW09IXSlbQ0BASF0xT1AoPU8pKFtPSF0pW09IXSluMltjSF1uYyhjMjMpYyhbTkgyXSluW2NIXW4z

> <s_epik_cmdline>
J2VwaWtfYXBwJywgJy1pbWFlJywgJ2xpZ2FuZF9wcm8ubWFlJywgJy1vbWFlJywgJ2xpZ2FuZF9wcmVwLm1hZScsICctbXMnLCAnMScsICctcGgnLCAnNycsICctcGh0JywgJzAuNScsICctbnQn

> <r_lp_tautomer_probability>
0.999997216410988

> <r_epik_Ionization_Penalty>
  0.0759

> <r_epik_Ionization_Penalty_Charging>
  0.0755

> <r_epik_Ionization_Penalty_Neutral>
  0.0005

> <r_epik_State_Penalty>
  0.0664

> <r_epik_Charging_Adjusted_Penalty>
0.141822910909079

> <i_epik_Tot_Q>
-4

> <i_epik_Tot_abs_Q>
4

> <s_epik_Chemistry_Notes>
This compound contains an acetal/aminal-like group ( X-CH(R)-Y where X, Y are N, S, or O) that may be acid/base labile, releasing an aldehyde.

$$$$
