1bv9_ligand
                    3D
 Schrodinger Suite 2020-3.
 92 98  0  0  1  0            999 V2000
   -8.2390   14.3320   27.7220 O   0  0  0  0  0  0
  -11.7950   18.6220   28.9080 O   0  0  0  0  0  0
  -10.2020   19.5890   26.8130 O   0  0  0  0  0  0
   -9.7430   15.5500   28.7540 N   0  0  0  0  0  0
   -8.7560   16.1960   26.6940 N   0  0  0  0  0  0
   -8.9140   15.3440   27.7130 C   0  0  0  0  0  0
   -9.5310   14.7020   29.9520 C   0  0  0  0  0  0
  -10.8910   16.4960   28.7930 C   0  0  1  0  0  0
  -10.6320   17.9660   28.5120 C   0  0  1  0  0  0
  -10.3060   18.2140   27.0590 C   0  0  2  0  0  0
   -8.9190   17.6730   26.8080 C   0  0  1  0  0  0
   -8.1110   15.6540   25.4900 C   0  0  0  0  0  0
  -12.0880   15.8710   28.0530 C   0  0  0  0  0  0
  -12.5760   14.5920   28.7010 C   0  0  0  0  0  0
  -12.1550   13.3420   28.1920 C   0  0  0  0  0  0
  -12.5770   12.1610   28.8260 C   0  0  0  0  0  0
  -13.4130   12.2410   29.9600 C   0  0  0  0  0  0
  -13.8370   13.4820   30.4660 C   0  0  0  0  0  0
  -13.4130   14.6600   29.8300 C   0  0  0  0  0  0
   -7.8460   18.2500   27.7700 C   0  0  0  0  0  0
   -6.4390   18.0640   27.2370 C   0  0  0  0  0  0
   -6.0520   18.7140   26.0330 C   0  0  0  0  0  0
   -4.7630   18.5050   25.5020 C   0  0  0  0  0  0
   -3.8660   17.6400   26.1880 C   0  0  0  0  0  0
   -4.2540   16.9970   27.3950 C   0  0  0  0  0  0
   -5.5450   17.2120   27.9170 C   0  0  0  0  0  0
   -9.4360   15.4590   31.2520 C   0  0  0  0  0  0
  -10.1580   14.9800   32.3560 C   0  0  0  0  0  0
  -10.1200   15.6920   33.5740 C   0  0  0  0  0  0
   -9.3610   16.8790   33.6870 C   0  0  0  0  0  0
   -8.6310   17.3640   32.5770 C   0  0  0  0  0  0
   -8.6650   16.6450   31.3610 C   0  0  0  0  0  0
  -10.8430   15.1710   34.7760 C   0  0  0  0  0  0
  -11.2560   15.8900   35.6740 O   0  0  0  0  0  0
  -10.9650   13.8270   34.8140 N   0  0  0  0  0  0
  -11.4430   11.8240   36.2210 N   0  0  0  0  0  0
  -11.5290   13.1350   35.9790 C   0  0  0  0  0  0
  -12.0150   11.4550   37.4190 C   0  0  0  0  0  0
  -12.3350   13.8870   37.2500 S   0  0  0  0  0  0
  -12.5850   12.4950   38.1650 C   0  0  0  0  0  0
   -8.7550   15.9530   24.1770 C   0  0  0  0  0  0
   -7.9250   16.2440   23.0960 C   0  0  0  0  0  0
   -8.4890   16.5910   21.8560 C   0  0  0  0  0  0
   -9.8870   16.6340   21.7010 C   0  0  0  0  0  0
  -10.7420   16.3210   22.7820 C   0  0  0  0  0  0
  -10.1650   15.9800   24.0230 C   0  0  0  0  0  0
   -7.6100   16.9420   20.7090 C   0  0  0  0  0  0
   -7.9370   17.7390   19.8510 O   0  0  0  0  0  0
   -6.4120   16.3330   20.6950 N   0  0  0  0  0  0
   -4.1470   16.0810   19.6590 N   0  0  0  0  0  0
   -5.4020   16.5740   19.6430 C   0  0  0  0  0  0
   -3.4240   16.4260   18.5370 C   0  0  0  0  0  0
   -5.6540   17.4750   18.2230 S   0  0  0  0  0  0
   -4.1090   17.2210   17.5870 C   0  0  0  0  0  0
  -12.1529   18.5297   29.9440 H   0  0  0  0  0  0
  -11.0847   20.2359   26.9242 H   0  0  0  0  0  0
  -10.3693   13.9974   30.0554 H   0  0  0  0  0  0
   -8.5915   14.1405   29.8422 H   0  0  0  0  0  0
  -11.1038   16.5984   29.8673 H   0  0  0  0  0  0
   -9.8047   18.3932   29.0977 H   0  0  0  0  0  0
  -11.0985   17.8153   26.4086 H   0  0  0  0  0  0
   -8.7765   18.0117   25.7712 H   0  0  0  0  0  0
   -7.0879   16.0506   25.4121 H   0  0  0  0  0  0
   -8.0748   14.5566   25.5559 H   0  0  0  0  0  0
  -12.9259   16.5836   28.0435 H   0  0  0  0  0  0
  -11.7967   15.6338   27.0191 H   0  0  0  0  0  0
  -11.5088   13.2947   27.3155 H   0  0  0  0  0  0
  -12.2608   11.1901   28.4445 H   0  0  0  0  0  0
  -13.7358   11.3238   30.4525 H   0  0  0  0  0  0
  -14.4862   13.5293   31.3403 H   0  0  0  0  0  0
  -13.7331   15.6294   30.2119 H   0  0  0  0  0  0
   -8.0191   19.3274   27.9084 H   0  0  0  0  0  0
   -7.9130   17.7400   28.7423 H   0  0  0  0  0  0
   -6.7521   19.3739   25.5206 H   0  0  0  0  0  0
   -4.4582   18.9989   24.5794 H   0  0  0  0  0  0
   -2.8687   17.4681   25.7831 H   0  0  0  0  0  0
   -3.5559   16.3405   27.9144 H   0  0  0  0  0  0
   -5.8508   16.7223   28.8415 H   0  0  0  0  0  0
  -10.7439   14.0646   32.2734 H   0  0  0  0  0  0
   -9.3382   17.4219   34.6319 H   0  0  0  0  0  0
   -8.0488   18.2819   32.6586 H   0  0  0  0  0  0
   -8.0963   17.0032   30.5029 H   0  0  0  0  0  0
  -10.6374   13.2205   33.9567 H   0  0  0  0  0  0
  -12.0235   10.4211   37.7640 H   0  0  0  0  0  0
  -13.0838   12.4195   39.1312 H   0  0  0  0  0  0
   -6.8419   16.2027   23.2116 H   0  0  0  0  0  0
  -10.3148   16.9115   20.7376 H   0  0  0  0  0  0
  -11.8248   16.3427   22.6592 H   0  0  0  0  0  0
  -10.8068   15.7356   24.8695 H   0  0  0  0  0  0
   -6.1481   15.6200   21.4900 H   0  0  0  0  0  0
   -2.3919   16.1073   18.3909 H   0  0  0  0  0  0
   -3.7197   17.5931   16.6393 H   0  0  0  0  0  0
  1  6  2  0  0  0
  2  9  1  0  0  0
  2 55  1  0  0  0
  3 10  1  0  0  0
  3 56  1  0  0  0
  4  6  1  0  0  0
  4  8  1  0  0  0
  4  7  1  0  0  0
  5  6  1  0  0  0
  5 11  1  0  0  0
  5 12  1  0  0  0
  7 27  1  0  0  0
  7 57  1  0  0  0
  7 58  1  0  0  0
  8  9  1  0  0  0
  8 13  1  0  0  0
  8 59  1  0  0  0
  9 10  1  0  0  0
  9 60  1  0  0  0
 10 11  1  0  0  0
 10 61  1  0  0  0
 11 20  1  0  0  0
 11 62  1  0  0  0
 12 41  1  0  0  0
 12 63  1  0  0  0
 12 64  1  0  0  0
 13 14  1  0  0  0
 13 65  1  0  0  0
 13 66  1  0  0  0
 14 19  2  0  0  0
 14 15  1  0  0  0
 15 16  2  0  0  0
 15 67  1  0  0  0
 16 17  1  0  0  0
 16 68  1  0  0  0
 17 18  2  0  0  0
 17 69  1  0  0  0
 18 19  1  0  0  0
 18 70  1  0  0  0
 19 71  1  0  0  0
 20 21  1  0  0  0
 20 72  1  0  0  0
 20 73  1  0  0  0
 21 26  2  0  0  0
 21 22  1  0  0  0
 22 23  2  0  0  0
 22 74  1  0  0  0
 23 24  1  0  0  0
 23 75  1  0  0  0
 24 25  2  0  0  0
 24 76  1  0  0  0
 25 26  1  0  0  0
 25 77  1  0  0  0
 26 78  1  0  0  0
 27 32  2  0  0  0
 27 28  1  0  0  0
 28 29  2  0  0  0
 28 79  1  0  0  0
 29 33  1  0  0  0
 29 30  1  0  0  0
 30 31  2  0  0  0
 30 80  1  0  0  0
 31 32  1  0  0  0
 31 81  1  0  0  0
 32 82  1  0  0  0
 33 35  1  0  0  0
 33 34  2  0  0  0
 35 37  1  0  0  0
 35 83  1  0  0  0
 36 37  2  0  0  0
 36 38  1  0  0  0
 37 39  1  0  0  0
 38 40  2  0  0  0
 38 84  1  0  0  0
 39 40  1  0  0  0
 40 85  1  0  0  0
 41 46  2  0  0  0
 41 42  1  0  0  0
 42 43  2  0  0  0
 42 86  1  0  0  0
 43 47  1  0  0  0
 43 44  1  0  0  0
 44 45  2  0  0  0
 44 87  1  0  0  0
 45 46  1  0  0  0
 45 88  1  0  0  0
 46 89  1  0  0  0
 47 49  1  0  0  0
 47 48  2  0  0  0
 49 51  1  0  0  0
 49 90  1  0  0  0
 50 51  2  0  0  0
 50 52  1  0  0  0
 51 53  1  0  0  0
 52 54  2  0  0  0
 52 91  1  0  0  0
 53 54  1  0  0  0
 54 92  1  0  0  0
M  END
> <s_m_source_file>
../1bv9_ligand.sdf

> <i_m_source_file_index>
1

> <s_epik_input>
czFbY0hdW2NIXW5jMVtOSF1DKD1PKWMoW2NIXVtjSF1bY0hdMilbY0hdYzJbQ0gyXU4zQyg9TylOKFtDSDJdYzRbY0hdYyhbY0hdW2NIXVtjSF00KUMoPU8pW05IXWM1bltjSF1bY0hdczUpW0NASF0oW0NIMl1jNltjSF1bY0hdW2NIXVtjSF1bY0hdNilbQ0BIXShbT0hdKVtDQEBIXShbT0hdKVtDQEhdM1tDSDJdYzdbY0hdW2NIXVtjSF1bY0hdW2NIXTc=

> <s_epik_cmdline>
J2VwaWtfYXBwJywgJy1pbWFlJywgJ2xpZ2FuZF9wcm8ubWFlJywgJy1vbWFlJywgJ2xpZ2FuZF9wcmVwLm1hZScsICctbXMnLCAnMScsICctcGgnLCAnNycsICctcGh0JywgJzAuNScsICctbnQn

> <r_lp_tautomer_probability>
1

> <r_epik_Ionization_Penalty>
  0.0005

> <r_epik_Ionization_Penalty_Charging>
  0.0000

> <r_epik_Ionization_Penalty_Neutral>
  0.0005

> <r_epik_State_Penalty>
 -0.0000

> <r_epik_Charging_Adjusted_Penalty>
0

> <i_epik_Tot_Q>
0

> <i_epik_Tot_abs_Q>
0

$$$$
