1bwn_ligand
                    3D
 Schrodinger Suite 2020-3.
 38 38  0  0  1  0            999 V2000
   -2.0570    4.4570   38.9080 C   0  0  2  0  0  0
   -3.3750    4.7570   39.5510 O   0  0  0  0  0  0
   -0.9220    5.3440   39.3220 C   0  0  2  0  0  0
   -1.2400    6.7360   39.0570 O   0  0  0  0  0  0
    0.2860    4.8550   38.6020 C   0  0  2  0  0  0
    1.4160    5.4540   39.1340 O   0  0  0  0  0  0
    0.1400    4.9860   37.0440 C   0  0  1  0  0  0
    1.3480    4.4490   36.4640 O   0  0  0  0  0  0
   -1.0180    4.1230   36.6270 C   0  0  2  0  0  0
   -1.2860    4.4020   35.1940 O   0  0  0  0  0  0
   -2.2840    4.5460   37.4010 C   0  0  1  0  0  0
   -3.4050    3.7320   37.0590 O   0  0  0  0  0  0
   -3.8660    3.9650   40.9260 P   0  0  0  0  0  0
   -5.0750    4.5840   41.3290 O   0  0  0  0  0  0
   -2.7500    4.1010   41.8920 O   0  5  0  0  0  0
   -3.9510    2.6150   40.4580 O   0  5  0  0  0  0
    2.5960    4.6970   39.7910 P   0  0  0  0  0  0
    3.5360    5.7300   40.1190 O   0  0  0  0  0  0
    1.7720    4.1390   40.8380 O   0  5  0  0  0  0
    3.0770    3.7150   38.8170 O   0  5  0  0  0  0
    2.4700    5.2610   35.7560 P   0  0  0  0  0  0
    2.0540    6.6810   35.9260 O   0  5  0  0  0  0
    3.7070    4.9050   36.4370 O   0  0  0  0  0  0
    2.4410    4.8040   34.3950 O   0  0  0  0  0  0
   -0.7620    3.5510   33.9580 P   0  0  0  0  0  0
    0.2910    4.3430   33.4030 O   0  5  0  0  0  0
   -0.2390    2.4120   34.6060 O   0  0  0  0  0  0
   -2.0180    3.5070   33.2300 O   0  0  0  0  0  0
   -1.7380    3.4642   39.2581 H   0  0  0  0  0  0
   -0.7323    5.3316   40.4054 H   0  0  0  0  0  0
   -2.1133    7.2017   39.5371 H   0  0  0  0  0  0
    0.4790    3.8047   38.8657 H   0  0  0  0  0  0
    0.0087    6.0115   36.6682 H   0  0  0  0  0  0
   -0.7639    3.0653   36.7906 H   0  0  0  0  0  0
   -2.5698    5.5648   37.1006 H   0  0  0  0  0  0
   -4.3815    3.9142   37.5315 H   0  0  0  0  0  0
    3.8599    5.1951   37.4870 H   0  0  0  0  0  0
   -2.3990    4.4126   32.7353 H   0  0  0  0  0  0
  1  2  1  0  0  0
  1  3  1  0  0  0
  1 11  1  0  0  0
  1 29  1  0  0  0
  2 13  1  0  0  0
  3  4  1  0  0  0
  3  5  1  0  0  0
  3 30  1  0  0  0
  4 31  1  0  0  0
  5  6  1  0  0  0
  5  7  1  0  0  0
  5 32  1  0  0  0
  6 17  1  0  0  0
  7  8  1  0  0  0
  7  9  1  0  0  0
  7 33  1  0  0  0
  8 21  1  0  0  0
  9 10  1  0  0  0
  9 11  1  0  0  0
  9 34  1  0  0  0
 10 25  1  0  0  0
 11 12  1  0  0  0
 11 35  1  0  0  0
 12 36  1  0  0  0
 13 14  2  0  0  0
 13 15  1  0  0  0
 13 16  1  0  0  0
 17 18  2  0  0  0
 17 19  1  0  0  0
 17 20  1  0  0  0
 21 22  1  0  0  0
 21 23  1  0  0  0
 21 24  2  0  0  0
 23 37  1  0  0  0
 25 26  1  0  0  0
 25 27  2  0  0  0
 25 28  1  0  0  0
 28 38  1  0  0  0
M  CHG  6  15  -1  16  -1  19  -1  20  -1  22  -1  26  -1
M  END
> <s_m_source_file>
../1bwn_ligand.sdf

> <i_m_source_file_index>
1

> <s_epik_input>
Tz1QKFtPSF0pKFtPSF0pT1tDQEBIXTFbQ0BIXShbT0hdKVtDQEhdKE9QKD1PKShbT0hdKVtPSF0pW0NAQEhdKE9QKD1PKShbT0hdKVtPSF0pW0NAQEhdKFtDQEhdMVtPSF0pT1AoPU8pKFtPSF0pW09IXQ==

> <s_epik_cmdline>
J2VwaWtfYXBwJywgJy1pbWFlJywgJ2xpZ2FuZF9wcm8ubWFlJywgJy1vbWFlJywgJ2xpZ2FuZF9wcmVwLm1hZScsICctbXMnLCAnMScsICctcGgnLCAnNycsICctcGh0JywgJzAuNScsICctbnQn

> <r_epik_Ionization_Penalty>
  1.9642

> <r_epik_Ionization_Penalty_Charging>
  0.1777

> <r_epik_Ionization_Penalty_Neutral>
  1.7865

> <r_epik_State_Penalty>
  0.5564

> <r_epik_Charging_Adjusted_Penalty>
0.73410975974006

> <i_epik_Tot_Q>
-6

> <i_epik_Tot_abs_Q>
6

$$$$
