1bxl_ligand
                    3D
 Schrodinger Suite 2020-3.
247246  0  0  1  0            999 V2000
   -8.9250  -19.1580    1.8400 N   0  3  0  0  0  0
   -8.2060  -17.9060    1.4680 C   0  0  0  0  0  0
   -6.7390  -18.2280    1.1750 C   0  0  0  0  0  0
   -6.0240  -18.7330    2.0170 O   0  0  0  0  0  0
   -6.2850  -17.9400   -0.0150 N   0  0  0  0  0  0
   -4.8640  -18.2290   -0.3620 C   0  0  2  0  0  0
   -4.0360  -16.9490   -0.2340 C   0  0  0  0  0  0
   -2.9100  -16.9750    0.2220 O   0  0  0  0  0  0
   -4.7860  -18.7450   -1.8010 C   0  0  0  0  0  0
   -4.3710  -20.2180   -1.7970 C   0  0  0  0  0  0
   -5.6170  -21.1010   -1.8840 C   0  0  0  0  0  0
   -6.7120  -20.6570   -1.6020 O   0  0  0  0  0  0
   -5.4970  -22.3430   -2.2670 N   0  0  0  0  0  0
   -4.5810  -15.8310   -0.6340 N   0  0  0  0  0  0
   -3.8140  -14.5530   -0.5320 C   0  0  2  0  0  0
   -3.3270  -14.3630    0.9000 C   0  0  0  0  0  0
   -3.8400  -14.9570    1.8280 O   0  0  0  0  0  0
   -4.6960  -13.3650   -0.9300 C   0  0  0  0  0  0
   -4.7930  -13.2860   -2.4550 C   0  0  0  0  0  0
   -6.0980  -13.5360   -0.3380 C   0  0  0  0  0  0
   -2.3340  -13.5420    1.0850 N   0  0  0  0  0  0
   -1.8060  -13.3150    2.4510 C   0  0  0  0  0  0
   -0.6750  -14.3100    2.7130 C   0  0  0  0  0  0
    0.4220  -13.9380    3.0800 O   0  0  0  0  0  0
   -0.9340  -15.5750    2.5210 N   0  0  0  0  0  0
    0.1230  -16.5970    2.7510 C   0  0  2  0  0  0
    1.2130  -16.4310    1.6910 C   0  0  0  0  0  0
    2.3800  -16.6590    1.9410 O   0  0  0  0  0  0
   -0.4920  -17.9950    2.6420 C   0  0  0  0  0  0
   -0.7840  -18.5400    4.0420 C   0  0  0  0  0  0
    0.5270  -18.7090    4.8120 C   0  0  0  0  0  0
    0.5020  -19.9960    5.5620 N   0  0  0  0  0  0
    1.6200  -20.6070    5.8460 C   0  0  0  0  0  0
    2.4730  -20.8780    4.8960 N   0  0  0  0  0  0
    1.8850  -20.9450    7.0780 N   0  0  0  0  0  0
    0.8370  -16.0300    0.5070 N   0  0  0  0  0  0
    1.8420  -15.8410   -0.5760 C   0  0  2  0  0  0
    2.3260  -14.3900   -0.5630 C   0  0  0  0  0  0
    3.4600  -14.0980   -0.8900 O   0  0  0  0  0  0
    1.1950  -16.1540   -1.9280 C   0  0  0  0  0  0
    1.2950  -17.6560   -2.2060 C   0  0  0  0  0  0
   -0.0940  -18.2880   -2.0960 C   0  0  0  0  0  0
   -1.0770  -17.6960   -2.4930 O   0  0  0  0  0  0
   -0.2170  -19.4760   -1.5700 N   0  0  0  0  0  0
    1.4720  -13.4770   -0.1850 N   0  0  0  0  0  0
    1.8790  -12.0440   -0.1460 C   0  0  2  0  0  0
    3.1310  -11.8950    0.7220 C   0  0  0  0  0  0
    3.9130  -10.9820    0.5470 O   0  0  0  0  0  0
    0.7440  -11.2060    0.4490 C   0  0  0  0  0  0
    0.0470  -10.4130   -0.6600 C   0  0  0  0  0  0
   -1.2740  -11.0920   -1.0240 C   0  0  0  0  0  0
   -0.2330   -8.9910   -0.1680 C   0  0  0  0  0  0
    3.3290  -12.7840    1.6590 N   0  0  0  0  0  0
    4.5310  -12.6890    2.5330 C   0  0  2  0  0  0
    5.7130  -13.3720    1.8420 C   0  0  0  0  0  0
    6.8490  -12.9660    1.9870 O   0  0  0  0  0  0
    4.2480  -13.3850    3.8660 C   0  0  0  0  0  0
    5.4530  -14.4060    1.0890 N   0  0  0  0  0  0
    6.5610  -15.1140    0.3870 C   0  0  2  0  0  0
    7.3240  -14.1170   -0.4870 C   0  0  0  0  0  0
    8.5280  -13.9930   -0.3950 O   0  0  0  0  0  0
    5.9810  -16.2240   -0.4920 C   0  0  2  0  0  0
    5.9020  -17.5220    0.3150 C   0  0  0  0  0  0
    6.8830  -16.4360   -1.7090 C   0  0  0  0  0  0
    4.6990  -18.3420   -0.1530 C   0  0  0  0  0  0
    6.6330  -13.4050   -1.3330 N   0  0  0  0  0  0
    7.3240  -12.4160   -2.2090 C   0  0  2  0  0  0
    8.1330  -11.4460   -1.3460 C   0  0  0  0  0  0
    9.1410  -10.9230   -1.7700 O   0  0  0  0  0  0
    6.2890  -11.6260   -3.0110 C   0  0  2  0  0  0
    5.3050  -10.9600   -2.0500 C   0  0  0  0  0  0
    5.5350  -12.5720   -3.9430 C   0  0  0  0  0  0
    4.0190  -10.6090   -2.7970 C   0  0  0  0  0  0
    7.6950  -11.1990   -0.1400 N   0  0  0  0  0  0
    8.4330  -10.2580    0.7540 C   0  0  0  0  0  0
    9.9080  -10.6590    0.8430 C   0  0  0  0  0  0
   10.7900   -9.8270    0.7690 O   0  0  0  0  0  0
   10.1850  -11.9230    1.0050 N   0  0  0  0  0  0
   11.6050  -12.3690    1.1010 C   0  0  2  0  0  0
   12.3770  -11.9050   -0.1370 C   0  0  0  0  0  0
   13.3540  -11.1900   -0.0390 O   0  0  0  0  0  0
   11.6540  -13.8960    1.1900 C   0  0  0  0  0  0
   12.9440  -14.3270    1.8920 C   0  0  0  0  0  0
   13.6780  -13.4560    2.3280 O   0  0  0  0  0  0
   13.1760  -15.5220    1.9810 O   0  0  0  0  0  0
   11.9460  -12.3070   -1.3010 N   0  0  0  0  0  0
   12.6540  -11.8930   -2.5470 C   0  0  2  0  0  0
   12.7230  -10.3630   -2.6320 C   0  0  0  0  0  0
   13.5650   -9.8110   -3.3130 O   0  0  0  0  0  0
   11.8980  -12.4340   -3.7620 C   0  0  0  0  0  0
   12.8990  -12.8630   -4.8370 C   0  0  0  0  0  0
   14.0210  -12.3860   -4.7980 O   0  0  0  0  0  0
   12.5250  -13.6600   -5.6820 O   0  0  0  0  0  0
   11.8470   -9.6710   -1.9530 N   0  0  0  0  0  0
   11.8700   -8.1830   -2.0040 C   0  0  2  0  0  0
   11.8220   -7.6210   -0.5820 C   0  0  0  0  0  0
   10.9830   -6.8060   -0.2540 O   0  0  0  0  0  0
   10.6550   -7.6850   -2.7900 C   0  0  2  0  0  0
    9.3760   -8.2170   -2.1400 C   0  0  0  0  0  0
   10.7350   -8.1920   -4.2310 C   0  0  0  0  0  0
    8.3980   -7.0640   -1.9120 C   0  0  0  0  0  0
   12.7160   -8.0490    0.2670 N   0  0  0  0  0  0
   12.7190   -7.5380    1.6670 C   0  0  2  0  0  0
   13.8290   -6.4980    1.8300 C   0  0  0  0  0  0
   14.9970   -6.8280    1.8880 O   0  0  0  0  0  0
   12.9630   -8.6990    2.6330 C   0  0  0  0  0  0
   12.5260   -8.2920    4.0410 C   0  0  0  0  0  0
   11.6460   -7.4700    4.2020 O   0  0  0  0  0  0
   13.1070   -8.8370    5.0740 N   0  0  0  0  0  0
   13.4740   -5.2440    1.9060 N   0  0  0  0  0  0
   14.5110   -4.1860    2.0670 C   0  0  2  0  0  0
   15.5450   -4.3090    0.9450 C   0  0  0  0  0  0
   16.5540   -4.9580    1.1660 O   0  0  0  0  0  0
   15.2030   -4.3530    3.4210 C   0  0  0  0  0  0
   16.3050   -3.3020    3.5640 C   0  0  0  0  0  0
   17.6550   -3.9970    3.7440 C   0  0  0  0  0  0
   18.5470   -3.1410    4.5760 N   0  0  0  0  0  0
   19.5700   -3.6680    5.1910 C   0  0  0  0  0  0
   20.5650   -4.1560    4.5010 N   0  0  0  0  0  0
   19.5980   -3.7080    6.4950 N   0  0  0  0  0  0
   15.3090   -3.7540   -0.1150 O   0  0  0  0  0  0
   -9.9795  -18.9264    2.0506 H   0  0  0  0  0  0
   -8.4598  -19.5957    2.7355 H   0  0  0  0  0  0
   -8.8662  -19.8755    1.0083 H   0  0  0  0  0  0
   -8.6712  -17.4683    0.5725 H   0  0  0  0  0  0
   -8.2648  -17.1884    2.2997 H   0  0  0  0  0  0
   -6.9517  -17.4839   -0.7617 H   0  0  0  0  0  0
   -4.4907  -18.9922    0.3367 H   0  0  0  0  0  0
   -5.7708  -18.6442   -2.2805 H   0  0  0  0  0  0
   -4.0436  -18.1578   -2.3614 H   0  0  0  0  0  0
   -3.7198  -20.4178   -2.6607 H   0  0  0  0  0  0
   -3.8270  -20.4432   -0.8678 H   0  0  0  0  0  0
   -4.5061  -22.7464   -2.5227 H   0  0  0  0  0  0
   -6.3868  -22.9863   -2.3341 H   0  0  0  0  0  0
   -5.6014  -15.8288   -1.0449 H   0  0  0  0  0  0
   -2.9578  -14.6267   -1.2187 H   0  0  0  0  0  0
   -4.2490  -12.4377   -0.5424 H   0  0  0  0  0  0
   -3.7861  -13.1632   -2.8806 H   0  0  0  0  0  0
   -5.4183  -12.4266   -2.7386 H   0  0  0  0  0  0
   -5.2443  -14.2115   -2.8421 H   0  0  0  0  0  0
   -6.0286  -13.5928    0.7583 H   0  0  0  0  0  0
   -6.5492  -14.4614   -0.7253 H   0  0  0  0  0  0
   -6.7232  -12.6766   -0.6218 H   0  0  0  0  0  0
   -1.8868  -13.0168    0.2282 H   0  0  0  0  0  0
   -1.4238  -12.2866    2.5301 H   0  0  0  0  0  0
   -2.6116  -13.4643    3.1850 H   0  0  0  0  0  0
   -1.9357  -15.8850    2.1886 H   0  0  0  0  0  0
    0.5415  -16.4460    3.7570 H   0  0  0  0  0  0
   -1.4295  -17.9395    2.0692 H   0  0  0  0  0  0
    0.2121  -18.6663    2.1287 H   0  0  0  0  0  0
   -1.4357  -17.8364    4.5808 H   0  0  0  0  0  0
   -1.2866  -19.5149    3.9585 H   0  0  0  0  0  0
    1.3696  -18.7137    4.1048 H   0  0  0  0  0  0
    0.6468  -17.8753    5.5195 H   0  0  0  0  0  0
   -0.4583  -20.4309    5.8762 H   0  0  0  0  0  0
    2.2487  -20.5927    3.8576 H   0  0  0  0  0  0
    3.4162  -21.3917    5.1338 H   0  0  0  0  0  0
    1.1655  -20.7162    7.8780 H   0  0  0  0  0  0
   -0.2270  -15.8315    0.3107 H   0  0  0  0  0  0
    2.6836  -16.5248   -0.3915 H   0  0  0  0  0  0
    0.1367  -15.8548   -1.9060 H   0  0  0  0  0  0
    1.7166  -15.5987   -2.7215 H   0  0  0  0  0  0
    1.6915  -17.8157   -3.2195 H   0  0  0  0  0  0
    1.9688  -18.1208   -1.4712 H   0  0  0  0  0  0
    0.6730  -20.0130   -1.2101 H   0  0  0  0  0  0
   -1.2107  -19.9404   -1.4865 H   0  0  0  0  0  0
    0.4512  -13.7669    0.1048 H   0  0  0  0  0  0
    2.0889  -11.7213   -1.1764 H   0  0  0  0  0  0
    0.0138  -11.8700    0.9348 H   0  0  0  0  0  0
    1.1551  -10.5069    1.1922 H   0  0  0  0  0  0
    0.6957  -10.3771   -1.5476 H   0  0  0  0  0  0
   -1.0754  -12.1144   -1.3780 H   0  0  0  0  0  0
   -1.7737  -10.5193   -1.8191 H   0  0  0  0  0  0
   -1.9230  -11.1307   -0.1367 H   0  0  0  0  0  0
    0.7159   -8.5004    0.0945 H   0  0  0  0  0  0
   -0.8827   -9.0311    0.7187 H   0  0  0  0  0  0
   -0.7334   -8.4196   -0.9637 H   0  0  0  0  0  0
    2.6081  -13.6024    1.8023 H   0  0  0  0  0  0
    4.7499  -11.6241    2.7006 H   0  0  0  0  0  0
    3.3982  -12.8940    4.3628 H   0  0  0  0  0  0
    5.1373  -13.3191    4.5101 H   0  0  0  0  0  0
    4.0050  -14.4422    3.6833 H   0  0  0  0  0  0
    4.4163  -14.7549    0.9725 H   0  0  0  0  0  0
    7.2299  -15.5442    1.1470 H   0  0  0  0  0  0
    4.9739  -15.9369   -0.8287 H   0  0  0  0  0  0
    6.8231  -18.1041    0.1642 H   0  0  0  0  0  0
    5.7897  -17.2835    1.3830 H   0  0  0  0  0  0
    6.9404  -15.5035   -2.2897 H   0  0  0  0  0  0
    6.4664  -17.2355   -2.3393 H   0  0  0  0  0  0
    7.8908  -16.7215   -1.3731 H   0  0  0  0  0  0
    4.6429  -19.2747    0.4274 H   0  0  0  0  0  0
    4.8112  -18.5808   -1.2209 H   0  0  0  0  0  0
    3.7777  -17.7602   -0.0022 H   0  0  0  0  0  0
    5.5426  -13.5327   -1.4013 H   0  0  0  0  0  0
    7.9872  -12.9736   -2.8867 H   0  0  0  0  0  0
    6.7956  -10.8549   -3.6099 H   0  0  0  0  0  0
    5.0727  -11.6508   -1.2261 H   0  0  0  0  0  0
    5.7542  -10.0420   -1.6432 H   0  0  0  0  0  0
    6.2455  -13.0499   -4.6335 H   0  0  0  0  0  0
    4.7904  -12.0030   -4.5189 H   0  0  0  0  0  0
    5.0260  -13.3445   -3.3479 H   0  0  0  0  0  0
    3.3117  -10.1297   -2.1042 H   0  0  0  0  0  0
    3.5691  -11.5267   -3.2037 H   0  0  0  0  0  0
    4.2505   -9.9179   -3.6209 H   0  0  0  0  0  0
    6.7766  -11.6891    0.2154 H   0  0  0  0  0  0
    8.3615   -9.2371    0.3508 H   0  0  0  0  0  0
    7.9911  -10.2863    1.7610 H   0  0  0  0  0  0
    9.3713  -12.6603    1.0708 H   0  0  0  0  0  0
   12.0405  -11.9205    2.0061 H   0  0  0  0  0  0
   10.7873  -14.2579    1.7626 H   0  0  0  0  0  0
   11.6284  -14.3234    0.1767 H   0  0  0  0  0  0
   14.0936  -15.8685    2.4790 H   0  0  0  0  0  0
   11.0578  -12.9531   -1.3619 H   0  0  0  0  0  0
   13.6703  -12.3119   -2.5077 H   0  0  0  0  0  0
   11.2908  -13.3001   -3.4602 H   0  0  0  0  0  0
   11.2416  -11.6486   -4.1650 H   0  0  0  0  0  0
   13.2171  -13.9912   -6.4702 H   0  0  0  0  0  0
   11.0920  -10.1888   -1.3432 H   0  0  0  0  0  0
   12.8010   -7.8732   -2.5013 H   0  0  0  0  0  0
   10.6435   -6.5851   -2.7864 H   0  0  0  0  0  0
    8.9123   -8.9641   -2.8009 H   0  0  0  0  0  0
    9.6220   -8.6837   -1.1748 H   0  0  0  0  0  0
   11.6532   -7.8121   -4.7029 H   0  0  0  0  0  0
    9.8593   -7.8365   -4.7939 H   0  0  0  0  0  0
   10.7500   -9.2919   -4.2324 H   0  0  0  0  0  0
    7.4797   -7.4491   -1.4447 H   0  0  0  0  0  0
    8.1505   -6.5969   -2.8767 H   0  0  0  0  0  0
    8.8603   -6.3165   -1.2506 H   0  0  0  0  0  0
   13.4673   -8.7869   -0.0508 H   0  0  0  0  0  0
   11.7387   -7.0794    1.8636 H   0  0  0  0  0  0
   12.3822   -9.5747    2.3078 H   0  0  0  0  0  0
   14.0337   -8.9512    2.6402 H   0  0  0  0  0  0
   13.9037   -9.5812    4.9278 H   0  0  0  0  0  0
   12.8002   -8.5524    6.0913 H   0  0  0  0  0  0
   12.4106   -4.9680    1.8513 H   0  0  0  0  0  0
   14.0109   -3.2076    2.0155 H   0  0  0  0  0  0
   17.3193   -5.0684    0.3836 H   0  0  0  0  0  0
   14.4664   -4.2237    4.2276 H   0  0  0  0  0  0
   15.6448   -5.3583    3.4855 H   0  0  0  0  0  0
   16.3336   -2.6755    2.6603 H   0  0  0  0  0  0
   16.0984   -2.6711    4.4411 H   0  0  0  0  0  0
   17.5051   -4.9653    4.2440 H   0  0  0  0  0  0
   18.1175   -4.1604    2.7594 H   0  0  0  0  0  0
   18.3432   -2.0643    4.6719 H   0  0  0  0  0  0
   20.5410   -4.1221    3.4018 H   0  0  0  0  0  0
   21.4274   -4.6011    5.0188 H   0  0  0  0  0  0
   18.7594   -3.2967    7.0760 H   0  0  0  0  0  0
  1  2  1  0  0  0
  1122  1  0  0  0
  1123  1  0  0  0
  1124  1  0  0  0
  2  3  1  0  0  0
  2125  1  0  0  0
  2126  1  0  0  0
  3  4  2  0  0  0
  3  5  1  0  0  0
  5  6  1  0  0  0
  5127  1  0  0  0
  6  7  1  0  0  0
  6  9  1  0  0  0
  6128  1  0  0  0
  7  8  2  0  0  0
  7 14  1  0  0  0
  9 10  1  0  0  0
  9129  1  0  0  0
  9130  1  0  0  0
 10 11  1  0  0  0
 10131  1  0  0  0
 10132  1  0  0  0
 11 12  2  0  0  0
 11 13  1  0  0  0
 13133  1  0  0  0
 13134  1  0  0  0
 14 15  1  0  0  0
 14135  1  0  0  0
 15 16  1  0  0  0
 15 18  1  0  0  0
 15136  1  0  0  0
 16 17  2  0  0  0
 16 21  1  0  0  0
 18 19  1  0  0  0
 18 20  1  0  0  0
 18137  1  0  0  0
 19138  1  0  0  0
 19139  1  0  0  0
 19140  1  0  0  0
 20141  1  0  0  0
 20142  1  0  0  0
 20143  1  0  0  0
 21 22  1  0  0  0
 21144  1  0  0  0
 22 23  1  0  0  0
 22145  1  0  0  0
 22146  1  0  0  0
 23 24  2  0  0  0
 23 25  1  0  0  0
 25 26  1  0  0  0
 25147  1  0  0  0
 26 27  1  0  0  0
 26 29  1  0  0  0
 26148  1  0  0  0
 27 28  2  0  0  0
 27 36  1  0  0  0
 29 30  1  0  0  0
 29149  1  0  0  0
 29150  1  0  0  0
 30 31  1  0  0  0
 30151  1  0  0  0
 30152  1  0  0  0
 31 32  1  0  0  0
 31153  1  0  0  0
 31154  1  0  0  0
 32 33  1  0  0  0
 32155  1  0  0  0
 33 34  1  0  0  0
 33 35  2  0  0  0
 34156  1  0  0  0
 34157  1  0  0  0
 35158  1  0  0  0
 36 37  1  0  0  0
 36159  1  0  0  0
 37 38  1  0  0  0
 37 40  1  0  0  0
 37160  1  0  0  0
 38 39  2  0  0  0
 38 45  1  0  0  0
 40 41  1  0  0  0
 40161  1  0  0  0
 40162  1  0  0  0
 41 42  1  0  0  0
 41163  1  0  0  0
 41164  1  0  0  0
 42 43  2  0  0  0
 42 44  1  0  0  0
 44165  1  0  0  0
 44166  1  0  0  0
 45 46  1  0  0  0
 45167  1  0  0  0
 46 47  1  0  0  0
 46 49  1  0  0  0
 46168  1  0  0  0
 47 48  2  0  0  0
 47 53  1  0  0  0
 49 50  1  0  0  0
 49169  1  0  0  0
 49170  1  0  0  0
 50 51  1  0  0  0
 50 52  1  0  0  0
 50171  1  0  0  0
 51172  1  0  0  0
 51173  1  0  0  0
 51174  1  0  0  0
 52175  1  0  0  0
 52176  1  0  0  0
 52177  1  0  0  0
 53 54  1  0  0  0
 53178  1  0  0  0
 54 55  1  0  0  0
 54 57  1  0  0  0
 54179  1  0  0  0
 55 56  2  0  0  0
 55 58  1  0  0  0
 57180  1  0  0  0
 57181  1  0  0  0
 57182  1  0  0  0
 58 59  1  0  0  0
 58183  1  0  0  0
 59 60  1  0  0  0
 59 62  1  0  0  0
 59184  1  0  0  0
 60 61  2  0  0  0
 60 66  1  0  0  0
 62 63  1  0  0  0
 62 64  1  0  0  0
 62185  1  0  0  0
 63 65  1  0  0  0
 63186  1  0  0  0
 63187  1  0  0  0
 64188  1  0  0  0
 64189  1  0  0  0
 64190  1  0  0  0
 65191  1  0  0  0
 65192  1  0  0  0
 65193  1  0  0  0
 66 67  1  0  0  0
 66194  1  0  0  0
 67 68  1  0  0  0
 67 70  1  0  0  0
 67195  1  0  0  0
 68 69  2  0  0  0
 68 74  1  0  0  0
 70 71  1  0  0  0
 70 72  1  0  0  0
 70196  1  0  0  0
 71 73  1  0  0  0
 71197  1  0  0  0
 71198  1  0  0  0
 72199  1  0  0  0
 72200  1  0  0  0
 72201  1  0  0  0
 73202  1  0  0  0
 73203  1  0  0  0
 73204  1  0  0  0
 74 75  1  0  0  0
 74205  1  0  0  0
 75 76  1  0  0  0
 75206  1  0  0  0
 75207  1  0  0  0
 76 77  2  0  0  0
 76 78  1  0  0  0
 78 79  1  0  0  0
 78208  1  0  0  0
 79 80  1  0  0  0
 79 82  1  0  0  0
 79209  1  0  0  0
 80 81  2  0  0  0
 80 86  1  0  0  0
 82 83  1  0  0  0
 82210  1  0  0  0
 82211  1  0  0  0
 83 84  2  0  0  0
 83 85  1  0  0  0
 85212  1  0  0  0
 86 87  1  0  0  0
 86213  1  0  0  0
 87 88  1  0  0  0
 87 90  1  0  0  0
 87214  1  0  0  0
 88 89  2  0  0  0
 88 94  1  0  0  0
 90 91  1  0  0  0
 90215  1  0  0  0
 90216  1  0  0  0
 91 92  2  0  0  0
 91 93  1  0  0  0
 93217  1  0  0  0
 94 95  1  0  0  0
 94218  1  0  0  0
 95 96  1  0  0  0
 95 98  1  0  0  0
 95219  1  0  0  0
 96 97  2  0  0  0
 96102  1  0  0  0
 98 99  1  0  0  0
 98100  1  0  0  0
 98220  1  0  0  0
 99101  1  0  0  0
 99221  1  0  0  0
 99222  1  0  0  0
100223  1  0  0  0
100224  1  0  0  0
100225  1  0  0  0
101226  1  0  0  0
101227  1  0  0  0
101228  1  0  0  0
102103  1  0  0  0
102229  1  0  0  0
103104  1  0  0  0
103106  1  0  0  0
103230  1  0  0  0
104105  2  0  0  0
104110  1  0  0  0
106107  1  0  0  0
106231  1  0  0  0
106232  1  0  0  0
107108  2  0  0  0
107109  1  0  0  0
109233  1  0  0  0
109234  1  0  0  0
110111  1  0  0  0
110235  1  0  0  0
111112  1  0  0  0
111114  1  0  0  0
111236  1  0  0  0
112113  1  0  0  0
112121  2  0  0  0
113237  1  0  0  0
114115  1  0  0  0
114238  1  0  0  0
114239  1  0  0  0
115116  1  0  0  0
115240  1  0  0  0
115241  1  0  0  0
116117  1  0  0  0
116242  1  0  0  0
116243  1  0  0  0
117118  1  0  0  0
117244  1  0  0  0
118119  1  0  0  0
118120  2  0  0  0
119245  1  0  0  0
119246  1  0  0  0
120247  1  0  0  0
M  CHG  1   1   1
M  END
> <s_m_source_file>
../1bxl_ligand.sdf

> <i_m_source_file_index>
1

> <s_epik_input>
W05IMytdW0NIMl1DKD1PKVtOSF1bQ0BASF0oW0NIMl1bQ0gyXUMoPU8pW05IMl0pQyg9TylbTkhdW0NAQEhdKFtDSF0oW0NIM10pW0NIM10pQyg9TylbTkhdW0NIMl1DKD1PKVtOSF1bQ0BASF0oW0NIMl1bQ0gyXVtDSDJdW05IXS9DKFtOSDJdKT1OXFtIXSlDKD1PKVtOSF1bQ0BASF0oW0NIMl1bQ0gyXUMoPU8pW05IMl0pQyg9TylbTkhdW0NAQEhdKFtDSDJdW0NIXShbQ0gzXSlbQ0gzXSlDKD1PKVtOSF1bQ0BASF0oW0NIM10pQyg9TylbTkhdW0NAQEhdKFtDQEBIXShbQ0gzXSlbQ0gyXVtDSDNdKUMoPU8pW05IXVtDQEBIXShbQ0BASF0oW0NIM10pW0NIMl1bQ0gzXSlDKD1PKVtOSF1bQ0gyXUMoPU8pW05IXVtDQEBIXShbQ0gyXUMoPU8pW09IXSlDKD1PKVtOSF1bQ0BASF0oW0NIMl1DKD1PKVtPSF0pQyg9TylbTkhdW0NAQEhdKFtDQEBIXShbQ0gzXSlbQ0gyXVtDSDNdKUMoPU8pW05IXVtDQEBIXShbQ0gyXUMoPU8pW05IMl0pQyg9TylbTkhdW0NASF0oQyg9TylbT0hdKVtDSDJdW0NIMl1bQ0gyXVtOSF0vQyhbTkgyXSk9TlxbSF0=

> <s_epik_cmdline>
J2VwaWtfYXBwJywgJy1pbWFlJywgJ2xpZ2FuZF9wcm8ubWFlJywgJy1vbWFlJywgJ2xpZ2FuZF9wcmVwLm1hZScsICctbXMnLCAnMScsICctcGgnLCAnNycsICctcGh0JywgJzAuNScsICctbnQn

> <s_epik_pKa_notes>
Molecule size exceeds maximum supported for generating protonation states

> <s_epik_Chemistry_Notes>
This compound has an imine and may undergo hydrolysis.

$$$$
