1bxo_ligand
                    3D
 Schrodinger Suite 2020-3.
 90 91  0  0  1  0            999 V2000
   18.0510    5.3170   18.4320 N   0  0  0  0  0  0
   16.0920    4.0570   17.7300 C   0  0  0  0  0  0
   19.3060    5.5990   19.1250 C   0  0  1  0  0  0
   14.8410    3.8900   18.5460 C   0  0  0  0  0  0
   20.5230    5.4920   18.2140 C   0  0  0  0  0  0
   14.6890    4.9220   19.5530 C   0  0  0  0  0  0
   20.6780    4.1160   17.6370 C   0  0  0  0  0  0
   13.6180    3.7750   17.5780 C   0  0  0  0  0  0
   20.5270    6.5810   17.1570 C   0  0  0  0  0  0
   17.3280    4.2240   18.5800 C   0  0  0  0  0  0
   19.1970    6.9640   19.8490 C   0  0  0  0  0  0
   17.7060    3.2880   19.3500 O   0  0  0  0  0  0
   18.3670    7.8170   19.5170 O   0  0  0  0  0  0
   20.1090    7.1410   20.8050 N   0  0  0  0  0  0
   20.1150    8.3280   21.6850 C   0  0  1  0  0  0
   19.3710    8.0260   22.9740 C   0  0  0  0  0  0
   19.1900    9.1290   23.9840 C   0  0  0  0  0  0
   19.0640    8.8360   25.2000 O   0  0  0  0  0  0
   19.0770   10.3600   23.5810 N   0  0  0  0  0  0
   18.6640   11.4770   24.4420 C   0  0  0  0  0  0
   21.5550    8.7340   21.9250 C   0  0  0  0  0  0
   22.1800    8.3600   22.9420 O   0  0  0  0  0  0
   22.1390    9.4880   20.9720 N   0  0  0  0  0  0
   23.5530    9.8470   20.9350 C   0  0  1  0  0  0
   24.2340    9.3230   19.6550 C   0  0  0  0  0  0
   23.9710    7.8600   19.2910 C   0  0  0  0  0  0
   24.5990    7.4880   17.9690 C   0  0  0  0  0  0
   24.4280    6.9130   20.4160 C   0  0  0  0  0  0
   23.7220   11.6490   21.1010 P   0  0  2  0  0  0
   22.7540   12.2890   20.1340 O   0  5  0  0  0  0
   25.1710   12.0470   20.9650 O   0  0  0  0  0  0
   23.3540   11.9260   22.6220 O   0  0  0  0  0  0
   23.9660   12.9730   23.4040 C   0  0  1  0  0  0
   22.9070   14.0680   23.7130 C   0  0  0  0  0  0
   25.5130   12.9980   26.7790 C   0  0  0  0  0  0
   21.8170   13.6320   24.6150 C   0  0  0  0  0  0
   21.7200   14.0880   25.9480 C   0  0  0  0  0  0
   20.8070   12.7680   24.1780 C   0  0  0  0  0  0
   20.6880   13.6680   26.7730 C   0  0  0  0  0  0
   19.7380   12.7580   26.3260 C   0  0  0  0  0  0
   19.7820   12.3320   24.9830 C   0  0  0  0  0  0
   24.5240   12.3800   24.6900 C   0  0  0  0  0  0
   24.9760   13.3280   25.4650 O   0  0  0  0  0  0
   24.5270   11.2170   24.9550 O   0  0  0  0  0  0
   17.6394    6.0479   17.7205 H   0  0  0  0  0  0
   15.9617    4.9450   17.0939 H   0  0  0  0  0  0
   16.2008    3.1646   17.0961 H   0  0  0  0  0  0
   19.4283    4.7871   19.8570 H   0  0  0  0  0  0
   14.9428    2.9998   19.1841 H   0  0  0  0  0  0
   21.4224    5.6450   18.8286 H   0  0  0  0  0  0
   15.5830    4.9438   20.1935 H   0  0  0  0  0  0
   13.8026    4.7067   20.1678 H   0  0  0  0  0  0
   14.5661    5.8985   19.0616 H   0  0  0  0  0  0
   20.6675    3.3744   18.4494 H   0  0  0  0  0  0
   21.6324    4.0515   17.0939 H   0  0  0  0  0  0
   19.8477    3.9131   16.9446 H   0  0  0  0  0  0
   13.8041    2.9758   16.8454 H   0  0  0  0  0  0
   13.4766    4.7300   17.0508 H   0  0  0  0  0  0
   12.7132    3.5383   18.1570 H   0  0  0  0  0  0
   20.4104    7.5620   17.6408 H   0  0  0  0  0  0
   19.6944    6.4159   16.4574 H   0  0  0  0  0  0
   21.4791    6.5544   16.6067 H   0  0  0  0  0  0
   20.8766    6.3625   20.9263 H   0  0  0  0  0  0
   19.5875    9.1560   21.1888 H   0  0  0  0  0  0
   18.3487    7.6951   22.7384 H   0  0  0  0  0  0
   19.8965    7.2307   23.5230 H   0  0  0  0  0  0
   19.3136   10.5402   22.5220 H   0  0  0  0  0  0
   18.0052   12.1520   23.8760 H   0  0  0  0  0  0
   18.1237   11.0855   25.3166 H   0  0  0  0  0  0
   21.4615    9.8392   20.1798 H   0  0  0  0  0  0
   23.9601    9.1837   21.7124 H   0  0  0  0  0  0
   23.8943    9.9131   18.7911 H   0  0  0  0  0  0
   25.3254    9.4158   19.7560 H   0  0  0  0  0  0
   22.8854    7.7440   19.1565 H   0  0  0  0  0  0
   24.2520    8.1827   17.1899 H   0  0  0  0  0  0
   24.3083    6.4615   17.7009 H   0  0  0  0  0  0
   25.6941    7.5488   18.0533 H   0  0  0  0  0  0
   23.9531    7.2117   21.3622 H   0  0  0  0  0  0
   25.5216    6.9691   20.5209 H   0  0  0  0  0  0
   24.1358    5.8818   20.1685 H   0  0  0  0  0  0
   24.7920   13.3775   22.8006 H   0  0  0  0  0  0
   23.3972   14.9263   24.1958 H   0  0  0  0  0  0
   22.4340   14.3956   22.7755 H   0  0  0  0  0  0
   25.8426   13.9189   27.2822 H   0  0  0  0  0  0
   26.3686   12.3162   26.6647 H   0  0  0  0  0  0
   24.7330   12.5098   27.3818 H   0  0  0  0  0  0
   22.4678   14.7807   26.3341 H   0  0  0  0  0  0
   20.8346   12.4225   23.1446 H   0  0  0  0  0  0
   20.6208   14.0580   27.7886 H   0  0  0  0  0  0
   18.9715   12.3798   27.0025 H   0  0  0  0  0  0
  1 10  1  0  0  0
  1  3  1  0  0  0
  1 45  1  0  0  0
  2 10  1  0  0  0
  2  4  1  0  0  0
  2 46  1  0  0  0
  2 47  1  0  0  0
  3 11  1  0  0  0
  3  5  1  0  0  0
  3 48  1  0  0  0
  4  6  1  0  0  0
  4  8  1  0  0  0
  4 49  1  0  0  0
  5  9  1  0  0  0
  5  7  1  0  0  0
  5 50  1  0  0  0
  6 51  1  0  0  0
  6 52  1  0  0  0
  6 53  1  0  0  0
  7 54  1  0  0  0
  7 55  1  0  0  0
  7 56  1  0  0  0
  8 57  1  0  0  0
  8 58  1  0  0  0
  8 59  1  0  0  0
  9 60  1  0  0  0
  9 61  1  0  0  0
  9 62  1  0  0  0
 10 12  2  0  0  0
 11 14  1  0  0  0
 11 13  2  0  0  0
 14 15  1  0  0  0
 14 63  1  0  0  0
 15 21  1  0  0  0
 15 16  1  0  0  0
 15 64  1  0  0  0
 16 17  1  0  0  0
 16 65  1  0  0  0
 16 66  1  0  0  0
 17 19  1  0  0  0
 17 18  2  0  0  0
 19 20  1  0  0  0
 19 67  1  0  0  0
 20 41  1  0  0  0
 20 68  1  0  0  0
 20 69  1  0  0  0
 21 23  1  0  0  0
 21 22  2  0  0  0
 23 24  1  0  0  0
 23 70  1  0  0  0
 24 29  1  0  0  0
 24 25  1  0  0  0
 24 71  1  0  0  0
 25 26  1  0  0  0
 25 72  1  0  0  0
 25 73  1  0  0  0
 26 28  1  0  0  0
 26 27  1  0  0  0
 26 74  1  0  0  0
 27 75  1  0  0  0
 27 76  1  0  0  0
 27 77  1  0  0  0
 28 78  1  0  0  0
 28 79  1  0  0  0
 28 80  1  0  0  0
 29 32  1  0  0  0
 29 31  2  0  0  0
 29 30  1  0  0  0
 32 33  1  0  0  0
 33 34  1  0  0  0
 33 42  1  0  0  0
 33 81  1  0  0  0
 34 36  1  0  0  0
 34 82  1  0  0  0
 34 83  1  0  0  0
 35 43  1  0  0  0
 35 84  1  0  0  0
 35 85  1  0  0  0
 35 86  1  0  0  0
 36 38  2  0  0  0
 36 37  1  0  0  0
 37 39  2  0  0  0
 37 87  1  0  0  0
 38 41  1  0  0  0
 38 88  1  0  0  0
 39 40  1  0  0  0
 39 89  1  0  0  0
 40 41  2  0  0  0
 40 90  1  0  0  0
 42 44  2  0  0  0
 42 43  1  0  0  0
M  CHG  1  30  -1
M  END
> <s_m_source_file>
../1bxo_ligand.sdf

> <i_m_source_file_index>
1

> <s_epik_input>
YzEyW2NIXVtjSF1bY0hdYyhbY0hdMilbQ0gyXVtOSF1DKD1PKVtDSDJdW0NASF0oW05IXUMoPU8pW0NASF0oW0NIXShbQ0gzXSlbQ0gzXSlbTkhdQyg9TylbQ0gyXVtDSF0oW0NIM10pW0NIM10pQyg9TylbTkhdW0NAQEhdKFtDSDJdW0NIXShbQ0gzXSlbQ0gzXSlbUEBAXSg9TykoW09IXSlPW0NAQEhdKFtDSDJdMSlDKD1PKU9bQ0gzXQ==

> <s_epik_cmdline>
J2VwaWtfYXBwJywgJy1pbWFlJywgJ2xpZ2FuZF9wcm8ubWFlJywgJy1vbWFlJywgJ2xpZ2FuZF9wcmVwLm1hZScsICctbXMnLCAnMScsICctcGgnLCAnNycsICctcGh0JywgJzAuNScsICctbnQn

> <r_lp_tautomer_probability>
1

> <r_epik_Ionization_Penalty>
  0.0000

> <r_epik_Ionization_Penalty_Charging>
  0.0000

> <r_epik_Ionization_Penalty_Neutral>
  0.0000

> <r_epik_State_Penalty>
 -0.0000

> <r_epik_Charging_Adjusted_Penalty>
1.06571064354816e-06

> <i_epik_Tot_Q>
-1

> <i_epik_Tot_abs_Q>
1

> <s_epik_Chemistry_Notes>
This compound has an ester and may undergo hydrolysis at high or low pH.

$$$$
