1bxq_ligand
                    3D
 Schrodinger Suite 2020-3.
 89 89  0  0  1  0            999 V2000
   17.8320    5.2860   18.4190 N   0  0  0  0  0  0
   15.9120    4.0050   17.5700 C   0  0  0  0  0  0
   19.0790    5.6070   19.0680 C   0  0  1  0  0  0
   14.6320    3.8110   18.3760 C   0  0  0  0  0  0
   20.3030    5.5530   18.1680 C   0  0  0  0  0  0
   14.4710    4.9390   19.3820 C   0  0  0  0  0  0
   20.5040    4.1890   17.5240 C   0  0  0  0  0  0
   13.4430    3.8340   17.4010 C   0  0  0  0  0  0
   20.3630    6.6440   17.1180 C   0  0  0  0  0  0
   17.1080    4.1910   18.5110 C   0  0  0  0  0  0
   18.9500    7.0010   19.7110 C   0  0  0  0  0  0
   17.4690    3.3090   19.2930 O   0  0  0  0  0  0
   18.0990    7.8140   19.3640 O   0  0  0  0  0  0
   19.8370    7.2350   20.6840 N   0  0  0  0  0  0
   19.8160    8.4200   21.5280 C   0  0  1  0  0  0
   18.9670    8.2870   22.7540 C   0  0  0  0  0  0
   18.9430    9.4570   23.7210 C   0  0  0  0  0  0
   18.8230    9.1030   24.9170 O   0  0  0  0  0  0
   19.0480   10.7380   23.4230 N   0  0  0  0  0  0
   21.2630    8.8130   21.7810 C   0  0  0  0  0  0
   21.8280    8.4580   22.8110 O   0  0  0  0  0  0
   21.8590    9.5010   20.8020 N   0  0  0  0  0  0
   23.2410    9.9210   20.7380 C   0  0  1  0  0  0
   23.9850    9.4030   19.5150 C   0  0  0  0  0  0
   23.7190    7.9470   19.1750 C   0  0  0  0  0  0
   24.4010    7.5330   17.8850 C   0  0  0  0  0  0
   24.1640    7.0130   20.3000 C   0  0  0  0  0  0
   23.4010   11.6970   20.9410 P   0  0  2  0  0  0
   22.4630   12.3340   19.9930 O   0  0  0  0  0  0
   24.8440   12.0810   20.8150 O   0  5  0  0  0  0
   22.9220   12.0060   22.3990 O   0  0  0  0  0  0
   23.5630   12.9600   23.1660 C   0  0  1  0  0  0
   22.5630   14.0090   23.7430 C   0  0  0  0  0  0
   25.4640   12.8530   26.3700 C   0  0  0  0  0  0
   21.6500   13.5740   24.8720 C   0  0  0  0  0  0
   21.3300   14.4610   25.8960 C   0  0  0  0  0  0
   21.1210   12.3000   24.9100 C   0  0  0  0  0  0
   20.4960   14.0630   26.9270 C   0  0  0  0  0  0
   20.0140   12.7620   26.8840 C   0  0  0  0  0  0
   20.2840   11.8200   25.8950 C   0  0  0  0  0  0
   24.3240   12.3790   24.3790 C   0  0  0  0  0  0
   24.7470   13.2270   25.2110 O   0  0  0  0  0  0
   24.4260   11.1470   24.5140 O   0  0  0  0  0  0
   17.3634    6.0120   17.7383 H   0  0  0  0  0  0
   15.8046    4.8954   16.9331 H   0  0  0  0  0  0
   16.0768    3.1199   16.9380 H   0  0  0  0  0  0
   19.2009    4.7900   19.7944 H   0  0  0  0  0  0
   14.6816    2.8589   18.9246 H   0  0  0  0  0  0
   21.1389    5.7431   18.8572 H   0  0  0  0  0  0
   15.3185    4.9287   20.0831 H   0  0  0  0  0  0
   13.5325    4.8022   19.9392 H   0  0  0  0  0  0
   14.4455    5.9024   18.8517 H   0  0  0  0  0  0
   20.4580    3.4081   18.2973 H   0  0  0  0  0  0
   21.4862    4.1581   17.0296 H   0  0  0  0  0  0
   19.7131    4.0149   16.7795 H   0  0  0  0  0  0
   13.5529    3.0198   16.6695 H   0  0  0  0  0  0
   13.4194    4.7994   16.8743 H   0  0  0  0  0  0
   12.5063    3.6992   17.9618 H   0  0  0  0  0  0
   20.2163    7.6230   17.5977 H   0  0  0  0  0  0
   19.5716    6.4789   16.3720 H   0  0  0  0  0  0
   21.3447    6.6221   16.6221 H   0  0  0  0  0  0
   20.6137    6.4698   20.8295 H   0  0  0  0  0  0
   19.2846    9.2140   20.9829 H   0  0  0  0  0  0
   17.9186    8.1325   22.4590 H   0  0  0  0  0  0
   19.3115    7.4270   23.3471 H   0  0  0  0  0  0
   19.1535   11.0518   22.3740 H   0  0  0  0  0  0
   19.0301   11.4922   24.2236 H   0  0  0  0  0  0
   21.1708    9.7469   19.9798 H   0  0  0  0  0  0
   23.6281    9.2423   21.5123 H   0  0  0  0  0  0
   23.6947    9.9920   18.6325 H   0  0  0  0  0  0
   25.0688    9.4968   19.6781 H   0  0  0  0  0  0
   22.6308    7.8626   19.0383 H   0  0  0  0  0  0
   24.0841    8.2023   17.0716 H   0  0  0  0  0  0
   24.1215    6.4981   17.6383 H   0  0  0  0  0  0
   25.4920    7.5984   18.0097 H   0  0  0  0  0  0
   23.6721    7.3089   21.2383 H   0  0  0  0  0  0
   25.2553    7.0791   20.4213 H   0  0  0  0  0  0
   23.8848    5.9788   20.0499 H   0  0  0  0  0  0
   24.2379   13.3327   22.3814 H   0  0  0  0  0  0
   23.1224   14.8680   24.1420 H   0  0  0  0  0  0
   21.8880   14.3501   22.9443 H   0  0  0  0  0  0
   25.7295   13.7534   26.9434 H   0  0  0  0  0  0
   26.3812   12.3206   26.0779 H   0  0  0  0  0  0
   24.8393   12.1939   26.9908 H   0  0  0  0  0  0
   21.7373   15.4720   25.8861 H   0  0  0  0  0  0
   21.3851   11.6211   24.0992 H   0  0  0  0  0  0
   20.2295   14.7417   27.7372 H   0  0  0  0  0  0
   19.3635   12.4487   27.7006 H   0  0  0  0  0  0
   19.8765   10.8091   25.8990 H   0  0  0  0  0  0
  1  3  1  0  0  0
  1 10  1  0  0  0
  1 44  1  0  0  0
  2 10  1  0  0  0
  2  4  1  0  0  0
  2 45  1  0  0  0
  2 46  1  0  0  0
  3  5  1  0  0  0
  3 11  1  0  0  0
  3 47  1  0  0  0
  4  8  1  0  0  0
  4  6  1  0  0  0
  4 48  1  0  0  0
  5  7  1  0  0  0
  5  9  1  0  0  0
  5 49  1  0  0  0
  6 50  1  0  0  0
  6 51  1  0  0  0
  6 52  1  0  0  0
  7 53  1  0  0  0
  7 54  1  0  0  0
  7 55  1  0  0  0
  8 56  1  0  0  0
  8 57  1  0  0  0
  8 58  1  0  0  0
  9 59  1  0  0  0
  9 60  1  0  0  0
  9 61  1  0  0  0
 10 12  2  0  0  0
 11 13  2  0  0  0
 11 14  1  0  0  0
 14 15  1  0  0  0
 14 62  1  0  0  0
 15 16  1  0  0  0
 15 20  1  0  0  0
 15 63  1  0  0  0
 16 17  1  0  0  0
 16 64  1  0  0  0
 16 65  1  0  0  0
 17 18  2  0  0  0
 17 19  1  0  0  0
 19 66  1  0  0  0
 19 67  1  0  0  0
 20 21  2  0  0  0
 20 22  1  0  0  0
 22 23  1  0  0  0
 22 68  1  0  0  0
 23 24  1  0  0  0
 23 28  1  0  0  0
 23 69  1  0  0  0
 24 25  1  0  0  0
 24 70  1  0  0  0
 24 71  1  0  0  0
 25 26  1  0  0  0
 25 27  1  0  0  0
 25 72  1  0  0  0
 26 73  1  0  0  0
 26 74  1  0  0  0
 26 75  1  0  0  0
 27 76  1  0  0  0
 27 77  1  0  0  0
 27 78  1  0  0  0
 28 29  2  0  0  0
 28 30  1  0  0  0
 28 31  1  0  0  0
 31 32  1  0  0  0
 32 33  1  0  0  0
 32 41  1  0  0  0
 32 79  1  0  0  0
 33 35  1  0  0  0
 33 80  1  0  0  0
 33 81  1  0  0  0
 34 42  1  0  0  0
 34 82  1  0  0  0
 34 83  1  0  0  0
 34 84  1  0  0  0
 35 36  2  0  0  0
 35 37  1  0  0  0
 36 38  1  0  0  0
 36 85  1  0  0  0
 37 40  2  0  0  0
 37 86  1  0  0  0
 38 39  2  0  0  0
 38 87  1  0  0  0
 39 40  1  0  0  0
 39 88  1  0  0  0
 40 89  1  0  0  0
 41 42  1  0  0  0
 41 43  2  0  0  0
M  CHG  1  30  -1
M  END
> <s_m_source_file>
../1bxq_ligand.sdf

> <i_m_source_file_index>
1

> <s_epik_input>
W0NIM11bQ0hdKFtDSDNdKVtDSDJdQyg9TylbTkhdW0NAQEhdKFtDSF0oW0NIM10pW0NIM10pQyg9TylbTkhdW0NAQEhdKFtDSDJdQyg9TylbTkgyXSlDKD1PKVtOSF1bQ0BASF0oW0NIMl1bQ0hdKFtDSDNdKVtDSDNdKVtQQF0oPU8pKFtPSF0pT1tDQEhdKEMoPU8pT1tDSDNdKVtDSDJdYzFbY0hdW2NIXVtjSF1bY0hdW2NIXTE=

> <s_epik_cmdline>
J2VwaWtfYXBwJywgJy1pbWFlJywgJ2xpZ2FuZF9wcm8ubWFlJywgJy1vbWFlJywgJ2xpZ2FuZF9wcmVwLm1hZScsICctbXMnLCAnMScsICctcGgnLCAnNycsICctcGh0JywgJzAuNScsICctbnQn

> <r_lp_tautomer_probability>
1

> <r_epik_Ionization_Penalty>
  0.0000

> <r_epik_Ionization_Penalty_Charging>
  0.0000

> <r_epik_Ionization_Penalty_Neutral>
  0.0000

> <r_epik_State_Penalty>
 -0.0000

> <r_epik_Charging_Adjusted_Penalty>
1.05302763733763e-06

> <i_epik_Tot_Q>
-1

> <i_epik_Tot_abs_Q>
1

> <s_epik_Chemistry_Notes>
This compound has an ester and may undergo hydrolysis at high or low pH.

$$$$
