1bzf_ligand
                    3D
 Schrodinger Suite 2020-3.
 51 53  0  0  1  0            999 V2000
    3.9530   -8.5550   -1.7280 N   0  3  0  0  0  0
    3.7570   -7.4290   -1.0260 C   0  0  0  0  0  0
    2.6130   -6.7090   -1.1230 N   0  0  0  0  0  0
    1.5980   -7.1090   -1.9510 C   0  0  0  0  0  0
    3.0020   -9.0480   -2.5880 C   0  0  0  0  0  0
    1.7290   -8.3270   -2.7520 C   0  0  0  0  0  0
    0.7400   -8.8960   -3.6890 C   0  0  0  0  0  0
    1.0570  -10.1190   -4.3960 C   0  0  0  0  0  0
    2.2900  -10.7630   -4.1970 C   0  0  0  0  0  0
    3.2420  -10.2470   -3.3190 C   0  0  0  0  0  0
    0.0630  -10.7340   -5.3690 C   0  0  0  0  0  0
    0.4050  -12.1030   -5.7710 N   0  0  0  0  0  0
    0.3300  -13.1510   -4.8810 C   0  0  0  0  0  0
   -0.4640  -13.0590   -3.7030 C   0  0  0  0  0  0
   -0.5330  -14.1690   -2.7840 C   0  0  0  0  0  0
    0.1940  -15.3520   -3.0690 C   0  0  0  0  0  0
    0.9880  -15.4550   -4.2400 C   0  0  0  0  0  0
    1.0520  -14.3370   -5.1510 C   0  0  0  0  0  0
   -0.6090   -8.2500   -3.9480 C   0  0  0  0  0  0
   -1.3140  -14.1260   -1.5890 O   0  0  0  0  0  0
    0.1280  -16.4190   -2.1960 O   0  0  0  0  0  0
    1.6980  -16.6710   -4.4720 O   0  0  0  0  0  0
   -2.3510  -13.1460   -1.6530 C   0  0  0  0  0  0
    1.2970  -16.4170   -1.4150 C   0  0  0  0  0  0
    2.0310  -16.8500   -5.8490 C   0  0  0  0  0  0
    4.7360   -6.9970   -0.1950 N   0  0  0  0  0  0
    0.5030   -6.2930   -1.9510 N   0  0  0  0  0  0
    2.5062  -11.6834   -4.7394 H   0  0  0  0  0  0
    4.1888  -10.7713   -3.1892 H   0  0  0  0  0  0
   -0.9330  -10.7675   -4.9034 H   0  0  0  0  0  0
    0.0199  -10.1242   -6.2835 H   0  0  0  0  0  0
    0.7293  -12.3088   -6.8018 H   0  0  0  0  0  0
   -1.0221  -12.1462   -3.4945 H   0  0  0  0  0  0
    1.6605  -14.4072   -6.0526 H   0  0  0  0  0  0
   -0.7004   -7.3365   -3.3421 H   0  0  0  0  0  0
   -1.4103   -8.9525   -3.6754 H   0  0  0  0  0  0
   -0.6937   -7.9929   -5.0142 H   0  0  0  0  0  0
   -2.9208  -13.1532   -0.7121 H   0  0  0  0  0  0
   -3.0242  -13.3788   -2.4912 H   0  0  0  0  0  0
   -1.9066  -12.1513   -1.8049 H   0  0  0  0  0  0
    1.2680  -17.2604   -0.7094 H   0  0  0  0  0  0
    1.3622  -15.4725   -0.8550 H   0  0  0  0  0  0
    2.1754  -16.5165   -2.0696 H   0  0  0  0  0  0
    2.5750  -17.7978   -5.9745 H   0  0  0  0  0  0
    2.6652  -16.0161   -6.1843 H   0  0  0  0  0  0
    1.1093  -16.8740   -6.4490 H   0  0  0  0  0  0
    5.6715   -7.5684   -0.1033 H   0  0  0  0  0  0
    4.5954   -6.0749    0.3880 H   0  0  0  0  0  0
    0.4869   -5.3942   -1.3170 H   0  0  0  0  0  0
   -0.3629   -6.5345   -2.5850 H   0  0  0  0  0  0
    4.8963   -9.1111   -1.6235 H   0  0  0  0  0  0
  1  2  2  0  0  0
  1  5  1  0  0  0
  1 51  1  0  0  0
  2  3  1  0  0  0
  2 26  1  0  0  0
  3  4  2  0  0  0
  4  6  1  0  0  0
  4 27  1  0  0  0
  5  6  2  0  0  0
  5 10  1  0  0  0
  6  7  1  0  0  0
  7  8  2  0  0  0
  7 19  1  0  0  0
  8  9  1  0  0  0
  8 11  1  0  0  0
  9 10  2  0  0  0
  9 28  1  0  0  0
 10 29  1  0  0  0
 11 12  1  0  0  0
 11 30  1  0  0  0
 11 31  1  0  0  0
 12 13  1  0  0  0
 12 32  1  0  0  0
 13 14  2  0  0  0
 13 18  1  0  0  0
 14 15  1  0  0  0
 14 33  1  0  0  0
 15 16  2  0  0  0
 15 20  1  0  0  0
 16 17  1  0  0  0
 16 21  1  0  0  0
 17 18  2  0  0  0
 17 22  1  0  0  0
 18 34  1  0  0  0
 19 35  1  0  0  0
 19 36  1  0  0  0
 19 37  1  0  0  0
 20 23  1  0  0  0
 21 24  1  0  0  0
 22 25  1  0  0  0
 23 38  1  0  0  0
 23 39  1  0  0  0
 23 40  1  0  0  0
 24 41  1  0  0  0
 24 42  1  0  0  0
 24 43  1  0  0  0
 25 44  1  0  0  0
 25 45  1  0  0  0
 25 46  1  0  0  0
 26 47  1  0  0  0
 26 48  1  0  0  0
 27 49  1  0  0  0
 27 50  1  0  0  0
M  CHG  1   1   1
M  END
> <s_m_source_file>
../1bzf_ligand.sdf

> <i_m_source_file_index>
1

> <s_epik_input>
bjFjKFtOSDJdKW5jKFtOSDJdKWMoYzEyKWMoW0NIM10pYyhbY0hdW2NIXTIpW0NIMl1bTkhdYzNbY0hdYyhPW0NIM10pYyhPW0NIM10pYyhbY0hdMylPW0NIM10=

> <s_epik_cmdline>
J2VwaWtfYXBwJywgJy1pbWFlJywgJ2xpZ2FuZF9wcm8ubWFlJywgJy1vbWFlJywgJ2xpZ2FuZF9wcmVwLm1hZScsICctbXMnLCAnMScsICctcGgnLCAnNycsICctcGh0JywgJzAuNScsICctbnQn

> <r_lp_tautomer_probability>
1

> <r_epik_Ionization_Penalty>
  0.0191

> <r_epik_Ionization_Penalty_Charging>
  0.0171

> <r_epik_Ionization_Penalty_Neutral>
  0.0021

> <r_epik_State_Penalty>
  0.0331

> <r_epik_Charging_Adjusted_Penalty>
0.0501716822260716

> <i_epik_Tot_Q>
1

> <i_epik_Tot_abs_Q>
1

$$$$
