1bzh_ligand
                    3D
 Schrodinger Suite 2020-3.
114115  0  0  1  0            999 V2000
   -9.4620   -3.1850   29.0710 N   0  0  0  0  0  0
  -10.6110   -3.1350   29.9510 C   0  0  2  0  0  0
   -9.9450   -2.8640   31.2740 C   0  0  0  0  0  0
  -10.1130   -1.8140   31.8760 O   0  0  0  0  0  0
  -11.2420   -4.5360   29.9310 C   0  0  0  0  0  0
  -10.1710   -5.5500   30.2490 C   0  0  0  0  0  0
  -10.3600   -6.3920   31.1060 O   0  0  0  0  0  0
   -9.1000   -5.4440   29.5600 O   0  5  0  0  0  0
   -9.0430   -3.9250   31.6950 N   0  0  0  0  0  0
   -8.4020   -3.5390   32.9180 C   0  0  2  0  0  0
   -7.1270   -2.8380   32.5000 C   0  0  0  0  0  0
   -6.6920   -2.9840   31.3770 O   0  0  0  0  0  0
   -8.0950   -4.8010   33.7390 C   0  0  0  0  0  0
   -6.4480   -2.0200   33.4620 N   0  0  0  0  0  0
   -5.2460   -1.3780   33.0820 C   0  0  2  0  0  0
   -4.3780   -2.0850   32.0940 C   0  0  0  0  0  0
   -3.9730   -1.4790   31.1060 O   0  0  0  0  0  0
   -4.3610   -1.3400   34.3800 C   0  0  0  0  0  0
   -3.5020   -0.1100   34.2820 C   0  0  0  0  0  0
   -2.8740    0.0720   33.2460 O   0  0  0  0  0  0
   -3.4580    0.7060   35.2580 O   0  5  0  0  0  0
   -3.9800   -3.4530   32.3620 N   0  0  0  0  0  0
   -3.0790   -3.9640   31.3720 C   0  0  2  0  0  0
   -3.6360   -4.8910   30.3210 C   0  0  0  0  0  0
   -4.3430   -5.7640   30.8610 O   0  0  0  0  0  0
   -2.0020   -4.7980   32.1130 C   0  0  0  0  0  0
   -1.3580   -4.1910   33.3230 C   0  0  0  0  0  0
   -1.6510   -2.8020   33.7390 C   0  0  0  0  0  0
   -2.0990   -1.8750   32.9710 O   0  5  0  0  0  0
   -1.4230   -2.4860   34.9090 O   0  0  0  0  0  0
   -3.3780   -4.9530   28.9460 N   0  0  0  0  0  0
   -2.7760   -4.3250   27.8550 C   0  0  1  0  0  0
   -1.2520   -4.4320   27.6140 C   0  0  0  0  0  0
   -0.8780   -3.8660   26.2350 C   0  0  0  0  0  0
   -0.5550   -2.5270   26.0550 C   0  0  0  0  0  0
   -0.2250   -2.0300   24.7830 C   0  0  0  0  0  0
   -0.8710   -4.7170   25.1270 C   0  0  0  0  0  0
   -0.5350   -4.2400   23.8720 C   0  0  0  0  0  0
   -0.2180   -2.8750   23.6800 C   0  0  0  0  0  0
    0.1120   -2.4680   22.3910 O   0  0  0  0  0  0
    0.8010   -1.2610   22.1440 C   0  0  0  0  0  0
    2.1870   -1.1490   22.7240 C   0  0  0  0  0  0
    0.0320   -0.2010   22.4880 F   0  0  0  0  0  0
    1.1250   -0.1870   20.0630 O   0  0  0  0  0  0
    1.2510   -2.4910   20.2660 O   0  5  0  0  0  0
    2.4520   -0.0220   23.3840 O   0  5  0  0  0  0
    3.0660   -1.9710   22.5420 O   0  0  0  0  0  0
    1.0610   -1.2160   20.6460 C   0  0  0  0  0  0
   -3.7150   -4.3730   25.6360 O   0  0  0  0  0  0
   -3.3280   -4.9900   26.5900 C   0  0  0  0  0  0
   -3.3040   -6.4310   26.6380 N   0  0  0  0  0  0
   -3.8490   -7.0710   25.4820 C   0  0  2  0  0  0
   -5.3570   -7.0350   25.6560 C   0  0  0  0  0  0
   -5.8240   -8.0300   26.1800 O   0  0  0  0  0  0
   -3.5140   -8.5730   25.4410 C   0  0  0  0  0  0
   -2.1260   -8.8280   24.8100 C   0  0  0  0  0  0
   -1.5780  -10.0770   25.5400 C   0  0  0  0  0  0
   -2.2900   -9.1490   23.3170 C   0  0  0  0  0  0
   -6.0160   -5.8670   25.1800 N   0  0  0  0  0  0
   -7.4290   -5.7260   25.3430 C   0  0  2  0  0  0
   -7.8560   -5.9350   26.8210 C   0  0  0  0  0  0
   -8.3530   -6.3100   24.3360 C   0  0  0  0  0  0
   -8.8890   -7.6430   24.4730 N   0  0  0  0  0  0
   -7.3700   -4.3520   27.5930 S   0  0  0  0  0  0
   -8.6190   -3.3140   26.7420 C   0  0  0  0  0  0
  -10.9730   -3.2560   27.3120 O   0  0  0  0  0  0
   -9.8080   -3.2510   27.6750 C   0  0  0  0  0  0
   -8.7080   -5.6280   23.3690 O   0  0  0  0  0  0
   -8.4458   -3.1707   29.4919 H   0  0  0  0  0  0
  -11.3663   -2.3822   29.6811 H   0  0  0  0  0  0
  -12.0428   -4.5882   30.6833 H   0  0  0  0  0  0
  -11.6621   -4.7348   28.9340 H   0  0  0  0  0  0
   -8.8115   -4.8974   31.2358 H   0  0  0  0  0  0
   -9.0627   -2.8741   33.4937 H   0  0  0  0  0  0
   -9.0377   -5.2885   34.0282 H   0  0  0  0  0  0
   -7.5336   -4.5227   34.6431 H   0  0  0  0  0  0
   -7.4939   -5.4952   33.1334 H   0  0  0  0  0  0
   -6.8448   -1.8869   34.4792 H   0  0  0  0  0  0
   -5.6295   -0.4656   32.6018 H   0  0  0  0  0  0
   -5.0113   -1.2933   35.2659 H   0  0  0  0  0  0
   -3.7409   -2.2473   34.4277 H   0  0  0  0  0  0
   -4.2901   -4.0891   33.2041 H   0  0  0  0  0  0
   -2.7945   -3.0306   30.8642 H   0  0  0  0  0  0
   -2.4465   -5.7403   32.4658 H   0  0  0  0  0  0
   -1.1721   -5.0188   31.4256 H   0  0  0  0  0  0
   -1.6219   -4.7805   34.2134 H   0  0  0  0  0  0
   -0.2655   -4.1893   33.1950 H   0  0  0  0  0  0
   -3.9081   -5.9069   28.8079 H   0  0  0  0  0  0
   -3.0462   -3.3027   28.1580 H   0  0  0  0  0  0
   -0.7174   -3.8624   28.3885 H   0  0  0  0  0  0
   -0.9469   -5.4879   27.6591 H   0  0  0  0  0  0
   -0.5576   -1.8532   26.9118 H   0  0  0  0  0  0
    0.0267   -0.9765   24.6608 H   0  0  0  0  0  0
   -1.1329   -5.7676   25.2523 H   0  0  0  0  0  0
   -0.5145   -4.9232   23.0229 H   0  0  0  0  0  0
   -2.9116   -7.0365   27.4683 H   0  0  0  0  0  0
   -3.4315   -6.5219   24.6251 H   0  0  0  0  0  0
   -3.5099   -8.9758   26.4646 H   0  0  0  0  0  0
   -4.2705   -9.1012   24.8421 H   0  0  0  0  0  0
   -1.4606   -7.9565   24.8975 H   0  0  0  0  0  0
   -1.4584   -9.8531   26.6103 H   0  0  0  0  0  0
   -0.6031  -10.3535   25.1120 H   0  0  0  0  0  0
   -2.2829  -10.9124   25.4167 H   0  0  0  0  0  0
   -2.6796   -8.2641   22.7924 H   0  0  0  0  0  0
   -2.9938   -9.9858   23.1971 H   0  0  0  0  0  0
   -1.3141   -9.4269   22.8924 H   0  0  0  0  0  0
   -5.4373   -5.0724   24.6864 H   0  0  0  0  0  0
   -7.4982   -4.6834   24.9992 H   0  0  0  0  0  0
   -8.9394   -6.1198   26.8670 H   0  0  0  0  0  0
   -7.3186   -6.7989   27.2393 H   0  0  0  0  0  0
   -8.5895   -8.2714   25.3247 H   0  0  0  0  0  0
   -9.5971   -8.0306   23.7257 H   0  0  0  0  0  0
   -8.2012   -2.3128   26.5601 H   0  0  0  0  0  0
   -8.8893   -3.7784   25.7822 H   0  0  0  0  0  0
  1  2  1  0  0  0
  1 67  1  0  0  0
  1 69  1  0  0  0
  2  3  1  0  0  0
  2  5  1  0  0  0
  2 70  1  0  0  0
  3  4  2  0  0  0
  3  9  1  0  0  0
  5  6  1  0  0  0
  5 71  1  0  0  0
  5 72  1  0  0  0
  6  7  2  0  0  0
  6  8  1  0  0  0
  9 10  1  0  0  0
  9 73  1  0  0  0
 10 11  1  0  0  0
 10 13  1  0  0  0
 10 74  1  0  0  0
 11 12  2  0  0  0
 11 14  1  0  0  0
 13 75  1  0  0  0
 13 76  1  0  0  0
 13 77  1  0  0  0
 14 15  1  0  0  0
 14 78  1  0  0  0
 15 16  1  0  0  0
 15 18  1  0  0  0
 15 79  1  0  0  0
 16 17  2  0  0  0
 16 22  1  0  0  0
 18 19  1  0  0  0
 18 80  1  0  0  0
 18 81  1  0  0  0
 19 20  2  0  0  0
 19 21  1  0  0  0
 22 23  1  0  0  0
 22 82  1  0  0  0
 23 24  1  0  0  0
 23 26  1  0  0  0
 23 83  1  0  0  0
 24 25  2  0  0  0
 24 31  1  0  0  0
 26 27  1  0  0  0
 26 84  1  0  0  0
 26 85  1  0  0  0
 27 28  1  0  0  0
 27 86  1  0  0  0
 27 87  1  0  0  0
 28 29  1  0  0  0
 28 30  2  0  0  0
 31 32  1  0  0  0
 31 88  1  0  0  0
 32 50  1  0  0  0
 32 33  1  0  0  0
 32 89  1  0  0  0
 33 34  1  0  0  0
 33 90  1  0  0  0
 33 91  1  0  0  0
 34 37  2  0  0  0
 34 35  1  0  0  0
 35 36  2  0  0  0
 35 92  1  0  0  0
 36 39  1  0  0  0
 36 93  1  0  0  0
 37 38  1  0  0  0
 37 94  1  0  0  0
 38 39  2  0  0  0
 38 95  1  0  0  0
 39 40  1  0  0  0
 40 41  1  0  0  0
 41 48  1  0  0  0
 41 43  1  0  0  0
 41 42  1  0  0  0
 42 47  2  0  0  0
 42 46  1  0  0  0
 44 48  2  0  0  0
 45 48  1  0  0  0
 49 50  2  0  0  0
 50 51  1  0  0  0
 51 52  1  0  0  0
 51 96  1  0  0  0
 52 53  1  0  0  0
 52 55  1  0  0  0
 52 97  1  0  0  0
 53 54  2  0  0  0
 53 59  1  0  0  0
 55 56  1  0  0  0
 55 98  1  0  0  0
 55 99  1  0  0  0
 56 58  1  0  0  0
 56 57  1  0  0  0
 56100  1  0  0  0
 57101  1  0  0  0
 57102  1  0  0  0
 57103  1  0  0  0
 58104  1  0  0  0
 58105  1  0  0  0
 58106  1  0  0  0
 59 60  1  0  0  0
 59107  1  0  0  0
 60 62  1  0  0  0
 60 61  1  0  0  0
 60108  1  0  0  0
 61 64  1  0  0  0
 61109  1  0  0  0
 61110  1  0  0  0
 62 68  2  0  0  0
 62 63  1  0  0  0
 63111  1  0  0  0
 63112  1  0  0  0
 64 65  1  0  0  0
 65 67  1  0  0  0
 65113  1  0  0  0
 65114  1  0  0  0
 66 67  2  0  0  0
M  CHG  5   8  -1  21  -1  29  -1  45  -1  46  -1
M  END
> <s_m_source_file>
../1bzh_ligand.sdf

> <i_m_source_file_index>
1

> <s_epik_input>
Tz1DKFtPSF0pW0NIMl1bQ0BASF0xW05IXUMoPU8pW0NIMl1TW0NIMl1bQ0BIXShDKD1PKVtOSDJdKVtOSF1DKD1PKVtDQEhdKFtDSDJdW0NIXShbQ0gzXSlbQ0gzXSlbTkhdQyg9TylbQ0BIXShbQ0gyXWMyW2NIXVtjSF1jKFtjSF1bY0hdMilPQyhGKShDKD1PKVtPSF0pQyg9TylbT0hdKVtOSF1DKD1PKVtDQEhdKFtDSDJdW0NIMl1DKD1PKVtPSF0pW05IXUMoPU8pW0NASF0oW0NIMl1DKD1PKVtPSF0pW05IXUMoPU8pW0NASF0oW0NIM10pW05IXUMxPU8=

> <s_epik_cmdline>
J2VwaWtfYXBwJywgJy1pbWFlJywgJ2xpZ2FuZF9wcm8ubWFlJywgJy1vbWFlJywgJ2xpZ2FuZF9wcmVwLm1hZScsICctbXMnLCAnMScsICctcGgnLCAnNycsICctcGh0JywgJzAuNScsICctbnQn

> <r_lp_tautomer_probability>
1

> <r_epik_Ionization_Penalty>
  0.0044

> <r_epik_Ionization_Penalty_Charging>
  0.0044

> <r_epik_Ionization_Penalty_Neutral>
  0.0000

> <r_epik_State_Penalty>
 -0.0000

> <r_epik_Charging_Adjusted_Penalty>
0.00438533481126612

> <i_epik_Tot_Q>
-5

> <i_epik_Tot_abs_Q>
5

$$$$
