1bzj_ligand
                    3D
 Schrodinger Suite 2020-3.
 26 27  0  0  1  0            999 V2000
   46.4480   15.8550    4.2270 C   0  0  0  0  0  0
   45.8550   14.9180    3.2840 C   0  0  0  0  0  0
   44.7470   15.2970    2.4980 C   0  0  0  0  0  0
   44.6670   10.9800    0.3540 C   0  0  0  0  0  0
   45.7820   10.6110    1.1300 C   0  0  0  0  0  0
   46.3650   11.4670    2.0570 C   0  0  0  0  0  0
   45.8450   12.7410    2.2120 C   0  0  0  0  0  0
   46.4100   13.6320    3.1300 C   0  0  0  0  0  0
   44.0620   10.0090   -0.6600 C   0  0  0  0  0  0
   44.1660   14.4320    1.5820 C   0  0  0  0  0  0
   44.7070   13.1440    1.4220 C   0  0  0  0  0  0
   44.1320   12.2430    0.5070 C   0  0  0  0  0  0
   43.0550   10.3370   -1.3530 O   0  5  0  0  0  0
   44.5790    8.8700   -0.7610 O   0  0  0  0  0  0
   45.4230   16.0660    5.7000 P   0  0  0  0  0  0
   46.0640   17.0350    6.6250 O   0  0  0  0  0  0
   45.3680   14.8540    6.5690 O   0  5  0  0  0  0
   43.8470   16.5390    5.4750 O   0  5  0  0  0  0
   46.5800   17.0870    3.6580 F   0  0  0  0  0  0
   47.6970   15.4340    4.5350 F   0  0  0  0  0  0
   44.3348   16.2994    2.6136 H   0  0  0  0  0  0
   46.2048    9.6149    0.9988 H   0  0  0  0  0  0
   47.2178   11.1407    2.6523 H   0  0  0  0  0  0
   47.2746   13.3334    3.7229 H   0  0  0  0  0  0
   43.3029   14.7462    0.9951 H   0  0  0  0  0  0
   43.2643   12.5424   -0.0808 H   0  0  0  0  0  0
  1 15  1  0  0  0
  1  2  1  0  0  0
  1 20  1  0  0  0
  1 19  1  0  0  0
  2  8  2  0  0  0
  2  3  1  0  0  0
  3 10  2  0  0  0
  3 21  1  0  0  0
  4  5  1  0  0  0
  4 12  2  0  0  0
  4  9  1  0  0  0
  5  6  2  0  0  0
  5 22  1  0  0  0
  6  7  1  0  0  0
  6 23  1  0  0  0
  7 11  2  0  0  0
  7  8  1  0  0  0
  8 24  1  0  0  0
  9 14  2  0  0  0
  9 13  1  0  0  0
 10 11  1  0  0  0
 10 25  1  0  0  0
 11 12  1  0  0  0
 12 26  1  0  0  0
 15 18  1  0  0  0
 15 17  1  0  0  0
 15 16  2  0  0  0
M  CHG  3  13  -1  17  -1  18  -1
M  END
> <s_m_source_file>
../1bzj_ligand.sdf

> <i_m_source_file_index>
1

> <s_epik_input>
Tz1QKFtPSF0pKFtPSF0pQyhGKShGKWMoW2NIXTEpW2NIXVtjSF1jKGMxMilbY0hdYyhbY0hdW2NIXTIpQyg9TylbT0hd

> <s_epik_cmdline>
J2VwaWtfYXBwJywgJy1pbWFlJywgJ2xpZ2FuZF9wcm8ubWFlJywgJy1vbWFlJywgJ2xpZ2FuZF9wcmVwLm1hZScsICctbXMnLCAnMScsICctcGgnLCAnNycsICctcGh0JywgJzAuNScsICctbnQn

> <r_epik_Ionization_Penalty>
  0.0128

> <r_epik_Ionization_Penalty_Charging>
  0.0128

> <r_epik_Ionization_Penalty_Neutral>
  0.0000

> <r_epik_State_Penalty>
  0.0095

> <r_epik_Charging_Adjusted_Penalty>
0.0223163168889592

> <i_epik_Tot_Q>
-3

> <i_epik_Tot_abs_Q>
3

$$$$
