1bzs_ligand
                    3D
 Schrodinger Suite 2020-3.
 46 49  0  0  1  0            999 V2000
   30.3900   59.3230   55.7800 C   0  0  0  0  0  0
   30.4040   59.0550   54.3880 C   0  0  0  0  0  0
   29.4640   59.6780   53.5540 C   0  0  0  0  0  0
   29.5570   59.4040   52.1020 C   0  0  0  0  0  0
   27.1290   60.3290   52.0360 C   0  0  1  0  0  0
   27.4340   61.2220   53.2390 C   0  0  0  0  0  0
   27.6250   58.3170   49.3640 C   0  0  0  0  0  0
   26.4710   55.9070   48.3830 C   0  0  0  0  0  0
   27.7630   55.9340   49.0370 C   0  0  0  0  0  0
   28.3570   57.1120   49.5420 C   0  0  0  0  0  0
   26.0010   54.6670   47.7170 C   0  0  0  0  0  0
   24.7090   53.5400   45.9710 C   0  0  0  0  0  0
   26.4680   53.3980   48.1780 C   0  0  0  0  0  0
   29.8250   59.6520   49.3690 O   0  0  0  0  0  0
   28.4930   60.5630   54.0960 C   0  0  0  0  0  0
   28.4960   60.8580   55.4930 C   0  0  0  0  0  0
   29.4510   60.2230   56.3240 C   0  0  0  0  0  0
   28.4190   59.9900   51.3650 N   0  0  3  0  0  0
   28.4470   59.8400   49.7700 S   0  0  0  0  0  0
   26.3100   58.3200   48.8060 C   0  0  0  0  0  0
   25.7260   57.1190   48.3240 C   0  0  0  0  0  0
   25.1270   54.7500   46.6090 C   0  0  0  0  0  0
   25.1650   52.2760   46.4320 C   0  0  0  0  0  0
   26.0530   52.2050   47.5400 C   0  0  0  0  0  0
   27.6780   60.9140   49.2150 O   0  0  0  0  0  0
   26.3880   59.0790   52.4950 C   0  0  0  0  0  0
   25.1420   59.0600   52.5280 O   0  0  0  0  0  0
   27.0290   58.0640   52.8840 O   0  5  0  0  0  0
   31.1096   58.8302   56.4337 H   0  0  0  0  0  0
   31.1403   58.3694   53.9686 H   0  0  0  0  0  0
   30.4874   59.8370   51.7060 H   0  0  0  0  0  0
   29.5576   58.3170   51.9333 H   0  0  0  0  0  0
   26.4951   60.8457   51.3004 H   0  0  0  0  0  0
   27.7998   62.1981   52.8877 H   0  0  0  0  0  0
   26.5180   61.3651   53.8310 H   0  0  0  0  0  0
   28.3061   54.9951   49.1453 H   0  0  0  0  0  0
   29.3256   57.0975   50.0418 H   0  0  0  0  0  0
   24.0309   53.5884   45.1190 H   0  0  0  0  0  0
   27.1491   53.3483   49.0276 H   0  0  0  0  0  0
   27.7755   61.5600   55.9128 H   0  0  0  0  0  0
   29.4601   60.4320   57.3937 H   0  0  0  0  0  0
   25.7496   59.2532   48.7497 H   0  0  0  0  0  0
   24.7166   57.1247   47.9126 H   0  0  0  0  0  0
   24.7783   55.7175   46.2478 H   0  0  0  0  0  0
   24.8348   51.3626   45.9373 H   0  0  0  0  0  0
   26.4115   51.2389   47.8954 H   0  0  0  0  0  0
  1 17  2  0  0  0
  1  2  1  0  0  0
  1 29  1  0  0  0
  2  3  2  0  0  0
  2 30  1  0  0  0
  3 15  1  0  0  0
  3  4  1  0  0  0
  4 18  1  0  0  0
  4 31  1  0  0  0
  4 32  1  0  0  0
  5 18  1  0  0  0
  5 26  1  0  0  0
  5  6  1  0  0  0
  5 33  1  0  0  0
  6 15  1  0  0  0
  6 34  1  0  0  0
  6 35  1  0  0  0
  7 19  1  0  0  0
  7 20  2  0  0  0
  7 10  1  0  0  0
  8  9  1  0  0  0
  8 21  2  0  0  0
  8 11  1  0  0  0
  9 10  2  0  0  0
  9 36  1  0  0  0
 10 37  1  0  0  0
 11 22  2  0  0  0
 11 13  1  0  0  0
 12 23  2  0  0  0
 12 22  1  0  0  0
 12 38  1  0  0  0
 13 24  2  0  0  0
 13 39  1  0  0  0
 14 19  2  0  0  0
 15 16  2  0  0  0
 16 17  1  0  0  0
 16 40  1  0  0  0
 17 41  1  0  0  0
 18 19  1  0  0  0
 19 25  2  0  0  0
 20 21  1  0  0  0
 20 42  1  0  0  0
 21 43  1  0  0  0
 22 44  1  0  0  0
 23 24  1  0  0  0
 23 45  1  0  0  0
 24 46  1  0  0  0
 26 28  1  0  0  0
 26 27  2  0  0  0
M  CHG  1  28  -1
M  END
> <s_m_source_file>
../1bzs_ligand.sdf

> <i_m_source_file_index>
1

> <s_epik_input>
W2NIXTFbY0hdW2NIXVtjSF1jKGMxMilbQ0gyXVtDQEhdKEMoPU8pW09IXSlOKFtDSDJdMilTKD1PKSg9TyljM1tjSF1bY0hdYyhbY0hdW2NIXTMpLWM0W2NIXVtjSF1bY0hdW2NIXVtjSF00

> <s_epik_cmdline>
J2VwaWtfYXBwJywgJy1pbWFlJywgJ2xpZ2FuZF9wcm8ubWFlJywgJy1vbWFlJywgJ2xpZ2FuZF9wcmVwLm1hZScsICctbXMnLCAnMScsICctcGgnLCAnNycsICctcGh0JywgJzAuNScsICctbnQn

> <r_lp_tautomer_probability>
1

> <r_epik_Ionization_Penalty>
  0.0001

> <r_epik_Ionization_Penalty_Charging>
  0.0001

> <r_epik_Ionization_Penalty_Neutral>
  0.0000

> <r_epik_State_Penalty>
 -0.0000

> <r_epik_Charging_Adjusted_Penalty>
0.000110986872271866

> <i_epik_Tot_Q>
-1

> <i_epik_Tot_abs_Q>
1

$$$$
