1c1u_ligand
                    3D
 Schrodinger Suite 2020-3.
 34 37  0  0  1  0            999 V2000
   11.7700  -11.8410   23.0670 C   0  0  0  0  0  0
   12.2330  -10.6420   22.4680 C   0  0  0  0  0  0
   13.2390  -10.6310   21.4990 C   0  0  0  0  0  0
   13.7490  -11.8610   21.1600 C   0  0  0  0  0  0
   13.3230  -13.0070   21.7150 C   0  0  0  0  0  0
   12.3410  -13.0620   22.6640 C   0  0  0  0  0  0
   10.8040  -11.8370   24.0380 C   0  0  0  0  0  0
   14.8610  -13.4670   20.3290 C   0  0  3  0  0  0
   15.9340  -14.2920   19.4750 C   0  0  0  0  0  0
   10.1410  -12.9340   24.2920 N   0  0  0  0  0  0
   10.5790  -10.7240   24.6980 N   0  0  0  0  0  0
   14.6910  -12.1700   20.3150 N   0  0  0  0  0  0
   14.0170  -13.9780   21.1910 N   0  0  0  0  0  0
   17.0350  -11.5170   14.3500 C   0  0  0  0  0  0
   16.5210  -12.6870   13.7390 C   0  0  0  0  0  0
   16.0800  -13.7840   14.5190 C   0  0  0  0  0  0
   16.1790  -13.6390   15.8930 C   0  0  0  0  0  0
   16.6740  -12.5160   16.4540 C   0  0  0  0  0  0
   17.1190  -11.4190   15.7430 C   0  0  0  0  0  0
   16.1400  -13.8320   17.9970 C   0  0  0  0  0  0
   15.8530  -14.4540   16.8710 N   0  0  0  0  0  0
   16.6380  -12.6680   17.7390 N   0  0  0  0  0  0
   11.7707   -9.6978   22.7916 H   0  0  0  0  0  0
   13.5713   -9.6778   21.0619 H   0  0  0  0  0  0
   11.9932  -14.0055   23.1099 H   0  0  0  0  0  0
   16.9205  -14.2181   19.9560 H   0  0  0  0  0  0
   15.6290  -15.3477   19.4244 H   0  0  0  0  0  0
    9.3704  -12.9416   25.0769 H   0  0  0  0  0  0
   11.1546   -9.8174   24.4598 H   0  0  0  0  0  0
    9.8150  -10.6985   25.4890 H   0  0  0  0  0  0
   17.3681  -10.6854   13.7291 H   0  0  0  0  0  0
   16.4672  -12.7356   12.6414 H   0  0  0  0  0  0
   15.6863  -14.6857   14.0271 H   0  0  0  0  0  0
   17.5093  -10.5395   16.2760 H   0  0  0  0  0  0
  1  7  1  0  0  0
  1  6  2  0  0  0
  1  2  1  0  0  0
  2  3  2  0  0  0
  2 23  1  0  0  0
  3  4  1  0  0  0
  3 24  1  0  0  0
  4 12  2  0  0  0
  4  5  1  0  0  0
  5 13  2  0  0  0
  5  6  1  0  0  0
  6 25  1  0  0  0
  7 11  1  0  0  0
  7 10  2  0  0  0
  8 13  1  0  0  0
  8 12  1  0  0  0
  8  9  1  0  0  0
  9 20  1  0  0  0
  9 26  1  0  0  0
  9 27  1  0  0  0
 10 28  1  0  0  0
 11 29  1  0  0  0
 11 30  1  0  0  0
 14 15  1  0  0  0
 14 19  1  0  0  0
 14 31  1  0  0  0
 15 16  2  0  0  0
 15 32  1  0  0  0
 16 17  1  0  0  0
 16 33  1  0  0  0
 17 21  2  0  0  0
 17 18  1  0  0  0
 18 19  2  0  0  0
 18 22  1  0  0  0
 19 34  1  0  0  0
 20 22  2  0  0  0
 20 21  1  0  0  0
M  END
> <s_m_source_file>
../1c1u_ligand.sdf

> <i_m_source_file_index>
1

> <s_epik_input>
W0hdXE49QyhbTkgyXSlcYyhbY0hdW2NIXTEpW2NIXWMoYzE9Mik9TltDSF0oTjIpW0NIMl1DKE4zKT1OQyhDPTM0KT1bQ0hdW0NIMl1bQ0hdPVtDSF00

> <s_epik_cmdline>
J2VwaWtfYXBwJywgJy1pbWFlJywgJ2xpZ2FuZF9wcm8ubWFlJywgJy1vbWFlJywgJ2xpZ2FuZF9wcmVwLm1hZScsICctbXMnLCAnMScsICctcGgnLCAnNycsICctcGh0JywgJzAuNScsICctbnQn

> <r_lp_tautomer_probability>
1

> <r_epik_Ionization_Penalty>
  0.0126

> <r_epik_Ionization_Penalty_Charging>
  0.0000

> <r_epik_Ionization_Penalty_Neutral>
  0.0126

> <r_epik_State_Penalty>
 -0.0000

> <r_epik_Charging_Adjusted_Penalty>
0

> <i_epik_Tot_Q>
0

> <i_epik_Tot_abs_Q>
0

> <s_epik_Chemistry_Notes>
This compound has an imine and may undergo hydrolysis.

$$$$
