1c1v_ligand
                    3D
 Schrodinger Suite 2020-3.
 39 42  0  0  1  0            999 V2000
   12.1640  -11.7770   22.9800 C   0  0  0  0  0  0
   12.5660  -10.6550   22.2230 C   0  0  0  0  0  0
   13.6090  -10.7610   21.2660 C   0  0  0  0  0  0
   14.1930  -12.0100   21.1190 C   0  0  0  0  0  0
   13.7970  -13.0620   21.8470 C   0  0  0  0  0  0
   12.8100  -13.0040   22.7690 C   0  0  0  0  0  0
   11.1770  -11.7600   23.9320 C   0  0  0  0  0  0
   15.3430  -13.7390   20.5970 C   0  0  3  0  0  0
   16.4040  -14.7280   19.9320 C   0  0  0  0  0  0
   10.4850  -12.8530   24.0440 N   0  0  0  0  0  0
   10.9930  -10.7000   24.6810 N   0  0  0  0  0  0
   15.1600  -12.4460   20.3430 N   0  0  0  0  0  0
   14.4980  -14.1150   21.5260 N   0  0  0  0  0  0
   16.6910  -13.0370   14.2030 C   0  0  3  0  0  0
   17.2910  -11.9340   14.8800 C   0  0  0  0  0  0
   17.4830  -11.9150   16.2530 C   0  0  0  0  0  0
   17.0610  -13.0210   16.9290 C   0  0  0  0  0  0
   16.4840  -14.1050   16.3550 C   0  0  0  0  0  0
   16.2780  -14.1630   14.9870 C   0  0  0  0  0  0
   16.5080  -12.9750   12.8200 C   0  0  0  0  0  0
   16.5740  -14.3440   18.4490 C   0  0  0  0  0  0
   16.1700  -14.0620   12.1630 N   0  0  0  0  0  0
   16.6580  -11.8150   12.2100 N   0  0  0  0  0  0
   17.1100  -13.1940   18.2100 N   0  0  0  0  0  0
   16.1850  -14.9370   17.3350 N   0  0  0  0  0  0
   12.0610   -9.6907   22.3816 H   0  0  0  0  0  0
   13.9153   -9.8778   20.6862 H   0  0  0  0  0  0
   12.5100  -13.8902   23.3475 H   0  0  0  0  0  0
   17.3676  -14.6372   20.4547 H   0  0  0  0  0  0
   16.0401  -15.7631   20.0110 H   0  0  0  0  0  0
    9.6908  -12.9260   24.8016 H   0  0  0  0  0  0
   11.6164   -9.8061   24.5317 H   0  0  0  0  0  0
   10.2152  -10.7044   25.4588 H   0  0  0  0  0  0
   17.6061  -11.0755   14.2687 H   0  0  0  0  0  0
   17.9512  -11.0418   16.7309 H   0  0  0  0  0  0
   15.8117  -15.0525   14.5382 H   0  0  0  0  0  0
   16.0525  -15.0149   12.6998 H   0  0  0  0  0  0
   16.9416  -10.9226   12.7873 H   0  0  0  0  0  0
   16.4995  -11.7401   11.1241 H   0  0  0  0  0  0
  1  7  1  0  0  0
  1  6  2  0  0  0
  1  2  1  0  0  0
  2  3  2  0  0  0
  2 26  1  0  0  0
  3  4  1  0  0  0
  3 27  1  0  0  0
  4 12  2  0  0  0
  4  5  1  0  0  0
  5 13  2  0  0  0
  5  6  1  0  0  0
  6 28  1  0  0  0
  7 11  1  0  0  0
  7 10  2  0  0  0
  8 13  1  0  0  0
  8 12  1  0  0  0
  8  9  1  0  0  0
  9 21  1  0  0  0
  9 29  1  0  0  0
  9 30  1  0  0  0
 10 31  1  0  0  0
 11 32  1  0  0  0
 11 33  1  0  0  0
 14 15  1  0  0  0
 14 20  1  0  0  0
 14 19  1  0  0  0
 15 16  2  0  0  0
 15 34  1  0  0  0
 16 17  1  0  0  0
 16 35  1  0  0  0
 17 24  2  0  0  0
 17 18  1  0  0  0
 18 19  2  0  0  0
 18 25  1  0  0  0
 19 36  1  0  0  0
 20 22  2  0  0  0
 20 23  1  0  0  0
 21 25  2  0  0  0
 21 24  1  0  0  0
 22 37  1  0  0  0
 23 38  1  0  0  0
 23 39  1  0  0  0
M  END
> <s_m_source_file>
../1c1v_ligand.sdf

> <i_m_source_file_index>
1

> <s_epik_input>
W0hdXE49QyhbTkgyXSlcYyhbY0hdW2NIXTEpW2NIXWMoYzE9Mik9TltDSF0oTjIpW0NIMl1DKE4zKT1OQyhDPTM0KT1bQ0hdW0NIXShbQ0hdPVtDSF00KS9DKD1OXFtIXSlbTkgyXQ==

> <s_epik_cmdline>
J2VwaWtfYXBwJywgJy1pbWFlJywgJ2xpZ2FuZF9wcm8ubWFlJywgJy1vbWFlJywgJ2xpZ2FuZF9wcmVwLm1hZScsICctbXMnLCAnMScsICctcGgnLCAnNycsICctcGh0JywgJzAuNScsICctbnQn

> <r_lp_tautomer_probability>
1

> <r_epik_Ionization_Penalty>
  0.0025

> <r_epik_Ionization_Penalty_Charging>
  0.0000

> <r_epik_Ionization_Penalty_Neutral>
  0.0025

> <r_epik_State_Penalty>
 -0.0000

> <r_epik_Charging_Adjusted_Penalty>
0

> <i_epik_Tot_Q>
0

> <i_epik_Tot_abs_Q>
0

> <s_epik_Chemistry_Notes>
This compound has an imine and may undergo hydrolysis.

$$$$
