1c29_ligand
                    3D
 Schrodinger Suite 2020-3.
 28 28  0  0  1  0            999 V2000
   47.9710   29.1420    9.8220 P   0  0  0  0  0  0
   48.2770   28.2420    8.5310 O   0  5  0  0  0  0
   49.1540   30.1860   10.0580 O   0  0  0  0  0  0
   46.5790   29.9440    9.6730 O   0  0  0  0  0  0
   47.8760   28.1660   11.2010 C   0  0  0  0  0  0
   47.8940   28.6370   12.4270 C   0  0  0  0  0  0
   48.8170   28.2050   14.6670 C   0  0  0  0  0  0
   47.8010   27.8110   13.6360 C   0  0  0  0  0  0
   48.7110   26.9190   15.8920 S   0  0  0  0  0  0
   51.7340   27.1470   15.3740 O   0  0  0  0  0  0
   51.4960   23.5420   14.6870 C   0  0  0  0  0  0
   52.0130   24.8370   14.8560 C   0  0  0  0  0  0
   51.1830   25.8930   15.2230 C   0  0  0  0  0  0
   49.8190   25.6440   15.4280 C   0  0  0  0  0  0
   49.2850   24.3650   15.2630 C   0  0  0  0  0  0
   50.1300   23.3050   14.8900 C   0  0  0  0  0  0
   46.4322   30.6397    8.8337 H   0  0  0  0  0  0
   47.7956   27.0825   11.0292 H   0  0  0  0  0  0
   47.9838   29.7198   12.5990 H   0  0  0  0  0  0
   49.8125   28.2521   14.2014 H   0  0  0  0  0  0
   48.5578   29.1915   15.0790 H   0  0  0  0  0  0
   46.8008   27.9224   14.0801 H   0  0  0  0  0  0
   47.9702   26.7563   13.3734 H   0  0  0  0  0  0
   52.8100   27.2992   15.2033 H   0  0  0  0  0  0
   52.1557   22.7236   14.3987 H   0  0  0  0  0  0
   53.0763   25.0174   14.6980 H   0  0  0  0  0  0
   48.2211   24.1893   15.4221 H   0  0  0  0  0  0
   49.7238   22.3020   14.7592 H   0  0  0  0  0  0
  1  2  1  0  0  0
  1  3  2  0  0  0
  1  4  1  0  0  0
  1  5  1  0  0  0
  4 17  1  0  0  0
  5  6  2  0  0  0
  5 18  1  0  0  0
  6  8  1  0  0  0
  6 19  1  0  0  0
  7  8  1  0  0  0
  7  9  1  0  0  0
  7 20  1  0  0  0
  7 21  1  0  0  0
  8 22  1  0  0  0
  8 23  1  0  0  0
  9 14  1  0  0  0
 10 13  1  0  0  0
 10 24  1  0  0  0
 11 12  2  0  0  0
 11 16  1  0  0  0
 11 25  1  0  0  0
 12 13  1  0  0  0
 12 26  1  0  0  0
 13 14  2  0  0  0
 14 15  1  0  0  0
 15 16  2  0  0  0
 15 27  1  0  0  0
 16 28  1  0  0  0
M  CHG  1   2  -1
M  END
> <s_m_source_file>
../1c29_ligand.sdf

> <i_m_source_file_index>
1

> <s_epik_input>
W09IXVAoPU8pKFtPSF0pL1tDSF09W0NIXS9bQ0gyXVtDSDJdU2MxW2NIXVtjSF1bY0hdW2NIXWMxW09IXQ==

> <s_epik_cmdline>
J2VwaWtfYXBwJywgJy1pbWFlJywgJ2xpZ2FuZF9wcm8ubWFlJywgJy1vbWFlJywgJ2xpZ2FuZF9wcmVwLm1hZScsICctbXMnLCAnMScsICctcGgnLCAnNycsICctcGh0JywgJzAuNScsICctbnQn

> <r_lp_tautomer_probability>
0.999999999997365

> <r_epik_Ionization_Penalty>
  0.2589

> <r_epik_Ionization_Penalty_Charging>
  0.0000

> <r_epik_Ionization_Penalty_Neutral>
  0.2589

> <r_epik_State_Penalty>
  0.2474

> <r_epik_Charging_Adjusted_Penalty>
0.247422012394486

> <i_epik_Tot_Q>
-1

> <i_epik_Tot_abs_Q>
1

$$$$
