1c2t_ligand
                    3D
 Schrodinger Suite 2020-3.
 54 56  0  0  1  0            999 V2000
   37.2490   23.5520    6.2040 N   0  0  0  0  0  0
   36.1100   23.0840    6.6250 C   0  0  0  0  0  0
   35.5530   23.5940    7.7620 N   0  0  0  0  0  0
   35.4030   22.0400    5.8980 N   0  0  0  0  0  0
   35.8910   21.4700    4.7420 C   0  0  0  0  0  0
   35.2380   20.5920    4.1870 O   0  0  0  0  0  0
   37.2200   21.9760    4.2090 C   0  0  0  0  0  0
   37.8220   21.4700    3.0360 C   0  0  0  0  0  0
   39.0660   21.9820    2.5960 C   0  0  0  0  0  0
   39.7070   23.0110    3.3400 C   0  0  0  0  0  0
   39.1140   23.5300    4.5250 C   0  0  0  0  0  0
   37.8800   23.0230    4.9790 C   0  0  0  0  0  0
   39.7120   21.4250    1.3180 C   0  0  0  0  0  0
   40.3330   19.9700    1.2600 C   0  0  1  0  0  0
   43.0650   19.2390    4.7430 C   0  0  0  0  0  0
   41.8400   18.4840    4.6380 C   0  0  0  0  0  0
   40.9350   18.6980    3.5370 C   0  0  0  0  0  0
   41.2580   19.6720    2.5170 C   0  0  0  0  0  0
   42.4690   20.4070    2.6450 C   0  0  0  0  0  0
   43.3450   20.1930    3.7260 C   0  0  0  0  0  0
   44.0680   19.0410    5.8940 C   0  0  0  0  0  0
   43.8420   18.2050    6.8020 O   0  0  0  0  0  0
   45.2470   19.7960    5.8540 N   0  0  0  0  0  0
   46.4410   19.8570    6.7800 C   0  0  1  0  0  0
   45.9820   19.7510    8.2740 C   0  0  0  0  0  0
   45.6410   21.0710    9.0550 C   0  0  0  0  0  0
   45.5650   22.3450    8.2090 C   0  0  0  0  0  0
   44.5160   22.8410    7.8240 O   0  0  0  0  0  0
   46.7980   22.8640    7.9220 O   0  5  0  0  0  0
   47.6780   18.9280    6.4670 C   0  0  0  0  0  0
   47.6290   17.6910    6.4840 O   0  0  0  0  0  0
   48.8180   19.6310    6.1630 O   0  5  0  0  0  0
   39.3970   18.7950    0.8920 C   0  0  0  0  0  0
   39.9690   17.7990    0.4320 O   0  5  0  0  0  0
   38.3270   19.0360    0.3330 O   0  0  0  0  0  0
   36.0741   24.3834    8.3234 H   0  0  0  0  0  0
   34.5830   23.2156    8.1168 H   0  0  0  0  0  0
   34.4342   21.6723    6.2671 H   0  0  0  0  0  0
   37.3270   20.6826    2.4676 H   0  0  0  0  0  0
   40.6635   23.4066    2.9985 H   0  0  0  0  0  0
   39.6152   24.3212    5.0825 H   0  0  0  0  0  0
   38.9675   21.4076    0.5084 H   0  0  0  0  0  0
   40.5571   22.0654    1.0252 H   0  0  0  0  0  0
   40.9435   19.9874    0.3452 H   0  0  0  0  0  0
   41.5963   17.7435    5.3999 H   0  0  0  0  0  0
   40.0087   18.1270    3.4728 H   0  0  0  0  0  0
   42.7240   21.1513    1.8906 H   0  0  0  0  0  0
   44.2645   20.7753    3.7853 H   0  0  0  0  0  0
   45.2147   20.4301    4.9557 H   0  0  0  0  0  0
   46.8224   20.8619    6.5462 H   0  0  0  0  0  0
   45.0644   19.1473    8.3337 H   0  0  0  0  0  0
   46.7748   19.2729    8.8681 H   0  0  0  0  0  0
   44.6600   20.9662    9.5415 H   0  0  0  0  0  0
   46.4112   21.2546    9.8186 H   0  0  0  0  0  0
  1  2  2  0  0  0
  1 12  1  0  0  0
  2  3  1  0  0  0
  2  4  1  0  0  0
  3 36  1  0  0  0
  3 37  1  0  0  0
  4  5  1  0  0  0
  4 38  1  0  0  0
  5  6  2  0  0  0
  5  7  1  0  0  0
  7  8  2  0  0  0
  7 12  1  0  0  0
  8  9  1  0  0  0
  8 39  1  0  0  0
  9 10  2  0  0  0
  9 13  1  0  0  0
 10 11  1  0  0  0
 10 40  1  0  0  0
 11 12  2  0  0  0
 11 41  1  0  0  0
 13 14  1  0  0  0
 13 42  1  0  0  0
 13 43  1  0  0  0
 14 18  1  0  0  0
 14 33  1  0  0  0
 14 44  1  0  0  0
 15 16  2  0  0  0
 15 20  1  0  0  0
 15 21  1  0  0  0
 16 17  1  0  0  0
 16 45  1  0  0  0
 17 18  2  0  0  0
 17 46  1  0  0  0
 18 19  1  0  0  0
 19 20  2  0  0  0
 19 47  1  0  0  0
 20 48  1  0  0  0
 21 22  2  0  0  0
 21 23  1  0  0  0
 23 24  1  0  0  0
 23 49  1  0  0  0
 24 25  1  0  0  0
 24 30  1  0  0  0
 24 50  1  0  0  0
 25 26  1  0  0  0
 25 51  1  0  0  0
 25 52  1  0  0  0
 26 27  1  0  0  0
 26 53  1  0  0  0
 26 54  1  0  0  0
 27 28  2  0  0  0
 27 29  1  0  0  0
 30 31  2  0  0  0
 30 32  1  0  0  0
 33 34  1  0  0  0
 33 35  2  0  0  0
M  CHG  3  29  -1  32  -1  34  -1
M  END
> <s_m_source_file>
../1c2t_ligand.sdf

> <i_m_source_file_index>
1

> <s_epik_input>
Tz1jMVtuSF1jKFtOSDJdKW5jKGMxMilbY0hdW2NIXWMoW2NIXTIpW0NIMl1bQ0BIXShDKD1PKVtPSF0pYyhbY0hdW2NIXTMpW2NIXVtjSF1jM0MoPU8pW05IXVtDQEhdKEMoPU8pW09IXSlbQ0gyXVtDSDJdQyg9TylbT0hd

> <s_epik_cmdline>
J2VwaWtfYXBwJywgJy1pbWFlJywgJ2xpZ2FuZF9wcm8ubWFlJywgJy1vbWFlJywgJ2xpZ2FuZF9wcmVwLm1hZScsICctbXMnLCAnMScsICctcGgnLCAnNycsICctcGh0JywgJzAuNScsICctbnQn

> <r_lp_tautomer_probability>
1

> <r_epik_Ionization_Penalty>
  0.0114

> <r_epik_Ionization_Penalty_Charging>
  0.0114

> <r_epik_Ionization_Penalty_Neutral>
  0.0000

> <r_epik_State_Penalty>
 -0.0000

> <r_epik_Charging_Adjusted_Penalty>
0.0113968601998075

> <i_epik_Tot_Q>
-3

> <i_epik_Tot_abs_Q>
3

$$$$
