1c3b_ligand
                    3D
 Schrodinger Suite 2020-3.
 19 20  0  0  1  0            999 V2000
   26.2010    5.1640   16.9450 B   0  0  0  0  0  0
   26.3150    6.2430   17.9770 O   0  0  0  0  0  0
   25.1800    4.1770   17.1080 O   0  0  0  0  0  0
   25.7230    5.9200   15.6570 C   0  0  0  0  0  0
   25.4640    7.2610   15.5840 C   0  0  0  0  0  0
   24.9960    6.5280   13.4110 C   0  0  0  0  0  0
   25.0290    7.5990   14.2420 C   0  0  0  0  0  0
   24.5840    6.6610   12.0200 C   0  0  0  0  0  0
   25.4670    5.0630   14.1670 S   0  0  0  0  0  0
   24.6580    8.8890   13.7370 C   0  0  0  0  0  0
   24.2220    7.9240   11.5320 C   0  0  0  0  0  0
   24.2560    9.0390   12.3860 C   0  0  0  0  0  0
   27.0904    7.0172   17.8799 H   0  0  0  0  0  0
   25.0705    3.3714   16.3670 H   0  0  0  0  0  0
   25.5684    7.9672   16.4077 H   0  0  0  0  0  0
   24.5576    5.7889   11.3667 H   0  0  0  0  0  0
   24.6853    9.7577   14.3948 H   0  0  0  0  0  0
   23.9149    8.0408   10.4927 H   0  0  0  0  0  0
   23.9726   10.0216   12.0089 H   0  0  0  0  0  0
  1  4  1  0  0  0
  1  3  1  0  0  0
  1  2  1  0  0  0
  2 13  1  0  0  0
  3 14  1  0  0  0
  4  9  1  0  0  0
  4  5  2  0  0  0
  5  7  1  0  0  0
  5 15  1  0  0  0
  6  9  1  0  0  0
  6  8  1  0  0  0
  6  7  2  0  0  0
  7 10  1  0  0  0
  8 11  2  0  0  0
  8 16  1  0  0  0
 10 12  2  0  0  0
 10 17  1  0  0  0
 11 12  1  0  0  0
 11 18  1  0  0  0
 12 19  1  0  0  0
M  END
> <s_m_source_file>
../1c3b_ligand.sdf

> <i_m_source_file_index>
1

> <s_epik_input>
W09IXUIoW09IXSljKHMxKVtjSF1jKGMxMilbY0hdW2NIXVtjSF1bY0hdMg==

> <s_epik_cmdline>
J2VwaWtfYXBwJywgJy1pbWFlJywgJ2xpZ2FuZF9wcm8ubWFlJywgJy1vbWFlJywgJ2xpZ2FuZF9wcmVwLm1hZScsICctbXMnLCAnMScsICctcGgnLCAnNycsICctcGh0JywgJzAuNScsICctbnQn

> <r_lp_tautomer_probability>
1

> <r_epik_Ionization_Penalty>
  0.0000

> <r_epik_Ionization_Penalty_Charging>
  0.0000

> <r_epik_Ionization_Penalty_Neutral>
  0.0000

> <r_epik_State_Penalty>
 -0.0000

> <r_epik_Charging_Adjusted_Penalty>
0

> <i_epik_Tot_Q>
0

> <i_epik_Tot_abs_Q>
0

> <s_epik_Chemistry_Notes>
This compound contains a Lewis acid (boronic acid) which adds nucleophiles to form tetrahedral complexes, lowering the experimental pKa

$$$$
