1c3e_ligand
                    3D
 Schrodinger Suite 2020-3.
 54 56  0  0  1  0            999 V2000
   22.3420    1.3780   22.7850 N   0  0  0  0  0  0
   23.3440    1.7360   22.0220 C   0  0  0  0  0  0
   24.5300    1.0800   22.1240 N   0  0  0  0  0  0
   23.2170    2.8230   21.0530 N   0  0  0  0  0  0
   22.0500    3.5340   20.8930 C   0  0  0  0  0  0
   22.0170    4.4390   20.0610 O   0  0  0  0  0  0
   20.8520    3.1520   21.7670 C   0  0  0  0  0  0
   21.0480    2.0520   22.7090 C   0  0  0  0  0  0
   19.9770    1.6480   23.5320 C   0  0  0  0  0  0
   18.7440    2.3200   23.4570 C   0  0  0  0  0  0
   17.2450    4.1620   22.5490 C   0  0  0  0  0  0
   17.3890    5.7150   22.9720 C   0  0  1  0  0  0
   16.2410    6.6090   22.5320 C   0  0  0  0  0  0
   16.2870    6.9380   21.3410 O   0  5  0  0  0  0
   18.5610    3.4000   22.5570 C   0  0  0  0  0  0
   19.6130    3.8110   21.7110 C   0  0  0  0  0  0
   18.3750    5.0170   26.7230 C   0  0  0  0  0  0
   18.9380    6.2320   27.1740 C   0  0  0  0  0  0
   19.5100    6.3100   28.6050 C   0  0  0  0  0  0
   20.1750    7.2940   28.9810 O   0  0  0  0  0  0
   18.9910    7.3270   26.2420 C   0  0  0  0  0  0
   18.4800    7.1920   24.9160 C   0  0  0  0  0  0
   17.9220    5.9320   24.4800 C   0  0  0  0  0  0
   17.8670    4.8710   25.4280 C   0  0  0  0  0  0
   19.2860    5.2610   29.4670 N   0  0  0  0  0  0
   19.7220    5.0840   30.8870 C   0  0  2  0  0  0
   18.9890    5.8600   32.0650 C   0  0  0  0  0  0
   18.4910    5.2830   33.0680 O   0  0  0  0  0  0
   21.2750    5.2520   31.0000 C   0  0  0  0  0  0
   22.1950    4.0120   31.3310 C   0  0  0  0  0  0
   21.4570    2.6750   31.3500 C   0  0  0  0  0  0
   20.9130    2.1760   30.3660 O   0  0  0  0  0  0
   21.5060    2.0640   32.5790 O   0  5  0  0  0  0
   18.9310    7.2150   31.9110 O   0  5  0  0  0  0
   15.8190    7.4850   23.2710 O   0  0  0  0  0  0
   24.6442    0.2594   22.8476 H   0  0  0  0  0  0
   25.3757    1.3697   21.4830 H   0  0  0  0  0  0
   24.0732    3.0980   20.4196 H   0  0  0  0  0  0
   20.1044    0.8164   24.2251 H   0  0  0  0  0  0
   17.9198    2.0070   24.0980 H   0  0  0  0  0  0
   16.5680    3.6523   23.2503 H   0  0  0  0  0  0
   16.8353    4.0959   21.5303 H   0  0  0  0  0  0
   18.1552    6.1612   22.3209 H   0  0  0  0  0  0
   19.4644    4.6375   21.0161 H   0  0  0  0  0  0
   18.3354    4.1677   27.4050 H   0  0  0  0  0  0
   19.4286    8.2754   26.5537 H   0  0  0  0  0  0
   18.5106    8.0399   24.2317 H   0  0  0  0  0  0
   17.4178    3.9214   25.1373 H   0  0  0  0  0  0
   18.6948    4.4769   28.9714 H   0  0  0  0  0  0
   19.3676    4.0495   31.0060 H   0  0  0  0  0  0
   21.6740    5.6241   30.0448 H   0  0  0  0  0  0
   21.5089    5.9701   31.7998 H   0  0  0  0  0  0
   22.9893    3.9324   30.5742 H   0  0  0  0  0  0
   22.6474    4.1460   32.3247 H   0  0  0  0  0  0
  1  2  2  0  0  0
  1  8  1  0  0  0
  2  3  1  0  0  0
  2  4  1  0  0  0
  3 36  1  0  0  0
  3 37  1  0  0  0
  4  5  1  0  0  0
  4 38  1  0  0  0
  5  6  2  0  0  0
  5  7  1  0  0  0
  7  8  2  0  0  0
  7 16  1  0  0  0
  8  9  1  0  0  0
  9 10  2  0  0  0
  9 39  1  0  0  0
 10 15  1  0  0  0
 10 40  1  0  0  0
 11 12  1  0  0  0
 11 15  1  0  0  0
 11 41  1  0  0  0
 11 42  1  0  0  0
 12 13  1  0  0  0
 12 23  1  0  0  0
 12 43  1  0  0  0
 13 14  1  0  0  0
 13 35  2  0  0  0
 15 16  2  0  0  0
 16 44  1  0  0  0
 17 18  2  0  0  0
 17 24  1  0  0  0
 17 45  1  0  0  0
 18 19  1  0  0  0
 18 21  1  0  0  0
 19 20  2  0  0  0
 19 25  1  0  0  0
 21 22  2  0  0  0
 21 46  1  0  0  0
 22 23  1  0  0  0
 22 47  1  0  0  0
 23 24  2  0  0  0
 24 48  1  0  0  0
 25 26  1  0  0  0
 25 49  1  0  0  0
 26 27  1  0  0  0
 26 29  1  0  0  0
 26 50  1  0  0  0
 27 28  2  0  0  0
 27 34  1  0  0  0
 29 30  1  0  0  0
 29 51  1  0  0  0
 29 52  1  0  0  0
 30 31  1  0  0  0
 30 53  1  0  0  0
 30 54  1  0  0  0
 31 32  2  0  0  0
 31 33  1  0  0  0
M  CHG  3  14  -1  33  -1  34  -1
M  END
> <s_m_source_file>
../1c3e_ligand.sdf

> <i_m_source_file_index>
1

> <s_epik_input>
Tz1jMVtuSF1jKFtOSDJdKW5jKGMxMilbY0hdW2NIXWMoW2NIXTIpW0NIMl1bQ0BASF0oQyg9TylbT0hdKWMoW2NIXVtjSF0zKVtjSF1bY0hdYzNDKD1PKVtOSF1bQ0BIXShDKD1PKVtPSF0pW0NIMl1bQ0gyXUMoPU8pW09IXQ==

> <s_epik_cmdline>
J2VwaWtfYXBwJywgJy1pbWFlJywgJ2xpZ2FuZF9wcm8ubWFlJywgJy1vbWFlJywgJ2xpZ2FuZF9wcmVwLm1hZScsICctbXMnLCAnMScsICctcGgnLCAnNycsICctcGh0JywgJzAuNScsICctbnQn

> <r_lp_tautomer_probability>
1

> <r_epik_Ionization_Penalty>
  0.0114

> <r_epik_Ionization_Penalty_Charging>
  0.0114

> <r_epik_Ionization_Penalty_Neutral>
  0.0000

> <r_epik_State_Penalty>
 -0.0000

> <r_epik_Charging_Adjusted_Penalty>
0.0113968601998075

> <i_epik_Tot_Q>
-3

> <i_epik_Tot_abs_Q>
3

$$$$
