1c3i_ligand
                    3D
 Schrodinger Suite 2020-3.
 63 64  0  0  1  0            999 V2000
   39.7760  -48.5280   -1.6220 N   0  0  2  0  0  0
   39.8700  -48.2370   -0.1400 C   0  0  2  0  0  0
   41.3050  -48.4470    0.3440 C   0  0  0  0  0  0
   41.7440  -47.8030    1.2830 O   0  0  0  0  0  0
   40.9660  -47.7210   -7.9970 C   0  0  0  0  0  0
   41.5310  -46.6570   -8.7140 C   0  0  0  0  0  0
   40.7060  -48.9180   -8.6730 C   0  0  0  0  0  0
   41.7790  -46.7770  -10.0810 C   0  0  0  0  0  0
   40.9860  -49.0490  -10.0380 C   0  0  0  0  0  0
   41.5060  -47.9760  -10.7530 C   0  0  0  0  0  0
   40.1710  -47.3840   -3.8460 C   0  0  0  0  0  0
   39.9240  -46.3090   -4.7170 C   0  0  0  0  0  0
   40.6740  -48.5660   -4.3860 C   0  0  0  0  0  0
   40.1890  -46.4320   -6.0730 C   0  0  0  0  0  0
   40.9430  -48.6970   -5.7580 C   0  0  0  0  0  0
   40.7010  -47.6190   -6.6220 C   0  0  0  0  0  0
   39.8950  -47.2310   -2.3470 C   0  0  0  0  0  0
   38.9250  -49.2080    0.6270 C   0  0  0  0  0  0
   37.1920  -48.8670    0.1010 S   0  0  0  0  0  0
   42.0510  -49.3850   -0.2660 N   0  0  0  0  0  0
   43.4210  -49.6680    0.1840 C   0  0  0  0  0  0
   44.3980  -49.1460   -0.8400 C   0  0  0  0  0  0
   44.1330  -49.2510   -2.0230 O   0  0  0  0  0  0
   45.5470  -48.5840   -0.4180 N   0  0  0  0  0  0
   46.5110  -48.0380   -1.3650 C   0  0  1  0  0  0
   47.5260  -47.1350   -0.5850 C   0  0  0  0  0  0
   48.5880  -47.9980    0.1600 C   0  0  0  0  0  0
   48.1860  -46.1350   -1.5810 C   0  0  0  0  0  0
   47.1450  -49.1320   -2.1890 C   0  0  0  0  0  0
   47.2000  -50.2520   -1.7200 O   0  0  0  0  0  0
   47.6460  -48.8800   -3.4130 O   0  0  0  0  0  0
   48.7310  -49.6910   -3.9050 C   0  0  0  0  0  0
   38.8081  -48.9935   -1.8598 H   0  0  0  0  0  0
   39.5875  -47.1868    0.0248 H   0  0  0  0  0  0
   41.7784  -45.7287   -8.1990 H   0  0  0  0  0  0
   40.2793  -49.7606   -8.1288 H   0  0  0  0  0  0
   42.1889  -45.9305  -10.6318 H   0  0  0  0  0  0
   40.7956  -49.9962  -10.5426 H   0  0  0  0  0  0
   41.6988  -48.0662  -11.8220 H   0  0  0  0  0  0
   39.5224  -45.3745   -4.3252 H   0  0  0  0  0  0
   40.8638  -49.4120   -3.7254 H   0  0  0  0  0  0
   39.9946  -45.5845   -6.7303 H   0  0  0  0  0  0
   41.3387  -49.6338   -6.1504 H   0  0  0  0  0  0
   38.9570  -46.6658   -2.2437 H   0  0  0  0  0  0
   40.7238  -46.6471   -1.9203 H   0  0  0  0  0  0
   39.1940  -50.2473    0.3871 H   0  0  0  0  0  0
   39.0296  -49.0428    1.7095 H   0  0  0  0  0  0
   36.3627  -49.4496    0.5286 H   0  0  0  0  0  0
   41.6235  -49.9434   -1.1118 H   0  0  0  0  0  0
   43.5993  -49.1729    1.1499 H   0  0  0  0  0  0
   43.5522  -50.7541    0.2990 H   0  0  0  0  0  0
   45.7521  -48.5412    0.6619 H   0  0  0  0  0  0
   45.9537  -47.4384   -2.0997 H   0  0  0  0  0  0
   46.9956  -46.5603    0.1885 H   0  0  0  0  0  0
   48.0809  -48.6878    0.8507 H   0  0  0  0  0  0
   49.2621  -47.3400    0.7281 H   0  0  0  0  0  0
   49.1708  -48.5754   -0.5728 H   0  0  0  0  0  0
   47.4033  -45.5478   -2.0837 H   0  0  0  0  0  0
   48.7646  -46.6933   -2.3317 H   0  0  0  0  0  0
   48.8560  -45.4579   -1.0308 H   0  0  0  0  0  0
   49.0151  -49.3515   -4.9120 H   0  0  0  0  0  0
   48.4119  -50.7428   -3.9491 H   0  0  0  0  0  0
   49.5941  -49.5977   -3.2294 H   0  0  0  0  0  0
  1 17  1  0  0  0
  1  2  1  0  0  0
  1 33  1  0  0  0
  2 18  1  0  0  0
  2  3  1  0  0  0
  2 34  1  0  0  0
  3 20  1  0  0  0
  3  4  2  0  0  0
  5 16  1  0  0  0
  5  7  2  0  0  0
  5  6  1  0  0  0
  6  8  2  0  0  0
  6 35  1  0  0  0
  7  9  1  0  0  0
  7 36  1  0  0  0
  8 10  1  0  0  0
  8 37  1  0  0  0
  9 10  2  0  0  0
  9 38  1  0  0  0
 10 39  1  0  0  0
 11 17  1  0  0  0
 11 13  2  0  0  0
 11 12  1  0  0  0
 12 14  2  0  0  0
 12 40  1  0  0  0
 13 15  1  0  0  0
 13 41  1  0  0  0
 14 16  1  0  0  0
 14 42  1  0  0  0
 15 16  2  0  0  0
 15 43  1  0  0  0
 17 44  1  0  0  0
 17 45  1  0  0  0
 18 19  1  0  0  0
 18 46  1  0  0  0
 18 47  1  0  0  0
 19 48  1  0  0  0
 20 21  1  0  0  0
 20 49  1  0  0  0
 21 22  1  0  0  0
 21 50  1  0  0  0
 21 51  1  0  0  0
 22 24  1  0  0  0
 22 23  2  0  0  0
 24 25  1  0  0  0
 24 52  1  0  0  0
 25 29  1  0  0  0
 25 26  1  0  0  0
 25 53  1  0  0  0
 26 28  1  0  0  0
 26 27  1  0  0  0
 26 54  1  0  0  0
 27 55  1  0  0  0
 27 56  1  0  0  0
 27 57  1  0  0  0
 28 58  1  0  0  0
 28 59  1  0  0  0
 28 60  1  0  0  0
 29 31  1  0  0  0
 29 30  2  0  0  0
 31 32  1  0  0  0
 32 61  1  0  0  0
 32 62  1  0  0  0
 32 63  1  0  0  0
M  END
> <s_m_source_file>
../1c3i_ligand.sdf

> <i_m_source_file_index>
1

> <s_epik_input>
W0NIM11PQyg9TylbQ0BIXShbQ0hdKFtDSDNdKVtDSDNdKVtOSF1DKD1PKVtDSDJdW05IXUMoPU8pW0NASF0oW0NIMl1bU0hdKVtOSDIrXVtDSDJdYzFbY0hdW2NIXWMoW2NIXVtjSF0xKS1jMltjSF1bY0hdW2NIXVtjSF1bY0hdMg==

> <s_epik_cmdline>
J2VwaWtfYXBwJywgJy1pbWFlJywgJ2xpZ2FuZF9wcm8ubWFlJywgJy1vbWFlJywgJ2xpZ2FuZF9wcmVwLm1hZScsICctbXMnLCAnMScsICctcGgnLCAnNycsICctcGh0JywgJzAuNScsICctbnQn

> <r_lp_tautomer_probability>
1

> <r_epik_Ionization_Penalty>
  0.0557

> <r_epik_Ionization_Penalty_Charging>
  0.0000

> <r_epik_Ionization_Penalty_Neutral>
  0.0557

> <r_epik_State_Penalty>
 -0.0000

> <r_epik_Charging_Adjusted_Penalty>
0

> <i_epik_Tot_Q>
0

> <i_epik_Tot_abs_Q>
0

> <s_epik_Chemistry_Notes>
This compound has an ester and may undergo hydrolysis at high or low pH.

$$$$
