1c3r_ligand
                    3D
 Schrodinger Suite 2020-3.
 44 44  0  0  1  0            999 V2000
   47.6690    8.1890  109.4640 O   0  0  0  0  0  0
   49.9520    6.9810  108.3400 O   0  0  0  0  0  0
   52.4580    5.1010  101.6670 O   0  0  0  0  0  0
   47.8000    7.7890  108.1310 N   0  0  0  0  0  0
   53.0130   -1.3290  101.2590 N   0  0  0  0  0  0
   51.8590    2.7990  101.6100 C   0  0  0  0  0  0
   50.9070    1.7690  101.6660 C   0  0  0  0  0  0
   51.2410    0.4190  101.5510 C   0  0  0  0  0  0
   52.6260    0.0260  101.3660 C   0  0  0  0  0  0
   53.5890    1.0800  101.3030 C   0  0  0  0  0  0
   53.2180    2.4080  101.4180 C   0  0  0  0  0  0
   51.5720    4.2610  101.7340 C   0  0  0  0  0  0
   50.1080    4.7260  101.9960 C   0  0  1  0  0  0
   50.0520    5.4210  103.3380 C   0  0  0  0  0  0
   49.0600    5.3570  104.2790 C   0  0  0  0  0  0
   49.3150    6.1550  105.5040 C   0  0  0  0  0  0
   48.5150    6.1840  106.5950 C   0  0  0  0  0  0
   48.8550    6.9940  107.7560 C   0  0  0  0  0  0
   49.6800    5.6930  100.8640 C   0  0  0  0  0  0
   47.7760    4.5450  104.1320 C   0  0  0  0  0  0
   54.4380   -1.7030  101.1390 C   0  0  0  0  0  0
   52.0440   -2.4160  101.3160 C   0  0  0  0  0  0
   47.0588    8.1111  107.3847 H   0  0  0  0  0  0
   49.8594    2.0358  101.8056 H   0  0  0  0  0  0
   50.4612   -0.3410  101.6001 H   0  0  0  0  0  0
   54.6408    0.8318  101.1610 H   0  0  0  0  0  0
   53.9867    3.1786  101.3602 H   0  0  0  0  0  0
   49.4116    3.8753  102.0330 H   0  0  0  0  0  0
   50.9448    6.0369  103.5211 H   0  0  0  0  0  0
   50.2366    6.7552  105.4816 H   0  0  0  0  0  0
   47.5900    5.5890  106.6147 H   0  0  0  0  0  0
   49.7272    5.1699   99.8975 H   0  0  0  0  0  0
   50.3580    6.5590  100.8457 H   0  0  0  0  0  0
   48.6509    6.0367  101.0450 H   0  0  0  0  0  0
   47.7778    4.0288  103.1606 H   0  0  0  0  0  0
   46.9080    5.2183  104.1878 H   0  0  0  0  0  0
   47.7169    3.8027  104.9416 H   0  0  0  0  0  0
   55.0545   -0.7926  101.1067 H   0  0  0  0  0  0
   54.5888   -2.2809  100.2153 H   0  0  0  0  0  0
   54.7310   -2.3138  102.0057 H   0  0  0  0  0  0
   51.0299   -1.9990  101.4042 H   0  0  0  0  0  0
   52.2564   -3.0512  102.1886 H   0  0  0  0  0  0
   52.1143   -3.0183  100.3982 H   0  0  0  0  0  0
   46.8247    8.8258  109.7667 H   0  0  0  0  0  0
  1  4  1  0  0  0
  1 44  1  0  0  0
  2 18  2  0  0  0
  3 12  2  0  0  0
  4 18  1  0  0  0
  4 23  1  0  0  0
  5  9  1  0  0  0
  5 22  1  0  0  0
  5 21  1  0  0  0
  6 12  1  0  0  0
  6 11  2  0  0  0
  6  7  1  0  0  0
  7  8  2  0  0  0
  7 24  1  0  0  0
  8  9  1  0  0  0
  8 25  1  0  0  0
  9 10  2  0  0  0
 10 11  1  0  0  0
 10 26  1  0  0  0
 11 27  1  0  0  0
 12 13  1  0  0  0
 13 14  1  0  0  0
 13 19  1  0  0  0
 13 28  1  0  0  0
 14 15  2  0  0  0
 14 29  1  0  0  0
 15 16  1  0  0  0
 15 20  1  0  0  0
 16 17  2  0  0  0
 16 30  1  0  0  0
 17 18  1  0  0  0
 17 31  1  0  0  0
 19 32  1  0  0  0
 19 33  1  0  0  0
 19 34  1  0  0  0
 20 35  1  0  0  0
 20 36  1  0  0  0
 20 37  1  0  0  0
 21 38  1  0  0  0
 21 39  1  0  0  0
 21 40  1  0  0  0
 22 41  1  0  0  0
 22 42  1  0  0  0
 22 43  1  0  0  0
M  END
> <s_m_source_file>
../1c3r_ligand.sdf

> <i_m_source_file_index>
1

> <s_epik_input>
W09IXVtOSF1DKD1PKVxbQ0hdPVtDSF1cQyhbQ0gzXSk9W0NIXVxbQ0BASF0oW0NIM10pQyg9TyljMVtjSF1bY0hdYyhOKFtDSDNdKVtDSDNdKVtjSF1bY0hdMQ==

> <s_epik_cmdline>
J2VwaWtfYXBwJywgJy1pbWFlJywgJ2xpZ2FuZF9wcm8ubWFlJywgJy1vbWFlJywgJ2xpZ2FuZF9wcmVwLm1hZScsICctbXMnLCAnMScsICctcGgnLCAnNycsICctcGh0JywgJzAuNScsICctbnQn

> <r_epik_Ionization_Penalty>
  0.0196

> <r_epik_Ionization_Penalty_Charging>
  0.0000

> <r_epik_Ionization_Penalty_Neutral>
  0.0196

> <r_epik_State_Penalty>
  0.0319

> <r_epik_Charging_Adjusted_Penalty>
0.0318907532779766

> <i_epik_Tot_Q>
0

> <i_epik_Tot_abs_Q>
0

> <s_epik_Chemistry_Notes>
This compound has a N-S or N-O group and may undergo hydrolysis at high or low pH.

$$$$
