1c4u_ligand
                    3D
 Schrodinger Suite 2020-3.
 66 69  0  0  1  0            999 V2000
   21.9140  -15.0870   25.5810 C   0  0  0  0  0  0
   21.0480  -14.3190   26.2120 C   0  0  0  0  0  0
   19.8910  -14.9510   26.5140 C   0  0  0  0  0  0
   19.6460  -16.2650   26.1410 C   0  0  0  0  0  0
   20.5030  -16.9760   25.4410 C   0  0  0  0  0  0
   21.6750  -16.3910   25.1330 C   0  0  0  0  0  0
   18.1600  -17.1020   26.4320 S   0  0  0  0  0  0
   17.2280  -16.0250   26.7360 O   0  0  0  0  0  0
   18.4440  -17.9820   27.5840 O   0  0  0  0  0  0
   17.6480  -17.9860   25.0220 C   0  0  0  0  0  0
   17.0590  -17.1230   23.8100 C   0  0  0  0  0  0
   18.4770  -13.0140   21.7470 C   0  0  2  0  0  0
   19.7290  -12.8770   21.1120 C   0  0  0  0  0  0
   20.6890  -13.7440   20.8150 C   0  0  0  0  0  0
   20.4550  -15.1580   21.2980 C   0  0  0  0  0  0
   19.0290  -16.4530   22.6890 C   0  0  0  0  0  0
   17.5700  -14.8640   23.0450 C   0  0  0  0  0  0
   19.2900  -15.2970   21.9610 N   0  0  0  0  0  0
   18.5340  -14.2870   22.4350 N   0  0  0  0  0  0
   16.5860  -14.3920   23.3750 O   0  0  0  0  0  0
   19.7750  -17.4080   22.5830 O   0  0  0  0  0  0
   17.8950  -16.2050   23.2180 N   0  0  0  0  0  0
   17.1880  -12.6810   20.7050 C   0  0  0  0  0  0
   17.3750  -12.1980   19.5280 O   0  0  0  0  0  0
   14.8760  -12.1880   20.4480 C   0  0  0  0  0  0
   13.6350  -12.0180   21.1120 C   0  0  2  0  0  0
   13.1260  -10.6710   21.5830 C   0  0  0  0  0  0
   11.9440  -10.7790   22.3690 C   0  0  0  0  0  0
   12.2410  -11.6020   23.7210 C   0  0  2  0  0  0
   12.5930  -12.9820   23.0890 C   0  0  0  0  0  0
   15.8230  -12.4690   20.9900 N   0  0  0  0  0  0
   13.5510  -13.1730   22.1480 C   0  0  0  0  0  0
   10.9750  -11.8100   24.2710 C   0  0  0  0  0  0
   10.3730  -12.9340   24.2100 N   0  3  0  0  0  0
   10.4990  -10.8270   24.9970 N   0  0  0  0  0  0
   23.4420  -14.3210   25.1250 Br  0  0  0  0  0  0
   21.2450  -13.2773   26.4654 H   0  0  0  0  0  0
   19.1249  -14.4098   27.0693 H   0  0  0  0  0  0
   20.2741  -17.9936   25.1245 H   0  0  0  0  0  0
   22.4238  -16.9226   24.5458 H   0  0  0  0  0  0
   18.5022  -18.5411   24.6070 H   0  0  0  0  0  0
   16.8524  -18.6925   25.3010 H   0  0  0  0  0  0
   16.7460  -17.7964   22.9985 H   0  0  0  0  0  0
   16.1923  -16.5431   24.1600 H   0  0  0  0  0  0
   18.4597  -12.3207   22.6009 H   0  0  0  0  0  0
   19.8456  -11.8155   20.8480 H   0  0  0  0  0  0
   21.5756  -13.4123   20.2547 H   0  0  0  0  0  0
   20.4348  -15.8412   20.4361 H   0  0  0  0  0  0
   21.2668  -15.4517   21.9797 H   0  0  0  0  0  0
   15.0137  -11.2178   19.9483 H   0  0  0  0  0  0
   14.6412  -12.9570   19.6974 H   0  0  0  0  0  0
   12.9648  -12.0408   20.2401 H   0  0  0  0  0  0
   13.8969  -10.1818   22.1965 H   0  0  0  0  0  0
   12.8964  -10.0405   20.7113 H   0  0  0  0  0  0
   11.5865   -9.7729   22.6337 H   0  0  0  0  0  0
   11.1676  -11.3044   21.7934 H   0  0  0  0  0  0
   12.8982  -11.1868   24.4993 H   0  0  0  0  0  0
   12.9191  -13.6746   23.8789 H   0  0  0  0  0  0
   11.7050  -13.3920   22.5856 H   0  0  0  0  0  0
   15.8007  -12.6607   22.0729 H   0  0  0  0  0  0
   13.3217  -14.1153   21.6288 H   0  0  0  0  0  0
   14.5142  -13.2674   22.6708 H   0  0  0  0  0  0
   10.7872  -13.7471   23.5958 H   0  0  0  0  0  0
   11.0315   -9.8653   25.0375 H   0  0  0  0  0  0
    9.5673  -10.9642   25.5654 H   0  0  0  0  0  0
    9.4401  -13.0895   24.7717 H   0  0  0  0  0  0
  1 36  1  0  0  0
  1  6  2  0  0  0
  1  2  1  0  0  0
  2  3  2  0  0  0
  2 37  1  0  0  0
  3  4  1  0  0  0
  3 38  1  0  0  0
  4  7  1  0  0  0
  4  5  2  0  0  0
  5  6  1  0  0  0
  5 39  1  0  0  0
  6 40  1  0  0  0
  7 10  1  0  0  0
  7  9  2  0  0  0
  7  8  2  0  0  0
 10 11  1  0  0  0
 10 41  1  0  0  0
 10 42  1  0  0  0
 11 22  1  0  0  0
 11 43  1  0  0  0
 11 44  1  0  0  0
 12 19  1  0  0  0
 12 23  1  0  0  0
 12 13  1  0  0  0
 12 45  1  0  0  0
 13 14  2  0  0  0
 13 46  1  0  0  0
 14 15  1  0  0  0
 14 47  1  0  0  0
 15 18  1  0  0  0
 15 48  1  0  0  0
 15 49  1  0  0  0
 16 22  1  0  0  0
 16 18  1  0  0  0
 16 21  2  0  0  0
 17 22  1  0  0  0
 17 19  1  0  0  0
 17 20  2  0  0  0
 18 19  1  0  0  0
 23 31  1  0  0  0
 23 24  2  0  0  0
 25 31  1  0  0  0
 25 26  1  0  0  0
 25 50  1  0  0  0
 25 51  1  0  0  0
 26 32  1  0  0  0
 26 27  1  0  0  0
 26 52  1  0  0  0
 27 28  1  0  0  0
 27 53  1  0  0  0
 27 54  1  0  0  0
 28 29  1  0  0  0
 28 55  1  0  0  0
 28 56  1  0  0  0
 29 33  1  0  0  0
 29 30  1  0  0  0
 29 57  1  0  0  0
 30 32  1  0  0  0
 30 58  1  0  0  0
 30 59  1  0  0  0
 31 60  1  0  0  0
 32 61  1  0  0  0
 32 62  1  0  0  0
 33 35  1  0  0  0
 33 34  2  0  0  0
 34 63  1  0  0  0
 34 66  1  0  0  0
 35 64  1  0  0  0
 35 65  1  0  0  0
M  CHG  1  34   1
M  END
> <s_m_source_file>
../1c4u_ligand.sdf

> <i_m_source_file_index>
1

> <s_epik_input>
QnJjMVtjSF1bY0hdYyhbY0hdW2NIXTEpUyg9TykoPU8pW0NIMl1bQ0gyXW4oYzI9TyljKD1PKW4objIzKVtDQEBIXShbQ0hdPVtDSF1bQ0gyXTMpQyg9TylbTkhdW0NIMl1bQ0BASF00W0NIMl1bQ0gyXVtDQEhdKFtDSDJdW0NIMl00KS9DKD1OXFtIXSlbTkgyXQ==

> <s_epik_cmdline>
J2VwaWtfYXBwJywgJy1pbWFlJywgJ2xpZ2FuZF9wcm8ubWFlJywgJy1vbWFlJywgJ2xpZ2FuZF9wcmVwLm1hZScsICctbXMnLCAnMScsICctcGgnLCAnNycsICctcGh0JywgJzAuNScsICctbnQn

> <r_lp_tautomer_probability>
1

> <r_epik_Ionization_Penalty>
  0.0000

> <r_epik_Ionization_Penalty_Charging>
  0.0000

> <r_epik_Ionization_Penalty_Neutral>
  0.0000

> <r_epik_State_Penalty>
 -0.0000

> <r_epik_Charging_Adjusted_Penalty>
7.61514267372718e-06

> <i_epik_Tot_Q>
1

> <i_epik_Tot_abs_Q>
1

> <s_epik_Chemistry_Notes>
This compound has an imine and may undergo hydrolysis.

$$$$
