1c4v_ligand
                    3D
 Schrodinger Suite 2020-3.
 76 80  0  0  1  0            999 V2000
   15.6250  -11.6940   20.2060 N   0  0  0  0  0  0
   14.1860  -11.5310   19.5180 C   0  0  0  0  0  0
   10.2180  -12.9830   24.1760 N   0  3  0  0  0  0
   10.6020  -10.7300   24.4190 N   0  0  0  0  0  0
   10.8990  -11.9170   23.8410 C   0  0  0  0  0  0
   13.1850  -11.6740   20.4640 C   0  0  1  0  0  0
   13.7120  -12.7260   21.4900 C   0  0  0  0  0  0
   12.5460  -13.0470   22.2850 C   0  0  0  0  0  0
   11.8540  -11.8170   22.8470 C   0  0  1  0  0  0
   12.1720  -10.5150   22.2700 C   0  0  0  0  0  0
   12.9000  -10.2960   21.0900 C   0  0  0  0  0  0
   19.7730  -14.6910   20.1140 C   0  0  0  0  0  0
   19.0050  -14.8790   21.2240 N   0  0  0  0  0  0
   18.7480  -16.0820   21.7820 C   0  0  0  0  0  0
   19.1860  -17.2120   21.6330 O   0  0  0  0  0  0
   17.8360  -15.8460   22.6800 N   0  0  0  0  0  0
   17.4990  -14.5170   22.6330 C   0  0  0  0  0  0
   16.7080  -14.0560   23.3090 O   0  0  0  0  0  0
   18.2500  -13.9370   21.7670 N   0  0  0  0  0  0
   17.8250  -12.8060   20.9100 C   0  0  1  0  0  0
   18.8360  -12.4240   20.0590 C   0  0  0  0  0  0
   19.5620  -13.2920   19.4610 C   0  0  0  0  0  0
   16.3400  -12.8150   20.3230 C   0  0  0  0  0  0
   20.5540  -12.7780   18.6040 C   0  0  0  0  0  0
   15.7340  -14.0720   20.0910 O   0  0  0  0  0  0
   17.3950  -16.8760   23.5280 C   0  0  0  0  0  0
   18.0830  -16.5670   24.9160 C   0  0  0  0  0  0
   22.1980  -14.6010   25.6620 C   0  0  0  0  0  0
   21.1550  -13.9530   26.0430 C   0  0  0  0  0  0
   19.8110  -14.5350   25.7810 C   0  0  0  0  0  0
   19.4720  -15.8040   25.1090 C   0  0  0  0  0  0
   20.5370  -16.4480   24.7200 C   0  0  0  0  0  0
   21.8850  -15.8620   24.9490 C   0  0  0  0  0  0
   17.7030  -19.2430   28.1470 C   0  0  0  0  0  0
   18.5600  -19.6230   26.9910 C   0  0  0  0  0  0
   18.5770  -18.7990   25.9180 C   0  0  0  0  0  0
   17.7950  -17.5990   25.9330 C   0  0  0  0  0  0
   16.9110  -17.2940   27.0850 C   0  0  0  0  0  0
   16.8870  -18.1090   28.2000 C   0  0  0  0  0  0
   16.1261  -10.8196   20.6469 H   0  0  0  0  0  0
   14.1092  -10.5336   19.0604 H   0  0  0  0  0  0
   14.0611  -12.3009   18.7423 H   0  0  0  0  0  0
    9.4813  -12.9313   24.9912 H   0  0  0  0  0  0
    9.8546  -10.6823   25.2247 H   0  0  0  0  0  0
   11.1080   -9.8128   24.0831 H   0  0  0  0  0  0
   12.2762  -12.0169   19.9478 H   0  0  0  0  0  0
   14.1014  -13.6017   20.9500 H   0  0  0  0  0  0
   14.5165  -12.2793   22.0927 H   0  0  0  0  0  0
   11.8159  -13.5866   21.6638 H   0  0  0  0  0  0
   12.8439  -13.6799   23.1339 H   0  0  0  0  0  0
   11.4701  -11.6216   23.8591 H   0  0  0  0  0  0
   11.2398   -9.9784   22.0399 H   0  0  0  0  0  0
   12.7639   -9.9299   22.9892 H   0  0  0  0  0  0
   13.8513   -9.7903   21.3120 H   0  0  0  0  0  0
   12.3166   -9.6863   20.3844 H   0  0  0  0  0  0
   20.8357  -14.7778   20.3844 H   0  0  0  0  0  0
   19.5227  -15.4533   19.3615 H   0  0  0  0  0  0
   17.8814  -11.9341   21.5783 H   0  0  0  0  0  0
   19.0154  -11.3510   19.8965 H   0  0  0  0  0  0
   21.1117  -13.6095   18.1485 H   0  0  0  0  0  0
   21.2449  -12.1454   19.1807 H   0  0  0  0  0  0
   20.0803  -12.1775   17.8134 H   0  0  0  0  0  0
   16.2976  -16.8481   23.5987 H   0  0  0  0  0  0
   17.7116  -17.8474   23.1204 H   0  0  0  0  0  0
   17.4627  -15.6988   25.1834 H   0  0  0  0  0  0
   23.2154  -14.2559   25.8458 H   0  0  0  0  0  0
   21.2537  -12.9930   26.5497 H   0  0  0  0  0  0
   18.9642  -13.9454   26.1322 H   0  0  0  0  0  0
   20.4396  -17.4154   24.2272 H   0  0  0  0  0  0
   22.7326  -16.4193   24.5500 H   0  0  0  0  0  0
   17.7123  -19.8983   29.0180 H   0  0  0  0  0  0
   19.1550  -20.5361   27.0083 H   0  0  0  0  0  0
   19.1828  -19.0471   25.0465 H   0  0  0  0  0  0
   16.2703  -16.4128   27.0509 H   0  0  0  0  0  0
   16.2692  -17.8817   29.0687 H   0  0  0  0  0  0
   10.3823  -13.9308   23.6424 H   0  0  0  0  0  0
  1 23  1  0  0  0
  1  2  1  0  0  0
  1 40  1  0  0  0
  2  6  1  0  0  0
  2 41  1  0  0  0
  2 42  1  0  0  0
  3  5  2  0  0  0
  3 43  1  0  0  0
  3 76  1  0  0  0
  4  5  1  0  0  0
  4 44  1  0  0  0
  4 45  1  0  0  0
  5  9  1  0  0  0
  6 11  1  0  0  0
  6  7  1  0  0  0
  6 46  1  0  0  0
  7  8  1  0  0  0
  7 47  1  0  0  0
  7 48  1  0  0  0
  8  9  1  0  0  0
  8 49  1  0  0  0
  8 50  1  0  0  0
  9 10  1  0  0  0
  9 51  1  0  0  0
 10 11  1  0  0  0
 10 52  1  0  0  0
 10 53  1  0  0  0
 11 54  1  0  0  0
 11 55  1  0  0  0
 12 13  1  0  0  0
 12 22  1  0  0  0
 12 56  1  0  0  0
 12 57  1  0  0  0
 13 19  1  0  0  0
 13 14  1  0  0  0
 14 16  1  0  0  0
 14 15  2  0  0  0
 16 26  1  0  0  0
 16 17  1  0  0  0
 17 19  1  0  0  0
 17 18  2  0  0  0
 19 20  1  0  0  0
 20 23  1  0  0  0
 20 21  1  0  0  0
 20 58  1  0  0  0
 21 22  2  0  0  0
 21 59  1  0  0  0
 22 24  1  0  0  0
 23 25  2  0  0  0
 24 60  1  0  0  0
 24 61  1  0  0  0
 24 62  1  0  0  0
 26 27  1  0  0  0
 26 63  1  0  0  0
 26 64  1  0  0  0
 27 37  1  0  0  0
 27 31  1  0  0  0
 27 65  1  0  0  0
 28 29  1  0  0  0
 28 33  2  0  0  0
 28 66  1  0  0  0
 29 30  2  0  0  0
 29 67  1  0  0  0
 30 31  1  0  0  0
 30 68  1  0  0  0
 31 32  2  0  0  0
 32 33  1  0  0  0
 32 69  1  0  0  0
 33 70  1  0  0  0
 34 35  1  0  0  0
 34 39  2  0  0  0
 34 71  1  0  0  0
 35 36  2  0  0  0
 35 72  1  0  0  0
 36 37  1  0  0  0
 36 73  1  0  0  0
 37 38  2  0  0  0
 38 39  1  0  0  0
 38 74  1  0  0  0
 39 75  1  0  0  0
M  CHG  1   3   1
M  END
> <s_m_source_file>
../1c4v_ligand.sdf

> <i_m_source_file_index>
1

> <s_epik_input>
W0hdL049QygvW05IMl0pW0NASF0oW0NIMl1bQ0gyXTEpW0NIMl1bQ0gyXVtDQEBIXTFbQ0gyXVtOSF1DKD1PKVtDQEhdKFtDSF09QyhbQ0gyXTIpW0NIM10pbihuMjMpYyg9TyluKGMzPU8pW0NIMl1bQ0hdKGM0W2NIXVtjSF1bY0hdW2NIXVtjSF00KWM1W2NIXVtjSF1bY0hdW2NIXVtjSF01

> <s_epik_cmdline>
J2VwaWtfYXBwJywgJy1pbWFlJywgJ2xpZ2FuZF9wcm8ubWFlJywgJy1vbWFlJywgJ2xpZ2FuZF9wcmVwLm1hZScsICctbXMnLCAnMScsICctcGgnLCAnNycsICctcGh0JywgJzAuNScsICctbnQn

> <r_lp_tautomer_probability>
1

> <r_epik_Ionization_Penalty>
  0.0000

> <r_epik_Ionization_Penalty_Charging>
  0.0000

> <r_epik_Ionization_Penalty_Neutral>
  0.0000

> <r_epik_State_Penalty>
 -0.0000

> <r_epik_Charging_Adjusted_Penalty>
7.76853025109034e-06

> <i_epik_Tot_Q>
1

> <i_epik_Tot_abs_Q>
1

> <s_epik_Chemistry_Notes>
This compound has an imine and may undergo hydrolysis.

$$$$
