1c4y_ligand
                    3D
 Schrodinger Suite 2020-3.
 75 80  0  0  1  0            999 V2000
   25.3450   48.5910   -4.8320 C   0  0  0  0  0  0
   24.5070   48.3160   -3.7520 N   0  0  0  0  0  0
   23.4470   47.6070   -4.1920 C   0  0  3  0  0  0
   23.5970   47.4300   -5.5070 N   0  0  0  0  0  0
   24.7420   48.0160   -5.9250 C   0  0  0  0  0  0
   22.4400   47.1610   -3.4600 N   0  0  0  0  0  0
   29.0620   50.8460   -4.2020 N   0  0  0  0  0  0
   27.5850   51.6060   -5.7600 C   0  0  0  0  0  0
   29.0090   50.9550   -5.4390 C   0  0  2  0  0  0
   28.9780   49.4540   -5.8540 C   0  0  0  0  0  0
   27.6040   48.7000   -5.8170 C   0  0  0  0  0  0
   26.5890   49.3250   -4.7690 C   0  0  1  0  0  0
   26.3500   50.7830   -5.0970 C   0  0  0  0  0  0
   33.0760   49.0520   -2.2080 N   0  0  0  0  0  0
   33.7510   50.2190   -1.8620 C   0  0  0  0  0  0
   35.0050   50.3120   -1.7280 O   0  0  0  0  0  0
   32.7570   51.1700   -1.6100 N   0  0  0  0  0  0
   31.4860   50.5670   -1.8930 N   0  0  0  0  0  0
   31.7170   49.2640   -2.3030 C   0  0  0  0  0  0
   30.8530   48.4160   -2.5980 O   0  0  0  0  0  0
   32.9110   52.5160   -1.2580 C   0  0  0  0  0  0
   31.5550   53.2470   -1.2270 C   0  0  0  0  0  0
   30.3570   52.6450   -1.4960 C   0  0  0  0  0  0
   30.3380   51.2930   -2.2310 C   0  0  1  0  0  0
   31.5190   54.7610   -0.8680 C   0  0  0  0  0  0
   30.1040   51.4940   -3.6530 C   0  0  0  0  0  0
   30.9070   52.1590   -4.3140 O   0  0  0  0  0  0
   33.4090   46.5440   -1.6680 C   0  0  0  0  0  0
   33.8590   47.5820   -2.6430 C   0  0  0  0  0  0
   33.6170   47.0110   -0.2250 C   0  0  0  0  0  0
   32.4690   46.9980    0.6330 C   0  0  0  0  0  0
   32.5910   47.4670    2.0170 C   0  0  0  0  0  0
   33.8630   47.9730    2.5970 C   0  0  0  0  0  0
   35.0480   48.0040    1.7420 C   0  0  0  0  0  0
   34.9260   47.5260    0.3400 C   0  0  0  0  0  0
   34.0780   45.2040   -2.0160 C   0  0  0  0  0  0
   33.2280   44.1030   -2.4440 C   0  0  0  0  0  0
   33.9040   42.6890   -2.7660 C   0  0  0  0  0  0
   35.3280   42.4150   -2.6510 C   0  0  0  0  0  0
   36.1700   43.5070   -2.2520 C   0  0  0  0  0  0
   35.5900   44.8660   -1.9270 C   0  0  0  0  0  0
   25.0286   47.9687   -6.9860 H   0  0  0  0  0  0
   22.4137   47.3636   -2.3791 H   0  0  0  0  0  0
   21.6287   46.5874   -3.9320 H   0  0  0  0  0  0
   28.2984   50.2612   -3.6682 H   0  0  0  0  0  0
   27.5538   52.6324   -5.3657 H   0  0  0  0  0  0
   27.4282   51.6265   -6.8486 H   0  0  0  0  0  0
   29.8798   51.5507   -5.7502 H   0  0  0  0  0  0
   29.3275   49.3533   -6.8921 H   0  0  0  0  0  0
   29.6354   48.8758   -5.1881 H   0  0  0  0  0  0
   27.1334   48.7466   -6.8101 H   0  0  0  0  0  0
   27.7700   47.6488   -5.5389 H   0  0  0  0  0  0
   26.0633   51.2553   -4.1459 H   0  0  0  0  0  0
   25.4916   50.7929   -5.7847 H   0  0  0  0  0  0
   33.3673   52.5839   -0.2594 H   0  0  0  0  0  0
   33.5602   53.0151   -1.9925 H   0  0  0  0  0  0
   29.4176   53.1272   -1.1875 H   0  0  0  0  0  0
   29.5453   50.5904   -1.9345 H   0  0  0  0  0  0
   32.5421   55.1168   -0.6762 H   0  0  0  0  0  0
   30.9043   54.9099    0.0320 H   0  0  0  0  0  0
   31.0852   55.3263   -1.7060 H   0  0  0  0  0  0
   32.3218   46.4088   -1.7663 H   0  0  0  0  0  0
   33.5726   47.3034   -3.6679 H   0  0  0  0  0  0
   34.9493   47.7180   -2.5911 H   0  0  0  0  0  0
   31.5096   46.6411    0.2585 H   0  0  0  0  0  0
   31.7053   47.4435    2.6519 H   0  0  0  0  0  0
   33.9105   48.3117    3.6319 H   0  0  0  0  0  0
   36.0009   48.3699    2.1244 H   0  0  0  0  0  0
   35.8061   47.5464   -0.3027 H   0  0  0  0  0  0
   32.1511   44.2391   -2.5433 H   0  0  0  0  0  0
   33.2544   41.8772   -3.0932 H   0  0  0  0  0  0
   35.7368   41.4261   -2.8583 H   0  0  0  0  0  0
   37.2470   43.3543   -2.1819 H   0  0  0  0  0  0
   36.2742   45.6538   -1.6119 H   0  0  0  0  0  0
   24.7719   48.6724   -2.7456 H   0  0  0  0  0  0
  1  2  1  0  0  0
  1  5  1  0  0  0
  1 12  2  0  0  0
  2  3  1  0  0  0
  2 75  1  0  0  0
  3  4  1  0  0  0
  3  6  1  0  0  0
  4  5  2  0  0  0
  5 42  1  0  0  0
  6 43  1  0  0  0
  6 44  1  0  0  0
  7  9  1  0  0  0
  7 26  1  0  0  0
  7 45  1  0  0  0
  8  9  1  0  0  0
  8 13  1  0  0  0
  8 46  1  0  0  0
  8 47  1  0  0  0
  9 10  1  0  0  0
  9 48  1  0  0  0
 10 11  1  0  0  0
 10 49  1  0  0  0
 10 50  1  0  0  0
 11 12  1  0  0  0
 11 51  1  0  0  0
 11 52  1  0  0  0
 12 13  1  0  0  0
 13 53  1  0  0  0
 13 54  1  0  0  0
 14 15  1  0  0  0
 14 19  1  0  0  0
 14 29  1  0  0  0
 15 16  2  0  0  0
 15 17  1  0  0  0
 17 18  1  0  0  0
 17 21  1  0  0  0
 18 19  1  0  0  0
 18 24  1  0  0  0
 19 20  2  0  0  0
 21 22  1  0  0  0
 21 55  1  0  0  0
 21 56  1  0  0  0
 22 23  2  0  0  0
 22 25  1  0  0  0
 23 24  1  0  0  0
 23 57  1  0  0  0
 24 26  1  0  0  0
 24 58  1  0  0  0
 25 59  1  0  0  0
 25 60  1  0  0  0
 25 61  1  0  0  0
 26 27  2  0  0  0
 28 29  1  0  0  0
 28 30  1  0  0  0
 28 36  1  0  0  0
 28 62  1  0  0  0
 29 63  1  0  0  0
 29 64  1  0  0  0
 30 31  2  0  0  0
 30 35  1  0  0  0
 31 32  1  0  0  0
 31 65  1  0  0  0
 32 33  2  0  0  0
 32 66  1  0  0  0
 33 34  1  0  0  0
 33 67  1  0  0  0
 34 35  2  0  0  0
 34 68  1  0  0  0
 35 69  1  0  0  0
 36 37  2  0  0  0
 36 41  1  0  0  0
 37 38  1  0  0  0
 37 70  1  0  0  0
 38 39  2  0  0  0
 38 71  1  0  0  0
 39 40  1  0  0  0
 39 72  1  0  0  0
 40 41  2  0  0  0
 40 73  1  0  0  0
 41 74  1  0  0  0
M  END
> <s_m_source_file>
../1c4y_ligand.sdf

> <i_m_source_file_index>
1

> <s_epik_input>
W0NIXTE9TltDSF0oW05IMl0pTj1DMVtDQEBIXShbQ0gyXVtDSDJdMilbQ0gyXVtDSDJdW0NASF0yW05IXUMoPU8pW0NASF0oW0NIXT1DKFtDSDJdMylbQ0gzXSluKG4zNCljKD1PKW4oYzQ9TylbQ0gyXVtDSF0oYzVbY0hdW2NIXVtjSF1bY0hdW2NIXTUpYzZbY0hdW2NIXVtjSF1bY0hdW2NIXTY=

> <s_epik_cmdline>
J2VwaWtfYXBwJywgJy1pbWFlJywgJ2xpZ2FuZF9wcm8ubWFlJywgJy1vbWFlJywgJ2xpZ2FuZF9wcmVwLm1hZScsICctbXMnLCAnMScsICctcGgnLCAnNycsICctcGh0JywgJzAuNScsICctbnQn

> <r_lp_tautomer_probability>
1

> <r_epik_Ionization_Penalty>
  0.2274

> <r_epik_Ionization_Penalty_Charging>
  0.0070

> <r_epik_Ionization_Penalty_Neutral>
  0.2204

> <r_epik_State_Penalty>
 -0.0000

> <r_epik_Charging_Adjusted_Penalty>
0.00701791602222203

> <i_epik_Tot_Q>
0

> <i_epik_Tot_abs_Q>
0

> <s_epik_Chemistry_Notes>
This compound has an imine and may undergo hydrolysis.

$$$$
