1c5f_ligand
                    3D
 Schrodinger Suite 2020-3.
196196  0  0  1  0            999 V2000
   -4.0440   -8.4980   47.4340 N   0  0  0  0  0  0
   -4.0730   -9.9820   47.6770 C   0  0  0  0  0  0
   -5.2810   -7.7590   47.1980 C   0  0  2  0  0  0
   -6.2150   -7.6820   48.4050 C   0  0  0  0  0  0
   -6.0250   -8.3780   49.4090 O   0  0  0  0  0  0
   -6.0640   -8.3290   45.9800 C   0  0  2  0  0  0
   -6.5070   -9.6640   46.2570 O   0  0  0  0  0  0
   -5.1710   -8.3280   44.7230 C   0  0  2  0  0  0
   -4.6880   -6.9190   44.4260 C   0  0  0  0  0  0
   -5.9650   -8.8740   43.5270 C   0  0  0  0  0  0
   -7.2800   -8.1430   43.2430 C   0  0  0  0  0  0
   -8.2350   -8.6620   42.3330 C   0  0  0  0  0  0
   -9.5410   -7.9190   42.0920 C   0  0  0  0  0  0
   -7.2340   -6.8360   48.2930 N   0  0  0  0  0  0
   -8.1750   -6.6350   49.3850 C   0  0  2  0  0  0
   -9.6080   -7.0080   49.0010 C   0  0  0  0  0  0
  -10.4060   -6.1280   48.6660 O   0  0  0  0  0  0
   -8.1240   -5.1690   49.8210 C   0  0  0  0  0  0
   -6.7170   -4.6090   49.9010 C   0  0  0  0  0  0
   -9.9380   -8.3000   49.0640 N   0  0  0  0  0  0
  -11.2820   -8.7290   48.7030 C   0  0  0  0  0  0
  -11.2490   -9.9640   47.8090 C   0  0  0  0  0  0
  -11.6900  -11.0440   48.2100 O   0  0  0  0  0  0
   -8.9150   -9.3320   49.4530 C   0  0  0  0  0  0
  -10.7230   -9.8220   46.5950 N   0  0  0  0  0  0
  -10.1900   -8.4920   46.1490 C   0  0  0  0  0  0
  -10.6480  -10.9660   45.7020 C   0  0  1  0  0  0
  -11.0330  -10.5730   44.2710 C   0  0  0  0  0  0
  -11.0240  -11.7340   43.2650 C   0  0  0  0  0  0
  -11.9790  -12.8100   43.7510 C   0  0  0  0  0  0
  -11.4150  -11.2450   41.8630 C   0  0  0  0  0  0
   -9.2370  -11.5200   45.7120 C   0  0  0  0  0  0
   -8.3890  -11.1150   44.9130 O   0  0  0  0  0  0
   -8.9820  -12.4480   46.6220 N   0  0  0  0  0  0
   -7.6640  -13.0430   46.7170 C   0  0  2  0  0  0
   -7.4480  -14.1120   45.6400 C   0  0  0  0  0  0
   -8.2980  -14.9870   45.4450 O   0  0  0  0  0  0
   -7.4550  -13.6750   48.0990 C   0  0  0  0  0  0
   -6.0510  -14.2410   48.2000 C   0  0  0  0  0  0
   -7.6900  -12.6340   49.1830 C   0  0  0  0  0  0
   -6.3190  -14.0330   44.9380 N   0  0  0  0  0  0
   -5.3590  -12.9070   45.1870 C   0  0  0  0  0  0
   -6.0100  -15.0130   43.9000 C   0  0  1  0  0  0
   -5.5850  -14.3220   42.5890 C   0  0  0  0  0  0
   -6.6600  -13.4350   41.9320 C   0  0  0  0  0  0
   -6.1620  -12.8880   40.6070 C   0  0  0  0  0  0
   -7.9330  -14.2440   41.7100 C   0  0  0  0  0  0
   -4.8760  -15.8830   44.4190 C   0  0  0  0  0  0
   -4.3360  -15.6270   45.4920 O   0  0  0  0  0  0
   -4.5260  -16.9190   43.6710 N   0  0  0  0  0  0
   -3.4430  -17.7970   44.0780 C   0  0  2  0  0  0
   -2.1240  -17.1860   43.6130 C   0  0  0  0  0  0
   -2.1210  -16.1830   42.9000 O   0  0  0  0  0  0
   -3.6340  -19.1700   43.4630 C   0  0  0  0  0  0
   -1.0110  -17.7860   44.0200 N   0  0  0  0  0  0
    0.3050  -17.2870   43.6220 C   0  0  2  0  0  0
    1.3020  -18.4290   43.5540 C   0  0  0  0  0  0
    0.8330  -16.2150   44.5850 C   0  0  0  0  0  0
    0.8310  -16.4160   45.8010 O   0  0  0  0  0  0
    1.2550  -15.0670   44.0500 N   0  0  0  0  0  0
    0.9840  -14.7550   42.6030 C   0  0  0  0  0  0
    1.8290  -14.0410   44.9110 C   0  0  1  0  0  0
    3.3540  -14.0150   44.7210 C   0  0  0  0  0  0
    4.1250  -15.3390   44.8350 C   0  0  0  0  0  0
    5.5940  -15.1230   44.4700 C   0  0  0  0  0  0
    4.0060  -15.8850   46.2470 C   0  0  0  0  0  0
    1.2750  -12.6250   44.7130 C   0  0  0  0  0  0
    1.9980  -11.7330   44.2680 O   0  0  0  0  0  0
    0.0000  -12.4130   45.0270 N   0  0  0  0  0  0
   -0.8940  -13.5720   45.3730 C   0  0  0  0  0  0
   -0.5660  -11.0710   44.8980 C   0  0  1  0  0  0
   -1.7640  -11.0800   43.9410 C   0  0  0  0  0  0
   -1.5120  -11.4970   42.4840 C   0  0  0  0  0  0
   -2.8280  -11.4700   41.7100 C   0  0  0  0  0  0
   -0.5060  -10.5570   41.8390 C   0  0  0  0  0  0
   -1.0080  -10.5540   46.2730 C   0  0  0  0  0  0
   -1.1640  -11.3380   47.2150 O   0  0  0  0  0  0
   -1.1810   -9.2390   46.4070 N   0  0  0  0  0  0
   -0.8090   -8.3060   45.2940 C   0  0  0  0  0  0
   -1.6370   -8.6930   47.6830 C   0  0  1  0  0  0
   -0.5690   -7.8100   48.3630 C   0  0  0  0  0  0
   -1.0400   -7.4300   49.7650 C   0  0  0  0  0  0
    0.7670   -8.5480   48.4290 C   0  0  0  0  0  0
   -2.8870   -7.8490   47.4500 C   0  0  0  0  0  0
   -2.8070   -6.6320   47.2880 O   0  0  0  0  0  0
   -5.1113  -10.3417   47.6257 H   0  0  0  0  0  0
   -3.6586  -10.1987   48.6727 H   0  0  0  0  0  0
   -3.4703  -10.4909   46.9103 H   0  0  0  0  0  0
   -4.8873   -6.7486   47.0135 H   0  0  0  0  0  0
   -6.9867   -7.7573   45.8019 H   0  0  0  0  0  0
   -7.1576   -9.8592   47.1222 H   0  0  0  0  0  0
   -4.2877   -8.9604   44.8961 H   0  0  0  0  0  0
   -4.1209   -6.5366   45.2875 H   0  0  0  0  0  0
   -5.5535   -6.2667   44.2380 H   0  0  0  0  0  0
   -4.0398   -6.9333   43.5374 H   0  0  0  0  0  0
   -5.3548   -8.7953   42.6151 H   0  0  0  0  0  0
   -6.2206   -9.9286   43.7073 H   0  0  0  0  0  0
   -7.4756   -7.1941   43.7639 H   0  0  0  0  0  0
   -8.0324   -9.6028   41.8002 H   0  0  0  0  0  0
  -10.1477   -8.4719   41.3597 H   0  0  0  0  0  0
   -9.3242   -6.9130   41.7036 H   0  0  0  0  0  0
  -10.0951   -7.8351   43.0385 H   0  0  0  0  0  0
   -7.3584   -6.2821   47.3508 H   0  0  0  0  0  0
   -7.8380   -7.3167   50.1798 H   0  0  0  0  0  0
   -8.6827   -4.5528   49.1012 H   0  0  0  0  0  0
   -8.5756   -5.0673   50.8189 H   0  0  0  0  0  0
   -6.7587   -3.5567   50.2188 H   0  0  0  0  0  0
   -6.2394   -4.6747   48.9123 H   0  0  0  0  0  0
   -6.1323   -5.1893   50.6299 H   0  0  0  0  0  0
  -11.8465   -8.9727   49.6151 H   0  0  0  0  0  0
  -11.7924   -7.9190   48.1614 H   0  0  0  0  0  0
   -7.9640   -8.8336   49.6921 H   0  0  0  0  0  0
   -8.7629  -10.0307   48.6171 H   0  0  0  0  0  0
   -9.2702   -9.8863   50.3342 H   0  0  0  0  0  0
  -10.3323   -7.7524   46.9508 H   0  0  0  0  0  0
  -10.7293   -8.1644   45.2480 H   0  0  0  0  0  0
   -9.1178   -8.5843   45.9214 H   0  0  0  0  0  0
  -11.3615  -11.7035   46.0982 H   0  0  0  0  0  0
  -12.0505  -10.1551   44.2667 H   0  0  0  0  0  0
  -10.3255   -9.8194   43.8948 H   0  0  0  0  0  0
  -10.0130  -12.1623   43.1979 H   0  0  0  0  0  0
  -11.6769  -13.1420   44.7553 H   0  0  0  0  0  0
  -11.9517  -13.6644   43.0587 H   0  0  0  0  0  0
  -13.0002  -12.4030   43.7911 H   0  0  0  0  0  0
  -10.7088  -10.4678   41.5356 H   0  0  0  0  0  0
  -12.4324  -10.8278   41.8907 H   0  0  0  0  0  0
  -11.3839  -12.0891   41.1584 H   0  0  0  0  0  0
   -9.7800  -12.7664   47.3089 H   0  0  0  0  0  0
   -6.9804  -12.1963   46.5562 H   0  0  0  0  0  0
   -8.1693  -14.4986   48.2456 H   0  0  0  0  0  0
   -5.9002  -14.9907   47.4093 H   0  0  0  0  0  0
   -5.9161  -14.7137   49.1841 H   0  0  0  0  0  0
   -5.3188  -13.4289   48.0798 H   0  0  0  0  0  0
   -8.7115  -12.2358   49.0937 H   0  0  0  0  0  0
   -6.9655  -11.8144   49.0674 H   0  0  0  0  0  0
   -7.5629  -13.0991   50.1717 H   0  0  0  0  0  0
   -5.7445  -12.2685   45.9955 H   0  0  0  0  0  0
   -5.2480  -12.3102   44.2697 H   0  0  0  0  0  0
   -4.3807  -13.3169   45.4784 H   0  0  0  0  0  0
   -6.9237  -15.5985   43.7202 H   0  0  0  0  0  0
   -4.7192  -13.6713   42.7815 H   0  0  0  0  0  0
   -5.3124  -15.0843   41.8443 H   0  0  0  0  0  0
   -6.8824  -12.5833   42.5917 H   0  0  0  0  0  0
   -5.2438  -12.3054   40.7727 H   0  0  0  0  0  0
   -6.9329  -12.2397   40.1650 H   0  0  0  0  0  0
   -5.9483  -13.7225   39.9229 H   0  0  0  0  0  0
   -8.2896  -14.6380   42.6731 H   0  0  0  0  0  0
   -7.7216  -15.0802   41.0273 H   0  0  0  0  0  0
   -8.7062  -13.5974   41.2694 H   0  0  0  0  0  0
   -5.0661  -17.1106   42.7321 H   0  0  0  0  0  0
   -3.4762  -17.8825   45.1742 H   0  0  0  0  0  0
   -4.5877  -19.5965   43.8073 H   0  0  0  0  0  0
   -2.8067  -19.8271   43.7690 H   0  0  0  0  0  0
   -3.6462  -19.0822   42.3666 H   0  0  0  0  0  0
   -1.0906  -18.6721   44.6669 H   0  0  0  0  0  0
    0.1440  -16.8487   42.6260 H   0  0  0  0  0  0
    0.9289  -19.2009   42.8649 H   0  0  0  0  0  0
    1.4307  -18.8635   44.5563 H   0  0  0  0  0  0
    2.2691  -18.0503   43.1915 H   0  0  0  0  0  0
    0.5543  -15.6402   42.1113 H   0  0  0  0  0  0
    1.9252  -14.4796   42.1048 H   0  0  0  0  0  0
    0.2744  -13.9172   42.5352 H   0  0  0  0  0  0
    1.5114  -14.3738   45.9102 H   0  0  0  0  0  0
    3.5919  -13.6349   43.7165 H   0  0  0  0  0  0
    3.8067  -13.3581   45.4783 H   0  0  0  0  0  0
    3.6950  -16.0772   44.1421 H   0  0  0  0  0  0
    5.6630  -14.7278   43.4458 H   0  0  0  0  0  0
    6.1315  -16.0808   44.5305 H   0  0  0  0  0  0
    6.0443  -14.4049   45.1712 H   0  0  0  0  0  0
    2.9446  -16.0347   46.4940 H   0  0  0  0  0  0
    4.4500  -15.1700   46.9552 H   0  0  0  0  0  0
    4.5372  -16.8459   46.3145 H   0  0  0  0  0  0
   -0.2957  -14.4935   45.4260 H   0  0  0  0  0  0
   -1.6683  -13.6815   44.5994 H   0  0  0  0  0  0
   -1.3719  -13.3885   46.3467 H   0  0  0  0  0  0
    0.2400  -10.4451   44.4875 H   0  0  0  0  0  0
   -2.5258  -11.7805   44.3138 H   0  0  0  0  0  0
   -2.1934  -10.0690   43.8814 H   0  0  0  0  0  0
   -1.0983  -12.5158   42.4560 H   0  0  0  0  0  0
   -3.5471  -12.1532   42.1855 H   0  0  0  0  0  0
   -2.6498  -11.7893   40.6726 H   0  0  0  0  0  0
   -3.2350  -10.4481   41.7144 H   0  0  0  0  0  0
    0.4370  -10.5850   42.4047 H   0  0  0  0  0  0
   -0.9062   -9.5324   41.8438 H   0  0  0  0  0  0
   -0.3210  -10.8736   40.8019 H   0  0  0  0  0  0
   -0.4918   -8.8894   44.4171 H   0  0  0  0  0  0
    0.0166   -7.6565   45.6205 H   0  0  0  0  0  0
   -1.6789   -7.6875   45.0279 H   0  0  0  0  0  0
   -1.8422   -9.5775   48.3039 H   0  0  0  0  0  0
   -0.4185   -6.8901   47.7789 H   0  0  0  0  0  0
   -2.0018   -6.9004   49.6977 H   0  0  0  0  0  0
   -0.2931   -6.7753   50.2378 H   0  0  0  0  0  0
   -1.1644   -8.3406   50.3694 H   0  0  0  0  0  0
    1.0900   -8.8133   47.4115 H   0  0  0  0  0  0
    0.6509   -9.4637   49.0273 H   0  0  0  0  0  0
    1.5221   -7.8983   48.8957 H   0  0  0  0  0  0
  1  2  1  0  0  0
  1  3  1  0  0  0
  1 84  1  0  0  0
  2 86  1  0  0  0
  2 87  1  0  0  0
  2 88  1  0  0  0
  3  4  1  0  0  0
  3  6  1  0  0  0
  3 89  1  0  0  0
  4  5  2  0  0  0
  4 14  1  0  0  0
  6  7  1  0  0  0
  6  8  1  0  0  0
  6 90  1  0  0  0
  7 91  1  0  0  0
  8  9  1  0  0  0
  8 10  1  0  0  0
  8 92  1  0  0  0
  9 93  1  0  0  0
  9 94  1  0  0  0
  9 95  1  0  0  0
 10 11  1  0  0  0
 10 96  1  0  0  0
 10 97  1  0  0  0
 11 12  2  0  0  0
 11 98  1  0  0  0
 12 13  1  0  0  0
 12 99  1  0  0  0
 13100  1  0  0  0
 13101  1  0  0  0
 13102  1  0  0  0
 14 15  1  0  0  0
 14103  1  0  0  0
 15 16  1  0  0  0
 15 18  1  0  0  0
 15104  1  0  0  0
 16 17  2  0  0  0
 16 20  1  0  0  0
 18 19  1  0  0  0
 18105  1  0  0  0
 18106  1  0  0  0
 19107  1  0  0  0
 19108  1  0  0  0
 19109  1  0  0  0
 20 21  1  0  0  0
 20 24  1  0  0  0
 21 22  1  0  0  0
 21110  1  0  0  0
 21111  1  0  0  0
 22 23  2  0  0  0
 22 25  1  0  0  0
 24112  1  0  0  0
 24113  1  0  0  0
 24114  1  0  0  0
 25 26  1  0  0  0
 25 27  1  0  0  0
 26115  1  0  0  0
 26116  1  0  0  0
 26117  1  0  0  0
 27 28  1  0  0  0
 27 32  1  0  0  0
 27118  1  0  0  0
 28 29  1  0  0  0
 28119  1  0  0  0
 28120  1  0  0  0
 29 30  1  0  0  0
 29 31  1  0  0  0
 29121  1  0  0  0
 30122  1  0  0  0
 30123  1  0  0  0
 30124  1  0  0  0
 31125  1  0  0  0
 31126  1  0  0  0
 31127  1  0  0  0
 32 33  2  0  0  0
 32 34  1  0  0  0
 34 35  1  0  0  0
 34128  1  0  0  0
 35 36  1  0  0  0
 35 38  1  0  0  0
 35129  1  0  0  0
 36 37  2  0  0  0
 36 41  1  0  0  0
 38 39  1  0  0  0
 38 40  1  0  0  0
 38130  1  0  0  0
 39131  1  0  0  0
 39132  1  0  0  0
 39133  1  0  0  0
 40134  1  0  0  0
 40135  1  0  0  0
 40136  1  0  0  0
 41 42  1  0  0  0
 41 43  1  0  0  0
 42137  1  0  0  0
 42138  1  0  0  0
 42139  1  0  0  0
 43 44  1  0  0  0
 43 48  1  0  0  0
 43140  1  0  0  0
 44 45  1  0  0  0
 44141  1  0  0  0
 44142  1  0  0  0
 45 46  1  0  0  0
 45 47  1  0  0  0
 45143  1  0  0  0
 46144  1  0  0  0
 46145  1  0  0  0
 46146  1  0  0  0
 47147  1  0  0  0
 47148  1  0  0  0
 47149  1  0  0  0
 48 49  2  0  0  0
 48 50  1  0  0  0
 50 51  1  0  0  0
 50150  1  0  0  0
 51 52  1  0  0  0
 51 54  1  0  0  0
 51151  1  0  0  0
 52 53  2  0  0  0
 52 55  1  0  0  0
 54152  1  0  0  0
 54153  1  0  0  0
 54154  1  0  0  0
 55 56  1  0  0  0
 55155  1  0  0  0
 56 57  1  0  0  0
 56 58  1  0  0  0
 56156  1  0  0  0
 57157  1  0  0  0
 57158  1  0  0  0
 57159  1  0  0  0
 58 59  2  0  0  0
 58 60  1  0  0  0
 60 61  1  0  0  0
 60 62  1  0  0  0
 61160  1  0  0  0
 61161  1  0  0  0
 61162  1  0  0  0
 62 63  1  0  0  0
 62 67  1  0  0  0
 62163  1  0  0  0
 63 64  1  0  0  0
 63164  1  0  0  0
 63165  1  0  0  0
 64 65  1  0  0  0
 64 66  1  0  0  0
 64166  1  0  0  0
 65167  1  0  0  0
 65168  1  0  0  0
 65169  1  0  0  0
 66170  1  0  0  0
 66171  1  0  0  0
 66172  1  0  0  0
 67 68  2  0  0  0
 67 69  1  0  0  0
 69 70  1  0  0  0
 69 71  1  0  0  0
 70173  1  0  0  0
 70174  1  0  0  0
 70175  1  0  0  0
 71 72  1  0  0  0
 71 76  1  0  0  0
 71176  1  0  0  0
 72 73  1  0  0  0
 72177  1  0  0  0
 72178  1  0  0  0
 73 74  1  0  0  0
 73 75  1  0  0  0
 73179  1  0  0  0
 74180  1  0  0  0
 74181  1  0  0  0
 74182  1  0  0  0
 75183  1  0  0  0
 75184  1  0  0  0
 75185  1  0  0  0
 76 77  2  0  0  0
 76 78  1  0  0  0
 78 79  1  0  0  0
 78 80  1  0  0  0
 79186  1  0  0  0
 79187  1  0  0  0
 79188  1  0  0  0
 80 81  1  0  0  0
 80 84  1  0  0  0
 80189  1  0  0  0
 81 82  1  0  0  0
 81 83  1  0  0  0
 81190  1  0  0  0
 82191  1  0  0  0
 82192  1  0  0  0
 82193  1  0  0  0
 83194  1  0  0  0
 83195  1  0  0  0
 83196  1  0  0  0
 84 85  2  0  0  0
M  END
> <s_m_source_file>
../1c5f_ligand.sdf

> <i_m_source_file_index>
1

> <s_epik_input>
W0NIM11cW0NIXT1bQ0hdXFtDSDJdW0NAQEhdKFtDSDNdKVtDQEBIXShbT0hdKVtDQEhdKE4xW0NIM10pQyg9TylbTkhdW0NAQEhdKFtDSDJdW0NIM10pQyg9TylOKFtDSDNdKVtDSDJdQyg9TylOKFtDSDNdKVtDQEBIXShbQ0gyXVtDSF0oW0NIM10pW0NIM10pQyg9TylbTkhdW0NAQEhdKFtDSF0oW0NIM10pW0NIM10pQyg9TylOKFtDSDNdKVtDQEBIXShbQ0gyXVtDSF0oW0NIM10pW0NIM10pQyg9TylbTkhdW0NAQEhdKFtDSDNdKUMoPU8pW05IXVtDQEhdKFtDSDNdKUMoPU8pTihbQ0gzXSlbQ0BASF0oW0NIMl1bQ0hdKFtDSDNdKVtDSDNdKUMoPU8pTihbQ0gzXSlbQ0BASF0oW0NIMl1bQ0hdKFtDSDNdKVtDSDNdKUMoPU8pTihbQ0gzXSlbQ0BIXShDMT1PKVtDSF0oW0NIM10pW0NIM10=

> <s_epik_cmdline>
J2VwaWtfYXBwJywgJy1pbWFlJywgJ2xpZ2FuZF9wcm8ubWFlJywgJy1vbWFlJywgJ2xpZ2FuZF9wcmVwLm1hZScsICctbXMnLCAnMScsICctcGgnLCAnNycsICctcGh0JywgJzAuNScsICctbnQn

> <s_epik_pKa_notes>
Molecule size exceeds maximum supported for generating protonation states

$$$$
