1c5n_ligand
                    3D
 Schrodinger Suite 2020-3.
 21 22  0  0  1  0            999 V2000
   10.8040  -12.0750   24.5260 C   0  0  0  0  0  0
   11.6090  -12.2200   23.4780 C   0  0  0  0  0  0
   10.1720  -13.1280   24.9620 N   0  3  0  0  0  0
   10.7500  -10.8640   25.0200 N   0  0  0  0  0  0
   12.4820  -10.7990   22.8680 S   0  0  0  0  0  0
   13.2420  -11.7990   21.6210 C   0  0  0  0  0  0
   12.8000  -13.1180   21.7330 C   0  0  0  0  0  0
   11.9090  -13.3260   22.7520 C   0  0  0  0  0  0
   14.1420  -11.3940   20.6610 C   0  0  0  0  0  0
   14.6270  -12.3380   19.7670 C   0  0  0  0  0  0
   14.2030  -13.6740   19.8480 C   0  0  0  0  0  0
   13.2780  -14.0870   20.8320 C   0  0  0  0  0  0
   12.5840  -16.0470   20.9790 I   0  0  0  0  0  0
    9.4975  -13.0457   25.8271 H   0  0  0  0  0  0
   10.1090  -10.6524   25.8885 H   0  0  0  0  0  0
   11.3457  -10.0580   24.5666 H   0  0  0  0  0  0
   11.4750  -14.3033   22.9631 H   0  0  0  0  0  0
   14.4664  -10.3549   20.6045 H   0  0  0  0  0  0
   15.3404  -12.0409   18.9983 H   0  0  0  0  0  0
   14.5942  -14.4044   19.1398 H   0  0  0  0  0  0
   10.3130  -14.0991   24.4650 H   0  0  0  0  0  0
  1  4  1  0  0  0
  1  3  2  0  0  0
  1  2  1  0  0  0
  2  8  2  0  0  0
  2  5  1  0  0  0
  3 14  1  0  0  0
  3 21  1  0  0  0
  4 15  1  0  0  0
  4 16  1  0  0  0
  5  6  1  0  0  0
  6  9  1  0  0  0
  6  7  2  0  0  0
  7 12  1  0  0  0
  7  8  1  0  0  0
  8 17  1  0  0  0
  9 10  2  0  0  0
  9 18  1  0  0  0
 10 11  1  0  0  0
 10 19  1  0  0  0
 11 12  2  0  0  0
 11 20  1  0  0  0
 12 13  1  0  0  0
M  CHG  1   3   1
M  END
> <s_m_source_file>
../1c5n_ligand.sdf

> <i_m_source_file_index>
1

> <s_epik_input>
W0hdL049QyhbTkgyXSlcYyhzMSlbY0hdYyhjMTIpYyhJKVtjSF1bY0hdW2NIXTI=

> <s_epik_cmdline>
J2VwaWtfYXBwJywgJy1pbWFlJywgJ2xpZ2FuZF9wcm8ubWFlJywgJy1vbWFlJywgJ2xpZ2FuZF9wcmVwLm1hZScsICctbXMnLCAnMScsICctcGgnLCAnNycsICctcGh0JywgJzAuNScsICctbnQn

> <r_lp_tautomer_probability>
1

> <r_epik_Ionization_Penalty>
  0.0030

> <r_epik_Ionization_Penalty_Charging>
  0.0030

> <r_epik_Ionization_Penalty_Neutral>
  0.0000

> <r_epik_State_Penalty>
 -0.0000

> <r_epik_Charging_Adjusted_Penalty>
0.00300749696423694

> <i_epik_Tot_Q>
1

> <i_epik_Tot_abs_Q>
1

> <s_epik_Chemistry_Notes>
This compound has an imine and may undergo hydrolysis.

$$$$
