1c5t_ligand
                    3D
 Schrodinger Suite 2020-3.
 20 21  0  0  1  0            999 V2000
   46.0350   18.3120   54.2970 C   0  0  0  0  0  0
   45.6910   19.3400   53.4410 C   0  0  0  0  0  0
   46.7870   18.6030   55.3100 N   0  3  0  0  0  0
   45.5950   17.1170   54.0300 N   0  0  0  0  0  0
   44.8720   18.9810   51.8860 S   0  0  0  0  0  0
   44.7830   20.6750   51.4060 C   0  0  0  0  0  0
   45.3740   21.3960   52.4370 C   0  0  0  0  0  0
   45.8550   20.7030   53.5260 C   0  0  0  0  0  0
   44.2810   21.1930   50.3030 N   0  0  0  0  0  0
   44.3460   22.5100   50.1950 C   0  0  0  0  0  0
   44.9170   23.3330   51.1690 C   0  0  0  0  0  0
   45.4390   22.7660   52.3180 C   0  0  0  0  0  0
   47.0856   17.8155   56.0176 H   0  0  0  0  0  0
   45.8507   16.2762   54.6916 H   0  0  0  0  0  0
   44.9673   16.9475   53.1427 H   0  0  0  0  0  0
   46.3242   21.1917   54.3799 H   0  0  0  0  0  0
   43.9331   22.9767   49.3007 H   0  0  0  0  0  0
   44.9509   24.4129   51.0248 H   0  0  0  0  0  0
   45.8850   23.3809   53.0997 H   0  0  0  0  0  0
   47.1273   19.6378   55.4631 H   0  0  0  0  0  0
  1  4  1  0  0  0
  1  3  2  0  0  0
  1  2  1  0  0  0
  2  8  2  0  0  0
  2  5  1  0  0  0
  3 13  1  0  0  0
  3 20  1  0  0  0
  4 14  1  0  0  0
  4 15  1  0  0  0
  5  6  1  0  0  0
  6  9  1  0  0  0
  6  7  2  0  0  0
  7 12  1  0  0  0
  7  8  1  0  0  0
  8 16  1  0  0  0
  9 10  2  0  0  0
 10 11  1  0  0  0
 10 17  1  0  0  0
 11 12  2  0  0  0
 11 18  1  0  0  0
 12 19  1  0  0  0
M  CHG  1   3   1
M  END
> <s_m_source_file>
../1c5t_ligand.sdf

> <i_m_source_file_index>
1

> <s_epik_input>
W0hdL049QyhbTkgyXSlcYyhzMSlbY0hdYyhjMTIpW2NIXVtjSF1bY0hdbjI=

> <s_epik_cmdline>
J2VwaWtfYXBwJywgJy1pbWFlJywgJ2xpZ2FuZF9wcm8ubWFlJywgJy1vbWFlJywgJ2xpZ2FuZF9wcmVwLm1hZScsICctbXMnLCAnMScsICctcGgnLCAnNycsICctcGh0JywgJzAuNScsICctbnQn

> <r_lp_tautomer_probability>
1

> <r_epik_Ionization_Penalty>
  0.0030

> <r_epik_Ionization_Penalty_Charging>
  0.0030

> <r_epik_Ionization_Penalty_Neutral>
  0.0000

> <r_epik_State_Penalty>
 -0.0000

> <r_epik_Charging_Adjusted_Penalty>
0.00300749696423694

> <i_epik_Tot_Q>
1

> <i_epik_Tot_abs_Q>
1

> <s_epik_Chemistry_Notes>
This compound has an imine and may undergo hydrolysis.

$$$$
