1c5x_ligand
                    3D
 Schrodinger Suite 2020-3.
 21 22  0  0  1  0            999 V2000
    7.9510   -0.9830   25.9110 C   0  0  0  0  0  0
    8.2930    0.2880   25.5050 C   0  0  0  0  0  0
    7.3070   -1.1620   27.0290 N   0  3  0  0  0  0
    8.3420   -1.9500   25.1290 N   0  0  0  0  0  0
    9.0260    0.6610   23.8540 S   0  0  0  0  0  0
    9.1720    2.3800   24.1510 C   0  0  0  0  0  0
    8.6640    2.6270   25.4550 C   0  0  0  0  0  0
    8.2290    1.5180   26.1370 C   0  0  0  0  0  0
    9.6550    3.3990   23.3520 C   0  0  0  0  0  0
    9.6440    4.6920   23.8400 C   0  0  0  0  0  0
    9.1550    4.9540   25.1360 C   0  0  0  0  0  0
    8.6720    3.9300   25.9340 C   0  0  0  0  0  0
    8.0320    4.5270   27.8120 I   0  0  0  0  0  0
    7.0092   -0.2951   27.6371 H   0  0  0  0  0  0
    8.8823   -1.7207   24.1987 H   0  0  0  0  0  0
    8.1316   -2.9953   25.3995 H   0  0  0  0  0  0
    7.8422    1.6038   27.1524 H   0  0  0  0  0  0
   10.0381    3.1865   22.3539 H   0  0  0  0  0  0
   10.0139    5.5102   23.2221 H   0  0  0  0  0  0
    9.1570    5.9759   25.5151 H   0  0  0  0  0  0
    7.0609   -2.1801   27.3651 H   0  0  0  0  0  0
  1  2  1  0  0  0
  1  3  2  0  0  0
  1  4  1  0  0  0
  2  5  1  0  0  0
  2  8  2  0  0  0
  3 14  1  0  0  0
  3 21  1  0  0  0
  4 15  1  0  0  0
  4 16  1  0  0  0
  5  6  1  0  0  0
  6  7  2  0  0  0
  6  9  1  0  0  0
  7 12  1  0  0  0
  7  8  1  0  0  0
  8 17  1  0  0  0
  9 10  2  0  0  0
  9 18  1  0  0  0
 10 11  1  0  0  0
 10 19  1  0  0  0
 11 12  2  0  0  0
 11 20  1  0  0  0
 12 13  1  0  0  0
M  CHG  1   3   1
M  END
> <s_m_source_file>
../1c5x_ligand.sdf

> <i_m_source_file_index>
1

> <s_epik_input>
W0hdXE49QyhbTkgyXSlcYyhzMSlbY0hdYyhjMTIpYyhJKVtjSF1bY0hdW2NIXTI=

> <s_epik_cmdline>
J2VwaWtfYXBwJywgJy1pbWFlJywgJ2xpZ2FuZF9wcm8ubWFlJywgJy1vbWFlJywgJ2xpZ2FuZF9wcmVwLm1hZScsICctbXMnLCAnMScsICctcGgnLCAnNycsICctcGh0JywgJzAuNScsICctbnQn

> <r_lp_tautomer_probability>
1

> <r_epik_Ionization_Penalty>
  0.0030

> <r_epik_Ionization_Penalty_Charging>
  0.0030

> <r_epik_Ionization_Penalty_Neutral>
  0.0000

> <r_epik_State_Penalty>
 -0.0000

> <r_epik_Charging_Adjusted_Penalty>
0.00300749696423694

> <i_epik_Tot_Q>
1

> <i_epik_Tot_abs_Q>
1

> <s_epik_Chemistry_Notes>
This compound has an imine and may undergo hydrolysis.

$$$$
