1c6y_ligand
                    3D
 Schrodinger Suite 2020-3.
 93 97  0  0  1  0            999 V2000
    9.6990   25.2450    3.2100 N   0  0  1  0  0  0
    9.6770   25.3590    4.7010 C   0  0  0  0  0  0
   10.9380   26.0730    5.1550 C   0  0  1  0  0  0
   10.8940   26.3430    6.6200 C   0  0  0  0  0  0
   11.3860   25.5440    7.4050 O   0  0  0  0  0  0
   10.3230   27.4990    7.0590 N   0  0  0  0  0  0
   10.3660   27.8070    8.5210 C   0  0  0  0  0  0
   11.7190   27.5910    9.2050 C   0  0  0  0  0  0
    9.3240   26.8700    9.2300 C   0  0  0  0  0  0
   10.1480   29.3650    8.7070 C   0  0  0  0  0  0
   12.0990   25.2500    4.8060 N   0  3  1  0  0  0
   12.1230   25.0900    3.3230 C   0  0  0  0  0  0
   10.8500   24.5320    2.7350 C   0  0  0  0  0  0
   13.2550   26.1740    4.6800 C   0  0  0  0  0  0
   14.6140   25.5620    4.9970 C   0  0  1  0  0  0
   15.5460   26.3460    4.4710 O   0  0  0  0  0  0
   14.8000   25.4690    6.4730 C   0  0  0  0  0  0
   16.0710   24.7820    7.0010 C   0  0  1  0  0  0
   16.1650   25.0190    8.5190 C   0  0  0  0  0  0
   17.3000   24.1620    9.0520 C   0  0  0  0  0  0
   18.6130   24.2300    8.5040 C   0  0  0  0  0  0
   19.6480   23.5720    9.1560 C   0  0  0  0  0  0
   19.3640   22.8960   10.3450 C   0  0  0  0  0  0
   18.0400   22.5990   10.7330 C   0  0  0  0  0  0
   16.9880   23.2700   10.0870 C   0  0  0  0  0  0
   16.0830   23.1750    6.6870 C   0  0  0  0  0  0
   15.1900   22.4150    7.0730 O   0  0  0  0  0  0
   17.1480   22.7100    6.1060 N   0  0  0  0  0  0
   17.4460   21.2760    6.2430 C   0  0  2  0  0  0
   18.9400   20.9680    6.5180 C   0  0  2  0  0  0
   19.6840   21.7400    5.6700 O   0  0  0  0  0  0
   19.1730   19.4500    6.1960 C   0  0  0  0  0  0
   18.2770   19.5520    4.9180 C   0  0  0  0  0  0
   18.4410   18.8610    3.7400 C   0  0  0  0  0  0
   17.6260   19.3360    2.6860 C   0  0  0  0  0  0
   16.6860   20.4010    2.7630 C   0  0  0  0  0  0
   16.4960   21.0390    3.9520 C   0  0  0  0  0  0
   17.3320   20.6070    4.9740 C   0  0  0  0  0  0
    8.5060   24.5940    2.5860 C   0  0  0  0  0  0
    7.9260   23.4130    3.4090 C   0  0  0  0  0  0
    6.9230   23.6130    4.3960 C   0  0  0  0  0  0
    6.3890   22.5620    5.0620 N   0  0  0  0  0  0
    6.7530   21.2810    4.8100 C   0  0  0  0  0  0
    7.7640   20.9610    3.8650 C   0  0  0  0  0  0
    8.3540   22.0670    3.1730 C   0  0  0  0  0  0
    8.7912   25.9324    5.0118 H   0  0  0  0  0  0
    9.6373   24.3534    5.1451 H   0  0  0  0  0  0
   11.0482   27.0430    4.6482 H   0  0  0  0  0  0
    9.8376   28.1994    6.3634 H   0  0  0  0  0  0
   12.4758   28.2341    8.7320 H   0  0  0  0  0  0
   12.0175   26.5372    9.1027 H   0  0  0  0  0  0
   11.6355   27.8465   10.2716 H   0  0  0  0  0  0
    8.3368   26.9995    8.7624 H   0  0  0  0  0  0
    9.2617   27.1318   10.2966 H   0  0  0  0  0  0
    9.6437   25.8225    9.1276 H   0  0  0  0  0  0
    9.1911   29.6584    8.2506 H   0  0  0  0  0  0
   10.9693   29.9109    8.2197 H   0  0  0  0  0  0
   10.1322   29.6075    9.7798 H   0  0  0  0  0  0
   12.0887   24.3885    5.4900 H   0  0  0  0  0  0
   12.2917   26.0693    2.8513 H   0  0  0  0  0  0
   12.9344   24.4027    3.0414 H   0  0  0  0  0  0
   10.7684   23.4727    3.0198 H   0  0  0  0  0  0
   10.9057   24.6139    1.6395 H   0  0  0  0  0  0
   13.3141   26.5486    3.6474 H   0  0  0  0  0  0
   13.1247   27.0205    5.3703 H   0  0  0  0  0  0
   14.7945   24.5860    4.5229 H   0  0  0  0  0  0
   15.5625   26.5295    3.3865 H   0  0  0  0  0  0
   14.8231   26.4807    6.9041 H   0  0  0  0  0  0
   13.9662   24.9020    6.9127 H   0  0  0  0  0  0
   16.9196   25.2795    6.5086 H   0  0  0  0  0  0
   16.3664   26.0830    8.7122 H   0  0  0  0  0  0
   15.2149   24.7335    8.9942 H   0  0  0  0  0  0
   18.8025   24.7893    7.5878 H   0  0  0  0  0  0
   20.6591   23.5829    8.7490 H   0  0  0  0  0  0
   20.1872   22.5897   10.9905 H   0  0  0  0  0  0
   17.8384   21.8668   11.5149 H   0  0  0  0  0  0
   15.9530   23.1007   10.3840 H   0  0  0  0  0  0
   17.8194   23.3581    5.5235 H   0  0  0  0  0  0
   16.7161   20.9677    7.0060 H   0  0  0  0  0  0
   19.2963   21.2699    7.5139 H   0  0  0  0  0  0
   19.6467   22.8365    5.7489 H   0  0  0  0  0  0
   20.2481   19.2663    6.0533 H   0  0  0  0  0  0
   18.8040   18.8371    7.0316 H   0  0  0  0  0  0
   19.1334   18.0265    3.6292 H   0  0  0  0  0  0
   17.7280   18.8380    1.7218 H   0  0  0  0  0  0
   16.1234   20.7036    1.8798 H   0  0  0  0  0  0
   15.7507   21.8224    4.0897 H   0  0  0  0  0  0
    7.7013   25.3353    2.4723 H   0  0  0  0  0  0
    8.7803   24.1961    1.5979 H   0  0  0  0  0  0
    6.5800   24.6233    4.6192 H   0  0  0  0  0  0
    6.2559   20.4736    5.3477 H   0  0  0  0  0  0
    8.0729   19.9327    3.6774 H   0  0  0  0  0  0
    9.1476   21.8800    2.4496 H   0  0  0  0  0  0
  1 39  1  0  0  0
  1 13  1  0  0  0
  1  2  1  0  0  0
  2  3  1  0  0  0
  2 46  1  0  0  0
  2 47  1  0  0  0
  3 11  1  0  0  0
  3  4  1  0  0  0
  3 48  1  0  0  0
  4  6  1  0  0  0
  4  5  2  0  0  0
  6  7  1  0  0  0
  6 49  1  0  0  0
  7 10  1  0  0  0
  7  9  1  0  0  0
  7  8  1  0  0  0
  8 50  1  0  0  0
  8 51  1  0  0  0
  8 52  1  0  0  0
  9 53  1  0  0  0
  9 54  1  0  0  0
  9 55  1  0  0  0
 10 56  1  0  0  0
 10 57  1  0  0  0
 10 58  1  0  0  0
 11 14  1  0  0  0
 11 12  1  0  0  0
 11 59  1  0  0  0
 12 13  1  0  0  0
 12 60  1  0  0  0
 12 61  1  0  0  0
 13 62  1  0  0  0
 13 63  1  0  0  0
 14 15  1  0  0  0
 14 64  1  0  0  0
 14 65  1  0  0  0
 15 17  1  0  0  0
 15 16  1  0  0  0
 15 66  1  0  0  0
 16 67  1  0  0  0
 17 18  1  0  0  0
 17 68  1  0  0  0
 17 69  1  0  0  0
 18 26  1  0  0  0
 18 19  1  0  0  0
 18 70  1  0  0  0
 19 20  1  0  0  0
 19 71  1  0  0  0
 19 72  1  0  0  0
 20 25  2  0  0  0
 20 21  1  0  0  0
 21 22  2  0  0  0
 21 73  1  0  0  0
 22 23  1  0  0  0
 22 74  1  0  0  0
 23 24  2  0  0  0
 23 75  1  0  0  0
 24 25  1  0  0  0
 24 76  1  0  0  0
 25 77  1  0  0  0
 26 28  1  0  0  0
 26 27  2  0  0  0
 28 29  1  0  0  0
 28 78  1  0  0  0
 29 38  1  0  0  0
 29 30  1  0  0  0
 29 79  1  0  0  0
 30 32  1  0  0  0
 30 31  1  0  0  0
 30 80  1  0  0  0
 31 81  1  0  0  0
 32 33  1  0  0  0
 32 82  1  0  0  0
 32 83  1  0  0  0
 33 38  2  0  0  0
 33 34  1  0  0  0
 34 35  2  0  0  0
 34 84  1  0  0  0
 35 36  1  0  0  0
 35 85  1  0  0  0
 36 37  2  0  0  0
 36 86  1  0  0  0
 37 38  1  0  0  0
 37 87  1  0  0  0
 39 40  1  0  0  0
 39 88  1  0  0  0
 39 89  1  0  0  0
 40 45  2  0  0  0
 40 41  1  0  0  0
 41 42  2  0  0  0
 41 90  1  0  0  0
 42 43  1  0  0  0
 43 44  2  0  0  0
 43 91  1  0  0  0
 44 45  1  0  0  0
 44 92  1  0  0  0
 45 93  1  0  0  0
M  CHG  1  11   1
M  END
> <s_m_source_file>
../1c6y_ligand.sdf

> <i_m_source_file_index>
1

> <s_epik_input>
W2NIXTFbY0hdW2NIXW5bY0hdYzFbQ0gyXVtOQEgrXTJbQ0gyXVtDQEBIXShDKD1PKVtOSF1DKFtDSDNdKShbQ0gzXSlbQ0gzXSlbTkBASCtdKFtDSDJdW0NIMl0yKVtDSDJdW0NAQEhdKFtPSF0pW0NIMl1bQ0BASF0oW0NIMl1jM1tjSF1bY0hdW2NIXVtjSF1bY0hdMylDKD1PKVtOSF1bQ0BIXShbQ0BIXShbT0hdKVtDSDJdNCljKGM0NSlbY0hdW2NIXVtjSF1bY0hdNQ==

> <s_epik_cmdline>
J2VwaWtfYXBwJywgJy1pbWFlJywgJ2xpZ2FuZF9wcm8ubWFlJywgJy1vbWFlJywgJ2xpZ2FuZF9wcmVwLm1hZScsICctbXMnLCAnMScsICctcGgnLCAnNycsICctcGh0JywgJzAuNScsICctbnQn

> <r_epik_Ionization_Penalty>
  0.1676

> <r_epik_Ionization_Penalty_Charging>
  0.1567

> <r_epik_Ionization_Penalty_Neutral>
  0.0108

> <r_epik_State_Penalty>
  0.3908

> <r_epik_Charging_Adjusted_Penalty>
0.547583055920383

> <i_epik_Tot_Q>
1

> <i_epik_Tot_abs_Q>
1

$$$$
