1c7e_ligand
                    3D
 Schrodinger Suite 2020-3.
 52 54  0  0  1  0            999 V2000
    7.3650    0.1050    0.9520 N   0  0  0  0  0  0
    7.8280    1.3390    0.6770 C   0  0  0  0  0  0
    8.5200    1.7280   -0.4010 O   0  0  0  0  0  0
    7.4050    2.2210    1.5950 N   0  0  0  0  0  0
    6.6640    1.8990    2.6670 C   0  0  0  0  0  0
    6.1150    2.5780    3.7680 O   0  0  0  0  0  0
    6.2620    0.5010    2.9530 C   0  0  0  0  0  0
    5.5250    0.2380    4.0960 N   0  0  0  0  0  0
    5.1310   -1.1230    4.2360 C   0  0  0  0  0  0
    4.3260   -1.3870    5.3930 C   0  0  0  0  0  0
    3.8420   -2.6660    5.6120 C   0  0  0  0  0  0
    2.9940   -3.0480    6.7130 C   0  0  0  0  0  0
    4.2120   -3.6860    4.7080 C   0  0  0  0  0  0
    3.7040   -4.9900    5.0830 C   0  0  0  0  0  0
    5.0340   -3.3940    3.5920 C   0  0  0  0  0  0
    5.5230   -2.0990    3.2870 C   0  0  0  0  0  0
    6.3380   -1.7940    2.1900 N   0  0  0  0  0  0
    6.6570   -0.3760    2.0100 C   0  0  0  0  0  0
    6.8480   -2.5570    1.1590 C   0  0  0  0  0  0
    7.8600   -3.5750    1.6800 C   0  0  2  0  0  0
    9.0460   -2.9350    2.1750 O   0  0  0  0  0  0
    8.2970   -4.4830    0.5000 C   0  0  2  0  0  0
    7.7480   -5.7850    0.7300 O   0  0  0  0  0  0
    9.7370   -4.6270    0.3510 C   0  0  2  0  0  0
   10.1940   -5.4750   -0.7410 O   0  0  0  0  0  0
   10.2430   -5.5260    1.3970 C   0  0  0  0  0  0
   11.5600   -5.6520    0.8190 O   0  0  0  0  0  0
   12.5130   -6.7750    1.5300 P   0  0  0  0  0  0
   12.5040   -6.7960    3.1580 O   0  0  0  0  0  0
   14.1010   -6.5040    1.0810 O   0  5  0  0  0  0
   12.2360   -8.5170    1.2540 O   0  5  0  0  0  0
    7.5478   -0.7205    0.2483 H   0  0  0  0  0  0
    7.6632    3.2856    1.4949 H   0  0  0  0  0  0
    5.2936    1.0506    4.8003 H   0  0  0  0  0  0
    4.0965   -0.5860    6.0957 H   0  0  0  0  0  0
    2.7827   -2.1664    7.3361 H   0  0  0  0  0  0
    3.5023   -3.8122    7.3193 H   0  0  0  0  0  0
    2.0499   -3.4569    6.3239 H   0  0  0  0  0  0
    3.0958   -4.8982    5.9950 H   0  0  0  0  0  0
    4.5467   -5.6715    5.2713 H   0  0  0  0  0  0
    3.0838   -5.3903    4.2674 H   0  0  0  0  0  0
    5.3068   -4.2142    2.9280 H   0  0  0  0  0  0
    6.0284   -3.0970    0.6623 H   0  0  0  0  0  0
    7.3494   -1.9020    0.4314 H   0  0  0  0  0  0
    7.4253   -4.1086    2.5381 H   0  0  0  0  0  0
    8.9812   -2.2362    3.0220 H   0  0  0  0  0  0
    7.9512   -4.0732   -0.4605 H   0  0  0  0  0  0
    6.6641   -5.9077    0.8717 H   0  0  0  0  0  0
   10.0501   -3.5747    0.2834 H   0  0  0  0  0  0
   10.0169   -5.1723   -1.7836 H   0  0  0  0  0  0
   10.1862   -5.0216    2.3729 H   0  0  0  0  0  0
    9.6327   -6.4408    1.4210 H   0  0  0  0  0  0
  1  2  1  0  0  0
  1 18  1  0  0  0
  1 32  1  0  0  0
  2  3  2  0  0  0
  2  4  1  0  0  0
  4  5  1  0  0  0
  4 33  1  0  0  0
  5  6  2  0  0  0
  5  7  1  0  0  0
  7  8  1  0  0  0
  7 18  2  0  0  0
  8  9  1  0  0  0
  8 34  1  0  0  0
  9 10  2  0  0  0
  9 16  1  0  0  0
 10 11  1  0  0  0
 10 35  1  0  0  0
 11 12  1  0  0  0
 11 13  2  0  0  0
 12 36  1  0  0  0
 12 37  1  0  0  0
 12 38  1  0  0  0
 13 14  1  0  0  0
 13 15  1  0  0  0
 14 39  1  0  0  0
 14 40  1  0  0  0
 14 41  1  0  0  0
 15 16  2  0  0  0
 15 42  1  0  0  0
 16 17  1  0  0  0
 17 18  1  0  0  0
 17 19  1  0  0  0
 19 20  1  0  0  0
 19 43  1  0  0  0
 19 44  1  0  0  0
 20 21  1  0  0  0
 20 22  1  0  0  0
 20 45  1  0  0  0
 21 46  1  0  0  0
 22 23  1  0  0  0
 22 24  1  0  0  0
 22 47  1  0  0  0
 23 48  1  0  0  0
 24 25  1  0  0  0
 24 26  1  0  0  0
 24 49  1  0  0  0
 25 50  1  0  0  0
 26 27  1  0  0  0
 26 51  1  0  0  0
 26 52  1  0  0  0
 27 28  1  0  0  0
 28 29  2  0  0  0
 28 30  1  0  0  0
 28 31  1  0  0  0
M  CHG  2  30  -1  31  -1
M  END
> <s_m_source_file>
../1c7e_ligand.sdf

> <i_m_source_file_index>
1

> <s_epik_input>
Tz1jMVtuSF1jKD1PKVtuSF1jKGMxMilOKGMzYyhbTkhdMilbY0hdYyhbQ0gzXSljKFtDSDNdKVtjSF0zKVtDSDJdW0NASF0oW09IXSlbQ0BIXShbT0hdKVtDQEhdKFtPSF0pW0NIMl1PUCg9TykoW09IXSlbT0hd

> <s_epik_cmdline>
J2VwaWtfYXBwJywgJy1pbWFlJywgJ2xpZ2FuZF9wcm8ubWFlJywgJy1vbWFlJywgJ2xpZ2FuZF9wcmVwLm1hZScsICctbXMnLCAnMScsICctcGgnLCAnNycsICctcGh0JywgJzAuNScsICctbnQn

> <r_lp_tautomer_probability>
0.999801347257086

> <r_epik_Ionization_Penalty>
  0.1170

> <r_epik_Ionization_Penalty_Charging>
  0.1169

> <r_epik_Ionization_Penalty_Neutral>
  0.0001

> <r_epik_State_Penalty>
  0.1063

> <r_epik_Charging_Adjusted_Penalty>
0.223202144986923

> <i_epik_Tot_Q>
-2

> <i_epik_Tot_abs_Q>
2

$$$$
