1c7f_ligand
                    3D
 Schrodinger Suite 2020-3.
 50 52  0  0  1  0            999 V2000
    7.4490   -0.1850    1.2860 N   0  0  0  0  0  0
    7.7240    1.1690    1.0820 C   0  0  0  0  0  0
    8.3660    1.5120   -0.0350 O   0  0  0  0  0  0
    7.2760    2.1550    1.9220 N   0  0  0  0  0  0
    6.6100    1.8570    3.0750 C   0  0  0  0  0  0
    6.1690    2.7160    4.0270 O   0  0  0  0  0  0
    6.3450    0.4520    3.2920 C   0  0  0  0  0  0
    5.6840    0.2030    4.4650 N   0  0  0  0  0  0
    5.3040   -1.1480    4.5890 C   0  0  0  0  0  0
    4.4620   -1.4240    5.6970 C   0  0  0  0  0  0
    4.0700   -2.7560    5.8320 C   0  0  0  0  0  0
    3.1910   -3.0870    6.9160 C   0  0  0  0  0  0
    4.4630   -3.7640    4.9510 C   0  0  0  0  0  0
    4.0190   -5.1250    5.1000 C   0  0  0  0  0  0
    5.3010   -3.4720    3.8670 C   0  0  0  0  0  0
    5.7370   -2.1150    3.7190 C   0  0  0  0  0  0
    6.5510   -1.9070    2.6360 N   0  0  0  0  0  0
    6.8020   -0.5420    2.4350 C   0  0  0  0  0  0
    6.9740   -2.8560    1.7040 C   0  0  0  0  0  0
    8.2400   -3.6080    2.1630 C   0  0  2  0  0  0
    9.2970   -2.6670    2.3310 O   0  0  0  0  0  0
    8.6730   -4.5670    0.9780 C   0  0  2  0  0  0
    7.7930   -5.6930    1.1830 O   0  0  0  0  0  0
   10.0830   -4.9730    0.9210 C   0  0  2  0  0  0
   10.4260   -5.7390   -0.2580 O   0  0  0  0  0  0
   10.5910   -5.6340    2.1310 C   0  0  0  0  0  0
   11.9920   -5.8610    1.8570 O   0  0  0  0  0  0
   12.8930   -6.8080    2.9100 P   0  0  0  0  0  0
   12.6350   -6.5440    4.5040 O   0  0  0  0  0  0
   14.4970   -6.6700    2.4650 O   0  5  0  0  0  0
   12.5270   -8.4080    2.4990 O   0  5  0  0  0  0
    7.4510    3.2119    1.6722 H   0  0  0  0  0  0
    4.1435   -0.6491    6.3943 H   0  0  0  0  0  0
    2.9834   -2.1838    7.5085 H   0  0  0  0  0  0
    3.6674   -3.8441    7.5562 H   0  0  0  0  0  0
    2.2482   -3.4869    6.5145 H   0  0  0  0  0  0
    3.3730   -5.2049    5.9868 H   0  0  0  0  0  0
    4.8913   -5.7841    5.2212 H   0  0  0  0  0  0
    3.4533   -5.4261    4.2059 H   0  0  0  0  0  0
    5.6091   -4.2461    3.1642 H   0  0  0  0  0  0
    6.1766   -3.5975    1.5480 H   0  0  0  0  0  0
    7.2024   -2.3572    0.7506 H   0  0  0  0  0  0
    8.0919   -4.0933    3.1390 H   0  0  0  0  0  0
    9.2232   -1.8895    3.1056 H   0  0  0  0  0  0
    8.5996   -4.1336   -0.0303 H   0  0  0  0  0  0
    6.7059   -5.5371    1.2462 H   0  0  0  0  0  0
   10.6098   -4.0109    0.8381 H   0  0  0  0  0  0
   10.1201   -5.3836   -1.2530 H   0  0  0  0  0  0
   10.4440   -4.9739    2.9986 H   0  0  0  0  0  0
   10.0459   -6.5760    2.2905 H   0  0  0  0  0  0
  1  2  1  0  0  0
  1 18  2  0  0  0
  2  3  2  0  0  0
  2  4  1  0  0  0
  4  5  1  0  0  0
  4 32  1  0  0  0
  5  6  2  0  0  0
  5  7  1  0  0  0
  7  8  2  0  0  0
  7 18  1  0  0  0
  8  9  1  0  0  0
  9 10  2  0  0  0
  9 16  1  0  0  0
 10 11  1  0  0  0
 10 33  1  0  0  0
 11 12  1  0  0  0
 11 13  2  0  0  0
 12 34  1  0  0  0
 12 35  1  0  0  0
 12 36  1  0  0  0
 13 14  1  0  0  0
 13 15  1  0  0  0
 14 37  1  0  0  0
 14 38  1  0  0  0
 14 39  1  0  0  0
 15 16  2  0  0  0
 15 40  1  0  0  0
 16 17  1  0  0  0
 17 18  1  0  0  0
 17 19  1  0  0  0
 19 20  1  0  0  0
 19 41  1  0  0  0
 19 42  1  0  0  0
 20 21  1  0  0  0
 20 22  1  0  0  0
 20 43  1  0  0  0
 21 44  1  0  0  0
 22 23  1  0  0  0
 22 24  1  0  0  0
 22 45  1  0  0  0
 23 46  1  0  0  0
 24 25  1  0  0  0
 24 26  1  0  0  0
 24 47  1  0  0  0
 25 48  1  0  0  0
 26 27  1  0  0  0
 26 49  1  0  0  0
 26 50  1  0  0  0
 27 28  1  0  0  0
 28 29  2  0  0  0
 28 30  1  0  0  0
 28 31  1  0  0  0
M  CHG  2  30  -1  31  -1
M  END
> <s_m_source_file>
../1c7f_ligand.sdf

> <i_m_source_file_index>
1

> <s_epik_input>
Tz1jMVtuSF1jKD1PKW5jKGMxMiluKGMzYyhuMilbY0hdYyhbQ0gzXSljKFtDSDNdKVtjSF0zKVtDSDJdW0NASF0oW09IXSlbQ0BIXShbT0hdKVtDQEhdKFtPSF0pW0NIMl1PUCg9TykoW09IXSlbT0hd

> <s_epik_cmdline>
J2VwaWtfYXBwJywgJy1pbWFlJywgJ2xpZ2FuZF9wcm8ubWFlJywgJy1vbWFlJywgJ2xpZ2FuZF9wcmVwLm1hZScsICctbXMnLCAnMScsICctcGgnLCAnNycsICctcGh0JywgJzAuNScsICctbnQn

> <r_epik_Ionization_Penalty>
  0.1164

> <r_epik_Ionization_Penalty_Charging>
  0.1164

> <r_epik_Ionization_Penalty_Neutral>
  0.0000

> <r_epik_State_Penalty>
  0.1054

> <r_epik_Charging_Adjusted_Penalty>
0.2218027979184

> <i_epik_Tot_Q>
-2

> <i_epik_Tot_abs_Q>
2

$$$$
