1c84_ligand
                    3D
 Schrodinger Suite 2020-3.
 26 27  0  0  1  0            999 V2000
   46.1120    9.8450    1.1060 C   0  0  0  0  0  0
   46.2680   10.9550    1.9320 C   0  0  0  0  0  0
   45.5140   12.1070    1.7330 C   0  0  0  0  0  0
   44.5780   12.1350    0.6840 C   0  0  0  0  0  0
   44.4070   11.0050   -0.1500 C   0  0  0  0  0  0
   45.1610    9.8620    0.0800 C   0  0  0  0  0  0
   45.5930   13.2190    2.5900 C   0  0  0  0  0  0
   44.8060   14.3510    2.3370 C   0  0  0  0  0  0
   43.9380   14.3960    1.2320 C   0  0  0  0  0  0
   43.8280   13.2750    0.3920 C   0  0  0  0  0  0
   43.2860   15.6450    0.8670 C   0  0  0  0  0  0
   43.0190   16.4860    1.6590 O   0  0  0  0  0  0
   43.0500   15.7450   -0.4360 O   0  5  0  0  0  0
   44.7710   15.4290    3.1600 N   0  0  0  0  0  0
   45.1960   15.5540    4.4340 C   0  0  0  0  0  0
   45.4380   14.5940    5.1840 O   0  0  0  0  0  0
   45.3600   17.0140    4.9800 C   0  0  0  0  0  0
   44.4140   17.7450    5.1450 O   0  0  0  0  0  0
   46.6300   17.3760    5.3420 O   0  5  0  0  0  0
   46.7317    8.9615    1.2590 H   0  0  0  0  0  0
   46.9915   10.9208    2.7465 H   0  0  0  0  0  0
   43.6875   11.0316   -0.9684 H   0  0  0  0  0  0
   45.0119    8.9774   -0.5392 H   0  0  0  0  0  0
   46.2643   13.2008    3.4486 H   0  0  0  0  0  0
   43.1670   13.2955   -0.4744 H   0  0  0  0  0  0
   44.3464   16.3792    2.8039 H   0  0  0  0  0  0
  1  6  2  0  0  0
  1  2  1  0  0  0
  1 20  1  0  0  0
  2  3  2  0  0  0
  2 21  1  0  0  0
  3  7  1  0  0  0
  3  4  1  0  0  0
  4 10  1  0  0  0
  4  5  2  0  0  0
  5  6  1  0  0  0
  5 22  1  0  0  0
  6 23  1  0  0  0
  7  8  2  0  0  0
  7 24  1  0  0  0
  8  9  1  0  0  0
  8 14  1  0  0  0
  9 10  2  0  0  0
  9 11  1  0  0  0
 10 25  1  0  0  0
 11 13  1  0  0  0
 11 12  2  0  0  0
 14 15  1  0  0  0
 14 26  1  0  0  0
 15 17  1  0  0  0
 15 16  2  0  0  0
 17 19  1  0  0  0
 17 18  2  0  0  0
M  CHG  2  13  -1  19  -1
M  END
> <s_m_source_file>
../1c84_ligand.sdf

> <i_m_source_file_index>
1

> <s_epik_input>
W2NIXTFbY0hdW2NIXVtjSF1jKGMxMilbY0hdYyhDKD1PKVtPSF0pYyhbY0hdMilbTkhdQyg9TylDKD1PKVtPSF0=

> <s_epik_cmdline>
J2VwaWtfYXBwJywgJy1pbWFlJywgJ2xpZ2FuZF9wcm8ubWFlJywgJy1vbWFlJywgJ2xpZ2FuZF9wcmVwLm1hZScsICctbXMnLCAnMScsICctcGgnLCAnNycsICctcGh0JywgJzAuNScsICctbnQn

> <r_lp_tautomer_probability>
1

> <r_epik_Ionization_Penalty>
  0.0022

> <r_epik_Ionization_Penalty_Charging>
  0.0004

> <r_epik_Ionization_Penalty_Neutral>
  0.0018

> <r_epik_State_Penalty>
 -0.0000

> <r_epik_Charging_Adjusted_Penalty>
0.000423183836677196

> <i_epik_Tot_Q>
-2

> <i_epik_Tot_abs_Q>
2

$$$$
