1c85_ligand
                    3D
 Schrodinger Suite 2020-3.
 20 20  0  0  1  0            999 V2000
   12.4100   45.1770   19.0250 C   0  0  0  0  0  0
   11.4800   45.8550   19.8130 C   0  0  0  0  0  0
   10.1210   45.8720   19.4630 C   0  0  0  0  0  0
    9.7490   45.2960   18.2630 C   0  0  0  0  0  0
   10.6950   44.6340   17.4660 C   0  0  0  0  0  0
   12.0100   44.5500   17.8660 C   0  0  0  0  0  0
    8.3610   45.4000   17.7930 C   0  0  0  0  0  0
    8.3270   45.2570   16.4810 O   0  5  0  0  0  0
    7.4030   45.4890   18.4750 O   0  0  0  0  0  0
    9.1840   46.4720   20.2310 N   0  0  0  0  0  0
    9.2780   47.0290   21.4530 C   0  0  0  0  0  0
   10.3650   47.0510   22.1100 O   0  0  0  0  0  0
    7.8280   47.2610   22.0490 C   0  0  0  0  0  0
    7.3860   48.1360   22.6900 O   0  0  0  0  0  0
    6.9850   46.1480   21.9320 O   0  5  0  0  0  0
   13.4566   45.1433   19.3275 H   0  0  0  0  0  0
   11.8123   46.3772   20.7102 H   0  0  0  0  0  0
   10.3867   44.1827   16.5229 H   0  0  0  0  0  0
   12.7300   43.9905   17.2688 H   0  0  0  0  0  0
    8.1492   46.5594   19.8684 H   0  0  0  0  0  0
  1  2  2  0  0  0
  1  6  1  0  0  0
  1 16  1  0  0  0
  2  3  1  0  0  0
  2 17  1  0  0  0
  3  4  2  0  0  0
  3 10  1  0  0  0
  4  5  1  0  0  0
  4  7  1  0  0  0
  5  6  2  0  0  0
  5 18  1  0  0  0
  6 19  1  0  0  0
  7  8  1  0  0  0
  7  9  2  0  0  0
 10 11  1  0  0  0
 10 20  1  0  0  0
 11 12  2  0  0  0
 11 13  1  0  0  0
 13 14  2  0  0  0
 13 15  1  0  0  0
M  CHG  2   8  -1  15  -1
M  END
> <s_m_source_file>
../1c85_ligand.sdf

> <i_m_source_file_index>
1

> <s_epik_input>
W09IXUMoPU8pYzFbY0hdW2NIXVtjSF1bY0hdYzFbTkhdQyg9TylDKD1PKVtPSF0=

> <s_epik_cmdline>
J2VwaWtfYXBwJywgJy1pbWFlJywgJ2xpZ2FuZF9wcm8ubWFlJywgJy1vbWFlJywgJ2xpZ2FuZF9wcmVwLm1hZScsICctbXMnLCAnMScsICctcGgnLCAnNycsICctcGh0JywgJzAuNScsICctbnQn

> <r_lp_tautomer_probability>
1

> <r_epik_Ionization_Penalty>
  0.0024

> <r_epik_Ionization_Penalty_Charging>
  0.0006

> <r_epik_Ionization_Penalty_Neutral>
  0.0018

> <r_epik_State_Penalty>
 -0.0000

> <r_epik_Charging_Adjusted_Penalty>
0.000579265667987178

> <i_epik_Tot_Q>
-2

> <i_epik_Tot_abs_Q>
2

$$$$
