1c86_ligand
                    3D
 Schrodinger Suite 2020-3.
 25 26  0  0  1  0            999 V2000
   13.8890   44.9070   17.3510 O   0  0  0  0  0  0
   13.8400   45.5110   18.6430 C   0  0  0  0  0  0
   12.4690   45.7520   19.0560 C   0  0  0  0  0  0
   11.2930   45.4210   18.1720 C   0  0  0  0  0  0
   11.4470   44.7150   16.9190 C   0  0  0  0  0  0
   12.8020   44.0280   17.0010 C   0  0  0  0  0  0
   11.9750   46.4310   20.5650 S   0  0  0  0  0  0
   10.3030   46.2120   20.1590 C   0  0  0  0  0  0
   10.0950   45.8770   18.7950 C   0  0  0  0  0  0
    8.8010   45.8600   18.3150 C   0  0  0  0  0  0
    7.6300   45.6820   19.0490 O   0  5  0  0  0  0
    8.4260   45.7710   16.9980 O   0  0  0  0  0  0
    9.2820   46.7880   20.9020 N   0  0  0  0  0  0
    9.3020   47.3290   22.1800 C   0  0  0  0  0  0
    8.0870   47.6560   22.8400 C   0  0  0  0  0  0
    6.9390   46.7860   22.7940 O   0  5  0  0  0  0
    7.9340   48.7300   23.6790 O   0  0  0  0  0  0
   10.5730   47.5160   22.8540 O   0  0  0  0  0  0
   14.3166   44.8450   19.3774 H   0  0  0  0  0  0
   14.3742   46.4723   18.6189 H   0  0  0  0  0  0
   10.6327   43.9839   16.8076 H   0  0  0  0  0  0
   11.4112   45.4332   16.0866 H   0  0  0  0  0  0
   12.9964   43.5787   16.0160 H   0  0  0  0  0  0
   12.7158   43.2328   17.7561 H   0  0  0  0  0  0
    8.2694   46.8637   20.4791 H   0  0  0  0  0  0
  1  6  1  0  0  0
  1  2  1  0  0  0
  2  3  1  0  0  0
  2 19  1  0  0  0
  2 20  1  0  0  0
  3  7  1  0  0  0
  3  4  2  0  0  0
  4  9  1  0  0  0
  4  5  1  0  0  0
  5  6  1  0  0  0
  5 21  1  0  0  0
  5 22  1  0  0  0
  6 23  1  0  0  0
  6 24  1  0  0  0
  7  8  1  0  0  0
  8  9  2  0  0  0
  8 13  1  0  0  0
  9 10  1  0  0  0
 10 12  2  0  0  0
 10 11  1  0  0  0
 13 14  1  0  0  0
 13 25  1  0  0  0
 14 18  2  0  0  0
 14 15  1  0  0  0
 15 17  2  0  0  0
 15 16  1  0  0  0
M  CHG  2  11  -1  16  -1
M  END
> <s_m_source_file>
../1c86_ligand.sdf

> <i_m_source_file_index>
1

> <s_epik_input>
W0NIMl0xT1tDSDJdW0NIMl1jKGMxMiljKEMoPU8pW09IXSljKHMyKVtOSF1DKD1PKUMoPU8pW09IXQ==

> <s_epik_cmdline>
J2VwaWtfYXBwJywgJy1pbWFlJywgJ2xpZ2FuZF9wcm8ubWFlJywgJy1vbWFlJywgJ2xpZ2FuZF9wcmVwLm1hZScsICctbXMnLCAnMScsICctcGgnLCAnNycsICctcGh0JywgJzAuNScsICctbnQn

> <r_lp_tautomer_probability>
1

> <r_epik_Ionization_Penalty>
  0.0009

> <r_epik_Ionization_Penalty_Charging>
  0.0008

> <r_epik_Ionization_Penalty_Neutral>
  0.0001

> <r_epik_State_Penalty>
 -0.0000

> <r_epik_Charging_Adjusted_Penalty>
0.000831188522546436

> <i_epik_Tot_Q>
-2

> <i_epik_Tot_abs_Q>
2

$$$$
