1c87_ligand
                    3D
 Schrodinger Suite 2020-3.
 25 26  0  0  1  0            999 V2000
   13.8520   44.7350   16.7810 O   0  0  0  0  0  0
   13.8860   45.2420   18.1090 C   0  0  0  0  0  0
   12.4530   45.3500   18.5400 C   0  0  0  0  0  0
   11.3710   45.0070   17.8060 C   0  0  0  0  0  0
   11.4160   44.1730   16.5640 C   0  0  0  0  0  0
   12.8920   43.6890   16.5220 C   0  0  0  0  0  0
   12.0250   46.1190   20.0430 S   0  0  0  0  0  0
   10.3900   45.9070   19.6500 C   0  0  0  0  0  0
   10.1010   45.3820   18.4480 C   0  0  0  0  0  0
    8.6910   45.2280   17.9250 C   0  0  0  0  0  0
    7.6230   45.4050   18.6800 O   0  5  0  0  0  0
    8.5240   44.8110   16.8090 O   0  0  0  0  0  0
    9.3280   46.2860   20.5150 N   0  0  0  0  0  0
    9.4010   46.9470   21.6870 C   0  0  0  0  0  0
    7.9860   47.3240   22.2660 C   0  0  0  0  0  0
    7.0460   46.5860   22.2500 O   0  0  0  0  0  0
    7.8950   48.5360   22.8840 O   0  5  0  0  0  0
   10.4090   47.1980   22.3170 O   0  0  0  0  0  0
   14.4457   44.5472   18.7525 H   0  0  0  0  0  0
   14.3800   46.2248   18.1137 H   0  0  0  0  0  0
   10.7008   43.3421   16.6542 H   0  0  0  0  0  0
   11.1495   44.7936   15.6957 H   0  0  0  0  0  0
   13.0704   43.2671   15.5219 H   0  0  0  0  0  0
   12.9991   42.8975   17.2783 H   0  0  0  0  0  0
    8.2891   46.0379   20.2519 H   0  0  0  0  0  0
  1  6  1  0  0  0
  1  2  1  0  0  0
  2  3  1  0  0  0
  2 19  1  0  0  0
  2 20  1  0  0  0
  3  7  1  0  0  0
  3  4  2  0  0  0
  4  9  1  0  0  0
  4  5  1  0  0  0
  5  6  1  0  0  0
  5 21  1  0  0  0
  5 22  1  0  0  0
  6 23  1  0  0  0
  6 24  1  0  0  0
  7  8  1  0  0  0
  8  9  2  0  0  0
  8 13  1  0  0  0
  9 10  1  0  0  0
 10 12  2  0  0  0
 10 11  1  0  0  0
 13 14  1  0  0  0
 13 25  1  0  0  0
 14 18  2  0  0  0
 14 15  1  0  0  0
 15 17  1  0  0  0
 15 16  2  0  0  0
M  CHG  2  11  -1  17  -1
M  END
> <s_m_source_file>
../1c87_ligand.sdf

> <i_m_source_file_index>
1

> <s_epik_input>
W0NIMl0xT1tDSDJdW0NIMl1jKGMxMiljKEMoPU8pW09IXSljKHMyKVtOSF1DKD1PKUMoPU8pW09IXQ==

> <s_epik_cmdline>
J2VwaWtfYXBwJywgJy1pbWFlJywgJ2xpZ2FuZF9wcm8ubWFlJywgJy1vbWFlJywgJ2xpZ2FuZF9wcmVwLm1hZScsICctbXMnLCAnMScsICctcGgnLCAnNycsICctcGh0JywgJzAuNScsICctbnQn

> <r_lp_tautomer_probability>
1

> <r_epik_Ionization_Penalty>
  0.0009

> <r_epik_Ionization_Penalty_Charging>
  0.0008

> <r_epik_Ionization_Penalty_Neutral>
  0.0001

> <r_epik_State_Penalty>
 -0.0000

> <r_epik_Charging_Adjusted_Penalty>
0.000831188522546436

> <i_epik_Tot_Q>
-2

> <i_epik_Tot_abs_Q>
2

$$$$
