1c88_ligand
                    3D
 Schrodinger Suite 2020-3.
 27 28  0  0  1  0            999 V2000
   45.3360   10.3740   -0.2750 N   0  3  0  0  0  0
   45.8220   10.6290    1.1010 C   0  0  0  0  0  0
   45.3220   11.9950    1.5280 C   0  0  0  0  0  0
   44.5870   12.8170    0.7260 C   0  0  0  0  0  0
   43.9230   12.4140   -0.5600 C   0  0  0  0  0  0
   43.9320   10.8990   -0.6460 C   0  0  0  0  0  0
   45.8010   12.7620    3.0770 S   0  0  0  0  0  0
   44.9160   14.1380    2.5710 C   0  0  0  0  0  0
   44.3520   14.0960    1.3660 C   0  0  0  0  0  0
   43.6680   15.2970    0.8590 C   0  0  0  0  0  0
   43.3030   16.2120    1.5490 O   0  0  0  0  0  0
   43.4890   15.2180   -0.4400 O   0  5  0  0  0  0
   44.8140   15.2810    3.4350 N   0  0  0  0  0  0
   45.4360   15.4480    4.6130 C   0  0  0  0  0  0
   45.2080   16.8310    5.1820 C   0  0  0  0  0  0
   46.0190   17.4230    5.8110 O   0  0  0  0  0  0
   43.9100   17.2990    5.0610 O   0  5  0  0  0  0
   46.0470   14.5650    5.2640 O   0  0  0  0  0  0
   45.3618    9.2807   -0.3936 H   0  0  0  0  0  0
   46.0856   10.8324   -0.9368 H   0  0  0  0  0  0
   45.4328    9.8534    1.7769 H   0  0  0  0  0  0
   46.9217   10.6063    1.1116 H   0  0  0  0  0  0
   42.8880   12.7864   -0.5706 H   0  0  0  0  0  0
   44.4759   12.8434   -1.4084 H   0  0  0  0  0  0
   43.6831   10.5873   -1.6711 H   0  0  0  0  0  0
   43.1897   10.4865    0.0531 H   0  0  0  0  0  0
   44.1765   16.1309    3.1499 H   0  0  0  0  0  0
  1  6  1  0  0  0
  1  2  1  0  0  0
  1 19  1  0  0  0
  1 20  1  0  0  0
  2  3  1  0  0  0
  2 21  1  0  0  0
  2 22  1  0  0  0
  3  7  1  0  0  0
  3  4  2  0  0  0
  4  9  1  0  0  0
  4  5  1  0  0  0
  5  6  1  0  0  0
  5 23  1  0  0  0
  5 24  1  0  0  0
  6 25  1  0  0  0
  6 26  1  0  0  0
  7  8  1  0  0  0
  8  9  2  0  0  0
  8 13  1  0  0  0
  9 10  1  0  0  0
 10 12  1  0  0  0
 10 11  2  0  0  0
 13 14  1  0  0  0
 13 27  1  0  0  0
 14 18  2  0  0  0
 14 15  1  0  0  0
 15 17  1  0  0  0
 15 16  2  0  0  0
M  CHG  3   1   1  12  -1  17  -1
M  END
> <s_m_source_file>
../1c88_ligand.sdf

> <i_m_source_file_index>
1

> <s_epik_input>
W0NIMl0xW05IMitdW0NIMl1bQ0gyXWMoYzEyKWMoQyg9TylbT0hdKWMoczIpW05IXUMoPU8pQyg9TylbT0hd

> <s_epik_cmdline>
J2VwaWtfYXBwJywgJy1pbWFlJywgJ2xpZ2FuZF9wcm8ubWFlJywgJy1vbWFlJywgJ2xpZ2FuZF9wcmVwLm1hZScsICctbXMnLCAnMScsICctcGgnLCAnNycsICctcGh0JywgJzAuNScsICctbnQn

> <r_epik_Ionization_Penalty>
  0.0295

> <r_epik_Ionization_Penalty_Charging>
  0.0294

> <r_epik_Ionization_Penalty_Neutral>
  0.0001

> <r_epik_State_Penalty>
  0.0239

> <r_epik_Charging_Adjusted_Penalty>
0.0533082130191149

> <i_epik_Tot_Q>
-1

> <i_epik_Tot_abs_Q>
3

$$$$
