1c8k_ligand
                    3D
 Schrodinger Suite 2020-3.
 49 52  0  0  1  0            999 V2000
   43.6080   40.0770   27.8640 C   0  0  0  0  0  0
   42.6230   39.6510   28.8790 N   0  3  1  0  0  0
   41.2240   39.6490   28.3510 C   0  0  0  0  0  0
   40.1800   39.2250   29.4250 C   0  0  0  0  0  0
   40.6120   37.8860   30.0840 C   0  0  1  0  0  0
   42.0980   37.9350   30.6030 C   0  0  1  0  0  0
   43.0260   38.3180   29.4190 C   0  0  0  0  0  0
   39.5350   37.5130   31.1380 C   0  0  0  0  0  0
   38.6990   36.4150   30.8150 C   0  0  0  0  0  0
   38.8860   35.7310   29.5890 O   0  0  0  0  0  0
   38.1580   34.6600   29.1780 C   0  0  0  0  0  0
   37.1540   34.1700   29.9490 C   0  0  0  0  0  0
   36.8480   34.7840   31.2610 C   0  0  0  0  0  0
   35.9610   34.3380   31.9540 O   0  0  0  0  0  0
   37.6840   35.9780   31.7160 C   0  0  0  0  0  0
   37.4860   36.6450   32.9650 C   0  0  0  0  0  0
   36.5010   36.2430   33.8840 O   0  0  0  0  0  0
   38.3120   37.7460   33.2850 C   0  0  0  0  0  0
   39.3360   38.1830   32.3920 C   0  0  0  0  0  0
   40.1330   39.2620   32.7390 O   0  0  0  0  0  0
   38.4970   34.0180   27.8170 C   0  0  0  0  0  0
   38.9230   34.8060   26.6740 C   0  0  0  0  0  0
   39.0800   36.5310   26.7370 Cl  0  0  0  0  0  0
   39.2310   34.1870   25.4410 C   0  0  0  0  0  0
   39.1330   32.7750   25.2970 C   0  0  0  0  0  0
   38.7090   31.9770   26.4170 C   0  0  0  0  0  0
   38.4000   32.5920   27.6640 C   0  0  0  0  0  0
   42.3800   38.9180   31.6090 O   0  0  0  0  0  0
   43.3181   41.0587   27.4611 H   0  0  0  0  0  0
   43.6361   39.3396   27.0482 H   0  0  0  0  0  0
   44.6032   40.1499   28.3268 H   0  0  0  0  0  0
   42.6319   40.3897   29.6940 H   0  0  0  0  0  0
   40.9613   40.6595   28.0049 H   0  0  0  0  0  0
   41.1502   38.9429   27.5108 H   0  0  0  0  0  0
   40.1123   40.0044   30.1983 H   0  0  0  0  0  0
   39.1969   39.0943   28.9492 H   0  0  0  0  0  0
   40.6305   37.0687   29.3480 H   0  0  0  0  0  0
   42.2983   36.9790   31.1089 H   0  0  0  0  0  0
   42.9398   37.5601   28.6265 H   0  0  0  0  0  0
   44.0673   38.3643   29.7704 H   0  0  0  0  0  0
   36.5693   33.3189   29.5999 H   0  0  0  0  0  0
   35.8487   35.3882   33.6522 H   0  0  0  0  0  0
   38.1647   38.2701   34.2293 H   0  0  0  0  0  0
   40.9240   39.6039   32.0553 H   0  0  0  0  0  0
   39.5461   34.7963   24.5939 H   0  0  0  0  0  0
   39.3771   32.3015   24.3461 H   0  0  0  0  0  0
   38.6238   30.8956   26.3104 H   0  0  0  0  0  0
   38.0878   31.9771   28.5081 H   0  0  0  0  0  0
   41.8522   38.8849   32.5735 H   0  0  0  0  0  0
  1  2  1  0  0  0
  1 29  1  0  0  0
  1 30  1  0  0  0
  1 31  1  0  0  0
  2  3  1  0  0  0
  2  7  1  0  0  0
  2 32  1  0  0  0
  3  4  1  0  0  0
  3 33  1  0  0  0
  3 34  1  0  0  0
  4  5  1  0  0  0
  4 35  1  0  0  0
  4 36  1  0  0  0
  5  6  1  0  0  0
  5  8  1  0  0  0
  5 37  1  0  0  0
  6  7  1  0  0  0
  6 28  1  0  0  0
  6 38  1  0  0  0
  7 39  1  0  0  0
  7 40  1  0  0  0
  8  9  2  0  0  0
  8 19  1  0  0  0
  9 10  1  0  0  0
  9 15  1  0  0  0
 10 11  1  0  0  0
 11 12  2  0  0  0
 11 21  1  0  0  0
 12 13  1  0  0  0
 12 41  1  0  0  0
 13 14  2  0  0  0
 13 15  1  0  0  0
 15 16  2  0  0  0
 16 17  1  0  0  0
 16 18  1  0  0  0
 17 42  1  0  0  0
 18 19  2  0  0  0
 18 43  1  0  0  0
 19 20  1  0  0  0
 20 44  1  0  0  0
 21 22  2  0  0  0
 21 27  1  0  0  0
 22 23  1  0  0  0
 22 24  1  0  0  0
 24 25  2  0  0  0
 24 45  1  0  0  0
 25 26  1  0  0  0
 25 46  1  0  0  0
 26 27  2  0  0  0
 26 47  1  0  0  0
 27 48  1  0  0  0
 28 49  1  0  0  0
M  CHG  1   2   1
M  END
> <s_m_source_file>
../1c8k_ligand.sdf

> <i_m_source_file_index>
1

> <s_epik_input>
W0NIM11bTkBIK10xW0NIMl1bQ0gyXVtDQEBIXShbQ0BASF0oW0NIMl0xKVtPSF0pYzJjKFtPSF0pW2NIXWMoW09IXSljKGMyMyljKD1PKVtjSF1jKG8zKS1jNGMoQ2wpW2NIXVtjSF1bY0hdW2NIXTQ=

> <s_epik_cmdline>
J2VwaWtfYXBwJywgJy1pbWFlJywgJ2xpZ2FuZF9wcm8ubWFlJywgJy1vbWFlJywgJ2xpZ2FuZF9wcmVwLm1hZScsICctbXMnLCAnMScsICctcGgnLCAnNycsICctcGh0JywgJzAuNScsICctbnQn

> <r_lp_tautomer_probability>
1

> <r_epik_Ionization_Penalty>
  0.0511

> <r_epik_Ionization_Penalty_Charging>
  0.0145

> <r_epik_Ionization_Penalty_Neutral>
  0.0367

> <r_epik_State_Penalty>
 -0.0000

> <r_epik_Charging_Adjusted_Penalty>
0.0144761008223437

> <i_epik_Tot_Q>
1

> <i_epik_Tot_abs_Q>
1

$$$$
