1c8l_ligand
                    3D
 Schrodinger Suite 2020-3.
 48 49  0  0  1  0            999 V2000
   27.9840    2.2510   52.8030 C   0  0  0  0  0  0
   27.3740    3.6400   53.2040 C   0  0  0  0  0  0
   27.5180    4.1850   54.5800 C   0  0  0  0  0  0
   28.2810    3.3460   55.5780 C   0  0  0  0  0  0
   28.8430    2.1180   55.2840 C   0  0  0  0  0  0
   28.7160    1.5580   53.9240 C   0  0  0  0  0  0
   27.8130    1.6960   51.2780 C   0  0  2  0  0  0
   26.9240    0.2420   51.2620 C   0  0  0  0  0  0
   29.9220    0.3260   50.5510 C   0  0  0  0  0  0
   27.5800   -1.0080   51.0400 C   0  0  0  0  0  0
   29.2470    1.6420   50.7020 C   0  0  0  0  0  0
   29.9120    3.0060   50.3170 C   0  0  0  0  0  0
   31.2670    0.2260   50.0340 C   0  0  0  0  0  0
   26.9550   -2.3850   50.9090 C   0  0  0  0  0  0
   30.1650   -2.1880   53.0780 C   0  0  0  0  0  0
   29.9110   -2.0780   51.5870 C   0  0  0  0  0  0
   25.3130    0.4070   51.4540 C   0  0  0  0  0  0
   23.3250    2.0490   51.2840 C   0  0  0  0  0  0
   23.1830    2.5150   52.7870 C   0  0  0  0  0  0
   23.1540    3.1190   50.2240 C   0  0  0  0  0  0
   29.1240   -0.9320   50.9800 N   0  0  0  0  0  0
   29.1510    3.9740   50.0270 O   0  5  0  0  0  0
   31.1170    3.2400   50.2400 O   0  0  0  0  0  0
   32.1510    0.5650   50.8990 O   0  5  0  0  0  0
   31.4150   -0.1680   48.9280 O   0  0  0  0  0  0
   24.6060   -0.4760   51.9310 O   0  0  0  0  0  0
   24.8660    1.6380   51.1200 O   0  0  0  0  0  0
   26.5250    4.5890   52.1160 Cl  0  0  0  0  0  0
   27.0911    5.1490   54.8568 H   0  0  0  0  0  0
   28.3952    3.7323   56.5908 H   0  0  0  0  0  0
   29.3789    1.5641   56.0548 H   0  0  0  0  0  0
   29.1763    0.5914   53.7193 H   0  0  0  0  0  0
   27.2927    2.3885   50.6000 H   0  0  0  0  0  0
   25.8600   -2.2978   50.9678 H   0  0  0  0  0  0
   27.3157   -3.0304   51.7235 H   0  0  0  0  0  0
   27.2363   -2.8247   49.9408 H   0  0  0  0  0  0
   30.7533   -3.0944   53.2838 H   0  0  0  0  0  0
   29.2041   -2.2458   53.6103 H   0  0  0  0  0  0
   30.7218   -1.3036   53.4213 H   0  0  0  0  0  0
   30.8719   -2.0202   51.0547 H   0  0  0  0  0  0
   29.3542   -2.9624   51.2437 H   0  0  0  0  0  0
   22.5251    1.3162   51.1023 H   0  0  0  0  0  0
   22.1430    2.8163   52.9807 H   0  0  0  0  0  0
   23.8523    3.3683   52.9711 H   0  0  0  0  0  0
   23.4549    1.6848   53.4555 H   0  0  0  0  0  0
   22.1174    3.4868   50.2382 H   0  0  0  0  0  0
   23.3788    2.6942   49.2346 H   0  0  0  0  0  0
   23.8417    3.9525   50.4301 H   0  0  0  0  0  0
  1  2  2  0  0  0
  1  6  1  0  0  0
  1  7  1  0  0  0
  2  3  1  0  0  0
  2 28  1  0  0  0
  3  4  2  0  0  0
  3 29  1  0  0  0
  4  5  1  0  0  0
  4 30  1  0  0  0
  5  6  2  0  0  0
  5 31  1  0  0  0
  6 32  1  0  0  0
  7  8  1  0  0  0
  7 11  1  0  0  0
  7 33  1  0  0  0
  8 10  2  0  0  0
  8 17  1  0  0  0
  9 11  2  0  0  0
  9 13  1  0  0  0
  9 21  1  0  0  0
 10 14  1  0  0  0
 10 21  1  0  0  0
 11 12  1  0  0  0
 12 22  1  0  0  0
 12 23  2  0  0  0
 13 24  1  0  0  0
 13 25  2  0  0  0
 14 34  1  0  0  0
 14 35  1  0  0  0
 14 36  1  0  0  0
 15 16  1  0  0  0
 15 37  1  0  0  0
 15 38  1  0  0  0
 15 39  1  0  0  0
 16 21  1  0  0  0
 16 40  1  0  0  0
 16 41  1  0  0  0
 17 26  2  0  0  0
 17 27  1  0  0  0
 18 19  1  0  0  0
 18 20  1  0  0  0
 18 27  1  0  0  0
 18 42  1  0  0  0
 19 43  1  0  0  0
 19 44  1  0  0  0
 19 45  1  0  0  0
 20 46  1  0  0  0
 20 47  1  0  0  0
 20 48  1  0  0  0
M  CHG  2  22  -1  24  -1
M  END
> <s_m_source_file>
../1c8l_ligand.sdf

> <i_m_source_file_index>
1

> <s_epik_input>
W2NIXTFbY0hdW2NIXVtjSF1jKENsKWMxW0NAQEhdMkMoQyg9TylPW0NIXShbQ0gzXSlbQ0gzXSk9QyhbQ0gzXSlOKFtDSDJdW0NIM10pQyhDKD1PKVtPSF0pPUMyQyg9TylbT0hd

> <s_epik_cmdline>
J2VwaWtfYXBwJywgJy1pbWFlJywgJ2xpZ2FuZF9wcm8ubWFlJywgJy1vbWFlJywgJ2xpZ2FuZF9wcmVwLm1hZScsICctbXMnLCAnMScsICctcGgnLCAnNycsICctcGh0JywgJzAuNScsICctbnQn

> <r_lp_tautomer_probability>
1

> <r_epik_Ionization_Penalty>
  0.0007

> <r_epik_Ionization_Penalty_Charging>
  0.0007

> <r_epik_Ionization_Penalty_Neutral>
  0.0000

> <r_epik_State_Penalty>
 -0.0000

> <r_epik_Charging_Adjusted_Penalty>
0.000675009627634526

> <i_epik_Tot_Q>
-2

> <i_epik_Tot_abs_Q>
2

> <s_epik_Chemistry_Notes>
This compound has an ester and may undergo hydrolysis at high or low pH.

$$$$
