1c8v_ligand
                    3D
 Schrodinger Suite 2020-3.
 30 30  0  0  1  0            999 V2000
   48.4100   29.4010   10.0770 P   0  0  0  0  0  0
   49.4360   30.5170   10.1960 O   0  5  0  0  0  0
   48.6340   28.8270    8.7100 O   0  0  0  0  0  0
   47.0730   30.1480    9.9630 O   0  0  0  0  0  0
   48.4960   28.2380   11.3430 C   0  0  0  0  0  0
   48.5490   28.8450   12.7530 C   0  0  0  0  0  0
   48.9750   28.2830   15.1840 C   0  0  0  0  0  0
   48.6130   27.7460   13.8060 C   0  0  0  0  0  0
   49.0200   26.8740   16.3090 S   0  0  0  0  0  0
   52.0160   27.1870   15.3120 O   0  0  0  0  0  0
   51.7880   23.5660   14.8230 C   0  0  0  0  0  0
   52.2830   24.8810   14.8590 C   0  0  0  0  0  0
   51.4760   25.9280   15.3030 C   0  0  0  0  0  0
   50.1440   25.6410   15.7230 C   0  0  0  0  0  0
   49.6550   24.3290   15.6860 C   0  0  0  0  0  0
   50.4780   23.2910   15.2380 C   0  0  0  0  0  0
   46.9329   30.9086    9.1808 H   0  0  0  0  0  0
   47.6094   27.5880   11.3046 H   0  0  0  0  0  0
   49.4032   27.6283   11.2198 H   0  0  0  0  0  0
   49.4423   29.4803   12.8454 H   0  0  0  0  0  0
   47.6480   29.4521   12.9250 H   0  0  0  0  0  0
   49.9580   28.7745   15.1393 H   0  0  0  0  0  0
   48.2154   29.0109   15.5051 H   0  0  0  0  0  0
   47.6329   27.2522   13.8806 H   0  0  0  0  0  0
   49.3751   27.0067   13.5186 H   0  0  0  0  0  0
   53.0513   27.3438   14.9751 H   0  0  0  0  0  0
   52.4264   22.7559   14.4705 H   0  0  0  0  0  0
   53.3046   25.0838   14.5377 H   0  0  0  0  0  0
   48.6347   24.1174   16.0059 H   0  0  0  0  0  0
   50.1008   22.2687   15.2116 H   0  0  0  0  0  0
  1  2  1  0  0  0
  1  3  2  0  0  0
  1  4  1  0  0  0
  1  5  1  0  0  0
  4 17  1  0  0  0
  5  6  1  0  0  0
  5 18  1  0  0  0
  5 19  1  0  0  0
  6  8  1  0  0  0
  6 20  1  0  0  0
  6 21  1  0  0  0
  7  8  1  0  0  0
  7  9  1  0  0  0
  7 22  1  0  0  0
  7 23  1  0  0  0
  8 24  1  0  0  0
  8 25  1  0  0  0
  9 14  1  0  0  0
 10 13  1  0  0  0
 10 26  1  0  0  0
 11 12  2  0  0  0
 11 16  1  0  0  0
 11 27  1  0  0  0
 12 13  1  0  0  0
 12 28  1  0  0  0
 13 14  2  0  0  0
 14 15  1  0  0  0
 15 16  2  0  0  0
 15 29  1  0  0  0
 16 30  1  0  0  0
M  CHG  1   2  -1
M  END
> <s_m_source_file>
../1c8v_ligand.sdf

> <i_m_source_file_index>
1

> <s_epik_input>
W09IXVAoPU8pKFtPSF0pW0NIMl1bQ0gyXVtDSDJdW0NIMl1TYzFbY0hdW2NIXVtjSF1bY0hdYzFbT0hd

> <s_epik_cmdline>
J2VwaWtfYXBwJywgJy1pbWFlJywgJ2xpZ2FuZF9wcm8ubWFlJywgJy1vbWFlJywgJ2xpZ2FuZF9wcmVwLm1hZScsICctbXMnLCAnMScsICctcGgnLCAnNycsICctcGh0JywgJzAuNScsICctbnQn

> <r_lp_tautomer_probability>
0.999999999997365

> <r_epik_Ionization_Penalty>
  0.0863

> <r_epik_Ionization_Penalty_Charging>
  0.0000

> <r_epik_Ionization_Penalty_Neutral>
  0.0862

> <r_epik_State_Penalty>
  0.0738

> <r_epik_Charging_Adjusted_Penalty>
0.0738544678431007

> <i_epik_Tot_Q>
-1

> <i_epik_Tot_abs_Q>
1

$$$$
