1c9d_ligand
                    3D
 Schrodinger Suite 2020-3.
 30 30  0  0  1  0            999 V2000
   48.6380   29.6800    9.8960 P   0  0  0  0  0  0
   47.4120   30.4050    9.8700 O   0  5  0  0  0  0
   48.7220   28.8610    8.7600 O   0  0  0  0  0  0
   49.7060   30.5850    9.9370 O   0  0  0  0  0  0
   48.6670   29.4480   12.7140 C   0  0  0  0  0  0
   48.3390   27.9400   14.7410 C   0  0  0  0  0  0
   49.9650   24.7630   15.6320 C   0  0  0  0  0  0
   50.3470   26.1260   15.7160 C   0  0  0  0  0  0
   51.7050   26.5190   15.3850 C   0  0  0  0  0  0
   52.1370   27.8750   15.4570 O   0  0  0  0  0  0
   52.6290   25.5320   14.9870 C   0  0  0  0  0  0
   52.2260   24.1720   14.9110 C   0  0  0  0  0  0
   50.8850   23.7960   15.2390 C   0  0  0  0  0  0
   50.5000   22.4760   15.1660 F   0  0  0  0  0  0
   49.0870   27.2930   16.2430 S   0  0  0  0  0  0
   49.2980   28.8680   13.9960 C   0  0  0  0  0  0
   48.7210   28.6310   11.4210 C   0  0  0  0  0  0
   48.6895   29.3085    7.7557 H   0  0  0  0  0  0
   47.5945   29.6260   12.8814 H   0  0  0  0  0  0
   49.1608   30.3974   12.4594 H   0  0  0  0  0  0
   48.0726   27.1058   14.0753 H   0  0  0  0  0  0
   47.4326   28.5078   14.9979 H   0  0  0  0  0  0
   48.9438   24.4709   15.8769 H   0  0  0  0  0  0
   51.4321   28.6612   15.7653 H   0  0  0  0  0  0
   53.6524   25.8121   14.7376 H   0  0  0  0  0  0
   52.9421   23.4109   14.6012 H   0  0  0  0  0  0
   50.1973   28.2915   13.7336 H   0  0  0  0  0  0
   49.5740   29.6898   14.6731 H   0  0  0  0  0  0
   47.8714   27.9324   11.4321 H   0  0  0  0  0  0
   49.6629   28.0629   11.4245 H   0  0  0  0  0  0
  1  2  1  0  0  0
  1  3  1  0  0  0
  1  4  2  0  0  0
  1 17  1  0  0  0
  3 18  1  0  0  0
  5 16  1  0  0  0
  5 17  1  0  0  0
  5 19  1  0  0  0
  5 20  1  0  0  0
  6 15  1  0  0  0
  6 16  1  0  0  0
  6 21  1  0  0  0
  6 22  1  0  0  0
  7  8  2  0  0  0
  7 13  1  0  0  0
  7 23  1  0  0  0
  8  9  1  0  0  0
  8 15  1  0  0  0
  9 10  1  0  0  0
  9 11  2  0  0  0
 10 24  1  0  0  0
 11 12  1  0  0  0
 11 25  1  0  0  0
 12 13  2  0  0  0
 12 26  1  0  0  0
 13 14  1  0  0  0
 16 27  1  0  0  0
 16 28  1  0  0  0
 17 29  1  0  0  0
 17 30  1  0  0  0
M  CHG  1   2  -1
M  END
> <s_m_source_file>
../1c9d_ligand.sdf

> <i_m_source_file_index>
1

> <s_epik_input>
W09IXVAoPU8pKFtPSF0pW0NIMl1bQ0gyXVtDSDJdW0NIMl1TYzFbY0hdYyhGKVtjSF1bY0hdYzFbT0hd

> <s_epik_cmdline>
J2VwaWtfYXBwJywgJy1pbWFlJywgJ2xpZ2FuZF9wcm8ubWFlJywgJy1vbWFlJywgJ2xpZ2FuZF9wcmVwLm1hZScsICctbXMnLCAnMScsICctcGgnLCAnNycsICctcGh0JywgJzAuNScsICctbnQn

> <r_lp_tautomer_probability>
0.999999999997365

> <r_epik_Ionization_Penalty>
  0.0876

> <r_epik_Ionization_Penalty_Charging>
  0.0000

> <r_epik_Ionization_Penalty_Neutral>
  0.0876

> <r_epik_State_Penalty>
  0.0742

> <r_epik_Charging_Adjusted_Penalty>
0.0742026723449915

> <i_epik_Tot_Q>
-1

> <i_epik_Tot_abs_Q>
1

$$$$
