1ca8_ligand
                    3D
 Schrodinger Suite 2020-3.
 72 74  0  0  1  0            999 V2000
   18.6280  -17.1000   26.1640 C   0  0  0  0  0  0
   19.8580  -16.2600   26.0600 C   0  0  0  0  0  0
   19.7060  -14.8910   26.2070 C   0  0  0  0  0  0
   20.8440  -14.0810   26.0400 C   0  0  0  0  0  0
   21.9840  -14.5750   25.4250 C   0  0  0  0  0  0
   22.0460  -15.9360   25.1200 C   0  0  0  0  0  0
   21.0700  -16.7860   25.6380 C   0  0  0  0  0  0
   17.9370  -17.6440   24.6120 S   0  0  0  0  0  0
   16.6770  -18.1960   24.9690 O   0  0  0  0  0  0
   18.9040  -18.2950   23.7880 O   0  0  0  0  0  0
   17.5900  -16.3240   23.6630 N   0  0  3  0  0  0
   18.5400  -15.6440   22.8780 C   0  0  1  0  0  0
   19.1600  -16.4120   21.7510 C   0  0  0  0  0  0
   20.2190  -15.5760   21.0750 C   0  0  0  0  0  0
   17.9390  -14.3150   22.3400 C   0  0  0  0  0  0
   19.8340  -14.1580   20.7280 C   0  0  0  0  0  0
   16.9630  -13.9360   22.9870 O   0  0  0  0  0  0
   18.6590  -13.6550   21.4610 N   0  0  0  0  0  0
   18.0200  -12.3710   21.1560 C   0  0  0  0  0  0
   16.6930  -12.8930   20.5090 C   0  0  0  0  0  0
   16.8310  -13.7370   19.5700 O   0  0  0  0  0  0
   12.3450  -14.4110   22.1290 C   0  0  0  0  0  0
   12.6940  -13.8550   23.5410 C   0  0  0  0  0  0
   15.9810  -11.6610   20.5400 N   0  0  0  0  0  0
   14.7790  -11.5250   19.6560 C   0  0  2  0  0  0
   14.9020  -10.9010   18.2600 C   0  0  0  0  0  0
   15.8910  -11.0530   17.5180 O   0  0  0  0  0  0
   13.5360  -11.0010   20.4130 C   0  0  0  0  0  0
   11.1630  -12.0680   24.7230 C   0  0  0  0  0  0
   12.1640  -12.4480   23.7400 N   0  0  0  0  0  0
   12.5240  -13.3060   21.0250 C   0  0  0  0  0  0
   13.2930  -12.0500   21.5230 C   0  0  2  0  0  0
   12.8270  -11.4250   22.8560 C   0  0  0  0  0  0
   10.4650  -12.9970   25.3010 N   0  3  0  0  0  0
   10.9140  -10.8080   24.9300 N   0  0  0  0  0  0
   18.8530  -18.0100   26.7396 H   0  0  0  0  0  0
   17.8368  -16.5302   26.6734 H   0  0  0  0  0  0
   18.7355  -14.4552   26.4445 H   0  0  0  0  0  0
   20.8292  -13.0518   26.3987 H   0  0  0  0  0  0
   22.8161  -13.9134   25.1842 H   0  0  0  0  0  0
   22.8434  -16.3270   24.4881 H   0  0  0  0  0  0
   21.2582  -17.8572   25.7109 H   0  0  0  0  0  0
   16.5863  -15.8967   23.8047 H   0  0  0  0  0  0
   19.3360  -15.5423   23.6304 H   0  0  0  0  0  0
   19.6209  -17.3306   22.1431 H   0  0  0  0  0  0
   18.3846  -16.6755   21.0166 H   0  0  0  0  0  0
   21.0985  -15.4978   21.7310 H   0  0  0  0  0  0
   20.5103  -16.0503   20.1262 H   0  0  0  0  0  0
   20.6717  -13.4836   20.9591 H   0  0  0  0  0  0
   19.5972  -14.0943   19.6557 H   0  0  0  0  0  0
   17.8757  -11.8030   22.0869 H   0  0  0  0  0  0
   18.6607  -11.7960   20.4712 H   0  0  0  0  0  0
   13.0097  -15.2550   21.8927 H   0  0  0  0  0  0
   11.2996  -14.7532   22.1178 H   0  0  0  0  0  0
   12.2493  -14.5032   24.3105 H   0  0  0  0  0  0
   13.7866  -13.8331   23.6667 H   0  0  0  0  0  0
   16.2870  -10.8240   21.1849 H   0  0  0  0  0  0
   14.6926  -12.5908   19.3980 H   0  0  0  0  0  0
   14.0821  -11.2637   17.6227 H   0  0  0  0  0  0
   14.8457   -9.8055   18.3418 H   0  0  0  0  0  0
   15.9136  -10.5761   16.5270 H   0  0  0  0  0  0
   13.7521  -10.0054   20.8278 H   0  0  0  0  0  0
   12.6857  -10.9322   19.7185 H   0  0  0  0  0  0
   13.0880  -13.7225   20.1774 H   0  0  0  0  0  0
   11.5354  -12.9706   20.6782 H   0  0  0  0  0  0
   14.2751  -12.4638   21.7953 H   0  0  0  0  0  0
   12.1150  -10.6168   22.6326 H   0  0  0  0  0  0
   13.7046  -11.0082   23.3719 H   0  0  0  0  0  0
   10.6941  -14.0559   25.1106 H   0  0  0  0  0  0
   11.5192  -10.0382   24.4288 H   0  0  0  0  0  0
   10.0983  -10.5124   25.6062 H   0  0  0  0  0  0
    9.6443  -12.7255   25.9813 H   0  0  0  0  0  0
  1  2  1  0  0  0
  1  8  1  0  0  0
  1 36  1  0  0  0
  1 37  1  0  0  0
  2  3  2  0  0  0
  2  7  1  0  0  0
  3  4  1  0  0  0
  3 38  1  0  0  0
  4  5  2  0  0  0
  4 39  1  0  0  0
  5  6  1  0  0  0
  5 40  1  0  0  0
  6  7  2  0  0  0
  6 41  1  0  0  0
  7 42  1  0  0  0
  8  9  2  0  0  0
  8 10  2  0  0  0
  8 11  1  0  0  0
 11 12  1  0  0  0
 11 43  1  0  0  0
 12 13  1  0  0  0
 12 15  1  0  0  0
 12 44  1  0  0  0
 13 14  1  0  0  0
 13 45  1  0  0  0
 13 46  1  0  0  0
 14 16  1  0  0  0
 14 47  1  0  0  0
 14 48  1  0  0  0
 15 17  2  0  0  0
 15 18  1  0  0  0
 16 18  1  0  0  0
 16 49  1  0  0  0
 16 50  1  0  0  0
 18 19  1  0  0  0
 19 20  1  0  0  0
 19 51  1  0  0  0
 19 52  1  0  0  0
 20 21  2  0  0  0
 20 24  1  0  0  0
 22 23  1  0  0  0
 22 31  1  0  0  0
 22 53  1  0  0  0
 22 54  1  0  0  0
 23 30  1  0  0  0
 23 55  1  0  0  0
 23 56  1  0  0  0
 24 25  1  0  0  0
 24 57  1  0  0  0
 25 26  1  0  0  0
 25 28  1  0  0  0
 25 58  1  0  0  0
 26 27  1  0  0  0
 26 59  1  0  0  0
 26 60  1  0  0  0
 27 61  1  0  0  0
 28 32  1  0  0  0
 28 62  1  0  0  0
 28 63  1  0  0  0
 29 30  1  0  0  0
 29 34  2  0  0  0
 29 35  1  0  0  0
 30 33  1  0  0  0
 31 32  1  0  0  0
 31 64  1  0  0  0
 31 65  1  0  0  0
 32 33  1  0  0  0
 32 66  1  0  0  0
 33 67  1  0  0  0
 33 68  1  0  0  0
 34 69  1  0  0  0
 34 72  1  0  0  0
 35 70  1  0  0  0
 35 71  1  0  0  0
M  CHG  1  34   1
M  END
> <s_m_source_file>
../1ca8_ligand.sdf

> <i_m_source_file_index>
1

> <s_epik_input>
W2NIXTFbY0hdW2NIXVtjSF1bY0hdYzFbQ0gyXVMoPU8pKD1PKVtOSF1bQ0BIXTJbQ0gyXVtDSDJdW0NIMl1OKEMyPU8pW0NIMl1DKD1PKVtOSF1bQ0BIXShbQ0gyXVtPSF0pW0NIMl1bQ0BASF0oW0NIMl0zKVtDSDJdW0NIMl1bQ0gyXU4zL0MoPU5cW0hdKVtOSDJd

> <s_epik_cmdline>
J2VwaWtfYXBwJywgJy1pbWFlJywgJ2xpZ2FuZF9wcm8ubWFlJywgJy1vbWFlJywgJ2xpZ2FuZF9wcmVwLm1hZScsICctbXMnLCAnMScsICctcGgnLCAnNycsICctcGh0JywgJzAuNScsICctbnQn

> <r_lp_tautomer_probability>
1

> <r_epik_Ionization_Penalty>
  0.0001

> <r_epik_Ionization_Penalty_Charging>
  0.0000

> <r_epik_Ionization_Penalty_Neutral>
  0.0001

> <r_epik_State_Penalty>
 -0.0000

> <r_epik_Charging_Adjusted_Penalty>
6.78176868298435e-06

> <i_epik_Tot_Q>
1

> <i_epik_Tot_abs_Q>
1

> <s_epik_Chemistry_Notes>
This compound has an imine and may undergo hydrolysis.

$$$$
