1caq_ligand
                    3D
 Schrodinger Suite 2020-3.
 63 67  0  0  1  0            999 V2000
   16.9890    9.0060   17.9520 N   0  0  0  0  0  0
   16.2400    8.6210   20.2690 C   0  0  0  0  0  0
   15.7820    7.7660   21.2490 C   0  0  0  0  0  0
   15.3750    6.4870   20.9090 C   0  0  0  0  0  0
   15.3000    6.0830   19.5890 C   0  0  0  0  0  0
    8.6120    2.9830   20.4130 N   0  0  0  0  0  0
   12.3680    4.9770   21.8300 C   0  0  1  0  0  0
   20.7400   12.9320   13.2940 C   0  0  0  0  0  0
   18.1680   10.7810   15.9970 C   0  0  0  0  0  0
   21.2210   12.5320   14.5340 C   0  0  0  0  0  0
   15.7780    5.7560   23.3430 O   0  0  0  0  0  0
   15.1780    4.0470   21.6730 O   0  0  0  0  0  0
   16.3100    8.1960   18.9350 C   0  0  0  0  0  0
   15.7830    6.9410   18.6100 C   0  0  0  0  0  0
   15.0170    5.3500   22.1940 S   0  0  0  0  0  0
   17.9670    9.3090   15.6520 C   0  0  0  0  0  0
   18.5830   10.9320   17.4580 C   0  0  0  0  0  0
   17.5660   10.2930   18.3870 C   0  0  0  0  0  0
   16.8540    8.7120   16.5100 C   0  0  0  0  0  0
   20.4150   11.8000   15.4050 C   0  0  0  0  0  0
   19.1110   11.4660   15.0470 C   0  0  0  0  0  0
   18.6440   11.8360   13.7820 C   0  0  0  0  0  0
   19.4500   12.5710   12.9120 C   0  0  0  0  0  0
   13.4060    5.4880   22.7010 N   0  0  3  0  0  0
   11.2250    4.3780   22.6600 C   0  0  0  0  0  0
   11.8860    6.0480   20.8650 C   0  0  0  0  0  0
   11.8320    7.2990   21.3820 O   0  5  0  0  0  0
   11.5670    5.7640   19.7590 O   0  0  0  0  0  0
    6.5640    6.1450   20.6610 C   0  0  0  0  0  0
    6.8650    4.8350   20.2560 C   0  0  0  0  0  0
    8.0340    4.2350   20.6570 C   0  0  0  0  0  0
    8.8960    4.9350   21.5390 C   0  0  0  0  0  0
    8.5990    6.2190   21.9380 C   0  0  0  0  0  0
    7.4230    6.8330   21.5150 C   0  0  0  0  0  0
    9.7990    2.8810   21.0680 C   0  0  0  0  0  0
   10.0320    4.0640   21.7800 C   0  0  0  0  0  0
   16.5492    9.6324   20.5329 H   0  0  0  0  0  0
   15.7405    8.0956   22.2871 H   0  0  0  0  0  0
   14.8728    5.1160   19.3237 H   0  0  0  0  0  0
   12.8424    4.1826   21.2352 H   0  0  0  0  0  0
   21.3663   13.5231   12.6258 H   0  0  0  0  0  0
   17.2116   11.3067   15.8598 H   0  0  0  0  0  0
   22.2375   12.7926   14.8288 H   0  0  0  0  0  0
   15.7510    6.6303   17.5657 H   0  0  0  0  0  0
   17.6925    9.2153   14.5909 H   0  0  0  0  0  0
   18.9003    8.7577   15.8393 H   0  0  0  0  0  0
   19.5564   10.4443   17.6149 H   0  0  0  0  0  0
   18.6636   12.0002   17.7078 H   0  0  0  0  0  0
   16.7618   11.0341   18.5051 H   0  0  0  0  0  0
   18.0832   10.1568   19.3482 H   0  0  0  0  0  0
   16.8707    7.6231   16.3547 H   0  0  0  0  0  0
   15.9021    9.1206   16.1400 H   0  0  0  0  0  0
   20.8079   11.4871   16.3724 H   0  0  0  0  0  0
   17.6396   11.5472   13.4723 H   0  0  0  0  0  0
   19.0700   12.8629   11.9329 H   0  0  0  0  0  0
   13.1382    6.0940   23.5791 H   0  0  0  0  0  0
   11.5677    3.4491   23.1393 H   0  0  0  0  0  0
   10.9171    5.0974   23.4331 H   0  0  0  0  0  0
    5.6456    6.6338   20.3038 H   0  0  0  0  0  0
    6.1630    4.2828   19.6139 H   0  0  0  0  0  0
    9.2924    6.7652   22.5944 H   0  0  0  0  0  0
    7.1772    7.8412   21.8485 H   0  0  0  0  0  0
   10.5327    2.0624   21.1064 H   0  0  0  0  0  0
  1 19  1  0  0  0
  1 18  1  0  0  0
  1 13  1  0  0  0
  2 13  1  0  0  0
  2  3  2  0  0  0
  2 37  1  0  0  0
  3  4  1  0  0  0
  3 38  1  0  0  0
  4 15  1  0  0  0
  4  5  2  0  0  0
  5 14  1  0  0  0
  5 39  1  0  0  0
  6 31  2  0  0  0
  6 35  1  0  0  0
  7 26  1  0  0  0
  7 25  1  0  0  0
  7 24  1  0  0  0
  7 40  1  0  0  0
  8 10  1  0  0  0
  8 23  2  0  0  0
  8 41  1  0  0  0
  9 17  1  0  0  0
  9 16  1  0  0  0
  9 21  1  0  0  0
  9 42  1  0  0  0
 10 20  2  0  0  0
 10 43  1  0  0  0
 11 15  2  0  0  0
 12 15  2  0  0  0
 13 14  2  0  0  0
 14 44  1  0  0  0
 15 24  1  0  0  0
 16 19  1  0  0  0
 16 45  1  0  0  0
 16 46  1  0  0  0
 17 18  1  0  0  0
 17 47  1  0  0  0
 17 48  1  0  0  0
 18 49  1  0  0  0
 18 50  1  0  0  0
 19 51  1  0  0  0
 19 52  1  0  0  0
 20 21  1  0  0  0
 20 53  1  0  0  0
 21 22  2  0  0  0
 22 23  1  0  0  0
 22 54  1  0  0  0
 23 55  1  0  0  0
 24 56  1  0  0  0
 25 36  1  0  0  0
 25 57  1  0  0  0
 25 58  1  0  0  0
 26 28  2  0  0  0
 26 27  1  0  0  0
 29 30  2  0  0  0
 29 34  1  0  0  0
 29 59  1  0  0  0
 30 31  1  0  0  0
 30 60  1  0  0  0
 31 32  1  0  0  0
 32 36  1  0  0  0
 32 33  2  0  0  0
 33 34  1  0  0  0
 33 61  1  0  0  0
 34 62  1  0  0  0
 35 36  2  0  0  0
 35 63  1  0  0  0
M  CHG  1  27  -1
M  END
> <s_m_source_file>
../1caq_ligand.sdf

> <i_m_source_file_index>
1

> <s_epik_input>
W2NIXTFbY0hdW2NIXVtjSF1bY0hdYzFbQ0hdKFtDSDJdW0NIMl0yKVtDSDJdW0NIMl1OMmMoW2NIXVtjSF0zKVtjSF1bY0hdYzNTKD1PKSg9TylbTkhdW0NASF0oQyg9TylbT0hdKVtDSDJdQyg9W0NIXU49NClDKEM0NSk9W0NIXVtDSDJdW0NIXT1bQ0hdNQ==

> <s_epik_cmdline>
J2VwaWtfYXBwJywgJy1pbWFlJywgJ2xpZ2FuZF9wcm8ubWFlJywgJy1vbWFlJywgJ2xpZ2FuZF9wcmVwLm1hZScsICctbXMnLCAnMScsICctcGgnLCAnNycsICctcGh0JywgJzAuNScsICctbnQn

> <r_lp_tautomer_probability>
1

> <r_epik_Ionization_Penalty>
  0.0005

> <r_epik_Ionization_Penalty_Charging>
  0.0000

> <r_epik_Ionization_Penalty_Neutral>
  0.0005

> <r_epik_State_Penalty>
 -0.0000

> <r_epik_Charging_Adjusted_Penalty>
2.61042970785935e-05

> <i_epik_Tot_Q>
-1

> <i_epik_Tot_abs_Q>
1

> <s_epik_Chemistry_Notes>
This compound has an imine and may undergo hydrolysis.

$$$$
