1cbr_ligand
                    3D
 Schrodinger Suite 2020-3.
 49 49  0  0  1  0            999 V2000
    5.0920    2.4270  -10.7940 C   0  0  0  0  0  0
    6.0790    1.2390  -10.8790 C   0  0  0  0  0  0
    7.4570    1.5880  -11.3400 C   0  0  0  0  0  0
    8.1090    2.6160  -10.4790 C   0  0  0  0  0  0
    7.1710    3.7700  -10.1040 C   0  0  0  0  0  0
    5.8090    3.6640  -10.1590 C   0  0  0  0  0  0
    4.8670    4.7410   -9.7870 C   0  0  0  0  0  0
    5.0090    5.6850   -8.8490 C   0  0  0  0  0  0
    4.0490    6.7120   -8.5120 C   0  0  0  0  0  0
    4.3830    7.6020   -7.5550 C   0  0  0  0  0  0
    3.5130    8.6700   -7.1050 C   0  0  0  0  0  0
    3.9620    9.5090   -6.1670 C   0  0  0  0  0  0
    3.1640   10.5920   -5.6370 C   0  0  0  0  0  0
    3.7030   11.3990   -4.6890 C   0  0  0  0  0  0
    3.0710   12.5430   -4.0160 C   0  0  0  0  0  0
    3.9070    2.0000   -9.9190 C   0  0  0  0  0  0
    4.5820    2.7980  -12.2130 C   0  0  0  0  0  0
    7.9800    4.9390   -9.5360 C   0  0  0  0  0  0
    2.7160    6.8010   -9.2660 C   0  0  0  0  0  0
    1.7300   10.7780   -6.1620 C   0  0  0  0  0  0
    2.5240   13.4330   -4.7040 O   0  0  0  0  0  0
    3.0900   12.6020   -2.7660 O   0  5  0  0  0  0
    6.1882    0.7812   -9.8848 H   0  0  0  0  0  0
    5.6923    0.4909  -11.5867 H   0  0  0  0  0  0
    8.0878    0.6870  -11.3251 H   0  0  0  0  0  0
    7.4111    1.9865  -12.3642 H   0  0  0  0  0  0
    8.4512    2.1479   -9.5443 H   0  0  0  0  0  0
    8.9706    3.0464  -11.0104 H   0  0  0  0  0  0
    3.9526    4.7053  -10.3974 H   0  0  0  0  0  0
    5.9284    5.7278   -8.2466 H   0  0  0  0  0  0
    5.3669    7.5415   -7.0669 H   0  0  0  0  0  0
    2.5020    8.7980   -7.5190 H   0  0  0  0  0  0
    4.9791    9.3911   -5.7650 H   0  0  0  0  0  0
    4.7323   11.2273   -4.3410 H   0  0  0  0  0  0
    4.2691    1.7374   -8.9141 H   0  0  0  0  0  0
    3.4135    1.1268  -10.3707 H   0  0  0  0  0  0
    3.1884    2.8296   -9.8447 H   0  0  0  0  0  0
    5.4325    3.1041  -12.8399 H   0  0  0  0  0  0
    3.8636    3.6277  -12.1391 H   0  0  0  0  0  0
    4.0887    1.9250  -12.6652 H   0  0  0  0  0  0
    9.0542    4.7247   -9.6368 H   0  0  0  0  0  0
    7.7313    5.0748   -8.4731 H   0  0  0  0  0  0
    7.7357    5.8574  -10.0900 H   0  0  0  0  0  0
    2.6523    5.9808   -9.9962 H   0  0  0  0  0  0
    2.6558    7.7654   -9.7917 H   0  0  0  0  0  0
    1.8841    6.7207   -8.5508 H   0  0  0  0  0  0
    1.5151   10.0113   -6.9209 H   0  0  0  0  0  0
    1.6309   11.7770   -6.6117 H   0  0  0  0  0  0
    1.0187   10.6787   -5.3288 H   0  0  0  0  0  0
  1  2  1  0  0  0
  1  6  1  0  0  0
  1 16  1  0  0  0
  1 17  1  0  0  0
  2  3  1  0  0  0
  2 23  1  0  0  0
  2 24  1  0  0  0
  3  4  1  0  0  0
  3 25  1  0  0  0
  3 26  1  0  0  0
  4  5  1  0  0  0
  4 27  1  0  0  0
  4 28  1  0  0  0
  5  6  2  0  0  0
  5 18  1  0  0  0
  6  7  1  0  0  0
  7  8  2  0  0  0
  7 29  1  0  0  0
  8  9  1  0  0  0
  8 30  1  0  0  0
  9 10  2  0  0  0
  9 19  1  0  0  0
 10 11  1  0  0  0
 10 31  1  0  0  0
 11 12  2  0  0  0
 11 32  1  0  0  0
 12 13  1  0  0  0
 12 33  1  0  0  0
 13 14  2  0  0  0
 13 20  1  0  0  0
 14 15  1  0  0  0
 14 34  1  0  0  0
 15 21  2  0  0  0
 15 22  1  0  0  0
 16 35  1  0  0  0
 16 36  1  0  0  0
 16 37  1  0  0  0
 17 38  1  0  0  0
 17 39  1  0  0  0
 17 40  1  0  0  0
 18 41  1  0  0  0
 18 42  1  0  0  0
 18 43  1  0  0  0
 19 44  1  0  0  0
 19 45  1  0  0  0
 19 46  1  0  0  0
 20 47  1  0  0  0
 20 48  1  0  0  0
 20 49  1  0  0  0
M  CHG  1  22  -1
M  END
> <s_m_source_file>
../1cbr_ligand.sdf

> <i_m_source_file_index>
1

> <s_epik_input>
W0NIM11DMShbQ0gzXSlbQ0gyXVtDSDJdW0NIMl1DKFtDSDNdKT1DMS9bQ0hdPVtDSF0vQyhbQ0gzXSk9W0NIXS9bQ0hdPVtDSF0vQyhbQ0gzXSk9W0NIXS9DKD1PKVtPSF0=

> <s_epik_cmdline>
J2VwaWtfYXBwJywgJy1pbWFlJywgJ2xpZ2FuZF9wcm8ubWFlJywgJy1vbWFlJywgJ2xpZ2FuZF9wcmVwLm1hZScsICctbXMnLCAnMScsICctcGgnLCAnNycsICctcGh0JywgJzAuNScsICctbnQn

> <r_lp_tautomer_probability>
1

> <r_epik_Ionization_Penalty>
  0.0057

> <r_epik_Ionization_Penalty_Charging>
  0.0057

> <r_epik_Ionization_Penalty_Neutral>
  0.0000

> <r_epik_State_Penalty>
 -0.0000

> <r_epik_Charging_Adjusted_Penalty>
0.00570698066260046

> <i_epik_Tot_Q>
-1

> <i_epik_Tot_abs_Q>
1

$$$$
