1ce5_ligand
                    3D
 Schrodinger Suite 2020-3.
 18 18  0  0  1  0            999 V2000
   12.1120   28.6310   26.2150 C   0  0  0  0  0  0
   11.4070   27.9480   27.3430 C   0  0  0  0  0  0
   11.2570   28.5920   28.6550 C   0  0  0  0  0  0
   11.7440   29.9650   28.8500 C   0  0  0  0  0  0
   12.3900   30.6870   27.7570 C   0  0  0  0  0  0
   12.6160   30.0160   26.4740 C   0  0  0  0  0  0
   12.3530   27.9680   24.9490 C   0  0  0  0  0  0
   12.7630   28.6000   23.8250 N   0  0  0  0  0  0
   12.1920   26.6400   24.7490 N   0  3  0  0  0  0
   10.9954   26.9506   27.1885 H   0  0  0  0  0  0
   10.7873   28.0547   29.4789 H   0  0  0  0  0  0
   11.6219   30.4488   29.8191 H   0  0  0  0  0  0
   12.7031   31.7219   27.8952 H   0  0  0  0  0  0
   13.1642   30.5381   25.6898 H   0  0  0  0  0  0
   12.9362   29.6862   23.8368 H   0  0  0  0  0  0
   12.9231   28.0276   22.8994 H   0  0  0  0  0  0
   11.8610   25.9953   25.5765 H   0  0  0  0  0  0
   12.3921   26.2047   23.7588 H   0  0  0  0  0  0
  1  7  1  0  0  0
  1  6  2  0  0  0
  1  2  1  0  0  0
  2  3  2  0  0  0
  2 10  1  0  0  0
  3  4  1  0  0  0
  3 11  1  0  0  0
  4  5  2  0  0  0
  4 12  1  0  0  0
  5  6  1  0  0  0
  5 13  1  0  0  0
  6 14  1  0  0  0
  7  9  2  0  0  0
  7  8  1  0  0  0
  8 15  1  0  0  0
  8 16  1  0  0  0
  9 17  1  0  0  0
  9 18  1  0  0  0
M  CHG  1   9   1
M  END
> <s_m_source_file>
../1ce5_ligand.sdf

> <i_m_source_file_index>
1

> <s_epik_input>
W0hdXE49QyhbTkgyXSlcYzFbY0hdW2NIXVtjSF1bY0hdW2NIXTE=

> <s_epik_cmdline>
J2VwaWtfYXBwJywgJy1pbWFlJywgJ2xpZ2FuZF9wcm8ubWFlJywgJy1vbWFlJywgJ2xpZ2FuZF9wcmVwLm1hZScsICctbXMnLCAnMScsICctcGgnLCAnNycsICctcGh0JywgJzAuNScsICctbnQn

> <r_lp_tautomer_probability>
1

> <r_epik_Ionization_Penalty>
  0.0003

> <r_epik_Ionization_Penalty_Charging>
  0.0003

> <r_epik_Ionization_Penalty_Neutral>
  0.0000

> <r_epik_State_Penalty>
 -0.0000

> <r_epik_Charging_Adjusted_Penalty>
0.0003115973184836

> <i_epik_Tot_Q>
1

> <i_epik_Tot_abs_Q>
1

> <s_epik_Chemistry_Notes>
This compound has an imine and may undergo hydrolysis.

$$$$
