1cea_ligand
                    3D
 Schrodinger Suite 2020-3.
 22 21  0  0  1  0            999 V2000
   37.1580    4.4210  -30.0460 C   0  0  0  0  0  0
   38.1450    3.6840  -30.2690 O   0  0  0  0  0  0
   36.9190    5.6690  -30.0140 O   0  5  0  0  0  0
   35.9070    3.5120  -29.7010 C   0  0  0  0  0  0
   35.4640    3.0680  -31.0940 C   0  0  0  0  0  0
   33.9160    2.9280  -31.0900 C   0  0  0  0  0  0
   33.5780    1.4560  -30.8870 C   0  0  0  0  0  0
   32.3200    1.0240  -31.4940 C   0  0  0  0  0  0
   32.4130    0.6400  -32.9180 N   0  3  0  0  0  0
   36.2258    2.6781  -29.0583 H   0  0  0  0  0  0
   35.1513    4.1129  -29.1740 H   0  0  0  0  0  0
   35.7735    3.8204  -31.8343 H   0  0  0  0  0  0
   35.9302    2.1016  -31.3364 H   0  0  0  0  0  0
   33.4954    3.5311  -30.2718 H   0  0  0  0  0  0
   33.5133    3.2817  -32.0506 H   0  0  0  0  0  0
   34.3712    0.8336  -31.3268 H   0  0  0  0  0  0
   33.4991    1.2429  -29.8107 H   0  0  0  0  0  0
   31.9357    0.1453  -30.9553 H   0  0  0  0  0  0
   31.5851    1.8404  -31.4353 H   0  0  0  0  0  0
   31.4210    0.3323  -33.2803 H   0  0  0  0  0  0
   33.1189   -0.1966  -33.0268 H   0  0  0  0  0  0
   32.7684    1.4985  -33.5068 H   0  0  0  0  0  0
  1  2  2  0  0  0
  1  3  1  0  0  0
  1  4  1  0  0  0
  4  5  1  0  0  0
  4 10  1  0  0  0
  4 11  1  0  0  0
  5  6  1  0  0  0
  5 12  1  0  0  0
  5 13  1  0  0  0
  6  7  1  0  0  0
  6 14  1  0  0  0
  6 15  1  0  0  0
  7  8  1  0  0  0
  7 16  1  0  0  0
  7 17  1  0  0  0
  8  9  1  0  0  0
  8 18  1  0  0  0
  8 19  1  0  0  0
  9 20  1  0  0  0
  9 21  1  0  0  0
  9 22  1  0  0  0
M  CHG  2   3  -1   9   1
M  END
> <s_m_source_file>
../1cea_ligand.sdf

> <i_m_source_file_index>
1

> <s_epik_input>
Tz1DKFtPSF0pW0NIMl1bQ0gyXVtDSDJdW0NIMl1bQ0gyXVtOSDMrXQ==

> <s_epik_cmdline>
J2VwaWtfYXBwJywgJy1pbWFlJywgJ2xpZ2FuZF9wcm8ubWFlJywgJy1vbWFlJywgJ2xpZ2FuZF9wcmVwLm1hZScsICctbXMnLCAnMScsICctcGgnLCAnNycsICctcGh0JywgJzAuNScsICctbnQn

> <r_lp_tautomer_probability>
1

> <r_epik_Ionization_Penalty>
  0.0044

> <r_epik_Ionization_Penalty_Charging>
  0.0044

> <r_epik_Ionization_Penalty_Neutral>
  0.0000

> <r_epik_State_Penalty>
 -0.0000

> <r_epik_Charging_Adjusted_Penalty>
0.00444028510080784

> <i_epik_Tot_Q>
0

> <i_epik_Tot_abs_Q>
2

$$$$
