1ceb_ligand
                    3D
 Schrodinger Suite 2020-3.
 26 26  0  0  1  0            999 V2000
   21.9090   -3.5670   40.8230 C   0  0  2  0  0  0
   22.0520   -2.2980   40.0920 C   0  0  0  0  0  0
   20.7430   -1.6000   39.9020 C   0  0  0  0  0  0
   19.8410   -1.6570   41.0620 C   0  0  2  0  0  0
   19.7300   -2.9920   41.7890 C   0  0  0  0  0  0
   21.0410   -3.6860   42.0220 C   0  0  0  0  0  0
   18.3710   -1.0160   40.8590 C   0  0  0  0  0  0
   23.0010   -4.6150   40.7470 C   0  0  0  0  0  0
   18.1280   -0.5020   42.1640 N   0  3  0  0  0  0
   24.2000   -4.4640   40.9570 O   0  0  0  0  0  0
   22.5780   -5.7630   40.3660 O   0  5  0  0  0  0
   21.1704   -3.7723   40.0341 H   0  0  0  0  0  0
   22.7179   -1.6252   40.6522 H   0  0  0  0  0  0
   22.4804   -2.4937   39.0979 H   0  0  0  0  0  0
   20.9224   -0.5354   39.6913 H   0  0  0  0  0  0
   20.2039   -2.0550   39.0580 H   0  0  0  0  0  0
   20.5034   -1.0355   41.6825 H   0  0  0  0  0  0
   19.2718   -2.8347   42.7766 H   0  0  0  0  0  0
   19.1049   -3.6794   41.2001 H   0  0  0  0  0  0
   20.8515   -4.7487   42.2334 H   0  0  0  0  0  0
   21.5427   -3.2242   42.8852 H   0  0  0  0  0  0
   18.4133   -0.2415   40.0791 H   0  0  0  0  0  0
   17.6661   -1.8040   40.5554 H   0  0  0  0  0  0
   17.1390   -0.0211   42.1904 H   0  0  0  0  0  0
   18.9022    0.2374   42.4168 H   0  0  0  0  0  0
   18.1550   -1.3251   42.8932 H   0  0  0  0  0  0
  1  8  1  0  0  0
  1  6  1  0  0  0
  1  2  1  0  0  0
  1 12  1  0  0  0
  2  3  1  0  0  0
  2 13  1  0  0  0
  2 14  1  0  0  0
  3  4  1  0  0  0
  3 15  1  0  0  0
  3 16  1  0  0  0
  4  7  1  0  0  0
  4  5  1  0  0  0
  4 17  1  0  0  0
  5  6  1  0  0  0
  5 18  1  0  0  0
  5 19  1  0  0  0
  6 20  1  0  0  0
  6 21  1  0  0  0
  7  9  1  0  0  0
  7 22  1  0  0  0
  7 23  1  0  0  0
  8 11  1  0  0  0
  8 10  2  0  0  0
  9 24  1  0  0  0
  9 25  1  0  0  0
  9 26  1  0  0  0
M  CHG  2   9   1  11  -1
M  END
> <s_m_source_file>
../1ceb_ligand.sdf

> <i_m_source_file_index>
1

> <s_epik_input>
Tz1DKFtPSF0pW0NAQEhdMVtDSDJdW0NIMl1bQ0BIXShbQ0gyXVtDSDJdMSlbQ0gyXVtOSDMrXQ==

> <s_epik_cmdline>
J2VwaWtfYXBwJywgJy1pbWFlJywgJ2xpZ2FuZF9wcm8ubWFlJywgJy1vbWFlJywgJ2xpZ2FuZF9wcmVwLm1hZScsICctbXMnLCAnMScsICctcGgnLCAnNycsICctcGh0JywgJzAuNScsICctbnQn

> <r_lp_tautomer_probability>
1

> <r_epik_Ionization_Penalty>
  0.0034

> <r_epik_Ionization_Penalty_Charging>
  0.0034

> <r_epik_Ionization_Penalty_Neutral>
  0.0000

> <r_epik_State_Penalty>
 -0.0000

> <r_epik_Charging_Adjusted_Penalty>
0.0034178756347646

> <i_epik_Tot_Q>
0

> <i_epik_Tot_abs_Q>
2

$$$$
