1cgl_ligand
                    3D
 Schrodinger Suite 2020-3.
 92 94  0  0  1  0            999 V2000
   29.6830   45.3880    1.2040 C   0  0  0  0  0  0
   29.6440   45.4640    2.4450 O   0  0  0  0  0  0
   30.0780   46.3940    0.3160 O   0  0  0  0  0  0
   30.6030   47.6530    0.7460 C   0  0  0  0  0  0
   31.9180   47.4290    1.4500 C   0  0  0  0  0  0
   32.9890   46.8630    0.7660 C   0  0  0  0  0  0
   34.1630   46.5850    1.4340 C   0  0  0  0  0  0
   34.2280   46.9030    2.7900 C   0  0  0  0  0  0
   33.1780   47.5150    3.4670 C   0  0  0  0  0  0
   32.0330   47.7530    2.7930 C   0  0  0  0  0  0
   29.3370   44.2710    0.6500 N   0  0  0  0  0  0
   29.3740   44.1540   -0.8010 C   0  0  0  0  0  0
   29.2450   42.7180   -1.1400 C   0  0  0  0  0  0
   30.5770   41.9770   -1.0070 C   0  0  2  0  0  0
   31.5200   42.0330   -2.2490 C   0  0  0  0  0  0
   31.8150   43.0020   -2.9320 O   0  0  0  0  0  0
   31.9890   40.8170   -2.6590 O   0  5  0  0  0  0
   30.1420   40.5960   -0.7300 N   0  3  0  0  0  0
   29.4570   39.7430   -1.7960 C   0  0  2  0  0  0
   28.0090   39.6850   -1.3350 C   0  0  0  0  0  0
   27.7410   39.7360   -0.1160 O   0  0  0  0  0  0
   30.1810   38.3640   -1.8290 C   0  0  0  0  0  0
   29.7670   37.2800   -2.8150 C   0  0  0  0  0  0
   30.0320   37.6930   -4.2710 C   0  0  0  0  0  0
   30.3720   35.9000   -2.4850 C   0  0  0  0  0  0
   27.0850   39.5910   -2.3230 N   0  0  0  0  0  0
   25.6380   39.3850   -2.0580 C   0  0  2  0  0  0
   25.2620   37.9340   -2.4320 C   0  0  0  0  0  0
   25.7440   37.3740   -3.3770 O   0  0  0  0  0  0
   24.7710   40.3870   -2.8840 C   0  0  0  0  0  0
   24.8660   41.8600   -2.4630 C   0  0  0  0  0  0
   24.1990   42.2970   -1.3430 C   0  0  0  0  0  0
   25.8150   42.6850   -3.0750 C   0  0  0  0  0  0
   24.5580   43.4970   -0.7690 C   0  0  0  0  0  0
   26.1760   43.8730   -2.4760 C   0  0  0  0  0  0
   25.5690   44.2730   -1.3150 C   0  0  0  0  0  0
   21.0320   39.1800   -5.5530 O   0  0  0  0  0  0
   20.3680   39.3490   -4.3070 C   0  0  0  0  0  0
   21.1240   38.7690   -3.0680 C   0  0  0  0  0  0
   21.6510   37.4420   -3.3850 N   0  0  0  0  0  0
   22.2890   37.3510   -4.7210 C   0  0  0  0  0  0
   21.2520   37.8310   -5.7950 C   0  0  0  0  0  0
   22.1130   36.5570   -2.2810 C   0  0  0  0  0  0
   23.6060   36.1880   -2.1840 C   0  0  0  0  0  0
   24.3440   37.3620   -1.7460 N   0  0  0  0  0  0
   30.7585   48.3030   -0.1276 H   0  0  0  0  0  0
   29.8919   48.1304    1.4362 H   0  0  0  0  0  0
   32.9003   46.6394   -0.2971 H   0  0  0  0  0  0
   35.0108   46.1323    0.9197 H   0  0  0  0  0  0
   35.1371   46.6627    3.3412 H   0  0  0  0  0  0
   33.2775   47.7953    4.5156 H   0  0  0  0  0  0
   31.1878   48.2058    3.3114 H   0  0  0  0  0  0
   29.0174   43.4153    1.2628 H   0  0  0  0  0  0
   28.5415   44.7262   -1.2363 H   0  0  0  0  0  0
   30.3283   44.5517   -1.1767 H   0  0  0  0  0  0
   28.5192   42.2450   -0.4622 H   0  0  0  0  0  0
   28.8971   42.6162   -2.1785 H   0  0  0  0  0  0
   31.1846   42.4076   -0.1974 H   0  0  0  0  0  0
   31.0130   39.9874   -0.4454 H   0  0  0  0  0  0
   29.4124   40.5995    0.0932 H   0  0  0  0  0  0
   29.4837   40.1434   -2.8202 H   0  0  0  0  0  0
   31.2477   38.5152   -2.0509 H   0  0  0  0  0  0
   30.0761   37.8713   -0.8511 H   0  0  0  0  0  0
   28.6779   37.1808   -2.6963 H   0  0  0  0  0  0
   29.5839   38.6797   -4.4596 H   0  0  0  0  0  0
   29.5851   36.9515   -4.9496 H   0  0  0  0  0  0
   31.1168   37.7434   -4.4462 H   0  0  0  0  0  0
   30.1580   35.6472   -1.4361 H   0  0  0  0  0  0
   31.4606   35.9303   -2.6401 H   0  0  0  0  0  0
   29.9289   35.1384   -3.1435 H   0  0  0  0  0  0
   27.4482   39.6741   -3.3580 H   0  0  0  0  0  0
   25.4883   39.5633   -0.9829 H   0  0  0  0  0  0
   25.0746   40.3500   -3.9406 H   0  0  0  0  0  0
   23.7096   40.1113   -2.7976 H   0  0  0  0  0  0
   23.3944   41.7002   -0.9135 H   0  0  0  0  0  0
   26.2674   42.3899   -4.0218 H   0  0  0  0  0  0
   24.0402   43.8409    0.1264 H   0  0  0  0  0  0
   26.9474   44.4964   -2.9280 H   0  0  0  0  0  0
   25.8788   45.1953   -0.8236 H   0  0  0  0  0  0
   20.2222   40.4217   -4.1118 H   0  0  0  0  0  0
   19.3901   38.8464   -4.3415 H   0  0  0  0  0  0
   21.9566   39.4365   -2.8010 H   0  0  0  0  0  0
   20.4297   38.6909   -2.2183 H   0  0  0  0  0  0
   23.1820   37.9928   -4.7453 H   0  0  0  0  0  0
   22.5810   36.3089   -4.9177 H   0  0  0  0  0  0
   20.3036   37.2819   -5.6995 H   0  0  0  0  0  0
   21.6500   37.7011   -6.8122 H   0  0  0  0  0  0
   21.8854   37.0284   -1.3135 H   0  0  0  0  0  0
   21.5966   35.5880   -2.3473 H   0  0  0  0  0  0
   23.7354   35.3711   -1.4588 H   0  0  0  0  0  0
   23.9683   35.8633   -3.1706 H   0  0  0  0  0  0
   24.1263   37.8151   -0.7676 H   0  0  0  0  0  0
  1  2  2  0  0  0
  1  3  1  0  0  0
  1 11  1  0  0  0
  3  4  1  0  0  0
  4  5  1  0  0  0
  4 46  1  0  0  0
  4 47  1  0  0  0
  5  6  2  0  0  0
  5 10  1  0  0  0
  6  7  1  0  0  0
  6 48  1  0  0  0
  7  8  2  0  0  0
  7 49  1  0  0  0
  8  9  1  0  0  0
  8 50  1  0  0  0
  9 10  2  0  0  0
  9 51  1  0  0  0
 10 52  1  0  0  0
 11 12  1  0  0  0
 11 53  1  0  0  0
 12 13  1  0  0  0
 12 54  1  0  0  0
 12 55  1  0  0  0
 13 14  1  0  0  0
 13 56  1  0  0  0
 13 57  1  0  0  0
 14 15  1  0  0  0
 14 18  1  0  0  0
 14 58  1  0  0  0
 15 16  2  0  0  0
 15 17  1  0  0  0
 18 19  1  0  0  0
 18 59  1  0  0  0
 18 60  1  0  0  0
 19 20  1  0  0  0
 19 22  1  0  0  0
 19 61  1  0  0  0
 20 21  2  0  0  0
 20 26  1  0  0  0
 22 23  1  0  0  0
 22 62  1  0  0  0
 22 63  1  0  0  0
 23 24  1  0  0  0
 23 25  1  0  0  0
 23 64  1  0  0  0
 24 65  1  0  0  0
 24 66  1  0  0  0
 24 67  1  0  0  0
 25 68  1  0  0  0
 25 69  1  0  0  0
 25 70  1  0  0  0
 26 27  1  0  0  0
 26 71  1  0  0  0
 27 28  1  0  0  0
 27 30  1  0  0  0
 27 72  1  0  0  0
 28 29  2  0  0  0
 28 45  1  0  0  0
 30 31  1  0  0  0
 30 73  1  0  0  0
 30 74  1  0  0  0
 31 32  2  0  0  0
 31 33  1  0  0  0
 32 34  1  0  0  0
 32 75  1  0  0  0
 33 35  2  0  0  0
 33 76  1  0  0  0
 34 36  2  0  0  0
 34 77  1  0  0  0
 35 36  1  0  0  0
 35 78  1  0  0  0
 36 79  1  0  0  0
 37 38  1  0  0  0
 37 42  1  0  0  0
 38 39  1  0  0  0
 38 80  1  0  0  0
 38 81  1  0  0  0
 39 40  1  0  0  0
 39 82  1  0  0  0
 39 83  1  0  0  0
 40 41  1  0  0  0
 40 43  1  0  0  0
 41 42  1  0  0  0
 41 84  1  0  0  0
 41 85  1  0  0  0
 42 86  1  0  0  0
 42 87  1  0  0  0
 43 44  1  0  0  0
 43 88  1  0  0  0
 43 89  1  0  0  0
 44 45  1  0  0  0
 44 90  1  0  0  0
 44 91  1  0  0  0
 45 92  1  0  0  0
M  CHG  2  17  -1  18   1
M  END
> <s_m_source_file>
../1cgl_ligand.sdf

> <i_m_source_file_index>
1

> <s_epik_input>
W2NIXTFbY0hdW2NIXVtjSF1bY0hdYzFbQ0gyXU9DKD1PKVtOSF1bQ0gyXVtDSDJdW0NASF0oQyg9TylbT0hdKVtOSDIrXVtDQEBIXShbQ0gyXVtDSF0oW0NIM10pW0NIM10pQyg9TylbTkhdW0NAQEhdKFtDSDJdYzJbY0hdW2NIXVtjSF1bY0hdW2NIXTIpQyg9TylbTkhdW0NIMl1bQ0gyXVtOSCtdM1tDSDJdW0NIMl1PW0NIMl1bQ0gyXTM=

> <s_epik_cmdline>
J2VwaWtfYXBwJywgJy1pbWFlJywgJ2xpZ2FuZF9wcm8ubWFlJywgJy1vbWFlJywgJ2xpZ2FuZF9wcmVwLm1hZScsICctbXMnLCAnMScsICctcGgnLCAnNycsICctcGh0JywgJzAuNScsICctbnQn

> <r_lp_tautomer_probability>
1

> <r_epik_Ionization_Penalty>
  0.2564

> <r_epik_Ionization_Penalty_Charging>
  0.0469

> <r_epik_Ionization_Penalty_Neutral>
  0.2095

> <r_epik_State_Penalty>
 -0.0000

> <r_epik_Charging_Adjusted_Penalty>
0.0468784668622791

> <i_epik_Tot_Q>
0

> <i_epik_Tot_abs_Q>
2

> <s_epik_Chemistry_Notes>
This compound has an ester and may undergo hydrolysis at high or low pH.

$$$$
