1ch8_ligand
                    3D
 Schrodinger Suite 2020-3.
 41 44  0  0  1  0            999 V2000
    2.7580   51.6600   41.4730 P   0  0  1  0  0  0
    3.3950   48.1780   44.0340 N   0  0  0  0  0  0
    2.7360   46.9970   44.1830 C   0  0  0  0  0  0
    3.4310   46.0090   44.6700 N   0  0  0  0  0  0
    4.6920   46.5860   44.8750 C   0  0  0  0  0  0
    5.8440   46.0260   45.3740 C   0  0  0  0  0  0
    6.0370   44.8670   45.7490 O   0  0  0  0  0  0
    6.8910   46.9250   45.4190 N   0  0  0  0  0  0
    6.7790   48.2310   45.0130 C   0  0  0  0  0  0
    7.8560   49.0080   45.0860 N   0  0  0  0  0  0
    5.6780   48.7650   44.5450 N   0  0  0  0  0  0
    4.6790   47.8950   44.4950 C   0  0  0  0  0  0
    2.5150   52.1960   40.1150 O   0  0  0  0  0  0
    3.9440   52.3320   42.0570 O   0  5  0  0  0  0
    1.4720   51.8250   42.4470 O   0  0  0  0  0  0
   -2.5070   49.6610   44.9930 P   0  0  1  0  0  0
   -3.6510   50.5980   44.9040 O   0  5  0  0  0  0
   -1.4830   50.2210   45.8970 O   0  0  0  0  0  0
   -2.9090   48.1890   45.5270 O   0  0  0  0  0  0
   -1.7740   49.3180   43.5920 O   0  0  0  0  0  0
   -4.3100   47.4390   45.3140 P   0  0  0  0  0  0
   -4.4220   46.6130   44.0790 O   0  5  0  0  0  0
   -5.3640   48.4750   45.3160 O   0  0  0  0  0  0
   -4.4690   46.5570   46.4900 O   0  5  0  0  0  0
   -0.3920   48.8960   43.9080 C   0  0  0  0  0  0
    0.6590   50.0600   43.9940 C   0  0  1  0  0  0
    1.8580   49.6630   44.6220 O   0  0  0  0  0  0
    2.8840   49.4110   43.6810 C   0  0  2  0  0  0
    2.1790   49.4850   42.3410 C   0  0  2  0  0  0
    3.0060   50.0750   41.3250 O   0  0  0  0  0  0
    1.0570   50.4820   42.6240 C   0  0  2  0  0  0
    1.6867   46.8842   43.9104 H   0  0  0  0  0  0
    7.8744   46.6056   45.7943 H   0  0  0  0  0  0
    8.8022   48.6016   45.4727 H   0  0  0  0  0  0
    7.8005   50.0570   44.7597 H   0  0  0  0  0  0
   -0.3777   48.3883   44.8837 H   0  0  0  0  0  0
   -0.0324   48.2061   43.1304 H   0  0  0  0  0  0
    0.2613   50.8896   44.5971 H   0  0  0  0  0  0
    3.7664   50.0670   43.7143 H   0  0  0  0  0  0
    1.9107   48.4949   41.9438 H   0  0  0  0  0  0
    0.1988   50.5393   41.9383 H   0  0  0  0  0  0
  1 13  2  0  0  0
  1 14  1  0  0  0
  1 15  1  0  0  0
  1 30  1  0  0  0
  2  3  1  0  0  0
  2 12  1  0  0  0
  2 28  1  0  0  0
  3  4  2  0  0  0
  3 32  1  0  0  0
  4  5  1  0  0  0
  5  6  1  0  0  0
  5 12  2  0  0  0
  6  7  2  0  0  0
  6  8  1  0  0  0
  8  9  1  0  0  0
  8 33  1  0  0  0
  9 10  1  0  0  0
  9 11  2  0  0  0
 10 34  1  0  0  0
 10 35  1  0  0  0
 11 12  1  0  0  0
 15 31  1  0  0  0
 16 17  1  0  0  0
 16 18  2  0  0  0
 16 19  1  0  0  0
 16 20  1  0  0  0
 19 21  1  0  0  0
 20 25  1  0  0  0
 21 22  1  0  0  0
 21 23  2  0  0  0
 21 24  1  0  0  0
 25 26  1  0  0  0
 25 36  1  0  0  0
 25 37  1  0  0  0
 26 27  1  0  0  0
 26 31  1  0  0  0
 26 38  1  0  0  0
 27 28  1  0  0  0
 28 29  1  0  0  0
 28 39  1  0  0  0
 29 30  1  0  0  0
 29 31  1  0  0  0
 29 40  1  0  0  0
 31 41  1  0  0  0
M  CHG  4  14  -1  17  -1  22  -1  24  -1
M  END
> <s_m_source_file>
../1ch8_ligand.sdf

> <i_m_source_file_index>
1

> <s_epik_input>
W09IXVAoPU8pKFtPSF0pT1tQQF0oPU8pKFtPSF0pT1tDSDJdW0NASF0oW0NASF0oW0NASF0xMilPW1BAXSg9TykoTzIpW09IXSlPW0NASF0xbihbY0hdbjMpYyhjMzQpbmMoW05IMl0pW25IXWM0PU8=

> <s_epik_cmdline>
J2VwaWtfYXBwJywgJy1pbWFlJywgJ2xpZ2FuZF9wcm8ubWFlJywgJy1vbWFlJywgJ2xpZ2FuZF9wcmVwLm1hZScsICctbXMnLCAnMScsICctcGgnLCAnNycsICctcGh0JywgJzAuNScsICctbnQn

> <r_lp_tautomer_probability>
0.999940409345307

> <r_epik_Ionization_Penalty>
  0.1045

> <r_epik_Ionization_Penalty_Charging>
  0.1044

> <r_epik_Ionization_Penalty_Neutral>
  0.0001

> <r_epik_State_Penalty>
  0.0917

> <r_epik_Charging_Adjusted_Penalty>
0.196075990845594

> <i_epik_Tot_Q>
-4

> <i_epik_Tot_abs_Q>
4

> <s_epik_Chemistry_Notes>
This compound contains an acetal/aminal-like group ( X-CH(R)-Y where X, Y are N, S, or O) that may be acid/base labile, releasing an aldehyde.

$$$$
