1ci7_ligand
                    3D
 Schrodinger Suite 2020-3.
 55 57  0  0  1  0            999 V2000
  108.7850  -21.9730   56.2760 N   0  0  0  0  0  0
  108.3030  -20.7440   56.6860 C   0  0  0  0  0  0
  107.8000  -20.5760   57.9110 N   0  0  0  0  0  0
  108.3720  -19.6830   55.8120 N   0  0  0  0  0  0
  108.9460  -19.7890   54.5530 C   0  0  0  0  0  0
  108.8670  -18.6610   53.7420 O   0  0  0  0  0  0
  109.5540  -21.0380   54.1200 C   0  0  0  0  0  0
  110.2490  -21.2560   52.8710 C   0  0  0  0  0  0
  110.8100  -22.5530   52.5190 C   0  0  0  0  0  0
  110.6480  -23.6520   53.4380 C   0  0  0  0  0  0
  109.9650  -23.4570   54.6990 C   0  0  0  0  0  0
  109.4200  -22.1620   55.0600 C   0  0  0  0  0  0
  111.7410  -22.7620   51.3740 C   0  0  0  0  0  0
  112.2980  -21.5610   50.6720 N   0  0  0  0  0  0
  115.3200  -18.9300   52.1750 C   0  0  0  0  0  0
  115.1670  -20.2440   52.7120 C   0  0  0  0  0  0
  114.1350  -21.1020   52.2100 C   0  0  0  0  0  0
  113.2260  -20.6700   51.1690 C   0  0  0  0  0  0
  113.3410  -19.3070   50.6930 C   0  0  0  0  0  0
  114.3800  -18.4440   51.1920 C   0  0  0  0  0  0
  116.5060  -18.1900   52.5250 C   0  0  0  0  0  0
  117.1550  -18.4340   53.5420 O   0  0  0  0  0  0
  116.8680  -17.2210   51.6800 N   0  0  0  0  0  0
  117.9660  -16.2330   51.7860 C   0  0  2  0  0  0
  118.4530  -15.7990   53.1710 C   0  0  0  0  0  0
  119.3910  -16.7840   53.8630 C   0  0  0  0  0  0
  120.6500  -17.0690   53.0540 C   0  0  0  0  0  0
  121.3090  -16.1040   52.5940 O   0  5  0  0  0  0
  120.9880  -18.2620   52.8890 O   0  0  0  0  0  0
  117.6530  -15.0140   50.9180 C   0  0  0  0  0  0
  116.9600  -15.1920   49.8910 O   0  5  0  0  0  0
  118.1000  -13.8990   51.2680 O   0  0  0  0  0  0
  111.9960  -21.5880   49.2190 C   0  0  0  0  0  0
  111.5860  -20.2860   48.6760 C   0  0  0  0  0  0
  111.2430  -19.2650   48.1460 C   0  0  0  0  0  0
  107.7472  -21.4275   58.6054 H   0  0  0  0  0  0
  107.4383  -19.5861   58.2260 H   0  0  0  0  0  0
  110.3561  -20.4258   52.1729 H   0  0  0  0  0  0
  111.0422  -24.6354   53.1816 H   0  0  0  0  0  0
  109.8586  -24.2953   55.3874 H   0  0  0  0  0  0
  112.6249  -23.3196   51.7172 H   0  0  0  0  0  0
  111.2300  -23.3341   50.5856 H   0  0  0  0  0  0
  115.8329  -20.5933   53.5011 H   0  0  0  0  0  0
  114.0316  -22.1057   52.6224 H   0  0  0  0  0  0
  112.6358  -18.9317   49.9515 H   0  0  0  0  0  0
  114.4574  -17.4200   50.8265 H   0  0  0  0  0  0
  116.2083  -17.2178   50.7998 H   0  0  0  0  0  0
  118.8058  -16.8374   51.4125 H   0  0  0  0  0  0
  119.0010  -14.8490   53.0859 H   0  0  0  0  0  0
  117.5888  -15.6653   53.8383 H   0  0  0  0  0  0
  119.7022  -16.3730   54.8347 H   0  0  0  0  0  0
  118.8689  -17.7395   54.0193 H   0  0  0  0  0  0
  112.8909  -21.9066   48.6644 H   0  0  0  0  0  0
  111.1753  -22.2951   49.0281 H   0  0  0  0  0  0
  107.9626  -18.7041   56.1020 H   0  0  0  0  0  0
  1  2  2  0  0  0
  1 12  1  0  0  0
  2  3  1  0  0  0
  2  4  1  0  0  0
  3 36  1  0  0  0
  3 37  1  0  0  0
  4  5  1  0  0  0
  4 55  1  0  0  0
  5  6  2  0  0  0
  5  7  1  0  0  0
  7  8  2  0  0  0
  7 12  1  0  0  0
  8  9  1  0  0  0
  8 38  1  0  0  0
  9 10  2  0  0  0
  9 13  1  0  0  0
 10 11  1  0  0  0
 10 39  1  0  0  0
 11 12  2  0  0  0
 11 40  1  0  0  0
 13 14  1  0  0  0
 13 41  1  0  0  0
 13 42  1  0  0  0
 14 18  1  0  0  0
 14 33  1  0  0  0
 15 16  2  0  0  0
 15 20  1  0  0  0
 15 21  1  0  0  0
 16 17  1  0  0  0
 16 43  1  0  0  0
 17 18  2  0  0  0
 17 44  1  0  0  0
 18 19  1  0  0  0
 19 20  2  0  0  0
 19 45  1  0  0  0
 20 46  1  0  0  0
 21 22  2  0  0  0
 21 23  1  0  0  0
 23 24  1  0  0  0
 23 47  1  0  0  0
 24 25  1  0  0  0
 24 30  1  0  0  0
 24 48  1  0  0  0
 25 26  1  0  0  0
 25 49  1  0  0  0
 25 50  1  0  0  0
 26 27  1  0  0  0
 26 51  1  0  0  0
 26 52  1  0  0  0
 27 28  1  0  0  0
 27 29  2  0  0  0
 30 31  1  0  0  0
 30 32  2  0  0  0
 33 34  1  0  0  0
 33 53  1  0  0  0
 33 54  1  0  0  0
 34 35  3  0  0  0
M  CHG  2  28  -1  31  -1
M  END
> <s_m_source_file>
../1ci7_ligand.sdf

> <i_m_source_file_index>
1

> <s_epik_input>
Tz1jMW5jKFtOSDJdKVtuSF1jKGMxMilbY0hdW2NIXWMoW2NIXTIpW0NIMl1OKFtDSDJdQyNbQ0hdKWMoW2NIXVtjSF0zKVtjSF1bY0hdYzNDKD1PKVtOSF1bQ0BASF0oQyg9TylbT0hdKVtDSDJdW0NIMl1DKD1PKVtPSF0=

> <s_epik_cmdline>
J2VwaWtfYXBwJywgJy1pbWFlJywgJ2xpZ2FuZF9wcm8ubWFlJywgJy1vbWFlJywgJ2xpZ2FuZF9wcmVwLm1hZScsICctbXMnLCAnMScsICctcGgnLCAnNycsICctcGh0JywgJzAuNScsICctbnQn

> <r_lp_tautomer_probability>
1

> <r_epik_Ionization_Penalty>
  0.0096

> <r_epik_Ionization_Penalty_Charging>
  0.0094

> <r_epik_Ionization_Penalty_Neutral>
  0.0001

> <r_epik_State_Penalty>
 -0.0000

> <r_epik_Charging_Adjusted_Penalty>
0.00942024012814524

> <i_epik_Tot_Q>
-2

> <i_epik_Tot_abs_Q>
2

$$$$
