1cil_ligand
                    3D
 Schrodinger Suite 2020-3.
 36 37  0  0  1  0            999 V2000
   -6.1860    3.6410   15.7000 S   0  0  0  0  0  0
   -5.2590    2.2490   15.9490 C   0  0  0  0  0  0
   -3.9920    2.3040   15.3640 C   0  0  0  0  0  0
   -3.8200    3.5480   14.6840 C   0  0  0  0  0  0
   -2.6000    3.9180   13.9220 C   0  0  2  0  0  0
   -2.5630    5.4380   13.6650 C   0  0  0  0  0  0
   -3.8020    6.0150   13.0230 C   0  0  1  0  0  0
   -5.0600    6.0120   14.2810 S   0  0  0  0  0  0
   -4.9690    4.3680   14.7880 C   0  0  0  0  0  0
   -5.8850    0.9410   16.8910 S   0  0  0  0  0  0
   -7.3100    0.9870   16.7290 O   0  0  0  0  0  0
   -5.3490    1.0410   18.2200 O   0  0  0  0  0  0
   -5.3270   -0.5200   16.1920 N   0  0  0  0  0  0
   -2.6210    3.1750   12.6490 N   0  3  0  0  0  0
   -3.5160    7.4560   12.5630 C   0  0  0  0  0  0
   -6.3310    6.2230   13.6410 O   0  0  0  0  0  0
   -4.6970    6.8100   15.4220 O   0  0  0  0  0  0
   -1.3550    3.2200   11.9060 C   0  0  0  0  0  0
   -1.4350    2.1450   10.8200 C   0  0  0  0  0  0
   -3.2439    1.5131   15.4185 H   0  0  0  0  0  0
   -1.7081    3.6165   14.4909 H   0  0  0  0  0  0
   -2.4307    5.9682   14.6197 H   0  0  0  0  0  0
   -1.7244    5.6762   12.9941 H   0  0  0  0  0  0
   -3.9749    5.4575   12.0906 H   0  0  0  0  0  0
   -5.7100   -1.3732   16.7711 H   0  0  0  0  0  0
   -4.2271   -0.5344   16.2016 H   0  0  0  0  0  0
   -2.8424    2.1157   12.8463 H   0  0  0  0  0  0
   -3.3965    3.5954   11.9918 H   0  0  0  0  0  0
   -2.7375    7.4451   11.7860 H   0  0  0  0  0  0
   -3.1704    8.0527   13.4200 H   0  0  0  0  0  0
   -4.4358    7.8998   12.1543 H   0  0  0  0  0  0
   -1.2281    4.2165   11.4578 H   0  0  0  0  0  0
   -0.5196    3.0176   12.5924 H   0  0  0  0  0  0
   -0.5027    2.1435   10.2362 H   0  0  0  0  0  0
   -2.2842    2.3589   10.1543 H   0  0  0  0  0  0
   -1.5757    1.1599   11.2889 H   0  0  0  0  0  0
  1  2  1  0  0  0
  1  9  1  0  0  0
  2  3  2  0  0  0
  2 10  1  0  0  0
  3  4  1  0  0  0
  3 20  1  0  0  0
  4  5  1  0  0  0
  4  9  2  0  0  0
  5  6  1  0  0  0
  5 14  1  0  0  0
  5 21  1  0  0  0
  6  7  1  0  0  0
  6 22  1  0  0  0
  6 23  1  0  0  0
  7  8  1  0  0  0
  7 15  1  0  0  0
  7 24  1  0  0  0
  8  9  1  0  0  0
  8 16  2  0  0  0
  8 17  2  0  0  0
 10 11  2  0  0  0
 10 12  2  0  0  0
 10 13  1  0  0  0
 13 25  1  0  0  0
 13 26  1  0  0  0
 14 18  1  0  0  0
 14 27  1  0  0  0
 14 28  1  0  0  0
 15 29  1  0  0  0
 15 30  1  0  0  0
 15 31  1  0  0  0
 18 19  1  0  0  0
 18 32  1  0  0  0
 18 33  1  0  0  0
 19 34  1  0  0  0
 19 35  1  0  0  0
 19 36  1  0  0  0
M  CHG  1  14   1
M  END
> <s_m_source_file>
../1cil_ligand.sdf

> <i_m_source_file_index>
1

> <s_epik_input>
Tz1TKD1PKShbTkgyXSljKFtjSF0xKXNjKGMxMilTKD1PKSg9TylbQ0BASF0oW0NIM10pW0NIMl1bQ0BASF0yW05IMitdW0NIMl1bQ0gzXQ==

> <s_epik_cmdline>
J2VwaWtfYXBwJywgJy1pbWFlJywgJ2xpZ2FuZF9wcm8ubWFlJywgJy1vbWFlJywgJ2xpZ2FuZF9wcmVwLm1hZScsICctbXMnLCAnMScsICctcGgnLCAnNycsICctcGh0JywgJzAuNScsICctbnQn

> <r_epik_Ionization_Penalty>
  0.0955

> <r_epik_Ionization_Penalty_Charging>
  0.0059

> <r_epik_Ionization_Penalty_Neutral>
  0.0895

> <r_epik_State_Penalty>
  0.0799

> <r_epik_Charging_Adjusted_Penalty>
0.0858597936713432

> <i_epik_Tot_Q>
1

> <i_epik_Tot_abs_Q>
1

$$$$
