1cim_ligand
                    3D
 Schrodinger Suite 2020-3.
 30 31  0  0  1  0            999 V2000
   -6.1700    3.6520   15.4750 S   0  0  0  0  0  0
   -5.3260    2.2020   15.6860 C   0  0  0  0  0  0
   -3.9990    2.2880   15.2110 C   0  0  0  0  0  0
   -3.7300    3.5680   14.6270 C   0  0  0  0  0  0
   -2.4180    3.9510   13.9900 C   0  0  2  0  0  0
   -2.3160    5.4870   13.7360 C   0  0  0  0  0  0
   -3.5540    6.0630   13.0530 C   0  0  1  0  0  0
   -4.8950    6.0150   14.2140 S   0  0  0  0  0  0
   -4.8820    4.3900   14.6570 C   0  0  0  0  0  0
   -5.8890    0.9210   16.7120 S   0  0  0  0  0  0
   -7.3130    0.7920   16.6570 O   0  0  0  0  0  0
   -5.3050    1.0540   18.0130 O   0  0  0  0  0  0
   -5.2850   -0.5820   16.0930 N   0  0  0  0  0  0
   -2.2350    3.2710   12.6770 N   0  3  0  0  0  0
   -3.4120    7.5370   12.6810 C   0  0  0  0  0  0
   -6.0970    6.3500   13.4880 O   0  0  0  0  0  0
   -4.5140    6.8310   15.3300 O   0  0  0  0  0  0
   -3.2699    1.4807   15.2801 H   0  0  0  0  0  0
   -1.6464    3.5956   14.6888 H   0  0  0  0  0  0
   -2.1906    6.0098   14.6957 H   0  0  0  0  0  0
   -1.4508    5.6951   13.0893 H   0  0  0  0  0  0
   -3.5792    5.5131   12.1007 H   0  0  0  0  0  0
   -5.6322   -1.4076   16.7317 H   0  0  0  0  0  0
   -4.1852   -0.5606   16.0870 H   0  0  0  0  0  0
   -2.3007    2.1818   12.8159 H   0  0  0  0  0  0
   -1.2484    3.5292   12.2647 H   0  0  0  0  0  0
   -3.0208    3.6000   11.9811 H   0  0  0  0  0  0
   -2.5927    7.6550   11.9566 H   0  0  0  0  0  0
   -3.1898    8.1235   13.5847 H   0  0  0  0  0  0
   -4.3513    7.8944   12.2337 H   0  0  0  0  0  0
  1  9  1  0  0  0
  1  2  1  0  0  0
  2 10  1  0  0  0
  2  3  2  0  0  0
  3  4  1  0  0  0
  3 18  1  0  0  0
  4  9  2  0  0  0
  4  5  1  0  0  0
  5 14  1  0  0  0
  5  6  1  0  0  0
  5 19  1  0  0  0
  6  7  1  0  0  0
  6 20  1  0  0  0
  6 21  1  0  0  0
  7 15  1  0  0  0
  7  8  1  0  0  0
  7 22  1  0  0  0
  8 17  2  0  0  0
  8 16  2  0  0  0
  8  9  1  0  0  0
 10 13  1  0  0  0
 10 12  2  0  0  0
 10 11  2  0  0  0
 13 23  1  0  0  0
 13 24  1  0  0  0
 14 25  1  0  0  0
 14 26  1  0  0  0
 14 27  1  0  0  0
 15 28  1  0  0  0
 15 29  1  0  0  0
 15 30  1  0  0  0
M  CHG  1  14   1
M  END
> <s_m_source_file>
../1cim_ligand.sdf

> <i_m_source_file_index>
1

> <s_epik_input>
Tz1TKD1PKShbTkgyXSljKFtjSF0xKXNjKGMxMilTKD1PKSg9TylbQ0BASF0oW0NIM10pW0NIMl1bQ0BASF0yW05IMytd

> <s_epik_cmdline>
J2VwaWtfYXBwJywgJy1pbWFlJywgJ2xpZ2FuZF9wcm8ubWFlJywgJy1vbWFlJywgJ2xpZ2FuZF9wcmVwLm1hZScsICctbXMnLCAnMScsICctcGgnLCAnNycsICctcGh0JywgJzAuNScsICctbnQn

> <r_lp_tautomer_probability>
1

> <r_epik_Ionization_Penalty>
  0.1105

> <r_epik_Ionization_Penalty_Charging>
  0.0183

> <r_epik_Ionization_Penalty_Neutral>
  0.0922

> <r_epik_State_Penalty>
 -0.0000

> <r_epik_Charging_Adjusted_Penalty>
0.0182743268821623

> <i_epik_Tot_Q>
1

> <i_epik_Tot_abs_Q>
1

$$$$
