1cin_ligand
                    3D
 Schrodinger Suite 2020-3.
 33 34  0  0  1  0            999 V2000
   -6.1220    3.6020   15.5180 S   0  0  0  0  0  0
   -5.2970    2.1280   15.6510 C   0  0  0  0  0  0
   -4.0240    2.1630   15.0510 C   0  0  0  0  0  0
   -3.7950    3.4340   14.4350 C   0  0  0  0  0  0
   -2.5480    3.8070   13.7010 C   0  0  2  0  0  0
   -2.4560    5.3470   13.4550 C   0  0  0  0  0  0
   -3.7100    5.9440   12.8360 C   0  0  1  0  0  0
   -4.9690    5.9070   14.0730 S   0  0  0  0  0  0
   -4.9220    4.2820   14.5570 C   0  0  0  0  0  0
   -5.8630    0.9030   16.7140 S   0  0  0  0  0  0
   -7.2960    0.8830   16.6510 O   0  0  0  0  0  0
   -5.2860    1.0350   18.0140 O   0  0  0  0  0  0
   -5.3260   -0.6530   16.1270 N   0  0  0  0  0  0
   -2.5240    3.0910   12.4030 N   0  3  0  0  0  0
   -3.5370    7.4160   12.4500 C   0  0  0  0  0  0
   -6.2160    6.2230   13.4320 O   0  0  0  0  0  0
   -4.5920    6.6940   15.2230 O   0  0  0  0  0  0
   -1.1720    3.2170   11.8390 C   0  0  0  0  0  0
   -3.3124    1.3374   15.0551 H   0  0  0  0  0  0
   -1.6973    3.4678   14.3103 H   0  0  0  0  0  0
   -2.2869    5.8618   14.4123 H   0  0  0  0  0  0
   -1.6207    5.5599   12.7716 H   0  0  0  0  0  0
   -3.8187    5.4019   11.8850 H   0  0  0  0  0  0
   -5.6846   -1.4435   16.8027 H   0  0  0  0  0  0
   -4.2267   -0.6719   16.0913 H   0  0  0  0  0  0
   -2.7709    2.0313   12.5642 H   0  0  0  0  0  0
   -3.2626    3.5402   11.7227 H   0  0  0  0  0  0
   -2.7596    7.5033   11.6767 H   0  0  0  0  0  0
   -3.2390    7.9949   13.3366 H   0  0  0  0  0  0
   -4.4882    7.8069   12.0595 H   0  0  0  0  0  0
   -1.1274    2.6928   10.8730 H   0  0  0  0  0  0
   -0.4428    2.7717   12.5318 H   0  0  0  0  0  0
   -0.9344    4.2807   11.6903 H   0  0  0  0  0  0
  1  9  1  0  0  0
  1  2  1  0  0  0
  2 10  1  0  0  0
  2  3  2  0  0  0
  3  4  1  0  0  0
  3 19  1  0  0  0
  4  9  2  0  0  0
  4  5  1  0  0  0
  5 14  1  0  0  0
  5  6  1  0  0  0
  5 20  1  0  0  0
  6  7  1  0  0  0
  6 21  1  0  0  0
  6 22  1  0  0  0
  7 15  1  0  0  0
  7  8  1  0  0  0
  7 23  1  0  0  0
  8 17  2  0  0  0
  8 16  2  0  0  0
  8  9  1  0  0  0
 10 13  1  0  0  0
 10 12  2  0  0  0
 10 11  2  0  0  0
 13 24  1  0  0  0
 13 25  1  0  0  0
 14 18  1  0  0  0
 14 26  1  0  0  0
 14 27  1  0  0  0
 15 28  1  0  0  0
 15 29  1  0  0  0
 15 30  1  0  0  0
 18 31  1  0  0  0
 18 32  1  0  0  0
 18 33  1  0  0  0
M  CHG  1  14   1
M  END
> <s_m_source_file>
../1cin_ligand.sdf

> <i_m_source_file_index>
1

> <s_epik_input>
Tz1TKD1PKShbTkgyXSljKFtjSF0xKXNjKGMxMilTKD1PKSg9TylbQ0BASF0oW0NIM10pW0NIMl1bQ0BASF0yW05IMitdW0NIM10=

> <s_epik_cmdline>
J2VwaWtfYXBwJywgJy1pbWFlJywgJ2xpZ2FuZF9wcm8ubWFlJywgJy1vbWFlJywgJ2xpZ2FuZF9wcmVwLm1hZScsICctbXMnLCAnMScsICctcGgnLCAnNycsICctcGh0JywgJzAuNScsICctbnQn

> <r_epik_Ionization_Penalty>
  0.0958

> <r_epik_Ionization_Penalty_Charging>
  0.0059

> <r_epik_Ionization_Penalty_Neutral>
  0.0899

> <r_epik_State_Penalty>
  0.0803

> <r_epik_Charging_Adjusted_Penalty>
0.086201013831375

> <i_epik_Tot_Q>
1

> <i_epik_Tot_abs_Q>
1

$$$$
