1ciz_ligand
                    3D
 Schrodinger Suite 2020-3.
 63 67  0  0  1  0            999 V2000
   25.4560   51.1780   -2.3930 N   0  0  0  0  0  0
   27.6610   50.2570   -1.9370 C   0  0  0  0  0  0
   28.6140   49.7750   -1.0260 C   0  0  0  0  0  0
   28.2770   49.7360    0.3420 C   0  0  0  0  0  0
   26.9820   50.0630    0.7910 C   0  0  0  0  0  0
   32.5770   44.3250    0.6390 N   0  0  0  0  0  0
   29.0070   46.6580    2.0550 C   0  0  2  0  0  0
   20.9740   54.5130   -6.9150 C   0  0  0  0  0  0
   23.6950   52.6150   -4.2130 C   0  0  0  0  0  0
   21.2610   55.1230   -5.6720 C   0  0  0  0  0  0
   28.9740   49.5700    2.8350 O   0  0  0  0  0  0
   30.7430   49.9880    1.1760 O   0  0  0  0  0  0
   26.3820   50.6810   -1.4920 C   0  0  0  0  0  0
   26.0370   50.5360   -0.1270 C   0  0  0  0  0  0
   29.5300   49.3390    1.5320 S   0  0  0  0  0  0
   25.0140   52.0770   -4.7440 C   0  0  0  0  0  0
   23.4350   52.6960   -2.7220 C   0  0  0  0  0  0
   24.1100   51.5760   -1.9360 C   0  0  0  0  0  0
   25.7170   51.0580   -3.8440 C   0  0  0  0  0  0
   22.1510   54.4840   -4.7830 C   0  0  0  0  0  0
   22.7440   53.2500   -5.1440 C   0  0  0  0  0  0
   22.4440   52.6430   -6.3870 C   0  0  0  0  0  0
   21.5540   53.2750   -7.2800 C   0  0  0  0  0  0
   29.9310   47.6640    1.5190 N   0  0  3  0  0  0
   29.7920   45.5460    2.7920 C   0  0  0  0  0  0
   28.1190   46.1410    0.9550 C   0  0  0  0  0  0
   26.8490   45.7360    1.2070 O   0  5  0  0  0  0
   28.5190   46.0620   -0.1600 O   0  0  0  0  0  0
   30.4940   41.4500   -0.6950 C   0  0  0  0  0  0
   31.6400   42.2650   -0.5800 C   0  0  0  0  0  0
   31.6280   43.3590    0.3160 C   0  0  0  0  0  0
   30.4570   43.6210    1.0980 C   0  0  0  0  0  0
   29.3150   42.7940    0.9730 C   0  0  0  0  0  0
   29.3390   41.7040    0.0760 C   0  0  0  0  0  0
   32.0520   45.1740    1.5630 C   0  0  0  0  0  0
   30.7380   44.8020    1.8830 C   0  0  0  0  0  0
   27.9061   50.3061   -2.9979 H   0  0  0  0  0  0
   29.5925   49.4385   -1.3688 H   0  0  0  0  0  0
   26.7188   49.9488    1.8426 H   0  0  0  0  0  0
   28.3467   47.1591    2.7781 H   0  0  0  0  0  0
   20.2915   55.0069   -7.6067 H   0  0  0  0  0  0
   23.1299   51.6836   -4.3648 H   0  0  0  0  0  0
   20.8008   56.0741   -5.4042 H   0  0  0  0  0  0
   25.0329   50.7933    0.2102 H   0  0  0  0  0  0
   24.8439   51.5756   -5.7082 H   0  0  0  0  0  0
   25.7201   52.9090   -4.8829 H   0  0  0  0  0  0
   23.8167   53.6522   -2.3347 H   0  0  0  0  0  0
   22.3531   52.6300   -2.5343 H   0  0  0  0  0  0
   23.4319   50.7120   -1.9964 H   0  0  0  0  0  0
   24.1651   51.9268   -0.8949 H   0  0  0  0  0  0
   26.7938   51.1777   -4.0340 H   0  0  0  0  0  0
   25.3907   50.0678   -4.1946 H   0  0  0  0  0  0
   22.3816   54.9395   -3.8200 H   0  0  0  0  0  0
   22.8998   51.6894   -6.6534 H   0  0  0  0  0  0
   21.3159   52.8156   -8.2393 H   0  0  0  0  0  0
   30.9594   47.3793    1.2519 H   0  0  0  0  0  0
   30.3854   45.9924    3.6035 H   0  0  0  0  0  0
   29.0853   44.8160    3.2134 H   0  0  0  0  0  0
   30.4910   40.6007   -1.3940 H   0  0  0  0  0  0
   32.5328   42.0470   -1.1845 H   0  0  0  0  0  0
   28.4166   43.0025    1.5726 H   0  0  0  0  0  0
   28.4659   41.0587   -0.0212 H   0  0  0  0  0  0
   32.5091   46.0496    2.0471 H   0  0  0  0  0  0
  1 19  1  0  0  0
  1 18  1  0  0  0
  1 13  1  0  0  0
  2 13  1  0  0  0
  2  3  2  0  0  0
  2 37  1  0  0  0
  3  4  1  0  0  0
  3 38  1  0  0  0
  4 15  1  0  0  0
  4  5  2  0  0  0
  5 14  1  0  0  0
  5 39  1  0  0  0
  6 31  2  0  0  0
  6 35  1  0  0  0
  7 24  1  0  0  0
  7 25  1  0  0  0
  7 26  1  0  0  0
  7 40  1  0  0  0
  8 10  1  0  0  0
  8 23  2  0  0  0
  8 41  1  0  0  0
  9 17  1  0  0  0
  9 16  1  0  0  0
  9 21  1  0  0  0
  9 42  1  0  0  0
 10 20  2  0  0  0
 10 43  1  0  0  0
 11 15  2  0  0  0
 12 15  2  0  0  0
 13 14  2  0  0  0
 14 44  1  0  0  0
 15 24  1  0  0  0
 16 19  1  0  0  0
 16 45  1  0  0  0
 16 46  1  0  0  0
 17 18  1  0  0  0
 17 47  1  0  0  0
 17 48  1  0  0  0
 18 49  1  0  0  0
 18 50  1  0  0  0
 19 51  1  0  0  0
 19 52  1  0  0  0
 20 21  1  0  0  0
 20 53  1  0  0  0
 21 22  2  0  0  0
 22 23  1  0  0  0
 22 54  1  0  0  0
 23 55  1  0  0  0
 24 56  1  0  0  0
 25 36  1  0  0  0
 25 57  1  0  0  0
 25 58  1  0  0  0
 26 28  2  0  0  0
 26 27  1  0  0  0
 29 30  2  0  0  0
 29 34  1  0  0  0
 29 59  1  0  0  0
 30 31  1  0  0  0
 30 60  1  0  0  0
 31 32  1  0  0  0
 32 36  1  0  0  0
 32 33  2  0  0  0
 33 34  1  0  0  0
 33 61  1  0  0  0
 34 62  1  0  0  0
 35 36  2  0  0  0
 35 63  1  0  0  0
M  CHG  1  27  -1
M  END
> <s_m_source_file>
../1ciz_ligand.sdf

> <i_m_source_file_index>
1

> <s_epik_input>
W2NIXTFbY0hdW2NIXVtjSF1bY0hdYzFbQ0hdKFtDSDJdW0NIMl0yKVtDSDJdW0NIMl1OMmMoW2NIXVtjSF0zKVtjSF1bY0hdYzNTKD1PKSg9TylbTkhdW0NAQEhdKEMoPU8pW09IXSlbQ0gyXUMoPVtDSF1OPTQpQyhDNDUpPVtDSF1bQ0gyXVtDSF09W0NIXTU=

> <s_epik_cmdline>
J2VwaWtfYXBwJywgJy1pbWFlJywgJ2xpZ2FuZF9wcm8ubWFlJywgJy1vbWFlJywgJ2xpZ2FuZF9wcmVwLm1hZScsICctbXMnLCAnMScsICctcGgnLCAnNycsICctcGh0JywgJzAuNScsICctbnQn

> <r_lp_tautomer_probability>
1

> <r_epik_Ionization_Penalty>
  0.0005

> <r_epik_Ionization_Penalty_Charging>
  0.0000

> <r_epik_Ionization_Penalty_Neutral>
  0.0005

> <r_epik_State_Penalty>
 -0.0000

> <r_epik_Charging_Adjusted_Penalty>
2.61042970785935e-05

> <i_epik_Tot_Q>
-1

> <i_epik_Tot_abs_Q>
1

> <s_epik_Chemistry_Notes>
This compound has an imine and may undergo hydrolysis.

$$$$
