1cj1_ligand
                    3D
 Schrodinger Suite 2020-3.
 84 87  0  0  1  0            999 V2000
   24.9600  -12.2550   30.5780 N   0  0  0  0  0  0
   25.8700  -13.1800   30.2670 C   0  0  0  0  0  0
   25.4590  -14.4040   29.8100 C   0  0  0  0  0  0
   26.3660  -15.3050   29.4420 C   0  0  0  0  0  0
   27.6910  -14.9920   29.5290 C   0  0  0  0  0  0
   28.1470  -13.7820   29.9860 C   0  0  0  0  0  0
   27.2120  -12.8770   30.3570 C   0  0  0  0  0  0
   29.5850  -13.6360   30.4370 C   0  0  0  0  0  0
   29.8520  -12.3140   30.9450 O   0  0  0  0  0  0
   30.1630  -11.3550   29.9670 C   0  0  0  0  0  0
   30.1270  -11.6070   28.7500 O   0  0  0  0  0  0
   30.4330  -10.1540   30.4600 N   0  0  0  0  0  0
   30.8020   -9.0790   29.5820 C   0  0  1  0  0  0
   30.0270   -7.8460   29.9340 C   0  0  0  0  0  0
   28.5880   -8.1230   29.7910 C   0  0  0  0  0  0
   27.9760   -8.0820   28.5410 C   0  0  0  0  0  0
   26.6140   -8.5330   28.3580 C   0  0  0  0  0  0
   27.8530   -8.5770   30.8510 C   0  0  0  0  0  0
   26.5360   -9.0100   30.6750 C   0  0  0  0  0  0
   25.9180   -8.9880   29.4320 C   0  0  0  0  0  0
   32.2860   -8.8510   29.8040 C   0  0  0  0  0  0
   32.7980   -8.9840   30.9500 O   0  0  0  0  0  0
   24.5100   -9.4220   29.3640 O   0  0  0  0  0  0
   23.8390   -9.8610   27.9260 P   0  0  0  0  0  0
   23.6440   -8.6090   27.0600 O   0  5  0  0  0  0
   22.4820  -10.5270   28.1180 O   0  5  0  0  0  0
   24.7900  -10.7800   27.2470 O   0  0  0  0  0  0
   32.9790   -8.5400   28.7000 N   0  0  0  0  0  0
   34.4200   -8.3100   28.7230 C   0  0  0  0  0  0
   35.0520   -7.7300   27.5120 C   0  0  0  0  0  0
   34.9590   -8.6520   26.3390 C   0  0  0  0  0  0
   35.3910  -10.0650   26.7470 C   0  0  0  0  0  0
   34.7290  -10.5290   28.0340 C   0  0  0  0  0  0
   34.9910   -9.5880   29.1330 C   0  0  0  0  0  0
   34.7150   -7.3260   29.7720 C   0  0  0  0  0  0
   35.6780   -7.6200   30.4430 O   0  0  0  0  0  0
   33.9680   -6.2400   29.9580 N   0  0  0  0  0  0
   34.2740   -5.3080   30.9960 C   0  0  2  0  0  0
   33.6070   -5.9380   32.1370 C   0  0  0  0  0  0
   33.0070   -5.1580   33.0500 C   0  0  0  0  0  0
   32.9520   -3.6430   32.9820 C   0  0  0  0  0  0
   33.8090   -3.0710   31.9380 C   0  0  0  0  0  0
   33.8330   -3.8760   30.6730 C   0  0  2  0  0  0
   32.4460   -3.7870   30.0560 C   0  0  0  0  0  0
   31.9450   -2.5670   29.9830 N   0  0  0  0  0  0
   31.8390   -4.7880   29.6380 O   0  0  0  0  0  0
   23.8882  -12.4924   30.5076 H   0  0  0  0  0  0
   25.2816  -11.2551   30.9047 H   0  0  0  0  0  0
   24.3963  -14.6382   29.7483 H   0  0  0  0  0  0
   26.0539  -16.2827   29.0749 H   0  0  0  0  0  0
   28.4221  -15.7393   29.2206 H   0  0  0  0  0  0
   27.5222  -11.9009   30.7299 H   0  0  0  0  0  0
   29.7944  -14.3629   31.2357 H   0  0  0  0  0  0
   30.2569  -13.8224   29.5862 H   0  0  0  0  0  0
   30.3737   -9.9824   31.5449 H   0  0  0  0  0  0
   30.5592   -9.3546   28.5451 H   0  0  0  0  0  0
   30.2467   -7.5589   30.9729 H   0  0  0  0  0  0
   30.3147   -7.0268   29.2586 H   0  0  0  0  0  0
   28.5336   -7.7030   27.6845 H   0  0  0  0  0  0
   26.1521   -8.5081   27.3710 H   0  0  0  0  0  0
   28.2997   -8.6014   31.8450 H   0  0  0  0  0  0
   25.9785   -9.3751   31.5375 H   0  0  0  0  0  0
   32.4243   -8.4600   27.7535 H   0  0  0  0  0  0
   34.5476   -6.7880   27.2506 H   0  0  0  0  0  0
   36.1156   -7.5332   27.7120 H   0  0  0  0  0  0
   33.9206   -8.6814   25.9772 H   0  0  0  0  0  0
   35.6172   -8.2904   25.5353 H   0  0  0  0  0  0
   35.1195  -10.7753   25.9521 H   0  0  0  0  0  0
   36.4800  -10.0855   26.9007 H   0  0  0  0  0  0
   33.6417  -10.5990   27.8825 H   0  0  0  0  0  0
   35.1245  -11.5164   28.3145 H   0  0  0  0  0  0
   36.0715   -9.4695   29.3020 H   0  0  0  0  0  0
   34.5090   -9.9234   30.0632 H   0  0  0  0  0  0
   33.1049   -6.0653   29.2988 H   0  0  0  0  0  0
   35.3565   -5.2085   31.1644 H   0  0  0  0  0  0
   33.5923   -7.0318   32.2531 H   0  0  0  0  0  0
   32.5108   -5.6120   33.9205 H   0  0  0  0  0  0
   31.9207   -3.3226   32.7727 H   0  0  0  0  0  0
   33.2791   -3.2207   33.9436 H   0  0  0  0  0  0
   33.4496   -2.0640   31.6796 H   0  0  0  0  0  0
   34.8435   -3.0078   32.3066 H   0  0  0  0  0  0
   34.5568   -3.4746   29.9485 H   0  0  0  0  0  0
   32.5209   -1.7121   30.3670 H   0  0  0  0  0  0
   30.9519   -2.4060   29.5382 H   0  0  0  0  0  0
  1  2  1  0  0  0
  1 47  1  0  0  0
  1 48  1  0  0  0
  2  3  2  0  0  0
  2  7  1  0  0  0
  3  4  1  0  0  0
  3 49  1  0  0  0
  4  5  2  0  0  0
  4 50  1  0  0  0
  5  6  1  0  0  0
  5 51  1  0  0  0
  6  7  2  0  0  0
  6  8  1  0  0  0
  7 52  1  0  0  0
  8  9  1  0  0  0
  8 53  1  0  0  0
  8 54  1  0  0  0
  9 10  1  0  0  0
 10 11  2  0  0  0
 10 12  1  0  0  0
 12 13  1  0  0  0
 12 55  1  0  0  0
 13 14  1  0  0  0
 13 21  1  0  0  0
 13 56  1  0  0  0
 14 15  1  0  0  0
 14 57  1  0  0  0
 14 58  1  0  0  0
 15 16  2  0  0  0
 15 18  1  0  0  0
 16 17  1  0  0  0
 16 59  1  0  0  0
 17 20  2  0  0  0
 17 60  1  0  0  0
 18 19  2  0  0  0
 18 61  1  0  0  0
 19 20  1  0  0  0
 19 62  1  0  0  0
 20 23  1  0  0  0
 21 22  2  0  0  0
 21 28  1  0  0  0
 23 24  1  0  0  0
 24 25  1  0  0  0
 24 26  1  0  0  0
 24 27  2  0  0  0
 28 29  1  0  0  0
 28 63  1  0  0  0
 29 30  1  0  0  0
 29 34  1  0  0  0
 29 35  1  0  0  0
 30 31  1  0  0  0
 30 64  1  0  0  0
 30 65  1  0  0  0
 31 32  1  0  0  0
 31 66  1  0  0  0
 31 67  1  0  0  0
 32 33  1  0  0  0
 32 68  1  0  0  0
 32 69  1  0  0  0
 33 34  1  0  0  0
 33 70  1  0  0  0
 33 71  1  0  0  0
 34 72  1  0  0  0
 34 73  1  0  0  0
 35 36  2  0  0  0
 35 37  1  0  0  0
 37 38  1  0  0  0
 37 74  1  0  0  0
 38 39  1  0  0  0
 38 43  1  0  0  0
 38 75  1  0  0  0
 39 40  2  0  0  0
 39 76  1  0  0  0
 40 41  1  0  0  0
 40 77  1  0  0  0
 41 42  1  0  0  0
 41 78  1  0  0  0
 41 79  1  0  0  0
 42 43  1  0  0  0
 42 80  1  0  0  0
 42 81  1  0  0  0
 43 44  1  0  0  0
 43 82  1  0  0  0
 44 45  1  0  0  0
 44 46  2  0  0  0
 45 83  1  0  0  0
 45 84  1  0  0  0
M  CHG  2  25  -1  26  -1
M  END
> <s_m_source_file>
../1cj1_ligand.sdf

> <i_m_source_file_index>
1

> <s_epik_input>
W05IMl1jMVtjSF1bY0hdW2NIXWMoW2NIXTEpW0NIMl1PQyg9TylbTkhdW0NAQEhdKFtDSDJdYzJbY0hdW2NIXWMoW2NIXVtjSF0yKU9QKD1PKShbT0hdKVtPSF0pQyg9TylbTkhdQzMoW0NIMl1bQ0gyXVtDSDJdW0NIMl1bQ0gyXTMpQyg9TylbTkhdW0NAQEhdNFtDSF09W0NIXVtDSDJdW0NIMl1bQ0BASF00Qyg9TylbTkgyXQ==

> <s_epik_cmdline>
J2VwaWtfYXBwJywgJy1pbWFlJywgJ2xpZ2FuZF9wcm8ubWFlJywgJy1vbWFlJywgJ2xpZ2FuZF9wcmVwLm1hZScsICctbXMnLCAnMScsICctcGgnLCAnNycsICctcGh0JywgJzAuNScsICctbnQn

> <r_epik_Ionization_Penalty>
  0.0859

> <r_epik_Ionization_Penalty_Charging>
  0.0842

> <r_epik_Ionization_Penalty_Neutral>
  0.0017

> <r_epik_State_Penalty>
  0.0749

> <r_epik_Charging_Adjusted_Penalty>
0.159079871568746

> <i_epik_Tot_Q>
-2

> <i_epik_Tot_abs_Q>
2

> <s_epik_Chemistry_Notes>
This compound has an ester and may undergo hydrolysis at high or low pH.

$$$$
