1cka_ligand
                    3D
 Schrodinger Suite 2020-3.
147151  0  0  1  0            999 V2000
  123.4010  141.3890   19.5450 N   0  3  0  0  0  0
  122.8660  140.8050   18.3160 C   0  0  2  0  0  0
  122.1830  139.4680   18.5490 C   0  0  0  0  0  0
  122.4260  138.8000   19.5520 O   0  0  0  0  0  0
  124.1130  140.6710   17.4470 C   0  0  0  0  0  0
  124.8310  141.9610   17.7610 C   0  0  0  0  0  0
  124.6710  142.1000   19.2800 C   0  0  0  0  0  0
  121.2660  139.0940   17.6450 N   0  0  0  0  0  0
  120.4870  137.8550   17.6690 C   0  0  2  0  0  0
  121.3150  136.5970   17.5210 C   0  0  0  0  0  0
  122.5050  136.6470   17.2210 O   0  0  0  0  0  0
  119.5650  138.0210   16.4560 C   0  0  0  0  0  0
  119.3730  139.4830   16.3690 C   0  0  0  0  0  0
  120.7780  139.9810   16.5750 C   0  0  0  0  0  0
  120.6910  135.4380   17.7230 N   0  0  0  0  0  0
  121.3980  134.1690   17.5880 C   0  0  2  0  0  0
  121.5500  133.8670   16.1040 C   0  0  0  0  0  0
  121.0330  134.5990   15.2510 O   0  0  0  0  0  0
  120.4380  133.1880   18.2410 C   0  0  0  0  0  0
  119.1280  133.7400   17.8360 C   0  0  0  0  0  0
  119.2930  135.2050   18.1180 C   0  0  0  0  0  0
  122.2670  132.7940   15.7980 N   0  0  0  0  0  0
  122.4840  132.3980   14.4080 C   0  0  2  0  0  0
  121.1430  132.0660   13.7410 C   0  0  0  0  0  0
  120.2670  131.4580   14.3660 O   0  0  0  0  0  0
  123.4180  131.1750   14.3550 C   0  0  0  0  0  0
  120.9890  132.4830   12.4880 N   0  0  0  0  0  0
  119.7730  132.1890   11.7120 C   0  0  2  0  0  0
  119.9450  130.7630   11.1930 C   0  0  0  0  0  0
  120.9350  130.4500   10.5380 O   0  0  0  0  0  0
  119.6700  133.1390   10.5270 C   0  0  0  0  0  0
  118.3080  133.4950    9.9700 C   0  0  0  0  0  0
  117.3770  134.0170   11.0960 C   0  0  0  0  0  0
  118.5280  134.5710    8.9120 C   0  0  0  0  0  0
  118.9930  129.8720   11.4930 N   0  0  0  0  0  0
  119.1470  128.4930   11.0060 C   0  0  2  0  0  0
  118.9980  128.3800    9.4870 C   0  0  0  0  0  0
  118.3630  129.2250    8.8570 O   0  0  0  0  0  0
  118.0230  127.7460   11.7290 C   0  0  0  0  0  0
  116.9380  128.8350   11.8580 C   0  0  0  0  0  0
  117.7200  130.0660   12.2120 C   0  0  0  0  0  0
  119.6410  127.3720    8.8710 N   0  0  0  0  0  0
  119.4890  127.2530    7.4150 C   0  0  2  0  0  0
  118.0620  126.8050    7.1200 C   0  0  0  0  0  0
  117.4280  126.1900    7.9740 O   0  0  0  0  0  0
  120.4730  126.1240    7.0580 C   0  0  0  0  0  0
  120.5300  125.2970    8.2900 C   0  0  0  0  0  0
  120.5710  126.3490    9.3840 C   0  0  0  0  0  0
  117.5420  127.1520    5.9500 N   0  0  0  0  0  0
  116.2140  126.6790    5.5720 C   0  0  2  0  0  0
  116.4210  125.3750    4.7960 C   0  0  0  0  0  0
  117.4240  125.2040    4.0890 O   0  0  0  0  0  0
  115.4850  127.7040    4.7090 C   0  0  0  0  0  0
  114.9600  128.8900    5.4990 C   0  0  0  0  0  0
  114.1880  129.8270    4.6140 C   0  0  0  0  0  0
  113.4870  130.8830    5.4200 C   0  0  0  0  0  0
  112.8910  131.9130    4.5340 N   0  3  0  0  0  0
  115.5080  124.4340    4.9770 N   0  0  0  0  0  0
  115.6100  123.1650    4.2790 C   0  0  2  0  0  0
  114.7350  123.2050    3.0280 C   0  0  0  0  0  0
  115.1790  122.0370    5.2050 C   0  0  0  0  0  0
  115.9040  122.0600    6.5450 C   0  0  0  0  0  0
  115.6260  120.7920    7.3260 C   0  0  0  0  0  0
  116.5190  120.6770    8.5530 C   0  0  0  0  0  0
  116.3350  119.3590    9.2390 N   0  3  0  0  0  0
  122.6741  142.1040   19.9579 H   0  0  0  0  0  0
  123.5880  140.5912   20.2789 H   0  0  0  0  0  0
  122.0768  141.4420   17.8901 H   0  0  0  0  0  0
  124.6745  139.7741   17.7473 H   0  0  0  0  0  0
  123.8165  140.5816   16.3915 H   0  0  0  0  0  0
  125.8849  141.8774   17.4572 H   0  0  0  0  0  0
  124.3559  142.7879   17.2128 H   0  0  0  0  0  0
  124.5787  143.1477   19.6020 H   0  0  0  0  0  0
  125.4859  141.6154   19.8378 H   0  0  0  0  0  0
  120.0015  137.7508   18.6506 H   0  0  0  0  0  0
  120.0567  137.6087   15.5626 H   0  0  0  0  0  0
  118.6219  137.4842   16.6361 H   0  0  0  0  0  0
  118.9598  139.7405   15.3826 H   0  0  0  0  0  0
  118.6757  139.8087   17.1550 H   0  0  0  0  0  0
  120.8183  141.0255   16.9177 H   0  0  0  0  0  0
  121.4114  139.8629   15.6834 H   0  0  0  0  0  0
  122.3975  134.1782   18.0472 H   0  0  0  0  0  0
  120.6234  132.1772   17.8486 H   0  0  0  0  0  0
  120.5933  133.1927   19.3300 H   0  0  0  0  0  0
  118.9537  133.5268   16.7710 H   0  0  0  0  0  0
  118.3327  133.2759   18.4377 H   0  0  0  0  0  0
  119.1658  135.4559   19.1814 H   0  0  0  0  0  0
  118.6298  135.8380   17.5101 H   0  0  0  0  0  0
  122.7019  132.1981   16.6140 H   0  0  0  0  0  0
  122.9487  133.2612   13.9090 H   0  0  0  0  0  0
  124.3757  131.4239   14.8355 H   0  0  0  0  0  0
  123.5959  130.8947   13.3063 H   0  0  0  0  0  0
  122.9496  130.3327   14.8853 H   0  0  0  0  0  0
  121.8047  133.0640   12.0330 H   0  0  0  0  0  0
  118.8871  132.3145   12.3518 H   0  0  0  0  0  0
  120.1137  134.1091   10.7952 H   0  0  0  0  0  0
  120.2099  132.7138    9.6681 H   0  0  0  0  0  0
  117.8416  132.6051    9.5222 H   0  0  0  0  0  0
  117.2317  133.2268   11.8473 H   0  0  0  0  0  0
  116.4041  134.2980   10.6665 H   0  0  0  0  0  0
  117.8352  134.8962   11.5725 H   0  0  0  0  0  0
  119.1896  134.1810    8.1245 H   0  0  0  0  0  0
  118.9921  135.4531    9.3772 H   0  0  0  0  0  0
  117.5610  134.8550    8.4712 H   0  0  0  0  0  0
  120.1600  128.1246   11.2254 H   0  0  0  0  0  0
  117.7008  126.8891   11.1192 H   0  0  0  0  0  0
  118.3884  127.3866   12.7023 H   0  0  0  0  0  0
  116.4057  128.9374   10.9009 H   0  0  0  0  0  0
  116.2248  128.5505   12.6456 H   0  0  0  0  0  0
  117.9169  130.1448   13.2914 H   0  0  0  0  0  0
  117.2365  130.9889   11.8591 H   0  0  0  0  0  0
  119.6784  128.2019    6.8918 H   0  0  0  0  0  0
  120.0865  125.5595    6.1966 H   0  0  0  0  0  0
  121.4514  126.5573    6.8032 H   0  0  0  0  0  0
  119.6368  124.6573    8.3438 H   0  0  0  0  0  0
  121.4314  124.6669    8.2673 H   0  0  0  0  0  0
  121.5689  126.7931    9.5144 H   0  0  0  0  0  0
  120.2068  125.9749   10.3522 H   0  0  0  0  0  0
  118.1120  127.7964    5.2646 H   0  0  0  0  0  0
  115.6265  126.5376    6.4912 H   0  0  0  0  0  0
  116.1721  128.0939    3.9436 H   0  0  0  0  0  0
  114.6243  127.2252    4.2192 H   0  0  0  0  0  0
  114.2952  128.5323    6.2990 H   0  0  0  0  0  0
  115.8045  129.4384    5.9418 H   0  0  0  0  0  0
  114.8772  130.3208    3.9132 H   0  0  0  0  0  0
  113.4342  129.2597    4.0484 H   0  0  0  0  0  0
  112.6855  130.4193    6.0138 H   0  0  0  0  0  0
  114.2081  131.3690    6.0937 H   0  0  0  0  0  0
  112.3842  132.6740    5.1456 H   0  0  0  0  0  0
  112.1622  131.4394    3.8598 H   0  0  0  0  0  0
  113.6848  132.3892    3.9397 H   0  0  0  0  0  0
  114.6675  124.6189    5.6621 H   0  0  0  0  0  0
  116.6652  123.0294    3.9995 H   0  0  0  0  0  0
  115.0653  124.0268    2.3757 H   0  0  0  0  0  0
  113.6865  123.3665    3.3189 H   0  0  0  0  0  0
  114.8229  122.2505    2.4884 H   0  0  0  0  0  0
  114.1007  122.1195    5.4061 H   0  0  0  0  0  0
  115.3898  121.0691    4.7267 H   0  0  0  0  0  0
  116.9876  122.1420    6.3742 H   0  0  0  0  0  0
  115.5593  122.9229    7.1337 H   0  0  0  0  0  0
  114.5780  120.7895    7.6601 H   0  0  0  0  0  0
  115.8080  119.9181    6.6832 H   0  0  0  0  0  0
  117.5724  120.7693    8.2498 H   0  0  0  0  0  0
  116.2705  121.4788    9.2638 H   0  0  0  0  0  0
  116.9930  119.3087   10.1190 H   0  0  0  0  0  0
  116.5894  118.5452    8.5440 H   0  0  0  0  0  0
  115.2874  119.2548    9.5580 H   0  0  0  0  0  0
  1  2  1  0  0  0
  1  7  1  0  0  0
  1 66  1  0  0  0
  1 67  1  0  0  0
  2  3  1  0  0  0
  2  5  1  0  0  0
  2 68  1  0  0  0
  3  4  2  0  0  0
  3  8  1  0  0  0
  5  6  1  0  0  0
  5 69  1  0  0  0
  5 70  1  0  0  0
  6  7  1  0  0  0
  6 71  1  0  0  0
  6 72  1  0  0  0
  7 73  1  0  0  0
  7 74  1  0  0  0
  8  9  1  0  0  0
  8 14  1  0  0  0
  9 10  1  0  0  0
  9 12  1  0  0  0
  9 75  1  0  0  0
 10 11  2  0  0  0
 10 15  1  0  0  0
 12 13  1  0  0  0
 12 76  1  0  0  0
 12 77  1  0  0  0
 13 14  1  0  0  0
 13 78  1  0  0  0
 13 79  1  0  0  0
 14 80  1  0  0  0
 14 81  1  0  0  0
 15 16  1  0  0  0
 15 21  1  0  0  0
 16 17  1  0  0  0
 16 19  1  0  0  0
 16 82  1  0  0  0
 17 18  2  0  0  0
 17 22  1  0  0  0
 19 20  1  0  0  0
 19 83  1  0  0  0
 19 84  1  0  0  0
 20 21  1  0  0  0
 20 85  1  0  0  0
 20 86  1  0  0  0
 21 87  1  0  0  0
 21 88  1  0  0  0
 22 23  1  0  0  0
 22 89  1  0  0  0
 23 24  1  0  0  0
 23 26  1  0  0  0
 23 90  1  0  0  0
 24 25  2  0  0  0
 24 27  1  0  0  0
 26 91  1  0  0  0
 26 92  1  0  0  0
 26 93  1  0  0  0
 27 28  1  0  0  0
 27 94  1  0  0  0
 28 29  1  0  0  0
 28 31  1  0  0  0
 28 95  1  0  0  0
 29 30  2  0  0  0
 29 35  1  0  0  0
 31 32  1  0  0  0
 31 96  1  0  0  0
 31 97  1  0  0  0
 32 33  1  0  0  0
 32 34  1  0  0  0
 32 98  1  0  0  0
 33 99  1  0  0  0
 33100  1  0  0  0
 33101  1  0  0  0
 34102  1  0  0  0
 34103  1  0  0  0
 34104  1  0  0  0
 35 36  1  0  0  0
 35 41  1  0  0  0
 36 37  1  0  0  0
 36 39  1  0  0  0
 36105  1  0  0  0
 37 38  2  0  0  0
 37 42  1  0  0  0
 39 40  1  0  0  0
 39106  1  0  0  0
 39107  1  0  0  0
 40 41  1  0  0  0
 40108  1  0  0  0
 40109  1  0  0  0
 41110  1  0  0  0
 41111  1  0  0  0
 42 43  1  0  0  0
 42 48  1  0  0  0
 43 44  1  0  0  0
 43 46  1  0  0  0
 43112  1  0  0  0
 44 45  2  0  0  0
 44 49  1  0  0  0
 46 47  1  0  0  0
 46113  1  0  0  0
 46114  1  0  0  0
 47 48  1  0  0  0
 47115  1  0  0  0
 47116  1  0  0  0
 48117  1  0  0  0
 48118  1  0  0  0
 49 50  1  0  0  0
 49119  1  0  0  0
 50 51  1  0  0  0
 50 53  1  0  0  0
 50120  1  0  0  0
 51 52  2  0  0  0
 51 58  1  0  0  0
 53 54  1  0  0  0
 53121  1  0  0  0
 53122  1  0  0  0
 54 55  1  0  0  0
 54123  1  0  0  0
 54124  1  0  0  0
 55 56  1  0  0  0
 55125  1  0  0  0
 55126  1  0  0  0
 56 57  1  0  0  0
 56127  1  0  0  0
 56128  1  0  0  0
 57129  1  0  0  0
 57130  1  0  0  0
 57131  1  0  0  0
 58 59  1  0  0  0
 58132  1  0  0  0
 59 60  1  0  0  0
 59 61  1  0  0  0
 59133  1  0  0  0
 60134  1  0  0  0
 60135  1  0  0  0
 60136  1  0  0  0
 61 62  1  0  0  0
 61137  1  0  0  0
 61138  1  0  0  0
 62 63  1  0  0  0
 62139  1  0  0  0
 62140  1  0  0  0
 63 64  1  0  0  0
 63141  1  0  0  0
 63142  1  0  0  0
 64 65  1  0  0  0
 64143  1  0  0  0
 64144  1  0  0  0
 65145  1  0  0  0
 65146  1  0  0  0
 65147  1  0  0  0
M  CHG  3   1   1  57   1  65   1
M  END
> <s_m_source_file>
../1cka_ligand.sdf

> <i_m_source_file_index>
1

> <s_epik_input>
W0NIMl0xW0NIMl1bQ0gyXVtOSDIrXVtDQEBIXTFDKD1PKU4yW0NAQEhdKFtDSDJdW0NIMl1bQ0gyXTIpQyg9TylOM1tDQEBIXShbQ0gyXVtDSDJdW0NIMl0zKUMoPU8pW05IXVtDQEBIXShbQ0gzXSlDKD1PKVtOSF1bQ0BASF0oW0NIMl1bQ0hdKFtDSDNdKVtDSDNdKUMoPU8pTjRbQ0BASF0oW0NIMl1bQ0gyXVtDSDJdNClDKD1PKU41W0NAQEhdKFtDSDJdW0NIMl1bQ0gyXTUpQyg9TylbTkhdW0NAQEhdKFtDSDJdW0NIMl1bQ0gyXVtDSDJdW05IMytdKUMoPU8pW05IXVtDQEhdKFtDSDNdKVtDSDJdW0NIMl1bQ0gyXVtDSDJdW05IMytd

> <s_epik_cmdline>
J2VwaWtfYXBwJywgJy1pbWFlJywgJ2xpZ2FuZF9wcm8ubWFlJywgJy1vbWFlJywgJ2xpZ2FuZF9wcmVwLm1hZScsICctbXMnLCAnMScsICctcGgnLCAnNycsICctcGh0JywgJzAuNScsICctbnQn

> <r_epik_Ionization_Penalty>
  0.0387

> <r_epik_Ionization_Penalty_Charging>
  0.0387

> <r_epik_Ionization_Penalty_Neutral>
  0.0000

> <r_epik_State_Penalty>
  0.0317

> <r_epik_Charging_Adjusted_Penalty>
0.0704396506559062

> <i_epik_Tot_Q>
3

> <i_epik_Tot_abs_Q>
3

$$$$
