1ckb_ligand
                    3D
 Schrodinger Suite 2020-3.
124128  0  0  1  0            999 V2000
  122.0740  139.0660   17.8570 N   0  3  0  0  0  0
  121.0060  138.0680   17.8280 C   0  0  2  0  0  0
  121.6070  136.7390   17.4500 C   0  0  0  0  0  0
  122.7370  136.6690   16.9810 O   0  0  0  0  0  0
  120.0900  138.5730   16.7030 C   0  0  0  0  0  0
  120.3690  139.9990   16.6300 C   0  0  0  0  0  0
  121.8590  140.0630   16.8000 C   0  0  0  0  0  0
  120.8470  135.6590   17.6310 N   0  0  0  0  0  0
  121.3860  134.3500   17.2820 C   0  0  2  0  0  0
  121.5310  134.1080   15.7710 C   0  0  0  0  0  0
  121.0600  134.9020   14.9430 O   0  0  0  0  0  0
  120.3980  133.3910   17.9560 C   0  0  0  0  0  0
  119.1260  134.1790   18.0700 C   0  0  0  0  0  0
  119.5840  135.5510   18.3790 C   0  0  0  0  0  0
  122.3080  133.0780   15.3940 N   0  0  0  0  0  0
  122.4580  132.8060   13.9640 C   0  0  2  0  0  0
  121.0980  132.4070   13.3900 C   0  0  0  0  0  0
  120.2980  131.7460   14.0600 O   0  0  0  0  0  0
  123.4680  131.6450   13.9260 C   0  0  0  0  0  0
  123.4260  131.0570   15.2720 C   0  0  0  0  0  0
  123.1980  132.2200   16.1960 C   0  0  0  0  0  0
  120.7860  132.9240   12.2130 N   0  0  0  0  0  0
  119.5260  132.5870   11.5830 C   0  0  2  0  0  0
  119.8340  131.2480   10.9460 C   0  0  0  0  0  0
  120.7450  131.1410   10.1140 O   0  0  0  0  0  0
  119.0830  133.6180   10.5140 C   0  0  0  0  0  0
  117.7510  133.2110    9.9380 C   0  0  0  0  0  0
  118.9250  134.9820   11.1210 C   0  0  0  0  0  0
  119.0800  130.2030   11.3320 N   0  0  0  0  0  0
  119.2720  128.8400   10.8110 C   0  0  2  0  0  0
  119.0650  128.6750    9.3100 C   0  0  0  0  0  0
  118.2800  129.3890    8.6970 O   0  0  0  0  0  0
  118.2430  128.0270   11.5940 C   0  0  0  0  0  0
  117.1190  129.0210   11.7950 C   0  0  0  0  0  0
  117.8760  130.2830   12.1860 C   0  0  0  0  0  0
  119.7760  127.7190    8.6970 N   0  0  0  0  0  0
  119.5840  127.5290    7.2610 C   0  0  2  0  0  0
  118.1760  126.9500    7.0210 C   0  0  0  0  0  0
  117.5480  126.4020    7.9470 O   0  0  0  0  0  0
  120.6840  126.4920    6.9080 C   0  0  0  0  0  0
  120.8030  125.6780    8.1800 C   0  0  0  0  0  0
  120.7770  126.7680    9.2370 C   0  0  0  0  0  0
  117.6910  127.0900    5.7920 N   0  0  0  0  0  0
  116.3960  126.5580    5.3880 C   0  0  2  0  0  0
  116.6790  125.2200    4.7020 C   0  0  0  0  0  0
  117.8020  124.9620    4.2650 O   0  0  0  0  0  0
  115.7310  127.5070    4.3950 C   0  0  0  0  0  0
  116.1130  128.9720    4.6080 C   0  0  0  0  0  0
  115.3270  129.9170    3.7120 C   0  0  0  0  0  0
  114.1500  130.4320    4.4000 N   0  0  0  0  0  0
  113.9710  131.7080    4.7340 C   0  0  0  0  0  0
  114.8680  132.6460    4.4460 N   0  0  0  0  0  0
  112.9320  132.0330    5.4600 N   0  3  0  0  0  0
  115.6730  124.3600    4.5990 N   0  0  0  0  0  0
  115.8620  123.0660    3.9460 C   0  0  0  0  0  0
  114.7420  122.7470    2.9590 C   0  0  0  0  0  0
  115.9940  121.9650    4.9850 C   0  0  0  0  0  0
  122.0781  139.5703   18.8346 H   0  0  0  0  0  0
  123.0430  138.5709   17.6957 H   0  0  0  0  0  0
  120.5083  137.9530   18.8022 H   0  0  0  0  0  0
  120.3404  138.0545   15.7657 H   0  0  0  0  0  0
  119.0412  138.3702   16.9652 H   0  0  0  0  0  0
  120.0383  140.3879   15.6556 H   0  0  0  0  0  0
  119.8296  140.5198   17.4349 H   0  0  0  0  0  0
  122.2166  141.0448   17.1438 H   0  0  0  0  0  0
  122.4137  139.7662   15.8977 H   0  0  0  0  0  0
  122.4204  134.2692   17.6473 H   0  0  0  0  0  0
  120.2708  132.4958   17.3296 H   0  0  0  0  0  0
  120.7874  133.0965   18.9417 H   0  0  0  0  0  0
  118.5772  134.1291   17.1180 H   0  0  0  0  0  0
  118.5045  133.7578   18.8740 H   0  0  0  0  0  0
  119.7792  135.6987   19.4514 H   0  0  0  0  0  0
  118.8813  136.3197   18.0250 H   0  0  0  0  0  0
  122.8005  133.6884   13.4036 H   0  0  0  0  0  0
  123.1638  130.9194   13.1572 H   0  0  0  0  0  0
  124.4676  132.0363   13.6858 H   0  0  0  0  0  0
  122.6053  130.3267   15.3276 H   0  0  0  0  0  0
  124.3807  130.5524   15.4817 H   0  0  0  0  0  0
  124.1209  132.7695   16.4333 H   0  0  0  0  0  0
  122.6901  131.9359   17.1294 H   0  0  0  0  0  0
  121.4848  133.6106   11.7127 H   0  0  0  0  0  0
  118.7312  132.5665   12.3432 H   0  0  0  0  0  0
  119.8405  133.6715    9.7182 H   0  0  0  0  0  0
  117.8371  132.2123    9.4851 H   0  0  0  0  0  0
  117.4465  133.9370    9.1697 H   0  0  0  0  0  0
  116.9973  133.1867   10.7388 H   0  0  0  0  0  0
  119.8846  135.3056   11.5505 H   0  0  0  0  0  0
  118.1627  134.9447   11.9131 H   0  0  0  0  0  0
  118.6119  135.6950   10.3441 H   0  0  0  0  0  0
  120.3248  128.5562   10.9562 H   0  0  0  0  0  0
  117.9374  127.1530   11.0001 H   0  0  0  0  0  0
  118.6871  127.6890   12.5419 H   0  0  0  0  0  0
  116.5546  129.1308   10.8572 H   0  0  0  0  0  0
  116.4470  128.6594   12.5872 H   0  0  0  0  0  0
  118.1769  130.2925   13.2440 H   0  0  0  0  0  0
  117.3224  131.2048   11.9539 H   0  0  0  0  0  0
  119.6608  128.4736    6.7026 H   0  0  0  0  0  0
  120.3568  125.8887    6.0483 H   0  0  0  0  0  0
  121.6158  127.0182    6.6533 H   0  0  0  0  0  0
  119.9542  124.9819    8.2506 H   0  0  0  0  0  0
  121.7439  125.1084    8.1642 H   0  0  0  0  0  0
  121.7454  127.2781    9.3468 H   0  0  0  0  0  0
  120.4423  126.4015   10.2187 H   0  0  0  0  0  0
  118.3125  127.6348    5.0661 H   0  0  0  0  0  0
  115.7582  126.4581    6.2787 H   0  0  0  0  0  0
  116.0273  127.2334    3.3716 H   0  0  0  0  0  0
  114.6379  127.4327    4.4925 H   0  0  0  0  0  0
  115.9155  129.2543    5.6527 H   0  0  0  0  0  0
  117.1820  129.1080    4.3873 H   0  0  0  0  0  0
  115.9657  130.7648    3.4234 H   0  0  0  0  0  0
  115.0007  129.3799    2.8092 H   0  0  0  0  0  0
  113.3332  129.7498    4.6784 H   0  0  0  0  0  0
  115.7494  132.3958    3.8372 H   0  0  0  0  0  0
  114.7288  133.6723    4.8165 H   0  0  0  0  0  0
  112.1769  131.2734    5.7108 H   0  0  0  0  0  0
  114.6894  124.6296    5.0112 H   0  0  0  0  0  0
  116.8017  123.1666    3.3831 H   0  0  0  0  0  0
  114.6650  123.5561    2.2178 H   0  0  0  0  0  0
  113.7898  122.6554    3.5021 H   0  0  0  0  0  0
  114.9642  121.7996    2.4460 H   0  0  0  0  0  0
  116.8054  122.2159    5.6840 H   0  0  0  0  0  0
  116.2232  121.0132    4.4835 H   0  0  0  0  0  0
  115.0489  121.8690    5.5395 H   0  0  0  0  0  0
  112.8136  133.0658    5.8195 H   0  0  0  0  0  0
  1  2  1  0  0  0
  1  7  1  0  0  0
  1 58  1  0  0  0
  1 59  1  0  0  0
  2  3  1  0  0  0
  2  5  1  0  0  0
  2 60  1  0  0  0
  3  4  2  0  0  0
  3  8  1  0  0  0
  5  6  1  0  0  0
  5 61  1  0  0  0
  5 62  1  0  0  0
  6  7  1  0  0  0
  6 63  1  0  0  0
  6 64  1  0  0  0
  7 65  1  0  0  0
  7 66  1  0  0  0
  8  9  1  0  0  0
  8 14  1  0  0  0
  9 10  1  0  0  0
  9 12  1  0  0  0
  9 67  1  0  0  0
 10 11  2  0  0  0
 10 15  1  0  0  0
 12 13  1  0  0  0
 12 68  1  0  0  0
 12 69  1  0  0  0
 13 14  1  0  0  0
 13 70  1  0  0  0
 13 71  1  0  0  0
 14 72  1  0  0  0
 14 73  1  0  0  0
 15 16  1  0  0  0
 15 21  1  0  0  0
 16 17  1  0  0  0
 16 19  1  0  0  0
 16 74  1  0  0  0
 17 18  2  0  0  0
 17 22  1  0  0  0
 19 20  1  0  0  0
 19 75  1  0  0  0
 19 76  1  0  0  0
 20 21  1  0  0  0
 20 77  1  0  0  0
 20 78  1  0  0  0
 21 79  1  0  0  0
 21 80  1  0  0  0
 22 23  1  0  0  0
 22 81  1  0  0  0
 23 24  1  0  0  0
 23 26  1  0  0  0
 23 82  1  0  0  0
 24 25  2  0  0  0
 24 29  1  0  0  0
 26 27  1  0  0  0
 26 28  1  0  0  0
 26 83  1  0  0  0
 27 84  1  0  0  0
 27 85  1  0  0  0
 27 86  1  0  0  0
 28 87  1  0  0  0
 28 88  1  0  0  0
 28 89  1  0  0  0
 29 30  1  0  0  0
 29 35  1  0  0  0
 30 31  1  0  0  0
 30 33  1  0  0  0
 30 90  1  0  0  0
 31 32  2  0  0  0
 31 36  1  0  0  0
 33 34  1  0  0  0
 33 91  1  0  0  0
 33 92  1  0  0  0
 34 35  1  0  0  0
 34 93  1  0  0  0
 34 94  1  0  0  0
 35 95  1  0  0  0
 35 96  1  0  0  0
 36 37  1  0  0  0
 36 42  1  0  0  0
 37 38  1  0  0  0
 37 40  1  0  0  0
 37 97  1  0  0  0
 38 39  2  0  0  0
 38 43  1  0  0  0
 40 41  1  0  0  0
 40 98  1  0  0  0
 40 99  1  0  0  0
 41 42  1  0  0  0
 41100  1  0  0  0
 41101  1  0  0  0
 42102  1  0  0  0
 42103  1  0  0  0
 43 44  1  0  0  0
 43104  1  0  0  0
 44 45  1  0  0  0
 44 47  1  0  0  0
 44105  1  0  0  0
 45 46  2  0  0  0
 45 54  1  0  0  0
 47 48  1  0  0  0
 47106  1  0  0  0
 47107  1  0  0  0
 48 49  1  0  0  0
 48108  1  0  0  0
 48109  1  0  0  0
 49 50  1  0  0  0
 49110  1  0  0  0
 49111  1  0  0  0
 50 51  1  0  0  0
 50112  1  0  0  0
 51 52  1  0  0  0
 51 53  2  0  0  0
 52113  1  0  0  0
 52114  1  0  0  0
 53115  1  0  0  0
 53124  1  0  0  0
 54 55  1  0  0  0
 54116  1  0  0  0
 55 56  1  0  0  0
 55 57  1  0  0  0
 55117  1  0  0  0
 56118  1  0  0  0
 56119  1  0  0  0
 56120  1  0  0  0
 57121  1  0  0  0
 57122  1  0  0  0
 57123  1  0  0  0
M  CHG  2   1   1  53   1
M  END
> <s_m_source_file>
../1ckb_ligand.sdf

> <i_m_source_file_index>
1

> <s_epik_input>
W0NIMl0xW0NIMl1bQ0gyXVtOSDIrXVtDQEBIXTFDKD1PKU4yW0NAQEhdKFtDSDJdW0NIMl1bQ0gyXTIpQyg9TylOM1tDQEBIXShbQ0gyXVtDSDJdW0NIMl0zKUMoPU8pW05IXVtDQEBIXShbQ0hdKFtDSDNdKVtDSDNdKUMoPU8pTjRbQ0BASF0oW0NIMl1bQ0gyXVtDSDJdNClDKD1PKU41W0NAQEhdKFtDSDJdW0NIMl1bQ0gyXTUpQyg9TylbTkhdW0NASF0oQyg9TylbTkhdW0NIXShbQ0gzXSlbQ0gzXSlbQ0gyXVtDSDJdW0NIMl1bTkhdL0MoW05IMl0pPU5cW0hd

> <s_epik_cmdline>
J2VwaWtfYXBwJywgJy1pbWFlJywgJ2xpZ2FuZF9wcm8ubWFlJywgJy1vbWFlJywgJ2xpZ2FuZF9wcmVwLm1hZScsICctbXMnLCAnMScsICctcGgnLCAnNycsICctcGh0JywgJzAuNScsICctbnQn

> <r_epik_Ionization_Penalty>
  0.0379

> <r_epik_Ionization_Penalty_Charging>
  0.0379

> <r_epik_Ionization_Penalty_Neutral>
  0.0000

> <r_epik_State_Penalty>
  0.0317

> <r_epik_Charging_Adjusted_Penalty>
0.0696044014511194

> <i_epik_Tot_Q>
2

> <i_epik_Tot_abs_Q>
2

> <s_epik_Chemistry_Notes>
This compound has an imine and may undergo hydrolysis.

$$$$
