1clu_ligand
                    3D
 Schrodinger Suite 2020-3.
 50 52  0  0  1  0            999 V2000
    5.6850   33.3690   24.7920 C   0  0  0  0  0  0
    5.4530   33.3920   23.4430 N   0  0  1  0  0  0
    5.6370   32.6640   22.1030 P   0  0  1  0  0  0
    5.4220   31.2260   22.3480 O   0  5  0  0  0  0
    4.6450   33.1780   21.1760 O   0  0  0  0  0  0
    7.1290   32.9080   21.5480 N   0  0  1  0  0  0
    7.5520   32.3960   20.0850 P   0  0  1  0  0  0
    7.6270   30.9150   20.0000 O   0  5  0  0  0  0
    6.7110   32.9950   19.0510 O   0  0  0  0  0  0
    9.0390   32.9840   19.9020 O   0  0  0  0  0  0
    9.5350   34.4850   19.5530 P   0  0  1  0  0  0
    9.5520   34.7300   18.0710 O   0  5  0  0  0  0
    8.7410   35.4670   20.3200 O   0  0  0  0  0  0
   11.0240   34.4410   20.0970 O   0  0  0  0  0  0
   11.3590   34.1760   21.4430 C   0  0  0  0  0  0
   12.7400   34.6550   21.7240 C   0  0  1  0  0  0
   13.7150   33.9180   20.9460 O   0  0  0  0  0  0
   13.5560   36.0260   19.9230 C   0  0  2  0  0  0
   14.3140   37.1610   19.5760 O   0  0  0  0  0  0
   12.9730   36.1350   21.3500 C   0  0  2  0  0  0
   13.8980   36.7400   22.2500 O   0  0  0  0  0  0
   14.4370   34.8000   20.0490 C   0  0  2  0  0  0
   14.6250   34.0700   18.7920 N   0  0  0  0  0  0
   15.7880   33.5970   18.3170 C   0  0  0  0  0  0
   16.9900   33.7790   18.8720 N   0  0  0  0  0  0
   18.0140   33.2770   18.1650 C   0  0  0  0  0  0
   19.2830   33.5280   18.5300 N   0  0  0  0  0  0
   17.7890   32.4900   17.0170 N   0  0  0  0  0  0
   16.5770   32.4560   16.3380 C   0  0  0  0  0  0
   16.5080   31.8990   15.2410 O   0  0  0  0  0  0
   15.5050   32.9840   17.1350 C   0  0  0  0  0  0
   14.1160   32.9560   16.9170 N   0  0  0  0  0  0
   13.6690   33.5400   17.9640 C   0  0  0  0  0  0
    5.2607   34.2734   25.2525 H   0  0  0  0  0  0
    6.7688   33.3373   24.9771 H   0  0  0  0  0  0
    5.2119   32.4779   25.2303 H   0  0  0  0  0  0
    4.3692   33.4237   23.2579 H   0  0  0  0  0  0
    7.3358   33.9879   21.5148 H   0  0  0  0  0  0
   10.6522   34.6963   22.1060 H   0  0  0  0  0  0
   11.3056   33.0929   21.6278 H   0  0  0  0  0  0
   12.8697   34.4571   22.7982 H   0  0  0  0  0  0
   12.8314   36.0136   19.0955 H   0  0  0  0  0  0
   14.7909   37.2225   18.5867 H   0  0  0  0  0  0
   12.1061   36.8041   21.4540 H   0  0  0  0  0  0
   13.6236   36.8856   23.3052 H   0  0  0  0  0  0
   15.4444   35.0748   20.3950 H   0  0  0  0  0  0
   19.4883   34.1391   19.4213 H   0  0  0  0  0  0
   20.1162   33.1224   17.9374 H   0  0  0  0  0  0
   18.5963   31.8601   16.6151 H   0  0  0  0  0  0
   12.6035   33.6112   18.1824 H   0  0  0  0  0  0
  1  2  1  0  0  0
  1 34  1  0  0  0
  1 35  1  0  0  0
  1 36  1  0  0  0
  2  3  1  0  0  0
  2 37  1  0  0  0
  3  6  1  0  0  0
  3  5  2  0  0  0
  3  4  1  0  0  0
  6  7  1  0  0  0
  6 38  1  0  0  0
  7 10  1  0  0  0
  7  9  2  0  0  0
  7  8  1  0  0  0
 10 11  1  0  0  0
 11 14  1  0  0  0
 11 13  2  0  0  0
 11 12  1  0  0  0
 14 15  1  0  0  0
 15 16  1  0  0  0
 15 39  1  0  0  0
 15 40  1  0  0  0
 16 20  1  0  0  0
 16 17  1  0  0  0
 16 41  1  0  0  0
 17 22  1  0  0  0
 18 22  1  0  0  0
 18 20  1  0  0  0
 18 19  1  0  0  0
 18 42  1  0  0  0
 19 43  1  0  0  0
 20 21  1  0  0  0
 20 44  1  0  0  0
 21 45  1  0  0  0
 22 23  1  0  0  0
 22 46  1  0  0  0
 23 33  1  0  0  0
 23 24  1  0  0  0
 24 31  2  0  0  0
 24 25  1  0  0  0
 25 26  2  0  0  0
 26 28  1  0  0  0
 26 27  1  0  0  0
 27 47  1  0  0  0
 27 48  1  0  0  0
 28 29  1  0  0  0
 28 49  1  0  0  0
 29 31  1  0  0  0
 29 30  2  0  0  0
 31 32  1  0  0  0
 32 33  2  0  0  0
 33 50  1  0  0  0
M  CHG  3   4  -1   8  -1  12  -1
M  END
> <s_m_source_file>
../1clu_ligand.sdf

> <i_m_source_file_index>
1

> <s_epik_input>
W0NIM11bTkhdW1BAXSg9TykoW09IXSlbTkhdW1BAXSg9TykoW09IXSlPW1BAXSg9TykoW09IXSlPW0NIMl1bQ0BIXTFPW0NASF0oW0NASF0oW09IXSlbQ0BASF0xW09IXSluMltjSF1uYyhjMjMpYyg9TylbbkhdYyhuMylbTkgyXQ==

> <s_epik_cmdline>
J2VwaWtfYXBwJywgJy1pbWFlJywgJ2xpZ2FuZF9wcm8ubWFlJywgJy1vbWFlJywgJ2xpZ2FuZF9wcmVwLm1hZScsICctbXMnLCAnMScsICctcGgnLCAnNycsICctcGh0JywgJzAuNScsICctbnQn

> <r_lp_tautomer_probability>
1

> <r_epik_Ionization_Penalty>
  0.0038

> <r_epik_Ionization_Penalty_Charging>
  0.0023

> <r_epik_Ionization_Penalty_Neutral>
  0.0016

> <r_epik_State_Penalty>
 -0.0000

> <r_epik_Charging_Adjusted_Penalty>
0.00225750177650228

> <i_epik_Tot_Q>
-3

> <i_epik_Tot_abs_Q>
3

> <s_epik_Chemistry_Notes>
This compound contains an acetal/aminal-like group ( X-CH(R)-Y where X, Y are N, S, or O) that may be acid/base labile, releasing an aldehyde.

$$$$
