1cnw_ligand
                    3D
 Schrodinger Suite 2020-3.
 51 51  0  0  1  0            999 V2000
   -6.0330    0.9590   17.0960 S   0  0  0  0  0  0
   -5.5710    0.9590   18.4380 O   0  0  0  0  0  0
   -7.4660    1.0840   17.0250 O   0  0  0  0  0  0
   -5.4650   -0.1670   16.3890 N   0  0  0  0  0  0
   -4.6630    4.4200   14.6230 C   0  0  0  0  0  0
   -3.7550    3.3360   14.9060 C   0  0  0  0  0  0
   -4.2130    2.2520   15.6830 C   0  0  0  0  0  0
   -5.5130    2.2520   16.2480 C   0  0  0  0  0  0
   -6.3610    3.3360   15.8950 C   0  0  0  0  0  0
   -5.9450    4.4200   15.1180 C   0  0  0  0  0  0
   -4.2470    5.5460   13.8460 C   0  0  0  0  0  0
   -4.9420    6.5050   13.5630 O   0  0  0  0  0  0
   -3.0270    5.5460   13.4220 N   0  0  0  0  0  0
   -2.4210    6.5890   12.5740 C   0  0  0  0  0  0
   -2.2030    7.9230   13.2100 C   0  0  0  0  0  0
   -1.1370    7.7980   14.1990 O   0  0  0  0  0  0
   -1.4310    8.6740   15.3290 C   0  0  0  0  0  0
   -0.9970   10.0500   14.9760 C   0  0  0  0  0  0
   -1.5970   11.0290   15.8440 O   0  0  0  0  0  0
   -1.1400   12.3040   15.4080 C   0  0  0  0  0  0
    0.1110   12.1830   14.6990 C   0  0  0  0  0  0
    0.9100   13.3750   14.9320 N   0  0  0  0  0  0
    2.1780   13.2910   14.2260 C   0  0  0  0  0  0
    2.5250   12.2270   13.7440 O   0  0  0  0  0  0
    3.0130   14.6000   14.0910 C   0  0  0  0  0  0
    2.1970   15.6690   14.7760 N   0  3  0  0  0  0
   -5.7611   -1.1010   16.8889 H   0  0  0  0  0  0
   -4.3682   -0.0836   16.3876 H   0  0  0  0  0  0
   -2.7334    3.3542   14.5263 H   0  0  0  0  0  0
   -3.5557    1.3991   15.8521 H   0  0  0  0  0  0
   -7.3916    3.3211   16.2495 H   0  0  0  0  0  0
   -6.6226    5.2478   14.9089 H   0  0  0  0  0  0
   -2.4279    4.6809   13.7425 H   0  0  0  0  0  0
   -1.4305    6.2540   12.2323 H   0  0  0  0  0  0
   -3.0663    6.7739   11.7026 H   0  0  0  0  0  0
   -1.9157    8.6539   12.4397 H   0  0  0  0  0  0
   -3.1315    8.2520   13.6994 H   0  0  0  0  0  0
   -2.5119    8.6595   15.5327 H   0  0  0  0  0  0
   -0.8858    8.3222   16.2172 H   0  0  0  0  0  0
    0.0965   10.1247   15.0689 H   0  0  0  0  0  0
   -1.2931   10.2736   13.9405 H   0  0  0  0  0  0
   -1.8873   12.7513   14.7361 H   0  0  0  0  0  0
   -0.9924   12.9584   16.2797 H   0  0  0  0  0  0
    0.6540   11.2979   15.0620 H   0  0  0  0  0  0
   -0.0867   12.0758   13.6222 H   0  0  0  0  0  0
    0.5220   14.1806   15.5727 H   0  0  0  0  0  0
    3.9892   14.4642   14.5794 H   0  0  0  0  0  0
    3.1646   14.8300   13.0261 H   0  0  0  0  0  0
    2.7298   16.6297   14.7194 H   0  0  0  0  0  0
    2.0456   15.3953   15.8306 H   0  0  0  0  0  0
    1.2209   15.7611   14.2773 H   0  0  0  0  0  0
  1  8  1  0  0  0
  1  4  1  0  0  0
  1  3  2  0  0  0
  1  2  2  0  0  0
  4 27  1  0  0  0
  4 28  1  0  0  0
  5  6  1  0  0  0
  5 11  1  0  0  0
  5 10  2  0  0  0
  6  7  2  0  0  0
  6 29  1  0  0  0
  7  8  1  0  0  0
  7 30  1  0  0  0
  8  9  2  0  0  0
  9 10  1  0  0  0
  9 31  1  0  0  0
 10 32  1  0  0  0
 11 13  1  0  0  0
 11 12  2  0  0  0
 13 14  1  0  0  0
 13 33  1  0  0  0
 14 15  1  0  0  0
 14 34  1  0  0  0
 14 35  1  0  0  0
 15 16  1  0  0  0
 15 36  1  0  0  0
 15 37  1  0  0  0
 16 17  1  0  0  0
 17 18  1  0  0  0
 17 38  1  0  0  0
 17 39  1  0  0  0
 18 19  1  0  0  0
 18 40  1  0  0  0
 18 41  1  0  0  0
 19 20  1  0  0  0
 20 21  1  0  0  0
 20 42  1  0  0  0
 20 43  1  0  0  0
 21 22  1  0  0  0
 21 44  1  0  0  0
 21 45  1  0  0  0
 22 23  1  0  0  0
 22 46  1  0  0  0
 23 25  1  0  0  0
 23 24  2  0  0  0
 25 26  1  0  0  0
 25 47  1  0  0  0
 25 48  1  0  0  0
 26 49  1  0  0  0
 26 50  1  0  0  0
 26 51  1  0  0  0
M  CHG  1  26   1
M  END
> <s_m_source_file>
../1cnw_ligand.sdf

> <i_m_source_file_index>
1

> <s_epik_input>
Tz1TKD1PKShbTkgyXSljKFtjSF1bY0hdMSlbY0hdW2NIXWMxQyg9TylbTkhdW0NIMl1bQ0gyXU9bQ0gyXVtDSDJdT1tDSDJdW0NIMl1bTkhdQyg9TylbQ0gyXVtOSDMrXQ==

> <s_epik_cmdline>
J2VwaWtfYXBwJywgJy1pbWFlJywgJ2xpZ2FuZF9wcm8ubWFlJywgJy1vbWFlJywgJ2xpZ2FuZF9wcmVwLm1hZScsICctbXMnLCAnMScsICctcGgnLCAnNycsICctcGh0JywgJzAuNScsICctbnQn

> <r_epik_Ionization_Penalty>
  0.1170

> <r_epik_Ionization_Penalty_Charging>
  0.1158

> <r_epik_Ionization_Penalty_Neutral>
  0.0012

> <r_epik_State_Penalty>
  0.1055

> <r_epik_Charging_Adjusted_Penalty>
0.221291035325391

> <i_epik_Tot_Q>
1

> <i_epik_Tot_abs_Q>
1

$$$$
