1cnx_ligand
                    3D
 Schrodinger Suite 2020-3.
 44 44  0  0  1  0            999 V2000
   -5.9900    0.9170   17.0960 S   0  0  0  0  0  0
   -5.5100    0.9170   18.3670 O   0  0  0  0  0  0
   -7.4480    0.9590   16.9540 O   0  0  0  0  0  0
   -5.3370   -0.2090   16.3890 N   0  0  0  0  0  0
   -4.7060    4.3780   14.6230 C   0  0  0  0  0  0
   -3.7550    3.3780   14.9060 C   0  0  0  0  0  0
   -4.2130    2.2930   15.6830 C   0  0  0  0  0  0
   -5.5380    2.2100   16.1770 C   0  0  0  0  0  0
   -6.4280    3.2530   15.8240 C   0  0  0  0  0  0
   -6.0120    4.3370   15.0470 C   0  0  0  0  0  0
   -4.3140    5.5040   13.7750 C   0  0  0  0  0  0
   -4.9910    6.4220   13.4220 O   0  0  0  0  0  0
   -2.9650    5.5460   13.3510 N   0  0  0  0  0  0
   -2.4460    6.5890   12.5040 C   0  0  0  0  0  0
   -2.2090    7.9230   13.0690 C   0  0  0  0  0  0
   -1.3070    7.8810   14.1990 O   0  0  0  0  0  0
   -1.4860    9.0070   15.0470 C   0  0  0  0  0  0
   -0.3810   10.0080   14.9060 C   0  0  0  0  0  0
   -0.8170   11.2620   15.5020 O   0  0  0  0  0  0
   -0.1640   12.2980   14.8090 C   0  0  0  0  0  0
    0.1490   13.3850   15.7050 C   0  0  0  0  0  0
    0.3890   14.6150   14.9720 N   0  3  0  0  0  0
   -5.5638   -1.1505   16.9108 H   0  0  0  0  0  0
   -4.2485   -0.0509   16.3743 H   0  0  0  0  0  0
   -2.7278    3.4388   14.5466 H   0  0  0  0  0  0
   -3.5183    1.4850   15.9127 H   0  0  0  0  0  0
   -7.4619    3.2092   16.1664 H   0  0  0  0  0  0
   -6.7085    5.1328   14.7830 H   0  0  0  0  0  0
   -2.3038    4.7372   13.6955 H   0  0  0  0  0  0
   -1.4672    6.2843   12.1050 H   0  0  0  0  0  0
   -3.1426    6.7657   11.6712 H   0  0  0  0  0  0
   -1.7661    8.5734   12.3003 H   0  0  0  0  0  0
   -3.1634    8.3527   13.4074 H   0  0  0  0  0  0
   -2.4327    9.5080   14.7963 H   0  0  0  0  0  0
   -1.5130    8.6757   16.0956 H   0  0  0  0  0  0
    0.5168    9.6382   15.4229 H   0  0  0  0  0  0
   -0.1551   10.1570   13.8398 H   0  0  0  0  0  0
    0.7697   11.9148   14.3715 H   0  0  0  0  0  0
   -0.8179   12.6721   14.0075 H   0  0  0  0  0  0
   -0.6926   13.5455   16.3948 H   0  0  0  0  0  0
    1.0528   13.1369   16.2808 H   0  0  0  0  0  0
    0.6245   15.4235   15.6797 H   0  0  0  0  0  0
   -0.5106   14.8810   14.3975 H   0  0  0  0  0  0
    1.2349   14.4724   14.2835 H   0  0  0  0  0  0
  1  8  1  0  0  0
  1  4  1  0  0  0
  1  3  2  0  0  0
  1  2  2  0  0  0
  4 23  1  0  0  0
  4 24  1  0  0  0
  5  6  1  0  0  0
  5 11  1  0  0  0
  5 10  2  0  0  0
  6  7  2  0  0  0
  6 25  1  0  0  0
  7  8  1  0  0  0
  7 26  1  0  0  0
  8  9  2  0  0  0
  9 10  1  0  0  0
  9 27  1  0  0  0
 10 28  1  0  0  0
 11 13  1  0  0  0
 11 12  2  0  0  0
 13 14  1  0  0  0
 13 29  1  0  0  0
 14 15  1  0  0  0
 14 30  1  0  0  0
 14 31  1  0  0  0
 15 16  1  0  0  0
 15 32  1  0  0  0
 15 33  1  0  0  0
 16 17  1  0  0  0
 17 18  1  0  0  0
 17 34  1  0  0  0
 17 35  1  0  0  0
 18 19  1  0  0  0
 18 36  1  0  0  0
 18 37  1  0  0  0
 19 20  1  0  0  0
 20 21  1  0  0  0
 20 38  1  0  0  0
 20 39  1  0  0  0
 21 22  1  0  0  0
 21 40  1  0  0  0
 21 41  1  0  0  0
 22 42  1  0  0  0
 22 43  1  0  0  0
 22 44  1  0  0  0
M  CHG  1  22   1
M  END
> <s_m_source_file>
../1cnx_ligand.sdf

> <i_m_source_file_index>
1

> <s_epik_input>
Tz1TKD1PKShbTkgyXSljKFtjSF1bY0hdMSlbY0hdW2NIXWMxQyg9TylbTkhdW0NIMl1bQ0gyXU9bQ0gyXVtDSDJdT1tDSDJdW0NIMl1bTkgzK10=

> <s_epik_cmdline>
J2VwaWtfYXBwJywgJy1pbWFlJywgJ2xpZ2FuZF9wcm8ubWFlJywgJy1vbWFlJywgJ2xpZ2FuZF9wcmVwLm1hZScsICctbXMnLCAnMScsICctcGgnLCAnNycsICctcGh0JywgJzAuNScsICctbnQn

> <r_lp_tautomer_probability>
1

> <r_epik_Ionization_Penalty>
  0.0036

> <r_epik_Ionization_Penalty_Charging>
  0.0024

> <r_epik_Ionization_Penalty_Neutral>
  0.0012

> <r_epik_State_Penalty>
 -0.0000

> <r_epik_Charging_Adjusted_Penalty>
0.002429917423227

> <i_epik_Tot_Q>
1

> <i_epik_Tot_abs_Q>
1

$$$$
