1cny_ligand
                    3D
 Schrodinger Suite 2020-3.
 64 65  0  0  1  0            999 V2000
   -6.0570    1.1260   17.0250 S   0  0  0  0  0  0
   -5.6570    1.0840   18.4380 O   0  0  0  0  0  0
   -7.4720    1.0420   16.8840 O   0  0  0  0  0  0
   -5.3550   -0.0420   16.4600 N   0  0  0  0  0  0
   -4.5530    4.6290   14.6940 C   0  0  0  0  0  0
   -3.7060    3.5860   15.0470 C   0  0  0  0  0  0
   -4.1460    2.5020   15.7530 C   0  0  0  0  0  0
   -5.4760    2.4600   16.1070 C   0  0  0  0  0  0
   -6.3240    3.4610   15.7530 C   0  0  0  0  0  0
   -5.8840    4.5870   15.0470 C   0  0  0  0  0  0
   -4.0700    5.6710   13.9870 C   0  0  0  0  0  0
   -4.6680    6.6720   13.4930 O   0  0  0  0  0  0
   -2.6360    5.8380   13.5630 N   0  0  0  0  0  0
   -2.3600    6.8800   12.5040 C   0  0  0  0  0  0
   -1.9520    8.2150   13.0690 C   0  0  0  0  0  0
   -1.1000    8.1730   14.0580 O   0  0  0  0  0  0
   -1.2600    9.0910   15.3290 C   0  0  0  0  0  0
   -1.1310   10.5500   14.8350 C   0  0  0  0  0  0
   -0.3360   11.3350   15.7840 O   0  0  0  0  0  0
    0.7430   12.0990   15.0450 C   0  0  0  0  0  0
    1.4770   12.9510   15.9490 C   0  0  0  0  0  0
    2.3130   13.8210   15.1390 N   0  0  0  0  0  0
    3.1130   14.7450   16.0470 C   0  0  0  0  0  0
    3.0030   14.6740   17.2760 O   0  0  0  0  0  0
    4.1370   15.6800   15.4470 C   0  0  1  0  0  0
    3.4680   16.9810   15.0790 N   0  3  0  0  0  0
    5.3480   15.9350   16.3490 C   0  0  0  0  0  0
    6.2940   16.9980   15.7530 C   0  0  0  0  0  0
    7.2000   16.5800   14.7590 C   0  0  0  0  0  0
    8.0720   17.5260   14.1870 C   0  0  0  0  0  0
    8.0340   18.8060   14.5990 C   0  0  0  0  0  0
    7.1290   19.2250   15.5950 C   0  0  0  0  0  0
    6.2890   18.2640   16.1870 C   0  0  0  0  0  0
   -5.6689   -0.9516   16.9930 H   0  0  0  0  0  0
   -4.2692    0.0929   16.5730 H   0  0  0  0  0  0
   -2.6579    3.6338   14.7516 H   0  0  0  0  0  0
   -3.4655    1.6959   16.0273 H   0  0  0  0  0  0
   -7.3764    3.3851   16.0264 H   0  0  0  0  0  0
   -6.5660    5.3967   14.7874 H   0  0  0  0  0  0
   -1.8081    5.2478   13.9828 H   0  0  0  0  0  0
   -1.5436    6.5339   11.8530 H   0  0  0  0  0  0
   -3.2665    7.0398   11.9018 H   0  0  0  0  0  0
   -1.4798    8.8183   12.2797 H   0  0  0  0  0  0
   -2.8411    8.7395   13.4490 H   0  0  0  0  0  0
   -2.2452    8.9161   15.7859 H   0  0  0  0  0  0
   -0.4706    8.8509   16.0565 H   0  0  0  0  0  0
   -0.6359   10.5621   13.8528 H   0  0  0  0  0  0
   -2.1322   10.9970   14.7465 H   0  0  0  0  0  0
    1.4425   11.3885   14.5803 H   0  0  0  0  0  0
    0.2819   12.7228   14.2651 H   0  0  0  0  0  0
    0.7708   13.5433   16.5494 H   0  0  0  0  0  0
    2.0955   12.3320   16.6155 H   0  0  0  0  0  0
    2.2922   13.7386   14.0423 H   0  0  0  0  0  0
    4.5213   15.1849   14.5430 H   0  0  0  0  0  0
    2.6019   16.7778   14.4320 H   0  0  0  0  0  0
    4.1833   17.6224   14.5434 H   0  0  0  0  0  0
    3.1310   17.4914   15.9933 H   0  0  0  0  0  0
    5.0048   16.2908   17.3317 H   0  0  0  0  0  0
    5.9147   15.0007   16.4748 H   0  0  0  0  0  0
    7.2258   15.5389   14.4371 H   0  0  0  0  0  0
    8.7760   17.2220   13.4124 H   0  0  0  0  0  0
    8.7151   19.5319   14.1548 H   0  0  0  0  0  0
    7.0809   20.2704   15.8999 H   0  0  0  0  0  0
    5.6292   18.5527   17.0052 H   0  0  0  0  0  0
  1  8  1  0  0  0
  1  4  1  0  0  0
  1  3  2  0  0  0
  1  2  2  0  0  0
  4 34  1  0  0  0
  4 35  1  0  0  0
  5  6  1  0  0  0
  5 11  1  0  0  0
  5 10  2  0  0  0
  6  7  2  0  0  0
  6 36  1  0  0  0
  7  8  1  0  0  0
  7 37  1  0  0  0
  8  9  2  0  0  0
  9 10  1  0  0  0
  9 38  1  0  0  0
 10 39  1  0  0  0
 11 13  1  0  0  0
 11 12  2  0  0  0
 13 14  1  0  0  0
 13 40  1  0  0  0
 14 15  1  0  0  0
 14 41  1  0  0  0
 14 42  1  0  0  0
 15 16  1  0  0  0
 15 43  1  0  0  0
 15 44  1  0  0  0
 16 17  1  0  0  0
 17 18  1  0  0  0
 17 45  1  0  0  0
 17 46  1  0  0  0
 18 19  1  0  0  0
 18 47  1  0  0  0
 18 48  1  0  0  0
 19 20  1  0  0  0
 20 21  1  0  0  0
 20 49  1  0  0  0
 20 50  1  0  0  0
 21 22  1  0  0  0
 21 51  1  0  0  0
 21 52  1  0  0  0
 22 23  1  0  0  0
 22 53  1  0  0  0
 23 25  1  0  0  0
 23 24  2  0  0  0
 25 27  1  0  0  0
 25 26  1  0  0  0
 25 54  1  0  0  0
 26 55  1  0  0  0
 26 56  1  0  0  0
 26 57  1  0  0  0
 27 28  1  0  0  0
 27 58  1  0  0  0
 27 59  1  0  0  0
 28 33  2  0  0  0
 28 29  1  0  0  0
 29 30  2  0  0  0
 29 60  1  0  0  0
 30 31  1  0  0  0
 30 61  1  0  0  0
 31 32  2  0  0  0
 31 62  1  0  0  0
 32 33  1  0  0  0
 32 63  1  0  0  0
 33 64  1  0  0  0
M  CHG  1  26   1
M  END
> <s_m_source_file>
../1cny_ligand.sdf

> <i_m_source_file_index>
1

> <s_epik_input>
Tz1TKD1PKShbTkgyXSljKFtjSF1bY0hdMSlbY0hdW2NIXWMxQyg9TylbTkhdW0NIMl1bQ0gyXU9bQ0gyXVtDSDJdT1tDSDJdW0NIMl1bTkhdQyg9TylbQ0BASF0oW05IMytdKVtDSDJdYzJbY0hdW2NIXVtjSF1bY0hdW2NIXTI=

> <s_epik_cmdline>
J2VwaWtfYXBwJywgJy1pbWFlJywgJ2xpZ2FuZF9wcm8ubWFlJywgJy1vbWFlJywgJ2xpZ2FuZF9wcmVwLm1hZScsICctbXMnLCAnMScsICctcGgnLCAnNycsICctcGh0JywgJzAuNScsICctbnQn

> <r_epik_Ionization_Penalty>
  0.1831

> <r_epik_Ionization_Penalty_Charging>
  0.1820

> <r_epik_Ionization_Penalty_Neutral>
  0.0012

> <r_epik_State_Penalty>
  0.1715

> <r_epik_Charging_Adjusted_Penalty>
0.353435323600216

> <i_epik_Tot_Q>
1

> <i_epik_Tot_abs_Q>
1

$$$$
