1cpi_ligand
                    3D
 Schrodinger Suite 2020-3.
103105  0  0  1  0            999 V2000
    4.2490    3.3440   10.4910 C   0  0  0  0  0  0
    4.1140    4.2700   11.3000 O   0  0  0  0  0  0
    4.8290    3.5710    9.1120 C   0  0  0  0  0  0
    5.8690    4.6580    9.0570 C   0  0  0  0  0  0
    3.9120    2.0840   10.7490 N   0  0  0  0  0  0
    3.3240    1.6650   12.0230 C   0  0  2  0  0  0
    4.0550    0.4320   12.5450 C   0  0  0  0  0  0
    3.8610   -0.6810   12.0360 O   0  0  0  0  0  0
    1.8370    1.3720   11.8290 C   0  0  0  0  0  0
    1.0780    2.5770   11.2900 C   0  0  0  0  0  0
    0.7740    3.5130   12.0260 O   0  0  0  0  0  0
    0.8110    2.5770    9.9930 N   0  0  0  0  0  0
    4.8980    0.6450   13.5590 N   0  0  0  0  0  0
    5.6950   -0.4380   14.1710 C   0  0  2  0  0  0
    5.1730   -0.7350   15.5820 C   0  0  1  0  0  0
    5.2660    0.4250   16.4280 O   0  0  0  0  0  0
    7.1400    0.0470   14.2830 C   0  0  0  0  0  0
    7.5240    0.8130   13.0560 C   0  0  0  0  0  0
    7.6430    0.1830   11.8220 C   0  0  0  0  0  0
    7.5550    2.1930   13.0970 C   0  0  0  0  0  0
    7.7510    0.9180   10.6550 C   0  0  0  0  0  0
    7.6690    2.9320   11.9650 C   0  0  0  0  0  0
    7.7530    2.2990   10.7300 C   0  0  0  0  0  0
    7.7360    3.0770    9.5830 O   0  0  0  0  0  0
    3.7270   -1.1680   15.4940 C   0  0  0  0  0  0
    3.5730   -2.6280   15.5040 N   0  3  1  0  0  0
    4.2990   -3.4650   16.4560 C   0  0  2  0  0  0
    5.5900   -4.1130   15.9410 C   0  0  0  0  0  0
    5.8690   -4.1740   14.7250 O   0  0  0  0  0  0
    3.2690   -4.5380   16.7950 C   0  0  0  0  0  0
    2.6110   -4.7530   15.4730 C   0  0  0  0  0  0
    2.4310   -3.3560   14.9190 C   0  0  0  0  0  0
    6.4040   -4.5230   16.9010 N   0  0  0  0  0  0
    7.6420   -5.2620   16.6320 C   0  0  2  0  0  0
    7.4690   -6.3740   17.6280 C   0  0  0  0  0  0
    7.5770   -6.1410   18.8380 O   0  0  0  0  0  0
    8.9410   -4.5460   17.0440 C   0  0  2  0  0  0
    9.1960   -3.3310   16.1680 C   0  0  0  0  0  0
   10.1040   -5.5230   16.9400 C   0  0  0  0  0  0
    9.2120   -3.6560   14.7230 C   0  0  0  0  0  0
    7.1020   -7.5530   17.1500 N   0  0  0  0  0  0
    6.9450   -8.6850   18.0590 C   0  0  2  0  0  0
    8.0200   -9.7490   17.8010 C   0  0  0  0  0  0
    8.3360  -10.0780   16.6430 O   0  0  0  0  0  0
    5.5150   -9.2710   18.0080 C   0  0  0  0  0  0
    4.5130   -8.2070   18.3910 C   0  0  0  0  0  0
    5.2000   -9.8440   16.6210 C   0  0  0  0  0  0
    8.6340  -10.2480   18.8790 N   0  0  0  0  0  0
    7.1280    4.3450    9.8830 C   0  0  0  0  0  0
    5.3074    2.6457    8.7586 H   0  0  0  0  0  0
    4.0244    3.8559    8.4181 H   0  0  0  0  0  0
    6.1878    4.8080    8.0150 H   0  0  0  0  0  0
    5.4427    5.5935    9.4483 H   0  0  0  0  0  0
    4.0921    1.3430    9.9562 H   0  0  0  0  0  0
    3.4501    2.4957   12.7329 H   0  0  0  0  0  0
    1.7165    0.5449   11.1139 H   0  0  0  0  0  0
    1.3898    1.0906   12.7938 H   0  0  0  0  0  0
    1.1016    1.7171    9.3716 H   0  0  0  0  0  0
    0.2986    3.4369    9.5369 H   0  0  0  0  0  0
    4.9865    1.6741   13.9372 H   0  0  0  0  0  0
    5.6067   -1.3292   13.5322 H   0  0  0  0  0  0
    5.7942   -1.5004   16.0701 H   0  0  0  0  0  0
    6.2443    0.8914   16.6163 H   0  0  0  0  0  0
    7.2402    0.7008   15.1619 H   0  0  0  0  0  0
    7.8100   -0.8186   14.3917 H   0  0  0  0  0  0
    7.6513   -0.9059   11.7736 H   0  0  0  0  0  0
    7.4864    2.6995   14.0597 H   0  0  0  0  0  0
    7.8333    0.4163    9.6909 H   0  0  0  0  0  0
    7.6947    4.0201   12.0236 H   0  0  0  0  0  0
    3.1704   -0.7639   16.3524 H   0  0  0  0  0  0
    3.2868   -0.7885   14.5601 H   0  0  0  0  0  0
    4.2063   -2.3742   14.6411 H   0  0  0  0  0  0
    4.6385   -2.8196   17.2795 H   0  0  0  0  0  0
    3.7835   -5.4333   17.1741 H   0  0  0  0  0  0
    2.5818   -4.1565   17.5646 H   0  0  0  0  0  0
    3.2615   -5.3700   14.8357 H   0  0  0  0  0  0
    1.6494   -5.2662   15.6212 H   0  0  0  0  0  0
    1.4911   -2.8864   15.2447 H   0  0  0  0  0  0
    2.4972   -3.3211   13.8216 H   0  0  0  0  0  0
    6.1181   -4.2874   17.9367 H   0  0  0  0  0  0
    7.7138   -5.4820   15.5566 H   0  0  0  0  0  0
    8.8523   -4.1899   18.0810 H   0  0  0  0  0  0
    8.4044   -2.5858   16.3352 H   0  0  0  0  0  0
   10.1720   -2.8928   16.4238 H   0  0  0  0  0  0
    9.9069   -6.3970   17.5782 H   0  0  0  0  0  0
   11.0291   -5.0284   17.2710 H   0  0  0  0  0  0
   10.2163   -5.8495   15.8956 H   0  0  0  0  0  0
    9.4002   -2.7403   14.1433 H   0  0  0  0  0  0
    8.2400   -4.0810   14.4320 H   0  0  0  0  0  0
   10.0077   -4.3881   14.5206 H   0  0  0  0  0  0
    6.9156   -7.6820   16.0736 H   0  0  0  0  0  0
    7.1077   -8.2592   19.0601 H   0  0  0  0  0  0
    5.4288  -10.0923   18.7347 H   0  0  0  0  0  0
    4.7600   -7.8125   19.3877 H   0  0  0  0  0  0
    3.5035   -8.6436   18.4093 H   0  0  0  0  0  0
    4.5460   -7.3903   17.6548 H   0  0  0  0  0  0
    5.9420  -10.6149   16.3656 H   0  0  0  0  0  0
    5.2373   -9.0374   15.8740 H   0  0  0  0  0  0
    4.1948  -10.2907   16.6285 H   0  0  0  0  0  0
    8.3234   -9.9302   19.8852 H   0  0  0  0  0  0
    9.4497  -10.9763   18.7595 H   0  0  0  0  0  0
    7.8892    5.1172    9.6980 H   0  0  0  0  0  0
    6.8711    4.3322   10.9525 H   0  0  0  0  0  0
  1  2  2  0  0  0
  1  3  1  0  0  0
  1  5  1  0  0  0
  3  4  1  0  0  0
  3 50  1  0  0  0
  3 51  1  0  0  0
  4 49  1  0  0  0
  4 52  1  0  0  0
  4 53  1  0  0  0
  5  6  1  0  0  0
  5 54  1  0  0  0
  6  7  1  0  0  0
  6  9  1  0  0  0
  6 55  1  0  0  0
  7  8  2  0  0  0
  7 13  1  0  0  0
  9 10  1  0  0  0
  9 56  1  0  0  0
  9 57  1  0  0  0
 10 11  2  0  0  0
 10 12  1  0  0  0
 12 58  1  0  0  0
 12 59  1  0  0  0
 13 14  1  0  0  0
 13 60  1  0  0  0
 14 15  1  0  0  0
 14 17  1  0  0  0
 14 61  1  0  0  0
 15 16  1  0  0  0
 15 25  1  0  0  0
 15 62  1  0  0  0
 16 63  1  0  0  0
 17 18  1  0  0  0
 17 64  1  0  0  0
 17 65  1  0  0  0
 18 19  2  0  0  0
 18 20  1  0  0  0
 19 21  1  0  0  0
 19 66  1  0  0  0
 20 22  2  0  0  0
 20 67  1  0  0  0
 21 23  2  0  0  0
 21 68  1  0  0  0
 22 23  1  0  0  0
 22 69  1  0  0  0
 23 24  1  0  0  0
 24 49  1  0  0  0
 25 26  1  0  0  0
 25 70  1  0  0  0
 25 71  1  0  0  0
 26 27  1  0  0  0
 26 32  1  0  0  0
 26 72  1  0  0  0
 27 28  1  0  0  0
 27 30  1  0  0  0
 27 73  1  0  0  0
 28 29  2  0  0  0
 28 33  1  0  0  0
 30 31  1  0  0  0
 30 74  1  0  0  0
 30 75  1  0  0  0
 31 32  1  0  0  0
 31 76  1  0  0  0
 31 77  1  0  0  0
 32 78  1  0  0  0
 32 79  1  0  0  0
 33 34  1  0  0  0
 33 80  1  0  0  0
 34 35  1  0  0  0
 34 37  1  0  0  0
 34 81  1  0  0  0
 35 36  2  0  0  0
 35 41  1  0  0  0
 37 38  1  0  0  0
 37 39  1  0  0  0
 37 82  1  0  0  0
 38 40  1  0  0  0
 38 83  1  0  0  0
 38 84  1  0  0  0
 39 85  1  0  0  0
 39 86  1  0  0  0
 39 87  1  0  0  0
 40 88  1  0  0  0
 40 89  1  0  0  0
 40 90  1  0  0  0
 41 42  1  0  0  0
 41 91  1  0  0  0
 42 43  1  0  0  0
 42 45  1  0  0  0
 42 92  1  0  0  0
 43 44  2  0  0  0
 43 48  1  0  0  0
 45 46  1  0  0  0
 45 47  1  0  0  0
 45 93  1  0  0  0
 46 94  1  0  0  0
 46 95  1  0  0  0
 46 96  1  0  0  0
 47 97  1  0  0  0
 47 98  1  0  0  0
 47 99  1  0  0  0
 48100  1  0  0  0
 48101  1  0  0  0
 49102  1  0  0  0
 49103  1  0  0  0
M  CHG  1  26   1
M  END
> <s_m_source_file>
../1cpi_ligand.sdf

> <i_m_source_file_index>
1

> <s_epik_input>
YzEyW2NIXVtjSF1jKFtjSF1bY0hdMilPW0NIMl1bQ0gyXVtDSDJdQyg9TylbTkhdW0NAQEhdKFtDSDJdQyg9TylbTkgyXSlDKD1PKVtOSF1bQ0BASF0oW0NIMl0xKVtDQEBIXShbT0hdKVtDSDJdW05ASCtdM1tDQEBIXShbQ0gyXVtDSDJdW0NIMl0zKUMoPU8pW05IXVtDQEBIXShbQ0BASF0oW0NIM10pW0NIMl1bQ0gzXSlDKD1PKVtOSF1bQ0BIXShDKD1PKVtOSDJdKVtDSF0oW0NIM10pW0NIM10=

> <s_epik_cmdline>
J2VwaWtfYXBwJywgJy1pbWFlJywgJ2xpZ2FuZF9wcm8ubWFlJywgJy1vbWFlJywgJ2xpZ2FuZF9wcmVwLm1hZScsICctbXMnLCAnMScsICctcGgnLCAnNycsICctcGh0JywgJzAuNScsICctbnQn

> <r_lp_tautomer_probability>
1

> <r_epik_Ionization_Penalty>
  0.0120

> <r_epik_Ionization_Penalty_Charging>
  0.0120

> <r_epik_Ionization_Penalty_Neutral>
  0.0000

> <r_epik_State_Penalty>
  0.0093

> <r_epik_Charging_Adjusted_Penalty>
0.021235229566964

> <i_epik_Tot_Q>
1

> <i_epik_Tot_abs_Q>
1

$$$$
