1cqp_ligand
                    3D
 Schrodinger Suite 2020-3.
 65 67  0  0  1  0            999 V2000
   52.4970   19.0250   23.0520 C   0  0  1  0  0  0
   52.3930   17.4820   22.9710 C   0  0  0  0  0  0
   52.3590   16.8340   24.3770 C   0  0  1  0  0  0
   53.7770   16.4580   24.8570 C   0  0  0  0  0  0
   51.6980   17.6970   25.4280 C   0  0  0  0  0  0
   51.2060   18.9180   25.1890 C   0  0  0  0  0  0
   50.5820   19.6860   26.2740 C   0  0  0  0  0  0
   50.1060   20.9220   26.0850 C   0  0  0  0  0  0
   50.1760   21.6320   24.7610 C   0  0  2  0  0  0
   48.8680   21.5420   23.9490 C   0  0  0  0  0  0
   51.3640   21.0580   23.9710 C   0  0  1  0  0  0
   51.2660   19.5320   23.8230 C   0  0  1  0  0  0
   51.4470   21.6940   22.5800 C   0  0  0  0  0  0
   51.6710   23.2090   22.7270 C   0  0  0  0  0  0
   52.1770   23.6960   21.3660 C   0  0  2  0  0  0
   52.4360   25.2180   21.4380 C   0  0  0  0  0  0
   51.5990   25.9840   20.4090 C   0  0  1  0  0  0
   52.1580   25.8210   19.1020 O   0  0  0  0  0  0
   50.1960   25.3740   20.5210 C   0  0  0  0  0  0
   50.2820   23.9780   19.9740 C   0  0  0  0  0  0
   49.4630   23.5850   19.1560 O   0  0  0  0  0  0
   51.2610   23.1690   20.3890 O   0  0  0  0  0  0
   53.6780   19.4070   23.7720 O   0  0  0  0  0  0
   54.7650   19.3950   22.9950 C   0  0  0  0  0  0
   54.7340   19.1020   21.8090 O   0  0  0  0  0  0
   56.0300   19.7780   23.7120 C   0  0  1  0  0  0
   57.0590   18.6370   23.6090 C   0  0  0  0  0  0
   56.6070   21.0700   23.1160 C   0  0  0  0  0  0
   55.5920   22.2020   23.3600 C   0  0  0  0  0  0
   52.6055   19.4856   22.0590 H   0  0  0  0  0  0
   51.4706   17.2041   22.4400 H   0  0  0  0  0  0
   53.2628   17.0839   22.4280 H   0  0  0  0  0  0
   51.7326   15.9352   24.2780 H   0  0  0  0  0  0
   54.2663   15.8296   24.0983 H   0  0  0  0  0  0
   53.7083   15.9028   25.8041 H   0  0  0  0  0  0
   54.3669   17.3737   25.0106 H   0  0  0  0  0  0
   51.6339   17.2662   26.4381 H   0  0  0  0  0  0
   50.5121   19.2154   27.2658 H   0  0  0  0  0  0
   49.6378   21.4646   26.9195 H   0  0  0  0  0  0
   50.3237   22.7004   24.9772 H   0  0  0  0  0  0
   48.0398   21.9596   24.5404 H   0  0  0  0  0  0
   48.6551   20.4891   23.7123 H   0  0  0  0  0  0
   48.9762   22.1131   23.0151 H   0  0  0  0  0  0
   52.2754   21.2974   24.5385 H   0  0  0  0  0  0
   50.3508   19.2399   23.2872 H   0  0  0  0  0  0
   52.2853   21.2499   22.0232 H   0  0  0  0  0  0
   50.5082   21.5113   22.0367 H   0  0  0  0  0  0
   50.7216   23.6957   22.9950 H   0  0  0  0  0  0
   52.4140   23.3949   23.5166 H   0  0  0  0  0  0
   53.1257   23.2816   20.9940 H   0  0  0  0  0  0
   52.1750   25.5873   22.4407 H   0  0  0  0  0  0
   53.4989   25.4189   21.2385 H   0  0  0  0  0  0
   51.6040   27.0776   20.5270 H   0  0  0  0  0  0
   53.1620   26.2121   18.8805 H   0  0  0  0  0  0
   49.8852   25.3605   21.5761 H   0  0  0  0  0  0
   49.4858   25.9781   19.9373 H   0  0  0  0  0  0
   55.7757   19.9510   24.7681 H   0  0  0  0  0  0
   56.6326   17.7188   24.0392 H   0  0  0  0  0  0
   57.9690   18.9129   24.1621 H   0  0  0  0  0  0
   57.3104   18.4643   22.5521 H   0  0  0  0  0  0
   57.5631   21.3050   23.6066 H   0  0  0  0  0  0
   56.7722   20.9342   22.0370 H   0  0  0  0  0  0
   55.9826   23.1412   22.9413 H   0  0  0  0  0  0
   55.4297   22.3221   24.4413 H   0  0  0  0  0  0
   54.6387   21.9513   22.8717 H   0  0  0  0  0  0
  1  2  1  0  0  0
  1 12  1  0  0  0
  1 23  1  0  0  0
  1 30  1  0  0  0
  2  3  1  0  0  0
  2 31  1  0  0  0
  2 32  1  0  0  0
  3  4  1  0  0  0
  3  5  1  0  0  0
  3 33  1  0  0  0
  4 34  1  0  0  0
  4 35  1  0  0  0
  4 36  1  0  0  0
  5  6  2  0  0  0
  5 37  1  0  0  0
  6  7  1  0  0  0
  6 12  1  0  0  0
  7  8  2  0  0  0
  7 38  1  0  0  0
  8  9  1  0  0  0
  8 39  1  0  0  0
  9 10  1  0  0  0
  9 11  1  0  0  0
  9 40  1  0  0  0
 10 41  1  0  0  0
 10 42  1  0  0  0
 10 43  1  0  0  0
 11 12  1  0  0  0
 11 13  1  0  0  0
 11 44  1  0  0  0
 12 45  1  0  0  0
 13 14  1  0  0  0
 13 46  1  0  0  0
 13 47  1  0  0  0
 14 15  1  0  0  0
 14 48  1  0  0  0
 14 49  1  0  0  0
 15 16  1  0  0  0
 15 22  1  0  0  0
 15 50  1  0  0  0
 16 17  1  0  0  0
 16 51  1  0  0  0
 16 52  1  0  0  0
 17 18  1  0  0  0
 17 19  1  0  0  0
 17 53  1  0  0  0
 18 54  1  0  0  0
 19 20  1  0  0  0
 19 55  1  0  0  0
 19 56  1  0  0  0
 20 21  2  0  0  0
 20 22  1  0  0  0
 23 24  1  0  0  0
 24 25  2  0  0  0
 24 26  1  0  0  0
 26 27  1  0  0  0
 26 28  1  0  0  0
 26 57  1  0  0  0
 27 58  1  0  0  0
 27 59  1  0  0  0
 27 60  1  0  0  0
 28 29  1  0  0  0
 28 61  1  0  0  0
 28 62  1  0  0  0
 29 63  1  0  0  0
 29 64  1  0  0  0
 29 65  1  0  0  0
M  END
> <s_m_source_file>
../1cqp_ligand.sdf

> <i_m_source_file_index>
1

> <s_epik_input>
W0NIM11bQ0gyXVtDQEhdKFtDSDNdKUMoPU8pT1tDQEBIXShbQ0gyXVtDQEBIXShbQ0gzXSlbQ0hdPTEpW0NAQEhdKEMxMilbQ0BIXShbQ0BASF0oW0NIM10pW0NIXT1bQ0hdMilbQ0gyXVtDSDJdW0NAQEhdM1tDSDJdW0NAQEhdKFtPSF0pW0NIMl1DKD1PKU8z

> <s_epik_cmdline>
J2VwaWtfYXBwJywgJy1pbWFlJywgJ2xpZ2FuZF9wcm8ubWFlJywgJy1vbWFlJywgJ2xpZ2FuZF9wcmVwLm1hZScsICctbXMnLCAnMScsICctcGgnLCAnNycsICctcGh0JywgJzAuNScsICctbnQn

> <r_lp_tautomer_probability>
1

> <r_epik_Ionization_Penalty>
  0.0000

> <r_epik_Ionization_Penalty_Charging>
  0.0000

> <r_epik_Ionization_Penalty_Neutral>
  0.0000

> <r_epik_State_Penalty>
 -0.0000

> <r_epik_Charging_Adjusted_Penalty>
0

> <i_epik_Tot_Q>
0

> <i_epik_Tot_abs_Q>
0

> <s_epik_Chemistry_Notes>
This compound has an ester and may undergo hydrolysis at high or low pH.

$$$$
