1cr6_ligand
                    3D
 Schrodinger Suite 2020-3.
 43 44  0  0  1  0            999 V2000
  -46.1960 -117.2040  -33.2330 C   0  0  0  0  0  0
  -47.2420 -117.6300  -34.0980 C   0  0  0  0  0  0
  -48.1780 -116.6820  -34.5580 C   0  0  0  0  0  0
  -48.0550 -115.3210  -34.1490 C   0  0  0  0  0  0
  -46.9990 -114.8860  -33.2730 C   0  0  0  0  0  0
  -46.0720 -115.8200  -32.8130 C   0  0  0  0  0  0
  -43.1870 -113.4940  -29.2740 N   0  0  0  0  0  0
  -44.9120 -115.4690  -31.8810 C   0  0  0  0  0  0
  -44.9130 -114.2970  -30.9330 C   0  0  0  0  0  0
  -43.5610 -114.4830  -30.2650 C   0  0  0  0  0  0
  -42.0260 -113.5950  -28.5970 C   0  0  0  0  0  0
  -41.7970 -112.7000  -27.7740 O   0  0  0  0  0  0
  -41.1650 -114.6340  -28.8030 N   0  0  0  0  0  0
  -39.8600 -114.8490  -28.0930 C   0  0  0  0  0  0
  -39.3470 -116.3060  -28.3840 C   0  0  0  0  0  0
  -37.9780 -116.6520  -27.6610 C   0  0  0  0  0  0
  -37.9900 -116.3180  -26.1040 C   0  0  0  0  0  0
  -38.6350 -114.9040  -25.7700 C   0  0  0  0  0  0
  -40.0010 -114.6530  -26.5380 C   0  0  0  0  0  0
  -45.4699 -117.9347  -32.8769 H   0  0  0  0  0  0
  -47.3184 -118.6744  -34.4006 H   0  0  0  0  0  0
  -48.9885 -116.9861  -35.2203 H   0  0  0  0  0  0
  -48.7799 -114.5911  -34.5094 H   0  0  0  0  0  0
  -46.9252 -113.8406  -32.9734 H   0  0  0  0  0  0
  -43.8546 -112.6451  -29.0649 H   0  0  0  0  0  0
  -44.7242 -116.3095  -31.1967 H   0  0  0  0  0  0
  -44.0088 -115.2730  -32.4775 H   0  0  0  0  0  0
  -45.0000 -113.3620  -31.5060 H   0  0  0  0  0  0
  -45.7649 -114.3845  -30.2426 H   0  0  0  0  0  0
  -42.8215 -114.4839  -31.0793 H   0  0  0  0  0  0
  -43.5919 -115.4779  -29.7967 H   0  0  0  0  0  0
  -41.5005 -115.3514  -29.5664 H   0  0  0  0  0  0
  -39.1790 -114.0856  -28.4973 H   0  0  0  0  0  0
  -40.0952 -117.0342  -28.0376 H   0  0  0  0  0  0
  -39.1883 -116.4297  -29.4654 H   0  0  0  0  0  0
  -37.7676 -117.7263  -27.7690 H   0  0  0  0  0  0
  -37.1641 -116.0711  -28.1194 H   0  0  0  0  0  0
  -38.5726 -117.0827  -25.5694 H   0  0  0  0  0  0
  -36.9582 -116.3101  -25.7227 H   0  0  0  0  0  0
  -38.8400 -114.8402  -24.6912 H   0  0  0  0  0  0
  -37.9362 -114.1049  -26.0584 H   0  0  0  0  0  0
  -40.3254 -113.6235  -26.3261 H   0  0  0  0  0  0
  -40.7462 -115.3604  -26.1453 H   0  0  0  0  0  0
  1  2  2  0  0  0
  1  6  1  0  0  0
  1 20  1  0  0  0
  2  3  1  0  0  0
  2 21  1  0  0  0
  3  4  2  0  0  0
  3 22  1  0  0  0
  4  5  1  0  0  0
  4 23  1  0  0  0
  5  6  2  0  0  0
  5 24  1  0  0  0
  6  8  1  0  0  0
  7 10  1  0  0  0
  7 11  1  0  0  0
  7 25  1  0  0  0
  8  9  1  0  0  0
  8 26  1  0  0  0
  8 27  1  0  0  0
  9 10  1  0  0  0
  9 28  1  0  0  0
  9 29  1  0  0  0
 10 30  1  0  0  0
 10 31  1  0  0  0
 11 12  2  0  0  0
 11 13  1  0  0  0
 13 14  1  0  0  0
 13 32  1  0  0  0
 14 15  1  0  0  0
 14 19  1  0  0  0
 14 33  1  0  0  0
 15 16  1  0  0  0
 15 34  1  0  0  0
 15 35  1  0  0  0
 16 17  1  0  0  0
 16 36  1  0  0  0
 16 37  1  0  0  0
 17 18  1  0  0  0
 17 38  1  0  0  0
 17 39  1  0  0  0
 18 19  1  0  0  0
 18 40  1  0  0  0
 18 41  1  0  0  0
 19 42  1  0  0  0
 19 43  1  0  0  0
M  END
> <s_m_source_file>
../1cr6_ligand.sdf

> <i_m_source_file_index>
1

> <s_epik_input>
W2NIXTFbY0hdW2NIXVtjSF1bY0hdYzFbQ0gyXVtDSDJdW0NIMl1bTkhdQyg9TylbTkhdW0NIXTJbQ0gyXVtDSDJdW0NIMl1bQ0gyXVtDSDJdMg==

> <s_epik_cmdline>
J2VwaWtfYXBwJywgJy1pbWFlJywgJ2xpZ2FuZF9wcm8ubWFlJywgJy1vbWFlJywgJ2xpZ2FuZF9wcmVwLm1hZScsICctbXMnLCAnMScsICctcGgnLCAnNycsICctcGh0JywgJzAuNScsICctbnQn

> <r_lp_tautomer_probability>
1

> <r_epik_Ionization_Penalty>
  0.0001

> <r_epik_Ionization_Penalty_Charging>
  0.0000

> <r_epik_Ionization_Penalty_Neutral>
  0.0001

> <r_epik_State_Penalty>
 -0.0000

> <r_epik_Charging_Adjusted_Penalty>
0

> <i_epik_Tot_Q>
0

> <i_epik_Tot_abs_Q>
0

$$$$
