1cs4_ligand
                    3D
 Schrodinger Suite 2020-3.
 34 36  0  0  1  0            999 V2000
   55.0230  -10.3820   55.2600 P   0  0  0  0  0  0
   56.1060   -9.9600   56.1760 O   0  0  0  0  0  0
   53.9310   -9.4260   54.9360 O   0  5  0  0  0  0
   54.4020  -11.6150   55.8160 O   0  5  0  0  0  0
   59.6900  -12.0660   53.7340 O   0  0  0  0  0  0
   59.1170  -11.2540   52.7170 C   0  0  0  0  0  0
   57.6490  -11.5790   52.5600 C   0  0  1  0  0  0
   57.5110  -12.8680   51.9040 O   0  0  0  0  0  0
   56.8800  -11.6740   53.8850 C   0  0  1  0  0  0
   55.6680  -10.9000   53.8670 O   0  0  0  0  0  0
   56.5750  -13.1570   54.0180 C   0  0  0  0  0  0
   56.5270  -13.6310   52.5750 C   0  0  2  0  0  0
   56.8470  -15.0550   52.4180 N   0  0  0  0  0  0
   58.0410  -15.6930   52.6570 C   0  0  0  0  0  0
   57.9750  -16.9980   52.5360 N   0  0  0  0  0  0
   56.6560  -17.2320   52.1740 C   0  0  0  0  0  0
   55.9370  -18.4210   51.9360 C   0  0  0  0  0  0
   56.4710  -19.6380   52.0430 N   0  0  0  0  0  0
   54.6330  -18.3100   51.5810 N   0  0  0  0  0  0
   54.0990  -17.0880   51.4920 C   0  0  0  0  0  0
   54.6710  -15.8980   51.7090 N   0  0  0  0  0  0
   55.9610  -16.0440   52.0600 C   0  0  0  0  0  0
   60.7563  -11.9635   53.9840 H   0  0  0  0  0  0
   59.2253  -10.1939   52.9898 H   0  0  0  0  0  0
   59.6327  -11.4419   51.7637 H   0  0  0  0  0  0
   57.2250  -10.7787   51.9357 H   0  0  0  0  0  0
   57.4110  -11.2381   54.7440 H   0  0  0  0  0  0
   57.3737  -13.6452   54.5957 H   0  0  0  0  0  0
   55.6142  -13.2886   54.5371 H   0  0  0  0  0  0
   55.5336  -13.4936   52.1231 H   0  0  0  0  0  0
   58.9567  -15.1645   52.9221 H   0  0  0  0  0  0
   57.5269  -19.7521   52.3297 H   0  0  0  0  0  0
   55.8557  -20.5280   51.8446 H   0  0  0  0  0  0
   53.0489  -17.0563   51.2015 H   0  0  0  0  0  0
  1  2  2  0  0  0
  1  3  1  0  0  0
  1  4  1  0  0  0
  1 10  1  0  0  0
  5  6  1  0  0  0
  5 23  1  0  0  0
  6  7  1  0  0  0
  6 24  1  0  0  0
  6 25  1  0  0  0
  7  8  1  0  0  0
  7  9  1  0  0  0
  7 26  1  0  0  0
  8 12  1  0  0  0
  9 10  1  0  0  0
  9 11  1  0  0  0
  9 27  1  0  0  0
 11 12  1  0  0  0
 11 28  1  0  0  0
 11 29  1  0  0  0
 12 13  1  0  0  0
 12 30  1  0  0  0
 13 14  1  0  0  0
 13 22  1  0  0  0
 14 15  2  0  0  0
 14 31  1  0  0  0
 15 16  1  0  0  0
 16 17  2  0  0  0
 16 22  1  0  0  0
 17 18  1  0  0  0
 17 19  1  0  0  0
 18 32  1  0  0  0
 18 33  1  0  0  0
 19 20  2  0  0  0
 20 21  1  0  0  0
 20 34  1  0  0  0
 21 22  2  0  0  0
M  CHG  2   3  -1   4  -1
M  END
> <s_m_source_file>
../1cs4_ligand.sdf

> <i_m_source_file_index>
1

> <s_epik_input>
Tz1QKFtPSF0pKFtPSF0pT1tDQEhdMVtDSDJdW0NAQEhdKE9bQ0BASF0xW0NIMl1bT0hdKW4oW2NIXW4yKWMoYzIzKW5bY0hdbmMzW05IMl0=

> <s_epik_cmdline>
J2VwaWtfYXBwJywgJy1pbWFlJywgJ2xpZ2FuZF9wcm8ubWFlJywgJy1vbWFlJywgJ2xpZ2FuZF9wcmVwLm1hZScsICctbXMnLCAnMScsICctcGgnLCAnNycsICctcGh0JywgJzAuNScsICctbnQn

> <r_lp_tautomer_probability>
0.999997216410988

> <r_epik_Ionization_Penalty>
  0.0956

> <r_epik_Ionization_Penalty_Charging>
  0.0949

> <r_epik_Ionization_Penalty_Neutral>
  0.0007

> <r_epik_State_Penalty>
  0.0851

> <r_epik_Charging_Adjusted_Penalty>
0.179968505793832

> <i_epik_Tot_Q>
-2

> <i_epik_Tot_abs_Q>
2

> <s_epik_Chemistry_Notes>
This compound contains an acetal/aminal-like group ( X-CH(R)-Y where X, Y are N, S, or O) that may be acid/base labile, releasing an aldehyde.

$$$$
