1csh_ligand
                    3D
 Schrodinger Suite 2020-3.
 86 88  0  0  1  0            999 V2000
   19.5310   -8.0470   13.3050 N   0  0  0  0  0  0
   18.9600   -8.6180   14.3530 C   0  0  0  0  0  0
   18.1290   -9.6530   14.4150 N   0  0  0  0  0  0
   17.8920  -10.1670   13.2050 C   0  0  0  0  0  0
   18.4010   -9.6910   12.0120 C   0  0  0  0  0  0
   19.2770   -8.5790   12.0910 C   0  0  0  0  0  0
   19.8380   -7.9660   11.0820 N   0  0  0  0  0  0
   17.9130  -10.4720   10.9690 N   0  0  0  0  0  0
   17.1490  -11.3960   11.5470 C   0  0  0  0  0  0
   17.1350  -11.2870   12.9110 N   0  0  0  0  0  0
   16.2420  -12.0640   13.7730 C   0  0  1  0  0  0
   14.8150  -11.7830   13.3210 C   0  0  2  0  0  0
   14.3730  -10.4850   13.6240 O   0  0  0  0  0  0
   14.0950  -12.9540   14.0050 C   0  0  2  0  0  0
   14.0630  -12.8570   15.4090 O   0  0  0  0  0  0
   12.6530  -13.0890   16.1900 P   0  0  0  0  0  0
   11.5980  -12.3870   15.4030 O   0  5  0  0  0  0
   12.8000  -12.7470   17.6310 O   0  0  0  0  0  0
   12.4330  -14.5650   16.0650 O   0  5  0  0  0  0
   15.0530  -14.0750   13.6510 C   0  0  2  0  0  0
   16.3460  -13.4220   13.4910 O   0  0  0  0  0  0
   14.7030  -14.8190   12.3890 C   0  0  0  0  0  0
   14.4470  -13.8800   11.3430 O   0  0  0  0  0  0
   14.8200  -14.3300    9.8540 P   0  0  2  0  0  0
   13.9920  -15.5380    9.4760 O   0  5  0  0  0  0
   16.2870  -14.4280    9.8330 O   0  0  0  0  0  0
   14.4490  -12.9480    9.1570 O   0  0  0  0  0  0
   13.0590  -12.6270    8.4050 P   0  0  1  0  0  0
   13.0450  -13.3120    7.0780 O   0  5  0  0  0  0
   11.8820  -12.5240    9.3010 O   0  0  0  0  0  0
   13.3990  -11.0580    8.1290 O   0  0  0  0  0  0
   14.7340   -9.1790    7.5410 C   0  0  0  0  0  0
   14.3590  -10.6040    7.1850 C   0  0  0  0  0  0
   15.4280   -8.5100    6.3300 C   0  0  0  0  0  0
   13.4440   -8.4740    7.9950 C   0  0  0  0  0  0
   15.7000   -9.2850    8.7440 C   0  0  1  0  0  0
   16.8720   -9.9930    8.3440 O   0  0  0  0  0  0
   16.0340   -7.9320    9.3490 C   0  0  0  0  0  0
   15.2770   -7.4750   10.2310 O   0  0  0  0  0  0
   17.1050   -7.2930    8.9050 N   0  0  0  0  0  0
   17.4550   -5.9600    9.4400 C   0  0  0  0  0  0
   16.7600   -4.8650    8.6080 C   0  0  0  0  0  0
   17.2610   -4.7440    7.1710 C   0  0  0  0  0  0
   18.4730   -4.7490    6.9350 O   0  0  0  0  0  0
   16.3270   -4.6060    6.2030 N   0  0  0  0  0  0
   16.6820   -4.4400    4.8050 C   0  0  0  0  0  0
   16.3880   -5.6700    3.9290 C   0  0  0  0  0  0
   16.7360   -5.3280    2.4470 C   0  0  0  0  0  0
   15.6670   -4.4430    1.8070 C   0  0  0  0  0  0
   14.4920   -4.7950    1.8900 O   0  0  0  0  0  0
   16.0230   -3.2490    1.3530 N   0  0  0  0  0  0
   19.2100   -8.1699   15.3147 H   0  0  0  0  0  0
   20.5043   -7.1091   11.2605 H   0  0  0  0  0  0
   19.6438   -8.3070   10.0544 H   0  0  0  0  0  0
   16.5956  -12.1556   10.9949 H   0  0  0  0  0  0
   16.5236  -11.8676   14.8181 H   0  0  0  0  0  0
   14.6169  -11.6679   12.2451 H   0  0  0  0  0  0
   14.8592   -9.6155   13.1575 H   0  0  0  0  0  0
   13.0253  -13.0495   13.7671 H   0  0  0  0  0  0
   15.0641  -14.8386   14.4427 H   0  0  0  0  0  0
   15.5422  -15.4699   12.1024 H   0  0  0  0  0  0
   13.8060  -15.4319   12.5614 H   0  0  0  0  0  0
   15.2478  -11.2508    7.2259 H   0  0  0  0  0  0
   13.9254  -10.6402    6.1747 H   0  0  0  0  0  0
   14.7202   -8.4474    5.4903 H   0  0  0  0  0  0
   16.3004   -9.1093    6.0303 H   0  0  0  0  0  0
   15.7567   -7.4980    6.6088 H   0  0  0  0  0  0
   12.7509   -8.3945    7.1446 H   0  0  0  0  0  0
   13.6873   -7.4671    8.3652 H   0  0  0  0  0  0
   12.9717   -9.0564    8.7998 H   0  0  0  0  0  0
   15.2635   -9.8921    9.5508 H   0  0  0  0  0  0
   16.7835  -10.9903    7.8883 H   0  0  0  0  0  0
   17.7359   -7.7591    8.1338 H   0  0  0  0  0  0
   17.1244   -5.8866   10.4866 H   0  0  0  0  0  0
   18.5447   -5.8190    9.3890 H   0  0  0  0  0  0
   15.6817   -5.0753    8.5529 H   0  0  0  0  0  0
   16.9188   -3.8863    9.0843 H   0  0  0  0  0  0
   15.2690   -4.6225    6.5036 H   0  0  0  0  0  0
   16.1151   -3.5985    4.3802 H   0  0  0  0  0  0
   17.7596   -4.2351    4.7221 H   0  0  0  0  0  0
   17.0011   -6.5175    4.2694 H   0  0  0  0  0  0
   15.3228   -5.9320    4.0104 H   0  0  0  0  0  0
   17.6966   -4.7934    2.4099 H   0  0  0  0  0  0
   16.8111   -6.2578    1.8640 H   0  0  0  0  0  0
   17.0873   -2.9771    1.2963 H   0  0  0  0  0  0
   15.2540   -2.5305    1.0331 H   0  0  0  0  0  0
  1  2  1  0  0  0
  1  6  2  0  0  0
  2  3  2  0  0  0
  2 52  1  0  0  0
  3  4  1  0  0  0
  4  5  2  0  0  0
  4 10  1  0  0  0
  5  6  1  0  0  0
  5  8  1  0  0  0
  6  7  1  0  0  0
  7 53  1  0  0  0
  7 54  1  0  0  0
  8  9  2  0  0  0
  9 10  1  0  0  0
  9 55  1  0  0  0
 10 11  1  0  0  0
 11 12  1  0  0  0
 11 21  1  0  0  0
 11 56  1  0  0  0
 12 13  1  0  0  0
 12 14  1  0  0  0
 12 57  1  0  0  0
 13 58  1  0  0  0
 14 15  1  0  0  0
 14 20  1  0  0  0
 14 59  1  0  0  0
 15 16  1  0  0  0
 16 17  1  0  0  0
 16 18  2  0  0  0
 16 19  1  0  0  0
 20 21  1  0  0  0
 20 22  1  0  0  0
 20 60  1  0  0  0
 22 23  1  0  0  0
 22 61  1  0  0  0
 22 62  1  0  0  0
 23 24  1  0  0  0
 24 25  1  0  0  0
 24 26  2  0  0  0
 24 27  1  0  0  0
 27 28  1  0  0  0
 28 29  1  0  0  0
 28 30  2  0  0  0
 28 31  1  0  0  0
 31 33  1  0  0  0
 32 33  1  0  0  0
 32 34  1  0  0  0
 32 35  1  0  0  0
 32 36  1  0  0  0
 33 63  1  0  0  0
 33 64  1  0  0  0
 34 65  1  0  0  0
 34 66  1  0  0  0
 34 67  1  0  0  0
 35 68  1  0  0  0
 35 69  1  0  0  0
 35 70  1  0  0  0
 36 37  1  0  0  0
 36 38  1  0  0  0
 36 71  1  0  0  0
 37 72  1  0  0  0
 38 39  2  0  0  0
 38 40  1  0  0  0
 40 41  1  0  0  0
 40 73  1  0  0  0
 41 42  1  0  0  0
 41 74  1  0  0  0
 41 75  1  0  0  0
 42 43  1  0  0  0
 42 76  1  0  0  0
 42 77  1  0  0  0
 43 44  2  0  0  0
 43 45  1  0  0  0
 45 46  1  0  0  0
 45 78  1  0  0  0
 46 47  1  0  0  0
 46 79  1  0  0  0
 46 80  1  0  0  0
 47 48  1  0  0  0
 47 81  1  0  0  0
 47 82  1  0  0  0
 48 49  1  0  0  0
 48 83  1  0  0  0
 48 84  1  0  0  0
 49 50  2  0  0  0
 49 51  1  0  0  0
 51 85  1  0  0  0
 51 86  1  0  0  0
M  CHG  4  17  -1  19  -1  25  -1  29  -1
M  END
> <s_m_source_file>
../1csh_ligand.sdf

> <i_m_source_file_index>
1

> <s_epik_input>
bjFbY0hdbmMoW05IMl0pYyhjMTIpbltjSF1uMltDQEhdM1tDQEhdKFtPSF0pW0NASF0oT1AoPU8pKFtPSF0pW09IXSlbQ0BIXShPMylbQ0gyXU9bUEBAXSg9TykoW09IXSlPW1BAXSg9TykoW09IXSlPW0NIMl1DKFtDSDNdKShbQ0gzXSlbQ0BASF0oW09IXSlDKD1PKVtOSF1bQ0gyXVtDSDJdQyg9TylbTkhdW0NIMl1bQ0gyXVtDSDJdQyg9TylbTkgyXQ==

> <s_epik_cmdline>
J2VwaWtfYXBwJywgJy1pbWFlJywgJ2xpZ2FuZF9wcm8ubWFlJywgJy1vbWFlJywgJ2xpZ2FuZF9wcmVwLm1hZScsICctbXMnLCAnMScsICctcGgnLCAnNycsICctcGh0JywgJzAuNScsICctbnQn

> <r_lp_tautomer_probability>
0.999997216410988

> <r_epik_Ionization_Penalty>
  0.0758

> <r_epik_Ionization_Penalty_Charging>
  0.0752

> <r_epik_Ionization_Penalty_Neutral>
  0.0006

> <r_epik_State_Penalty>
  0.0657

> <r_epik_Charging_Adjusted_Penalty>
0.140910501814439

> <i_epik_Tot_Q>
-4

> <i_epik_Tot_abs_Q>
4

> <s_epik_Chemistry_Notes>
This compound contains an acetal/aminal-like group ( X-CH(R)-Y where X, Y are N, S, or O) that may be acid/base labile, releasing an aldehyde.

$$$$
