1csi_ligand
                    3D
 Schrodinger Suite 2020-3.
 84 86  0  0  1  0            999 V2000
   19.5210   -8.0930   13.3460 N   0  0  0  0  0  0
   18.9800   -8.6600   14.4070 C   0  0  0  0  0  0
   18.1560   -9.6980   14.4670 N   0  0  0  0  0  0
   17.9020  -10.1880   13.2420 C   0  0  0  0  0  0
   18.4020   -9.7400   12.0420 C   0  0  0  0  0  0
   19.2650   -8.6330   12.1040 C   0  0  0  0  0  0
   19.8000   -8.0470   11.0530 N   0  0  0  0  0  0
   17.8760  -10.5040   10.9890 N   0  0  0  0  0  0
   17.1220  -11.4010   11.5690 C   0  0  0  0  0  0
   17.1070  -11.2820   12.9480 N   0  0  0  0  0  0
   16.2340  -12.1150   13.7870 C   0  0  1  0  0  0
   14.8090  -11.8360   13.3150 C   0  0  2  0  0  0
   14.3590  -10.5390   13.6310 O   0  0  0  0  0  0
   14.0740  -12.9830   13.9770 C   0  0  2  0  0  0
   14.0460  -12.7780   15.3990 O   0  0  0  0  0  0
   12.7130  -13.1270   16.2540 P   0  0  0  0  0  0
   11.5520  -12.4560   15.6500 O   0  0  0  0  0  0
   12.9700  -12.8690   17.6900 O   0  5  0  0  0  0
   12.5630  -14.5990   16.0160 O   0  5  0  0  0  0
   15.0490  -14.1350   13.6700 C   0  0  2  0  0  0
   16.3340  -13.5080   13.4660 O   0  0  0  0  0  0
   14.7020  -14.8980   12.4160 C   0  0  0  0  0  0
   14.3910  -13.9300   11.4190 O   0  0  0  0  0  0
   14.7370  -14.3770    9.9310 P   0  0  2  0  0  0
   13.9160  -15.5130    9.4660 O   0  0  0  0  0  0
   16.2190  -14.5800    9.8450 O   0  5  0  0  0  0
   14.4740  -13.0110    9.1320 O   0  0  0  0  0  0
   13.0440  -12.6740    8.4450 P   0  0  1  0  0  0
   12.9440  -13.3320    7.1390 O   0  5  0  0  0  0
   11.9670  -12.7250    9.4370 O   0  0  0  0  0  0
   13.3570  -11.0840    8.2140 O   0  0  0  0  0  0
   14.7020   -9.2030    7.5510 C   0  0  0  0  0  0
   14.2100  -10.6030    7.1770 C   0  0  0  0  0  0
   15.3930   -8.5820    6.3200 C   0  0  0  0  0  0
   13.4360   -8.3990    7.9400 C   0  0  0  0  0  0
   15.6380   -9.3450    8.7630 C   0  0  1  0  0  0
   16.8550  -10.0050    8.4190 O   0  0  0  0  0  0
   15.9860   -7.9850    9.3940 C   0  0  0  0  0  0
   15.2970   -7.4620   10.2860 O   0  0  0  0  0  0
   17.0820   -7.4000    8.9530 N   0  0  0  0  0  0
   17.5300   -6.0670    9.4250 C   0  0  0  0  0  0
   16.7750   -5.0000    8.6380 C   0  0  0  0  0  0
   17.2350   -4.8380    7.1960 C   0  0  0  0  0  0
   18.4520   -4.8130    6.9180 O   0  0  0  0  0  0
   16.2850   -4.6670    6.2640 N   0  0  0  0  0  0
   16.6860   -4.4480    4.8790 C   0  0  0  0  0  0
   16.3850   -5.6530    3.9610 C   0  0  0  0  0  0
   16.6140   -5.3730    2.4210 C   0  0  0  0  0  0
   15.5880   -4.4180    1.9150 C   0  0  0  0  0  0
   14.4100   -4.6810    1.8870 O   0  0  0  0  0  0
   16.0320   -3.2750    1.5480 O   0  5  0  0  0  0
   19.2464   -8.2148   15.3656 H   0  0  0  0  0  0
   20.4676   -7.1829   11.1855 H   0  0  0  0  0  0
   19.5793   -8.4217   10.0426 H   0  0  0  0  0  0
   16.5640  -12.1624   11.0240 H   0  0  0  0  0  0
   16.5236  -11.9349   14.8328 H   0  0  0  0  0  0
   14.6301  -11.7398   12.2339 H   0  0  0  0  0  0
   14.8501   -9.6622   13.1837 H   0  0  0  0  0  0
   13.0188  -13.1085   13.6928 H   0  0  0  0  0  0
   15.0755  -14.8627   14.4944 H   0  0  0  0  0  0
   15.5623  -15.5114   12.1102 H   0  0  0  0  0  0
   13.8377  -15.5499   12.6108 H   0  0  0  0  0  0
   15.0685  -11.2815    7.0641 H   0  0  0  0  0  0
   13.6496  -10.5604    6.2314 H   0  0  0  0  0  0
   14.6718   -8.5090    5.4927 H   0  0  0  0  0  0
   16.2380   -9.2166    6.0149 H   0  0  0  0  0  0
   15.7620   -7.5775    6.5745 H   0  0  0  0  0  0
   12.7772   -8.3060    7.0640 H   0  0  0  0  0  0
   13.7299   -7.3970    8.2858 H   0  0  0  0  0  0
   12.9021   -8.9232    8.7463 H   0  0  0  0  0  0
   15.1438  -10.0065    9.4897 H   0  0  0  0  0  0
   16.8278  -11.0001    7.9511 H   0  0  0  0  0  0
   17.6731   -7.9448    8.2022 H   0  0  0  0  0  0
   17.3138   -5.9666   10.4989 H   0  0  0  0  0  0
   18.6122   -5.9634    9.2576 H   0  0  0  0  0  0
   15.7056   -5.2557    8.6065 H   0  0  0  0  0  0
   16.9042   -4.0233    9.1273 H   0  0  0  0  0  0
   15.2180   -4.6900    6.5306 H   0  0  0  0  0  0
   16.1467   -3.5790    4.4742 H   0  0  0  0  0  0
   17.7690   -4.2600    4.8362 H   0  0  0  0  0  0
   17.0379   -6.4948    4.2350 H   0  0  0  0  0  0
   15.3329   -5.9511    4.0803 H   0  0  0  0  0  0
   17.6142   -4.9402    2.2718 H   0  0  0  0  0  0
   16.5356   -6.3166    1.8611 H   0  0  0  0  0  0
  1  2  1  0  0  0
  1  6  2  0  0  0
  2  3  2  0  0  0
  2 52  1  0  0  0
  3  4  1  0  0  0
  4  5  2  0  0  0
  4 10  1  0  0  0
  5  6  1  0  0  0
  5  8  1  0  0  0
  6  7  1  0  0  0
  7 53  1  0  0  0
  7 54  1  0  0  0
  8  9  2  0  0  0
  9 10  1  0  0  0
  9 55  1  0  0  0
 10 11  1  0  0  0
 11 12  1  0  0  0
 11 21  1  0  0  0
 11 56  1  0  0  0
 12 13  1  0  0  0
 12 14  1  0  0  0
 12 57  1  0  0  0
 13 58  1  0  0  0
 14 15  1  0  0  0
 14 20  1  0  0  0
 14 59  1  0  0  0
 15 16  1  0  0  0
 16 17  2  0  0  0
 16 18  1  0  0  0
 16 19  1  0  0  0
 20 21  1  0  0  0
 20 22  1  0  0  0
 20 60  1  0  0  0
 22 23  1  0  0  0
 22 61  1  0  0  0
 22 62  1  0  0  0
 23 24  1  0  0  0
 24 25  2  0  0  0
 24 26  1  0  0  0
 24 27  1  0  0  0
 27 28  1  0  0  0
 28 29  1  0  0  0
 28 30  2  0  0  0
 28 31  1  0  0  0
 31 33  1  0  0  0
 32 33  1  0  0  0
 32 34  1  0  0  0
 32 35  1  0  0  0
 32 36  1  0  0  0
 33 63  1  0  0  0
 33 64  1  0  0  0
 34 65  1  0  0  0
 34 66  1  0  0  0
 34 67  1  0  0  0
 35 68  1  0  0  0
 35 69  1  0  0  0
 35 70  1  0  0  0
 36 37  1  0  0  0
 36 38  1  0  0  0
 36 71  1  0  0  0
 37 72  1  0  0  0
 38 39  2  0  0  0
 38 40  1  0  0  0
 40 41  1  0  0  0
 40 73  1  0  0  0
 41 42  1  0  0  0
 41 74  1  0  0  0
 41 75  1  0  0  0
 42 43  1  0  0  0
 42 76  1  0  0  0
 42 77  1  0  0  0
 43 44  2  0  0  0
 43 45  1  0  0  0
 45 46  1  0  0  0
 45 78  1  0  0  0
 46 47  1  0  0  0
 46 79  1  0  0  0
 46 80  1  0  0  0
 47 48  1  0  0  0
 47 81  1  0  0  0
 47 82  1  0  0  0
 48 49  1  0  0  0
 48 83  1  0  0  0
 48 84  1  0  0  0
 49 50  2  0  0  0
 49 51  1  0  0  0
M  CHG  5  18  -1  19  -1  26  -1  29  -1  51  -1
M  END
> <s_m_source_file>
../1csi_ligand.sdf

> <i_m_source_file_index>
1

> <s_epik_input>
bjFbY0hdbmMoW05IMl0pYyhjMTIpbltjSF1uMltDQEhdM1tDQEhdKFtPSF0pW0NASF0oT1AoPU8pKFtPSF0pW09IXSlbQ0BIXShPMylbQ0gyXU9bUEBdKD1PKShbT0hdKU9bUEBdKD1PKShbT0hdKU9bQ0gyXUMoW0NIM10pKFtDSDNdKVtDQEBIXShbT0hdKUMoPU8pW05IXVtDSDJdW0NIMl1DKD1PKVtOSF1bQ0gyXVtDSDJdW0NIMl1DKD1PKVtPSF0=

> <s_epik_cmdline>
J2VwaWtfYXBwJywgJy1pbWFlJywgJ2xpZ2FuZF9wcm8ubWFlJywgJy1vbWFlJywgJ2xpZ2FuZF9wcmVwLm1hZScsICctbXMnLCAnMScsICctcGgnLCAnNycsICctcGh0JywgJzAuNScsICctbnQn

> <r_lp_tautomer_probability>
0.999997216410988

> <r_epik_Ionization_Penalty>
  0.0786

> <r_epik_Ionization_Penalty_Charging>
  0.0780

> <r_epik_Ionization_Penalty_Neutral>
  0.0006

> <r_epik_State_Penalty>
  0.0657

> <r_epik_Charging_Adjusted_Penalty>
0.143680569240022

> <i_epik_Tot_Q>
-5

> <i_epik_Tot_abs_Q>
5

> <s_epik_Chemistry_Notes>
This compound contains an acetal/aminal-like group ( X-CH(R)-Y where X, Y are N, S, or O) that may be acid/base labile, releasing an aldehyde.

$$$$
