1csr_ligand
                    3D
 Schrodinger Suite 2020-3.
 86 88  0  0  1  0            999 V2000
   19.6050   -7.9490   13.3360 N   0  0  0  0  0  0
   19.0720   -8.5130   14.4190 C   0  0  0  0  0  0
   18.2440   -9.5500   14.4930 N   0  0  0  0  0  0
   17.9520  -10.0560   13.2720 C   0  0  0  0  0  0
   18.4210   -9.5850   12.0620 C   0  0  0  0  0  0
   19.2950   -8.4680   12.1170 C   0  0  0  0  0  0
   19.8000   -7.8590   11.0480 N   0  0  0  0  0  0
   17.8890  -10.3470   11.0160 N   0  0  0  0  0  0
   17.1450  -11.2670   11.6040 C   0  0  0  0  0  0
   17.1730  -11.1650   12.9710 N   0  0  0  0  0  0
   16.3170  -12.0110   13.7940 C   0  0  1  0  0  0
   14.8720  -11.7550   13.3480 C   0  0  2  0  0  0
   14.3760  -10.4860   13.7530 O   0  0  0  0  0  0
   14.1910  -12.9500   13.9980 C   0  0  2  0  0  0
   13.9050  -12.7370   15.3910 O   0  0  0  0  0  0
   12.4830  -13.1090   16.0610 P   0  0  0  0  0  0
   11.3980  -12.7250   15.0980 O   0  5  0  0  0  0
   12.4890  -12.5760   17.4470 O   0  0  0  0  0  0
   12.5050  -14.5930   16.1880 O   0  5  0  0  0  0
   15.2360  -14.0680   13.7700 C   0  0  2  0  0  0
   16.5010  -13.3820   13.5500 O   0  0  0  0  0  0
   14.9700  -14.8570   12.5230 C   0  0  0  0  0  0
   14.5080  -13.9370   11.5200 O   0  0  0  0  0  0
   14.7660  -14.3070    9.9820 P   0  0  2  0  0  0
   13.9030  -15.4490    9.5380 O   0  5  0  0  0  0
   16.2400  -14.4960    9.9100 O   0  0  0  0  0  0
   14.4660  -12.9220    9.2460 O   0  0  0  0  0  0
   13.0980  -12.6540    8.4220 P   0  0  1  0  0  0
   13.0840  -13.3720    7.1060 O   0  5  0  0  0  0
   11.9240  -12.6590    9.3360 O   0  0  0  0  0  0
   13.3770  -11.0970    8.1960 O   0  0  0  0  0  0
   14.7190   -9.1770    7.5000 C   0  0  0  0  0  0
   14.2380  -10.5690    7.1340 C   0  0  0  0  0  0
   15.3510   -8.4930    6.2700 C   0  0  0  0  0  0
   13.4750   -8.4040    7.9840 C   0  0  0  0  0  0
   15.7650   -9.3040    8.6280 C   0  0  1  0  0  0
   16.8920  -10.1390    8.4580 O   0  0  0  0  0  0
   16.0700   -7.9860    9.3590 C   0  0  0  0  0  0
   15.4040   -7.6430   10.3550 O   0  0  0  0  0  0
   17.0550   -7.2290    8.8640 N   0  0  0  0  0  0
   17.4170   -5.9320    9.4480 C   0  0  0  0  0  0
   16.7440   -4.8190    8.6380 C   0  0  0  0  0  0
   17.2220   -4.6520    7.1730 C   0  0  0  0  0  0
   18.4110   -4.7740    6.9060 O   0  0  0  0  0  0
   16.3130   -4.3220    6.2310 N   0  0  0  0  0  0
   16.6340   -4.1100    4.8150 C   0  0  0  0  0  0
   16.4180   -5.3910    3.9540 C   0  0  0  0  0  0
   16.6550   -5.1430    2.4270 C   0  0  1  0  0  0
   16.7120   -6.3280    1.7520 F   0  0  0  0  0  0
   15.5450   -4.3660    1.8010 C   0  0  0  0  0  0
   14.4110   -4.8160    1.8120 O   0  0  0  0  0  0
   15.9020   -3.1950    1.2700 N   0  0  0  0  0  0
   19.3525   -8.0639   15.3717 H   0  0  0  0  0  0
   20.4722   -6.9972   11.1723 H   0  0  0  0  0  0
   19.5455   -8.2171   10.0395 H   0  0  0  0  0  0
   16.5736  -12.0217   11.0635 H   0  0  0  0  0  0
   16.5973  -11.8248   14.8413 H   0  0  0  0  0  0
   14.6800  -11.6246   12.2728 H   0  0  0  0  0  0
   14.8101   -9.5664   13.3336 H   0  0  0  0  0  0
   13.1734  -13.1549   13.6341 H   0  0  0  0  0  0
   15.2676  -14.7648   14.6206 H   0  0  0  0  0  0
   15.8978  -15.3488   12.1954 H   0  0  0  0  0  0
   14.2037  -15.6191   12.7278 H   0  0  0  0  0  0
   15.1076  -11.2300    7.0044 H   0  0  0  0  0  0
   13.6711  -10.5202    6.1926 H   0  0  0  0  0  0
   14.5991   -8.4067    5.4718 H   0  0  0  0  0  0
   16.1992   -9.0946    5.9113 H   0  0  0  0  0  0
   15.7053   -7.4900    6.5500 H   0  0  0  0  0  0
   12.7476   -8.3284    7.1623 H   0  0  0  0  0  0
   13.7723   -7.3946    8.3046 H   0  0  0  0  0  0
   13.0180   -8.9378    8.8303 H   0  0  0  0  0  0
   15.3024  -10.0350    9.3075 H   0  0  0  0  0  0
   16.7869  -11.1075    7.9472 H   0  0  0  0  0  0
   17.6010   -7.6094    7.9881 H   0  0  0  0  0  0
   17.0741   -5.8917   10.4924 H   0  0  0  0  0  0
   18.5094   -5.8074    9.4157 H   0  0  0  0  0  0
   15.6617   -5.0082    8.5837 H   0  0  0  0  0  0
   16.9228   -3.8501    9.1272 H   0  0  0  0  0  0
   15.2762   -4.2134    6.5822 H   0  0  0  0  0  0
   15.9900   -3.3166    4.4079 H   0  0  0  0  0  0
   17.6884   -3.8119    4.7187 H   0  0  0  0  0  0
   17.1185   -6.1741    4.2797 H   0  0  0  0  0  0
   15.3850   -5.7476    4.0799 H   0  0  0  0  0  0
   17.6238   -4.6504    2.2573 H   0  0  0  0  0  0
   16.9527   -2.8715    1.3077 H   0  0  0  0  0  0
   15.1456   -2.5532    0.7946 H   0  0  0  0  0  0
  1  2  1  0  0  0
  1  6  2  0  0  0
  2  3  2  0  0  0
  2 53  1  0  0  0
  3  4  1  0  0  0
  4  5  2  0  0  0
  4 10  1  0  0  0
  5  6  1  0  0  0
  5  8  1  0  0  0
  6  7  1  0  0  0
  7 54  1  0  0  0
  7 55  1  0  0  0
  8  9  2  0  0  0
  9 10  1  0  0  0
  9 56  1  0  0  0
 10 11  1  0  0  0
 11 12  1  0  0  0
 11 21  1  0  0  0
 11 57  1  0  0  0
 12 13  1  0  0  0
 12 14  1  0  0  0
 12 58  1  0  0  0
 13 59  1  0  0  0
 14 15  1  0  0  0
 14 20  1  0  0  0
 14 60  1  0  0  0
 15 16  1  0  0  0
 16 17  1  0  0  0
 16 18  2  0  0  0
 16 19  1  0  0  0
 20 21  1  0  0  0
 20 22  1  0  0  0
 20 61  1  0  0  0
 22 23  1  0  0  0
 22 62  1  0  0  0
 22 63  1  0  0  0
 23 24  1  0  0  0
 24 25  1  0  0  0
 24 26  2  0  0  0
 24 27  1  0  0  0
 27 28  1  0  0  0
 28 29  1  0  0  0
 28 30  2  0  0  0
 28 31  1  0  0  0
 31 33  1  0  0  0
 32 33  1  0  0  0
 32 34  1  0  0  0
 32 35  1  0  0  0
 32 36  1  0  0  0
 33 64  1  0  0  0
 33 65  1  0  0  0
 34 66  1  0  0  0
 34 67  1  0  0  0
 34 68  1  0  0  0
 35 69  1  0  0  0
 35 70  1  0  0  0
 35 71  1  0  0  0
 36 37  1  0  0  0
 36 38  1  0  0  0
 36 72  1  0  0  0
 37 73  1  0  0  0
 38 39  2  0  0  0
 38 40  1  0  0  0
 40 41  1  0  0  0
 40 74  1  0  0  0
 41 42  1  0  0  0
 41 75  1  0  0  0
 41 76  1  0  0  0
 42 43  1  0  0  0
 42 77  1  0  0  0
 42 78  1  0  0  0
 43 44  2  0  0  0
 43 45  1  0  0  0
 45 46  1  0  0  0
 45 79  1  0  0  0
 46 47  1  0  0  0
 46 80  1  0  0  0
 46 81  1  0  0  0
 47 48  1  0  0  0
 47 82  1  0  0  0
 47 83  1  0  0  0
 48 49  1  0  0  0
 48 50  1  0  0  0
 48 84  1  0  0  0
 50 51  2  0  0  0
 50 52  1  0  0  0
 52 85  1  0  0  0
 52 86  1  0  0  0
M  CHG  4  17  -1  19  -1  25  -1  29  -1
M  END
> <s_m_source_file>
../1csr_ligand.sdf

> <i_m_source_file_index>
1

> <s_epik_input>
bjFbY0hdbmMoW05IMl0pYyhjMTIpbltjSF1uMltDQEhdM1tDQEhdKFtPSF0pW0NASF0oT1AoPU8pKFtPSF0pW09IXSlbQ0BIXShPMylbQ0gyXU9bUEBAXSg9TykoW09IXSlPW1BAXSg9TykoW09IXSlPW0NIMl1DKFtDSDNdKShbQ0gzXSlbQ0BASF0oW09IXSlDKD1PKVtOSF1bQ0gyXVtDSDJdQyg9TylbTkhdW0NIMl1bQ0gyXVtDQEBIXShGKUMoPU8pW05IMl0=

> <s_epik_cmdline>
J2VwaWtfYXBwJywgJy1pbWFlJywgJ2xpZ2FuZF9wcm8ubWFlJywgJy1vbWFlJywgJ2xpZ2FuZF9wcmVwLm1hZScsICctbXMnLCAnMScsICctcGgnLCAnNycsICctcGh0JywgJzAuNScsICctbnQn

> <r_lp_tautomer_probability>
0.999997216410988

> <r_epik_Ionization_Penalty>
  0.0758

> <r_epik_Ionization_Penalty_Charging>
  0.0752

> <r_epik_Ionization_Penalty_Neutral>
  0.0006

> <r_epik_State_Penalty>
  0.0657

> <r_epik_Charging_Adjusted_Penalty>
0.140910501814439

> <i_epik_Tot_Q>
-4

> <i_epik_Tot_abs_Q>
4

> <s_epik_Chemistry_Notes>
This compound contains an acetal/aminal-like group ( X-CH(R)-Y where X, Y are N, S, or O) that may be acid/base labile, releasing an aldehyde.

$$$$
