1css_ligand
                    3D
 Schrodinger Suite 2020-3.
 84 86  0  0  1  0            999 V2000
   19.5320   -8.0740   13.3290 N   0  0  0  0  0  0
   18.9640   -8.6380   14.3990 C   0  0  0  0  0  0
   18.1290   -9.6800   14.4730 N   0  0  0  0  0  0
   17.9050  -10.1970   13.2480 C   0  0  0  0  0  0
   18.3910   -9.7350   12.0470 C   0  0  0  0  0  0
   19.2690   -8.6220   12.1290 C   0  0  0  0  0  0
   19.8050   -8.0040   11.1210 N   0  0  0  0  0  0
   17.9180  -10.5300   10.9980 N   0  0  0  0  0  0
   17.1450  -11.4310   11.5770 C   0  0  0  0  0  0
   17.1050  -11.2840   12.9470 N   0  0  0  0  0  0
   16.2500  -12.0580   13.8160 C   0  0  1  0  0  0
   14.8110  -11.7650   13.3230 C   0  0  2  0  0  0
   14.3200  -10.4690   13.6720 O   0  0  0  0  0  0
   14.0500  -12.9220   13.9570 C   0  0  2  0  0  0
   14.0350  -12.7290   15.3800 O   0  0  0  0  0  0
   12.6460  -13.0350   16.1910 P   0  0  0  0  0  0
   11.5340  -12.3990   15.4210 O   0  5  0  0  0  0
   12.8430  -12.7000   17.6280 O   0  0  0  0  0  0
   12.5460  -14.5220   16.0860 O   0  5  0  0  0  0
   15.0190  -14.0860   13.6890 C   0  0  2  0  0  0
   16.3020  -13.4310   13.5140 O   0  0  0  0  0  0
   14.7460  -14.8750   12.4350 C   0  0  0  0  0  0
   14.4250  -13.9010   11.3980 O   0  0  0  0  0  0
   14.7690  -14.3310    9.9000 P   0  0  2  0  0  0
   13.9250  -15.5180    9.5720 O   0  5  0  0  0  0
   16.2250  -14.4630    9.7360 O   0  0  0  0  0  0
   14.4290  -12.9800    9.1650 O   0  0  0  0  0  0
   13.0630  -12.6090    8.4300 P   0  0  1  0  0  0
   13.0220  -13.3530    7.1480 O   0  5  0  0  0  0
   11.8890  -12.6360    9.3110 O   0  0  0  0  0  0
   13.3740  -11.0200    8.2010 O   0  0  0  0  0  0
   14.7360   -9.1530    7.5860 C   0  0  0  0  0  0
   14.3060  -10.5630    7.2240 C   0  0  0  0  0  0
   15.5070   -8.6070    6.3510 C   0  0  0  0  0  0
   13.4290   -8.3380    7.8260 C   0  0  0  0  0  0
   15.6290   -9.2810    8.8510 C   0  0  1  0  0  0
   16.8090   -9.9470    8.3530 O   0  0  0  0  0  0
   16.0230   -7.9120    9.4100 C   0  0  0  0  0  0
   15.3450   -7.3500   10.2700 O   0  0  0  0  0  0
   17.1260   -7.3290    8.9390 N   0  0  0  0  0  0
   17.5430   -5.9990    9.4450 C   0  0  0  0  0  0
   16.8180   -4.9080    8.6530 C   0  0  0  0  0  0
   17.2450   -4.7930    7.1920 C   0  0  0  0  0  0
   18.4660   -4.8100    6.9130 O   0  0  0  0  0  0
   16.2560   -4.5780    6.2470 N   0  0  0  0  0  0
   16.6380   -4.4270    4.8480 C   0  0  0  0  0  0
   16.6350   -5.6900    4.0160 C   0  0  0  0  0  0
   16.5010   -5.6090    2.4760 C   0  0  2  0  0  0
   17.7410   -5.5260    1.8810 F   0  0  0  0  0  0
   15.5710   -4.5230    2.0140 C   0  0  0  0  0  0
   14.3970   -4.7260    1.8140 O   0  0  0  0  0  0
   16.1290   -3.3630    1.8060 O   0  5  0  0  0  0
   19.2195   -8.1802   15.3546 H   0  0  0  0  0  0
   20.4748   -7.1486   11.2933 H   0  0  0  0  0  0
   19.5894   -8.3358   10.0946 H   0  0  0  0  0  0
   16.6006  -12.2031   11.0333 H   0  0  0  0  0  0
   16.5800  -11.8682   14.8480 H   0  0  0  0  0  0
   14.6735  -11.6517   12.2375 H   0  0  0  0  0  0
   14.8039   -9.5693   13.2641 H   0  0  0  0  0  0
   13.0031  -13.0355   13.6390 H   0  0  0  0  0  0
   14.9900  -14.8158   14.5116 H   0  0  0  0  0  0
   15.6399  -15.4569   12.1660 H   0  0  0  0  0  0
   13.9019  -15.5587   12.6084 H   0  0  0  0  0  0
   15.1810  -11.2296    7.2119 H   0  0  0  0  0  0
   13.8291  -10.5659    6.2327 H   0  0  0  0  0  0
   14.8231   -8.5400    5.4921 H   0  0  0  0  0  0
   16.3367   -9.2867    6.1069 H   0  0  0  0  0  0
   15.9066   -7.6081    6.5804 H   0  0  0  0  0  0
   12.8504   -8.2895    6.8917 H   0  0  0  0  0  0
   13.6867   -7.3192    8.1511 H   0  0  0  0  0  0
   12.8277   -8.8303    8.6045 H   0  0  0  0  0  0
   15.1648   -9.8475    9.6717 H   0  0  0  0  0  0
   16.7283  -10.9502    7.9091 H   0  0  0  0  0  0
   17.7273   -7.8389    8.1719 H   0  0  0  0  0  0
   17.2843   -5.9146   10.5108 H   0  0  0  0  0  0
   18.6299   -5.8839    9.3213 H   0  0  0  0  0  0
   15.7369   -5.1112    8.6541 H   0  0  0  0  0  0
   17.0077   -3.9296    9.1185 H   0  0  0  0  0  0
   15.1965   -4.5205    6.5371 H   0  0  0  0  0  0
   15.9432   -3.7341    4.3509 H   0  0  0  0  0  0
   17.6607   -4.0263    4.7883 H   0  0  0  0  0  0
   17.5794   -6.2327    4.1699 H   0  0  0  0  0  0
   15.7919   -6.3276    4.3204 H   0  0  0  0  0  0
   16.1166   -6.5510    2.0578 H   0  0  0  0  0  0
  1  2  1  0  0  0
  1  6  2  0  0  0
  2  3  2  0  0  0
  2 53  1  0  0  0
  3  4  1  0  0  0
  4  5  2  0  0  0
  4 10  1  0  0  0
  5  6  1  0  0  0
  5  8  1  0  0  0
  6  7  1  0  0  0
  7 54  1  0  0  0
  7 55  1  0  0  0
  8  9  2  0  0  0
  9 10  1  0  0  0
  9 56  1  0  0  0
 10 11  1  0  0  0
 11 12  1  0  0  0
 11 21  1  0  0  0
 11 57  1  0  0  0
 12 13  1  0  0  0
 12 14  1  0  0  0
 12 58  1  0  0  0
 13 59  1  0  0  0
 14 15  1  0  0  0
 14 20  1  0  0  0
 14 60  1  0  0  0
 15 16  1  0  0  0
 16 17  1  0  0  0
 16 18  2  0  0  0
 16 19  1  0  0  0
 20 21  1  0  0  0
 20 22  1  0  0  0
 20 61  1  0  0  0
 22 23  1  0  0  0
 22 62  1  0  0  0
 22 63  1  0  0  0
 23 24  1  0  0  0
 24 25  1  0  0  0
 24 26  2  0  0  0
 24 27  1  0  0  0
 27 28  1  0  0  0
 28 29  1  0  0  0
 28 30  2  0  0  0
 28 31  1  0  0  0
 31 33  1  0  0  0
 32 33  1  0  0  0
 32 34  1  0  0  0
 32 35  1  0  0  0
 32 36  1  0  0  0
 33 64  1  0  0  0
 33 65  1  0  0  0
 34 66  1  0  0  0
 34 67  1  0  0  0
 34 68  1  0  0  0
 35 69  1  0  0  0
 35 70  1  0  0  0
 35 71  1  0  0  0
 36 37  1  0  0  0
 36 38  1  0  0  0
 36 72  1  0  0  0
 37 73  1  0  0  0
 38 39  2  0  0  0
 38 40  1  0  0  0
 40 41  1  0  0  0
 40 74  1  0  0  0
 41 42  1  0  0  0
 41 75  1  0  0  0
 41 76  1  0  0  0
 42 43  1  0  0  0
 42 77  1  0  0  0
 42 78  1  0  0  0
 43 44  2  0  0  0
 43 45  1  0  0  0
 45 46  1  0  0  0
 45 79  1  0  0  0
 46 47  1  0  0  0
 46 80  1  0  0  0
 46 81  1  0  0  0
 47 48  1  0  0  0
 47 82  1  0  0  0
 47 83  1  0  0  0
 48 49  1  0  0  0
 48 50  1  0  0  0
 48 84  1  0  0  0
 50 51  2  0  0  0
 50 52  1  0  0  0
M  CHG  5  17  -1  19  -1  25  -1  29  -1  52  -1
M  END
> <s_m_source_file>
../1css_ligand.sdf

> <i_m_source_file_index>
1

> <s_epik_input>
bjFbY0hdbmMoW05IMl0pYyhjMTIpbltjSF1uMltDQEhdM1tDQEhdKFtPSF0pW0NASF0oT1AoPU8pKFtPSF0pW09IXSlbQ0BIXShPMylbQ0gyXU9bUEBAXSg9TykoW09IXSlPW1BAXSg9TykoW09IXSlPW0NIMl1DKFtDSDNdKShbQ0gzXSlbQ0BASF0oW09IXSlDKD1PKVtOSF1bQ0gyXVtDSDJdQyg9TylbTkhdW0NIMl1bQ0gyXVtDQEhdKEYpQyg9TylbT0hd

> <s_epik_cmdline>
J2VwaWtfYXBwJywgJy1pbWFlJywgJ2xpZ2FuZF9wcm8ubWFlJywgJy1vbWFlJywgJ2xpZ2FuZF9wcmVwLm1hZScsICctbXMnLCAnMScsICctcGgnLCAnNycsICctcGh0JywgJzAuNScsICctbnQn

> <r_lp_tautomer_probability>
0.999997216410988

> <r_epik_Ionization_Penalty>
  0.0759

> <r_epik_Ionization_Penalty_Charging>
  0.0753

> <r_epik_Ionization_Penalty_Neutral>
  0.0006

> <r_epik_State_Penalty>
  0.0657

> <r_epik_Charging_Adjusted_Penalty>
0.141002554791652

> <i_epik_Tot_Q>
-5

> <i_epik_Tot_abs_Q>
5

> <s_epik_Chemistry_Notes>
This compound contains an acetal/aminal-like group ( X-CH(R)-Y where X, Y are N, S, or O) that may be acid/base labile, releasing an aldehyde.

$$$$
