1ct8_ligand
                    3D
 Schrodinger Suite 2020-3.
 55 56  0  0  1  0            999 V2000
   65.0330   24.5750   35.6880 F   0  0  0  0  0  0
   66.7840   24.7680   34.2370 F   0  0  0  0  0  0
   65.5050   22.9310   34.1260 F   0  0  0  0  0  0
   59.0390   36.1050   27.2630 Cl  0  0  0  0  0  0
   57.9370   37.2690   29.7060 Cl  0  0  0  0  0  0
   59.6710   29.6930   30.2390 P   0  0  2  0  0  0
   59.1360   31.1000   29.6780 O   0  0  0  0  0  0
   59.7220   28.6960   29.1910 O   0  0  0  0  0  0
   58.8370   29.3040   31.4270 O   0  5  0  0  0  0
   61.2770   30.1090   30.6770 C   0  0  0  0  0  0
   62.0410   29.0300   31.3560 C   0  0  0  0  0  0
   61.7030   28.7660   32.6780 C   0  0  0  0  0  0
   63.0570   28.3010   30.7110 C   0  0  0  0  0  0
   62.3420   27.8030   33.3960 C   0  0  0  0  0  0
   63.3690   27.0570   32.8110 C   0  0  0  0  0  0
   63.7270   27.3010   31.4530 C   0  0  0  0  0  0
   64.1250   26.1400   33.7200 N   0  0  0  0  0  0
   64.6080   24.9730   33.2980 C   0  0  0  0  0  0
   64.4920   24.4900   32.1670 O   0  0  0  0  0  0
   65.4890   24.2770   34.3790 C   0  0  0  0  0  0
   57.8250   31.1850   29.0340 C   0  0  1  0  0  0
   57.1850   32.4170   29.5720 C   0  0  1  0  0  0
   56.6940   32.1900   31.0920 C   0  0  0  0  0  0
   56.2660   33.4180   31.6930 O   0  0  0  0  0  0
   57.9860   33.5890   29.4070 N   0  0  0  0  0  0
   57.5180   34.7540   29.0350 C   0  0  0  0  0  0
   56.3360   34.9730   28.7820 O   0  0  0  0  0  0
   58.5690   35.8120   28.9600 C   0  0  0  0  0  0
   57.8470   31.0960   27.5440 C   0  0  0  0  0  0
   56.8800   30.4200   26.8530 C   0  0  0  0  0  0
   58.9010   31.7230   26.8860 C   0  0  0  0  0  0
   56.9570   30.3600   25.5000 C   0  0  0  0  0  0
   58.0210   30.9900   24.8280 C   0  0  0  0  0  0
   58.9850   31.6680   25.5200 C   0  0  0  0  0  0
   58.1100   30.9530   23.4030 N   0  3  0  0  0  0
   58.9130   31.7220   22.8550 O   0  5  0  0  0  0
   57.3770   30.1790   22.7570 O   0  0  0  0  0  0
   61.8452   30.3780   29.7744 H   0  0  0  0  0  0
   61.2587   30.9652   31.3674 H   0  0  0  0  0  0
   60.9082   29.3434   33.1502 H   0  0  0  0  0  0
   63.3193   28.5008   29.6721 H   0  0  0  0  0  0
   62.0524   27.6129   34.4295 H   0  0  0  0  0  0
   64.5188   26.7156   30.9856 H   0  0  0  0  0  0
   64.2952   26.4230   34.7693 H   0  0  0  0  0  0
   57.2394   30.2910   29.2943 H   0  0  0  0  0  0
   56.3720   32.6626   28.8729 H   0  0  0  0  0  0
   55.8507   31.4838   31.1033 H   0  0  0  0  0  0
   57.5230   31.7806   31.6879 H   0  0  0  0  0  0
   55.9020   33.4248   32.7310 H   0  0  0  0  0  0
   59.0688   33.5462   29.5960 H   0  0  0  0  0  0
   59.3784   35.3503   29.5445 H   0  0  0  0  0  0
   56.0588   29.9361   27.3819 H   0  0  0  0  0  0
   59.6595   32.2577   27.4577 H   0  0  0  0  0  0
   56.1953   29.8242   24.9337 H   0  0  0  0  0  0
   59.8057   32.1561   24.9944 H   0  0  0  0  0  0
  1 20  1  0  0  0
  2 20  1  0  0  0
  3 20  1  0  0  0
  4 28  1  0  0  0
  5 28  1  0  0  0
  6 10  1  0  0  0
  6  9  1  0  0  0
  6  8  2  0  0  0
  6  7  1  0  0  0
  7 21  1  0  0  0
 10 11  1  0  0  0
 10 38  1  0  0  0
 10 39  1  0  0  0
 11 13  2  0  0  0
 11 12  1  0  0  0
 12 14  2  0  0  0
 12 40  1  0  0  0
 13 16  1  0  0  0
 13 41  1  0  0  0
 14 15  1  0  0  0
 14 42  1  0  0  0
 15 17  1  0  0  0
 15 16  2  0  0  0
 16 43  1  0  0  0
 17 18  1  0  0  0
 17 44  1  0  0  0
 18 20  1  0  0  0
 18 19  2  0  0  0
 21 29  1  0  0  0
 21 22  1  0  0  0
 21 45  1  0  0  0
 22 25  1  0  0  0
 22 23  1  0  0  0
 22 46  1  0  0  0
 23 24  1  0  0  0
 23 47  1  0  0  0
 23 48  1  0  0  0
 24 49  1  0  0  0
 25 26  1  0  0  0
 25 50  1  0  0  0
 26 28  1  0  0  0
 26 27  2  0  0  0
 28 51  1  0  0  0
 29 31  2  0  0  0
 29 30  1  0  0  0
 30 32  2  0  0  0
 30 52  1  0  0  0
 31 34  1  0  0  0
 31 53  1  0  0  0
 32 33  1  0  0  0
 32 54  1  0  0  0
 33 35  1  0  0  0
 33 34  2  0  0  0
 34 55  1  0  0  0
 35 37  2  0  0  0
 35 36  1  0  0  0
M  CHG  3   9  -1  35   1  36  -1
M  END
> <s_m_source_file>
../1ct8_ligand.sdf

> <i_m_source_file_index>
1

> <s_epik_input>
RkMoRikoRilDKD1PKVtOSF1jKFtjSF1bY0hdMSlbY0hdW2NIXWMxW0NIMl1bUEBAXSg9TykoW09IXSlPW0NAQEhdKFtDQEBIXShbQ0gyXVtPSF0pW05IXUMoPU8pW0NIXShDbClDbCljMltjSF1bY0hdYyhbTitdKFtPLV0pPU8pW2NIXVtjSF0y

> <s_epik_cmdline>
J2VwaWtfYXBwJywgJy1pbWFlJywgJ2xpZ2FuZF9wcm8ubWFlJywgJy1vbWFlJywgJ2xpZ2FuZF9wcmVwLm1hZScsICctbXMnLCAnMScsICctcGgnLCAnNycsICctcGh0JywgJzAuNScsICctbnQn

> <r_lp_tautomer_probability>
1

> <r_epik_Ionization_Penalty>
  0.0000

> <r_epik_Ionization_Penalty_Charging>
  0.0000

> <r_epik_Ionization_Penalty_Neutral>
  0.0000

> <r_epik_State_Penalty>
 -0.0000

> <r_epik_Charging_Adjusted_Penalty>
2.40243579153859e-06

> <i_epik_Tot_Q>
-1

> <i_epik_Tot_abs_Q>
3

$$$$
