1ctr_ligand
                    3D
 Schrodinger Suite 2020-3.
 48 51  0  0  1  0            999 V2000
    6.9850   25.8760  104.0390 C   0  0  0  0  0  0
    7.5590   24.7360  104.5850 C   0  0  0  0  0  0
    7.0040   24.1730  105.7110 C   0  0  0  0  0  0
    5.8760   24.7230  106.2940 C   0  0  0  0  0  0
    5.2350   25.8080  105.7010 C   0  0  0  0  0  0
    5.8330   26.4260  104.5910 C   0  0  0  0  0  0
    5.2980   24.0240  107.8210 S   0  0  0  0  0  0
    4.5620   25.3790  108.6120 C   0  0  0  0  0  0
    4.4590   25.3370  110.0060 C   0  0  0  0  0  0
    3.8500   26.3520  110.7050 C   0  0  0  0  0  0
    3.3150   27.3960  110.0090 C   0  0  0  0  0  0
    3.4220   27.4380  108.6150 C   0  0  0  0  0  0
    4.1000   26.4590  107.8620 C   0  0  0  0  0  0
    4.1250   26.4340  106.3630 N   0  0  0  0  0  0
    3.5590   27.5620  105.6230 C   0  0  0  0  0  0
    2.3730   27.1430  104.7420 C   0  0  0  0  0  0
    2.0220   28.1960  103.6860 C   0  0  0  0  0  0
    0.6860   28.1050  103.1690 N   0  0  0  0  0  0
    0.4460   28.5180  101.8330 C   0  0  0  0  0  0
   -0.8690   28.4570  101.2660 C   0  0  0  0  0  0
   -1.9630   27.9800  102.0470 N   0  0  0  0  0  0
   -1.7440   27.5720  103.3940 C   0  0  0  0  0  0
   -0.4140   27.6350  103.9530 C   0  0  0  0  0  0
   -3.2600   27.9150  101.4680 C   0  0  0  0  0  0
    7.6550   26.5500  102.9310 C   0  0  0  0  0  0
    8.7010   25.9160  102.4710 F   0  0  0  0  0  0
    8.0350   27.7510  103.2490 F   0  0  0  0  0  0
    6.9830   26.7700  101.8490 F   0  0  0  0  0  0
    8.4416   24.2909  104.1257 H   0  0  0  0  0  0
    7.4579   23.2839  106.1487 H   0  0  0  0  0  0
    5.3976   27.3300  104.1652 H   0  0  0  0  0  0
    4.8688   24.4845  110.5478 H   0  0  0  0  0  0
    3.7957   26.3231  111.7933 H   0  0  0  0  0  0
    2.8033   28.1987  110.5399 H   0  0  0  0  0  0
    2.9577   28.2695  108.0848 H   0  0  0  0  0  0
    3.2046   28.3248  106.3319 H   0  0  0  0  0  0
    4.3309   27.9974  104.9714 H   0  0  0  0  0  0
    2.6183   26.2077  104.2175 H   0  0  0  0  0  0
    1.4849   26.9879  105.3722 H   0  0  0  0  0  0
    2.1267   29.2008  104.1212 H   0  0  0  0  0  0
    2.7025   28.0955  102.8276 H   0  0  0  0  0  0
    1.2881   28.8893  101.2305 H   0  0  0  0  0  0
   -1.0355   28.7783  100.2272 H   0  0  0  0  0  0
   -2.5820   27.2102  104.0079 H   0  0  0  0  0  0
   -0.2386   27.3196  104.9921 H   0  0  0  0  0  0
   -3.2159   28.2724  100.4286 H   0  0  0  0  0  0
   -3.9509   28.5478  102.0443 H   0  0  0  0  0  0
   -3.6166   26.8745  101.4831 H   0  0  0  0  0  0
  1  2  2  0  0  0
  1  6  1  0  0  0
  1 25  1  0  0  0
  2  3  1  0  0  0
  2 29  1  0  0  0
  3  4  2  0  0  0
  3 30  1  0  0  0
  4  5  1  0  0  0
  4  7  1  0  0  0
  5  6  2  0  0  0
  5 14  1  0  0  0
  6 31  1  0  0  0
  7  8  1  0  0  0
  8  9  2  0  0  0
  8 13  1  0  0  0
  9 10  1  0  0  0
  9 32  1  0  0  0
 10 11  2  0  0  0
 10 33  1  0  0  0
 11 12  1  0  0  0
 11 34  1  0  0  0
 12 13  2  0  0  0
 12 35  1  0  0  0
 13 14  1  0  0  0
 14 15  1  0  0  0
 15 16  1  0  0  0
 15 36  1  0  0  0
 15 37  1  0  0  0
 16 17  1  0  0  0
 16 38  1  0  0  0
 16 39  1  0  0  0
 17 18  1  0  0  0
 17 40  1  0  0  0
 17 41  1  0  0  0
 18 19  1  0  0  0
 18 23  1  0  0  0
 19 20  2  0  0  0
 19 42  1  0  0  0
 20 21  1  0  0  0
 20 43  1  0  0  0
 21 22  1  0  0  0
 21 24  1  0  0  0
 22 23  2  0  0  0
 22 44  1  0  0  0
 23 45  1  0  0  0
 24 46  1  0  0  0
 24 47  1  0  0  0
 24 48  1  0  0  0
 25 26  1  0  0  0
 25 27  1  0  0  0
 25 28  1  0  0  0
M  END
> <s_m_source_file>
../1ctr_ligand.sdf

> <i_m_source_file_index>
1

> <s_epik_input>
W2NIXTFbY0hdW2NIXVtjSF1jKFMyKWMxTihjKGMyMylbY0hdYyhDKEYpKEYpRilbY0hdW2NIXTMpW0NIMl1bQ0gyXVtDSDJdTjRbQ0hdPVtDSF1OKFtDSDNdKVtDSF09W0NIXTQ=

> <s_epik_cmdline>
J2VwaWtfYXBwJywgJy1pbWFlJywgJ2xpZ2FuZF9wcm8ubWFlJywgJy1vbWFlJywgJ2xpZ2FuZF9wcmVwLm1hZScsICctbXMnLCAnMScsICctcGgnLCAnNycsICctcGh0JywgJzAuNScsICctbnQn

> <r_lp_tautomer_probability>
1

> <r_epik_Ionization_Penalty>
  0.0001

> <r_epik_Ionization_Penalty_Charging>
  0.0000

> <r_epik_Ionization_Penalty_Neutral>
  0.0001

> <r_epik_State_Penalty>
 -0.0000

> <r_epik_Charging_Adjusted_Penalty>
3.66396354472349e-11

> <i_epik_Tot_Q>
0

> <i_epik_Tot_abs_Q>
0

> <s_epik_Chemistry_Notes>
This compound has an imine and may undergo hydrolysis.

$$$$
