1cw2_ligand
                    3D
 Schrodinger Suite 2020-3.
 31 31  0  0  1  0            999 V2000
   46.9560   30.2100    9.7290 O   0  5  0  0  0  0
   48.4690   28.7120    8.5800 O   0  0  0  0  0  0
   47.7130   26.3180   16.1920 O   0  0  0  0  0  0
   49.6490   24.6200   15.6400 C   0  0  0  0  0  0
   50.1260   25.9330   15.7100 C   0  0  0  0  0  0
   51.4640   26.2280   15.3170 C   0  0  0  0  0  0
   52.2950   25.1950   14.8580 C   0  0  0  0  0  0
   51.8110   23.8760   14.7890 C   0  0  0  0  0  0
   50.4920   23.5920   15.1780 C   0  0  0  0  0  0
   51.9530   27.5050   15.3800 O   0  0  0  0  0  0
   49.0580   27.2410   16.3030 S   0  0  1  0  0  0
   49.0490   28.4950   14.9860 C   0  0  0  0  0  0
   48.6040   27.8780   13.6700 C   0  0  0  0  0  0
   48.5950   28.9230   12.5610 C   0  0  0  0  0  0
   48.1530   28.2930   11.2330 C   0  0  0  0  0  0
   48.2270   29.3870    9.9100 P   0  0  0  0  0  0
   49.3350   30.4200   10.0340 O   0  0  0  0  0  0
   48.6266   24.3934   15.9426 H   0  0  0  0  0  0
   53.3184   25.4151   14.5541 H   0  0  0  0  0  0
   52.4594   23.0750   14.4338 H   0  0  0  0  0  0
   50.1188   22.5694   15.1218 H   0  0  0  0  0  0
   51.3106   28.3229   15.7383 H   0  0  0  0  0  0
   48.3544   29.3044   15.2552 H   0  0  0  0  0  0
   50.0619   28.9063   14.8644 H   0  0  0  0  0  0
   49.2963   27.0698   13.3913 H   0  0  0  0  0  0
   47.5889   27.4691   13.7814 H   0  0  0  0  0  0
   47.8958   29.7305   12.8238 H   0  0  0  0  0  0
   49.6064   29.3385   12.4405 H   0  0  0  0  0  0
   48.8059   27.4399   10.9966 H   0  0  0  0  0  0
   47.1129   27.9456   11.3202 H   0  0  0  0  0  0
   49.4765   31.1723    9.2441 H   0  0  0  0  0  0
  1 16  1  0  0  0
  2 16  2  0  0  0
  3 11  2  0  0  0
  4  5  2  0  0  0
  4  9  1  0  0  0
  4 18  1  0  0  0
  5  6  1  0  0  0
  5 11  1  0  0  0
  6  7  2  0  0  0
  6 10  1  0  0  0
  7  8  1  0  0  0
  7 19  1  0  0  0
  8  9  2  0  0  0
  8 20  1  0  0  0
  9 21  1  0  0  0
 10 22  1  0  0  0
 11 12  1  0  0  0
 12 13  1  0  0  0
 12 23  1  0  0  0
 12 24  1  0  0  0
 13 14  1  0  0  0
 13 25  1  0  0  0
 13 26  1  0  0  0
 14 15  1  0  0  0
 14 27  1  0  0  0
 14 28  1  0  0  0
 15 16  1  0  0  0
 15 29  1  0  0  0
 15 30  1  0  0  0
 16 17  1  0  0  0
 17 31  1  0  0  0
M  CHG  1   1  -1
M  END
> <s_m_source_file>
../1cw2_ligand.sdf

> <i_m_source_file_index>
1

> <s_epik_input>
W09IXVAoPU8pKFtPSF0pW0NIMl1bQ0gyXVtDSDJdW0NIMl1bU0BAXSg9TyljMVtjSF1bY0hdW2NIXVtjSF1jMVtPSF0=

> <s_epik_cmdline>
J2VwaWtfYXBwJywgJy1pbWFlJywgJ2xpZ2FuZF9wcm8ubWFlJywgJy1vbWFlJywgJ2xpZ2FuZF9wcmVwLm1hZScsICctbXMnLCAnMScsICctcGgnLCAnNycsICctcGh0JywgJzAuNScsICctbnQn

> <r_lp_tautomer_probability>
1

> <r_epik_Ionization_Penalty>
  0.1509

> <r_epik_Ionization_Penalty_Charging>
  0.0000

> <r_epik_Ionization_Penalty_Neutral>
  0.1509

> <r_epik_State_Penalty>
 -0.0000

> <r_epik_Charging_Adjusted_Penalty>
1.96147362906912e-05

> <i_epik_Tot_Q>
-1

> <i_epik_Tot_abs_Q>
1

$$$$
