1cwb_ligand
                    3D
 Schrodinger Suite 2020-3.
199199  0  0  1  0            999 V2000
    5.1220   34.7980   19.3920 N   0  0  0  0  0  0
    4.5670   36.1740   19.5970 C   0  0  0  0  0  0
    6.3890   34.5780   18.6660 C   0  0  2  0  0  0
    7.6090   35.3420   19.2210 C   0  0  0  0  0  0
    6.2830   34.8920   17.0760 C   0  0  1  0  0  0
    5.2970   33.9650   16.2690 C   0  0  0  0  0  0
    5.3840   34.3510   14.7650 C   0  0  0  0  0  0
    5.5840   32.4630   16.4790 C   0  0  0  0  0  0
    3.7970   34.0850   16.5770 C   0  0  0  0  0  0
    6.6800   34.0100   14.0310 C   0  0  0  0  0  0
    7.4800   34.8280   13.3570 C   0  0  0  0  0  0
    8.7530   34.2790   12.6830 C   0  0  0  0  0  0
    7.5270   36.1600   20.1580 O   0  0  0  0  0  0
    5.9690   36.2780   16.9830 O   0  0  0  0  0  0
    8.8050   35.0230   18.7020 N   0  0  0  0  0  0
   10.0290   35.6790   19.1480 C   0  0  2  0  0  0
   10.6180   36.5380   18.0180 C   0  0  0  0  0  0
   11.3300   35.9750   17.1700 O   0  0  0  0  0  0
   11.0480   34.6130   19.5880 C   0  0  0  0  0  0
   10.4520   33.6590   20.6320 C   0  0  0  0  0  0
   10.3570   37.8560   17.9070 N   0  0  0  0  0  0
   10.9450   38.6290   16.8180 C   0  0  0  0  0  0
    9.8990   39.3560   15.9620 C   0  0  0  0  0  0
    9.8890   40.5980   15.9950 O   0  0  0  0  0  0
    9.3140   38.5210   18.7380 C   0  0  0  0  0  0
    9.0480   38.6990   15.1470 N   0  0  0  0  0  0
    9.2840   37.2430   14.9500 C   0  0  0  0  0  0
    7.9430   39.3650   14.4400 C   0  0  1  0  0  0
    7.7970   38.8620   12.9820 C   0  0  0  0  0  0
    8.3050   39.6570   11.7800 C   0  0  0  0  0  0
    7.6760   41.0640   11.7620 C   0  0  0  0  0  0
    9.8190   39.7750   11.8650 C   0  0  0  0  0  0
    6.6350   39.0450   15.1830 C   0  0  0  0  0  0
    6.0350   37.9850   14.9380 O   0  0  0  0  0  0
    6.1250   39.8570   16.1140 N   0  0  0  0  0  0
    4.9110   39.4640   16.8520 C   0  0  2  0  0  0
    3.6460   39.7060   16.0230 C   0  0  0  0  0  0
    3.4890   40.7710   15.4020 O   0  0  0  0  0  0
    4.7720   40.2170   18.2310 C   0  0  0  0  0  0
    5.9450   39.7970   19.0860 C   0  0  0  0  0  0
    4.7870   41.7320   18.1040 C   0  0  0  0  0  0
    2.7360   38.7170   15.9500 N   0  0  0  0  0  0
    2.7830   37.4770   16.8040 C   0  0  0  0  0  0
    1.5560   38.9350   15.1190 C   0  0  1  0  0  0
    1.2230   37.6360   14.3730 C   0  0  0  0  0  0
    1.9630   37.2460   13.0910 C   0  0  0  0  0  0
    1.3360   38.0840   12.0000 C   0  0  0  0  0  0
    3.4760   37.4950   13.1290 C   0  0  0  0  0  0
    0.3350   39.4240   15.8880 C   0  0  0  0  0  0
    0.2200   39.2860   17.1160 O   0  0  0  0  0  0
   -0.5740   40.0900   15.1860 N   0  0  0  0  0  0
   -1.8250   40.5080   15.7910 C   0  0  2  0  0  0
   -2.6680   39.3180   16.2690 C   0  0  0  0  0  0
   -2.5370   38.1820   15.7890 O   0  0  0  0  0  0
   -2.6460   41.3040   14.7800 C   0  0  0  0  0  0
   -3.5690   39.5590   17.2180 N   0  0  0  0  0  0
   -4.4460   38.5050   17.7190 C   0  0  2  0  0  0
   -5.8120   39.0730   18.1450 C   0  0  0  0  0  0
   -3.8000   37.8730   18.9370 C   0  0  0  0  0  0
   -3.2710   38.6380   19.7550 O   0  0  0  0  0  0
   -3.8110   36.5470   19.1700 N   0  0  0  0  0  0
   -4.3980   35.5120   18.2580 C   0  0  0  0  0  0
   -3.1910   36.1030   20.4090 C   0  0  1  0  0  0
   -4.2840   35.5500   21.3130 C   0  0  0  0  0  0
   -5.4510   36.4450   21.6810 C   0  0  0  0  0  0
   -6.5030   35.6110   22.3590 C   0  0  0  0  0  0
   -4.9630   37.5990   22.5390 C   0  0  0  0  0  0
   -2.1020   35.0710   20.1390 C   0  0  0  0  0  0
   -2.2910   33.8660   20.4050 O   0  0  0  0  0  0
   -0.9610   35.4930   19.5690 N   0  0  0  0  0  0
   -0.6260   36.9310   19.2540 C   0  0  0  0  0  0
    0.0480   34.4830   19.2720 C   0  0  1  0  0  0
    0.3930   34.6090   17.7870 C   0  0  0  0  0  0
   -0.7290   34.3730   16.7560 C   0  0  0  0  0  0
   -0.1150   34.3710   15.3690 C   0  0  0  0  0  0
   -1.4340   33.0360   16.9980 C   0  0  0  0  0  0
    1.2840   34.6000   20.1570 C   0  0  0  0  0  0
    1.4080   35.5920   20.8890 O   0  0  0  0  0  0
    2.2190   33.6340   20.2180 N   0  0  0  0  0  0
    2.0620   32.3180   19.5260 C   0  0  0  0  0  0
    3.4080   33.9200   21.0250 C   0  0  1  0  0  0
    3.3850   32.9630   22.2600 C   0  0  0  0  0  0
    4.5190   33.3710   23.1960 C   0  0  0  0  0  0
    2.0770   33.0830   23.0770 C   0  0  0  0  0  0
    4.7060   33.8020   20.1950 C   0  0  0  0  0  0
    5.3570   32.7320   20.1980 O   0  0  0  0  0  0
    5.0101   36.8614   18.8614 H   0  0  0  0  0  0
    4.8084   36.5191   20.6132 H   0  0  0  0  0  0
    3.4749   36.1520   19.4670 H   0  0  0  0  0  0
    6.5143   33.5149   18.9191 H   0  0  0  0  0  0
    7.2302   34.7770   16.5286 H   0  0  0  0  0  0
    4.5868   33.8372   14.2079 H   0  0  0  0  0  0
    5.2633   35.4391   14.6581 H   0  0  0  0  0  0
    6.6473   32.2618   16.2818 H   0  0  0  0  0  0
    4.9647   31.8714   15.7887 H   0  0  0  0  0  0
    5.3445   32.1855   17.5161 H   0  0  0  0  0  0
    3.4805   35.1315   16.4563 H   0  0  0  0  0  0
    3.6081   33.7617   17.6113 H   0  0  0  0  0  0
    3.2283   33.4477   15.8839 H   0  0  0  0  0  0
    6.9254   32.9405   14.1079 H   0  0  0  0  0  0
    7.2343   35.8974   13.2796 H   0  0  0  0  0  0
    9.2827   35.0994   12.1767 H   0  0  0  0  0  0
    8.4755   33.5114   11.9456 H   0  0  0  0  0  0
    9.4091   33.8345   13.4458 H   0  0  0  0  0  0
    6.5905   37.0191   17.5070 H   0  0  0  0  0  0
    8.8490   34.2474   17.9232 H   0  0  0  0  0  0
    9.7431   36.3215   19.9938 H   0  0  0  0  0  0
   11.3597   34.0212   18.7147 H   0  0  0  0  0  0
   11.9267   35.1059   20.0295 H   0  0  0  0  0  0
   11.2075   32.9136   20.9211 H   0  0  0  0  0  0
    9.5772   33.1475   20.2041 H   0  0  0  0  0  0
   10.1441   34.2322   21.5190 H   0  0  0  0  0  0
   11.6229   39.3896   17.2326 H   0  0  0  0  0  0
   11.5095   37.9572   16.1547 H   0  0  0  0  0  0
    8.9642   37.8242   19.5140 H   0  0  0  0  0  0
    8.4676   38.8134   18.0992 H   0  0  0  0  0  0
    9.7404   39.4162   19.2143 H   0  0  0  0  0  0
   10.1461   36.9261   15.5553 H   0  0  0  0  0  0
    9.4894   37.0453   13.8876 H   0  0  0  0  0  0
    8.3910   36.6814   15.2615 H   0  0  0  0  0  0
    8.1940   40.4360   14.4458 H   0  0  0  0  0  0
    8.3213   37.9014   12.8713 H   0  0  0  0  0  0
    6.7312   38.7273   12.7456 H   0  0  0  0  0  0
    8.0307   39.1258   10.8566 H   0  0  0  0  0  0
    6.5813   40.9755   11.7005 H   0  0  0  0  0  0
    8.0484   41.6210   10.8896 H   0  0  0  0  0  0
    7.9494   41.5996   12.6830 H   0  0  0  0  0  0
   10.2650   38.7695   11.8777 H   0  0  0  0  0  0
   10.0939   40.3097   12.7861 H   0  0  0  0  0  0
   10.1930   40.3311   10.9927 H   0  0  0  0  0  0
    6.6121   40.8195   16.3293 H   0  0  0  0  0  0
    5.0589   38.3838   16.9983 H   0  0  0  0  0  0
    3.8099   39.9690   18.7030 H   0  0  0  0  0  0
    5.9502   38.7018   19.1889 H   0  0  0  0  0  0
    5.8575   40.2584   20.0807 H   0  0  0  0  0  0
    6.8812   40.1250   18.6107 H   0  0  0  0  0  0
    3.9385   42.0563   17.4837 H   0  0  0  0  0  0
    5.7285   42.0512   17.6332 H   0  0  0  0  0  0
    4.7048   42.1845   19.1032 H   0  0  0  0  0  0
    3.7276   37.4554   17.3673 H   0  0  0  0  0  0
    2.7188   36.5866   16.1613 H   0  0  0  0  0  0
    1.9369   37.4836   17.5069 H   0  0  0  0  0  0
    1.8524   39.7498   14.4421 H   0  0  0  0  0  0
    1.3966   36.7768   15.0375 H   0  0  0  0  0  0
    0.1680   37.6518   14.0621 H   0  0  0  0  0  0
    1.8561   36.1641   12.9233 H   0  0  0  0  0  0
    0.2513   37.9027   11.9760 H   0  0  0  0  0  0
    1.7751   37.8103   11.0293 H   0  0  0  0  0  0
    1.5254   39.1488   12.2009 H   0  0  0  0  0  0
    3.9283   36.8837   13.9238 H   0  0  0  0  0  0
    3.6675   38.5592   13.3310 H   0  0  0  0  0  0
    3.9172   37.2207   12.1594 H   0  0  0  0  0  0
   -0.3679   40.3242   14.1312 H   0  0  0  0  0  0
   -1.5133   41.1207   16.6497 H   0  0  0  0  0  0
   -2.0576   42.1629   14.4249 H   0  0  0  0  0  0
   -3.5683   41.6642   15.2591 H   0  0  0  0  0  0
   -2.9036   40.6585   13.9274 H   0  0  0  0  0  0
   -3.6451   40.5778   17.6257 H   0  0  0  0  0  0
   -4.5596   37.7887   16.8920 H   0  0  0  0  0  0
   -6.3024   39.5382   17.2772 H   0  0  0  0  0  0
   -5.6660   39.8277   18.9319 H   0  0  0  0  0  0
   -6.4436   38.2589   18.5303 H   0  0  0  0  0  0
   -4.8248   36.0041   17.3716 H   0  0  0  0  0  0
   -5.1891   34.9620   18.7887 H   0  0  0  0  0  0
   -3.6107   34.8106   17.9446 H   0  0  0  0  0  0
   -2.7124   36.9780   20.8730 H   0  0  0  0  0  0
   -4.7464   34.6736   20.8353 H   0  0  0  0  0  0
   -3.8468   35.2536   22.2779 H   0  0  0  0  0  0
   -5.9133   36.8858   20.7855 H   0  0  0  0  0  0
   -6.8130   34.7959   21.6886 H   0  0  0  0  0  0
   -7.3729   36.2407   22.5972 H   0  0  0  0  0  0
   -6.0925   35.1864   23.2870 H   0  0  0  0  0  0
   -4.1986   38.1673   21.9888 H   0  0  0  0  0  0
   -4.5283   37.2056   23.4697 H   0  0  0  0  0  0
   -5.8086   38.2599   22.7800 H   0  0  0  0  0  0
   -1.4750   37.5740   19.5292 H   0  0  0  0  0  0
   -0.4226   37.0328   18.1778 H   0  0  0  0  0  0
    0.2637   37.2339   19.8256 H   0  0  0  0  0  0
   -0.3981   33.5057   19.5083 H   0  0  0  0  0  0
    0.7589   35.6256   17.5806 H   0  0  0  0  0  0
    1.1740   33.8787   17.5287 H   0  0  0  0  0  0
   -1.4780   35.1743   16.8388 H   0  0  0  0  0  0
    0.3927   35.3305   15.1914 H   0  0  0  0  0  0
   -0.9063   34.2303   14.6180 H   0  0  0  0  0  0
    0.6138   33.5507   15.2919 H   0  0  0  0  0  0
   -1.8807   33.0337   18.0032 H   0  0  0  0  0  0
   -0.7039   32.2170   16.9193 H   0  0  0  0  0  0
   -2.2240   32.8966   16.2454 H   0  0  0  0  0  0
    1.1087   32.3037   18.9774 H   0  0  0  0  0  0
    2.0685   31.5089   20.2711 H   0  0  0  0  0  0
    2.8933   32.1733   18.8204 H   0  0  0  0  0  0
    3.3415   34.9730   21.3360 H   0  0  0  0  0  0
    3.4901   31.9291   21.8994 H   0  0  0  0  0  0
    5.4780   33.3031   22.6615 H   0  0  0  0  0  0
    4.5359   32.6986   24.0664 H   0  0  0  0  0  0
    4.3605   34.4054   23.5348 H   0  0  0  0  0  0
    1.2227   32.7985   22.4452 H   0  0  0  0  0  0
    1.9514   34.1214   23.4176 H   0  0  0  0  0  0
    2.1268   32.4145   23.9491 H   0  0  0  0  0  0
  1  2  1  0  0  0
  1  3  1  0  0  0
  1 85  1  0  0  0
  2 87  1  0  0  0
  2 88  1  0  0  0
  2 89  1  0  0  0
  3  4  1  0  0  0
  3  5  1  0  0  0
  3 90  1  0  0  0
  4 13  2  0  0  0
  4 15  1  0  0  0
  5  6  1  0  0  0
  5 14  1  0  0  0
  5 91  1  0  0  0
  6  7  1  0  0  0
  6  8  1  0  0  0
  6  9  1  0  0  0
  7 10  1  0  0  0
  7 92  1  0  0  0
  7 93  1  0  0  0
  8 94  1  0  0  0
  8 95  1  0  0  0
  8 96  1  0  0  0
  9 97  1  0  0  0
  9 98  1  0  0  0
  9 99  1  0  0  0
 10 11  2  0  0  0
 10100  1  0  0  0
 11 12  1  0  0  0
 11101  1  0  0  0
 12102  1  0  0  0
 12103  1  0  0  0
 12104  1  0  0  0
 14105  1  0  0  0
 15 16  1  0  0  0
 15106  1  0  0  0
 16 17  1  0  0  0
 16 19  1  0  0  0
 16107  1  0  0  0
 17 18  2  0  0  0
 17 21  1  0  0  0
 19 20  1  0  0  0
 19108  1  0  0  0
 19109  1  0  0  0
 20110  1  0  0  0
 20111  1  0  0  0
 20112  1  0  0  0
 21 22  1  0  0  0
 21 25  1  0  0  0
 22 23  1  0  0  0
 22113  1  0  0  0
 22114  1  0  0  0
 23 24  2  0  0  0
 23 26  1  0  0  0
 25115  1  0  0  0
 25116  1  0  0  0
 25117  1  0  0  0
 26 27  1  0  0  0
 26 28  1  0  0  0
 27118  1  0  0  0
 27119  1  0  0  0
 27120  1  0  0  0
 28 29  1  0  0  0
 28 33  1  0  0  0
 28121  1  0  0  0
 29 30  1  0  0  0
 29122  1  0  0  0
 29123  1  0  0  0
 30 31  1  0  0  0
 30 32  1  0  0  0
 30124  1  0  0  0
 31125  1  0  0  0
 31126  1  0  0  0
 31127  1  0  0  0
 32128  1  0  0  0
 32129  1  0  0  0
 32130  1  0  0  0
 33 34  2  0  0  0
 33 35  1  0  0  0
 35 36  1  0  0  0
 35131  1  0  0  0
 36 37  1  0  0  0
 36 39  1  0  0  0
 36132  1  0  0  0
 37 38  2  0  0  0
 37 42  1  0  0  0
 39 40  1  0  0  0
 39 41  1  0  0  0
 39133  1  0  0  0
 40134  1  0  0  0
 40135  1  0  0  0
 40136  1  0  0  0
 41137  1  0  0  0
 41138  1  0  0  0
 41139  1  0  0  0
 42 43  1  0  0  0
 42 44  1  0  0  0
 43140  1  0  0  0
 43141  1  0  0  0
 43142  1  0  0  0
 44 45  1  0  0  0
 44 49  1  0  0  0
 44143  1  0  0  0
 45 46  1  0  0  0
 45144  1  0  0  0
 45145  1  0  0  0
 46 47  1  0  0  0
 46 48  1  0  0  0
 46146  1  0  0  0
 47147  1  0  0  0
 47148  1  0  0  0
 47149  1  0  0  0
 48150  1  0  0  0
 48151  1  0  0  0
 48152  1  0  0  0
 49 50  2  0  0  0
 49 51  1  0  0  0
 51 52  1  0  0  0
 51153  1  0  0  0
 52 53  1  0  0  0
 52 55  1  0  0  0
 52154  1  0  0  0
 53 54  2  0  0  0
 53 56  1  0  0  0
 55155  1  0  0  0
 55156  1  0  0  0
 55157  1  0  0  0
 56 57  1  0  0  0
 56158  1  0  0  0
 57 58  1  0  0  0
 57 59  1  0  0  0
 57159  1  0  0  0
 58160  1  0  0  0
 58161  1  0  0  0
 58162  1  0  0  0
 59 60  2  0  0  0
 59 61  1  0  0  0
 61 62  1  0  0  0
 61 63  1  0  0  0
 62163  1  0  0  0
 62164  1  0  0  0
 62165  1  0  0  0
 63 64  1  0  0  0
 63 68  1  0  0  0
 63166  1  0  0  0
 64 65  1  0  0  0
 64167  1  0  0  0
 64168  1  0  0  0
 65 66  1  0  0  0
 65 67  1  0  0  0
 65169  1  0  0  0
 66170  1  0  0  0
 66171  1  0  0  0
 66172  1  0  0  0
 67173  1  0  0  0
 67174  1  0  0  0
 67175  1  0  0  0
 68 69  2  0  0  0
 68 70  1  0  0  0
 70 71  1  0  0  0
 70 72  1  0  0  0
 71176  1  0  0  0
 71177  1  0  0  0
 71178  1  0  0  0
 72 73  1  0  0  0
 72 77  1  0  0  0
 72179  1  0  0  0
 73 74  1  0  0  0
 73180  1  0  0  0
 73181  1  0  0  0
 74 75  1  0  0  0
 74 76  1  0  0  0
 74182  1  0  0  0
 75183  1  0  0  0
 75184  1  0  0  0
 75185  1  0  0  0
 76186  1  0  0  0
 76187  1  0  0  0
 76188  1  0  0  0
 77 78  2  0  0  0
 77 79  1  0  0  0
 79 80  1  0  0  0
 79 81  1  0  0  0
 80189  1  0  0  0
 80190  1  0  0  0
 80191  1  0  0  0
 81 82  1  0  0  0
 81 85  1  0  0  0
 81192  1  0  0  0
 82 83  1  0  0  0
 82 84  1  0  0  0
 82193  1  0  0  0
 83194  1  0  0  0
 83195  1  0  0  0
 83196  1  0  0  0
 84197  1  0  0  0
 84198  1  0  0  0
 84199  1  0  0  0
 85 86  2  0  0  0
M  END
> <s_m_source_file>
../1cwb_ligand.sdf

> <i_m_source_file_index>
1

> <s_epik_input>
W0NIM11cW0NIXT1bQ0hdXFtDSDJdQyhbQ0gzXSkoW0NIM10pW0NAQEhdKFtPSF0pW0NASF0oTjFbQ0gzXSlDKD1PKVtOSF1bQ0BASF0oW0NIMl1bQ0gzXSlDKD1PKU4oW0NIM10pW0NIMl1DKD1PKU4oW0NIM10pW0NAQEhdKFtDSDJdW0NIXShbQ0gzXSlbQ0gzXSlDKD1PKVtOSF1bQ0BASF0oW0NIXShbQ0gzXSlbQ0gzXSlDKD1PKU4oW0NIM10pW0NAQEhdKFtDSDJdW0NIXShbQ0gzXSlbQ0gzXSlDKD1PKVtOSF1bQ0BASF0oW0NIM10pQyg9TylbTkhdW0NASF0oW0NIM10pQyg9TylOKFtDSDNdKVtDQEBIXShbQ0gyXVtDSF0oW0NIM10pW0NIM10pQyg9TylOKFtDSDNdKVtDQEBIXShbQ0gyXVtDSF0oW0NIM10pW0NIM10pQyg9TylOKFtDSDNdKVtDQEhdKEMxPU8pW0NIXShbQ0gzXSlbQ0gzXQ==

> <s_epik_cmdline>
J2VwaWtfYXBwJywgJy1pbWFlJywgJ2xpZ2FuZF9wcm8ubWFlJywgJy1vbWFlJywgJ2xpZ2FuZF9wcmVwLm1hZScsICctbXMnLCAnMScsICctcGgnLCAnNycsICctcGh0JywgJzAuNScsICctbnQn

> <s_epik_pKa_notes>
Molecule size exceeds maximum supported for generating protonation states

$$$$
