1cwc_ligand
                    3D
 Schrodinger Suite 2020-3.
199199  0  0  1  0            999 V2000
    5.2670   34.7040   19.6810 N   0  0  0  0  0  0
    4.7230   36.1080   19.8190 C   0  0  0  0  0  0
    6.4960   34.5850   18.8850 C   0  0  2  0  0  0
    7.7150   35.3530   19.4260 C   0  0  0  0  0  0
    7.6270   36.1130   20.3850 O   0  0  0  0  0  0
    6.2860   34.9240   17.3710 C   0  0  2  0  0  0
    6.1070   36.3370   17.2240 O   0  0  0  0  0  0
    5.0930   34.1840   16.7320 C   0  0  2  0  0  0
    5.1900   32.6520   16.9660 C   0  0  0  0  0  0
    5.0360   34.5000   15.2230 C   0  0  0  0  0  0
    6.1820   34.0290   14.3330 C   0  0  0  0  0  0
    6.9280   34.8590   13.6080 C   0  0  0  0  0  0
    8.0280   34.3470   12.7230 C   0  0  0  0  0  0
    8.8720   35.1010   18.8290 N   0  0  0  0  0  0
   10.1120   35.7390   19.2760 C   0  0  2  0  0  0
   10.7430   36.5330   18.1280 C   0  0  0  0  0  0
   11.5070   35.9620   17.3510 O   0  0  0  0  0  0
   11.0980   34.6570   19.7400 C   0  0  0  0  0  0
   10.5180   33.6840   20.7580 C   0  0  0  0  0  0
   10.4750   37.8380   18.0440 N   0  0  0  0  0  0
   11.0400   38.6200   16.9570 C   0  0  0  0  0  0
    9.9790   39.4110   16.2200 C   0  0  0  0  0  0
   10.0760   40.6360   16.1700 O   0  0  0  0  0  0
    9.5030   38.6330   18.8790 C   0  0  0  0  0  0
    9.1540   38.7280   15.4240 N   0  0  0  0  0  0
    8.0780   39.4080   14.7090 C   0  0  2  0  0  0
    6.7320   39.0430   15.3470 C   0  0  0  0  0  0
    6.1760   37.9820   15.0630 O   0  0  0  0  0  0
    8.0820   39.0140   13.2360 C   0  0  0  0  0  0
    8.6160   40.0660   12.2740 C   0  0  1  0  0  0
    8.3600   39.5320   10.8510 C   0  0  0  0  0  0
    7.5670   40.4830    9.9520 C   0  0  0  0  0  0
    9.2680   37.2680   15.0670 C   0  0  0  0  0  0
    7.9110   41.4150   12.4990 C   0  0  0  0  0  0
    6.2950   39.8330   16.3240 N   0  0  0  0  0  0
    5.0280   39.5440   17.0010 C   0  0  2  0  0  0
    3.8670   39.7840   16.0500 C   0  0  0  0  0  0
    3.7990   40.8350   15.4230 O   0  0  0  0  0  0
    4.8450   40.4070   18.2530 C   0  0  0  0  0  0
    3.5120   40.0690   18.9200 C   0  0  0  0  0  0
    5.9830   40.1690   19.2140 C   0  0  0  0  0  0
    3.0020   38.7930   15.8610 N   0  0  0  0  0  0
    2.9030   37.4760   16.5830 C   0  0  0  0  0  0
    1.9050   39.0090   14.9280 C   0  0  1  0  0  0
    1.7640   37.8360   13.9370 C   0  0  0  0  0  0
    3.0140   37.3640   13.1710 C   0  0  0  0  0  0
    2.6680   36.1710   12.3100 C   0  0  0  0  0  0
    3.6330   38.4910   12.3480 C   0  0  0  0  0  0
    0.5730   39.2960   15.6000 C   0  0  0  0  0  0
    0.5210   39.6050   16.8000 O   0  0  0  0  0  0
   -0.3500   39.6810   14.7330 N   0  0  0  0  0  0
   -1.7090   39.9790   15.1420 C   0  0  2  0  0  0
   -2.3320   38.7380   15.7950 C   0  0  0  0  0  0
   -2.1020   37.6020   15.3400 O   0  0  0  0  0  0
   -2.5400   40.3830   13.9040 C   0  0  0  0  0  0
   -3.3680   38.9980   16.5870 N   0  0  0  0  0  0
   -4.1100   37.9380   17.2590 C   0  0  2  0  0  0
   -5.5750   38.3830   17.4940 C   0  0  0  0  0  0
   -3.4540   37.5990   18.5790 C   0  0  0  0  0  0
   -3.1060   38.5120   19.3410 O   0  0  0  0  0  0
   -3.5200   36.3190   18.9480 N   0  0  0  0  0  0
   -3.9270   35.1520   18.0640 C   0  0  0  0  0  0
   -2.9350   35.8980   20.2130 C   0  0  1  0  0  0
   -4.0120   35.3330   21.1320 C   0  0  0  0  0  0
   -5.1470   36.2680   21.5110 C   0  0  0  0  0  0
   -6.1850   35.4660   22.2290 C   0  0  0  0  0  0
   -4.6550   37.4080   22.3740 C   0  0  0  0  0  0
   -1.8330   34.8700   20.0100 C   0  0  0  0  0  0
   -2.0090   33.6890   20.3150 O   0  0  0  0  0  0
   -0.6840   35.3080   19.5180 N   0  0  0  0  0  0
   -0.3460   36.7310   19.1290 C   0  0  0  0  0  0
    0.3940   34.3520   19.3110 C   0  0  1  0  0  0
    0.8770   34.3900   17.8490 C   0  0  0  0  0  0
   -0.1190   34.0090   16.7350 C   0  0  0  0  0  0
    0.6450   34.0150   15.4160 C   0  0  0  0  0  0
   -0.7500   32.6390   16.9530 C   0  0  0  0  0  0
    1.5460   34.6210   20.2610 C   0  0  0  0  0  0
    1.4750   35.5710   21.0530 O   0  0  0  0  0  0
    2.4360   33.6370   20.4120 N   0  0  0  0  0  0
    2.3430   32.2430   19.8740 C   0  0  0  0  0  0
    3.5990   33.8610   21.2760 C   0  0  1  0  0  0
    3.5700   32.9480   22.5420 C   0  0  0  0  0  0
    4.6270   33.4130   23.5410 C   0  0  0  0  0  0
    2.1600   32.9990   23.2260 C   0  0  0  0  0  0
    4.9060   33.6980   20.4830 C   0  0  0  0  0  0
    5.5080   32.6180   20.4890 O   0  0  0  0  0  0
    5.1697   36.7518   19.0470 H   0  0  0  0  0  0
    4.9735   36.5020   20.8150 H   0  0  0  0  0  0
    3.6301   36.0915   19.6954 H   0  0  0  0  0  0
    6.6884   33.5131   19.0398 H   0  0  0  0  0  0
    7.1917   34.6637   16.8036 H   0  0  0  0  0  0
    6.8622   37.0313   17.6209 H   0  0  0  0  0  0
    4.1683   34.5410   17.2090 H   0  0  0  0  0  0
    5.2295   32.4479   18.0462 H   0  0  0  0  0  0
    6.1009   32.2647   16.4861 H   0  0  0  0  0  0
    4.3083   32.1582   16.5315 H   0  0  0  0  0  0
    4.1366   34.0415   14.7861 H   0  0  0  0  0  0
    4.9994   35.5897   15.0777 H   0  0  0  0  0  0
    6.3798   32.9472   14.3076 H   0  0  0  0  0  0
    6.7442   35.9427   13.6500 H   0  0  0  0  0  0
    8.5155   35.1934   12.2170 H   0  0  0  0  0  0
    7.6058   33.6641   11.9711 H   0  0  0  0  0  0
    8.7684   33.8085   13.3327 H   0  0  0  0  0  0
    8.8891   34.3979   17.9832 H   0  0  0  0  0  0
    9.8373   36.4138   20.1001 H   0  0  0  0  0  0
   11.4249   34.0631   18.8738 H   0  0  0  0  0  0
   11.9717   35.1336   20.2085 H   0  0  0  0  0  0
   11.2839   32.9453   21.0368 H   0  0  0  0  0  0
    9.6523   33.1667   20.3188 H   0  0  0  0  0  0
   10.1990   34.2373   21.6536 H   0  0  0  0  0  0
   11.7795   39.3276   17.3602 H   0  0  0  0  0  0
   11.5303   37.9475   16.2377 H   0  0  0  0  0  0
    9.1061   37.9974   19.6843 H   0  0  0  0  0  0
    8.6745   38.9815   18.2449 H   0  0  0  0  0  0
   10.0194   39.4999   19.3169 H   0  0  0  0  0  0
    8.2773   40.4861   14.7989 H   0  0  0  0  0  0
    8.7097   38.1214   13.0969 H   0  0  0  0  0  0
    7.0540   38.7933   12.9126 H   0  0  0  0  0  0
    9.6895   40.2362   12.4435 H   0  0  0  0  0  0
    9.3218   39.3452   10.3509 H   0  0  0  0  0  0
    7.7885   38.5939   10.9087 H   0  0  0  0  0  0
    7.4317   40.0239    8.9616 H   0  0  0  0  0  0
    8.1163   41.4300    9.8452 H   0  0  0  0  0  0
    6.5830   40.6787   10.4030 H   0  0  0  0  0  0
   10.0929   36.8147   15.6363 H   0  0  0  0  0  0
    9.4677   37.1684   13.9899 H   0  0  0  0  0  0
    8.3266   36.7555   15.3143 H   0  0  0  0  0  0
    8.1128   41.7682   13.5210 H   0  0  0  0  0  0
    6.8268   41.2895   12.3617 H   0  0  0  0  0  0
    8.2894   42.1517   11.7751 H   0  0  0  0  0  0
    6.8912   40.7078   16.6228 H   0  0  0  0  0  0
    5.0867   38.4836   17.2874 H   0  0  0  0  0  0
    4.8539   41.4712   17.9749 H   0  0  0  0  0  0
    2.6911   40.2466   18.2096 H   0  0  0  0  0  0
    3.3739   40.7054   19.8065 H   0  0  0  0  0  0
    3.5117   39.0118   19.2238 H   0  0  0  0  0  0
    6.9356   40.4157   18.7225 H   0  0  0  0  0  0
    5.9905   39.1121   19.5188 H   0  0  0  0  0  0
    5.8527   40.8057   20.1015 H   0  0  0  0  0  0
    3.7551   37.3698   17.2705 H   0  0  0  0  0  0
    2.9177   36.6548   15.8513 H   0  0  0  0  0  0
    1.9639   37.4410   17.1547 H   0  0  0  0  0  0
    2.2192   39.9299   14.4149 H   0  0  0  0  0  0
    1.4109   36.9431   14.4736 H   0  0  0  0  0  0
    1.0398   38.1031   13.1533 H   0  0  0  0  0  0
    3.7812   37.0452   13.8919 H   0  0  0  0  0  0
    2.2258   35.3825   12.9367 H   0  0  0  0  0  0
    3.5806   35.7888   11.8293 H   0  0  0  0  0  0
    1.9458   36.4735   11.5374 H   0  0  0  0  0  0
    3.8704   39.3388   13.0074 H   0  0  0  0  0  0
    2.9199   38.8155   11.5759 H   0  0  0  0  0  0
    4.5547   38.1307   11.8677 H   0  0  0  0  0  0
   -0.0613   39.7725   13.6755 H   0  0  0  0  0  0
   -1.6399   40.8049   15.8653 H   0  0  0  0  0  0
   -2.0927   41.2726   13.4366 H   0  0  0  0  0  0
   -3.5711   40.6102   14.2127 H   0  0  0  0  0  0
   -2.5479   39.5538   13.1812 H   0  0  0  0  0  0
   -3.6605   40.0489   16.7284 H   0  0  0  0  0  0
   -4.0597   37.0620   16.5956 H   0  0  0  0  0  0
   -6.0433   38.6272   16.5291 H   0  0  0  0  0  0
   -5.5888   39.2707   18.1434 H   0  0  0  0  0  0
   -6.1331   37.5670   17.9764 H   0  0  0  0  0  0
   -4.3600   35.5346   17.1280 H   0  0  0  0  0  0
   -4.6732   34.5373   18.5888 H   0  0  0  0  0  0
   -3.0425   34.5393   17.8354 H   0  0  0  0  0  0
   -2.4982   36.8122   20.6412 H   0  0  0  0  0  0
   -4.4882   34.4667   20.6495 H   0  0  0  0  0  0
   -3.5553   35.0184   22.0820 H   0  0  0  0  0  0
   -5.5891   36.7161   20.6089 H   0  0  0  0  0  0
   -6.5262   34.6446   21.5818 H   0  0  0  0  0  0
   -7.0383   36.1127   22.4814 H   0  0  0  0  0  0
   -5.7540   35.0508   23.1519 H   0  0  0  0  0  0
   -3.8939   37.9816   21.8247 H   0  0  0  0  0  0
   -4.2144   37.0049   23.2978 H   0  0  0  0  0  0
   -5.4987   38.0668   22.6272 H   0  0  0  0  0  0
   -1.2144   37.3791   19.3187 H   0  0  0  0  0  0
   -0.0877   36.7675   18.0604 H   0  0  0  0  0  0
    0.5097   37.0807   19.7252 H   0  0  0  0  0  0
   -0.0394   33.3692   19.5483 H   0  0  0  0  0  0
    1.2034   35.4098   17.5971 H   0  0  0  0  0  0
    1.7192   33.6938   17.7228 H   0  0  0  0  0  0
   -0.9486   34.7313   16.7254 H   0  0  0  0  0  0
    1.0998   35.0044   15.2602 H   0  0  0  0  0  0
   -0.0476   33.7956   14.5901 H   0  0  0  0  0  0
    1.4342   33.2493   15.4459 H   0  0  0  0  0  0
   -1.3009   32.6364   17.9051 H   0  0  0  0  0  0
    0.0386   31.8728   16.9835 H   0  0  0  0  0  0
   -1.4432   32.4191   16.1277 H   0  0  0  0  0  0
    1.4495   32.1541   19.2386 H   0  0  0  0  0  0
    2.2708   31.5315   20.7098 H   0  0  0  0  0  0
    3.2403   32.0192   19.2784 H   0  0  0  0  0  0
    3.5061   34.9106   21.5917 H   0  0  0  0  0  0
    3.8039   31.9162   22.2409 H   0  0  0  0  0  0
    5.6192   33.3796   23.0672 H   0  0  0  0  0  0
    4.6177   32.7510   24.4194 H   0  0  0  0  0  0
    4.4056   34.4434   23.8560 H   0  0  0  0  0  0
    1.3935   32.6650   22.5112 H   0  0  0  0  0  0
    1.9427   34.0301   23.5416 H   0  0  0  0  0  0
    2.1548   32.3377   24.1050 H   0  0  0  0  0  0
  1  2  1  0  0  0
  1  3  1  0  0  0
  1 85  1  0  0  0
  2 87  1  0  0  0
  2 88  1  0  0  0
  2 89  1  0  0  0
  3  4  1  0  0  0
  3  6  1  0  0  0
  3 90  1  0  0  0
  4  5  2  0  0  0
  4 14  1  0  0  0
  6  7  1  0  0  0
  6  8  1  0  0  0
  6 91  1  0  0  0
  7 92  1  0  0  0
  8  9  1  0  0  0
  8 10  1  0  0  0
  8 93  1  0  0  0
  9 94  1  0  0  0
  9 95  1  0  0  0
  9 96  1  0  0  0
 10 11  1  0  0  0
 10 97  1  0  0  0
 10 98  1  0  0  0
 11 12  2  0  0  0
 11 99  1  0  0  0
 12 13  1  0  0  0
 12100  1  0  0  0
 13101  1  0  0  0
 13102  1  0  0  0
 13103  1  0  0  0
 14 15  1  0  0  0
 14104  1  0  0  0
 15 16  1  0  0  0
 15 18  1  0  0  0
 15105  1  0  0  0
 16 17  2  0  0  0
 16 20  1  0  0  0
 18 19  1  0  0  0
 18106  1  0  0  0
 18107  1  0  0  0
 19108  1  0  0  0
 19109  1  0  0  0
 19110  1  0  0  0
 20 21  1  0  0  0
 20 24  1  0  0  0
 21 22  1  0  0  0
 21111  1  0  0  0
 21112  1  0  0  0
 22 23  2  0  0  0
 22 25  1  0  0  0
 24113  1  0  0  0
 24114  1  0  0  0
 24115  1  0  0  0
 25 26  1  0  0  0
 25 33  1  0  0  0
 26 27  1  0  0  0
 26 29  1  0  0  0
 26116  1  0  0  0
 27 28  2  0  0  0
 27 35  1  0  0  0
 29 30  1  0  0  0
 29117  1  0  0  0
 29118  1  0  0  0
 30 31  1  0  0  0
 30 34  1  0  0  0
 30119  1  0  0  0
 31 32  1  0  0  0
 31120  1  0  0  0
 31121  1  0  0  0
 32122  1  0  0  0
 32123  1  0  0  0
 32124  1  0  0  0
 33125  1  0  0  0
 33126  1  0  0  0
 33127  1  0  0  0
 34128  1  0  0  0
 34129  1  0  0  0
 34130  1  0  0  0
 35 36  1  0  0  0
 35131  1  0  0  0
 36 37  1  0  0  0
 36 39  1  0  0  0
 36132  1  0  0  0
 37 38  2  0  0  0
 37 42  1  0  0  0
 39 40  1  0  0  0
 39 41  1  0  0  0
 39133  1  0  0  0
 40134  1  0  0  0
 40135  1  0  0  0
 40136  1  0  0  0
 41137  1  0  0  0
 41138  1  0  0  0
 41139  1  0  0  0
 42 43  1  0  0  0
 42 44  1  0  0  0
 43140  1  0  0  0
 43141  1  0  0  0
 43142  1  0  0  0
 44 45  1  0  0  0
 44 49  1  0  0  0
 44143  1  0  0  0
 45 46  1  0  0  0
 45144  1  0  0  0
 45145  1  0  0  0
 46 47  1  0  0  0
 46 48  1  0  0  0
 46146  1  0  0  0
 47147  1  0  0  0
 47148  1  0  0  0
 47149  1  0  0  0
 48150  1  0  0  0
 48151  1  0  0  0
 48152  1  0  0  0
 49 50  2  0  0  0
 49 51  1  0  0  0
 51 52  1  0  0  0
 51153  1  0  0  0
 52 53  1  0  0  0
 52 55  1  0  0  0
 52154  1  0  0  0
 53 54  2  0  0  0
 53 56  1  0  0  0
 55155  1  0  0  0
 55156  1  0  0  0
 55157  1  0  0  0
 56 57  1  0  0  0
 56158  1  0  0  0
 57 58  1  0  0  0
 57 59  1  0  0  0
 57159  1  0  0  0
 58160  1  0  0  0
 58161  1  0  0  0
 58162  1  0  0  0
 59 60  2  0  0  0
 59 61  1  0  0  0
 61 62  1  0  0  0
 61 63  1  0  0  0
 62163  1  0  0  0
 62164  1  0  0  0
 62165  1  0  0  0
 63 64  1  0  0  0
 63 68  1  0  0  0
 63166  1  0  0  0
 64 65  1  0  0  0
 64167  1  0  0  0
 64168  1  0  0  0
 65 66  1  0  0  0
 65 67  1  0  0  0
 65169  1  0  0  0
 66170  1  0  0  0
 66171  1  0  0  0
 66172  1  0  0  0
 67173  1  0  0  0
 67174  1  0  0  0
 67175  1  0  0  0
 68 69  2  0  0  0
 68 70  1  0  0  0
 70 71  1  0  0  0
 70 72  1  0  0  0
 71176  1  0  0  0
 71177  1  0  0  0
 71178  1  0  0  0
 72 73  1  0  0  0
 72 77  1  0  0  0
 72179  1  0  0  0
 73 74  1  0  0  0
 73180  1  0  0  0
 73181  1  0  0  0
 74 75  1  0  0  0
 74 76  1  0  0  0
 74182  1  0  0  0
 75183  1  0  0  0
 75184  1  0  0  0
 75185  1  0  0  0
 76186  1  0  0  0
 76187  1  0  0  0
 76188  1  0  0  0
 77 78  2  0  0  0
 77 79  1  0  0  0
 79 80  1  0  0  0
 79 81  1  0  0  0
 80189  1  0  0  0
 80190  1  0  0  0
 80191  1  0  0  0
 81 82  1  0  0  0
 81 85  1  0  0  0
 81192  1  0  0  0
 82 83  1  0  0  0
 82 84  1  0  0  0
 82193  1  0  0  0
 83194  1  0  0  0
 83195  1  0  0  0
 83196  1  0  0  0
 84197  1  0  0  0
 84198  1  0  0  0
 84199  1  0  0  0
 85 86  2  0  0  0
M  END
> <s_m_source_file>
../1cwc_ligand.sdf

> <i_m_source_file_index>
1

> <s_epik_input>
W0NIM11cW0NIXT1bQ0hdXFtDSDJdW0NAQEhdKFtDSDNdKVtDQEBIXShbT0hdKVtDQEhdKE4xW0NIM10pQyg9TylbTkhdW0NAQEhdKFtDSDJdW0NIM10pQyg9TylOKFtDSDNdKVtDSDJdQyg9TylOKFtDSDNdKVtDQEBIXShbQ0gyXVtDQEhdKFtDSDNdKVtDSDJdW0NIM10pQyg9TylbTkhdW0NAQEhdKFtDSF0oW0NIM10pW0NIM10pQyg9TylOKFtDSDNdKVtDQEBIXShbQ0gyXVtDSF0oW0NIM10pW0NIM10pQyg9TylbTkhdW0NAQEhdKFtDSDNdKUMoPU8pW05IXVtDQEhdKFtDSDNdKUMoPU8pTihbQ0gzXSlbQ0BASF0oW0NIMl1bQ0hdKFtDSDNdKVtDSDNdKUMoPU8pTihbQ0gzXSlbQ0BASF0oW0NIMl1bQ0hdKFtDSDNdKVtDSDNdKUMoPU8pTihbQ0gzXSlbQ0BIXShDMT1PKVtDSF0oW0NIM10pW0NIM10=

> <s_epik_cmdline>
J2VwaWtfYXBwJywgJy1pbWFlJywgJ2xpZ2FuZF9wcm8ubWFlJywgJy1vbWFlJywgJ2xpZ2FuZF9wcmVwLm1hZScsICctbXMnLCAnMScsICctcGgnLCAnNycsICctcGh0JywgJzAuNScsICctbnQn

> <s_epik_pKa_notes>
Molecule size exceeds maximum supported for generating protonation states

$$$$
