1cx9_ligand
                    3D
 Schrodinger Suite 2020-3.
 31 31  0  0  1  0            999 V2000
   49.2940   24.2980   15.4810 C   0  0  0  0  0  0
   49.6810   25.6430   15.5410 C   0  0  0  0  0  0
   51.0000   26.0310   15.1670 C   0  0  0  0  0  0
   51.9090   25.0420   14.7490 C   0  0  0  0  0  0
   51.5190   23.6980   14.6950 C   0  0  0  0  0  0
   50.2160   23.3310   15.0610 C   0  0  0  0  0  0
   51.4280   27.3930   15.2090 N   0  0  0  0  0  0
   48.5390   26.8890   16.0770 S   0  0  0  0  0  0
   47.6900   27.6830   14.7040 C   0  0  0  0  0  0
   48.6740   28.0430   13.5890 C   0  0  0  0  0  0
   47.9300   28.7080   12.4380 C   0  0  0  0  0  0
   48.8770   29.3840   11.4430 C   0  0  0  0  0  0
   48.2520   29.4710    9.8280 P   0  0  0  0  0  0
   49.0680   30.3190    8.9180 O   0  0  0  0  0  0
   46.8430   30.0480    9.7120 O   0  5  0  0  0  0
   48.1770   28.1410    9.0890 O   0  0  0  0  0  0
   48.2815   24.0058   15.7595 H   0  0  0  0  0  0
   52.9231   25.3235   14.4654 H   0  0  0  0  0  0
   52.2282   22.9373   14.3685 H   0  0  0  0  0  0
   49.9180   22.2834   15.0182 H   0  0  0  0  0  0
   50.7302   28.1790   15.5334 H   0  0  0  0  0  0
   52.4554   27.6559   14.9170 H   0  0  0  0  0  0
   46.9301   26.9991   14.2980 H   0  0  0  0  0  0
   47.2032   28.6040   15.0572 H   0  0  0  0  0  0
   49.4333   28.7364   13.9798 H   0  0  0  0  0  0
   49.1653   27.1289   13.2243 H   0  0  0  0  0  0
   47.3478   27.9512   11.8918 H   0  0  0  0  0  0
   47.2508   29.4764   12.8357 H   0  0  0  0  0  0
   49.0782   30.4146   11.7706 H   0  0  0  0  0  0
   49.8220   28.8229   11.3970 H   0  0  0  0  0  0
   49.0692   27.5018    9.0150 H   0  0  0  0  0  0
  1  2  2  0  0  0
  1  6  1  0  0  0
  1 17  1  0  0  0
  2  3  1  0  0  0
  2  8  1  0  0  0
  3  4  2  0  0  0
  3  7  1  0  0  0
  4  5  1  0  0  0
  4 18  1  0  0  0
  5  6  2  0  0  0
  5 19  1  0  0  0
  6 20  1  0  0  0
  7 21  1  0  0  0
  7 22  1  0  0  0
  8  9  1  0  0  0
  9 10  1  0  0  0
  9 23  1  0  0  0
  9 24  1  0  0  0
 10 11  1  0  0  0
 10 25  1  0  0  0
 10 26  1  0  0  0
 11 12  1  0  0  0
 11 27  1  0  0  0
 11 28  1  0  0  0
 12 13  1  0  0  0
 12 29  1  0  0  0
 12 30  1  0  0  0
 13 14  2  0  0  0
 13 15  1  0  0  0
 13 16  1  0  0  0
 16 31  1  0  0  0
M  CHG  1  15  -1
M  END
> <s_m_source_file>
../1cx9_ligand.sdf

> <i_m_source_file_index>
1

> <s_epik_input>
W05IMl1jMVtjSF1bY0hdW2NIXVtjSF1jMVNbQ0gyXVtDSDJdW0NIMl1bQ0gyXVAoPU8pKFtPSF0pW09IXQ==

> <s_epik_cmdline>
J2VwaWtfYXBwJywgJy1pbWFlJywgJ2xpZ2FuZF9wcm8ubWFlJywgJy1vbWFlJywgJ2xpZ2FuZF9wcmVwLm1hZScsICctbXMnLCAnMScsICctcGgnLCAnNycsICctcGh0JywgJzAuNScsICctbnQn

> <r_epik_Ionization_Penalty>
  0.0871

> <r_epik_Ionization_Penalty_Charging>
  0.0000

> <r_epik_Ionization_Penalty_Neutral>
  0.0870

> <r_epik_State_Penalty>
  0.0738

> <r_epik_Charging_Adjusted_Penalty>
0.0738544678431007

> <i_epik_Tot_Q>
-1

> <i_epik_Tot_abs_Q>
1

$$$$
