1cyn_ligand
                    3D
 Schrodinger Suite 2020-3.
196196  0  0  1  0            999 V2000
   17.7810   21.9410   36.8890 N   0  0  0  0  0  0
   17.9180   23.2950   37.5310 C   0  0  0  0  0  0
   18.3340   21.6680   35.5530 C   0  0  2  0  0  0
   19.8550   21.8280   35.4030 C   0  0  0  0  0  0
   20.6020   22.2520   36.3140 O   0  0  0  0  0  0
   17.6100   22.5300   34.4770 C   0  0  2  0  0  0
   18.0560   23.8860   34.6240 O   0  0  0  0  0  0
   16.0570   22.4840   34.6490 C   0  0  2  0  0  0
   15.5880   21.0390   34.5130 C   0  0  0  0  0  0
   15.3500   23.3780   33.6200 C   0  0  0  0  0  0
   15.5480   22.9180   32.1720 C   0  0  0  0  0  0
   15.7520   23.7650   31.1730 C   0  0  0  0  0  0
   15.9540   23.2840   29.7400 C   0  0  0  0  0  0
   20.3650   21.3770   34.2510 N   0  0  0  0  0  0
   21.8040   21.3180   34.0550 C   0  0  2  0  0  0
   22.1910   22.1510   32.8410 C   0  0  0  0  0  0
   22.2260   21.6350   31.7190 O   0  0  0  0  0  0
   22.2330   19.8590   33.8470 C   0  0  0  0  0  0
   21.8650   18.9070   35.0110 C   0  0  0  0  0  0
   22.4370   23.4550   32.9850 N   0  0  0  0  0  0
   22.7530   24.2310   31.7840 C   0  0  0  0  0  0
   21.8890   25.4770   31.7220 C   0  0  0  0  0  0
   22.4380   26.5820   31.8240 O   0  0  0  0  0  0
   22.5040   24.1330   34.3240 C   0  0  0  0  0  0
   20.5610   25.4020   31.5630 N   0  0  0  0  0  0
   19.8060   24.1180   31.4110 C   0  0  0  0  0  0
   19.8060   26.6410   31.6360 C   0  0  1  0  0  0
   18.8020   26.7980   30.4630 C   0  0  0  0  0  0
   19.2410   26.7740   29.0070 C   0  0  0  0  0  0
   18.1090   27.3330   28.2070 C   0  0  0  0  0  0
   20.4750   27.6040   28.7660 C   0  0  0  0  0  0
   19.0260   26.6620   32.9400 C   0  0  0  0  0  0
   17.9400   26.0870   33.0190 O   0  0  0  0  0  0
   19.5510   27.2830   33.9870 N   0  0  0  0  0  0
   18.8550   27.2650   35.2730 C   0  0  2  0  0  0
   17.6390   28.1970   35.1550 C   0  0  0  0  0  0
   17.8230   29.3330   34.6680 O   0  0  0  0  0  0
   19.8570   27.7120   36.3910 C   0  0  0  0  0  0
   19.2480   27.6570   37.7810 C   0  0  0  0  0  0
   20.9950   26.7130   36.4350 C   0  0  0  0  0  0
   16.4200   27.7640   35.5270 N   0  0  0  0  0  0
   16.0990   26.4210   36.1460 C   0  0  0  0  0  0
   15.3170   28.7060   35.3180 C   0  0  1  0  0  0
   14.1770   28.0320   34.4760 C   0  0  0  0  0  0
   14.5560   27.5070   33.0700 C   0  0  0  0  0  0
   13.3920   26.7640   32.4830 C   0  0  0  0  0  0
   14.9660   28.6610   32.1610 C   0  0  0  0  0  0
   14.7750   29.2460   36.6330 C   0  0  0  0  0  0
   15.3970   29.0760   37.6910 O   0  0  0  0  0  0
   13.6560   29.9590   36.6130 N   0  0  0  0  0  0
   13.1010   30.4870   37.8450 C   0  0  2  0  0  0
   12.2480   29.4460   38.5560 C   0  0  0  0  0  0
   11.8650   28.4130   37.9930 O   0  0  0  0  0  0
   12.2330   31.6860   37.5390 C   0  0  0  0  0  0
   11.9290   29.6810   39.8240 N   0  0  0  0  0  0
   11.0110   28.8140   40.5310 C   0  0  2  0  0  0
   10.2310   29.6540   41.5470 C   0  0  0  0  0  0
   11.8240   27.7370   41.2330 C   0  0  0  0  0  0
   12.8870   28.0900   41.7540 O   0  0  0  0  0  0
   11.4120   26.4490   41.2480 N   0  0  0  0  0  0
   10.1460   25.9790   40.5870 C   0  0  0  0  0  0
   12.1940   25.4390   41.9500 C   0  0  1  0  0  0
   11.4160   24.9440   43.1690 C   0  0  0  0  0  0
   11.1370   25.9780   44.2790 C   0  0  0  0  0  0
   10.1820   25.3880   45.3080 C   0  0  0  0  0  0
   12.4400   26.3920   44.9250 C   0  0  0  0  0  0
   12.4990   24.2780   41.0180 C   0  0  0  0  0  0
   11.9090   23.1940   41.1050 O   0  0  0  0  0  0
   13.4040   24.4830   40.0570 N   0  0  0  0  0  0
   14.1810   25.7700   39.8510 C   0  0  0  0  0  0
   13.6890   23.3650   39.1600 C   0  0  1  0  0  0
   13.5350   23.8540   37.6860 C   0  0  0  0  0  0
   12.1210   24.3150   37.2570 C   0  0  0  0  0  0
   12.1520   24.7230   35.8030 C   0  0  0  0  0  0
   11.1100   23.2080   37.4880 C   0  0  0  0  0  0
   15.0710   22.7590   39.4000 C   0  0  0  0  0  0
   15.8570   23.3220   40.1800 O   0  0  0  0  0  0
   15.4250   21.5970   38.8280 N   0  0  0  0  0  0
   14.4220   20.6910   38.1640 C   0  0  0  0  0  0
   16.8050   21.1250   39.0330 C   0  0  1  0  0  0
   16.8680   19.8150   39.8580 C   0  0  0  0  0  0
   18.3280   19.5720   40.2350 C   0  0  0  0  0  0
   16.0200   19.8890   41.1280 C   0  0  0  0  0  0
   17.4000   20.8750   37.6340 C   0  0  0  0  0  0
   17.4330   19.7040   37.1720 O   0  0  0  0  0  0
   18.2335   24.0290   36.7749 H   0  0  0  0  0  0
   18.6708   23.2467   38.3316 H   0  0  0  0  0  0
   16.9499   23.5990   37.9557 H   0  0  0  0  0  0
   18.1310   20.5908   35.4615 H   0  0  0  0  0  0
   17.8882   22.2046   33.4637 H   0  0  0  0  0  0
   19.1260   24.1257   34.5359 H   0  0  0  0  0  0
   15.7764   22.8598   35.6440 H   0  0  0  0  0  0
   16.1043   20.4144   35.2569 H   0  0  0  0  0  0
   15.8193   20.6721   33.5021 H   0  0  0  0  0  0
   14.5022   20.9885   34.6819 H   0  0  0  0  0  0
   14.2682   23.3816   33.8193 H   0  0  0  0  0  0
   15.7402   24.4037   33.6958 H   0  0  0  0  0  0
   15.5155   21.8358   31.9776 H   0  0  0  0  0  0
   15.7791   24.8475   31.3666 H   0  0  0  0  0  0
   16.1052   24.1510   29.0801 H   0  0  0  0  0  0
   15.0655   22.7244   29.4124 H   0  0  0  0  0  0
   16.8370   22.6297   29.6939 H   0  0  0  0  0  0
   19.6868   21.0496   33.4492 H   0  0  0  0  0  0
   22.2647   21.7373   34.9616 H   0  0  0  0  0  0
   21.7491   19.4598   32.9434 H   0  0  0  0  0  0
   23.3256   19.8113   33.7293 H   0  0  0  0  0  0
   22.2095   17.8893   34.7752 H   0  0  0  0  0  0
   20.7738   18.9019   35.1495 H   0  0  0  0  0  0
   22.3503   19.2534   35.9354 H   0  0  0  0  0  0
   23.8118   24.5282   31.8076 H   0  0  0  0  0  0
   22.5642   23.6174   30.8908 H   0  0  0  0  0  0
   22.2394   23.4135   35.1129 H   0  0  0  0  0  0
   21.7972   24.9756   34.3441 H   0  0  0  0  0  0
   23.5245   24.5063   34.4953 H   0  0  0  0  0  0
   20.5152   23.2781   31.3713 H   0  0  0  0  0  0
   19.2184   24.1460   30.4815 H   0  0  0  0  0  0
   19.1297   23.9866   32.2685 H   0  0  0  0  0  0
   20.5712   27.4300   31.5929 H   0  0  0  0  0  0
   18.0594   25.9876   30.5050 H   0  0  0  0  0  0
   18.2907   27.7684   30.5454 H   0  0  0  0  0  0
   19.4864   25.7452   28.7048 H   0  0  0  0  0  0
   17.2052   26.7302   28.3796 H   0  0  0  0  0  0
   18.3679   27.3080   27.1382 H   0  0  0  0  0  0
   17.9208   28.3723   28.5145 H   0  0  0  0  0  0
   21.3114   27.1964   29.3529 H   0  0  0  0  0  0
   20.2838   28.6429   29.0727 H   0  0  0  0  0  0
   20.7308   27.5786   27.6965 H   0  0  0  0  0  0
   20.5104   27.8119   33.8882 H   0  0  0  0  0  0
   18.5028   26.2441   35.4820 H   0  0  0  0  0  0
   20.1811   28.7406   36.1745 H   0  0  0  0  0  0
   18.4039   28.3599   37.8396 H   0  0  0  0  0  0
   20.0085   27.9344   38.5257 H   0  0  0  0  0  0
   18.8904   26.6368   37.9845 H   0  0  0  0  0  0
   21.4982   26.6872   35.4572 H   0  0  0  0  0  0
   20.5975   25.7145   36.6693 H   0  0  0  0  0  0
   21.7156   27.0120   37.2105 H   0  0  0  0  0  0
   17.0220   25.8297   36.2381 H   0  0  0  0  0  0
   15.3822   25.8847   35.5069 H   0  0  0  0  0  0
   15.6595   26.5724   37.1430 H   0  0  0  0  0  0
   15.7721   29.5518   34.7819 H   0  0  0  0  0  0
   13.7855   27.1602   35.0206 H   0  0  0  0  0  0
   13.3656   28.7562   34.3115 H   0  0  0  0  0  0
   15.4025   26.8077   33.1372 H   0  0  0  0  0  0
   13.1106   25.9366   33.1510 H   0  0  0  0  0  0
   13.6729   26.3612   31.4987 H   0  0  0  0  0  0
   12.5393   27.4495   32.3690 H   0  0  0  0  0  0
   15.8192   29.1934   32.6066 H   0  0  0  0  0  0
   14.1205   29.3551   32.0456 H   0  0  0  0  0  0
   15.2540   28.2668   31.1753 H   0  0  0  0  0  0
   13.1489   30.1489   35.6555 H   0  0  0  0  0  0
   13.9696   30.7626   38.4611 H   0  0  0  0  0  0
   12.8327   32.4509   37.0240 H   0  0  0  0  0  0
   11.8370   32.1010   38.4776 H   0  0  0  0  0  0
   11.3977   31.3785   36.8927 H   0  0  0  0  0  0
   12.3723   30.5475   40.3364 H   0  0  0  0  0  0
   10.3247   28.3594   39.8014 H   0  0  0  0  0  0
    9.6516   30.4248   41.0177 H   0  0  0  0  0  0
   10.9348   30.1364   42.2412 H   0  0  0  0  0  0
    9.5465   29.0040   42.1117 H   0  0  0  0  0  0
    9.6515   26.8297   40.0952 H   0  0  0  0  0  0
    9.4731   25.5521   41.3453 H   0  0  0  0  0  0
   10.3872   25.2114   39.8369 H   0  0  0  0  0  0
   13.1323   25.9220   42.2603 H   0  0  0  0  0  0
   10.4301   24.5751   42.8497 H   0  0  0  0  0  0
   11.9733   24.1287   43.6534 H   0  0  0  0  0  0
   10.6695   26.8802   43.8577 H   0  0  0  0  0  0
    9.2442   25.0958   44.8128 H   0  0  0  0  0  0
    9.9688   26.1387   46.0832 H   0  0  0  0  0  0
   10.6431   24.5033   45.7713 H   0  0  0  0  0  0
   13.1100   26.8139   44.1614 H   0  0  0  0  0  0
   12.9160   25.5139   45.3858 H   0  0  0  0  0  0
   12.2418   27.1494   45.6977 H   0  0  0  0  0  0
   13.8608   26.5146   40.5946 H   0  0  0  0  0  0
   13.9890   26.1562   38.8391 H   0  0  0  0  0  0
   15.2565   25.5720   39.9700 H   0  0  0  0  0  0
   12.9564   22.5873   39.4218 H   0  0  0  0  0  0
   14.1974   24.7152   37.5143 H   0  0  0  0  0  0
   13.8074   23.0392   36.9990 H   0  0  0  0  0  0
   11.7965   25.1823   37.8507 H   0  0  0  0  0  0
   12.8915   25.5252   35.6630 H   0  0  0  0  0  0
   11.1575   25.0844   35.5023 H   0  0  0  0  0  0
   12.4296   23.8565   35.1849 H   0  0  0  0  0  0
   11.1074   22.9301   38.5523 H   0  0  0  0  0  0
   11.3808   22.3316   36.8809 H   0  0  0  0  0  0
   10.1088   23.5596   37.1983 H   0  0  0  0  0  0
   13.4522   21.2056   38.0953 H   0  0  0  0  0  0
   14.3083   19.7721   38.7579 H   0  0  0  0  0  0
   14.7729   20.4336   37.1537 H   0  0  0  0  0  0
   17.3273   21.9121   39.5966 H   0  0  0  0  0  0
   16.4680   18.9836   39.2590 H   0  0  0  0  0  0
   18.9386   19.5187   39.3216 H   0  0  0  0  0  0
   18.4112   18.6245   40.7875 H   0  0  0  0  0  0
   18.6857   20.3979   40.8675 H   0  0  0  0  0  0
   14.9684   20.0640   40.8570 H   0  0  0  0  0  0
   16.3780   20.7148   41.7603 H   0  0  0  0  0  0
   16.1035   18.9414   41.6804 H   0  0  0  0  0  0
  1  2  1  0  0  0
  1  3  1  0  0  0
  1 84  1  0  0  0
  2 86  1  0  0  0
  2 87  1  0  0  0
  2 88  1  0  0  0
  3  4  1  0  0  0
  3  6  1  0  0  0
  3 89  1  0  0  0
  4  5  2  0  0  0
  4 14  1  0  0  0
  6  7  1  0  0  0
  6  8  1  0  0  0
  6 90  1  0  0  0
  7 91  1  0  0  0
  8  9  1  0  0  0
  8 10  1  0  0  0
  8 92  1  0  0  0
  9 93  1  0  0  0
  9 94  1  0  0  0
  9 95  1  0  0  0
 10 11  1  0  0  0
 10 96  1  0  0  0
 10 97  1  0  0  0
 11 12  2  0  0  0
 11 98  1  0  0  0
 12 13  1  0  0  0
 12 99  1  0  0  0
 13100  1  0  0  0
 13101  1  0  0  0
 13102  1  0  0  0
 14 15  1  0  0  0
 14103  1  0  0  0
 15 16  1  0  0  0
 15 18  1  0  0  0
 15104  1  0  0  0
 16 17  2  0  0  0
 16 20  1  0  0  0
 18 19  1  0  0  0
 18105  1  0  0  0
 18106  1  0  0  0
 19107  1  0  0  0
 19108  1  0  0  0
 19109  1  0  0  0
 20 21  1  0  0  0
 20 24  1  0  0  0
 21 22  1  0  0  0
 21110  1  0  0  0
 21111  1  0  0  0
 22 23  2  0  0  0
 22 25  1  0  0  0
 24112  1  0  0  0
 24113  1  0  0  0
 24114  1  0  0  0
 25 26  1  0  0  0
 25 27  1  0  0  0
 26115  1  0  0  0
 26116  1  0  0  0
 26117  1  0  0  0
 27 28  1  0  0  0
 27 32  1  0  0  0
 27118  1  0  0  0
 28 29  1  0  0  0
 28119  1  0  0  0
 28120  1  0  0  0
 29 30  1  0  0  0
 29 31  1  0  0  0
 29121  1  0  0  0
 30122  1  0  0  0
 30123  1  0  0  0
 30124  1  0  0  0
 31125  1  0  0  0
 31126  1  0  0  0
 31127  1  0  0  0
 32 33  2  0  0  0
 32 34  1  0  0  0
 34 35  1  0  0  0
 34128  1  0  0  0
 35 36  1  0  0  0
 35 38  1  0  0  0
 35129  1  0  0  0
 36 37  2  0  0  0
 36 41  1  0  0  0
 38 39  1  0  0  0
 38 40  1  0  0  0
 38130  1  0  0  0
 39131  1  0  0  0
 39132  1  0  0  0
 39133  1  0  0  0
 40134  1  0  0  0
 40135  1  0  0  0
 40136  1  0  0  0
 41 42  1  0  0  0
 41 43  1  0  0  0
 42137  1  0  0  0
 42138  1  0  0  0
 42139  1  0  0  0
 43 44  1  0  0  0
 43 48  1  0  0  0
 43140  1  0  0  0
 44 45  1  0  0  0
 44141  1  0  0  0
 44142  1  0  0  0
 45 46  1  0  0  0
 45 47  1  0  0  0
 45143  1  0  0  0
 46144  1  0  0  0
 46145  1  0  0  0
 46146  1  0  0  0
 47147  1  0  0  0
 47148  1  0  0  0
 47149  1  0  0  0
 48 49  2  0  0  0
 48 50  1  0  0  0
 50 51  1  0  0  0
 50150  1  0  0  0
 51 52  1  0  0  0
 51 54  1  0  0  0
 51151  1  0  0  0
 52 53  2  0  0  0
 52 55  1  0  0  0
 54152  1  0  0  0
 54153  1  0  0  0
 54154  1  0  0  0
 55 56  1  0  0  0
 55155  1  0  0  0
 56 57  1  0  0  0
 56 58  1  0  0  0
 56156  1  0  0  0
 57157  1  0  0  0
 57158  1  0  0  0
 57159  1  0  0  0
 58 59  2  0  0  0
 58 60  1  0  0  0
 60 61  1  0  0  0
 60 62  1  0  0  0
 61160  1  0  0  0
 61161  1  0  0  0
 61162  1  0  0  0
 62 63  1  0  0  0
 62 67  1  0  0  0
 62163  1  0  0  0
 63 64  1  0  0  0
 63164  1  0  0  0
 63165  1  0  0  0
 64 65  1  0  0  0
 64 66  1  0  0  0
 64166  1  0  0  0
 65167  1  0  0  0
 65168  1  0  0  0
 65169  1  0  0  0
 66170  1  0  0  0
 66171  1  0  0  0
 66172  1  0  0  0
 67 68  2  0  0  0
 67 69  1  0  0  0
 69 70  1  0  0  0
 69 71  1  0  0  0
 70173  1  0  0  0
 70174  1  0  0  0
 70175  1  0  0  0
 71 72  1  0  0  0
 71 76  1  0  0  0
 71176  1  0  0  0
 72 73  1  0  0  0
 72177  1  0  0  0
 72178  1  0  0  0
 73 74  1  0  0  0
 73 75  1  0  0  0
 73179  1  0  0  0
 74180  1  0  0  0
 74181  1  0  0  0
 74182  1  0  0  0
 75183  1  0  0  0
 75184  1  0  0  0
 75185  1  0  0  0
 76 77  2  0  0  0
 76 78  1  0  0  0
 78 79  1  0  0  0
 78 80  1  0  0  0
 79186  1  0  0  0
 79187  1  0  0  0
 79188  1  0  0  0
 80 81  1  0  0  0
 80 84  1  0  0  0
 80189  1  0  0  0
 81 82  1  0  0  0
 81 83  1  0  0  0
 81190  1  0  0  0
 82191  1  0  0  0
 82192  1  0  0  0
 82193  1  0  0  0
 83194  1  0  0  0
 83195  1  0  0  0
 83196  1  0  0  0
 84 85  2  0  0  0
M  END
> <s_m_source_file>
../1cyn_ligand.sdf

> <i_m_source_file_index>
1

> <s_epik_input>
W0NIM11cW0NIXT1bQ0hdXFtDSDJdW0NAQEhdKFtDSDNdKVtDQEBIXShbT0hdKVtDQEhdKE4xW0NIM10pQyg9TylbTkhdW0NAQEhdKFtDSDJdW0NIM10pQyg9TylOKFtDSDNdKVtDSDJdQyg9TylOKFtDSDNdKVtDQEBIXShbQ0gyXVtDSF0oW0NIM10pW0NIM10pQyg9TylbTkhdW0NAQEhdKFtDSF0oW0NIM10pW0NIM10pQyg9TylOKFtDSDNdKVtDQEBIXShbQ0gyXVtDSF0oW0NIM10pW0NIM10pQyg9TylbTkhdW0NAQEhdKFtDSDNdKUMoPU8pW05IXVtDQEhdKFtDSDNdKUMoPU8pTihbQ0gzXSlbQ0BASF0oW0NIMl1bQ0hdKFtDSDNdKVtDSDNdKUMoPU8pTihbQ0gzXSlbQ0BASF0oW0NIMl1bQ0hdKFtDSDNdKVtDSDNdKUMoPU8pTihbQ0gzXSlbQ0BIXShDMT1PKVtDSF0oW0NIM10pW0NIM10=

> <s_epik_cmdline>
J2VwaWtfYXBwJywgJy1pbWFlJywgJ2xpZ2FuZF9wcm8ubWFlJywgJy1vbWFlJywgJ2xpZ2FuZF9wcmVwLm1hZScsICctbXMnLCAnMScsICctcGgnLCAnNycsICctcGh0JywgJzAuNScsICctbnQn

> <s_epik_pKa_notes>
Molecule size exceeds maximum supported for generating protonation states

$$$$
