1czc_ligand
                    3D
 Schrodinger Suite 2020-3.
 15 14  0  0  1  0            999 V2000
   24.7030   10.1530  -10.8530 C   0  0  0  0  0  0
   23.2970    9.9960  -11.3500 C   0  0  0  0  0  0
   22.9610   10.8420  -12.5170 C   0  0  0  0  0  0
   23.6990   10.2330  -13.7050 C   0  0  0  0  0  0
   24.3590   11.2860  -14.5330 C   0  0  0  0  0  0
   25.5060   10.9490  -11.4040 O   0  5  0  0  0  0
   25.0040    9.4500   -9.8840 O   0  0  0  0  0  0
   23.8520   12.4080  -14.5190 O   0  0  0  0  0  0
   25.3790   11.0160  -15.2060 O   0  5  0  0  0  0
   23.1296    8.9519  -11.6529 H   0  0  0  0  0  0
   22.5927   10.2625  -10.5482 H   0  0  0  0  0  0
   21.8728   10.8304  -12.6771 H   0  0  0  0  0  0
   23.2931   11.8738  -12.3297 H   0  0  0  0  0  0
   24.4715    9.5398  -13.3406 H   0  0  0  0  0  0
   22.9854    9.6863  -14.3389 H   0  0  0  0  0  0
  1  2  1  0  0  0
  1  6  1  0  0  0
  1  7  2  0  0  0
  2  3  1  0  0  0
  2 10  1  0  0  0
  2 11  1  0  0  0
  3  4  1  0  0  0
  3 12  1  0  0  0
  3 13  1  0  0  0
  4  5  1  0  0  0
  4 14  1  0  0  0
  4 15  1  0  0  0
  5  8  2  0  0  0
  5  9  1  0  0  0
M  CHG  2   6  -1   9  -1
M  END
> <s_m_source_file>
../1czc_ligand.sdf

> <i_m_source_file_index>
1

> <s_epik_input>
W09IXUMoPU8pW0NIMl1bQ0gyXVtDSDJdQyg9TylbT0hd

> <s_epik_cmdline>
J2VwaWtfYXBwJywgJy1pbWFlJywgJ2xpZ2FuZF9wcm8ubWFlJywgJy1vbWFlJywgJ2xpZ2FuZF9wcmVwLm1hZScsICctbXMnLCAnMScsICctcGgnLCAnNycsICctcGh0JywgJzAuNScsICctbnQn

> <r_epik_Ionization_Penalty>
  0.0122

> <r_epik_Ionization_Penalty_Charging>
  0.0122

> <r_epik_Ionization_Penalty_Neutral>
  0.0000

> <r_epik_State_Penalty>
  0.0094

> <r_epik_Charging_Adjusted_Penalty>
0.0215931629606678

> <i_epik_Tot_Q>
-2

> <i_epik_Tot_abs_Q>
2

$$$$
