1cze_ligand
                    3D
 Schrodinger Suite 2020-3.
 12 11  0  0  1  0            999 V2000
   24.5500   10.2780  -10.9290 C   0  0  0  0  0  0
   24.1320   10.1920   -9.7980 O   0  0  0  0  0  0
   25.6880   10.6540  -11.1490 O   0  5  0  0  0  0
   23.6390    9.9020  -12.1110 C   0  0  0  0  0  0
   24.2590   10.0180  -13.5320 C   0  0  0  0  0  0
   24.2680   11.3430  -14.3080 C   0  0  0  0  0  0
   24.7840   11.3420  -15.3880 O   0  0  0  0  0  0
   23.7700   12.3310  -13.8240 O   0  5  0  0  0  0
   23.3189    8.8546  -12.0085 H   0  0  0  0  0  0
   22.7551   10.5568  -12.1155 H   0  0  0  0  0  0
   25.3250    9.7499  -13.4899 H   0  0  0  0  0  0
   23.7359    9.3348  -14.2172 H   0  0  0  0  0  0
  1  2  2  0  0  0
  1  3  1  0  0  0
  1  4  1  0  0  0
  4  5  1  0  0  0
  4  9  1  0  0  0
  4 10  1  0  0  0
  5  6  1  0  0  0
  5 11  1  0  0  0
  5 12  1  0  0  0
  6  7  2  0  0  0
  6  8  1  0  0  0
M  CHG  2   3  -1   8  -1
M  END
> <s_m_source_file>
../1cze_ligand.sdf

> <i_m_source_file_index>
1

> <s_epik_input>
Tz1DKFtPSF0pW0NIMl1bQ0gyXUMoPU8pW09IXQ==

> <s_epik_cmdline>
J2VwaWtfYXBwJywgJy1pbWFlJywgJ2xpZ2FuZF9wcm8ubWFlJywgJy1vbWFlJywgJ2xpZ2FuZF9wcmVwLm1hZScsICctbXMnLCAnMScsICctcGgnLCAnNycsICctcGh0JywgJzAuNScsICctbnQn

> <r_lp_tautomer_probability>
1

> <r_epik_Ionization_Penalty>
  0.0087

> <r_epik_Ionization_Penalty_Charging>
  0.0087

> <r_epik_Ionization_Penalty_Neutral>
  0.0000

> <r_epik_State_Penalty>
 -0.0000

> <r_epik_Charging_Adjusted_Penalty>
0.00872382001236044

> <i_epik_Tot_Q>
-2

> <i_epik_Tot_abs_Q>
2

$$$$
