1czk_ligand
                    3D
 Schrodinger Suite 2020-3.
 50 52  0  0  1  0            999 V2000
    1.3290   44.5480   53.4950 N   0  0  0  0  0  0
    0.4150   45.3550   54.1150 C   0  0  0  0  0  0
   -0.6930   44.9540   54.3960 O   0  0  0  0  0  0
    0.7370   46.6630   54.4400 N   0  0  0  0  0  0
    1.9340   47.2600   54.1570 C   0  0  0  0  0  0
    2.1430   48.4030   54.4840 O   0  0  0  0  0  0
    2.9270   46.4200   53.4630 C   0  0  0  0  0  0
    4.1470   46.8700   53.2680 N   0  0  0  0  0  0
    5.0550   46.0220   52.6670 C   0  0  0  0  0  0
    6.3610   46.4760   52.4000 C   0  0  0  0  0  0
    7.3580   45.6630   51.8930 C   0  0  0  0  0  0
    8.7560   46.2420   51.6180 C   0  0  0  0  0  0
    7.0560   44.2850   51.6160 C   0  0  0  0  0  0
    8.1250   43.3440   51.1120 C   0  0  0  0  0  0
    5.7720   43.8020   51.8270 C   0  0  0  0  0  0
    4.7570   44.6550   52.3610 C   0  0  0  0  0  0
    3.4550   44.2300   52.5950 N   0  0  0  0  0  0
    2.5020   45.0590   53.1670 C   0  0  0  0  0  0
    3.0950   42.8500   52.1970 C   0  0  0  0  0  0
    2.7490   42.7990   50.7060 C   0  0  2  0  0  0
    1.6070   43.5830   50.3410 O   0  0  0  0  0  0
    2.5330   41.3520   50.2790 C   0  0  2  0  0  0
    3.7740   40.6410   50.3550 O   0  0  0  0  0  0
    1.8520   41.0430   48.9450 C   0  0  2  0  0  0
    1.7290   39.6230   48.8020 O   0  0  0  0  0  0
    2.6230   41.6500   47.7770 C   0  0  0  0  0  0
    1.8830   41.4200   46.5690 O   0  0  0  0  0  0
    2.5640   41.6960   45.1610 P   0  0  0  0  0  0
    3.3180   40.4910   44.8490 O   0  0  0  0  0  0
    3.1420   43.0430   44.9880 O   0  5  0  0  0  0
    1.2870   41.6450   44.2900 O   0  5  0  0  0  0
    0.0046   47.2962   54.9622 H   0  0  0  0  0  0
    6.5978   47.5204   52.6031 H   0  0  0  0  0  0
    8.7739   47.3056   51.8981 H   0  0  0  0  0  0
    8.9909   46.1405   50.5482 H   0  0  0  0  0  0
    9.5030   45.6940   52.2111 H   0  0  0  0  0  0
    9.0731   43.8910   51.0027 H   0  0  0  0  0  0
    7.8231   42.9349   50.1365 H   0  0  0  0  0  0
    8.2571   42.5210   51.8298 H   0  0  0  0  0  0
    5.5363   42.7659   51.5840 H   0  0  0  0  0  0
    3.9447   42.1789   52.3913 H   0  0  0  0  0  0
    2.2235   42.5160   52.7791 H   0  0  0  0  0  0
    3.5593   43.2890   50.1463 H   0  0  0  0  0  0
    1.5821   44.6585   50.5705 H   0  0  0  0  0  0
    1.8302   40.9653   51.0316 H   0  0  0  0  0  0
    4.4099   40.7384   51.2473 H   0  0  0  0  0  0
    0.8236   41.4330   48.9272 H   0  0  0  0  0  0
    1.1971   39.0373   49.5662 H   0  0  0  0  0  0
    2.7452   42.7309   47.9406 H   0  0  0  0  0  0
    3.6129   41.1758   47.7051 H   0  0  0  0  0  0
  1  2  1  0  0  0
  1 18  2  0  0  0
  2  3  2  0  0  0
  2  4  1  0  0  0
  4  5  1  0  0  0
  4 32  1  0  0  0
  5  6  2  0  0  0
  5  7  1  0  0  0
  7  8  2  0  0  0
  7 18  1  0  0  0
  8  9  1  0  0  0
  9 10  2  0  0  0
  9 16  1  0  0  0
 10 11  1  0  0  0
 10 33  1  0  0  0
 11 12  1  0  0  0
 11 13  2  0  0  0
 12 34  1  0  0  0
 12 35  1  0  0  0
 12 36  1  0  0  0
 13 14  1  0  0  0
 13 15  1  0  0  0
 14 37  1  0  0  0
 14 38  1  0  0  0
 14 39  1  0  0  0
 15 16  2  0  0  0
 15 40  1  0  0  0
 16 17  1  0  0  0
 17 18  1  0  0  0
 17 19  1  0  0  0
 19 20  1  0  0  0
 19 41  1  0  0  0
 19 42  1  0  0  0
 20 21  1  0  0  0
 20 22  1  0  0  0
 20 43  1  0  0  0
 21 44  1  0  0  0
 22 23  1  0  0  0
 22 24  1  0  0  0
 22 45  1  0  0  0
 23 46  1  0  0  0
 24 25  1  0  0  0
 24 26  1  0  0  0
 24 47  1  0  0  0
 25 48  1  0  0  0
 26 27  1  0  0  0
 26 49  1  0  0  0
 26 50  1  0  0  0
 27 28  1  0  0  0
 28 29  2  0  0  0
 28 30  1  0  0  0
 28 31  1  0  0  0
M  CHG  2  30  -1  31  -1
M  END
> <s_m_source_file>
../1czk_ligand.sdf

> <i_m_source_file_index>
1

> <s_epik_input>
Tz1jMVtuSF1jKD1PKW5jKGMxMiluKGMzYyhuMilbY0hdYyhbQ0gzXSljKFtDSDNdKVtjSF0zKVtDSDJdW0NASF0oW09IXSlbQ0BIXShbT0hdKVtDQEhdKFtPSF0pW0NIMl1PUCg9TykoW09IXSlbT0hd

> <s_epik_cmdline>
J2VwaWtfYXBwJywgJy1pbWFlJywgJ2xpZ2FuZF9wcm8ubWFlJywgJy1vbWFlJywgJ2xpZ2FuZF9wcmVwLm1hZScsICctbXMnLCAnMScsICctcGgnLCAnNycsICctcGh0JywgJzAuNScsICctbnQn

> <r_epik_Ionization_Penalty>
  0.1164

> <r_epik_Ionization_Penalty_Charging>
  0.1164

> <r_epik_Ionization_Penalty_Neutral>
  0.0000

> <r_epik_State_Penalty>
  0.1054

> <r_epik_Charging_Adjusted_Penalty>
0.2218027979184

> <i_epik_Tot_Q>
-2

> <i_epik_Tot_abs_Q>
2

$$$$
