1czl_ligand
                    3D
 Schrodinger Suite 2020-3.
 50 52  0  0  1  0            999 V2000
    1.3480   44.0790   53.3570 N   0  0  0  0  0  0
    0.3900   44.9120   53.9600 C   0  0  0  0  0  0
   -0.7330   44.5060   54.2740 O   0  0  0  0  0  0
    0.7060   46.2670   54.2440 N   0  0  0  0  0  0
    1.9520   46.8270   53.9990 C   0  0  0  0  0  0
    2.1830   48.0010   54.2800 O   0  0  0  0  0  0
    2.9690   45.9180   53.3680 C   0  0  0  0  0  0
    4.1900   46.3810   53.1130 N   0  0  0  0  0  0
    5.1420   45.5500   52.5450 C   0  0  0  0  0  0
    6.4660   46.0410   52.3070 C   0  0  0  0  0  0
    7.4670   45.2230   51.7930 C   0  0  0  0  0  0
    8.8700   45.7660   51.5510 C   0  0  0  0  0  0
    7.1410   43.8530   51.4940 C   0  0  0  0  0  0
    8.1870   42.9080   50.9720 C   0  0  0  0  0  0
    5.8520   43.3690   51.6930 C   0  0  0  0  0  0
    4.8310   44.1980   52.2170 C   0  0  0  0  0  0
    3.5000   43.7630   52.4710 N   0  0  0  0  0  0
    2.5540   44.5570   53.0860 C   0  0  0  0  0  0
    3.1510   42.3900   52.1070 C   0  0  0  0  0  0
    2.8380   42.3020   50.6160 C   0  0  2  0  0  0
    1.7130   43.0790   50.1830 O   0  0  0  0  0  0
    2.6370   40.8380   50.2230 C   0  0  2  0  0  0
    3.8750   40.1290   50.3650 O   0  0  0  0  0  0
    2.0090   40.5350   48.8430 C   0  0  2  0  0  0
    1.8540   39.1220   48.6930 O   0  0  0  0  0  0
    2.8180   41.1700   47.7060 C   0  0  0  0  0  0
    2.1080   41.0020   46.4750 O   0  0  0  0  0  0
    2.7110   41.1480   45.0060 P   0  0  0  0  0  0
    3.4530   39.9230   44.7010 O   0  0  0  0  0  0
    3.3050   42.4780   44.7800 O   0  5  0  0  0  0
    1.4440   41.0990   44.1180 O   0  5  0  0  0  0
   -0.0558   46.9296   54.6806 H   0  0  0  0  0  0
    6.6953   47.0821   52.5343 H   0  0  0  0  0  0
    8.9083   46.8259   51.8428 H   0  0  0  0  0  0
    9.1214   45.6700   50.4844 H   0  0  0  0  0  0
    9.5931   45.1941   52.1510 H   0  0  0  0  0  0
    9.1443   43.4403   50.8708 H   0  0  0  0  0  0
    7.8759   42.5230   49.9897 H   0  0  0  0  0  0
    8.3062   42.0692   51.6736 H   0  0  0  0  0  0
    5.6241   42.3333   51.4410 H   0  0  0  0  0  0
    3.9955   41.7238   52.3370 H   0  0  0  0  0  0
    2.2670   42.0723   52.6793 H   0  0  0  0  0  0
    3.6623   42.7894   50.0748 H   0  0  0  0  0  0
    1.6830   44.1607   50.3804 H   0  0  0  0  0  0
    1.9264   40.4420   50.9634 H   0  0  0  0  0  0
    4.4621   40.2273   51.2900 H   0  0  0  0  0  0
    0.9799   40.9163   48.7683 H   0  0  0  0  0  0
    1.2923   38.5475   49.4443 H   0  0  0  0  0  0
    2.9572   42.2420   47.9094 H   0  0  0  0  0  0
    3.8001   40.6795   47.6364 H   0  0  0  0  0  0
  1  2  1  0  0  0
  1 18  2  0  0  0
  2  3  2  0  0  0
  2  4  1  0  0  0
  4  5  1  0  0  0
  4 32  1  0  0  0
  5  6  2  0  0  0
  5  7  1  0  0  0
  7  8  2  0  0  0
  7 18  1  0  0  0
  8  9  1  0  0  0
  9 10  2  0  0  0
  9 16  1  0  0  0
 10 11  1  0  0  0
 10 33  1  0  0  0
 11 12  1  0  0  0
 11 13  2  0  0  0
 12 34  1  0  0  0
 12 35  1  0  0  0
 12 36  1  0  0  0
 13 14  1  0  0  0
 13 15  1  0  0  0
 14 37  1  0  0  0
 14 38  1  0  0  0
 14 39  1  0  0  0
 15 16  2  0  0  0
 15 40  1  0  0  0
 16 17  1  0  0  0
 17 18  1  0  0  0
 17 19  1  0  0  0
 19 20  1  0  0  0
 19 41  1  0  0  0
 19 42  1  0  0  0
 20 21  1  0  0  0
 20 22  1  0  0  0
 20 43  1  0  0  0
 21 44  1  0  0  0
 22 23  1  0  0  0
 22 24  1  0  0  0
 22 45  1  0  0  0
 23 46  1  0  0  0
 24 25  1  0  0  0
 24 26  1  0  0  0
 24 47  1  0  0  0
 25 48  1  0  0  0
 26 27  1  0  0  0
 26 49  1  0  0  0
 26 50  1  0  0  0
 27 28  1  0  0  0
 28 29  2  0  0  0
 28 30  1  0  0  0
 28 31  1  0  0  0
M  CHG  2  30  -1  31  -1
M  END
> <s_m_source_file>
../1czl_ligand.sdf

> <i_m_source_file_index>
1

> <s_epik_input>
Tz1jMVtuSF1jKD1PKW5jKGMxMiluKGMzYyhuMilbY0hdYyhbQ0gzXSljKFtDSDNdKVtjSF0zKVtDSDJdW0NASF0oW09IXSlbQ0BIXShbT0hdKVtDQEhdKFtPSF0pW0NIMl1PUCg9TykoW09IXSlbT0hd

> <s_epik_cmdline>
J2VwaWtfYXBwJywgJy1pbWFlJywgJ2xpZ2FuZF9wcm8ubWFlJywgJy1vbWFlJywgJ2xpZ2FuZF9wcmVwLm1hZScsICctbXMnLCAnMScsICctcGgnLCAnNycsICctcGh0JywgJzAuNScsICctbnQn

> <r_epik_Ionization_Penalty>
  0.1164

> <r_epik_Ionization_Penalty_Charging>
  0.1164

> <r_epik_Ionization_Penalty_Neutral>
  0.0000

> <r_epik_State_Penalty>
  0.1054

> <r_epik_Charging_Adjusted_Penalty>
0.2218027979184

> <i_epik_Tot_Q>
-2

> <i_epik_Tot_abs_Q>
2

$$$$
