1czo_ligand
                    3D
 Schrodinger Suite 2020-3.
 52 54  0  0  1  0            999 V2000
   61.4720   33.2570  -17.0310 N   0  0  0  0  0  0
   62.0390   34.4530  -17.3950 C   0  0  0  0  0  0
   62.1880   35.3460  -16.5650 O   0  0  0  0  0  0
   62.4330   34.6670  -18.7730 N   0  0  0  0  0  0
   62.1540   33.8320  -19.8540 C   0  0  0  0  0  0
   62.5380   34.1120  -21.0100 O   0  0  0  0  0  0
   61.4140   32.5890  -19.4780 C   0  0  0  0  0  0
   61.0660   31.7250  -20.4190 N   0  0  0  0  0  0
   60.5820   30.5140  -19.9860 C   0  0  0  0  0  0
   60.4980   29.4440  -20.9310 C   0  0  0  0  0  0
   60.1910   28.1330  -20.5330 C   0  0  0  0  0  0
   60.0200   27.0340  -21.5550 C   0  0  0  0  0  0
   60.0030   27.8610  -19.1210 C   0  0  0  0  0  0
   59.6320   26.4900  -18.6330 C   0  0  0  0  0  0
   60.1190   28.8960  -18.1800 C   0  0  0  0  0  0
   60.3750   30.2090  -18.5910 C   0  0  0  0  0  0
   60.5730   31.2240  -17.6530 N   0  0  0  0  0  0
   61.1450   32.4050  -18.0120 C   0  0  0  0  0  0
   60.1780   31.0000  -16.2510 C   0  0  0  0  0  0
   58.6970   31.2840  -16.0130 C   0  0  2  0  0  0
   58.3370   32.6530  -16.2160 O   0  0  0  0  0  0
   58.3210   30.8650  -14.5930 C   0  0  2  0  0  0
   58.4310   29.4400  -14.4630 O   0  0  0  0  0  0
   56.9850   31.3400  -14.0250 C   0  0  2  0  0  0
   56.8440   30.8650  -12.6830 O   0  0  0  0  0  0
   55.8220   30.9360  -14.9320 C   0  0  0  0  0  0
   54.6350   31.5910  -14.4600 O   0  0  0  0  0  0
   53.1460   31.1510  -14.7440 P   0  0  0  0  0  0
   52.9890   29.8940  -14.0270 O   0  0  0  0  0  0
   52.2380   32.2380  -14.3280 O   0  5  0  0  0  0
   52.9460   30.8630  -16.2740 O   0  5  0  0  0  0
   61.3025   33.0295  -15.9682 H   0  0  0  0  0  0
   63.0111   35.5618  -19.0471 H   0  0  0  0  0  0
   61.1719   31.9951  -21.4800 H   0  0  0  0  0  0
   60.6767   29.6513  -21.9861 H   0  0  0  0  0  0
   60.2037   27.4376  -22.5616 H   0  0  0  0  0  0
   58.9951   26.6384  -21.5000 H   0  0  0  0  0  0
   60.7367   26.2257  -21.3476 H   0  0  0  0  0  0
   59.5825   25.7979  -19.4866 H   0  0  0  0  0  0
   58.6513   26.5305  -18.1365 H   0  0  0  0  0  0
   60.3905   26.1374  -17.9185 H   0  0  0  0  0  0
   60.0086   28.6748  -17.1184 H   0  0  0  0  0  0
   60.3716   29.9520  -15.9785 H   0  0  0  0  0  0
   60.7613   31.6631  -15.5953 H   0  0  0  0  0  0
   58.1112   30.7603  -16.7828 H   0  0  0  0  0  0
   58.5318   33.1350  -17.1854 H   0  0  0  0  0  0
   59.0780   31.3379  -13.9500 H   0  0  0  0  0  0
   59.3333   28.9230  -14.8216 H   0  0  0  0  0  0
   56.9591   32.4344  -13.9175 H   0  0  0  0  0  0
   57.6182   31.0917  -11.9351 H   0  0  0  0  0  0
   56.0383   31.2451  -15.9653 H   0  0  0  0  0  0
   55.6907   29.8445  -14.8957 H   0  0  0  0  0  0
  1  2  1  0  0  0
  1 18  1  0  0  0
  1 32  1  0  0  0
  2  3  2  0  0  0
  2  4  1  0  0  0
  4  5  1  0  0  0
  4 33  1  0  0  0
  5  6  2  0  0  0
  5  7  1  0  0  0
  7  8  1  0  0  0
  7 18  2  0  0  0
  8  9  1  0  0  0
  8 34  1  0  0  0
  9 10  2  0  0  0
  9 16  1  0  0  0
 10 11  1  0  0  0
 10 35  1  0  0  0
 11 12  1  0  0  0
 11 13  2  0  0  0
 12 36  1  0  0  0
 12 37  1  0  0  0
 12 38  1  0  0  0
 13 14  1  0  0  0
 13 15  1  0  0  0
 14 39  1  0  0  0
 14 40  1  0  0  0
 14 41  1  0  0  0
 15 16  2  0  0  0
 15 42  1  0  0  0
 16 17  1  0  0  0
 17 18  1  0  0  0
 17 19  1  0  0  0
 19 20  1  0  0  0
 19 43  1  0  0  0
 19 44  1  0  0  0
 20 21  1  0  0  0
 20 22  1  0  0  0
 20 45  1  0  0  0
 21 46  1  0  0  0
 22 23  1  0  0  0
 22 24  1  0  0  0
 22 47  1  0  0  0
 23 48  1  0  0  0
 24 25  1  0  0  0
 24 26  1  0  0  0
 24 49  1  0  0  0
 25 50  1  0  0  0
 26 27  1  0  0  0
 26 51  1  0  0  0
 26 52  1  0  0  0
 27 28  1  0  0  0
 28 29  2  0  0  0
 28 30  1  0  0  0
 28 31  1  0  0  0
M  CHG  2  30  -1  31  -1
M  END
> <s_m_source_file>
../1czo_ligand.sdf

> <i_m_source_file_index>
1

> <s_epik_input>
Tz1jMVtuSF1jKD1PKVtuSF1jKGMxMilOKGMzYyhbTkhdMilbY0hdYyhbQ0gzXSljKFtDSDNdKVtjSF0zKVtDSDJdW0NASF0oW09IXSlbQ0BIXShbT0hdKVtDQEhdKFtPSF0pW0NIMl1PUCg9TykoW09IXSlbT0hd

> <s_epik_cmdline>
J2VwaWtfYXBwJywgJy1pbWFlJywgJ2xpZ2FuZF9wcm8ubWFlJywgJy1vbWFlJywgJ2xpZ2FuZF9wcmVwLm1hZScsICctbXMnLCAnMScsICctcGgnLCAnNycsICctcGh0JywgJzAuNScsICctbnQn

> <r_lp_tautomer_probability>
0.999801347257086

> <r_epik_Ionization_Penalty>
  0.1170

> <r_epik_Ionization_Penalty_Charging>
  0.1169

> <r_epik_Ionization_Penalty_Neutral>
  0.0001

> <r_epik_State_Penalty>
  0.1063

> <r_epik_Charging_Adjusted_Penalty>
0.223202144986923

> <i_epik_Tot_Q>
-2

> <i_epik_Tot_abs_Q>
2

$$$$
