1czq_ligand
                    3D
 Schrodinger Suite 2020-3.
244249  0  0  1  0            999 V2000
   11.6740   -0.2850   28.7850 C   0  0  0  0  0  0
   11.9050    0.6770   28.0160 O   0  0  0  0  0  0
   10.2750   -0.7940   28.9420 C   0  0  0  0  0  0
   12.6310   -0.8990   29.4870 N   0  0  0  0  0  0
   13.9970   -0.4230   29.3560 C   0  0  0  0  0  0
   15.2000   -1.0510   30.0440 C   0  0  0  0  0  0
   15.1330   -2.0440   30.7850 O   0  0  0  0  0  0
   16.3320   -0.4240   29.7520 N   0  0  0  0  0  0
   17.6390   -0.7970   30.2790 C   0  0  2  0  0  0
   18.6880    0.1960   29.7620 C   0  0  0  0  0  0
   18.0260   -2.2170   29.8710 C   0  0  0  0  0  0
   18.6110   -2.9820   30.6470 O   0  0  0  0  0  0
   17.6990   -2.5770   28.6400 N   0  0  0  0  0  0
   18.0610   -3.8920   28.1590 C   0  0  1  0  0  0
   17.1040   -4.9870   28.6180 C   0  0  0  0  0  0
   17.5310   -6.0200   29.1110 O   0  0  0  0  0  0
   18.1280   -3.8760   26.6380 C   0  0  0  0  0  0
   19.5020   -2.9910   25.8400 S   0  0  0  0  0  0
   15.8130   -4.7360   28.4740 N   0  0  0  0  0  0
   14.7820   -5.7020   28.8340 C   0  0  1  0  0  0
   14.8750   -6.1800   30.2760 C   0  0  0  0  0  0
   14.8320   -7.3810   30.5530 O   0  0  0  0  0  0
   13.3970   -5.0900   28.5740 C   0  0  0  0  0  0
   13.0600   -4.8440   27.0930 C   0  0  0  0  0  0
   13.6630   -3.5680   26.5000 C   0  0  0  0  0  0
   14.4220   -2.8590   27.1820 O   0  0  0  0  0  0
   13.3670   -3.2640   25.3230 O   0  0  0  0  0  0
   15.0220   -5.2370   31.1960 N   0  0  0  0  0  0
   15.0980   -5.5660   32.6110 C   0  0  2  0  0  0
   14.9840   -4.2960   33.4060 C   0  0  0  0  0  0
   16.3620   -6.3400   33.0080 C   0  0  0  0  0  0
   16.3870   -7.0440   34.0270 O   0  0  0  0  0  0
   17.4180   -6.2020   32.2160 N   0  0  0  0  0  0
   18.6730   -6.8930   32.4890 C   0  0  2  0  0  0
   18.4800   -8.4080   32.3690 C   0  0  0  0  0  0
   18.1690   -8.8470   30.9690 C   0  0  0  0  0  0
   19.3970   -8.7620   30.0700 C   0  0  0  0  0  0
   19.7150   -7.4080   29.6070 N   0  0  0  0  0  0
   20.1210   -7.1340   28.3700 C   0  0  0  0  0  0
   20.2480   -8.1180   27.4810 N   0  0  0  0  0  0
   20.4090   -5.8910   28.0150 N   0  0  0  0  0  0
   19.3130   -6.5820   33.8330 C   0  0  0  0  0  0
   19.9940   -7.4230   34.4210 O   0  0  0  0  0  0
   19.1000   -5.3790   34.3420 N   0  0  0  0  0  0
   19.7310   -5.0180   35.6240 C   0  0  1  0  0  0
   21.1560   -4.6360   35.3290 C   0  0  0  0  0  0
   21.4120   -3.7430   34.5360 O   0  0  0  0  0  0
   18.9700   -3.8880   36.2840 C   0  0  0  0  0  0
   17.6550   -4.3210   36.8540 C   0  0  0  0  0  0
   16.6500   -3.4450   37.1870 N   0  0  0  0  0  0
   17.1780   -5.5670   37.1040 C   0  0  0  0  0  0
   15.5950   -4.1340   37.6080 C   0  0  0  0  0  0
   15.8940   -5.4190   37.5620 N   0  0  0  0  0  0
   22.0910   -5.2980   36.0030 N   0  0  0  0  0  0
   23.4940   -5.1220   35.7780 C   0  0  2  0  0  0
   24.2840   -5.9940   36.7550 C   0  0  0  0  0  0
   24.1750   -7.4280   36.4590 C   0  0  0  0  0  0
   24.7430   -8.2070   37.6310 C   0  0  0  0  0  0
   24.5810   -9.6030   37.3250 N   0  0  0  0  0  0
   25.2580  -10.1890   36.3520 C   0  0  0  0  0  0
   26.1390   -9.4850   35.6580 N   0  0  0  0  0  0
   24.9870  -11.4320   36.0270 N   0  0  0  0  0  0
   23.9850   -3.7110   35.8730 C   0  0  0  0  0  0
   24.8560   -3.3610   35.1240 O   0  0  0  0  0  0
   23.4070   -2.9340   36.7830 N   0  0  0  0  0  0
   23.9000   -1.5780   36.9510 C   0  0  1  0  0  0
   23.6010   -0.7170   35.7470 C   0  0  0  0  0  0
   24.1420    0.3830   35.6550 O   0  0  0  0  0  0
   23.3580   -0.9540   38.2610 C   0  0  0  0  0  0
   21.8760   -0.6520   38.3230 C   0  0  0  0  0  0
   20.9960   -1.8160   38.7860 C   0  0  0  0  0  0
   21.4070   -2.9820   38.5840 O   0  0  0  0  0  0
   19.9330   -1.4980   39.3100 O   0  0  0  0  0  0
   22.7470   -1.1860   34.8440 N   0  0  0  0  0  0
   22.4620   -0.4350   33.6110 C   0  0  2  0  0  0
   20.9600   -0.1870   33.4200 C   0  0  0  0  0  0
   20.3540    0.7910   34.4100 C   0  0  0  0  0  0
   19.5040    0.5120   35.4490 C   0  0  0  0  0  0
   19.1220    1.6760   36.0730 N   0  0  0  0  0  0
   19.7340    2.7300   35.4240 C   0  0  0  0  0  0
   19.6500    4.1070   35.6660 C   0  0  0  0  0  0
   20.3820    4.9350   34.8500 C   0  0  0  0  0  0
   21.1740    4.4440   33.8050 C   0  0  0  0  0  0
   21.2370    3.0750   33.5630 C   0  0  0  0  0  0
   20.5040    2.2000   34.3840 C   0  0  0  0  0  0
   23.0000   -1.1400   32.3760 C   0  0  0  0  0  0
   22.7900   -0.6820   31.2440 O   0  0  0  0  0  0
   23.7440   -2.2270   32.5720 N   0  0  0  0  0  0
   24.2530   -2.9400   31.4070 C   0  0  2  0  0  0
   25.0340   -4.1680   31.8670 C   0  0  0  0  0  0
   25.1260   -2.0740   30.5010 C   0  0  0  0  0  0
   25.0780   -2.2210   29.2670 O   0  0  0  0  0  0
   25.8840   -1.1420   31.0840 N   0  0  0  0  0  0
   26.7590   -0.2750   30.3170 C   0  0  2  0  0  0
   27.5860    0.6450   31.2390 C   0  0  0  0  0  0
   26.7250    1.5880   32.0590 C   0  0  0  0  0  0
   26.1770    1.3350   33.2560 C   0  0  0  0  0  0
   25.4020    2.4000   33.6680 N   0  0  0  0  0  0
   25.4590    3.3710   32.7060 C   0  0  0  0  0  0
   24.8420    4.6280   32.6640 C   0  0  0  0  0  0
   25.0900    5.4060   31.5500 C   0  0  0  0  0  0
   25.9040    4.9770   30.5250 C   0  0  0  0  0  0
   26.5190    3.7140   30.5610 C   0  0  0  0  0  0
   26.2850    2.9000   31.6760 C   0  0  0  0  0  0
   25.9130    0.5770   29.3460 C   0  0  0  0  0  0
   26.3470    0.8700   28.2310 O   0  0  0  0  0  0
   24.7400    1.0200   29.7900 N   0  0  0  0  0  0
   23.9150    1.8660   28.9260 C   0  0  2  0  0  0
   22.8830    2.6470   29.7560 C   0  0  0  0  0  0
   21.8570    3.4890   28.9710 C   0  0  0  0  0  0
   22.5590    4.5850   28.2040 C   0  0  0  0  0  0
   20.8860    4.1050   29.9380 C   0  0  0  0  0  0
   23.2650    1.0110   27.8470 C   0  0  0  0  0  0
   23.2240    1.4290   26.7020 O   0  0  0  0  0  0
   22.7750   -0.1800   28.1990 N   0  0  0  0  0  0
   22.1900   -1.0460   27.1960 C   0  0  1  0  0  0
   23.2720   -1.3290   26.1240 C   0  0  0  0  0  0
   22.9630   -1.3180   24.9160 O   0  0  0  0  0  0
   21.6750   -2.3190   27.8740 C   0  0  0  0  0  0
   21.2160   -3.6690   26.7320 S   0  0  0  0  0  0
   24.5140   -1.5680   26.5330 N   0  0  0  0  0  0
   25.6270   -1.8570   25.6140 C   0  0  2  0  0  0
   26.8680   -2.3020   26.4010 C   0  0  0  0  0  0
   25.9870   -0.6720   24.7170 C   0  0  0  0  0  0
   26.5110   -0.8440   23.6140 O   0  0  0  0  0  0
   25.7230    0.5440   25.1920 N   0  0  0  0  0  0
   26.0170    1.7430   24.4000 C   0  0  2  0  0  0
   26.0060    2.9850   25.3140 C   0  0  0  0  0  0
   24.9950    1.9320   23.2780 C   0  0  0  0  0  0
   25.3550    2.5700   22.2560 O   0  0  0  0  0  0
   23.8430    1.4600   23.4100 O   0  0  0  0  0  0
    9.5962   -0.2010   28.3115 H   0  0  0  0  0  0
    9.9687   -0.7056   29.9948 H   0  0  0  0  0  0
   10.2322   -1.8494   28.6350 H   0  0  0  0  0  0
   12.4050   -1.7456   30.1520 H   0  0  0  0  0  0
   14.3011   -0.4674   28.2998 H   0  0  0  0  0  0
   14.0590    0.6160   29.7120 H   0  0  0  0  0  0
   16.2396    0.4289   29.0636 H   0  0  0  0  0  0
   17.5417   -0.7563   31.3739 H   0  0  0  0  0  0
   18.4043    1.2166   30.0586 H   0  0  0  0  0  0
   18.7418    0.1345   28.6650 H   0  0  0  0  0  0
   19.6700   -0.0512   30.1917 H   0  0  0  0  0  0
   17.1547   -1.8819   27.9838 H   0  0  0  0  0  0
   19.0445   -4.0774   28.6154 H   0  0  0  0  0  0
   18.2028   -4.9075   26.2634 H   0  0  0  0  0  0
   17.2190   -3.4049   26.2358 H   0  0  0  0  0  0
   15.5290   -3.7550   28.0653 H   0  0  0  0  0  0
   14.9874   -6.5677   28.1871 H   0  0  0  0  0  0
   12.6196   -5.7625   28.9656 H   0  0  0  0  0  0
   13.3264   -4.1150   29.0784 H   0  0  0  0  0  0
   13.4348   -5.6824   26.4875 H   0  0  0  0  0  0
   11.9694   -4.7641   26.9735 H   0  0  0  0  0  0
   13.7842   -2.3532   24.8687 H   0  0  0  0  0  0
   15.0866   -4.1881   30.8710 H   0  0  0  0  0  0
   14.2373   -6.2272   32.7897 H   0  0  0  0  0  0
   14.0730   -3.7568   33.1070 H   0  0  0  0  0  0
   15.8637   -3.6637   33.2151 H   0  0  0  0  0  0
   14.9318   -4.5378   34.4778 H   0  0  0  0  0  0
   17.3305   -5.5477   31.3361 H   0  0  0  0  0  0
   19.3317   -6.4748   31.7137 H   0  0  0  0  0  0
   19.4005   -8.9210   32.6845 H   0  0  0  0  0  0
   17.6455   -8.7234   33.0125 H   0  0  0  0  0  0
   17.8184   -9.8895   30.9810 H   0  0  0  0  0  0
   17.3844   -8.2011   30.5479 H   0  0  0  0  0  0
   20.2779   -9.1295   30.6168 H   0  0  0  0  0  0
   19.2384   -9.3790   29.1733 H   0  0  0  0  0  0
   19.6223   -6.5553   30.2957 H   0  0  0  0  0  0
   20.0107   -9.1529   27.7684 H   0  0  0  0  0  0
   20.5902   -7.8956   26.4595 H   0  0  0  0  0  0
   20.3066   -5.0732   28.7435 H   0  0  0  0  0  0
   18.4606   -4.6521   33.8197 H   0  0  0  0  0  0
   19.7063   -5.8781   36.3093 H   0  0  0  0  0  0
   19.5702   -3.4735   37.1074 H   0  0  0  0  0  0
   18.7692   -3.0996   35.5437 H   0  0  0  0  0  0
   17.6149   -6.5718   37.0068 H   0  0  0  0  0  0
   14.6453   -3.7108   37.9353 H   0  0  0  0  0  0
   21.7413   -6.0098   36.7653 H   0  0  0  0  0  0
   23.5932   -5.4173   34.7230 H   0  0  0  0  0  0
   25.3491   -5.7229   36.7096 H   0  0  0  0  0  0
   23.9080   -5.8336   37.7762 H   0  0  0  0  0  0
   23.1177   -7.6923   36.3100 H   0  0  0  0  0  0
   24.7427   -7.6580   35.5453 H   0  0  0  0  0  0
   25.8069   -7.9571   37.7562 H   0  0  0  0  0  0
   24.1941   -7.9433   38.5471 H   0  0  0  0  0  0
   23.8774  -10.2157   37.9077 H   0  0  0  0  0  0
   26.3570   -8.4445   35.9407 H   0  0  0  0  0  0
   26.6529   -9.9406   34.7987 H   0  0  0  0  0  0
   24.2530  -12.0059   36.6118 H   0  0  0  0  0  0
   22.5731   -3.2967   37.4019 H   0  0  0  0  0  0
   24.9937   -1.6838   37.0018 H   0  0  0  0  0  0
   23.5535   -1.6370   39.1008 H   0  0  0  0  0  0
   23.8611    0.0068   38.4451 H   0  0  0  0  0  0
   21.6995    0.1749   39.0266 H   0  0  0  0  0  0
   21.5180   -0.3655   37.3231 H   0  0  0  0  0  0
   20.8004   -3.8421   38.9037 H   0  0  0  0  0  0
   22.2501   -2.1500   35.0281 H   0  0  0  0  0  0
   22.9958    0.5147   33.7627 H   0  0  0  0  0  0
   20.7809    0.2223   32.4148 H   0  0  0  0  0  0
   20.4145   -1.1356   33.5321 H   0  0  0  0  0  0
   19.1785   -0.4872   35.7382 H   0  0  0  0  0  0
   19.0294    4.5053   36.4687 H   0  0  0  0  0  0
   20.3450    6.0107   35.0219 H   0  0  0  0  0  0
   21.7414    5.1343   33.1808 H   0  0  0  0  0  0
   21.8467    2.6861   32.7475 H   0  0  0  0  0  0
   23.9770   -2.5898   33.5840 H   0  0  0  0  0  0
   23.3513   -3.2164   30.8408 H   0  0  0  0  0  0
   24.3972   -4.7847   32.5183 H   0  0  0  0  0  0
   25.9267   -3.8473   32.4240 H   0  0  0  0  0  0
   25.3409   -4.7570   30.9901 H   0  0  0  0  0  0
   25.8317   -1.0418   32.1782 H   0  0  0  0  0  0
   27.4322   -0.9565   29.7763 H   0  0  0  0  0  0
   28.1715    0.0315   31.9396 H   0  0  0  0  0  0
   28.2674    1.2575   30.6303 H   0  0  0  0  0  0
   26.3231    0.4165   33.8244 H   0  0  0  0  0  0
   24.1974    4.9753   33.4714 H   0  0  0  0  0  0
   24.6270    6.3903   31.4798 H   0  0  0  0  0  0
   26.0745    5.6300   29.6691 H   0  0  0  0  0  0
   27.1591    3.3780   29.7452 H   0  0  0  0  0  0
   24.3885    0.7552   30.7981 H   0  0  0  0  0  0
   24.5885    2.5890   28.4427 H   0  0  0  0  0  0
   22.2918    1.9442   30.3614 H   0  0  0  0  0  0
   23.4043    3.3533   30.4188 H   0  0  0  0  0  0
   21.3080    2.8580   28.2566 H   0  0  0  0  0  0
   23.2710    4.1379   27.4947 H   0  0  0  0  0  0
   23.1008    5.2352   28.9067 H   0  0  0  0  0  0
   21.8163    5.1799   27.6522 H   0  0  0  0  0  0
   20.3726    3.3099   30.4986 H   0  0  0  0  0  0
   20.1450    4.7004   29.3844 H   0  0  0  0  0  0
   21.4295    4.7556   30.6389 H   0  0  0  0  0  0
   22.8152   -0.5039   29.2495 H   0  0  0  0  0  0
   21.3306   -0.5312   26.7417 H   0  0  0  0  0  0
   22.4531   -2.7202   28.5400 H   0  0  0  0  0  0
   20.7754   -2.0833   28.4615 H   0  0  0  0  0  0
   24.6897   -1.5420   27.6186 H   0  0  0  0  0  0
   25.2427   -2.6673   24.9770 H   0  0  0  0  0  0
   26.6072   -3.1543   27.0456 H   0  0  0  0  0  0
   27.2263   -1.4683   27.0227 H   0  0  0  0  0  0
   27.6595   -2.6022   25.6985 H   0  0  0  0  0  0
   25.2782    0.6417   26.1933 H   0  0  0  0  0  0
   27.0112    1.5692   23.9625 H   0  0  0  0  0  0
   26.7403    2.8520   26.1222 H   0  0  0  0  0  0
   25.0030    3.1126   25.7472 H   0  0  0  0  0  0
   26.2669    3.8763   24.7245 H   0  0  0  0  0  0
   24.6480    2.7265   21.4280 H   0  0  0  0  0  0
  1  2  2  0  0  0
  1  3  1  0  0  0
  1  4  1  0  0  0
  3132  1  0  0  0
  3133  1  0  0  0
  3134  1  0  0  0
  4  5  1  0  0  0
  4135  1  0  0  0
  5  6  1  0  0  0
  5136  1  0  0  0
  5137  1  0  0  0
  6  7  2  0  0  0
  6  8  1  0  0  0
  8  9  1  0  0  0
  8138  1  0  0  0
  9 10  1  0  0  0
  9 11  1  0  0  0
  9139  1  0  0  0
 10140  1  0  0  0
 10141  1  0  0  0
 10142  1  0  0  0
 11 12  2  0  0  0
 11 13  1  0  0  0
 13 14  1  0  0  0
 13143  1  0  0  0
 14 15  1  0  0  0
 14 17  1  0  0  0
 14144  1  0  0  0
 15 16  2  0  0  0
 15 19  1  0  0  0
 17 18  1  0  0  0
 17145  1  0  0  0
 17146  1  0  0  0
 18120  1  0  0  0
 19 20  1  0  0  0
 19147  1  0  0  0
 20 21  1  0  0  0
 20 23  1  0  0  0
 20148  1  0  0  0
 21 22  2  0  0  0
 21 28  1  0  0  0
 23 24  1  0  0  0
 23149  1  0  0  0
 23150  1  0  0  0
 24 25  1  0  0  0
 24151  1  0  0  0
 24152  1  0  0  0
 25 26  2  0  0  0
 25 27  1  0  0  0
 27153  1  0  0  0
 28 29  1  0  0  0
 28154  1  0  0  0
 29 30  1  0  0  0
 29 31  1  0  0  0
 29155  1  0  0  0
 30156  1  0  0  0
 30157  1  0  0  0
 30158  1  0  0  0
 31 32  2  0  0  0
 31 33  1  0  0  0
 33 34  1  0  0  0
 33159  1  0  0  0
 34 35  1  0  0  0
 34 42  1  0  0  0
 34160  1  0  0  0
 35 36  1  0  0  0
 35161  1  0  0  0
 35162  1  0  0  0
 36 37  1  0  0  0
 36163  1  0  0  0
 36164  1  0  0  0
 37 38  1  0  0  0
 37165  1  0  0  0
 37166  1  0  0  0
 38 39  1  0  0  0
 38167  1  0  0  0
 39 40  1  0  0  0
 39 41  2  0  0  0
 40168  1  0  0  0
 40169  1  0  0  0
 41170  1  0  0  0
 42 43  2  0  0  0
 42 44  1  0  0  0
 44 45  1  0  0  0
 44171  1  0  0  0
 45 46  1  0  0  0
 45 48  1  0  0  0
 45172  1  0  0  0
 46 47  2  0  0  0
 46 54  1  0  0  0
 48 49  1  0  0  0
 48173  1  0  0  0
 48174  1  0  0  0
 49 50  2  0  0  0
 49 51  1  0  0  0
 50 52  1  0  0  0
 51 53  2  0  0  0
 51175  1  0  0  0
 52 53  1  0  0  0
 52176  1  0  0  0
 54 55  1  0  0  0
 54177  1  0  0  0
 55 56  1  0  0  0
 55 63  1  0  0  0
 55178  1  0  0  0
 56 57  1  0  0  0
 56179  1  0  0  0
 56180  1  0  0  0
 57 58  1  0  0  0
 57181  1  0  0  0
 57182  1  0  0  0
 58 59  1  0  0  0
 58183  1  0  0  0
 58184  1  0  0  0
 59 60  1  0  0  0
 59185  1  0  0  0
 60 61  1  0  0  0
 60 62  2  0  0  0
 61186  1  0  0  0
 61187  1  0  0  0
 62188  1  0  0  0
 63 64  2  0  0  0
 63 65  1  0  0  0
 65 66  1  0  0  0
 65189  1  0  0  0
 66 67  1  0  0  0
 66 69  1  0  0  0
 66190  1  0  0  0
 67 68  2  0  0  0
 67 74  1  0  0  0
 69 70  1  0  0  0
 69191  1  0  0  0
 69192  1  0  0  0
 70 71  1  0  0  0
 70193  1  0  0  0
 70194  1  0  0  0
 71 72  1  0  0  0
 71 73  2  0  0  0
 72195  1  0  0  0
 74 75  1  0  0  0
 74196  1  0  0  0
 75 76  1  0  0  0
 75 86  1  0  0  0
 75197  1  0  0  0
 76 77  1  0  0  0
 76198  1  0  0  0
 76199  1  0  0  0
 77 78  2  0  0  0
 77 85  1  0  0  0
 78 79  1  0  0  0
 78200  1  0  0  0
 79 80  1  0  0  0
 80 81  1  0  0  0
 80 85  2  0  0  0
 81 82  2  0  0  0
 81201  1  0  0  0
 82 83  1  0  0  0
 82202  1  0  0  0
 83 84  2  0  0  0
 83203  1  0  0  0
 84 85  1  0  0  0
 84204  1  0  0  0
 86 87  2  0  0  0
 86 88  1  0  0  0
 88 89  1  0  0  0
 88205  1  0  0  0
 89 90  1  0  0  0
 89 91  1  0  0  0
 89206  1  0  0  0
 90207  1  0  0  0
 90208  1  0  0  0
 90209  1  0  0  0
 91 92  2  0  0  0
 91 93  1  0  0  0
 93 94  1  0  0  0
 93210  1  0  0  0
 94 95  1  0  0  0
 94105  1  0  0  0
 94211  1  0  0  0
 95 96  1  0  0  0
 95212  1  0  0  0
 95213  1  0  0  0
 96 97  2  0  0  0
 96104  1  0  0  0
 97 98  1  0  0  0
 97214  1  0  0  0
 98 99  1  0  0  0
 99100  1  0  0  0
 99104  2  0  0  0
100101  2  0  0  0
100215  1  0  0  0
101102  1  0  0  0
101216  1  0  0  0
102103  2  0  0  0
102217  1  0  0  0
103104  1  0  0  0
103218  1  0  0  0
105106  2  0  0  0
105107  1  0  0  0
107108  1  0  0  0
107219  1  0  0  0
108109  1  0  0  0
108113  1  0  0  0
108220  1  0  0  0
109110  1  0  0  0
109221  1  0  0  0
109222  1  0  0  0
110111  1  0  0  0
110112  1  0  0  0
110223  1  0  0  0
111224  1  0  0  0
111225  1  0  0  0
111226  1  0  0  0
112227  1  0  0  0
112228  1  0  0  0
112229  1  0  0  0
113114  2  0  0  0
113115  1  0  0  0
115116  1  0  0  0
115230  1  0  0  0
116117  1  0  0  0
116119  1  0  0  0
116231  1  0  0  0
117118  2  0  0  0
117121  1  0  0  0
119120  1  0  0  0
119232  1  0  0  0
119233  1  0  0  0
121122  1  0  0  0
121234  1  0  0  0
122123  1  0  0  0
122124  1  0  0  0
122235  1  0  0  0
123236  1  0  0  0
123237  1  0  0  0
123238  1  0  0  0
124125  2  0  0  0
124126  1  0  0  0
126127  1  0  0  0
126239  1  0  0  0
127128  1  0  0  0
127129  1  0  0  0
127240  1  0  0  0
128241  1  0  0  0
128242  1  0  0  0
128243  1  0  0  0
129130  1  0  0  0
129131  2  0  0  0
130244  1  0  0  0
M  END
> <s_m_source_file>
../1czq_ligand.sdf

> <i_m_source_file_index>
1

> <s_epik_input>
Tz1DKFtDSDNdKVtOSF1bQ0gyXUMoPU8pW05IXVtDQEhdKFtDSDNdKUMoPU8pW05IXVtDQEhdMUMoPU8pW05IXVtDQEhdKFtDSDJdW0NIMl1DKD1PKVtPSF0pQyg9TylbTkhdW0NASF0oW0NIM10pQyg9TylbTkhdW0NASF0oW0NIMl1bQ0gyXVtDSDJdW05IXS9DKFtOSDJdKT1OXFtIXSlDKD1PKVtOSF1bQ0BIXShbQ0gyXUMyPU5bQ0gyXU49W0NIXTIpQyg9TylbTkhdW0NASF0oW0NIMl1bQ0gyXVtDSDJdW05IXS9DKFtOSDJdKT1OXFtIXSlDKD1PKVtOSF1bQ0BIXShbQ0gyXVtDSDJdQyg9TylbT0hdKUMoPU8pW05IXVtDQEhdKFtDSDJdYyhbY0hdW25IXTMpYyhjMzQpW2NIXVtjSF1bY0hdW2NIXTQpQyg9TylbTkhdW0NASF0oW0NIM10pQyg9TylbTkhdW0NASF0oW0NIMl1jKFtjSF1bbkhdNSljKGM1NilbY0hdW2NIXVtjSF1bY0hdNilDKD1PKVtOSF1bQ0BIXShbQ0gyXVtDSF0oW0NIM10pW0NIM10pQyg9TylbTkhdW0NASF0oW0NIMl1TU1tDSDJdMSlDKD1PKVtOSF1bQ0BIXShbQ0gzXSlDKD1PKVtOSF1bQ0BIXShbQ0gzXSlDKD1PKVtPSF0=

> <s_epik_cmdline>
J2VwaWtfYXBwJywgJy1pbWFlJywgJ2xpZ2FuZF9wcm8ubWFlJywgJy1vbWFlJywgJ2xpZ2FuZF9wcmVwLm1hZScsICctbXMnLCAnMScsICctcGgnLCAnNycsICctcGh0JywgJzAuNScsICctbnQn

> <s_epik_pKa_notes>
Molecule size exceeds maximum supported for generating protonation states

> <s_epik_Chemistry_Notes>
This compound has an imine and may undergo hydrolysis.

$$$$
