1czr_ligand
                    3D
 Schrodinger Suite 2020-3.
 50 52  0  0  1  0            999 V2000
    1.4800   44.1530   53.5050 N   0  0  0  0  0  0
    0.5360   44.9640   54.1030 C   0  0  0  0  0  0
   -0.5880   44.5580   54.3700 O   0  0  0  0  0  0
    0.8680   46.2900   54.4130 N   0  0  0  0  0  0
    2.0810   46.8730   54.1560 C   0  0  0  0  0  0
    2.3020   48.0480   54.4460 O   0  0  0  0  0  0
    3.0980   45.9970   53.5070 C   0  0  0  0  0  0
    4.3050   46.4720   53.2590 N   0  0  0  0  0  0
    5.2280   45.6310   52.6780 C   0  0  0  0  0  0
    6.5280   46.1110   52.4240 C   0  0  0  0  0  0
    7.5010   45.3220   51.8420 C   0  0  0  0  0  0
    8.8720   45.9070   51.5370 C   0  0  0  0  0  0
    7.1820   43.9570   51.5280 C   0  0  0  0  0  0
    8.2300   43.0130   50.9820 C   0  0  0  0  0  0
    5.9040   43.4680   51.7330 C   0  0  0  0  0  0
    4.9080   44.2860   52.3230 C   0  0  0  0  0  0
    3.5970   43.8410   52.5860 N   0  0  0  0  0  0
    2.6720   44.6380   53.2200 C   0  0  0  0  0  0
    3.2040   42.4790   52.1750 C   0  0  0  0  0  0
    2.8350   42.4170   50.6860 C   0  0  2  0  0  0
    1.7280   43.2180   50.2480 O   0  0  0  0  0  0
    2.6080   40.9680   50.2760 C   0  0  2  0  0  0
    3.8450   40.2440   50.3430 O   0  0  0  0  0  0
    1.9280   40.7070   48.9280 C   0  0  2  0  0  0
    1.8050   39.2970   48.7350 O   0  0  0  0  0  0
    2.7530   41.2790   47.7730 C   0  0  0  0  0  0
    2.0100   41.1290   46.5510 O   0  0  0  0  0  0
    2.6180   41.3140   45.1210 P   0  0  0  0  0  0
    3.3270   40.0920   44.7710 O   0  0  0  0  0  0
    3.2360   42.6300   44.9350 O   0  5  0  0  0  0
    1.3360   41.2910   44.2440 O   0  5  0  0  0  0
    0.1280   46.9431   54.8987 H   0  0  0  0  0  0
    6.7738   47.1377   52.6954 H   0  0  0  0  0  0
    8.9009   46.9592   51.8563 H   0  0  0  0  0  0
    9.0641   45.8466   50.4556 H   0  0  0  0  0  0
    9.6421   45.3381   52.0786 H   0  0  0  0  0  0
    9.1855   43.5476   50.8762 H   0  0  0  0  0  0
    7.9090   42.6377   49.9991 H   0  0  0  0  0  0
    8.3576   42.1672   51.6736 H   0  0  0  0  0  0
    5.6615   42.4469   51.4388 H   0  0  0  0  0  0
    4.0402   41.7868   52.3527 H   0  0  0  0  0  0
    2.3306   42.1569   52.7609 H   0  0  0  0  0  0
    3.6526   42.9135   50.1429 H   0  0  0  0  0  0
    1.7147   44.2982   50.4552 H   0  0  0  0  0  0
    1.9238   40.5630   51.0362 H   0  0  0  0  0  0
    4.4736   40.3114   51.2431 H   0  0  0  0  0  0
    0.9129   41.1308   48.9280 H   0  0  0  0  0  0
    1.2439   38.6895   49.4603 H   0  0  0  0  0  0
    2.9533   42.3447   47.9580 H   0  0  0  0  0  0
    3.7058   40.7345   47.6981 H   0  0  0  0  0  0
  1  2  1  0  0  0
  1 18  2  0  0  0
  2  3  2  0  0  0
  2  4  1  0  0  0
  4  5  1  0  0  0
  4 32  1  0  0  0
  5  6  2  0  0  0
  5  7  1  0  0  0
  7  8  2  0  0  0
  7 18  1  0  0  0
  8  9  1  0  0  0
  9 10  2  0  0  0
  9 16  1  0  0  0
 10 11  1  0  0  0
 10 33  1  0  0  0
 11 12  1  0  0  0
 11 13  2  0  0  0
 12 34  1  0  0  0
 12 35  1  0  0  0
 12 36  1  0  0  0
 13 14  1  0  0  0
 13 15  1  0  0  0
 14 37  1  0  0  0
 14 38  1  0  0  0
 14 39  1  0  0  0
 15 16  2  0  0  0
 15 40  1  0  0  0
 16 17  1  0  0  0
 17 18  1  0  0  0
 17 19  1  0  0  0
 19 20  1  0  0  0
 19 41  1  0  0  0
 19 42  1  0  0  0
 20 21  1  0  0  0
 20 22  1  0  0  0
 20 43  1  0  0  0
 21 44  1  0  0  0
 22 23  1  0  0  0
 22 24  1  0  0  0
 22 45  1  0  0  0
 23 46  1  0  0  0
 24 25  1  0  0  0
 24 26  1  0  0  0
 24 47  1  0  0  0
 25 48  1  0  0  0
 26 27  1  0  0  0
 26 49  1  0  0  0
 26 50  1  0  0  0
 27 28  1  0  0  0
 28 29  2  0  0  0
 28 30  1  0  0  0
 28 31  1  0  0  0
M  CHG  2  30  -1  31  -1
M  END
> <s_m_source_file>
../1czr_ligand.sdf

> <i_m_source_file_index>
1

> <s_epik_input>
Tz1jMVtuSF1jKD1PKW5jKGMxMiluKGMzYyhuMilbY0hdYyhbQ0gzXSljKFtDSDNdKVtjSF0zKVtDSDJdW0NASF0oW09IXSlbQ0BIXShbT0hdKVtDQEhdKFtPSF0pW0NIMl1PUCg9TykoW09IXSlbT0hd

> <s_epik_cmdline>
J2VwaWtfYXBwJywgJy1pbWFlJywgJ2xpZ2FuZF9wcm8ubWFlJywgJy1vbWFlJywgJ2xpZ2FuZF9wcmVwLm1hZScsICctbXMnLCAnMScsICctcGgnLCAnNycsICctcGh0JywgJzAuNScsICctbnQn

> <r_epik_Ionization_Penalty>
  0.1164

> <r_epik_Ionization_Penalty_Charging>
  0.1164

> <r_epik_Ionization_Penalty_Neutral>
  0.0000

> <r_epik_State_Penalty>
  0.1054

> <r_epik_Charging_Adjusted_Penalty>
0.2218027979184

> <i_epik_Tot_Q>
-2

> <i_epik_Tot_abs_Q>
2

$$$$
