1d09_ligand
                    3D
 Schrodinger Suite 2020-3.
 23 22  0  0  1  0            999 V2000
   46.0070   29.5840   15.9460 P   0  0  0  0  0  0
   45.9660   30.5120   17.1780 O   0  5  0  0  0  0
   47.0690   28.5590   15.9510 O   0  0  0  0  0  0
   46.3960   30.6030   14.7470 O   0  0  0  0  0  0
   44.3640   29.0280   15.4540 C   0  0  0  0  0  0
   43.2480   29.9560   15.9130 C   0  0  0  0  0  0
   43.0070   31.0150   15.2890 O   0  0  0  0  0  0
   42.6070   29.5920   17.0360 N   0  0  0  0  0  0
   41.5030   30.3420   17.6060 C   0  0  2  0  0  0
   41.8220   31.6970   18.1950 C   0  0  0  0  0  0
   40.8690   32.4270   18.6500 O   0  5  0  0  0  0
   43.0400   31.9800   18.2310 O   0  0  0  0  0  0
   40.7170   29.4480   18.6010 C   0  0  0  0  0  0
   41.4990   29.1320   19.8640 C   0  0  0  0  0  0
   42.5700   29.7540   20.0760 O   0  0  0  0  0  0
   40.9980   28.2940   20.6580 O   0  5  0  0  0  0
   46.5026   30.2272   13.7187 H   0  0  0  0  0  0
   44.3112   28.9659   14.3570 H   0  0  0  0  0  0
   44.1675   28.0362   15.8873 H   0  0  0  0  0  0
   42.9594   28.6731   17.5273 H   0  0  0  0  0  0
   40.9342   30.6001   16.7005 H   0  0  0  0  0  0
   39.7913   29.9604   18.9018 H   0  0  0  0  0  0
   40.4665   28.4927   18.1166 H   0  0  0  0  0  0
  1  5  1  0  0  0
  1  4  1  0  0  0
  1  3  2  0  0  0
  1  2  1  0  0  0
  4 17  1  0  0  0
  5  6  1  0  0  0
  5 18  1  0  0  0
  5 19  1  0  0  0
  6  8  1  0  0  0
  6  7  2  0  0  0
  8  9  1  0  0  0
  8 20  1  0  0  0
  9 13  1  0  0  0
  9 10  1  0  0  0
  9 21  1  0  0  0
 10 12  2  0  0  0
 10 11  1  0  0  0
 13 14  1  0  0  0
 13 22  1  0  0  0
 13 23  1  0  0  0
 14 16  1  0  0  0
 14 15  2  0  0  0
M  CHG  3   2  -1  11  -1  16  -1
M  END
> <s_m_source_file>
../1d09_ligand.sdf

> <i_m_source_file_index>
1

> <s_epik_input>
W09IXVAoPU8pKFtPSF0pW0NIMl1DKD1PKVtOSF1bQ0BIXShDKD1PKVtPSF0pW0NIMl1DKD1PKVtPSF0=

> <s_epik_cmdline>
J2VwaWtfYXBwJywgJy1pbWFlJywgJ2xpZ2FuZF9wcm8ubWFlJywgJy1vbWFlJywgJ2xpZ2FuZF9wcmVwLm1hZScsICctbXMnLCAnMScsICctcGgnLCAnNycsICctcGh0JywgJzAuNScsICctbnQn

> <r_epik_Ionization_Penalty>
  0.1851

> <r_epik_Ionization_Penalty_Charging>
  0.0015

> <r_epik_Ionization_Penalty_Neutral>
  0.1837

> <r_epik_State_Penalty>
  0.1732

> <r_epik_Charging_Adjusted_Penalty>
0.174683929429732

> <i_epik_Tot_Q>
-3

> <i_epik_Tot_abs_Q>
3

$$$$
