1d1p_ligand
                    3D
 Schrodinger Suite 2020-3.
 33 33  0  0  1  0            999 V2000
   -4.1490    2.2440   29.2940 N   0  0  1  0  0  0
   -4.7340    2.5950   28.0110 C   0  0  0  0  0  0
   -6.0290    3.3870   28.3020 C   0  0  0  0  0  0
   -6.9950    2.5910   29.1150 N   0  3  1  0  0  0
   -6.3200    2.1380   30.3750 C   0  0  0  0  0  0
   -5.0370    1.3620   30.0780 C   0  0  0  0  0  0
   -8.2130    3.4030   29.3810 C   0  0  0  0  0  0
   -9.2680    2.7150   30.2100 C   0  0  0  0  0  0
   -9.7770    1.4870   29.6800 O   0  0  0  0  0  0
   -2.7100    2.0330   29.4200 C   0  0  0  0  0  0
   -2.0160    0.7880   28.9150 C   0  0  0  0  0  0
   -0.3250    1.0900   29.4660 S   0  0  0  0  0  0
   -0.4120    1.8640   30.7390 O   0  5  0  0  0  0
    0.3470   -0.1810   29.6400 O   0  0  0  0  0  0
    0.2900    1.9030   28.4270 O   0  0  0  0  0  0
   -4.0233    3.2107   27.4402 H   0  0  0  0  0  0
   -4.9593    1.6776   27.4475 H   0  0  0  0  0  0
   -5.7814    4.3027   28.8590 H   0  0  0  0  0  0
   -6.5157    3.6555   27.3528 H   0  0  0  0  0  0
   -7.3223    1.6974   28.5633 H   0  0  0  0  0  0
   -6.0619    3.0141   30.9881 H   0  0  0  0  0  0
   -6.9994    1.4826   30.9397 H   0  0  0  0  0  0
   -5.2638    0.4576   29.4944 H   0  0  0  0  0  0
   -4.5367    1.0775   31.0154 H   0  0  0  0  0  0
   -7.9325    4.3178   29.9236 H   0  0  0  0  0  0
   -8.6887    3.6739   28.4269 H   0  0  0  0  0  0
   -8.8559    2.4735   31.2009 H   0  0  0  0  0  0
  -10.1354    3.3814   30.3261 H   0  0  0  0  0  0
  -10.5490    0.9288   30.2298 H   0  0  0  0  0  0
   -2.1742    2.8342   28.8899 H   0  0  0  0  0  0
   -2.4293    2.0455   30.4835 H   0  0  0  0  0  0
   -2.4756   -0.0997   29.3740 H   0  0  0  0  0  0
   -2.1178    0.7295   27.8213 H   0  0  0  0  0  0
  1  2  1  0  0  0
  1  6  1  0  0  0
  1 10  1  0  0  0
  2  3  1  0  0  0
  2 16  1  0  0  0
  2 17  1  0  0  0
  3  4  1  0  0  0
  3 18  1  0  0  0
  3 19  1  0  0  0
  4  5  1  0  0  0
  4  7  1  0  0  0
  4 20  1  0  0  0
  5  6  1  0  0  0
  5 21  1  0  0  0
  5 22  1  0  0  0
  6 23  1  0  0  0
  6 24  1  0  0  0
  7  8  1  0  0  0
  7 25  1  0  0  0
  7 26  1  0  0  0
  8  9  1  0  0  0
  8 27  1  0  0  0
  8 28  1  0  0  0
  9 29  1  0  0  0
 10 11  1  0  0  0
 10 30  1  0  0  0
 10 31  1  0  0  0
 11 12  1  0  0  0
 11 32  1  0  0  0
 11 33  1  0  0  0
 12 13  1  0  0  0
 12 14  2  0  0  0
 12 15  2  0  0  0
M  CHG  2   4   1  13  -1
M  END
> <s_m_source_file>
../1d1p_ligand.sdf

> <i_m_source_file_index>
1

> <s_epik_input>
W09IXVMoPU8pKD1PKVtDSDJdW0NIMl1bTkBIK10xW0NIMl1bQ0gyXVtOQEBIK10oW0NIMl1bQ0gyXTEpW0NIMl1bQ0gyXVtPSF0=

> <s_epik_cmdline>
J2VwaWtfYXBwJywgJy1pbWFlJywgJ2xpZ2FuZF9wcm8ubWFlJywgJy1vbWFlJywgJ2xpZ2FuZF9wcmVwLm1hZScsICctbXMnLCAnMScsICctcGgnLCAnNycsICctcGh0JywgJzAuNScsICctbnQn

> <r_lp_tautomer_probability>
1

> <r_epik_Ionization_Penalty>
  0.0766

> <r_epik_Ionization_Penalty_Charging>
  0.0762

> <r_epik_Ionization_Penalty_Neutral>
  0.0003

> <r_epik_State_Penalty>
 -0.0000

> <r_epik_Charging_Adjusted_Penalty>
0.0762199954204676

> <i_epik_Tot_Q>
0

> <i_epik_Tot_abs_Q>
2

$$$$
