1d2e_ligand
                    3D
 Schrodinger Suite 2020-3.
 40 42  0  0  1  0            999 V2000
   15.0110   -9.2550   51.5850 P   0  0  0  0  0  0
   13.9500   -8.2270   51.4310 O   0  5  0  0  0  0
   16.3970   -8.8090   51.3940 O   0  5  0  0  0  0
   14.9260   -9.9600   52.8640 O   0  0  0  0  0  0
   14.7190  -10.3520   50.4300 O   0  0  0  0  0  0
   15.7050  -11.0870   49.3880 P   0  0  2  0  0  0
   16.7180  -11.7660   50.1830 O   0  0  0  0  0  0
   16.1670  -10.1300   48.3710 O   0  5  0  0  0  0
   14.6570  -12.0580   48.6940 O   0  0  0  0  0  0
   14.0320  -13.1030   49.4630 C   0  0  0  0  0  0
   13.6600  -14.2930   48.5890 C   0  0  1  0  0  0
   12.7790  -13.7980   47.5370 O   0  0  0  0  0  0
   14.8410  -14.9450   47.8800 C   0  0  1  0  0  0
   14.5130  -16.3390   47.8370 O   0  0  0  0  0  0
   14.7960  -14.2460   46.5010 C   0  0  1  0  0  0
   15.4360  -15.0050   45.4610 O   0  0  0  0  0  0
   13.3110  -14.0890   46.2500 C   0  0  2  0  0  0
   13.0310  -12.9640   45.3100 N   0  0  0  0  0  0
   13.5230  -11.6600   45.2960 C   0  0  0  0  0  0
   13.0810  -10.9130   44.3050 N   0  0  0  0  0  0
   12.2370  -11.7830   43.6180 C   0  0  0  0  0  0
   11.4500  -11.6020   42.4490 C   0  0  0  0  0  0
   11.3410  -10.5700   41.7410 O   0  0  0  0  0  0
   10.7290  -12.7430   42.0810 N   0  0  0  0  0  0
   10.7530  -13.9570   42.7630 C   0  0  0  0  0  0
   10.0130  -14.9500   42.2960 N   0  0  0  0  0  0
   11.4940  -14.1540   43.8660 N   0  0  0  0  0  0
   12.2010  -13.0460   44.2380 C   0  0  0  0  0  0
   14.7253  -13.4481   50.2441 H   0  0  0  0  0  0
   13.1154  -12.7153   49.9316 H   0  0  0  0  0  0
   13.1732  -15.0414   49.2316 H   0  0  0  0  0  0
   15.8405  -14.9173   48.3386 H   0  0  0  0  0  0
   14.5144  -16.9332   48.7627 H   0  0  0  0  0  0
   15.3712  -13.3105   46.4377 H   0  0  0  0  0  0
   16.5174  -15.2006   45.5088 H   0  0  0  0  0  0
   12.8327  -14.9838   45.8250 H   0  0  0  0  0  0
   14.2196  -11.2872   46.0469 H   0  0  0  0  0  0
   10.0820  -12.7217   41.1916 H   0  0  0  0  0  0
    9.4013  -14.8029   41.3937 H   0  0  0  0  0  0
   10.0097  -15.9224   42.8102 H   0  0  0  0  0  0
  1  2  1  0  0  0
  1  3  1  0  0  0
  1  4  2  0  0  0
  1  5  1  0  0  0
  5  6  1  0  0  0
  6  7  2  0  0  0
  6  8  1  0  0  0
  6  9  1  0  0  0
  9 10  1  0  0  0
 10 11  1  0  0  0
 10 29  1  0  0  0
 10 30  1  0  0  0
 11 12  1  0  0  0
 11 13  1  0  0  0
 11 31  1  0  0  0
 12 17  1  0  0  0
 13 14  1  0  0  0
 13 15  1  0  0  0
 13 32  1  0  0  0
 14 33  1  0  0  0
 15 16  1  0  0  0
 15 17  1  0  0  0
 15 34  1  0  0  0
 16 35  1  0  0  0
 17 18  1  0  0  0
 17 36  1  0  0  0
 18 19  1  0  0  0
 18 28  1  0  0  0
 19 20  2  0  0  0
 19 37  1  0  0  0
 20 21  1  0  0  0
 21 22  1  0  0  0
 21 28  2  0  0  0
 22 23  2  0  0  0
 22 24  1  0  0  0
 24 25  1  0  0  0
 24 38  1  0  0  0
 25 26  1  0  0  0
 25 27  2  0  0  0
 26 39  1  0  0  0
 26 40  1  0  0  0
 27 28  1  0  0  0
M  CHG  3   2  -1   3  -1   8  -1
M  END
> <s_m_source_file>
../1d2e_ligand.sdf

> <i_m_source_file_index>
1

> <s_epik_input>
W09IXVAoPU8pKFtPSF0pT1tQQF0oPU8pKFtPSF0pT1tDSDJdW0NASF0xT1tDQEhdKFtDQEhdKFtPSF0pW0NAQEhdMVtPSF0pbihbY0hdbjIpYyhjMjMpbmMoW05IMl0pW25IXWMzPU8=

> <s_epik_cmdline>
J2VwaWtfYXBwJywgJy1pbWFlJywgJ2xpZ2FuZF9wcm8ubWFlJywgJy1vbWFlJywgJ2xpZ2FuZF9wcmVwLm1hZScsICctbXMnLCAnMScsICctcGgnLCAnNycsICctcGh0JywgJzAuNScsICctbnQn

> <r_lp_tautomer_probability>
0.999940409345307

> <r_epik_Ionization_Penalty>
  0.1052

> <r_epik_Ionization_Penalty_Charging>
  0.1051

> <r_epik_Ionization_Penalty_Neutral>
  0.0001

> <r_epik_State_Penalty>
  0.0922

> <r_epik_Charging_Adjusted_Penalty>
0.197315167096652

> <i_epik_Tot_Q>
-3

> <i_epik_Tot_abs_Q>
3

> <s_epik_Chemistry_Notes>
This compound contains an acetal/aminal-like group ( X-CH(R)-Y where X, Y are N, S, or O) that may be acid/base labile, releasing an aldehyde.

$$$$
