1d2s_ligand
                    3D
 Schrodinger Suite 2020-3.
 51 54  0  0  1  0            999 V2000
   24.1170   10.0290   30.8710 C   0  0  0  0  0  0
   25.6170   10.2080   30.7070 C   0  0  0  0  0  0
   25.9240   11.6880   30.9260 C   0  0  0  0  0  0
   26.7490   12.2160   30.1970 O   0  0  0  0  0  0
   25.3280   12.3550   32.0980 C   0  0  0  0  0  0
   23.8150   12.1130   32.2100 C   0  0  2  0  0  0
   23.1680   12.8120   33.4110 C   0  0  0  0  0  0
   21.6550   12.6940   33.3480 C   0  0  0  0  0  0
   21.2150   11.2150   33.2530 C   0  0  2  0  0  0
   21.9310   10.4950   32.0790 C   0  0  1  0  0  0
   23.4820   10.5860   32.1520 C   0  0  1  0  0  0
   21.3950    9.0530   31.9520 C   0  0  0  0  0  0
   19.8950    8.8690   31.9120 C   0  0  0  0  0  0
   19.2090    9.6180   33.0450 C   0  0  1  0  0  0
   19.7140   11.0760   33.0650 C   0  0  1  0  0  0
   18.8010   11.7140   34.1110 C   0  0  0  0  0  0
   17.4270   11.0930   33.8070 C   0  0  0  0  0  0
   17.7320    9.9090   32.8670 C   0  0  2  0  0  0
   16.8630    8.8090   33.1480 O   0  0  0  0  0  0
   19.4690    8.9360   34.4120 C   0  0  0  0  0  0
   24.0060    9.8790   33.4240 C   0  0  0  0  0  0
   23.5952   10.5296   30.0421 H   0  0  0  0  0  0
   23.8727    8.9565   30.8636 H   0  0  0  0  0  0
   26.1433    9.5904   31.4497 H   0  0  0  0  0  0
   25.9148    9.8975   29.6946 H   0  0  0  0  0  0
   25.7996   11.9741   33.0159 H   0  0  0  0  0  0
   25.4917   13.4403   32.0249 H   0  0  0  0  0  0
   23.3641   12.6088   31.3377 H   0  0  0  0  0  0
   23.5230   12.3455   34.3417 H   0  0  0  0  0  0
   23.4425   13.8772   33.4069 H   0  0  0  0  0  0
   21.2148   13.1342   34.2549 H   0  0  0  0  0  0
   21.2820   13.2293   32.4624 H   0  0  0  0  0  0
   21.4763   10.7453   34.2128 H   0  0  0  0  0  0
   21.6818   11.0209   31.1455 H   0  0  0  0  0  0
   21.7688    8.6037   31.0201 H   0  0  0  0  0  0
   21.7390    8.4570   32.8102 H   0  0  0  0  0  0
   19.5042    9.2500   30.9570 H   0  0  0  0  0  0
   19.6541    7.7999   32.0064 H   0  0  0  0  0  0
   19.6485   11.6132   32.1073 H   0  0  0  0  0  0
   19.1636   11.4600   35.1180 H   0  0  0  0  0  0
   18.8058   12.8067   33.9844 H   0  0  0  0  0  0
   16.9595   10.7598   34.7453 H   0  0  0  0  0  0
   16.7843   11.8434   33.3235 H   0  0  0  0  0  0
   17.5016   10.0664   31.8030 H   0  0  0  0  0  0
   16.9467    7.8793   32.5660 H   0  0  0  0  0  0
   20.5446    8.7334   34.5220 H   0  0  0  0  0  0
   18.9106    7.9896   34.4617 H   0  0  0  0  0  0
   19.1364    9.6010   35.2227 H   0  0  0  0  0  0
   25.1029    9.9531   33.4591 H   0  0  0  0  0  0
   23.7105    8.8196   33.4027 H   0  0  0  0  0  0
   23.5772   10.3615   34.3147 H   0  0  0  0  0  0
  1  2  1  0  0  0
  1 11  1  0  0  0
  1 22  1  0  0  0
  1 23  1  0  0  0
  2  3  1  0  0  0
  2 24  1  0  0  0
  2 25  1  0  0  0
  3  4  2  0  0  0
  3  5  1  0  0  0
  5  6  1  0  0  0
  5 26  1  0  0  0
  5 27  1  0  0  0
  6  7  1  0  0  0
  6 11  1  0  0  0
  6 28  1  0  0  0
  7  8  1  0  0  0
  7 29  1  0  0  0
  7 30  1  0  0  0
  8  9  1  0  0  0
  8 31  1  0  0  0
  8 32  1  0  0  0
  9 10  1  0  0  0
  9 15  1  0  0  0
  9 33  1  0  0  0
 10 11  1  0  0  0
 10 12  1  0  0  0
 10 34  1  0  0  0
 11 21  1  0  0  0
 12 13  1  0  0  0
 12 35  1  0  0  0
 12 36  1  0  0  0
 13 14  1  0  0  0
 13 37  1  0  0  0
 13 38  1  0  0  0
 14 15  1  0  0  0
 14 18  1  0  0  0
 14 20  1  0  0  0
 15 16  1  0  0  0
 15 39  1  0  0  0
 16 17  1  0  0  0
 16 40  1  0  0  0
 16 41  1  0  0  0
 17 18  1  0  0  0
 17 42  1  0  0  0
 17 43  1  0  0  0
 18 19  1  0  0  0
 18 44  1  0  0  0
 19 45  1  0  0  0
 20 46  1  0  0  0
 20 47  1  0  0  0
 20 48  1  0  0  0
 21 49  1  0  0  0
 21 50  1  0  0  0
 21 51  1  0  0  0
M  END
> <s_m_source_file>
../1d2s_ligand.sdf

> <i_m_source_file_index>
1

> <s_epik_input>
W0NIMl0xW0NIMl1DKD1PKVtDSDJdW0NAQEhdKFtDQF0xMltDSDNdKVtDSDJdW0NIMl1bQ0BASF0zW0NAQEhdMltDSDJdW0NIMl1bQ0BAXTQoW0NIM10pW0NASF0zW0NIMl1bQ0gyXVtDQEBIXTRbT0hd

> <s_epik_cmdline>
J2VwaWtfYXBwJywgJy1pbWFlJywgJ2xpZ2FuZF9wcm8ubWFlJywgJy1vbWFlJywgJ2xpZ2FuZF9wcmVwLm1hZScsICctbXMnLCAnMScsICctcGgnLCAnNycsICctcGh0JywgJzAuNScsICctbnQn

> <r_lp_tautomer_probability>
1

> <r_epik_Ionization_Penalty>
  0.0000

> <r_epik_Ionization_Penalty_Charging>
  0.0000

> <r_epik_Ionization_Penalty_Neutral>
  0.0000

> <r_epik_State_Penalty>
 -0.0000

> <r_epik_Charging_Adjusted_Penalty>
0

> <i_epik_Tot_Q>
0

> <i_epik_Tot_abs_Q>
0

$$$$
