1d3d_ligand
                    3D
 Schrodinger Suite 2020-3.
 75 80  0  0  1  0            999 V2000
  -24.0350  -30.4500   24.2640 C   0  0  0  0  0  0
  -24.3170  -31.5200   23.3160 C   0  0  0  0  0  0
  -23.4150  -31.8990   22.2780 C   0  0  0  0  0  0
  -22.1640  -31.2090   22.1440 C   0  0  0  0  0  0
  -21.8720  -30.1510   23.0670 C   0  0  0  0  0  0
  -22.7970  -29.7740   24.1230 C   0  0  0  0  0  0
  -23.5320  -33.1090   21.0650 S   0  0  0  0  0  0
  -22.0620  -32.7980   20.3770 C   0  0  0  0  0  0
  -21.3850  -31.7250   21.0720 C   0  0  0  0  0  0
  -19.9710  -31.4780   20.7020 C   0  0  0  0  0  0
  -21.5630  -33.5970   19.2000 C   0  0  0  0  0  0
  -20.9090  -33.0210   18.0190 C   0  0  0  0  0  0
  -20.4460  -33.8360   16.9690 C   0  0  0  0  0  0
  -20.5930  -35.2450   17.0130 C   0  0  0  0  0  0
  -21.2520  -35.8150   18.1900 C   0  0  0  0  0  0
  -21.7360  -35.0190   19.2830 C   0  0  0  0  0  0
  -20.0690  -35.9550   15.8820 O   0  0  0  0  0  0
  -20.1990  -37.4370   15.8820 C   0  0  0  0  0  0
  -19.0980  -33.6610   21.9920 C   0  0  0  0  0  0
  -18.8100  -32.5210   21.1830 C   0  0  0  0  0  0
  -17.4520  -32.3350   20.7780 C   0  0  0  0  0  0
  -16.4170  -33.2730   21.1780 C   0  0  0  0  0  0
  -16.7000  -34.4010   21.9880 C   0  0  0  0  0  0
  -18.0690  -34.5420   22.3680 C   0  0  0  0  0  0
  -14.7860  -32.8190   20.5240 Br  0  0  0  0  0  0
  -15.6910  -35.4540   22.4810 C   0  0  0  0  0  0
  -14.2590  -35.6570   25.9730 C   0  0  0  0  0  0
  -14.4620  -34.1290   25.8850 C   0  0  0  0  0  0
  -14.6010  -34.0250   24.3150 C   0  0  0  0  0  0
  -15.2820  -35.3250   23.8710 N   0  3  0  0  0  0
  -14.3020  -36.2570   24.5330 C   0  0  0  0  0  0
  -17.3350  -38.2190   13.5550 C   0  0  0  0  0  0
  -18.1380  -38.5400   14.7330 N   0  3  0  0  0  0
  -17.8940  -39.9830   14.8510 C   0  0  0  0  0  0
  -16.3620  -39.9680   14.9020 C   0  0  0  0  0  0
  -15.9450  -38.7570   14.0180 C   0  0  0  0  0  0
  -19.6010  -38.1560   14.6320 C   0  0  0  0  0  0
  -24.8940  -30.0890   25.2580 O   0  0  0  0  0  0
  -25.2619  -32.0562   23.4042 H   0  0  0  0  0  0
  -20.9283  -29.6135   22.9739 H   0  0  0  0  0  0
  -22.5376  -28.9680   24.8094 H   0  0  0  0  0  0
  -19.8765  -31.4601   19.6062 H   0  0  0  0  0  0
  -19.6479  -30.5105   21.1137 H   0  0  0  0  0  0
  -20.7793  -31.9407   17.9538 H   0  0  0  0  0  0
  -19.9655  -33.3750   16.1060 H   0  0  0  0  0  0
  -21.3815  -36.8962   18.2389 H   0  0  0  0  0  0
  -22.2180  -35.4791   20.1456 H   0  0  0  0  0  0
  -19.6802  -37.8506   16.7594 H   0  0  0  0  0  0
  -21.2634  -37.7117   15.9222 H   0  0  0  0  0  0
  -20.1203  -33.8494   22.3198 H   0  0  0  0  0  0
  -17.1889  -31.4767   20.1598 H   0  0  0  0  0  0
  -18.3353  -35.3934   22.9943 H   0  0  0  0  0  0
  -16.1288  -36.4578   22.3778 H   0  0  0  0  0  0
  -14.7721  -35.3911   21.8796 H   0  0  0  0  0  0
  -13.2845  -35.8713   26.4360 H   0  0  0  0  0  0
  -15.0601  -36.0988   26.5837 H   0  0  0  0  0  0
  -15.3614  -33.8454   26.4513 H   0  0  0  0  0  0
  -13.5853  -33.6176   26.3091 H   0  0  0  0  0  0
  -15.2110  -33.1463   24.0583 H   0  0  0  0  0  0
  -13.6027  -33.9226   23.8645 H   0  0  0  0  0  0
  -16.3366  -35.5263   24.1102 H   0  0  0  0  0  0
  -13.2948  -36.2244   24.0920 H   0  0  0  0  0  0
  -14.6479  -37.3001   24.5806 H   0  0  0  0  0  0
  -17.7461  -38.7403   12.6779 H   0  0  0  0  0  0
  -17.3580  -37.1332   13.3803 H   0  0  0  0  0  0
  -17.8196  -37.9752   15.6216 H   0  0  0  0  0  0
  -18.3746  -40.3626   15.7648 H   0  0  0  0  0  0
  -18.3137  -40.4987   13.9747 H   0  0  0  0  0  0
  -16.0310  -39.8447   15.9438 H   0  0  0  0  0  0
  -15.9725  -40.9164   14.5033 H   0  0  0  0  0  0
  -15.3513  -39.0442   13.1377 H   0  0  0  0  0  0
  -15.4154  -37.9715   14.5770 H   0  0  0  0  0  0
  -20.1530  -39.0893   14.4468 H   0  0  0  0  0  0
  -19.6877  -37.4985   13.7544 H   0  0  0  0  0  0
  -24.6278  -29.2725   25.9454 H   0  0  0  0  0  0
  1 38  1  0  0  0
  1  6  1  0  0  0
  1  2  2  0  0  0
  2  3  1  0  0  0
  2 39  1  0  0  0
  3  7  1  0  0  0
  3  4  2  0  0  0
  4  9  1  0  0  0
  4  5  1  0  0  0
  5  6  2  0  0  0
  5 40  1  0  0  0
  6 41  1  0  0  0
  7  8  1  0  0  0
  8  9  2  0  0  0
  8 11  1  0  0  0
  9 10  1  0  0  0
 10 20  1  0  0  0
 10 42  1  0  0  0
 10 43  1  0  0  0
 11 16  2  0  0  0
 11 12  1  0  0  0
 12 13  2  0  0  0
 12 44  1  0  0  0
 13 14  1  0  0  0
 13 45  1  0  0  0
 14 17  1  0  0  0
 14 15  2  0  0  0
 15 16  1  0  0  0
 15 46  1  0  0  0
 16 47  1  0  0  0
 17 18  1  0  0  0
 18 37  1  0  0  0
 18 48  1  0  0  0
 18 49  1  0  0  0
 19 20  2  0  0  0
 19 24  1  0  0  0
 19 50  1  0  0  0
 20 21  1  0  0  0
 21 22  2  0  0  0
 21 51  1  0  0  0
 22 25  1  0  0  0
 22 23  1  0  0  0
 23 26  1  0  0  0
 23 24  2  0  0  0
 24 52  1  0  0  0
 26 30  1  0  0  0
 26 53  1  0  0  0
 26 54  1  0  0  0
 27 28  1  0  0  0
 27 31  1  0  0  0
 27 55  1  0  0  0
 27 56  1  0  0  0
 28 29  1  0  0  0
 28 57  1  0  0  0
 28 58  1  0  0  0
 29 30  1  0  0  0
 29 59  1  0  0  0
 29 60  1  0  0  0
 30 31  1  0  0  0
 30 61  1  0  0  0
 31 62  1  0  0  0
 31 63  1  0  0  0
 32 33  1  0  0  0
 32 36  1  0  0  0
 32 64  1  0  0  0
 32 65  1  0  0  0
 33 37  1  0  0  0
 33 34  1  0  0  0
 33 66  1  0  0  0
 34 35  1  0  0  0
 34 67  1  0  0  0
 34 68  1  0  0  0
 35 36  1  0  0  0
 35 69  1  0  0  0
 35 70  1  0  0  0
 36 71  1  0  0  0
 36 72  1  0  0  0
 37 73  1  0  0  0
 37 74  1  0  0  0
 38 75  1  0  0  0
M  CHG  2  30   1  33   1
M  END
> <s_m_source_file>
../1d3d_ligand.sdf

> <i_m_source_file_index>
1

> <s_epik_input>
W0NIMl0xW0NIMl1bQ0gyXVtDSDJdW05IK10xW0NIMl1jKGMoQnIpW2NIXTIpW2NIXVtjSF1jMltDSDJdYyhjKGMzNClbY0hdW2NIXWMoW2NIXTMpW09IXSljKHM0KS1jNVtjSF1bY0hdYyhbY0hdW2NIXTUpT1tDSDJdW0NIMl1bTkgrXTZbQ0gyXVtDSDJdW0NIMl1bQ0gyXTY=

> <s_epik_cmdline>
J2VwaWtfYXBwJywgJy1pbWFlJywgJ2xpZ2FuZF9wcm8ubWFlJywgJy1vbWFlJywgJ2xpZ2FuZF9wcmVwLm1hZScsICctbXMnLCAnMScsICctcGgnLCAnNycsICctcGh0JywgJzAuNScsICctbnQn

> <r_lp_tautomer_probability>
1

> <r_epik_Ionization_Penalty>
  0.0224

> <r_epik_Ionization_Penalty_Charging>
  0.0200

> <r_epik_Ionization_Penalty_Neutral>
  0.0024

> <r_epik_State_Penalty>
  0.0091

> <r_epik_Charging_Adjusted_Penalty>
0.0291095835143924

> <i_epik_Tot_Q>
2

> <i_epik_Tot_abs_Q>
2

$$$$
