1d3q_ligand
                    3D
 Schrodinger Suite 2020-3.
 78 83  0  0  1  0            999 V2000
  -24.4230  -31.4070   24.2210 C   0  0  0  0  0  0
  -24.6650  -32.4170   23.0810 C   0  0  0  0  0  0
  -23.6790  -32.6080   21.9900 C   0  0  0  0  0  0
  -22.4190  -31.8410   21.9370 C   0  0  0  0  0  0
  -22.1770  -30.8350   22.9600 C   0  0  0  0  0  0
  -23.1530  -30.5660   24.1330 C   0  0  0  0  0  0
  -23.6470  -33.8000   20.8240 S   0  0  0  0  0  0
  -22.0880  -33.4520   20.1540 C   0  0  0  0  0  0
  -21.5320  -32.3500   20.8900 C   0  0  0  0  0  0
  -20.0330  -31.8890   20.7210 C   0  0  0  0  0  0
  -21.4260  -34.1300   18.9550 C   0  0  0  0  0  0
  -20.6730  -33.4050   17.8610 C   0  0  0  0  0  0
  -19.8730  -34.1180   16.7580 C   0  0  0  0  0  0
  -19.8620  -35.6420   16.7600 C   0  0  0  0  0  0
  -20.6000  -36.3640   17.9070 C   0  0  0  0  0  0
  -21.3850  -35.5920   18.9530 C   0  0  0  0  0  0
  -19.2780  -36.3290   15.6790 O   0  0  0  0  0  0
  -19.7400  -37.7380   15.4470 C   0  0  0  0  0  0
  -19.0820  -34.1270   22.0000 C   0  0  0  0  0  0
  -18.8900  -32.7840   21.3360 C   0  0  0  0  0  0
  -17.4420  -32.2930   21.2360 C   0  0  0  0  0  0
  -16.2420  -33.1290   21.7230 C   0  0  0  0  0  0
  -16.4770  -34.5320   22.2930 C   0  0  0  0  0  0
  -17.9200  -34.9490   22.4970 C   0  0  0  0  0  0
  -15.4510  -35.4620   22.4970 O   0  0  0  0  0  0
  -15.4980  -36.3170   23.6870 C   0  0  0  0  0  0
  -13.6880  -34.0420   27.4530 C   0  0  0  0  0  0
  -13.3740  -33.1640   26.2400 C   0  0  0  0  0  0
  -13.5440  -33.9740   24.9710 C   0  0  0  0  0  0
  -14.0910  -35.3050   25.4950 N   0  3  0  0  0  0
  -14.0850  -35.4630   26.9900 C   0  0  0  0  0  0
  -16.5820  -39.7150   14.1100 C   0  0  0  0  0  0
  -17.5190  -39.0810   15.1530 N   0  3  0  0  0  0
  -17.7980  -39.9780   16.3550 C   0  0  0  0  0  0
  -17.3290  -41.3500   15.8450 C   0  0  0  0  0  0
  -16.7400  -41.2040   14.4320 C   0  0  0  0  0  0
  -14.1860  -36.4010   24.4910 C   0  0  0  0  0  0
  -18.8370  -38.6190   14.5710 C   0  0  0  0  0  0
  -25.1243  -31.2993   25.0484 H   0  0  0  0  0  0
  -25.5830  -33.0047   23.0771 H   0  0  0  0  0  0
  -21.2647  -30.2417   22.8982 H   0  0  0  0  0  0
  -22.9382  -29.7970   24.8750 H   0  0  0  0  0  0
  -19.7884  -31.8222   19.6506 H   0  0  0  0  0  0
  -19.8973  -30.9034   21.1903 H   0  0  0  0  0  0
  -20.6991  -32.3153   17.8543 H   0  0  0  0  0  0
  -19.3317  -33.5521   15.9998 H   0  0  0  0  0  0
  -20.5569  -37.4515   17.9677 H   0  0  0  0  0  0
  -21.9309  -36.1406   19.7206 H   0  0  0  0  0  0
  -19.8246  -38.2596   16.4117 H   0  0  0  0  0  0
  -20.7212  -37.7250   14.9499 H   0  0  0  0  0  0
  -20.0933  -34.5144   22.1238 H   0  0  0  0  0  0
  -17.2525  -31.3112   20.8022 H   0  0  0  0  0  0
  -15.2317  -32.7244   21.6623 H   0  0  0  0  0  0
  -18.1258  -35.8806   23.0242 H   0  0  0  0  0  0
  -16.2645  -35.9394   24.3797 H   0  0  0  0  0  0
  -15.7477  -37.3461   23.3895 H   0  0  0  0  0  0
  -12.7996  -34.1071   28.0983 H   0  0  0  0  0  0
  -14.5211  -33.6004   28.0195 H   0  0  0  0  0  0
  -14.0613  -32.3053   26.2212 H   0  0  0  0  0  0
  -12.3373  -32.8025   26.3075 H   0  0  0  0  0  0
  -14.2467  -33.4595   24.2990 H   0  0  0  0  0  0
  -12.5701  -34.0809   24.4710 H   0  0  0  0  0  0
  -15.1730  -35.4869   25.5730 H   0  0  0  0  0  0
  -13.3376  -36.1870   27.3466 H   0  0  0  0  0  0
  -15.0714  -35.7210   27.4028 H   0  0  0  0  0  0
  -16.9241  -39.4478   13.0993 H   0  0  0  0  0  0
  -15.5585  -39.3414   14.2614 H   0  0  0  0  0  0
  -16.9713  -38.1939   15.5040 H   0  0  0  0  0  0
  -17.2220  -39.6201   17.2211 H   0  0  0  0  0  0
  -18.8718  -39.9501   16.5919 H   0  0  0  0  0  0
  -16.5590  -41.7490   16.5216 H   0  0  0  0  0  0
  -18.1839  -42.0415   15.8140 H   0  0  0  0  0  0
  -17.4156  -41.6681   13.6984 H   0  0  0  0  0  0
  -15.7568  -41.6952   14.3871 H   0  0  0  0  0  0
  -14.1418  -37.3639   25.0210 H   0  0  0  0  0  0
  -13.3298  -36.3204   23.8051 H   0  0  0  0  0  0
  -19.3724  -39.5424   14.3050 H   0  0  0  0  0  0
  -18.5699  -38.0729   13.6542 H   0  0  0  0  0  0
  1  2  2  0  0  0
  1  6  1  0  0  0
  1 39  1  0  0  0
  2  3  1  0  0  0
  2 40  1  0  0  0
  3  4  2  0  0  0
  3  7  1  0  0  0
  4  5  1  0  0  0
  4  9  1  0  0  0
  5  6  2  0  0  0
  5 41  1  0  0  0
  6 42  1  0  0  0
  7  8  1  0  0  0
  8  9  2  0  0  0
  8 11  1  0  0  0
  9 10  1  0  0  0
 10 20  1  0  0  0
 10 43  1  0  0  0
 10 44  1  0  0  0
 11 12  2  0  0  0
 11 16  1  0  0  0
 12 13  1  0  0  0
 12 45  1  0  0  0
 13 14  2  0  0  0
 13 46  1  0  0  0
 14 15  1  0  0  0
 14 17  1  0  0  0
 15 16  2  0  0  0
 15 47  1  0  0  0
 16 48  1  0  0  0
 17 18  1  0  0  0
 18 38  1  0  0  0
 18 49  1  0  0  0
 18 50  1  0  0  0
 19 20  2  0  0  0
 19 24  1  0  0  0
 19 51  1  0  0  0
 20 21  1  0  0  0
 21 22  2  0  0  0
 21 52  1  0  0  0
 22 23  1  0  0  0
 22 53  1  0  0  0
 23 24  2  0  0  0
 23 25  1  0  0  0
 24 54  1  0  0  0
 25 26  1  0  0  0
 26 37  1  0  0  0
 26 55  1  0  0  0
 26 56  1  0  0  0
 27 28  1  0  0  0
 27 31  1  0  0  0
 27 57  1  0  0  0
 27 58  1  0  0  0
 28 29  1  0  0  0
 28 59  1  0  0  0
 28 60  1  0  0  0
 29 30  1  0  0  0
 29 61  1  0  0  0
 29 62  1  0  0  0
 30 31  1  0  0  0
 30 37  1  0  0  0
 30 63  1  0  0  0
 31 64  1  0  0  0
 31 65  1  0  0  0
 32 33  1  0  0  0
 32 36  1  0  0  0
 32 66  1  0  0  0
 32 67  1  0  0  0
 33 34  1  0  0  0
 33 38  1  0  0  0
 33 68  1  0  0  0
 34 35  1  0  0  0
 34 69  1  0  0  0
 34 70  1  0  0  0
 35 36  1  0  0  0
 35 71  1  0  0  0
 35 72  1  0  0  0
 36 73  1  0  0  0
 36 74  1  0  0  0
 37 75  1  0  0  0
 37 76  1  0  0  0
 38 77  1  0  0  0
 38 78  1  0  0  0
M  CHG  2  30   1  33   1
M  END
> <s_m_source_file>
../1d3q_ligand.sdf

> <i_m_source_file_index>
1

> <s_epik_input>
W0NIMl0xW0NIMl1bQ0gyXVtDSDJdW05IK10xW0NIMl1bQ0gyXU9jKFtjSF1bY0hdMilbY0hdW2NIXWMyLWMoczMpYyhjKGMzNClbY0hdW2NIXVtjSF1bY0hdNClbQ0gyXWM1W2NIXVtjSF1jKFtjSF1bY0hdNSlPW0NIMl1bQ0gyXVtOSCtdNltDSDJdW0NIMl1bQ0gyXVtDSDJdNg==

> <s_epik_cmdline>
J2VwaWtfYXBwJywgJy1pbWFlJywgJ2xpZ2FuZF9wcm8ubWFlJywgJy1vbWFlJywgJ2xpZ2FuZF9wcmVwLm1hZScsICctbXMnLCAnMScsICctcGgnLCAnNycsICctcGh0JywgJzAuNScsICctbnQn

> <r_lp_tautomer_probability>
1

> <r_epik_Ionization_Penalty>
  0.0153

> <r_epik_Ionization_Penalty_Charging>
  0.0153

> <r_epik_Ionization_Penalty_Neutral>
  0.0000

> <r_epik_State_Penalty>
 -0.0000

> <r_epik_Charging_Adjusted_Penalty>
0.0152814094310793

> <i_epik_Tot_Q>
2

> <i_epik_Tot_abs_Q>
2

$$$$
