1d4h_ligand
                    3D
 Schrodinger Suite 2020-3.
 83 87  0  0  1  0            999 V2000
   13.8830   22.9830    5.0040 C   0  0  1  0  0  0
   14.3650   22.6670    3.6600 O   0  0  0  0  0  0
   14.9600   22.7210    6.0280 C   0  0  1  0  0  0
   14.5170   23.0660    7.3690 O   0  0  0  0  0  0
   15.6190   23.4100    8.2480 C   0  0  0  0  0  0
   16.3260   22.2030    8.8480 C   0  0  0  0  0  0
   15.5640   21.2040    9.5830 C   0  0  0  0  0  0
   16.2100   20.0020   10.0420 C   0  0  0  0  0  0
   17.6090   19.7970    9.7840 C   0  0  0  0  0  0
   18.3730   20.7890    9.0700 C   0  0  0  0  0  0
   17.7390   21.9900    8.6030 C   0  0  0  0  0  0
   15.1550   21.2440    5.9140 C   0  0  0  0  0  0
   14.2250   20.4730    6.1690 O   0  0  0  0  0  0
   16.3950   20.7770    5.5250 N   0  0  0  0  0  0
   16.6620   19.3630    5.3800 C   0  0  1  0  0  0
   16.5800   18.8980    3.9460 C   0  0  0  0  0  0
   15.7100   19.3340    2.8860 C   0  0  0  0  0  0
   15.8260   18.7360    1.5760 C   0  0  0  0  0  0
   16.8120   17.7130    1.3370 C   0  0  0  0  0  0
   17.6910   17.2750    2.3880 C   0  0  0  0  0  0
   17.5630   17.8790    3.6860 C   0  0  0  0  0  0
   18.3590   17.6050    4.9160 C   0  0  0  0  0  0
   18.0710   18.8740    5.7570 C   0  0  1  0  0  0
   19.0070   19.9050    5.4410 O   0  0  0  0  0  0
   13.3530   24.3940    5.0200 C   0  0  1  0  0  0
   14.3870   25.2310    4.4320 O   0  0  0  0  0  0
   12.0260   24.5700    4.2790 C   0  0  1  0  0  0
   11.8090   23.5440    3.2680 O   0  0  0  0  0  0
   11.1600   24.0600    2.0790 C   0  0  0  0  0  0
    9.6430   24.1590    2.1710 C   0  0  0  0  0  0
    8.9720   25.3820    1.7890 C   0  0  0  0  0  0
    7.5430   25.5030    1.9360 C   0  0  0  0  0  0
    6.7800   24.4030    2.4590 C   0  0  0  0  0  0
    7.4370   23.1770    2.8360 C   0  0  0  0  0  0
    8.8640   23.0480    2.6930 C   0  0  0  0  0  0
   10.9120   24.5110    5.3070 C   0  0  0  0  0  0
   10.7420   23.5120    6.0230 O   0  0  0  0  0  0
   10.0410   25.5750    5.3910 N   0  0  0  0  0  0
    8.9490   25.5690    6.3440 C   0  0  0  0  0  0
    8.9270   26.5240    7.4150 C   0  0  0  0  0  0
    7.7390   27.3260    7.6450 C   0  0  0  0  0  0
    7.7190   28.2790    8.7250 C   0  0  0  0  0  0
    8.8720   28.4340    9.5710 C   0  0  0  0  0  0
   10.0540   27.6410    9.3460 C   0  0  0  0  0  0
   10.0840   26.6870    8.2700 C   0  0  0  0  0  0
   13.0497   22.3084    5.2502 H   0  0  0  0  0  0
   14.7919   21.6757    3.4477 H   0  0  0  0  0  0
   15.8721   23.3199    5.8883 H   0  0  0  0  0  0
   16.3712   23.9829    7.6859 H   0  0  0  0  0  0
   15.2446   24.0183    9.0846 H   0  0  0  0  0  0
   14.5053   21.3658    9.7857 H   0  0  0  0  0  0
   15.6389   19.2485   10.5844 H   0  0  0  0  0  0
   18.0955   18.8852   10.1306 H   0  0  0  0  0  0
   19.4348   20.6272    8.8840 H   0  0  0  0  0  0
   18.3191   22.7400    8.0653 H   0  0  0  0  0  0
   17.1899   21.5103    5.3238 H   0  0  0  0  0  0
   15.8699   19.0193    6.0615 H   0  0  0  0  0  0
   14.9679   20.1108    3.0703 H   0  0  0  0  0  0
   15.1681   19.0585    0.7690 H   0  0  0  0  0  0
   16.8929   17.2650    0.3466 H   0  0  0  0  0  0
   18.4375   16.5023    2.2042 H   0  0  0  0  0  0
   17.9984   16.6789    5.3874 H   0  0  0  0  0  0
   19.4199   17.4912    4.6484 H   0  0  0  0  0  0
   18.2010   18.6976    6.8350 H   0  0  0  0  0  0
   18.9457   20.8783    5.9498 H   0  0  0  0  0  0
   13.1697   24.7018    6.0600 H   0  0  0  0  0  0
   15.4048   25.2224    4.8491 H   0  0  0  0  0  0
   12.0290   25.5128    3.7123 H   0  0  0  0  0  0
   11.5316   25.0739    1.8692 H   0  0  0  0  0  0
   11.3835   23.4036    1.2251 H   0  0  0  0  0  0
    9.5490   26.2155    1.3884 H   0  0  0  0  0  0
    7.0417   26.4279    1.6508 H   0  0  0  0  0  0
    5.6998   24.4965    2.5710 H   0  0  0  0  0  0
    6.8525   22.3457    3.2302 H   0  0  0  0  0  0
    9.3593   22.1191    2.9756 H   0  0  0  0  0  0
   10.1828   26.4369    4.7225 H   0  0  0  0  0  0
    7.9998   25.7404    5.8151 H   0  0  0  0  0  0
    8.9135   24.5955    6.8548 H   0  0  0  0  0  0
    6.8659   27.2076    7.0033 H   0  0  0  0  0  0
    6.8292   28.8833    8.9014 H   0  0  0  0  0  0
    8.8515   29.1559   10.3874 H   0  0  0  0  0  0
   10.9244   27.7640    9.9905 H   0  0  0  0  0  0
   10.9776   26.0869    8.0983 H   0  0  0  0  0  0
  1  2  1  0  0  0
  1  3  1  0  0  0
  1 25  1  0  0  0
  1 46  1  0  0  0
  2 47  1  0  0  0
  3  4  1  0  0  0
  3 12  1  0  0  0
  3 48  1  0  0  0
  4  5  1  0  0  0
  5  6  1  0  0  0
  5 49  1  0  0  0
  5 50  1  0  0  0
  6  7  2  0  0  0
  6 11  1  0  0  0
  7  8  1  0  0  0
  7 51  1  0  0  0
  8  9  2  0  0  0
  8 52  1  0  0  0
  9 10  1  0  0  0
  9 53  1  0  0  0
 10 11  2  0  0  0
 10 54  1  0  0  0
 11 55  1  0  0  0
 12 13  2  0  0  0
 12 14  1  0  0  0
 14 15  1  0  0  0
 14 56  1  0  0  0
 15 16  1  0  0  0
 15 23  1  0  0  0
 15 57  1  0  0  0
 16 17  2  0  0  0
 16 21  1  0  0  0
 17 18  1  0  0  0
 17 58  1  0  0  0
 18 19  2  0  0  0
 18 59  1  0  0  0
 19 20  1  0  0  0
 19 60  1  0  0  0
 20 21  2  0  0  0
 20 61  1  0  0  0
 21 22  1  0  0  0
 22 23  1  0  0  0
 22 62  1  0  0  0
 22 63  1  0  0  0
 23 24  1  0  0  0
 23 64  1  0  0  0
 24 65  1  0  0  0
 25 26  1  0  0  0
 25 27  1  0  0  0
 25 66  1  0  0  0
 26 67  1  0  0  0
 27 28  1  0  0  0
 27 36  1  0  0  0
 27 68  1  0  0  0
 28 29  1  0  0  0
 29 30  1  0  0  0
 29 69  1  0  0  0
 29 70  1  0  0  0
 30 31  2  0  0  0
 30 35  1  0  0  0
 31 32  1  0  0  0
 31 71  1  0  0  0
 32 33  2  0  0  0
 32 72  1  0  0  0
 33 34  1  0  0  0
 33 73  1  0  0  0
 34 35  2  0  0  0
 34 74  1  0  0  0
 35 75  1  0  0  0
 36 37  2  0  0  0
 36 38  1  0  0  0
 38 39  1  0  0  0
 38 76  1  0  0  0
 39 40  1  0  0  0
 39 77  1  0  0  0
 39 78  1  0  0  0
 40 41  2  0  0  0
 40 45  1  0  0  0
 41 42  1  0  0  0
 41 79  1  0  0  0
 42 43  2  0  0  0
 42 80  1  0  0  0
 43 44  1  0  0  0
 43 81  1  0  0  0
 44 45  2  0  0  0
 44 82  1  0  0  0
 45 83  1  0  0  0
M  END
> <s_m_source_file>
../1d4h_ligand.sdf

> <i_m_source_file_index>
1

> <s_epik_input>
W2NIXTFbY0hdW2NIXVtjSF1bY0hdYzFbQ0gyXVtOSF1DKD1PKVtDQEhdKE9bQ0gyXWMyW2NIXVtjSF1bY0hdW2NIXVtjSF0yKVtDQEhdKFtPSF0pW0NAQEhdKFtPSF0pW0NAQEhdKE9bQ0gyXWMzW2NIXVtjSF1bY0hdW2NIXVtjSF0zKUMoPU8pW05IXVtDQEBIXTRbQ0BIXShbT0hdKVtDSDJdYyhjNDUpW2NIXVtjSF1bY0hdW2NIXTU=

> <s_epik_cmdline>
J2VwaWtfYXBwJywgJy1pbWFlJywgJ2xpZ2FuZF9wcm8ubWFlJywgJy1vbWFlJywgJ2xpZ2FuZF9wcmVwLm1hZScsICctbXMnLCAnMScsICctcGgnLCAnNycsICctcGh0JywgJzAuNScsICctbnQn

> <r_lp_tautomer_probability>
1

> <r_epik_Ionization_Penalty>
  0.0000

> <r_epik_Ionization_Penalty_Charging>
  0.0000

> <r_epik_Ionization_Penalty_Neutral>
  0.0000

> <r_epik_State_Penalty>
 -0.0000

> <r_epik_Charging_Adjusted_Penalty>
0

> <i_epik_Tot_Q>
0

> <i_epik_Tot_abs_Q>
0

$$$$
