1d4k_ligand
                    3D
 Schrodinger Suite 2020-3.
106110  0  0  1  0            999 V2000
    4.6010    2.0260   12.0620 N   0  0  0  0  0  0
    3.5320    1.9460   11.0500 C   0  0  2  0  0  0
    3.4530    3.3260   10.4420 C   0  0  2  0  0  0
    3.7690    4.3110   11.4310 O   0  0  0  0  0  0
    2.0440    3.4960   10.0130 C   0  0  0  0  0  0
    2.1400    1.6920   11.5350 C   0  0  0  0  0  0
    1.2750    2.5870   10.9310 C   0  0  0  0  0  0
    1.6650    0.7480   12.4320 C   0  0  0  0  0  0
   -0.0800    2.5520   11.2140 C   0  0  0  0  0  0
    0.3060    0.6990   12.7280 C   0  0  0  0  0  0
   -0.5720    1.6070   12.1160 C   0  0  0  0  0  0
    6.3910    1.1670   13.4710 C   0  0  1  0  0  0
    7.7430    1.2920   12.7740 C   0  0  0  0  0  0
    7.7380    2.2400   11.6180 C   0  0  0  0  0  0
    7.7230    1.7620   10.3130 C   0  0  0  0  0  0
    7.7280    3.6130   11.8330 C   0  0  0  0  0  0
    7.6960    2.6400    9.2390 C   0  0  0  0  0  0
    7.7010    4.4990   10.7670 C   0  0  0  0  0  0
    7.6840    4.0140    9.4670 C   0  0  0  0  0  0
    5.2850    0.9460   12.4290 C   0  0  0  0  0  0
    5.0570   -0.1810   11.9770 O   0  0  0  0  0  0
    6.4450   -0.0180   14.4210 C   0  0  0  0  0  0
    5.2810    0.3390   16.5060 O   0  0  0  0  0  0
    5.1870   -0.2920   15.2230 C   0  0  2  0  0  0
    5.0960   -1.7900   15.3930 C   0  0  0  0  0  0
    3.9150   -2.1480   16.1700 N   0  3  0  0  0  0
    4.0580   -3.4820   16.7620 C   0  0  1  0  0  0
    2.7160   -4.2190   16.7070 C   0  0  0  0  0  0
    2.8300   -5.6920   16.9950 C   0  0  0  0  0  0
    2.8980   -6.1600   18.3050 C   0  0  0  0  0  0
    3.0650   -7.5150   18.5750 C   0  0  0  0  0  0
    2.9240   -6.6160   15.9550 C   0  0  0  0  0  0
    3.0930   -7.9700   16.2120 C   0  0  0  0  0  0
    3.1640   -8.4180   17.5240 C   0  0  0  0  0  0
    3.3520   -9.7700   17.7500 O   0  0  0  0  0  0
    5.1730   -4.3830   16.2000 C   0  0  0  0  0  0
    5.2480   -4.6210   14.9940 O   0  0  0  0  0  0
    6.0830   -4.8000   17.0790 N   0  0  0  0  0  0
    7.1660   -5.7450   16.7330 C   0  0  1  0  0  0
    8.4860   -5.0290   16.3370 C   0  0  1  0  0  0
    9.1810   -5.8100   15.2170 C   0  0  0  0  0  0
    8.2170   -3.5990   15.8650 C   0  0  0  0  0  0
    9.3940   -2.9390   15.2290 C   0  0  0  0  0  0
    7.4300   -6.5950   17.9780 C   0  0  0  0  0  0
    7.4000   -6.0840   19.1040 O   0  0  0  0  0  0
    7.6450   -7.8940   17.7790 N   0  0  0  0  0  0
    7.9150   -8.8640   18.8560 C   0  0  0  0  0  0
    7.6090  -10.3010   18.4460 C   0  0  0  0  0  0
    6.1340  -10.5030   18.1270 C   0  0  0  0  0  0
    5.2480  -10.0060   19.2570 C   0  0  0  0  0  0
    3.7780  -10.3070   18.9950 C   0  0  0  0  0  0
    4.8456    2.9917   12.5285 H   0  0  0  0  0  0
    3.8171    1.0908   10.4196 H   0  0  0  0  0  0
    4.1666    3.4843    9.6200 H   0  0  0  0  0  0
    4.7760    4.3439   11.8724 H   0  0  0  0  0  0
    1.7498    4.5495   10.1295 H   0  0  0  0  0  0
    1.9440    3.2019    8.9578 H   0  0  0  0  0  0
    2.3533    0.0467   12.9038 H   0  0  0  0  0  0
   -0.7585    3.2582   10.7353 H   0  0  0  0  0  0
   -0.0747   -0.0411   13.4318 H   0  0  0  0  0  0
   -1.6372    1.5743   12.3448 H   0  0  0  0  0  0
    6.1759    2.0855   14.0367 H   0  0  0  0  0  0
    8.4934    1.6550   13.4918 H   0  0  0  0  0  0
    8.0495    0.3081   12.3892 H   0  0  0  0  0  0
    7.7325    0.6872   10.1316 H   0  0  0  0  0  0
    7.7416    3.9981   12.8526 H   0  0  0  0  0  0
    7.6842    2.2554    8.2192 H   0  0  0  0  0  0
    7.6931    5.5736   10.9496 H   0  0  0  0  0  0
    7.6613    4.7069    8.6259 H   0  0  0  0  0  0
    6.6468   -0.9365   13.8504 H   0  0  0  0  0  0
    7.2462    0.1392   15.1581 H   0  0  0  0  0  0
    5.3555    1.4342   16.5761 H   0  0  0  0  0  0
    4.2851    0.1321   14.7574 H   0  0  0  0  0  0
    5.0302   -2.2679   14.4044 H   0  0  0  0  0  0
    5.9915   -2.1546   15.9176 H   0  0  0  0  0  0
    3.7732   -1.4169   16.9795 H   0  0  0  0  0  0
    3.0310   -2.1462   15.5154 H   0  0  0  0  0  0
    4.3710   -3.2248   17.7847 H   0  0  0  0  0  0
    2.0308   -3.7890   17.4524 H   0  0  0  0  0  0
    2.2797   -4.1118   15.7029 H   0  0  0  0  0  0
    2.8192   -5.4540   19.1317 H   0  0  0  0  0  0
    3.1178   -7.8659   19.6056 H   0  0  0  0  0  0
    2.8638   -6.2697   14.9232 H   0  0  0  0  0  0
    3.1696   -8.6782   15.3870 H   0  0  0  0  0  0
    6.0020   -4.4075   18.1034 H   0  0  0  0  0  0
    6.8055   -6.3286   15.8731 H   0  0  0  0  0  0
    9.1439   -4.9797   17.2172 H   0  0  0  0  0  0
    9.3757   -6.8389   15.5538 H   0  0  0  0  0  0
   10.1332   -5.3203   14.9649 H   0  0  0  0  0  0
    8.5331   -5.8314   14.3283 H   0  0  0  0  0  0
    7.4066   -3.6047   15.1212 H   0  0  0  0  0  0
    7.9217   -2.9787   16.7241 H   0  0  0  0  0  0
    9.1197   -1.9198   14.9191 H   0  0  0  0  0  0
    9.7075   -3.5183   14.3480 H   0  0  0  0  0  0
   10.2226   -2.8923   15.9510 H   0  0  0  0  0  0
    7.6117   -8.2298   16.7320 H   0  0  0  0  0  0
    8.9772   -8.8133   19.1372 H   0  0  0  0  0  0
    7.2923   -8.6238   19.7304 H   0  0  0  0  0  0
    8.1921  -10.5586   17.5495 H   0  0  0  0  0  0
    7.8786  -10.9818   19.2668 H   0  0  0  0  0  0
    5.8772   -9.9478   17.2128 H   0  0  0  0  0  0
    5.9353  -11.5740   17.9736 H   0  0  0  0  0  0
    5.5401  -10.4990   20.1959 H   0  0  0  0  0  0
    5.3647   -8.9173   19.3628 H   0  0  0  0  0  0
    3.1816   -9.8666   19.8076 H   0  0  0  0  0  0
    3.6410  -11.3984   18.9897 H   0  0  0  0  0  0
  1 20  1  0  0  0
  1  2  1  0  0  0
  1 52  1  0  0  0
  2  6  1  0  0  0
  2  3  1  0  0  0
  2 53  1  0  0  0
  3  5  1  0  0  0
  3  4  1  0  0  0
  3 54  1  0  0  0
  4 55  1  0  0  0
  5  7  1  0  0  0
  5 56  1  0  0  0
  5 57  1  0  0  0
  6  7  1  0  0  0
  6  8  2  0  0  0
  7  9  2  0  0  0
  8 10  1  0  0  0
  8 58  1  0  0  0
  9 11  1  0  0  0
  9 59  1  0  0  0
 10 11  2  0  0  0
 10 60  1  0  0  0
 11 61  1  0  0  0
 12 20  1  0  0  0
 12 22  1  0  0  0
 12 13  1  0  0  0
 12 62  1  0  0  0
 13 14  1  0  0  0
 13 63  1  0  0  0
 13 64  1  0  0  0
 14 16  2  0  0  0
 14 15  1  0  0  0
 15 17  2  0  0  0
 15 65  1  0  0  0
 16 18  1  0  0  0
 16 66  1  0  0  0
 17 19  1  0  0  0
 17 67  1  0  0  0
 18 19  2  0  0  0
 18 68  1  0  0  0
 19 69  1  0  0  0
 20 21  2  0  0  0
 22 24  1  0  0  0
 22 70  1  0  0  0
 22 71  1  0  0  0
 23 24  1  0  0  0
 23 72  1  0  0  0
 24 25  1  0  0  0
 24 73  1  0  0  0
 25 26  1  0  0  0
 25 74  1  0  0  0
 25 75  1  0  0  0
 26 27  1  0  0  0
 26 76  1  0  0  0
 26 77  1  0  0  0
 27 36  1  0  0  0
 27 28  1  0  0  0
 27 78  1  0  0  0
 28 29  1  0  0  0
 28 79  1  0  0  0
 28 80  1  0  0  0
 29 32  2  0  0  0
 29 30  1  0  0  0
 30 31  2  0  0  0
 30 81  1  0  0  0
 31 34  1  0  0  0
 31 82  1  0  0  0
 32 33  1  0  0  0
 32 83  1  0  0  0
 33 34  2  0  0  0
 33 84  1  0  0  0
 34 35  1  0  0  0
 35 51  1  0  0  0
 36 38  1  0  0  0
 36 37  2  0  0  0
 38 39  1  0  0  0
 38 85  1  0  0  0
 39 44  1  0  0  0
 39 40  1  0  0  0
 39 86  1  0  0  0
 40 42  1  0  0  0
 40 41  1  0  0  0
 40 87  1  0  0  0
 41 88  1  0  0  0
 41 89  1  0  0  0
 41 90  1  0  0  0
 42 43  1  0  0  0
 42 91  1  0  0  0
 42 92  1  0  0  0
 43 93  1  0  0  0
 43 94  1  0  0  0
 43 95  1  0  0  0
 44 46  1  0  0  0
 44 45  2  0  0  0
 46 47  1  0  0  0
 46 96  1  0  0  0
 47 48  1  0  0  0
 47 97  1  0  0  0
 47 98  1  0  0  0
 48 49  1  0  0  0
 48 99  1  0  0  0
 48100  1  0  0  0
 49 50  1  0  0  0
 49101  1  0  0  0
 49102  1  0  0  0
 50 51  1  0  0  0
 50103  1  0  0  0
 50104  1  0  0  0
 51105  1  0  0  0
 51106  1  0  0  0
M  CHG  1  26   1
M  END
> <s_m_source_file>
../1d4k_ligand.sdf

> <i_m_source_file_index>
1

> <s_epik_input>
W2NIXTFbY0hdW2NIXVtjSF1jKGMxMilbQ0gyXVtDQEBIXShbT0hdKVtDQEhdMltOSF1DKD1PKVtDQEhdKFtDSDJdYzNbY0hdW2NIXVtjSF1bY0hdW2NIXTMpW0NIMl1bQ0BIXShbT0hdKVtDSDJdW05IMitdW0NAQEhdKFtDSDJdNClDKD1PKVtOSF1bQ0BASF0oW0NAQEhdKFtDSDNdKVtDSDJdW0NIM10pQyg9TylbTkhdW0NIMl1bQ0gyXVtDSDJdW0NIMl1bQ0gyXU9jKFtjSF1bY0hdYzQ1KVtjSF1bY0hdNQ==

> <s_epik_cmdline>
J2VwaWtfYXBwJywgJy1pbWFlJywgJ2xpZ2FuZF9wcm8ubWFlJywgJy1vbWFlJywgJ2xpZ2FuZF9wcmVwLm1hZScsICctbXMnLCAnMScsICctcGgnLCAnNycsICctcGh0JywgJzAuNScsICctbnQn

> <r_lp_tautomer_probability>
1

> <r_epik_Ionization_Penalty>
  0.0461

> <r_epik_Ionization_Penalty_Charging>
  0.0461

> <r_epik_Ionization_Penalty_Neutral>
  0.0000

> <r_epik_State_Penalty>
  0.0392

> <r_epik_Charging_Adjusted_Penalty>
0.0853316307433166

> <i_epik_Tot_Q>
1

> <i_epik_Tot_abs_Q>
1

$$$$
