1d4l_ligand
                    3D
 Schrodinger Suite 2020-3.
 91 93  0  0  1  0            999 V2000
    5.1510    4.3240    9.0720 C   0  0  0  0  0  0
    3.6790    4.2760    9.3940 C   0  0  0  0  0  0
    3.4000    3.6170   10.7330 C   0  0  0  0  0  0
    3.3390    4.3030   11.7430 O   0  0  0  0  0  0
    5.4690    3.2480    8.0750 C   0  0  0  0  0  0
    6.7590    3.5080    7.3360 C   0  0  0  0  0  0
    3.2850    2.2900   10.7580 N   0  0  0  0  0  0
    2.9890    1.5710   12.0090 C   0  0  1  0  0  0
    1.6300    0.8350   11.9090 C   0  0  0  0  0  0
    1.4080   -0.0300   13.1370 C   0  0  0  0  0  0
    0.4900    1.8410   11.7620 C   0  0  0  0  0  0
    4.0760    0.5840   12.4740 C   0  0  0  0  0  0
    4.2760   -0.4770   11.8620 O   0  0  0  0  0  0
    4.7620    0.9370   13.5590 N   0  0  0  0  0  0
    5.8280    0.0830   14.1300 C   0  0  1  0  0  0
    7.1720    0.8230   14.0930 C   0  0  0  0  0  0
    7.5030    1.3940   12.7250 C   0  0  0  0  0  0
    7.4430    2.7600   12.5010 C   0  0  0  0  0  0
    7.7320    3.2910   11.2830 C   0  0  0  0  0  0
    7.8670    0.5650   11.6590 C   0  0  0  0  0  0
    8.1580    1.0900   10.4220 C   0  0  0  0  0  0
    8.0900    2.4590   10.2510 C   0  0  0  0  0  0
    8.3870    3.0540    9.0620 O   0  0  0  0  0  0
    7.8550    2.5870    7.8380 C   0  0  0  0  0  0
    5.4820   -0.3440   15.5620 C   0  0  2  0  0  0
    5.5310    0.7920   16.4260 O   0  0  0  0  0  0
    6.4660   -1.3970   16.0790 C   0  0  0  0  0  0
    6.2750   -2.7170   15.4530 N   0  0  2  0  0  0
    5.4210   -3.6300   16.2260 C   0  0  0  0  0  0
    4.1490   -3.7130   15.4020 C   0  0  0  0  0  0
    3.1700   -4.7920   15.8750 C   0  0  0  0  0  0
    2.7980   -4.5160   17.3240 C   0  0  0  0  0  0
    1.9470   -4.8430   14.9680 C   0  0  0  0  0  0
    7.4780   -3.3320   14.5100 S   0  0  0  0  0  0
    8.2000   -2.2340   13.8740 O   0  0  0  0  0  0
    6.8820   -4.1890   13.4940 O   0  0  0  0  0  0
    8.5160   -4.1960   15.4480 C   0  0  0  0  0  0
    9.5590   -3.5470   16.0840 C   0  0  0  0  0  0
    8.3080   -5.5440   15.7010 C   0  0  0  0  0  0
   10.3840   -4.2140   16.9740 C   0  0  0  0  0  0
    9.1310   -6.2260   16.5980 C   0  0  0  0  0  0
   10.1680   -5.5490   17.2290 C   0  0  0  0  0  0
   10.9710   -6.1750   18.1590 N   0  0  0  0  0  0
    5.7366    4.1593    9.9885 H   0  0  0  0  0  0
    5.4055    5.3056    8.6458 H   0  0  0  0  0  0
    3.2779    5.2996    9.4294 H   0  0  0  0  0  0
    3.1522    3.7024    8.6171 H   0  0  0  0  0  0
    5.5649    2.2833    8.5948 H   0  0  0  0  0  0
    4.6599    3.1855    7.3324 H   0  0  0  0  0  0
    6.6080    3.3303    6.2610 H   0  0  0  0  0  0
    7.0689    4.5514    7.4951 H   0  0  0  0  0  0
    3.4157    1.7307    9.8199 H   0  0  0  0  0  0
    2.9693    2.3956   12.7367 H   0  0  0  0  0  0
    1.6322    0.1792   11.0259 H   0  0  0  0  0  0
    2.2342   -0.7499   13.2326 H   0  0  0  0  0  0
    0.4575   -0.5742   13.0352 H   0  0  0  0  0  0
    1.3715    0.6074   14.0327 H   0  0  0  0  0  0
    0.6613    2.4615   10.8700 H   0  0  0  0  0  0
    0.4509    2.4837   12.6538 H   0  0  0  0  0  0
   -0.4631    1.3022   11.6563 H   0  0  0  0  0  0
    4.5144    1.8983   14.0329 H   0  0  0  0  0  0
    5.8803   -0.8146   13.4962 H   0  0  0  0  0  0
    7.1492    1.6604   14.8059 H   0  0  0  0  0  0
    7.9802    0.1293   14.3679 H   0  0  0  0  0  0
    7.1582    3.4228   13.3181 H   0  0  0  0  0  0
    7.6799    4.3685   11.1271 H   0  0  0  0  0  0
    7.9208   -0.5130   11.8111 H   0  0  0  0  0  0
    8.4367    0.4392    9.5932 H   0  0  0  0  0  0
    7.4439    1.5786    7.9936 H   0  0  0  0  0  0
    8.6651    2.5421    7.0952 H   0  0  0  0  0  0
    4.4509   -0.7253   15.6001 H   0  0  0  0  0  0
    4.8924    1.6646   16.2240 H   0  0  0  0  0  0
    7.4954   -1.0719   15.8676 H   0  0  0  0  0  0
    6.3356   -1.5191   17.1644 H   0  0  0  0  0  0
    5.9203   -4.6053   16.3228 H   0  0  0  0  0  0
    5.2439   -3.2079   17.2262 H   0  0  0  0  0  0
    3.6186   -2.7504   15.4484 H   0  0  0  0  0  0
    4.4036   -3.9413   14.3565 H   0  0  0  0  0  0
    3.6393   -5.7855   15.8224 H   0  0  0  0  0  0
    3.7103   -4.4885   17.9379 H   0  0  0  0  0  0
    2.1335   -5.3125   17.6901 H   0  0  0  0  0  0
    2.2812   -3.5473   17.3917 H   0  0  0  0  0  0
    2.2652   -5.0443   13.9344 H   0  0  0  0  0  0
    1.4202   -3.8782   15.0082 H   0  0  0  0  0  0
    1.2726   -5.6434   15.3065 H   0  0  0  0  0  0
    9.7348   -2.4906   15.8808 H   0  0  0  0  0  0
    7.4986   -6.0724   15.1972 H   0  0  0  0  0  0
   11.1986   -3.6854   17.4690 H   0  0  0  0  0  0
    8.9617   -7.2832   16.8026 H   0  0  0  0  0  0
   11.7858   -5.6187   18.6454 H   0  0  0  0  0  0
   10.7967   -7.2307   18.4144 H   0  0  0  0  0  0
  1  5  1  0  0  0
  1  2  1  0  0  0
  1 44  1  0  0  0
  1 45  1  0  0  0
  2  3  1  0  0  0
  2 46  1  0  0  0
  2 47  1  0  0  0
  3  7  1  0  0  0
  3  4  2  0  0  0
  5  6  1  0  0  0
  5 48  1  0  0  0
  5 49  1  0  0  0
  6 24  1  0  0  0
  6 50  1  0  0  0
  6 51  1  0  0  0
  7  8  1  0  0  0
  7 52  1  0  0  0
  8 12  1  0  0  0
  8  9  1  0  0  0
  8 53  1  0  0  0
  9 11  1  0  0  0
  9 10  1  0  0  0
  9 54  1  0  0  0
 10 55  1  0  0  0
 10 56  1  0  0  0
 10 57  1  0  0  0
 11 58  1  0  0  0
 11 59  1  0  0  0
 11 60  1  0  0  0
 12 14  1  0  0  0
 12 13  2  0  0  0
 14 15  1  0  0  0
 14 61  1  0  0  0
 15 25  1  0  0  0
 15 16  1  0  0  0
 15 62  1  0  0  0
 16 17  1  0  0  0
 16 63  1  0  0  0
 16 64  1  0  0  0
 17 20  2  0  0  0
 17 18  1  0  0  0
 18 19  2  0  0  0
 18 65  1  0  0  0
 19 22  1  0  0  0
 19 66  1  0  0  0
 20 21  1  0  0  0
 20 67  1  0  0  0
 21 22  2  0  0  0
 21 68  1  0  0  0
 22 23  1  0  0  0
 23 24  1  0  0  0
 24 69  1  0  0  0
 24 70  1  0  0  0
 25 27  1  0  0  0
 25 26  1  0  0  0
 25 71  1  0  0  0
 26 72  1  0  0  0
 27 28  1  0  0  0
 27 73  1  0  0  0
 27 74  1  0  0  0
 28 34  1  0  0  0
 28 29  1  0  0  0
 29 30  1  0  0  0
 29 75  1  0  0  0
 29 76  1  0  0  0
 30 31  1  0  0  0
 30 77  1  0  0  0
 30 78  1  0  0  0
 31 33  1  0  0  0
 31 32  1  0  0  0
 31 79  1  0  0  0
 32 80  1  0  0  0
 32 81  1  0  0  0
 32 82  1  0  0  0
 33 83  1  0  0  0
 33 84  1  0  0  0
 33 85  1  0  0  0
 34 37  1  0  0  0
 34 36  2  0  0  0
 34 35  2  0  0  0
 37 39  2  0  0  0
 37 38  1  0  0  0
 38 40  2  0  0  0
 38 86  1  0  0  0
 39 41  1  0  0  0
 39 87  1  0  0  0
 40 42  1  0  0  0
 40 88  1  0  0  0
 41 42  2  0  0  0
 41 89  1  0  0  0
 42 43  1  0  0  0
 43 90  1  0  0  0
 43 91  1  0  0  0
M  END
> <s_m_source_file>
../1d4l_ligand.sdf

> <i_m_source_file_index>
1

> <s_epik_input>
YzEyW2NIXVtjSF1jKFtjSF1bY0hdMilPW0NIMl1bQ0gyXVtDSDJdW0NIMl1bQ0gyXUMoPU8pW05IXVtDQEBIXShbQ0hdKFtDSDNdKVtDSDNdKUMoPU8pW05IXVtDQEBIXShbQ0gyXTEpW0NASF0oW09IXSlbQ0gyXU4oW0NIMl1bQ0gyXVtDSF0oW0NIM10pW0NIM10pUyg9TykoPU8pYzNbY0hdW2NIXWMoW05IMl0pW2NIXVtjSF0z

> <s_epik_cmdline>
J2VwaWtfYXBwJywgJy1pbWFlJywgJ2xpZ2FuZF9wcm8ubWFlJywgJy1vbWFlJywgJ2xpZ2FuZF9wcmVwLm1hZScsICctbXMnLCAnMScsICctcGgnLCAnNycsICctcGh0JywgJzAuNScsICctbnQn

> <r_lp_tautomer_probability>
1

> <r_epik_Ionization_Penalty>
  0.0000

> <r_epik_Ionization_Penalty_Charging>
  0.0000

> <r_epik_Ionization_Penalty_Neutral>
  0.0000

> <r_epik_State_Penalty>
 -0.0000

> <r_epik_Charging_Adjusted_Penalty>
0

> <i_epik_Tot_Q>
0

> <i_epik_Tot_abs_Q>
0

$$$$
