1d4p_ligand
                    3D
 Schrodinger Suite 2020-3.
 50 53  0  0  1  0            999 V2000
  -23.9770  -31.8420   23.1850 C   0  0  0  0  0  0
  -23.2620  -33.0490   22.8460 C   0  0  0  0  0  0
  -22.2410  -32.9690   21.8570 C   0  0  0  0  0  0
  -21.9390  -31.7360   21.2190 C   0  0  0  0  0  0
  -22.6540  -30.5500   21.5620 C   0  0  0  0  0  0
  -23.6720  -30.6180   22.5390 C   0  0  0  0  0  0
  -21.3610  -33.8910   21.3030 C   0  0  0  0  0  0
  -20.5500  -33.2420   20.3660 C   0  0  0  0  0  0
  -20.9500  -31.9310   20.3630 N   0  0  0  0  0  0
  -24.9870  -31.8380   24.1860 C   0  0  0  0  0  0
  -25.1220  -30.7030   24.8440 N   0  0  0  0  0  0
  -25.7300  -32.8840   24.4660 N   0  0  0  0  0  0
  -19.4790  -33.7530   19.5580 C   0  0  0  0  0  0
  -19.6650  -34.3370   18.4800 O   0  0  0  0  0  0
  -18.0940  -33.5610   20.0610 N   0  0  0  0  0  0
  -16.8530  -34.0600   19.3190 C   0  0  0  0  0  0
  -16.3920  -35.2560   20.2020 C   0  0  0  0  0  0
  -16.1290  -34.7710   21.6280 C   0  0  0  0  0  0
  -17.3950  -34.0160   22.2270 C   0  0  0  0  0  0
  -17.7910  -32.8960   21.3250 C   0  0  0  0  0  0
  -15.7200  -35.9250   22.6000 C   0  0  0  0  0  0
  -15.2460  -35.3600   23.9730 C   0  0  0  0  0  0
  -16.1300  -35.3170   25.1240 C   0  0  0  0  0  0
  -15.6990  -34.8010   26.3600 C   0  0  0  0  0  0
  -14.3740  -34.3200   26.4640 C   0  0  0  0  0  0
  -13.4870  -34.3510   25.3550 C   0  0  0  0  0  0
  -13.9140  -34.8640   24.1260 C   0  0  0  0  0  0
  -23.4865  -34.0119   23.3281 H   0  0  0  0  0  0
  -22.4177  -29.6033   21.0763 H   0  0  0  0  0  0
  -24.2306  -29.7061   22.7965 H   0  0  0  0  0  0
  -21.2324  -34.9673   21.4899 H   0  0  0  0  0  0
  -24.4872  -29.8412   24.5902 H   0  0  0  0  0  0
  -25.8694  -30.6181   25.6466 H   0  0  0  0  0  0
  -26.4846  -32.8249   25.2642 H   0  0  0  0  0  0
  -17.1329  -34.3645   18.2997 H   0  0  0  0  0  0
  -16.1067  -33.2534   19.2688 H   0  0  0  0  0  0
  -17.1783  -36.0250   20.2172 H   0  0  0  0  0  0
  -15.4682  -35.6843   19.7859 H   0  0  0  0  0  0
  -15.2700  -34.0930   21.5168 H   0  0  0  0  0  0
  -18.2335  -34.7221   22.3187 H   0  0  0  0  0  0
  -17.1455  -33.6121   23.2193 H   0  0  0  0  0  0
  -16.9749  -32.1743   21.1732 H   0  0  0  0  0  0
  -18.6859  -32.3672   21.6849 H   0  0  0  0  0  0
  -16.5838  -36.5845   22.7701 H   0  0  0  0  0  0
  -14.8978  -36.5049   22.1553 H   0  0  0  0  0  0
  -17.1489  -35.6923   25.0286 H   0  0  0  0  0  0
  -16.3714  -34.7728   27.2175 H   0  0  0  0  0  0
  -14.0256  -33.9169   27.4149 H   0  0  0  0  0  0
  -12.4700  -33.9737   25.4622 H   0  0  0  0  0  0
  -13.2272  -34.8858   23.2799 H   0  0  0  0  0  0
  1 10  1  0  0  0
  1  6  2  0  0  0
  1  2  1  0  0  0
  2  3  2  0  0  0
  2 28  1  0  0  0
  3  7  1  0  0  0
  3  4  1  0  0  0
  4  9  2  0  0  0
  4  5  1  0  0  0
  5  6  1  0  0  0
  5 29  1  0  0  0
  6 30  1  0  0  0
  7  8  2  0  0  0
  7 31  1  0  0  0
  8  9  1  0  0  0
  8 13  1  0  0  0
 10 12  2  0  0  0
 10 11  1  0  0  0
 11 32  1  0  0  0
 11 33  1  0  0  0
 12 34  1  0  0  0
 13 15  1  0  0  0
 13 14  2  0  0  0
 15 20  1  0  0  0
 15 16  1  0  0  0
 16 17  1  0  0  0
 16 35  1  0  0  0
 16 36  1  0  0  0
 17 18  1  0  0  0
 17 37  1  0  0  0
 17 38  1  0  0  0
 18 21  1  0  0  0
 18 19  1  0  0  0
 18 39  1  0  0  0
 19 20  1  0  0  0
 19 40  1  0  0  0
 19 41  1  0  0  0
 20 42  1  0  0  0
 20 43  1  0  0  0
 21 22  1  0  0  0
 21 44  1  0  0  0
 21 45  1  0  0  0
 22 27  2  0  0  0
 22 23  1  0  0  0
 23 24  2  0  0  0
 23 46  1  0  0  0
 24 25  1  0  0  0
 24 47  1  0  0  0
 25 26  2  0  0  0
 25 48  1  0  0  0
 26 27  1  0  0  0
 26 49  1  0  0  0
 27 50  1  0  0  0
M  END
> <s_m_source_file>
../1d4p_ligand.sdf

> <i_m_source_file_index>
1

> <s_epik_input>
W0hdXE49QyhbTkgyXSlcQyhbQ0hdPTEpPVtDSF1bQ0gyXUMoQzEyKT1OQyg9W0NIXTIpQyg9TylOM1tDSDJdW0NIMl1bQ0hdKFtDSDJdW0NIMl0zKVtDSDJdYzRbY0hdW2NIXVtjSF1bY0hdW2NIXTQ=

> <s_epik_cmdline>
J2VwaWtfYXBwJywgJy1pbWFlJywgJ2xpZ2FuZF9wcm8ubWFlJywgJy1vbWFlJywgJ2xpZ2FuZF9wcmVwLm1hZScsICctbXMnLCAnMScsICctcGgnLCAnNycsICctcGh0JywgJzAuNScsICctbnQn

> <r_lp_tautomer_probability>
1

> <r_epik_Ionization_Penalty>
  0.0012

> <r_epik_Ionization_Penalty_Charging>
  0.0000

> <r_epik_Ionization_Penalty_Neutral>
  0.0012

> <r_epik_State_Penalty>
 -0.0000

> <r_epik_Charging_Adjusted_Penalty>
0

> <i_epik_Tot_Q>
0

> <i_epik_Tot_abs_Q>
0

> <s_epik_Chemistry_Notes>
This compound has an imine and may undergo hydrolysis.

$$$$
