1d4t_ligand
                    3D
 Schrodinger Suite 2020-3.
192192  0  0  1  0            999 V2000
   17.3050  -16.2480    8.3120 N   0  3  0  0  0  0
   16.9090  -16.8700    9.5740 C   0  0  2  0  0  0
   16.3820  -15.8310   10.5790 C   0  0  0  0  0  0
   16.0680  -16.1770   11.7130 O   0  0  0  0  0  0
   17.9730  -17.7320   10.1930 C   0  0  0  0  0  0
   19.4250  -17.6200   10.3260 C   0  0  0  0  0  0
   20.2800  -17.2010    9.2040 C   0  0  0  0  0  0
   21.6460  -17.8190    9.1940 C   0  0  0  0  0  0
   22.6720  -16.7340    9.0740 N   0  3  0  0  0  0
   16.2600  -14.5750   10.2440 N   0  0  0  0  0  0
   15.3950  -13.6540   10.9770 C   0  0  2  0  0  0
   13.9990  -13.6750   10.3440 C   0  0  0  0  0  0
   13.8300  -13.7390    9.1410 O   0  0  0  0  0  0
   15.9970  -12.2830   10.8830 C   0  0  0  0  0  0
   15.0770  -11.3200   11.2030 O   0  0  0  0  0  0
   13.0030  -13.5790   11.2170 N   0  0  0  0  0  0
   11.6450  -13.3910   10.7460 C   0  0  2  0  0  0
   11.2400  -11.9320   10.5440 C   0  0  0  0  0  0
   10.1180  -11.6390   10.1400 O   0  0  0  0  0  0
   10.6210  -14.0100   11.7210 C   0  0  0  0  0  0
   10.8870  -15.6120   11.7840 C   0  0  0  0  0  0
    9.7430  -16.0580   12.7680 C   0  0  0  0  0  0
   10.5130  -16.2290   10.1920 C   0  0  0  0  0  0
   12.1240  -11.0190   10.8440 N   0  0  0  0  0  0
   11.8880   -9.5800   10.6580 C   0  0  2  0  0  0
   12.5010   -9.1020    9.3560 C   0  0  0  0  0  0
   13.6710   -9.4070    9.0780 O   0  0  0  0  0  0
   12.5170   -8.8010   11.8130 C   0  0  2  0  0  0
   11.7210   -8.9350   12.9940 O   0  0  0  0  0  0
   12.6760   -7.3010   11.5520 C   0  0  0  0  0  0
   11.6990   -8.4020    8.5720 N   0  0  0  0  0  0
   12.1010   -7.8080    7.3060 C   0  0  2  0  0  0
   11.9290   -6.2970    7.4520 C   0  0  0  0  0  0
   10.8020   -5.8150    7.4800 O   0  0  0  0  0  0
   11.2830   -8.3530    6.1350 C   0  0  2  0  0  0
   11.4430   -9.8540    5.9770 C   0  0  0  0  0  0
   11.6740   -7.6300    4.8480 C   0  0  0  0  0  0
   10.6270  -10.5300    4.9330 C   0  0  0  0  0  0
   13.0170   -5.5630    7.6120 N   0  0  0  0  0  0
   12.9180   -4.1040    7.6220 C   0  0  2  0  0  0
   12.4760   -3.6310    6.2400 C   0  0  0  0  0  0
   13.0160   -4.0650    5.2160 O   0  0  0  0  0  0
   14.2420   -3.4220    8.1110 C   0  0  0  0  0  0
   14.3590   -3.6430    9.6340 C   0  0  0  0  0  0
   15.1280   -4.6320   10.1670 C   0  0  0  0  0  0
   13.6220   -2.8280   10.4830 C   0  0  0  0  0  0
   15.1850   -4.7900   11.5790 C   0  0  0  0  0  0
   13.6460   -2.9730   11.8570 C   0  0  0  0  0  0
   14.4270   -3.9540   12.3730 C   0  0  0  0  0  0
   14.4040   -4.0840   13.7750 O   0  0  0  0  0  0
   11.5000   -2.7670    6.2080 N   0  0  0  0  0  0
   10.8150   -2.3970    4.9840 C   0  0  2  0  0  0
   10.5770   -0.8890    4.9650 C   0  0  0  0  0  0
   10.6630   -0.1560    5.9370 O   0  0  0  0  0  0
    9.4960   -3.1800    4.8990 C   0  0  0  0  0  0
   10.2690   -0.4250    3.7420 N   0  0  0  0  0  0
   10.0100    0.9670    3.4780 C   0  0  2  0  0  0
    8.6390    1.0940    2.8280 C   0  0  0  0  0  0
    8.2160    0.2520    2.0700 O   0  0  0  0  0  0
   11.0740    1.5580    2.5260 C   0  0  0  0  0  0
   12.5090    1.3150    2.9940 C   0  0  0  0  0  0
   13.5800    1.9490    2.1260 C   0  0  0  0  0  0
   13.5460    1.8080    0.8850 O   0  0  0  0  0  0
   14.5390    2.6650    2.7000 N   0  0  0  0  0  0
    7.9780    2.2140    3.1230 N   0  0  0  0  0  0
    6.6970    2.5420    2.5000 C   0  0  2  0  0  0
    6.9350    2.7990    1.0060 C   0  0  0  0  0  0
    7.8290    3.5570    0.6490 O   0  0  0  0  0  0
    6.0330    3.7480    3.2150 C   0  0  0  0  0  0
    4.7530    4.1370    2.5300 C   0  0  0  0  0  0
    5.7400    3.4680    4.6940 C   0  0  0  0  0  0
    6.1230    2.1780    0.1680 N   0  0  0  0  0  0
    6.3530    2.1310   -1.2630 C   0  0  2  0  0  0
    5.4950    3.0680   -2.0670 C   0  0  0  0  0  0
    5.7470    3.1660   -3.2970 O   0  0  0  0  0  0
    6.1030    0.6870   -1.7550 C   0  0  0  0  0  0
    7.0740   -0.3210   -1.1550 C   0  0  0  0  0  0
    8.5030   -0.0640   -1.6030 C   0  0  0  0  0  0
    8.7350    0.1370   -2.8080 O   0  0  0  0  0  0
    9.4040   -0.0800   -0.6420 N   0  0  0  0  0  0
    4.4950    3.7310   -1.4990 N   0  0  0  0  0  0
    3.5680    4.6400   -2.1370 C   0  0  2  0  0  0
    3.2730    5.8400   -1.2470 C   0  0  0  0  0  0
    3.6230    5.7710   -0.0630 O   0  0  0  0  0  0
    2.2000    3.9470   -2.4740 C   0  0  0  0  0  0
    2.2940    2.6130   -3.1370 C   0  0  0  0  0  0
    0.9930    1.9330   -3.4080 C   0  0  0  0  0  0
   -0.0840    2.7850   -3.9760 C   0  0  0  0  0  0
    0.1780    3.0810   -5.3930 N   0  3  0  0  0  0
    2.6600    6.7950   -1.7710 O   0  0  0  0  0  0
   16.4745  -15.6376    7.9276 H   0  0  0  0  0  0
   17.5545  -17.0303    7.5801 H   0  0  0  0  0  0
   18.1840  -15.6080    8.4786 H   0  0  0  0  0  0
   16.1076  -17.5563    9.2631 H   0  0  0  0  0  0
   17.7666  -17.8551   11.2664 H   0  0  0  0  0  0
   17.9762  -18.7178    9.7049 H   0  0  0  0  0  0
   19.6659  -16.8838   11.1070 H   0  0  0  0  0  0
   19.8444  -18.5985   10.6026 H   0  0  0  0  0  0
   19.7990  -17.4763    8.2538 H   0  0  0  0  0  0
   20.4239  -16.1110    9.2398 H   0  0  0  0  0  0
   21.8032  -18.3761   10.1294 H   0  0  0  0  0  0
   21.7314  -18.5061    8.3392 H   0  0  0  0  0  0
   23.6777  -17.1796    9.0660 H   0  0  0  0  0  0
   22.5818  -16.0479    9.9290 H   0  0  0  0  0  0
   22.5099  -16.1779    8.1389 H   0  0  0  0  0  0
   16.8359  -14.2171    9.3779 H   0  0  0  0  0  0
   15.3437  -13.9638   12.0312 H   0  0  0  0  0  0
   16.8448  -12.2063   11.5797 H   0  0  0  0  0  0
   16.3493  -12.1068    9.8559 H   0  0  0  0  0  0
   15.3626  -10.2579   11.1821 H   0  0  0  0  0  0
   13.2071  -13.6419   12.2961 H   0  0  0  0  0  0
   11.7005  -13.9010    9.7729 H   0  0  0  0  0  0
   10.7496  -13.5652   12.7188 H   0  0  0  0  0  0
    9.6020  -13.8093   11.3587 H   0  0  0  0  0  0
   11.8777  -15.9113   12.1566 H   0  0  0  0  0  0
    9.9595  -15.6791   13.7777 H   0  0  0  0  0  0
    9.6880  -17.1563   12.7925 H   0  0  0  0  0  0
    8.7818  -15.6503   12.4216 H   0  0  0  0  0  0
   11.3021  -15.9277    9.4873 H   0  0  0  0  0  0
    9.5477  -15.8207    9.8580 H   0  0  0  0  0  0
   10.4538  -17.3268   10.2288 H   0  0  0  0  0  0
   13.0824  -11.3707   11.2537 H   0  0  0  0  0  0
   10.7966   -9.4456   10.6292 H   0  0  0  0  0  0
   13.5011   -9.2573   11.9957 H   0  0  0  0  0  0
   11.4724   -9.9349   13.3792 H   0  0  0  0  0  0
   13.2845   -7.1486   10.6484 H   0  0  0  0  0  0
   13.1732   -6.8298   12.4127 H   0  0  0  0  0  0
   11.6846   -6.8469   11.4074 H   0  0  0  0  0  0
   10.6669   -8.2814    8.9330 H   0  0  0  0  0  0
   13.1491   -8.0881    7.1245 H   0  0  0  0  0  0
   10.2191   -8.1719    6.3479 H   0  0  0  0  0  0
   12.4876  -10.0866    5.7226 H   0  0  0  0  0  0
   11.1756  -10.3526    6.9203 H   0  0  0  0  0  0
   11.5507   -6.5455    4.9847 H   0  0  0  0  0  0
   11.0289   -7.9716    4.0251 H   0  0  0  0  0  0
   12.7241   -7.8521    4.6072 H   0  0  0  0  0  0
   10.8479  -11.6076    4.9357 H   0  0  0  0  0  0
   10.8709  -10.1082    3.9468 H   0  0  0  0  0  0
    9.5588  -10.3741    5.1445 H   0  0  0  0  0  0
   13.9959   -6.0487    7.7375 H   0  0  0  0  0  0
   12.1289   -3.8595    8.3483 H   0  0  0  0  0  0
   15.1006   -3.8759    7.5945 H   0  0  0  0  0  0
   14.2053   -2.3460    7.8853 H   0  0  0  0  0  0
   15.6955   -5.2975    9.5165 H   0  0  0  0  0  0
   13.0010   -2.0442   10.0492 H   0  0  0  0  0  0
   15.8163   -5.5579   12.0262 H   0  0  0  0  0  0
   13.0577   -2.3216   12.5033 H   0  0  0  0  0  0
   15.0123   -4.8581   14.2656 H   0  0  0  0  0  0
   11.2014   -2.3126    7.1643 H   0  0  0  0  0  0
   11.4706   -2.6639    4.1420 H   0  0  0  0  0  0
    9.7085   -4.2591    4.9154 H   0  0  0  0  0  0
    8.9765   -2.9227    3.9642 H   0  0  0  0  0  0
    8.8586   -2.9187    5.7566 H   0  0  0  0  0  0
   10.2186   -1.1586    2.9239 H   0  0  0  0  0  0
   10.0452    1.4616    4.4599 H   0  0  0  0  0  0
   10.9693    1.1017    1.5306 H   0  0  0  0  0  0
   10.9319    2.6459    2.4474 H   0  0  0  0  0  0
   12.6389    1.7252    4.0063 H   0  0  0  0  0  0
   12.7122    0.2340    3.0076 H   0  0  0  0  0  0
   14.5584    2.7819    3.7936 H   0  0  0  0  0  0
   15.3144    3.1414    2.0821 H   0  0  0  0  0  0
    8.4236    2.9000    3.8585 H   0  0  0  0  0  0
    6.0391    1.6686    2.6200 H   0  0  0  0  0  0
    6.7338    4.5937    3.1541 H   0  0  0  0  0  0
    4.9528    4.3401    1.4675 H   0  0  0  0  0  0
    4.3427    5.0403    3.0052 H   0  0  0  0  0  0
    4.0267    3.3153    2.6160 H   0  0  0  0  0  0
    6.6715    3.1822    5.2046 H   0  0  0  0  0  0
    5.0112    2.6480    4.7745 H   0  0  0  0  0  0
    5.3272    4.3730    5.1637 H   0  0  0  0  0  0
    5.2409    1.6827    0.5998 H   0  0  0  0  0  0
    7.3885    2.4870   -1.3675 H   0  0  0  0  0  0
    5.0847    0.3764   -1.4781 H   0  0  0  0  0  0
    6.2136    0.6480   -2.8487 H   0  0  0  0  0  0
    7.0392   -0.2552   -0.0575 H   0  0  0  0  0  0
    6.7905   -1.3359   -1.4706 H   0  0  0  0  0  0
    9.0964   -0.2676    0.3973 H   0  0  0  0  0  0
   10.4640    0.0943   -0.8789 H   0  0  0  0  0  0
    4.4110    3.5263   -0.4215 H   0  0  0  0  0  0
    4.1238    4.9436   -3.0364 H   0  0  0  0  0  0
    1.6303    3.7898   -1.5463 H   0  0  0  0  0  0
    1.6218    4.5888   -3.1550 H   0  0  0  0  0  0
    2.7942    2.7219   -4.1106 H   0  0  0  0  0  0
    2.8741    1.9277   -2.5015 H   0  0  0  0  0  0
    1.1488    1.1177   -4.1298 H   0  0  0  0  0  0
    0.5924    1.5208   -2.4702 H   0  0  0  0  0  0
   -1.0475    2.2604   -3.8952 H   0  0  0  0  0  0
   -0.1344    3.7322   -3.4190 H   0  0  0  0  0  0
   -0.6305    3.7115   -5.7914 H   0  0  0  0  0  0
    0.2236    2.1405   -5.9617 H   0  0  0  0  0  0
    1.1368    3.6123   -5.4854 H   0  0  0  0  0  0
    2.4202    7.6879   -1.1750 H   0  0  0  0  0  0
  1  2  1  0  0  0
  1 91  1  0  0  0
  1 92  1  0  0  0
  1 93  1  0  0  0
  2  3  1  0  0  0
  2  5  1  0  0  0
  2 94  1  0  0  0
  3  4  2  0  0  0
  3 10  1  0  0  0
  5  6  1  0  0  0
  5 95  1  0  0  0
  5 96  1  0  0  0
  6  7  1  0  0  0
  6 97  1  0  0  0
  6 98  1  0  0  0
  7  8  1  0  0  0
  7 99  1  0  0  0
  7100  1  0  0  0
  8  9  1  0  0  0
  8101  1  0  0  0
  8102  1  0  0  0
  9103  1  0  0  0
  9104  1  0  0  0
  9105  1  0  0  0
 10 11  1  0  0  0
 10106  1  0  0  0
 11 12  1  0  0  0
 11 14  1  0  0  0
 11107  1  0  0  0
 12 13  2  0  0  0
 12 16  1  0  0  0
 14 15  1  0  0  0
 14108  1  0  0  0
 14109  1  0  0  0
 15110  1  0  0  0
 16 17  1  0  0  0
 16111  1  0  0  0
 17 18  1  0  0  0
 17 20  1  0  0  0
 17112  1  0  0  0
 18 19  2  0  0  0
 18 24  1  0  0  0
 20 21  1  0  0  0
 20113  1  0  0  0
 20114  1  0  0  0
 21 22  1  0  0  0
 21 23  1  0  0  0
 21115  1  0  0  0
 22116  1  0  0  0
 22117  1  0  0  0
 22118  1  0  0  0
 23119  1  0  0  0
 23120  1  0  0  0
 23121  1  0  0  0
 24 25  1  0  0  0
 24122  1  0  0  0
 25 26  1  0  0  0
 25 28  1  0  0  0
 25123  1  0  0  0
 26 27  2  0  0  0
 26 31  1  0  0  0
 28 29  1  0  0  0
 28 30  1  0  0  0
 28124  1  0  0  0
 29125  1  0  0  0
 30126  1  0  0  0
 30127  1  0  0  0
 30128  1  0  0  0
 31 32  1  0  0  0
 31129  1  0  0  0
 32 33  1  0  0  0
 32 35  1  0  0  0
 32130  1  0  0  0
 33 34  2  0  0  0
 33 39  1  0  0  0
 35 36  1  0  0  0
 35 37  1  0  0  0
 35131  1  0  0  0
 36 38  1  0  0  0
 36132  1  0  0  0
 36133  1  0  0  0
 37134  1  0  0  0
 37135  1  0  0  0
 37136  1  0  0  0
 38137  1  0  0  0
 38138  1  0  0  0
 38139  1  0  0  0
 39 40  1  0  0  0
 39140  1  0  0  0
 40 41  1  0  0  0
 40 43  1  0  0  0
 40141  1  0  0  0
 41 42  2  0  0  0
 41 51  1  0  0  0
 43 44  1  0  0  0
 43142  1  0  0  0
 43143  1  0  0  0
 44 45  2  0  0  0
 44 46  1  0  0  0
 45 47  1  0  0  0
 45144  1  0  0  0
 46 48  2  0  0  0
 46145  1  0  0  0
 47 49  2  0  0  0
 47146  1  0  0  0
 48 49  1  0  0  0
 48147  1  0  0  0
 49 50  1  0  0  0
 50148  1  0  0  0
 51 52  1  0  0  0
 51149  1  0  0  0
 52 53  1  0  0  0
 52 55  1  0  0  0
 52150  1  0  0  0
 53 54  2  0  0  0
 53 56  1  0  0  0
 55151  1  0  0  0
 55152  1  0  0  0
 55153  1  0  0  0
 56 57  1  0  0  0
 56154  1  0  0  0
 57 58  1  0  0  0
 57 60  1  0  0  0
 57155  1  0  0  0
 58 59  2  0  0  0
 58 65  1  0  0  0
 60 61  1  0  0  0
 60156  1  0  0  0
 60157  1  0  0  0
 61 62  1  0  0  0
 61158  1  0  0  0
 61159  1  0  0  0
 62 63  2  0  0  0
 62 64  1  0  0  0
 64160  1  0  0  0
 64161  1  0  0  0
 65 66  1  0  0  0
 65162  1  0  0  0
 66 67  1  0  0  0
 66 69  1  0  0  0
 66163  1  0  0  0
 67 68  2  0  0  0
 67 72  1  0  0  0
 69 70  1  0  0  0
 69 71  1  0  0  0
 69164  1  0  0  0
 70165  1  0  0  0
 70166  1  0  0  0
 70167  1  0  0  0
 71168  1  0  0  0
 71169  1  0  0  0
 71170  1  0  0  0
 72 73  1  0  0  0
 72171  1  0  0  0
 73 74  1  0  0  0
 73 76  1  0  0  0
 73172  1  0  0  0
 74 75  2  0  0  0
 74 81  1  0  0  0
 76 77  1  0  0  0
 76173  1  0  0  0
 76174  1  0  0  0
 77 78  1  0  0  0
 77175  1  0  0  0
 77176  1  0  0  0
 78 79  2  0  0  0
 78 80  1  0  0  0
 80177  1  0  0  0
 80178  1  0  0  0
 81 82  1  0  0  0
 81179  1  0  0  0
 82 83  1  0  0  0
 82 85  1  0  0  0
 82180  1  0  0  0
 83 84  2  0  0  0
 83 90  1  0  0  0
 85 86  1  0  0  0
 85181  1  0  0  0
 85182  1  0  0  0
 86 87  1  0  0  0
 86183  1  0  0  0
 86184  1  0  0  0
 87 88  1  0  0  0
 87185  1  0  0  0
 87186  1  0  0  0
 88 89  1  0  0  0
 88187  1  0  0  0
 88188  1  0  0  0
 89189  1  0  0  0
 89190  1  0  0  0
 89191  1  0  0  0
 90192  1  0  0  0
M  CHG  3   1   1   9   1  89   1
M  END
> <s_m_source_file>
../1d4t_ligand.sdf

> <i_m_source_file_index>
1

> <s_epik_input>
W05IMytdW0NIMl1bQ0gyXVtDSDJdW0NIMl1bQ0BIXShbTkgzK10pQyg9TylbTkhdW0NAQEhdKFtDSDJdW09IXSlDKD1PKVtOSF1bQ0BASF0oW0NIMl1bQ0hdKFtDSDNdKVtDSDNdKUMoPU8pW05IXVtDQEBIXShbQ0BIXShbT0hdKVtDSDNdKUMoPU8pW05IXVtDQEBIXShbQ0BASF0oW0NIM10pW0NIMl1bQ0gzXSlDKD1PKVtOSF1bQ0BASF0oW0NIMl1jMVtjSF1bY0hdYyhbT0hdKVtjSF1bY0hdMSlDKD1PKVtOSF1bQ0BASF0oW0NIM10pQyg9TylbTkhdW0NAQEhdKFtDSDJdW0NIMl1DKD1PKVtOSDJdKUMoPU8pW05IXVtDQEBIXShbQ0hdKFtDSDNdKVtDSDNdKUMoPU8pW05IXVtDQEBIXShbQ0gyXVtDSDJdQyg9TylbTkgyXSlDKD1PKVtOSF1bQ0BIXShDKD1PKVtPSF0pW0NIMl1bQ0gyXVtDSDJdW0NIMl1bTkgzK10=

> <s_epik_cmdline>
J2VwaWtfYXBwJywgJy1pbWFlJywgJ2xpZ2FuZF9wcm8ubWFlJywgJy1vbWFlJywgJ2xpZ2FuZF9wcmVwLm1hZScsICctbXMnLCAnMScsICctcGgnLCAnNycsICctcGh0JywgJzAuNScsICctbnQn

> <s_epik_pKa_notes>
Molecule size exceeds maximum supported for generating protonation states

$$$$
