1d4w_ligand
                    3D
 Schrodinger Suite 2020-3.
175175  0  0  1  0            999 V2000
   -0.1040  -11.0540    8.3520 N   0  3  0  0  0  0
    1.1030  -10.2200    8.3250 C   0  0  2  0  0  0
    1.6930  -10.0910    9.7260 C   0  0  0  0  0  0
    0.9590   -9.6650   10.6300 O   0  0  0  0  0  0
    0.7940   -8.8410    7.7400 C   0  0  0  0  0  0
    0.8050   -7.8220    8.7210 O   0  0  0  0  0  0
    2.9650  -10.4570    9.8620 N   0  0  0  0  0  0
    3.6820  -10.3930   11.1250 C   0  0  2  0  0  0
    4.4040   -9.0640   11.3030 C   0  0  0  0  0  0
    4.7760   -8.7690   12.4440 O   0  0  0  0  0  0
    4.6980  -11.5340   11.2530 C   0  0  0  0  0  0
    4.0740  -12.9350   11.2930 C   0  0  0  0  0  0
    5.1040  -13.9860   11.6670 C   0  0  0  0  0  0
    2.9030  -12.9730   12.2580 C   0  0  0  0  0  0
    4.5860   -8.2820   10.2510 N   0  0  0  0  0  0
    5.1580   -6.9400   10.3820 C   0  0  2  0  0  0
    4.0960   -5.9050   10.7190 C   0  0  0  0  0  0
    3.0440   -5.8090   10.0590 O   0  0  0  0  0  0
    5.8930   -6.5710    9.0730 C   0  0  2  0  0  0
    7.1740   -7.2290    9.0390 O   0  0  0  0  0  0
    6.1760   -5.0700    8.9700 C   0  0  0  0  0  0
    4.3600   -5.1010   11.7550 N   0  0  0  0  0  0
    3.5030   -3.9540   12.0900 C   0  0  2  0  0  0
    4.3350   -2.6750   12.0190 C   0  0  0  0  0  0
    5.3370   -2.6000   12.7190 O   0  0  0  0  0  0
    2.8220   -4.1280   13.4550 C   0  0  2  0  0  0
    1.6860   -5.1740   13.4230 C   0  0  0  0  0  0
    2.2540   -2.8300   14.0120 C   0  0  0  0  0  0
    1.3040   -5.6470   14.8090 C   0  0  0  0  0  0
    3.9870   -1.7400   11.1600 N   0  0  0  0  0  0
    4.6520   -0.4490   11.0650 C   0  0  2  0  0  0
    4.1870    0.5470   12.1310 C   0  0  0  0  0  0
    3.1170    1.1510   12.0290 O   0  0  0  0  0  0
    4.4820    0.1310    9.6660 C   0  0  0  0  0  0
    5.4660   -0.4630    8.6770 C   0  0  0  0  0  0
    5.0990   -1.5540    7.9130 C   0  0  0  0  0  0
    6.7830    0.0140    8.6030 C   0  0  0  0  0  0
    5.9880   -2.2150    7.0720 C   0  0  0  0  0  0
    7.6810   -0.6440    7.7640 C   0  0  0  0  0  0
    7.2950   -1.7430    7.0120 C   0  0  0  0  0  0
    8.2580   -2.4170    6.1650 O   0  0  0  0  0  0
    8.5440   -1.8860    4.6560 P   0  0  0  0  0  0
    7.2720   -2.2290    3.9480 O   0  0  0  0  0  0
    9.6700   -2.7210    4.1670 O   0  0  0  0  0  0
    8.7830   -0.4500    4.6480 O   0  0  0  0  0  0
    5.0480    0.7270   13.1660 N   0  0  0  0  0  0
    4.6480    1.5280   14.3290 C   0  0  2  0  0  0
    5.3790    2.8580   14.2330 C   0  0  0  0  0  0
    6.1760    3.0100   13.3040 O   0  0  0  0  0  0
    4.9590    0.7610   15.5960 C   0  0  0  0  0  0
    5.1370    3.7860   15.1170 N   0  0  0  0  0  0
    5.6930    5.1280   15.1510 C   0  0  2  0  0  0
    6.2030    5.4160   16.5580 C   0  0  0  0  0  0
    5.6170    4.9120   17.5230 O   0  0  0  0  0  0
    4.6190    6.1460   14.7540 C   0  0  0  0  0  0
    4.1100    5.9510   13.3300 C   0  0  0  0  0  0
    3.1330    7.0620   12.9700 C   0  0  0  0  0  0
    2.2350    7.3580   13.7610 O   0  0  0  0  0  0
    3.3200    7.6330   11.7960 N   0  0  0  0  0  0
    7.2840    6.1920   16.6390 N   0  0  0  0  0  0
    7.8160    6.5690   17.9460 C   0  0  2  0  0  0
    6.7500    7.3680   18.6940 C   0  0  0  0  0  0
    6.2420    8.3360   18.1040 O   0  0  0  0  0  0
    9.1180    7.3890   17.8160 C   0  0  0  0  0  0
    9.6100    7.8340   19.1770 C   0  0  0  0  0  0
   10.2000    6.5950   17.0890 C   0  0  0  0  0  0
    6.4010    7.0070   19.9260 N   0  0  0  0  0  0
    5.2470    7.6120   20.6010 C   0  0  2  0  0  0
    5.6110    8.6690   21.6360 C   0  0  0  0  0  0
    4.6690    9.2550   22.2030 O   0  0  0  0  0  0
    4.4220    6.5310   21.3130 C   0  0  0  0  0  0
    3.8390    5.4390   20.4170 C   0  0  0  0  0  0
    2.6560    5.9390   19.6100 C   0  0  0  0  0  0
    1.9160    6.7770   20.1280 O   0  0  0  0  0  0
    2.4660    5.4620   18.3860 N   0  0  0  0  0  0
    6.8820    8.9160   21.9000 N   0  0  0  0  0  0
    7.4060    9.8930   22.8380 C   0  0  2  0  0  0
    8.6760   10.5710   22.3230 C   0  0  0  0  0  0
    9.2380   10.1170   21.3090 O   0  0  0  0  0  0
    7.7600    9.2940   24.2050 C   0  0  0  0  0  0
    6.7140    8.3730   24.8030 C   0  0  0  0  0  0
    6.9220    8.1540   26.3050 C   0  0  0  0  0  0
    5.6550    7.5460   26.8920 C   0  0  0  0  0  0
    5.8940    6.7120   28.1010 N   0  3  0  0  0  0
    9.1030   11.5600   22.9640 O   0  0  0  0  0  0
    0.1405  -12.0393    8.7756 H   0  0  0  0  0  0
   -0.4859  -11.1796    7.3281 H   0  0  0  0  0  0
   -0.8714  -10.5683    8.9726 H   0  0  0  0  0  0
    1.8193  -10.7413    7.6729 H   0  0  0  0  0  0
    1.5479   -8.5878    6.9801 H   0  0  0  0  0  0
   -0.2035   -8.8544    7.2766 H   0  0  0  0  0  0
    0.5979   -6.7804    8.4344 H   0  0  0  0  0  0
    3.4747  -10.8220    8.9581 H   0  0  0  0  0  0
    2.8826  -10.4901   11.8743 H   0  0  0  0  0  0
    5.3840  -11.5122   10.3934 H   0  0  0  0  0  0
    5.2720  -11.4113   12.1833 H   0  0  0  0  0  0
    3.7000  -13.1766   10.2871 H   0  0  0  0  0  0
    5.9443  -13.9444   10.9583 H   0  0  0  0  0  0
    4.6410  -14.9831   11.6286 H   0  0  0  0  0  0
    5.4729  -13.7919   12.6850 H   0  0  0  0  0  0
    2.1677  -12.2063   11.9726 H   0  0  0  0  0  0
    3.2623  -12.7745   13.2785 H   0  0  0  0  0  0
    2.4305  -13.9657   12.2222 H   0  0  0  0  0  0
    4.2961   -8.6620    9.2603 H   0  0  0  0  0  0
    5.8523   -6.9879   11.2339 H   0  0  0  0  0  0
    5.2898   -6.9159    8.2202 H   0  0  0  0  0  0
    7.2307   -8.3259    9.0994 H   0  0  0  0  0  0
    5.2262   -4.5155    8.9913 H   0  0  0  0  0  0
    6.7021   -4.8599    8.0271 H   0  0  0  0  0  0
    6.8030   -4.7561    9.8176 H   0  0  0  0  0  0
    5.2495   -5.3194   12.3642 H   0  0  0  0  0  0
    2.7064   -3.9208   11.3321 H   0  0  0  0  0  0
    3.6313   -4.4650   14.1195 H   0  0  0  0  0  0
    0.7938   -4.7322   12.9552 H   0  0  0  0  0  0
    2.0098   -6.0493   12.8408 H   0  0  0  0  0  0
    3.0461   -2.0674   14.0448 H   0  0  0  0  0  0
    1.8702   -3.0039   15.0281 H   0  0  0  0  0  0
    1.4353   -2.4808   13.3656 H   0  0  0  0  0  0
    0.4944   -6.3879   14.7334 H   0  0  0  0  0  0
    0.9620   -4.7899   15.4076 H   0  0  0  0  0  0
    2.1780   -6.1070   15.2933 H   0  0  0  0  0  0
    3.1457   -1.9758   10.4917 H   0  0  0  0  0  0
    5.7097   -0.6809   11.2586 H   0  0  0  0  0  0
    3.4647   -0.0780    9.3036 H   0  0  0  0  0  0
    4.6436    1.2186    9.6978 H   0  0  0  0  0  0
    4.0709   -1.9113    7.9717 H   0  0  0  0  0  0
    7.0968    0.8787    9.1877 H   0  0  0  0  0  0
    5.6712   -3.0737    6.4801 H   0  0  0  0  0  0
    8.7087   -0.2868    7.6978 H   0  0  0  0  0  0
    6.9522   -3.2785    3.8691 H   0  0  0  0  0  0
    9.5714   -3.8163    4.1404 H   0  0  0  0  0  0
    6.0480    0.2701   13.1305 H   0  0  0  0  0  0
    3.5627    1.7071   14.3230 H   0  0  0  0  0  0
    4.3988   -0.1857   15.5984 H   0  0  0  0  0  0
    4.6668    1.3622   16.4696 H   0  0  0  0  0  0
    6.0374    0.5490   15.6409 H   0  0  0  0  0  0
    4.4304    3.4635   15.8959 H   0  0  0  0  0  0
    6.5221    5.1546   14.4285 H   0  0  0  0  0  0
    3.7578    6.0536   15.4320 H   0  0  0  0  0  0
    5.0335    7.1625   14.8242 H   0  0  0  0  0  0
    4.9588    5.9747   12.6308 H   0  0  0  0  0  0
    3.5986    4.9802   13.2531 H   0  0  0  0  0  0
    4.1491    7.3061   11.1512 H   0  0  0  0  0  0
    2.6469    8.4362   11.4616 H   0  0  0  0  0  0
    7.7753    6.5484   15.7216 H   0  0  0  0  0  0
    8.0404    5.6273   18.4684 H   0  0  0  0  0  0
    8.9077    8.2928   17.2253 H   0  0  0  0  0  0
    8.8179    8.4037   19.6850 H   0  0  0  0  0  0
   10.4990    8.4704   19.0555 H   0  0  0  0  0  0
    9.8706    6.9512   19.7793 H   0  0  0  0  0  0
    9.8247    6.2808   16.1039 H   0  0  0  0  0  0
   10.4633    5.7064   17.6816 H   0  0  0  0  0  0
   11.0917    7.2256   16.9577 H   0  0  0  0  0  0
    6.9974    6.2382   20.4390 H   0  0  0  0  0  0
    4.7113    8.0982   19.7724 H   0  0  0  0  0  0
    5.0527    6.0163   22.0528 H   0  0  0  0  0  0
    3.5666    6.9987   21.8225 H   0  0  0  0  0  0
    4.6108    5.0896   19.7154 H   0  0  0  0  0  0
    3.5001    4.5970   21.0384 H   0  0  0  0  0  0
    3.1591    4.7141   17.9734 H   0  0  0  0  0  0
    1.6154    5.8146   17.7842 H   0  0  0  0  0  0
    7.5718    8.2860   21.3194 H   0  0  0  0  0  0
    6.5554   10.5874   22.9045 H   0  0  0  0  0  0
    8.6826    8.7014   24.1178 H   0  0  0  0  0  0
    7.9125   10.1050   24.9323 H   0  0  0  0  0  0
    5.7149    8.8097   24.6577 H   0  0  0  0  0  0
    6.7615    7.3927   24.3062 H   0  0  0  0  0  0
    7.7704    7.4717   26.4620 H   0  0  0  0  0  0
    7.1324    9.1184   26.7905 H   0  0  0  0  0  0
    4.9625    8.3501   27.1816 H   0  0  0  0  0  0
    5.1751    6.9019   26.1405 H   0  0  0  0  0  0
    4.9366    6.3102   28.4644 H   0  0  0  0  0  0
    6.3547    7.3288   28.8867 H   0  0  0  0  0  0
    6.5673    5.8805   27.8456 H   0  0  0  0  0  0
   10.0134   12.0799   22.6310 H   0  0  0  0  0  0
  1  2  1  0  0  0
  1 86  1  0  0  0
  1 87  1  0  0  0
  1 88  1  0  0  0
  2  3  1  0  0  0
  2  5  1  0  0  0
  2 89  1  0  0  0
  3  4  2  0  0  0
  3  7  1  0  0  0
  5  6  1  0  0  0
  5 90  1  0  0  0
  5 91  1  0  0  0
  6 92  1  0  0  0
  7  8  1  0  0  0
  7 93  1  0  0  0
  8  9  1  0  0  0
  8 11  1  0  0  0
  8 94  1  0  0  0
  9 10  2  0  0  0
  9 15  1  0  0  0
 11 12  1  0  0  0
 11 95  1  0  0  0
 11 96  1  0  0  0
 12 13  1  0  0  0
 12 14  1  0  0  0
 12 97  1  0  0  0
 13 98  1  0  0  0
 13 99  1  0  0  0
 13100  1  0  0  0
 14101  1  0  0  0
 14102  1  0  0  0
 14103  1  0  0  0
 15 16  1  0  0  0
 15104  1  0  0  0
 16 17  1  0  0  0
 16 19  1  0  0  0
 16105  1  0  0  0
 17 18  2  0  0  0
 17 22  1  0  0  0
 19 20  1  0  0  0
 19 21  1  0  0  0
 19106  1  0  0  0
 20107  1  0  0  0
 21108  1  0  0  0
 21109  1  0  0  0
 21110  1  0  0  0
 22 23  1  0  0  0
 22111  1  0  0  0
 23 24  1  0  0  0
 23 26  1  0  0  0
 23112  1  0  0  0
 24 25  2  0  0  0
 24 30  1  0  0  0
 26 27  1  0  0  0
 26 28  1  0  0  0
 26113  1  0  0  0
 27 29  1  0  0  0
 27114  1  0  0  0
 27115  1  0  0  0
 28116  1  0  0  0
 28117  1  0  0  0
 28118  1  0  0  0
 29119  1  0  0  0
 29120  1  0  0  0
 29121  1  0  0  0
 30 31  1  0  0  0
 30122  1  0  0  0
 31 32  1  0  0  0
 31 34  1  0  0  0
 31123  1  0  0  0
 32 33  2  0  0  0
 32 46  1  0  0  0
 34 35  1  0  0  0
 34124  1  0  0  0
 34125  1  0  0  0
 35 36  2  0  0  0
 35 37  1  0  0  0
 36 38  1  0  0  0
 36126  1  0  0  0
 37 39  2  0  0  0
 37127  1  0  0  0
 38 40  2  0  0  0
 38128  1  0  0  0
 39 40  1  0  0  0
 39129  1  0  0  0
 40 41  1  0  0  0
 41 42  1  0  0  0
 42 43  1  0  0  0
 42 44  1  0  0  0
 42 45  2  0  0  0
 43130  1  0  0  0
 44131  1  0  0  0
 46 47  1  0  0  0
 46132  1  0  0  0
 47 48  1  0  0  0
 47 50  1  0  0  0
 47133  1  0  0  0
 48 49  2  0  0  0
 48 51  1  0  0  0
 50134  1  0  0  0
 50135  1  0  0  0
 50136  1  0  0  0
 51 52  1  0  0  0
 51137  1  0  0  0
 52 53  1  0  0  0
 52 55  1  0  0  0
 52138  1  0  0  0
 53 54  2  0  0  0
 53 60  1  0  0  0
 55 56  1  0  0  0
 55139  1  0  0  0
 55140  1  0  0  0
 56 57  1  0  0  0
 56141  1  0  0  0
 56142  1  0  0  0
 57 58  2  0  0  0
 57 59  1  0  0  0
 59143  1  0  0  0
 59144  1  0  0  0
 60 61  1  0  0  0
 60145  1  0  0  0
 61 62  1  0  0  0
 61 64  1  0  0  0
 61146  1  0  0  0
 62 63  2  0  0  0
 62 67  1  0  0  0
 64 65  1  0  0  0
 64 66  1  0  0  0
 64147  1  0  0  0
 65148  1  0  0  0
 65149  1  0  0  0
 65150  1  0  0  0
 66151  1  0  0  0
 66152  1  0  0  0
 66153  1  0  0  0
 67 68  1  0  0  0
 67154  1  0  0  0
 68 69  1  0  0  0
 68 71  1  0  0  0
 68155  1  0  0  0
 69 70  2  0  0  0
 69 76  1  0  0  0
 71 72  1  0  0  0
 71156  1  0  0  0
 71157  1  0  0  0
 72 73  1  0  0  0
 72158  1  0  0  0
 72159  1  0  0  0
 73 74  2  0  0  0
 73 75  1  0  0  0
 75160  1  0  0  0
 75161  1  0  0  0
 76 77  1  0  0  0
 76162  1  0  0  0
 77 78  1  0  0  0
 77 80  1  0  0  0
 77163  1  0  0  0
 78 79  2  0  0  0
 78 85  1  0  0  0
 80 81  1  0  0  0
 80164  1  0  0  0
 80165  1  0  0  0
 81 82  1  0  0  0
 81166  1  0  0  0
 81167  1  0  0  0
 82 83  1  0  0  0
 82168  1  0  0  0
 82169  1  0  0  0
 83 84  1  0  0  0
 83170  1  0  0  0
 83171  1  0  0  0
 84172  1  0  0  0
 84173  1  0  0  0
 84174  1  0  0  0
 85175  1  0  0  0
M  CHG  2   1   1  84   1
M  END
> <s_m_source_file>
../1d4w_ligand.sdf

> <i_m_source_file_index>
1

> <s_epik_input>
W09IXVtDSDJdW0NASF0oW05IMytdKUMoPU8pW05IXVtDQEBIXShbQ0gyXVtDSF0oW0NIM10pW0NIM10pQyg9TylbTkhdW0NAQEhdKFtDQEhdKFtPSF0pW0NIM10pQyg9TylbTkhdW0NAQEhdKFtDQEBIXShbQ0gzXSlbQ0gyXVtDSDNdKUMoPU8pW05IXVtDQEBIXShbQ0gyXWMxW2NIXVtjSF1jKFtjSF1bY0hdMSlPUCg9TykoW09IXSlbT0hdKUMoPU8pW05IXVtDQEBIXShbQ0gzXSlDKD1PKVtOSF1bQ0BASF0oW0NIMl1bQ0gyXUMoPU8pW05IMl0pQyg9TylbTkhdW0NAQEhdKFtDSF0oW0NIM10pW0NIM10pQyg9TylbTkhdW0NAQEhdKFtDSDJdW0NIMl1DKD1PKVtOSDJdKUMoPU8pW05IXVtDQEhdKEMoPU8pW09IXSlbQ0gyXVtDSDJdW0NIMl1bQ0gyXVtOSDMrXQ==

> <s_epik_cmdline>
J2VwaWtfYXBwJywgJy1pbWFlJywgJ2xpZ2FuZF9wcm8ubWFlJywgJy1vbWFlJywgJ2xpZ2FuZF9wcmVwLm1hZScsICctbXMnLCAnMScsICctcGgnLCAnNycsICctcGh0JywgJzAuNScsICctbnQn

> <s_epik_pKa_notes>
Molecule size exceeds maximum supported for generating protonation states

$$$$
