1d5j_ligand
                    3D
 Schrodinger Suite 2020-3.
 46 47  0  0  1  0            999 V2000
   -7.1220   20.1440   30.1970 C   0  0  0  0  0  0
   -7.6020   18.7890   29.9880 C   0  0  0  0  0  0
   -6.6840   17.6950   30.2860 C   0  0  0  0  0  0
   -5.3460   18.0760   30.7490 C   0  0  0  0  0  0
   -4.9230   19.4570   30.9610 C   0  0  0  0  0  0
   -5.8240   20.5500   30.6810 C   0  0  0  0  0  0
   -4.3900   17.1480   30.8890 O   0  0  0  0  0  0
   -4.6050   15.8300   30.8560 C   0  0  0  0  0  0
   -8.3160   21.4080   29.7660 S   0  0  0  0  0  0
   -9.9100   20.7480   30.1940 O   0  0  0  0  0  0
   -8.0540   22.8590   30.5810 O   0  0  0  0  0  0
   -8.2880   22.0020   28.1290 N   0  0  1  0  0  0
   -7.2700   22.7380   27.3640 C   0  0  1  0  0  0
   -7.6030   24.2400   27.2370 C   0  0  0  0  0  0
   -9.4280   24.2800   27.2770 S   0  0  0  0  0  0
  -10.4670   23.0110   26.4660 C   0  0  0  0  0  0
  -10.4560   21.6300   27.1300 C   0  0  0  0  0  0
   -9.0470   21.1090   27.2530 C   0  0  0  0  0  0
   -7.2900   24.6330   25.8090 C   0  0  0  0  0  0
   -7.0590   25.5030   27.8950 C   0  0  0  0  0  0
   -5.8110   22.4030   27.6920 C   0  0  0  0  0  0
   -5.0430   23.3000   28.3020 N   0  0  0  0  0  0
   -3.6240   23.0260   27.8490 O   0  0  0  0  0  0
   -5.3140   21.3390   27.3190 O   0  0  0  0  0  0
   -8.6106   18.5968   29.6221 H   0  0  0  0  0  0
   -6.9768   16.6514   30.1707 H   0  0  0  0  0  0
   -3.9198   19.6645   31.3333 H   0  0  0  0  0  0
   -5.5472   21.5946   30.8232 H   0  0  0  0  0  0
   -3.6517   15.2994   30.9960 H   0  0  0  0  0  0
   -5.0392   15.5536   29.8839 H   0  0  0  0  0  0
   -5.3012   15.5518   31.6610 H   0  0  0  0  0  0
   -7.3817   22.2921   26.3646 H   0  0  0  0  0  0
  -11.5151   23.3448   26.4594 H   0  0  0  0  0  0
  -10.1232   22.8618   25.4318 H   0  0  0  0  0  0
  -10.8970   21.7029   28.1351 H   0  0  0  0  0  0
  -11.0434   20.9261   26.5221 H   0  0  0  0  0  0
   -8.5731   21.0788   26.2608 H   0  0  0  0  0  0
   -9.0604   20.0970   27.6838 H   0  0  0  0  0  0
   -7.6124   23.8308   25.1289 H   0  0  0  0  0  0
   -6.2068   24.7917   25.7014 H   0  0  0  0  0  0
   -7.8233   25.5621   25.5591 H   0  0  0  0  0  0
   -7.1882   25.4333   28.9852 H   0  0  0  0  0  0
   -7.6064   26.3787   27.5162 H   0  0  0  0  0  0
   -5.9899   25.6083   27.6584 H   0  0  0  0  0  0
   -5.2469   24.1203   29.0060 H   0  0  0  0  0  0
   -2.7973   23.6473   28.2240 H   0  0  0  0  0  0
  1  2  2  0  0  0
  1  6  1  0  0  0
  1  9  1  0  0  0
  2  3  1  0  0  0
  2 25  1  0  0  0
  3  4  2  0  0  0
  3 26  1  0  0  0
  4  5  1  0  0  0
  4  7  1  0  0  0
  5  6  2  0  0  0
  5 27  1  0  0  0
  6 28  1  0  0  0
  7  8  1  0  0  0
  8 29  1  0  0  0
  8 30  1  0  0  0
  8 31  1  0  0  0
  9 10  2  0  0  0
  9 11  2  0  0  0
  9 12  1  0  0  0
 12 13  1  0  0  0
 12 18  1  0  0  0
 13 14  1  0  0  0
 13 21  1  0  0  0
 13 32  1  0  0  0
 14 15  1  0  0  0
 14 19  1  0  0  0
 14 20  1  0  0  0
 15 16  1  0  0  0
 16 17  1  0  0  0
 16 33  1  0  0  0
 16 34  1  0  0  0
 17 18  1  0  0  0
 17 35  1  0  0  0
 17 36  1  0  0  0
 18 37  1  0  0  0
 18 38  1  0  0  0
 19 39  1  0  0  0
 19 40  1  0  0  0
 19 41  1  0  0  0
 20 42  1  0  0  0
 20 43  1  0  0  0
 20 44  1  0  0  0
 21 22  1  0  0  0
 21 24  2  0  0  0
 22 23  1  0  0  0
 22 45  1  0  0  0
 23 46  1  0  0  0
M  END
> <s_m_source_file>
../1d5j_ligand.sdf

> <i_m_source_file_index>
1

> <s_epik_input>
W2NIXTFbY0hdYyhPW0NIM10pW2NIXVtjSF1jMVMoPU8pKD1PKU4oW0NIMl1bQ0gyXVtDSDJdUzIpW0NAQEhdKEMyKFtDSDNdKVtDSDNdKUMoPU8pW05IXVtPSF0=

> <s_epik_cmdline>
J2VwaWtfYXBwJywgJy1pbWFlJywgJ2xpZ2FuZF9wcm8ubWFlJywgJy1vbWFlJywgJ2xpZ2FuZF9wcmVwLm1hZScsICctbXMnLCAnMScsICctcGgnLCAnNycsICctcGh0JywgJzAuNScsICctbnQn

> <r_lp_tautomer_probability>
1

> <r_epik_Ionization_Penalty>
  0.0229

> <r_epik_Ionization_Penalty_Charging>
  0.0000

> <r_epik_Ionization_Penalty_Neutral>
  0.0229

> <r_epik_State_Penalty>
  0.0185

> <r_epik_Charging_Adjusted_Penalty>
0.0184732857198682

> <i_epik_Tot_Q>
0

> <i_epik_Tot_abs_Q>
0

> <s_epik_Chemistry_Notes>
This compound has a N-S or N-O group and may undergo hydrolysis at high or low pH.

$$$$
