1d6s_ligand
                    3D
 Schrodinger Suite 2020-3.
 41 41  0  0  1  0            999 V2000
   40.4640   25.0370   17.6250 N   0  3  0  0  0  0
   41.6220   24.2900   18.2040 C   0  0  2  0  0  0
   42.9050   24.4680   17.3360 C   0  0  0  0  0  0
   43.8440   23.6440   17.4600 O   0  5  0  0  0  0
   41.2680   22.7990   18.3530 C   0  0  0  0  0  0
   41.1220   22.0630   17.0250 C   0  0  0  0  0  0
   40.4850   20.3820   17.1820 S   0  0  0  0  0  0
   40.1290   20.0040   15.4460 C   0  0  0  0  0  0
   42.9990   25.4450   16.5540 O   0  0  0  0  0  0
   35.8800   26.2890   15.9320 N   0  3  0  0  0  0
   37.1410   26.6340   15.5110 C   0  0  0  0  0  0
   37.3360   27.3530   14.1880 C   0  0  0  0  0  0
   38.2330   26.2780   16.2510 C   0  0  0  0  0  0
   39.4740   26.6940   15.8500 O   0  5  0  0  0  0
   38.0720   25.5390   17.4200 C   0  0  0  0  0  0
   39.3040   25.0280   18.1910 C   0  0  0  0  0  0
   36.8060   25.1890   17.8340 C   0  0  0  0  0  0
   35.7160   25.5730   17.0960 C   0  0  0  0  0  0
   36.6150   24.2650   19.0140 C   0  0  0  0  0  0
   36.6570   24.9630   20.2560 O   0  0  0  0  0  0
   37.0930   24.1340   21.5490 P   0  0  0  0  0  0
   36.8510   24.9160   22.7760 O   0  0  0  0  0  0
   36.0340   22.9220   21.5210 O   0  5  0  0  0  0
   38.4330   23.5630   21.2790 O   0  5  0  0  0  0
   41.7976   24.7240   19.1994 H   0  0  0  0  0  0
   42.0593   22.2894   18.9224 H   0  0  0  0  0  0
   40.3111   22.7009   18.8866 H   0  0  0  0  0  0
   40.4262   22.6139   16.3751 H   0  0  0  0  0  0
   42.1042   21.9929   16.5347 H   0  0  0  0  0  0
   39.7221   18.9850   15.3686 H   0  0  0  0  0  0
   41.0559   20.0744   14.8579 H   0  0  0  0  0  0
   39.3929   20.7232   15.0577 H   0  0  0  0  0  0
   36.3552   27.5591   13.7347 H   0  0  0  0  0  0
   37.9274   26.7198   13.5103 H   0  0  0  0  0  0
   37.8667   28.3009   14.3606 H   0  0  0  0  0  0
   39.1973   24.6562   19.2208 H   0  0  0  0  0  0
   34.7135   25.3096   17.4332 H   0  0  0  0  0  0
   35.6376   23.7665   18.9349 H   0  0  0  0  0  0
   37.4132   23.5081   19.0200 H   0  0  0  0  0  0
   40.6177   25.6034   16.6947 H   0  0  0  0  0  0
   35.0020   26.5849   15.3390 H   0  0  0  0  0  0
  1  2  1  0  0  0
  1 16  2  0  0  0
  1 40  1  0  0  0
  2  3  1  0  0  0
  2  5  1  0  0  0
  2 25  1  0  0  0
  3  4  1  0  0  0
  3  9  2  0  0  0
  5  6  1  0  0  0
  5 26  1  0  0  0
  5 27  1  0  0  0
  6  7  1  0  0  0
  6 28  1  0  0  0
  6 29  1  0  0  0
  7  8  1  0  0  0
  8 30  1  0  0  0
  8 31  1  0  0  0
  8 32  1  0  0  0
 10 11  2  0  0  0
 10 18  1  0  0  0
 10 41  1  0  0  0
 11 12  1  0  0  0
 11 13  1  0  0  0
 12 33  1  0  0  0
 12 34  1  0  0  0
 12 35  1  0  0  0
 13 14  1  0  0  0
 13 15  2  0  0  0
 15 16  1  0  0  0
 15 17  1  0  0  0
 16 36  1  0  0  0
 17 18  2  0  0  0
 17 19  1  0  0  0
 18 37  1  0  0  0
 19 20  1  0  0  0
 19 38  1  0  0  0
 19 39  1  0  0  0
 20 21  1  0  0  0
 21 22  2  0  0  0
 21 23  1  0  0  0
 21 24  1  0  0  0
M  CHG  6   1   1   4  -1  10   1  14  -1  23  -1  24  -1
M  END
> <s_m_source_file>
../1d6s_ligand.sdf

> <i_m_source_file_index>
1

> <s_epik_input>
W0NIM11TW0NIMl1bQ0gyXVtDQEBIXShDKD1PKVtPSF0pL049W0NIXS9jKGMxW09IXSljKFtjSF1uYzFbQ0gzXSlbQ0gyXU9QKD1PKShbT0hdKVtPSF0=

> <s_epik_cmdline>
J2VwaWtfYXBwJywgJy1pbWFlJywgJ2xpZ2FuZF9wcm8ubWFlJywgJy1vbWFlJywgJ2xpZ2FuZF9wcmVwLm1hZScsICctbXMnLCAnMScsICctcGgnLCAnNycsICctcGh0JywgJzAuNScsICctbnQn

> <r_epik_Ionization_Penalty>
  0.1400

> <r_epik_Ionization_Penalty_Charging>
  0.1400

> <r_epik_Ionization_Penalty_Neutral>
  0.0000

> <r_epik_State_Penalty>
  0.1598

> <r_epik_Charging_Adjusted_Penalty>
0.299783572800918

> <i_epik_Tot_Q>
-2

> <i_epik_Tot_abs_Q>
6

> <s_epik_Chemistry_Notes>
This compound has an imine and may undergo hydrolysis.

$$$$
