1d6w_ligand
                    3D
 Schrodinger Suite 2020-3.
 66 70  0  0  1  0            999 V2000
   13.5570  -11.0860   19.9620 C   0  0  0  0  0  0
   14.4460  -12.4670   20.0420 C   0  0  2  0  0  0
   13.4950  -13.6750   20.3320 C   0  0  0  0  0  0
   12.3520  -13.3920   21.4960 C   0  0  0  0  0  0
   12.8360  -12.0680   22.3430 C   0  0  1  0  0  0
   12.9450  -10.7710   21.4690 C   0  0  0  0  0  0
   15.5870  -12.3820   20.9900 N   0  0  0  0  0  0
   12.0340  -11.9000   23.2690 C   0  0  0  0  0  0
   11.6470  -12.8270   24.2480 N   0  0  0  0  0  0
   10.7930  -12.2360   25.1330 C   0  0  0  0  0  0
   10.6170  -10.9750   24.7980 N   0  3  0  0  0  0
   11.4440  -10.7640   23.5830 C   0  0  0  0  0  0
   10.2640  -12.9570   26.1260 N   0  0  0  0  0  0
   17.3700  -17.1500   23.9450 C   0  0  0  0  0  0
   18.0250  -16.1340   23.1370 N   0  0  0  0  0  0
   19.1440  -16.3230   22.3250 C   0  0  0  0  0  0
   19.8090  -17.3580   22.1880 O   0  0  0  0  0  0
   19.3820  -15.1200   21.6610 N   0  0  0  0  0  0
   18.3990  -14.2200   22.0660 N   0  0  0  0  0  0
   17.5690  -14.8270   22.9990 C   0  0  0  0  0  0
   16.5890  -14.3440   23.5610 O   0  0  0  0  0  0
   20.6360  -14.6960   21.0740 C   0  0  0  0  0  0
   20.5340  -13.3510   20.3930 C   0  0  0  0  0  0
   19.4230  -12.5950   20.5510 C   0  0  0  0  0  0
   18.2030  -12.9610   21.3610 C   0  0  1  0  0  0
   16.9240  -13.1160   20.5000 C   0  0  0  0  0  0
   16.9030  -13.8470   19.2370 O   0  0  0  0  0  0
   18.3370  -17.9690   24.7590 C   0  0  0  0  0  0
   18.8410  -17.1800   26.2810 S   0  0  0  0  0  0
   17.6720  -16.3950   26.7250 O   0  0  0  0  0  0
   19.2610  -18.2340   27.1910 O   0  0  0  0  0  0
   20.1650  -16.0750   25.8620 C   0  0  0  0  0  0
   20.1810  -14.7560   26.3300 C   0  0  0  0  0  0
   21.2000  -13.8930   25.9430 C   0  0  0  0  0  0
   22.2100  -14.3250   25.1010 C   0  0  0  0  0  0
   22.2260  -15.6300   24.6340 C   0  0  0  0  0  0
   21.2070  -16.4980   25.0150 C   0  0  0  0  0  0
   12.7289  -11.2120   19.2490 H   0  0  0  0  0  0
   14.1924  -10.2472   19.6416 H   0  0  0  0  0  0
   15.0044  -12.6731   19.1169 H   0  0  0  0  0  0
   12.9532  -13.9439   19.4132 H   0  0  0  0  0  0
   14.0891  -14.5359   20.6726 H   0  0  0  0  0  0
   11.3785  -13.2100   21.0173 H   0  0  0  0  0  0
   12.2774  -14.2679   22.1573 H   0  0  0  0  0  0
   13.7431  -12.1767   22.9557 H   0  0  0  0  0  0
   13.6028  -10.0602   21.9906 H   0  0  0  0  0  0
   11.9389  -10.3367   21.3728 H   0  0  0  0  0  0
   15.4716  -11.8445   21.9428 H   0  0  0  0  0  0
   11.6133   -9.8679   22.9679 H   0  0  0  0  0  0
   10.5395  -14.0153   26.2445 H   0  0  0  0  0  0
    9.5530  -12.4922   26.8249 H   0  0  0  0  0  0
   16.6702  -16.6680   24.6435 H   0  0  0  0  0  0
   16.8174  -17.8396   23.2899 H   0  0  0  0  0  0
   21.4014  -14.6190   21.8603 H   0  0  0  0  0  0
   20.9560  -15.4318   20.3216 H   0  0  0  0  0  0
   21.3631  -12.9865   19.7687 H   0  0  0  0  0  0
   19.3529  -11.6116   20.0631 H   0  0  0  0  0  0
   18.0978  -12.1559   22.1031 H   0  0  0  0  0  0
   17.8704  -18.9287   25.0261 H   0  0  0  0  0  0
   19.2468  -18.1552   24.1694 H   0  0  0  0  0  0
   19.3943  -14.4053   26.9981 H   0  0  0  0  0  0
   21.2035  -12.8654   26.3065 H   0  0  0  0  0  0
   22.9985  -13.6340   24.8030 H   0  0  0  0  0  0
   23.0259  -15.9718   23.9772 H   0  0  0  0  0  0
   21.2158  -17.5252   24.6506 H   0  0  0  0  0  0
    9.9568  -10.3331   25.3997 H   0  0  0  0  0  0
  1  6  1  0  0  0
  1  2  1  0  0  0
  1 38  1  0  0  0
  1 39  1  0  0  0
  2  7  1  0  0  0
  2  3  1  0  0  0
  2 40  1  0  0  0
  3  4  1  0  0  0
  3 41  1  0  0  0
  3 42  1  0  0  0
  4  5  1  0  0  0
  4 43  1  0  0  0
  4 44  1  0  0  0
  5  8  1  0  0  0
  5  6  1  0  0  0
  5 45  1  0  0  0
  6 46  1  0  0  0
  6 47  1  0  0  0
  7 26  1  0  0  0
  7 48  1  0  0  0
  8 12  2  0  0  0
  8  9  1  0  0  0
  9 10  2  0  0  0
 10 13  1  0  0  0
 10 11  1  0  0  0
 11 12  1  0  0  0
 11 66  1  0  0  0
 12 49  1  0  0  0
 13 50  1  0  0  0
 13 51  1  0  0  0
 14 15  1  0  0  0
 14 28  1  0  0  0
 14 52  1  0  0  0
 14 53  1  0  0  0
 15 20  1  0  0  0
 15 16  1  0  0  0
 16 18  1  0  0  0
 16 17  2  0  0  0
 18 22  1  0  0  0
 18 19  1  0  0  0
 19 25  1  0  0  0
 19 20  1  0  0  0
 20 21  2  0  0  0
 22 23  1  0  0  0
 22 54  1  0  0  0
 22 55  1  0  0  0
 23 24  2  0  0  0
 23 56  1  0  0  0
 24 25  1  0  0  0
 24 57  1  0  0  0
 25 26  1  0  0  0
 25 58  1  0  0  0
 26 27  2  0  0  0
 28 29  1  0  0  0
 28 59  1  0  0  0
 28 60  1  0  0  0
 29 32  1  0  0  0
 29 31  2  0  0  0
 29 30  2  0  0  0
 32 37  2  0  0  0
 32 33  1  0  0  0
 33 34  2  0  0  0
 33 61  1  0  0  0
 34 35  1  0  0  0
 34 62  1  0  0  0
 35 36  2  0  0  0
 35 63  1  0  0  0
 36 37  1  0  0  0
 36 64  1  0  0  0
 37 65  1  0  0  0
M  CHG  1  11   1
M  END
> <s_m_source_file>
../1d6w_ligand.sdf

> <i_m_source_file_index>
1

> <s_epik_input>
W2NIXTFbbkhdYyhbTkgyXSluYzFbQ0BASF0oW0NIMl1bQ0gyXTIpW0NIMl1bQ0gyXVtDQEhdMltOSF1DKD1PKVtDQEhdKFtDSF09W0NIXVtDSDJdMyluKG4zNCljKD1PKW4oYzQ9TylbQ0gyXVtDSDJdUyg9TykoPU8pYzVbY0hdW2NIXVtjSF1bY0hdW2NIXTU=

> <s_epik_cmdline>
J2VwaWtfYXBwJywgJy1pbWFlJywgJ2xpZ2FuZF9wcm8ubWFlJywgJy1vbWFlJywgJ2xpZ2FuZF9wcmVwLm1hZScsICctbXMnLCAnMScsICctcGgnLCAnNycsICctcGh0JywgJzAuNScsICctbnQn

> <r_lp_tautomer_probability>
1

> <r_epik_Ionization_Penalty>
  0.0001

> <r_epik_Ionization_Penalty_Charging>
  0.0001

> <r_epik_Ionization_Penalty_Neutral>
  0.0000

> <r_epik_State_Penalty>
 -0.0000

> <r_epik_Charging_Adjusted_Penalty>
9.39867845309151e-05

> <i_epik_Tot_Q>
1

> <i_epik_Tot_abs_Q>
1

> <s_epik_Chemistry_Notes>
This compound has an imine and may undergo hydrolysis.

$$$$
