1d7i_ligand
                    3D
 Schrodinger Suite 2020-3.
 14 13  0  0  1  0            999 V2000
   60.6710   -5.4620   -0.2410 S   0  0  1  0  0  0
   60.1490   -6.4880    0.7290 O   0  0  0  0  0  0
   59.8370   -5.6920   -1.8050 C   0  0  0  0  0  0
   59.9600   -3.9490    0.1630 C   0  0  0  0  0  0
   60.5040   -2.6040   -0.8980 S   0  0  0  0  0  0
   60.0500   -1.1960    0.2120 C   0  0  0  0  0  0
   60.2050   -4.9504   -2.5293 H   0  0  0  0  0  0
   58.7537   -5.5620   -1.6654 H   0  0  0  0  0  0
   60.0391   -6.7051   -2.1828 H   0  0  0  0  0  0
   58.8662   -4.0219    0.0719 H   0  0  0  0  0  0
   60.2249   -3.6838    1.1972 H   0  0  0  0  0  0
   60.3133   -0.2455   -0.2750 H   0  0  0  0  0  0
   60.5985   -1.2859    1.1613 H   0  0  0  0  0  0
   58.9682   -1.2192    0.4099 H   0  0  0  0  0  0
  1  4  1  0  0  0
  1  3  1  0  0  0
  1  2  2  0  0  0
  3  7  1  0  0  0
  3  8  1  0  0  0
  3  9  1  0  0  0
  4  5  1  0  0  0
  4 10  1  0  0  0
  4 11  1  0  0  0
  5  6  1  0  0  0
  6 12  1  0  0  0
  6 13  1  0  0  0
  6 14  1  0  0  0
M  END
> <s_m_source_file>
../1d7i_ligand.sdf

> <i_m_source_file_index>
1

> <s_epik_input>
Tz1bU0BAXShbQ0gzXSlbQ0gyXVNbQ0gzXQ==

> <s_epik_cmdline>
J2VwaWtfYXBwJywgJy1pbWFlJywgJ2xpZ2FuZF9wcm8ubWFlJywgJy1vbWFlJywgJ2xpZ2FuZF9wcmVwLm1hZScsICctbXMnLCAnMScsICctcGgnLCAnNycsICctcGh0JywgJzAuNScsICctbnQn

> <r_lp_tautomer_probability>
1

> <r_epik_Ionization_Penalty>
  0.0000

> <r_epik_Ionization_Penalty_Charging>
  0.0000

> <r_epik_Ionization_Penalty_Neutral>
  0.0000

> <r_epik_State_Penalty>
 -0.0000

> <r_epik_Charging_Adjusted_Penalty>
0

> <i_epik_Tot_Q>
0

> <i_epik_Tot_abs_Q>
0

> <s_epik_Chemistry_Notes>
This compound contains an acetal/aminal-like group ( X-CH(R)-Y where X, Y are N, S, or O) that may be acid/base labile, releasing an aldehyde.

$$$$
