1d7x_ligand
                    3D
 Schrodinger Suite 2020-3.
 40 41  0  0  1  0            999 V2000
   -7.3820   19.8220   29.5990 C   0  0  0  0  0  0
   -7.6680   18.5440   29.1250 C   0  0  0  0  0  0
   -6.7950   17.4910   29.3700 C   0  0  0  0  0  0
   -5.6190   17.7980   30.0800 C   0  0  0  0  0  0
   -5.3240   19.0830   30.4720 C   0  0  0  0  0  0
   -6.1880   20.1220   30.2240 C   0  0  0  0  0  0
   -8.5320   21.1450   29.4850 S   0  0  0  0  0  0
   -8.0990   22.1470   30.4020 O   0  0  0  0  0  0
   -9.8640   20.6850   29.5540 O   0  0  0  0  0  0
   -4.6360   16.9020   30.4630 O   0  0  0  0  0  0
   -4.8960   15.5630   30.1320 C   0  0  0  0  0  0
   -8.4230   21.9630   27.9720 N   0  0  1  0  0  0
   -7.4260   22.9860   27.6760 C   0  0  2  0  0  0
   -7.8810   23.5690   26.3330 C   0  0  0  0  0  0
   -8.4580   22.3190   25.6960 C   0  0  0  0  0  0
   -5.9900   22.3400   27.4770 C   0  0  0  0  0  0
   -5.6970   21.3920   26.7350 O   0  0  0  0  0  0
   -5.0010   22.9310   28.1830 N   0  0  0  0  0  0
   -3.7020   22.3360   28.0490 O   0  0  0  0  0  0
   -8.6680   21.2070   26.7480 C   0  0  0  0  0  0
   -8.8900   22.1590   24.4180 N   0  0  0  0  0  0
   -8.7660   22.9420   23.2870 O   0  0  0  0  0  0
   -8.8020   22.1760   22.1250 C   0  0  0  0  0  0
   -8.5824   18.3687   28.5583 H   0  0  0  0  0  0
   -7.0101   16.4781   29.0295 H   0  0  0  0  0  0
   -4.3856   19.2810   30.9900 H   0  0  0  0  0  0
   -5.9403   21.1443   30.5098 H   0  0  0  0  0  0
   -4.0629   14.9320   30.4753 H   0  0  0  0  0  0
   -5.0019   15.4689   29.0412 H   0  0  0  0  0  0
   -5.8269   15.2388   30.6201 H   0  0  0  0  0  0
   -7.4154   23.7087   28.5052 H   0  0  0  0  0  0
   -8.6189   24.3653   26.5101 H   0  0  0  0  0  0
   -7.0129   23.9853   25.8010 H   0  0  0  0  0  0
   -5.1391   23.8105   28.8290 H   0  0  0  0  0  0
   -2.8444   22.7595   28.5923 H   0  0  0  0  0  0
   -7.9442   20.3819   26.6756 H   0  0  0  0  0  0
   -9.6891   20.7984   26.7676 H   0  0  0  0  0  0
   -8.7006   22.8336   21.2491 H   0  0  0  0  0  0
   -9.7596   21.6375   22.0704 H   0  0  0  0  0  0
   -7.9742   21.4517   22.1375 H   0  0  0  0  0  0
  1  7  1  0  0  0
  1  6  2  0  0  0
  1  2  1  0  0  0
  2  3  2  0  0  0
  2 24  1  0  0  0
  3  4  1  0  0  0
  3 25  1  0  0  0
  4 10  1  0  0  0
  4  5  2  0  0  0
  5  6  1  0  0  0
  5 26  1  0  0  0
  6 27  1  0  0  0
  7 12  1  0  0  0
  7  9  2  0  0  0
  7  8  2  0  0  0
 10 11  1  0  0  0
 11 28  1  0  0  0
 11 29  1  0  0  0
 11 30  1  0  0  0
 12 20  1  0  0  0
 12 13  1  0  0  0
 13 16  1  0  0  0
 13 14  1  0  0  0
 13 31  1  0  0  0
 14 15  1  0  0  0
 14 32  1  0  0  0
 14 33  1  0  0  0
 15 21  2  0  0  0
 15 20  1  0  0  0
 16 18  1  0  0  0
 16 17  2  0  0  0
 18 19  1  0  0  0
 18 34  1  0  0  0
 19 35  1  0  0  0
 20 36  1  0  0  0
 20 37  1  0  0  0
 21 22  1  0  0  0
 22 23  1  0  0  0
 23 38  1  0  0  0
 23 39  1  0  0  0
 23 40  1  0  0  0
M  END
> <s_m_source_file>
../1d7x_ligand.sdf

> <i_m_source_file_index>
1

> <s_epik_input>
W2NIXTFbY0hdYyhPW0NIM10pW2NIXVtjSF1jMVMoPU8pKD1PKU4yW0NAQEhdKEMoPU8pW05IXVtPSF0pW0NIMl0vQyhbQ0gyXTIpPU5cT1tDSDNd

> <s_epik_cmdline>
J2VwaWtfYXBwJywgJy1pbWFlJywgJ2xpZ2FuZF9wcm8ubWFlJywgJy1vbWFlJywgJ2xpZ2FuZF9wcmVwLm1hZScsICctbXMnLCAnMScsICctcGgnLCAnNycsICctcGh0JywgJzAuNScsICctbnQn

> <r_lp_tautomer_probability>
1

> <r_epik_Ionization_Penalty>
  0.0202

> <r_epik_Ionization_Penalty_Charging>
  0.0000

> <r_epik_Ionization_Penalty_Neutral>
  0.0202

> <r_epik_State_Penalty>
  0.0162

> <r_epik_Charging_Adjusted_Penalty>
0.0162018057679848

> <i_epik_Tot_Q>
0

> <i_epik_Tot_abs_Q>
0

> <s_epik_Chemistry_Notes>
This compound has an imine and may undergo hydrolysis. This compound has a N-S or N-O group and may undergo hydrolysis at high or low pH.

$$$$
