1d8e_ligand
                    3D
 Schrodinger Suite 2020-3.
102101  0  0  1  0            999 V2000
  101.9500    9.4430   30.1090 N   0  3  0  0  0  0
  101.9350   10.9180   29.8870 C   0  0  2  0  0  0
  101.3550   11.6070   31.1120 C   0  0  0  0  0  0
  100.4600   11.0650   31.7720 O   0  0  0  0  0  0
  101.0760   11.3100   28.6590 C   0  0  2  0  0  0
  100.3190   10.1720   28.2170 O   0  0  0  0  0  0
  101.9620   11.8380   27.5250 C   0  0  0  0  0  0
  101.8260   12.8240   31.3660 N   0  0  0  0  0  0
  101.3990   13.6090   32.5190 C   0  0  2  0  0  0
  100.8570   14.9670   32.0930 C   0  0  0  0  0  0
  100.8430   15.2810   30.9010 O   0  0  0  0  0  0
  102.6010   13.8120   33.4460 C   0  0  0  0  0  0
  103.9050   14.1690   32.7100 C   0  0  0  0  0  0
  105.0590   14.5130   33.6690 C   0  0  0  0  0  0
  104.7920   15.8240   34.4400 C   0  0  0  0  0  0
  105.9020   16.2430   35.3540 N   0  3  0  0  0  0
  100.3580   15.7440   33.0540 N   0  0  0  0  0  0
   99.8610   17.0900   32.7620 C   0  0  2  0  0  0
  100.8070   18.1140   33.3840 C   0  0  0  0  0  0
  100.6850   18.4420   34.5600 O   0  0  0  0  0  0
   98.4650   17.3300   33.3180 C   0  0  0  0  0  0
   98.1140   19.1060   33.2740 S   0  0  0  0  0  0
  101.6880   18.6840   32.5750 N   0  0  0  0  0  0
  102.6800   19.6300   33.0750 C   0  0  2  0  0  0
  102.2120   20.9790   33.6250 C   0  0  0  0  0  0
  103.0460   21.8140   33.9910 O   0  0  0  0  0  0
  103.7450   19.9170   32.0090 C   0  0  0  0  0  0
  104.3870   18.6110   31.5310 C   0  0  0  0  0  0
  103.1250   20.6970   30.8620 C   0  0  0  0  0  0
  100.9110   21.2180   33.7010 N   0  0  0  0  0  0
  100.5070   22.5180   34.2020 C   0  0  2  0  0  0
   99.8360   22.5590   35.5680 C   0  0  0  0  0  0
   99.3900   23.6140   36.0100 O   0  0  0  0  0  0
   99.7030   23.3000   33.1540 C   0  0  2  0  0  0
   98.4000   22.5720   32.8190 C   0  0  0  0  0  0
  100.5680   23.5080   31.9140 C   0  0  0  0  0  0
   97.4300   23.3970   32.0000 C   0  0  0  0  0  0
   99.8150   21.4270   36.2620 N   0  0  0  0  0  0
   99.2220   21.3640   37.5880 C   0  0  2  0  0  0
   99.6110   20.0930   38.3130 C   0  0  0  0  0  0
  100.6190   19.4750   37.9210 O   0  0  0  0  0  0
   97.7050   21.4650   37.5160 C   0  0  0  0  0  0
   97.0300   20.3480   36.7630 C   0  0  0  0  0  0
   95.4610   19.9390   37.5480 S   0  0  0  0  0  0
   96.0420   18.4160   38.5020 C   0  0  0  0  0  0
   98.9050   19.7320   39.2740 O   0  5  0  0  0  0
  102.5695    9.2108   30.9878 H   0  0  0  0  0  0
  102.3684    8.9431   29.2230 H   0  0  0  0  0  0
  100.9232    9.0875   30.2800 H   0  0  0  0  0  0
  102.9837   11.2082   29.7257 H   0  0  0  0  0  0
  100.3263   12.0704   28.9231 H   0  0  0  0  0  0
   99.6289    9.6678   28.9095 H   0  0  0  0  0  0
  102.5335   12.7079   27.8809 H   0  0  0  0  0  0
  101.3306   12.1368   26.6752 H   0  0  0  0  0  0
  102.6576   11.0482   27.2052 H   0  0  0  0  0  0
  102.5668   13.2352   30.6645 H   0  0  0  0  0  0
  100.5945   13.0347   33.0016 H   0  0  0  0  0  0
  102.3887   14.6324   34.1473 H   0  0  0  0  0  0
  102.7893   12.8867   34.0103 H   0  0  0  0  0  0
  104.2241   13.3151   32.0944 H   0  0  0  0  0  0
  103.7341   15.0430   32.0643 H   0  0  0  0  0  0
  105.1821   13.7009   34.4007 H   0  0  0  0  0  0
  105.9895   14.6333   33.0948 H   0  0  0  0  0  0
  104.6390   16.6454   33.7246 H   0  0  0  0  0  0
  103.8922   15.7070   35.0618 H   0  0  0  0  0  0
  105.6271   17.1809   35.8587 H   0  0  0  0  0  0
  106.8205   16.3972   34.7687 H   0  0  0  0  0  0
  106.0737   15.4586   36.1059 H   0  0  0  0  0  0
  100.3238   15.3562   34.0828 H   0  0  0  0  0  0
   99.8259   17.1512   31.6643 H   0  0  0  0  0  0
   97.7284   16.7899   32.7051 H   0  0  0  0  0  0
   98.4159   16.9667   34.3551 H   0  0  0  0  0  0
   97.1469   19.4847   33.6364 H   0  0  0  0  0  0
  101.6605   18.4301   31.5051 H   0  0  0  0  0  0
  103.0168   19.0417   33.9413 H   0  0  0  0  0  0
  104.5441   20.5399   32.4373 H   0  0  0  0  0  0
  104.8220   18.0802   32.3907 H   0  0  0  0  0  0
  105.1782   18.8371   30.8010 H   0  0  0  0  0  0
  103.6218   17.9779   31.0581 H   0  0  0  0  0  0
  102.6771   21.6242   31.2490 H   0  0  0  0  0  0
  102.3463   20.0862   30.3819 H   0  0  0  0  0  0
  103.9027   20.9453   30.1248 H   0  0  0  0  0  0
  100.1493   20.4819   33.4043 H   0  0  0  0  0  0
  101.4998   22.9602   34.3716 H   0  0  0  0  0  0
   99.4256   24.2867   33.5534 H   0  0  0  0  0  0
   98.6255   21.6644   32.2398 H   0  0  0  0  0  0
   97.8853   22.2940   33.7506 H   0  0  0  0  0  0
  101.4927   24.0329   32.1958 H   0  0  0  0  0  0
  100.0147   24.1095   31.1777 H   0  0  0  0  0  0
  100.8200   22.5315   31.4748 H   0  0  0  0  0  0
   96.5232   22.8068   31.8017 H   0  0  0  0  0  0
   97.9011   23.6770   31.0463 H   0  0  0  0  0  0
   97.1610   24.3066   32.5571 H   0  0  0  0  0  0
  100.2582   20.5253   35.8143 H   0  0  0  0  0  0
   99.6419   22.2328   38.1162 H   0  0  0  0  0  0
   97.2883   21.4569   38.5340 H   0  0  0  0  0  0
   97.4233   22.4013   37.0120 H   0  0  0  0  0  0
   96.8449   20.6644   35.7259 H   0  0  0  0  0  0
   97.6789   19.4598   36.7651 H   0  0  0  0  0  0
   95.1996   17.9969   39.0718 H   0  0  0  0  0  0
   96.8470   18.7024   39.1948 H   0  0  0  0  0  0
   96.4178   17.6618   37.7949 H   0  0  0  0  0  0
  1  2  1  0  0  0
  1 47  1  0  0  0
  1 48  1  0  0  0
  1 49  1  0  0  0
  2  3  1  0  0  0
  2  5  1  0  0  0
  2 50  1  0  0  0
  3  4  2  0  0  0
  3  8  1  0  0  0
  5  6  1  0  0  0
  5  7  1  0  0  0
  5 51  1  0  0  0
  6 52  1  0  0  0
  7 53  1  0  0  0
  7 54  1  0  0  0
  7 55  1  0  0  0
  8  9  1  0  0  0
  8 56  1  0  0  0
  9 10  1  0  0  0
  9 12  1  0  0  0
  9 57  1  0  0  0
 10 11  2  0  0  0
 10 17  1  0  0  0
 12 13  1  0  0  0
 12 58  1  0  0  0
 12 59  1  0  0  0
 13 14  1  0  0  0
 13 60  1  0  0  0
 13 61  1  0  0  0
 14 15  1  0  0  0
 14 62  1  0  0  0
 14 63  1  0  0  0
 15 16  1  0  0  0
 15 64  1  0  0  0
 15 65  1  0  0  0
 16 66  1  0  0  0
 16 67  1  0  0  0
 16 68  1  0  0  0
 17 18  1  0  0  0
 17 69  1  0  0  0
 18 19  1  0  0  0
 18 21  1  0  0  0
 18 70  1  0  0  0
 19 20  2  0  0  0
 19 23  1  0  0  0
 21 22  1  0  0  0
 21 71  1  0  0  0
 21 72  1  0  0  0
 22 73  1  0  0  0
 23 24  1  0  0  0
 23 74  1  0  0  0
 24 25  1  0  0  0
 24 27  1  0  0  0
 24 75  1  0  0  0
 25 26  2  0  0  0
 25 30  1  0  0  0
 27 28  1  0  0  0
 27 29  1  0  0  0
 27 76  1  0  0  0
 28 77  1  0  0  0
 28 78  1  0  0  0
 28 79  1  0  0  0
 29 80  1  0  0  0
 29 81  1  0  0  0
 29 82  1  0  0  0
 30 31  1  0  0  0
 30 83  1  0  0  0
 31 32  1  0  0  0
 31 34  1  0  0  0
 31 84  1  0  0  0
 32 33  2  0  0  0
 32 38  1  0  0  0
 34 35  1  0  0  0
 34 36  1  0  0  0
 34 85  1  0  0  0
 35 37  1  0  0  0
 35 86  1  0  0  0
 35 87  1  0  0  0
 36 88  1  0  0  0
 36 89  1  0  0  0
 36 90  1  0  0  0
 37 91  1  0  0  0
 37 92  1  0  0  0
 37 93  1  0  0  0
 38 39  1  0  0  0
 38 94  1  0  0  0
 39 40  1  0  0  0
 39 42  1  0  0  0
 39 95  1  0  0  0
 40 41  2  0  0  0
 40 46  1  0  0  0
 42 43  1  0  0  0
 42 96  1  0  0  0
 42 97  1  0  0  0
 43 44  1  0  0  0
 43 98  1  0  0  0
 43 99  1  0  0  0
 44 45  1  0  0  0
 45100  1  0  0  0
 45101  1  0  0  0
 45102  1  0  0  0
M  CHG  3   1   1  16   1  46  -1
M  END
> <s_m_source_file>
../1d8e_ligand.sdf

> <i_m_source_file_index>
1

> <s_epik_input>
W09IXVtDQEhdKFtDSDNdKVtDQEhdKFtOSDMrXSlDKD1PKVtOSF1bQ0BASF0oW0NIMl1bQ0gyXVtDSDJdW0NIMl1bTkgzK10pQyg9TylbTkhdW0NAQEhdKFtDSDJdW1NIXSlDKD1PKVtOSF1bQ0BASF0oW0NIXShbQ0gzXSlbQ0gzXSlDKD1PKVtOSF1bQ0BASF0oW0NAQEhdKFtDSDNdKVtDSDJdW0NIM10pQyg9TylbTkhdW0NASF0oQyg9TylbT0hdKVtDSDJdW0NIMl1TW0NIM10=

> <s_epik_cmdline>
J2VwaWtfYXBwJywgJy1pbWFlJywgJ2xpZ2FuZF9wcm8ubWFlJywgJy1vbWFlJywgJ2xpZ2FuZF9wcmVwLm1hZScsICctbXMnLCAnMScsICctcGgnLCAnNycsICctcGh0JywgJzAuNScsICctbnQn

> <r_lp_tautomer_probability>
1

> <r_epik_Ionization_Penalty>
  0.0912

> <r_epik_Ionization_Penalty_Charging>
  0.0812

> <r_epik_Ionization_Penalty_Neutral>
  0.0100

> <r_epik_State_Penalty>
 -0.0000

> <r_epik_Charging_Adjusted_Penalty>
0.0812253204422323

> <i_epik_Tot_Q>
1

> <i_epik_Tot_abs_Q>
3

$$$$
