1d8f_ligand
                    3D
 Schrodinger Suite 2020-3.
 54 56  0  0  1  0            999 V2000
    3.9180   48.6810   53.5750 S   0  0  0  0  0  0
    3.3760   47.7850   52.5980 O   0  0  0  0  0  0
    5.3480   48.7510   53.5270 O   0  0  0  0  0  0
    3.2840   48.4860   55.2440 C   0  0  0  0  0  0
    3.9490   49.1640   56.3430 C   0  0  0  0  0  0
    3.5790   48.8280   57.7130 C   0  0  0  0  0  0
    2.5560   47.8260   57.9670 C   0  0  0  0  0  0
    1.8940   47.1680   56.8530 C   0  0  0  0  0  0
    2.2480   47.4860   55.4650 C   0  0  0  0  0  0
    2.1330   47.4780   59.1900 O   0  0  0  0  0  0
    2.8350   47.5240   60.3240 C   0  0  0  0  0  0
    3.6410   50.2240   52.9200 N   0  0  1  0  0  0
    2.3150   50.3110   52.2910 C   0  0  2  0  0  0
    2.2980   51.5650   51.4090 C   0  0  0  0  0  0
    2.8490   52.7490   52.0950 N   0  0  0  0  0  0
    4.2130   52.6080   52.6330 C   0  0  0  0  0  0
    4.3220   51.3870   53.5200 C   0  0  0  0  0  0
    2.2590   53.9330   51.9750 C   0  0  0  0  0  0
    2.6990   54.9230   52.6190 O   0  0  0  0  0  0
    1.2710   54.0340   51.2070 O   0  0  0  0  0  0
    0.8050   55.2320   50.6470 C   0  0  0  0  0  0
   -0.3870   55.0030   49.7710 C   0  0  0  0  0  0
   -0.9910   53.6900   49.8390 C   0  0  0  0  0  0
   -2.1350   53.4050   48.9910 C   0  0  0  0  0  0
   -2.5980   54.4800   48.1150 C   0  0  0  0  0  0
   -1.9540   55.7950   48.0810 C   0  0  0  0  0  0
   -0.8020   56.0960   48.9230 C   0  0  0  0  0  0
    1.1400   50.3020   53.2820 C   0  0  0  0  0  0
    0.2800   49.2890   53.2140 N   0  0  0  0  0  0
   -0.8590   49.4820   54.0310 O   0  0  0  0  0  0
    0.9540   51.1930   54.1290 O   0  0  0  0  0  0
    4.7148   49.9143   56.1463 H   0  0  0  0  0  0
    4.0698   49.3285   58.5477 H   0  0  0  0  0  0
    1.1212   46.4255   57.0520 H   0  0  0  0  0  0
    1.7534   46.9916   54.6290 H   0  0  0  0  0  0
    2.2087   47.1730   61.1574 H   0  0  0  0  0  0
    3.1542   48.5590   60.5159 H   0  0  0  0  0  0
    3.7207   46.8779   60.2334 H   0  0  0  0  0  0
    2.2082   49.3878   51.7026 H   0  0  0  0  0  0
    2.9011   51.3867   50.5065 H   0  0  0  0  0  0
    1.2623   51.7949   51.1183 H   0  0  0  0  0  0
    4.9262   52.5052   51.8018 H   0  0  0  0  0  0
    4.4672   53.4989   53.2261 H   0  0  0  0  0  0
    3.8628   51.6194   54.4922 H   0  0  0  0  0  0
    5.3873   51.1540   53.6641 H   0  0  0  0  0  0
    0.5171   55.9251   51.4512 H   0  0  0  0  0  0
    1.6009   55.6865   50.0388 H   0  0  0  0  0  0
   -0.5954   52.9302   50.5130 H   0  0  0  0  0  0
   -2.6268   52.4324   49.0069 H   0  0  0  0  0  0
   -3.4528   54.2963   47.4641 H   0  0  0  0  0  0
   -2.3433   56.5636   47.4134 H   0  0  0  0  0  0
   -0.2978   57.0623   48.9132 H   0  0  0  0  0  0
    0.3768   48.3729   52.6128 H   0  0  0  0  0  0
   -1.6477   48.7160   54.0650 H   0  0  0  0  0  0
  1 12  1  0  0  0
  1  4  1  0  0  0
  1  3  2  0  0  0
  1  2  2  0  0  0
  4  9  2  0  0  0
  4  5  1  0  0  0
  5  6  2  0  0  0
  5 32  1  0  0  0
  6  7  1  0  0  0
  6 33  1  0  0  0
  7 10  1  0  0  0
  7  8  2  0  0  0
  8  9  1  0  0  0
  8 34  1  0  0  0
  9 35  1  0  0  0
 10 11  1  0  0  0
 11 36  1  0  0  0
 11 37  1  0  0  0
 11 38  1  0  0  0
 12 17  1  0  0  0
 12 13  1  0  0  0
 13 28  1  0  0  0
 13 14  1  0  0  0
 13 39  1  0  0  0
 14 15  1  0  0  0
 14 40  1  0  0  0
 14 41  1  0  0  0
 15 18  1  0  0  0
 15 16  1  0  0  0
 16 17  1  0  0  0
 16 42  1  0  0  0
 16 43  1  0  0  0
 17 44  1  0  0  0
 17 45  1  0  0  0
 18 20  1  0  0  0
 18 19  2  0  0  0
 20 21  1  0  0  0
 21 22  1  0  0  0
 21 46  1  0  0  0
 21 47  1  0  0  0
 22 27  2  0  0  0
 22 23  1  0  0  0
 23 24  2  0  0  0
 23 48  1  0  0  0
 24 25  1  0  0  0
 24 49  1  0  0  0
 25 26  2  0  0  0
 25 50  1  0  0  0
 26 27  1  0  0  0
 26 51  1  0  0  0
 27 52  1  0  0  0
 28 31  2  0  0  0
 28 29  1  0  0  0
 29 30  1  0  0  0
 29 53  1  0  0  0
 30 54  1  0  0  0
M  END
> <s_m_source_file>
../1d8f_ligand.sdf

> <i_m_source_file_index>
1

> <s_epik_input>
W2NIXTFbY0hdYyhPW0NIM10pW2NIXVtjSF1jMVMoPU8pKD1PKU4yW0NAQEhdKEMoPU8pW05IXVtPSF0pW0NIMl1OKFtDSDJdW0NIMl0yKUMoPU8pT1tDSDJdYzNbY0hdW2NIXVtjSF1bY0hdW2NIXTM=

> <s_epik_cmdline>
J2VwaWtfYXBwJywgJy1pbWFlJywgJ2xpZ2FuZF9wcm8ubWFlJywgJy1vbWFlJywgJ2xpZ2FuZF9wcmVwLm1hZScsICctbXMnLCAnMScsICctcGgnLCAnNycsICctcGh0JywgJzAuNScsICctbnQn

> <r_lp_tautomer_probability>
1

> <r_epik_Ionization_Penalty>
  0.0239

> <r_epik_Ionization_Penalty_Charging>
  0.0000

> <r_epik_Ionization_Penalty_Neutral>
  0.0239

> <r_epik_State_Penalty>
  0.0193

> <r_epik_Charging_Adjusted_Penalty>
0.0193097183393825

> <i_epik_Tot_Q>
0

> <i_epik_Tot_abs_Q>
0

> <s_epik_Chemistry_Notes>
This compound has an ester and may undergo hydrolysis at high or low pH. This compound has a N-S or N-O group and may undergo hydrolysis at high or low pH.

$$$$
