1d8m_ligand
                    3D
 Schrodinger Suite 2020-3.
 50 52  0  0  1  0            999 V2000
    3.2160   48.2730   54.6770 C   0  0  0  0  0  0
    3.8020   48.9350   55.8260 C   0  0  0  0  0  0
    3.2410   48.5530   57.1030 C   0  0  0  0  0  0
    2.1790   47.5530   57.1260 C   0  0  0  0  0  0
    1.6140   46.9100   55.9430 C   0  0  0  0  0  0
    2.1520   47.2870   54.6540 C   0  0  0  0  0  0
    1.7030   47.1160   58.2940 O   0  0  0  0  0  0
    2.2230   47.2360   59.5190 C   0  0  0  0  0  0
    3.8440   48.7300   53.0640 S   0  0  0  0  0  0
    3.2570   47.5680   51.9330 O   0  0  0  0  0  0
    5.5730   48.7610   53.0480 O   0  0  0  0  0  0
    3.1650   50.3130   52.7230 N   0  0  2  0  0  0
    1.9910   50.3550   51.8270 C   0  0  2  0  0  0
    1.9270   51.7440   51.1950 C   0  0  0  0  0  0
    3.2540   52.1600   50.6080 C   0  0  0  0  0  0
    4.3370   51.9690   51.3490 N   0  0  0  0  0  0
    4.1730   51.3860   52.6990 C   0  0  0  0  0  0
    3.3470   52.6750   49.4940 O   0  0  0  0  0  0
    0.7200   50.0800   52.6110 C   0  0  0  0  0  0
    0.1090   48.9130   52.4380 N   0  0  0  0  0  0
   -1.1370   48.6980   53.1590 O   0  0  0  0  0  0
    0.2600   50.8890   53.4320 O   0  0  0  0  0  0
    5.6340   52.3860   50.7750 C   0  0  0  0  0  0
    8.0180   53.9100   53.4110 C   0  0  0  0  0  0
    6.9070   53.7550   52.4850 C   0  0  0  0  0  0
    6.7400   52.4860   51.7880 C   0  0  0  0  0  0
    7.6300   51.3500   51.9710 C   0  0  0  0  0  0
    8.7400   51.5070   52.9010 C   0  0  0  0  0  0
    8.9140   52.7740   53.5970 C   0  0  0  0  0  0
    4.6053   49.6660   55.7342 H   0  0  0  0  0  0
    3.6035   49.0022   58.0276 H   0  0  0  0  0  0
    0.8158   46.1726   56.0280 H   0  0  0  0  0  0
    1.7811   46.8571   53.7236 H   0  0  0  0  0  0
    1.5565   46.7535   60.2491 H   0  0  0  0  0  0
    2.3304   48.3018   59.7689 H   0  0  0  0  0  0
    3.2101   46.7514   59.5474 H   0  0  0  0  0  0
    2.1085   49.5729   51.0624 H   0  0  0  0  0  0
    1.1791   51.7457   50.3884 H   0  0  0  0  0  0
    1.6433   52.4821   51.9597 H   0  0  0  0  0  0
    3.8680   52.1909   53.3839 H   0  0  0  0  0  0
    5.1456   50.9826   53.0173 H   0  0  0  0  0  0
    0.5080   48.1251   51.7822 H   0  0  0  0  0  0
   -1.6797   47.7476   53.0481 H   0  0  0  0  0  0
    5.9508   51.6556   50.0159 H   0  0  0  0  0  0
    5.5271   53.3765   50.3086 H   0  0  0  0  0  0
    8.1759   54.8449   53.9486 H   0  0  0  0  0  0
    6.2099   54.5755   52.3150 H   0  0  0  0  0  0
    7.4721   50.4158   51.4321 H   0  0  0  0  0  0
    9.4335   50.6841   53.0742 H   0  0  0  0  0  0
    9.7508   52.8783   54.2876 H   0  0  0  0  0  0
  1  9  1  0  0  0
  1  6  2  0  0  0
  1  2  1  0  0  0
  2  3  2  0  0  0
  2 30  1  0  0  0
  3  4  1  0  0  0
  3 31  1  0  0  0
  4  7  1  0  0  0
  4  5  2  0  0  0
  5  6  1  0  0  0
  5 32  1  0  0  0
  6 33  1  0  0  0
  7  8  1  0  0  0
  8 34  1  0  0  0
  8 35  1  0  0  0
  8 36  1  0  0  0
  9 12  1  0  0  0
  9 11  2  0  0  0
  9 10  2  0  0  0
 12 17  1  0  0  0
 12 13  1  0  0  0
 13 19  1  0  0  0
 13 14  1  0  0  0
 13 37  1  0  0  0
 14 15  1  0  0  0
 14 38  1  0  0  0
 14 39  1  0  0  0
 15 18  2  0  0  0
 15 16  1  0  0  0
 16 23  1  0  0  0
 16 17  1  0  0  0
 17 40  1  0  0  0
 17 41  1  0  0  0
 19 22  2  0  0  0
 19 20  1  0  0  0
 20 21  1  0  0  0
 20 42  1  0  0  0
 21 43  1  0  0  0
 23 26  1  0  0  0
 23 44  1  0  0  0
 23 45  1  0  0  0
 24 25  2  0  0  0
 24 29  1  0  0  0
 24 46  1  0  0  0
 25 26  1  0  0  0
 25 47  1  0  0  0
 26 27  2  0  0  0
 27 28  1  0  0  0
 27 48  1  0  0  0
 28 29  2  0  0  0
 28 49  1  0  0  0
 29 50  1  0  0  0
M  END
> <s_m_source_file>
../1d8m_ligand.sdf

> <i_m_source_file_index>
1

> <s_epik_input>
W2NIXTFbY0hdYyhPW0NIM10pW2NIXVtjSF1jMVMoPU8pKD1PKU4yW0NAQEhdKEMoPU8pW05IXVtPSF0pW0NIMl1DKD1PKU4oW0NIMl0yKVtDSDJdYzNbY0hdW2NIXVtjSF1bY0hdW2NIXTM=

> <s_epik_cmdline>
J2VwaWtfYXBwJywgJy1pbWFlJywgJ2xpZ2FuZF9wcm8ubWFlJywgJy1vbWFlJywgJ2xpZ2FuZF9wcmVwLm1hZScsICctbXMnLCAnMScsICctcGgnLCAnNycsICctcGh0JywgJzAuNScsICctbnQn

> <r_lp_tautomer_probability>
1

> <r_epik_Ionization_Penalty>
  0.0226

> <r_epik_Ionization_Penalty_Charging>
  0.0000

> <r_epik_Ionization_Penalty_Neutral>
  0.0226

> <r_epik_State_Penalty>
  0.0182

> <r_epik_Charging_Adjusted_Penalty>
0.0182447185875591

> <i_epik_Tot_Q>
0

> <i_epik_Tot_abs_Q>
0

> <s_epik_Chemistry_Notes>
This compound contains an acetal/aminal-like group ( X-CH(R)-Y where X, Y are N, S, or O) that may be acid/base labile, releasing an aldehyde. This compound has a N-S or N-O group and may undergo hydrolysis at high or low pH.

$$$$
