1dar_ligand
                    3D
 Schrodinger Suite 2020-3.
 40 42  0  0  1  0            999 V2000
   35.7410   31.4950  -20.3320 P   0  0  0  0  0  0
   35.3560   30.9410  -19.0810 O   0  0  0  0  0  0
   34.9090   32.8600  -20.2240 O   0  5  0  0  0  0
   37.2680   32.1210  -20.2260 O   0  5  0  0  0  0
   35.7000   30.2100  -21.1350 O   0  0  0  0  0  0
   34.8250   29.0000  -20.7480 P   0  0  2  0  0  0
   35.1090   27.8550  -21.6280 O   0  0  0  0  0  0
   33.3410   29.4680  -21.1300 O   0  5  0  0  0  0
   35.0240   28.4330  -19.3460 O   0  0  0  0  0  0
   36.2230   27.7480  -19.0200 C   0  0  0  0  0  0
   36.0010   26.3540  -18.3910 C   0  0  1  0  0  0
   34.8460   26.4250  -17.4920 O   0  0  0  0  0  0
   35.5630   25.2440  -19.3540 C   0  0  1  0  0  0
   36.1290   24.0060  -18.9520 O   0  0  0  0  0  0
   34.0860   25.0510  -19.2280 C   0  0  1  0  0  0
   33.9030   23.6980  -19.7550 O   0  0  0  0  0  0
   33.8870   25.3170  -17.6850 C   0  0  2  0  0  0
   32.4850   25.7790  -17.3580 N   0  0  0  0  0  0
   31.7450   26.8440  -17.8090 C   0  0  0  0  0  0
   30.5160   26.8870  -17.4130 N   0  0  0  0  0  0
   30.4760   25.7440  -16.6330 C   0  0  0  0  0  0
   29.4180   25.2200  -15.8950 C   0  0  0  0  0  0
   28.2430   25.5910  -15.8340 O   0  0  0  0  0  0
   29.8050   24.1250  -15.2310 N   0  0  0  0  0  0
   31.0300   23.5810  -15.2490 C   0  0  0  0  0  0
   31.2110   22.5370  -14.4460 N   0  0  0  0  0  0
   32.0300   24.0360  -15.9430 N   0  0  0  0  0  0
   31.6650   25.1070  -16.5990 C   0  0  0  0  0  0
   36.8206   27.6007  -19.9317 H   0  0  0  0  0  0
   36.7995   28.3422  -18.2957 H   0  0  0  0  0  0
   36.9575   26.1063  -17.9075 H   0  0  0  0  0  0
   35.8888   25.4651  -20.3811 H   0  0  0  0  0  0
   37.2212   23.8750  -18.9512 H   0  0  0  0  0  0
   33.3649   25.6397  -19.8141 H   0  0  0  0  0  0
   34.0395   23.5029  -20.8289 H   0  0  0  0  0  0
   34.0472   24.4608  -17.0133 H   0  0  0  0  0  0
   32.1689   27.6071  -18.4617 H   0  0  0  0  0  0
   29.0873   23.5840  -14.5968 H   0  0  0  0  0  0
   30.3700   22.1454  -13.8550 H   0  0  0  0  0  0
   32.2018   22.0648  -14.3726 H   0  0  0  0  0  0
  1  2  2  0  0  0
  1  3  1  0  0  0
  1  4  1  0  0  0
  1  5  1  0  0  0
  5  6  1  0  0  0
  6  7  2  0  0  0
  6  8  1  0  0  0
  6  9  1  0  0  0
  9 10  1  0  0  0
 10 11  1  0  0  0
 10 29  1  0  0  0
 10 30  1  0  0  0
 11 12  1  0  0  0
 11 13  1  0  0  0
 11 31  1  0  0  0
 12 17  1  0  0  0
 13 14  1  0  0  0
 13 15  1  0  0  0
 13 32  1  0  0  0
 14 33  1  0  0  0
 15 16  1  0  0  0
 15 17  1  0  0  0
 15 34  1  0  0  0
 16 35  1  0  0  0
 17 18  1  0  0  0
 17 36  1  0  0  0
 18 19  1  0  0  0
 18 28  1  0  0  0
 19 20  2  0  0  0
 19 37  1  0  0  0
 20 21  1  0  0  0
 21 22  1  0  0  0
 21 28  2  0  0  0
 22 23  2  0  0  0
 22 24  1  0  0  0
 24 25  1  0  0  0
 24 38  1  0  0  0
 25 26  1  0  0  0
 25 27  2  0  0  0
 26 39  1  0  0  0
 26 40  1  0  0  0
 27 28  1  0  0  0
M  CHG  3   3  -1   4  -1   8  -1
M  END
> <s_m_source_file>
../1dar_ligand.sdf

> <i_m_source_file_index>
1

> <s_epik_input>
Tz1QKFtPSF0pKFtPSF0pT1tQQF0oPU8pKFtPSF0pT1tDSDJdW0NASF0xT1tDQEhdKFtDQEhdKFtPSF0pW0NAQEhdMVtPSF0pbihbY0hdbjIpYyhjMjMpbmMoW05IMl0pW25IXWMzPU8=

> <s_epik_cmdline>
J2VwaWtfYXBwJywgJy1pbWFlJywgJ2xpZ2FuZF9wcm8ubWFlJywgJy1vbWFlJywgJ2xpZ2FuZF9wcmVwLm1hZScsICctbXMnLCAnMScsICctcGgnLCAnNycsICctcGh0JywgJzAuNScsICctbnQn

> <r_lp_tautomer_probability>
0.999940409345307

> <r_epik_Ionization_Penalty>
  0.1052

> <r_epik_Ionization_Penalty_Charging>
  0.1051

> <r_epik_Ionization_Penalty_Neutral>
  0.0001

> <r_epik_State_Penalty>
  0.0922

> <r_epik_Charging_Adjusted_Penalty>
0.197315167096652

> <i_epik_Tot_Q>
-3

> <i_epik_Tot_abs_Q>
3

> <s_epik_Chemistry_Notes>
This compound contains an acetal/aminal-like group ( X-CH(R)-Y where X, Y are N, S, or O) that may be acid/base labile, releasing an aldehyde.

$$$$
