1db1_ligand
                    3D
 Schrodinger Suite 2020-3.
 74 76  0  0  1  0            999 V2000
   17.0290   18.0710   34.8190 O   0  0  0  0  0  0
    4.4890   26.9460   35.0540 O   0  0  0  0  0  0
   14.1390   17.9530   35.7550 C   0  0  1  0  0  0
   14.8790   16.8930   34.8950 C   0  0  0  0  0  0
   15.9920   17.5340   33.9620 C   0  0  1  0  0  0
   15.3680   18.6720   33.0490 C   0  0  0  0  0  0
   14.6220   19.7240   33.8640 C   0  0  0  0  0  0
   14.7970   21.1200   33.7920 C   0  0  0  0  0  0
   14.1740   22.2860   34.5140 C   0  0  0  0  0  0
   13.9660   23.4880   34.0420 C   0  0  0  0  0  0
   14.3540   23.9270   32.5440 C   0  0  0  0  0  0
   13.6020   19.0750   34.8280 C   0  0  0  0  0  0
   13.0880   24.4900   31.6710 C   0  0  0  0  0  0
   12.1470   25.4430   32.5640 C   0  0  0  0  0  0
   11.7530   24.8970   34.0700 C   0  0  1  0  0  0
   13.1480   24.5380   34.7770 C   0  0  1  0  0  0
   12.6610   24.2660   36.3500 C   0  0  0  0  0  0
   11.4290   25.2310   36.4970 C   0  0  0  0  0  0
   11.2760   25.9340   35.1060 C   0  0  2  0  0  0
   10.7690   23.5700   33.7790 C   0  0  0  0  0  0
   12.2910   19.4550   34.8520 C   0  0  0  0  0  0
    9.8490   26.5460   34.7260 C   0  0  2  0  0  0
    9.8040   27.9560   35.4820 C   0  0  0  0  0  0
    8.5750   25.8240   35.2680 C   0  0  0  0  0  0
    7.3310   26.0600   34.4050 C   0  0  0  0  0  0
    6.1520   25.2660   34.6720 C   0  0  0  0  0  0
    4.7750   25.7760   34.3360 C   0  0  0  0  0  0
    4.7010   26.0100   32.8420 C   0  0  0  0  0  0
    3.6680   24.7300   34.7230 C   0  0  0  0  0  0
   13.1190   17.3590   36.6200 O   0  0  0  0  0  0
   17.5638   17.4092   35.5162 H   0  0  0  0  0  0
    5.1350   27.8297   34.9454 H   0  0  0  0  0  0
   14.8087   18.3891   36.5108 H   0  0  0  0  0  0
   15.3706   16.1634   35.5553 H   0  0  0  0  0  0
   14.1550   16.3739   34.2498 H   0  0  0  0  0  0
   16.4966   16.7886   33.3298 H   0  0  0  0  0  0
   16.1713   19.1780   32.4935 H   0  0  0  0  0  0
   14.6572   18.2240   32.3390 H   0  0  0  0  0  0
   15.5237   21.5475   33.0855 H   0  0  0  0  0  0
   13.8819   22.0422   35.5461 H   0  0  0  0  0  0
   15.1073   24.7277   32.5801 H   0  0  0  0  0  0
   14.7644   23.0616   32.0030 H   0  0  0  0  0  0
   13.4623   25.0685   30.8136 H   0  0  0  0  0  0
   12.4875   23.6430   31.3077 H   0  0  0  0  0  0
   12.6469   26.4105   32.7191 H   0  0  0  0  0  0
   11.1903   25.6036   32.0455 H   0  0  0  0  0  0
   13.9602   25.2731   34.6770 H   0  0  0  0  0  0
   12.3904   23.2068   36.4721 H   0  0  0  0  0  0
   13.4831   24.5159   37.0368 H   0  0  0  0  0  0
   10.5330   24.6456   36.7509 H   0  0  0  0  0  0
   11.6283   25.9611   37.2953 H   0  0  0  0  0  0
   11.9107   26.8322   35.1259 H   0  0  0  0  0  0
   11.2384   22.9244   33.0221 H   0  0  0  0  0  0
    9.7901   23.9128   33.4125 H   0  0  0  0  0  0
   10.6332   23.0027   34.7116 H   0  0  0  0  0  0
   11.5913   18.9727   35.5504 H   0  0  0  0  0  0
   11.9344   20.2435   34.1729 H   0  0  0  0  0  0
    9.7784   26.4963   33.6294 H   0  0  0  0  0  0
   10.6678   28.5641   35.1754 H   0  0  0  0  0  0
    9.8393   27.7905   36.5689 H   0  0  0  0  0  0
    8.8739   28.4823   35.2212 H   0  0  0  0  0  0
    8.7544   24.7392   35.3008 H   0  0  0  0  0  0
    8.3495   26.1891   36.2808 H   0  0  0  0  0  0
    7.0008   27.1034   34.5154 H   0  0  0  0  0  0
    7.5732   25.8617   33.3505 H   0  0  0  0  0  0
    6.2142   24.3188   34.1161 H   0  0  0  0  0  0
    6.0883   25.0551   35.7497 H   0  0  0  0  0  0
    5.4685   26.7406   32.5469 H   0  0  0  0  0  0
    3.7055   26.3981   32.5805 H   0  0  0  0  0  0
    4.8752   25.0613   32.3132 H   0  0  0  0  0  0
    3.7025   24.5435   35.8065 H   0  0  0  0  0  0
    3.8482   23.7887   34.1830 H   0  0  0  0  0  0
    2.6785   25.1256   34.4503 H   0  0  0  0  0  0
   13.3910   16.5535   37.3180 H   0  0  0  0  0  0
  1  5  1  0  0  0
  1 31  1  0  0  0
  2 27  1  0  0  0
  2 32  1  0  0  0
  3  4  1  0  0  0
  3 12  1  0  0  0
  3 30  1  0  0  0
  3 33  1  0  0  0
  4  5  1  0  0  0
  4 34  1  0  0  0
  4 35  1  0  0  0
  5  6  1  0  0  0
  5 36  1  0  0  0
  6  7  1  0  0  0
  6 37  1  0  0  0
  6 38  1  0  0  0
  7  8  2  0  0  0
  7 12  1  0  0  0
  8  9  1  0  0  0
  8 39  1  0  0  0
  9 10  2  0  0  0
  9 40  1  0  0  0
 10 11  1  0  0  0
 10 16  1  0  0  0
 11 13  1  0  0  0
 11 41  1  0  0  0
 11 42  1  0  0  0
 12 21  2  0  0  0
 13 14  1  0  0  0
 13 43  1  0  0  0
 13 44  1  0  0  0
 14 15  1  0  0  0
 14 45  1  0  0  0
 14 46  1  0  0  0
 15 16  1  0  0  0
 15 19  1  0  0  0
 15 20  1  0  0  0
 16 17  1  0  0  0
 16 47  1  0  0  0
 17 18  1  0  0  0
 17 48  1  0  0  0
 17 49  1  0  0  0
 18 19  1  0  0  0
 18 50  1  0  0  0
 18 51  1  0  0  0
 19 22  1  0  0  0
 19 52  1  0  0  0
 20 53  1  0  0  0
 20 54  1  0  0  0
 20 55  1  0  0  0
 21 56  1  0  0  0
 21 57  1  0  0  0
 22 23  1  0  0  0
 22 24  1  0  0  0
 22 58  1  0  0  0
 23 59  1  0  0  0
 23 60  1  0  0  0
 23 61  1  0  0  0
 24 25  1  0  0  0
 24 62  1  0  0  0
 24 63  1  0  0  0
 25 26  1  0  0  0
 25 64  1  0  0  0
 25 65  1  0  0  0
 26 27  1  0  0  0
 26 66  1  0  0  0
 26 67  1  0  0  0
 27 28  1  0  0  0
 27 29  1  0  0  0
 28 68  1  0  0  0
 28 69  1  0  0  0
 28 70  1  0  0  0
 29 71  1  0  0  0
 29 72  1  0  0  0
 29 73  1  0  0  0
 30 74  1  0  0  0
M  END
> <s_m_source_file>
../1db1_ligand.sdf

> <i_m_source_file_index>
1

> <s_epik_input>
W09IXVtDQEhdMVtDSDJdW0NASF0oW09IXSlbQ0gyXS9DKEMxPVtDSDJdKT1bQ0hdL1tDSF09QyhcW0NIMl1bQ0gyXVtDSDJdMilbQ0BASF0oW0NAXTIzW0NIM10pW0NIMl1bQ0gyXVtDQEBIXTNbQ0BIXShbQ0gzXSlbQ0gyXVtDSDJdW0NIMl1DKFtPSF0pKFtDSDNdKVtDSDNd

> <s_epik_cmdline>
J2VwaWtfYXBwJywgJy1pbWFlJywgJ2xpZ2FuZF9wcm8ubWFlJywgJy1vbWFlJywgJ2xpZ2FuZF9wcmVwLm1hZScsICctbXMnLCAnMScsICctcGgnLCAnNycsICctcGh0JywgJzAuNScsICctbnQn

> <r_lp_tautomer_probability>
1

> <r_epik_Ionization_Penalty>
  0.0000

> <r_epik_Ionization_Penalty_Charging>
  0.0000

> <r_epik_Ionization_Penalty_Neutral>
  0.0000

> <r_epik_State_Penalty>
 -0.0000

> <r_epik_Charging_Adjusted_Penalty>
0

> <i_epik_Tot_Q>
0

> <i_epik_Tot_abs_Q>
0

$$$$
