1dbb_ligand
                    3D
 Schrodinger Suite 2020-3.
 53 56  0  0  1  0            999 V2000
  -19.9120   42.8500  -15.1180 C   0  0  0  0  0  0
  -18.7140   42.2110  -15.7850 C   0  0  0  0  0  0
  -17.5580   43.1900  -15.5720 C   0  0  0  0  0  0
  -16.8370   43.6090  -16.5000 O   0  0  0  0  0  0
  -17.3070   43.5630  -14.2920 C   0  0  0  0  0  0
  -18.3340   43.5260  -13.3280 C   0  0  0  0  0  0
  -18.1250   43.8940  -11.8890 C   0  0  0  0  0  0
  -19.1200   44.8880  -11.5040 C   0  0  0  0  0  0
  -20.5190   44.4360  -11.7200 C   0  0  2  0  0  0
  -20.7390   44.1110  -13.1940 C   0  0  1  0  0  0
  -19.7460   43.0470  -13.6120 C   0  0  1  0  0  0
  -22.1270   43.6600  -13.4710 C   0  0  0  0  0  0
  -23.0710   44.6670  -12.9620 C   0  0  0  0  0  0
  -22.8880   45.1430  -11.4600 C   0  0  1  0  0  0
  -21.4660   45.5780  -11.3090 C   0  0  1  0  0  0
  -21.5600   46.3950  -10.0120 C   0  0  0  0  0  0
  -22.9710   46.9580   -9.9290 C   0  0  0  0  0  0
  -23.7580   46.3120  -11.0520 C   0  0  2  0  0  0
  -23.1280   44.0010  -10.4700 C   0  0  0  0  0  0
  -19.9500   41.6840  -12.9700 C   0  0  0  0  0  0
  -25.1940   46.1310  -10.7280 C   0  0  0  0  0  0
  -25.5790   46.0380   -9.5860 O   0  0  0  0  0  0
  -26.2210   46.1930  -11.7970 C   0  0  0  0  0  0
  -20.0919   43.8414  -15.5594 H   0  0  0  0  0  0
  -20.7976   42.2152  -15.2689 H   0  0  0  0  0  0
  -18.5084   41.2379  -15.3151 H   0  0  0  0  0  0
  -18.9247   42.0644  -16.8546 H   0  0  0  0  0  0
  -16.2976   43.8951  -14.0078 H   0  0  0  0  0  0
  -18.2345   42.9971  -11.2616 H   0  0  0  0  0  0
  -17.1152   44.3107  -11.7600 H   0  0  0  0  0  0
  -19.0096   45.1223  -10.4349 H   0  0  0  0  0  0
  -18.9729   45.8028  -12.0969 H   0  0  0  0  0  0
  -20.6844   43.5315  -11.1163 H   0  0  0  0  0  0
  -20.6047   45.0245  -13.7920 H   0  0  0  0  0  0
  -22.2638   43.5395  -14.5558 H   0  0  0  0  0  0
  -22.3068   42.6975  -12.9697 H   0  0  0  0  0  0
  -22.9952   45.5808  -13.5696 H   0  0  0  0  0  0
  -24.0958   44.2716  -13.0206 H   0  0  0  0  0  0
  -20.9447   46.2743  -11.9824 H   0  0  0  0  0  0
  -21.3552   45.7414   -9.1513 H   0  0  0  0  0  0
  -20.8214   47.2098  -10.0375 H   0  0  0  0  0  0
  -23.4074   46.7108   -8.9500 H   0  0  0  0  0  0
  -22.9375   48.0508  -10.0501 H   0  0  0  0  0  0
  -23.9488   46.9197  -11.9488 H   0  0  0  0  0  0
  -22.5046   43.1382  -10.7474 H   0  0  0  0  0  0
  -24.1886   43.7104  -10.4956 H   0  0  0  0  0  0
  -22.8634   44.3336   -9.4554 H   0  0  0  0  0  0
  -19.1823   40.9871  -13.3374 H   0  0  0  0  0  0
  -20.9477   41.3014  -13.2311 H   0  0  0  0  0  0
  -19.8676   41.7775  -11.8771 H   0  0  0  0  0  0
  -25.7265   46.2757  -12.7761 H   0  0  0  0  0  0
  -26.8651   47.0701  -11.6362 H   0  0  0  0  0  0
  -26.8327   45.2792  -11.7712 H   0  0  0  0  0  0
  1  2  1  0  0  0
  1 11  1  0  0  0
  1 24  1  0  0  0
  1 25  1  0  0  0
  2  3  1  0  0  0
  2 26  1  0  0  0
  2 27  1  0  0  0
  3  4  2  0  0  0
  3  5  1  0  0  0
  5  6  2  0  0  0
  5 28  1  0  0  0
  6  7  1  0  0  0
  6 11  1  0  0  0
  7  8  1  0  0  0
  7 29  1  0  0  0
  7 30  1  0  0  0
  8  9  1  0  0  0
  8 31  1  0  0  0
  8 32  1  0  0  0
  9 10  1  0  0  0
  9 15  1  0  0  0
  9 33  1  0  0  0
 10 11  1  0  0  0
 10 12  1  0  0  0
 10 34  1  0  0  0
 11 20  1  0  0  0
 12 13  1  0  0  0
 12 35  1  0  0  0
 12 36  1  0  0  0
 13 14  1  0  0  0
 13 37  1  0  0  0
 13 38  1  0  0  0
 14 15  1  0  0  0
 14 18  1  0  0  0
 14 19  1  0  0  0
 15 16  1  0  0  0
 15 39  1  0  0  0
 16 17  1  0  0  0
 16 40  1  0  0  0
 16 41  1  0  0  0
 17 18  1  0  0  0
 17 42  1  0  0  0
 17 43  1  0  0  0
 18 21  1  0  0  0
 18 44  1  0  0  0
 19 45  1  0  0  0
 19 46  1  0  0  0
 19 47  1  0  0  0
 20 48  1  0  0  0
 20 49  1  0  0  0
 20 50  1  0  0  0
 21 22  2  0  0  0
 21 23  1  0  0  0
 23 51  1  0  0  0
 23 52  1  0  0  0
 23 53  1  0  0  0
M  END
> <s_m_source_file>
../1dbb_ligand.sdf

> <i_m_source_file_index>
1

> <s_epik_input>
W0NIMl0xW0NIMl1DKD1PKVtDSF09QyhbQ0BdMTJbQ0gzXSlbQ0gyXVtDSDJdW0NAQEhdM1tDQEBIXTJbQ0gyXVtDSDJdW0NAQF00KFtDSDNdKVtDQEhdM1tDSDJdW0NIMl1bQ0BASF00Qyg9TylbQ0gzXQ==

> <s_epik_cmdline>
J2VwaWtfYXBwJywgJy1pbWFlJywgJ2xpZ2FuZF9wcm8ubWFlJywgJy1vbWFlJywgJ2xpZ2FuZF9wcmVwLm1hZScsICctbXMnLCAnMScsICctcGgnLCAnNycsICctcGh0JywgJzAuNScsICctbnQn

> <r_lp_tautomer_probability>
1

> <r_epik_Ionization_Penalty>
  0.0000

> <r_epik_Ionization_Penalty_Charging>
  0.0000

> <r_epik_Ionization_Penalty_Neutral>
  0.0000

> <r_epik_State_Penalty>
 -0.0000

> <r_epik_Charging_Adjusted_Penalty>
0

> <i_epik_Tot_Q>
0

> <i_epik_Tot_abs_Q>
0

$$$$
