1dbj_ligand
                    3D
 Schrodinger Suite 2020-3.
 51 54  0  0  1  0            999 V2000
  -19.3250   42.4490  -11.1620 C   0  0  0  0  0  0
  -20.0690   41.1030  -11.1410 C   0  0  0  0  0  0
  -20.2460   40.5980  -12.5670 C   0  0  1  0  0  0
  -21.0010   39.3920  -12.5720 O   0  0  0  0  0  0
  -20.9990   41.6510  -13.4480 C   0  0  0  0  0  0
  -20.1430   42.9430  -13.4860 C   0  0  1  0  0  0
  -20.8430   43.9470  -14.4220 C   0  0  0  0  0  0
  -22.1420   44.5000  -13.8430 C   0  0  0  0  0  0
  -22.0560   44.9550  -12.4050 C   0  0  2  0  0  0
  -21.4070   43.8820  -11.5080 C   0  0  1  0  0  0
  -19.9920   43.5240  -12.0440 C   0  0  1  0  0  0
  -21.3630   44.3320  -10.0840 C   0  0  0  0  0  0
  -22.7520   44.7200   -9.5790 C   0  0  0  0  0  0
  -23.3970   45.7460  -10.4630 C   0  0  1  0  0  0
  -23.4440   45.2460  -11.8930 C   0  0  1  0  0  0
  -24.5160   46.0880  -12.5730 C   0  0  0  0  0  0
  -25.5820   46.1650  -11.4850 C   0  0  0  0  0  0
  -24.8410   45.9420  -10.1700 C   0  0  0  0  0  0
  -25.3300   45.9550   -9.0410 O   0  0  0  0  0  0
  -22.7230   47.1090  -10.2410 C   0  0  0  0  0  0
  -18.9870   44.6450  -11.9900 C   0  0  0  0  0  0
  -19.2728   42.8550  -10.1410 H   0  0  0  0  0  0
  -18.3065   42.2990  -11.5495 H   0  0  0  0  0  0
  -19.4863   40.3710  -10.5626 H   0  0  0  0  0  0
  -21.0561   41.2369  -10.6744 H   0  0  0  0  0  0
  -19.2560   40.3362  -12.9687 H   0  0  0  0  0  0
  -20.6440   38.5173  -12.0085 H   0  0  0  0  0  0
  -21.1301   41.2519  -14.4646 H   0  0  0  0  0  0
  -21.9845   41.8609  -13.0066 H   0  0  0  0  0  0
  -19.1361   42.7330  -13.8759 H   0  0  0  0  0  0
  -20.1737   44.7990  -14.6121 H   0  0  0  0  0  0
  -21.0865   43.4525  -15.3739 H   0  0  0  0  0  0
  -22.4636   45.3722  -14.4312 H   0  0  0  0  0  0
  -22.9206   43.7240  -13.8823 H   0  0  0  0  0  0
  -21.4458   45.8700  -12.3835 H   0  0  0  0  0  0
  -22.0349   42.9789  -11.5010 H   0  0  0  0  0  0
  -20.9774   43.5171   -9.4537 H   0  0  0  0  0  0
  -20.7025   45.2073   -9.9963 H   0  0  0  0  0  0
  -23.3961   43.8286   -9.5562 H   0  0  0  0  0  0
  -22.6698   45.1390   -8.5652 H   0  0  0  0  0  0
  -23.7952   44.2293  -12.1232 H   0  0  0  0  0  0
  -24.0968   47.0692  -12.8402 H   0  0  0  0  0  0
  -24.8612   45.5765  -13.4836 H   0  0  0  0  0  0
  -26.0627   47.1540  -11.5120 H   0  0  0  0  0  0
  -26.3383   45.3849  -11.6568 H   0  0  0  0  0  0
  -21.6455   47.0227  -10.4448 H   0  0  0  0  0  0
  -22.8747   47.4277   -9.1992 H   0  0  0  0  0  0
  -23.1663   47.8522  -10.9201 H   0  0  0  0  0  0
  -18.0240   44.2936  -12.3889 H   0  0  0  0  0  0
  -18.8555   44.9696  -10.9472 H   0  0  0  0  0  0
  -19.3477   45.4903  -12.5945 H   0  0  0  0  0  0
  1  2  1  0  0  0
  1 11  1  0  0  0
  1 22  1  0  0  0
  1 23  1  0  0  0
  2  3  1  0  0  0
  2 24  1  0  0  0
  2 25  1  0  0  0
  3  4  1  0  0  0
  3  5  1  0  0  0
  3 26  1  0  0  0
  4 27  1  0  0  0
  5  6  1  0  0  0
  5 28  1  0  0  0
  5 29  1  0  0  0
  6  7  1  0  0  0
  6 11  1  0  0  0
  6 30  1  0  0  0
  7  8  1  0  0  0
  7 31  1  0  0  0
  7 32  1  0  0  0
  8  9  1  0  0  0
  8 33  1  0  0  0
  8 34  1  0  0  0
  9 10  1  0  0  0
  9 15  1  0  0  0
  9 35  1  0  0  0
 10 11  1  0  0  0
 10 12  1  0  0  0
 10 36  1  0  0  0
 11 21  1  0  0  0
 12 13  1  0  0  0
 12 37  1  0  0  0
 12 38  1  0  0  0
 13 14  1  0  0  0
 13 39  1  0  0  0
 13 40  1  0  0  0
 14 15  1  0  0  0
 14 18  1  0  0  0
 14 20  1  0  0  0
 15 16  1  0  0  0
 15 41  1  0  0  0
 16 17  1  0  0  0
 16 42  1  0  0  0
 16 43  1  0  0  0
 17 18  1  0  0  0
 17 44  1  0  0  0
 17 45  1  0  0  0
 18 19  2  0  0  0
 20 46  1  0  0  0
 20 47  1  0  0  0
 20 48  1  0  0  0
 21 49  1  0  0  0
 21 50  1  0  0  0
 21 51  1  0  0  0
M  END
> <s_m_source_file>
../1dbj_ligand.sdf

> <i_m_source_file_index>
1

> <s_epik_input>
W0NIMl0xW0NIMl1bQ0BASF0oW09IXSlbQ0gyXVtDQEhdKFtDQF0xMltDSDNdKVtDSDJdW0NIMl1bQ0BASF0zW0NAQEhdMltDSDJdW0NIMl1bQ0BAXTQoW0NIM10pW0NASF0zW0NIMl1bQ0gyXUM0PU8=

> <s_epik_cmdline>
J2VwaWtfYXBwJywgJy1pbWFlJywgJ2xpZ2FuZF9wcm8ubWFlJywgJy1vbWFlJywgJ2xpZ2FuZF9wcmVwLm1hZScsICctbXMnLCAnMScsICctcGgnLCAnNycsICctcGh0JywgJzAuNScsICctbnQn

> <r_lp_tautomer_probability>
1

> <r_epik_Ionization_Penalty>
  0.0000

> <r_epik_Ionization_Penalty_Charging>
  0.0000

> <r_epik_Ionization_Penalty_Neutral>
  0.0000

> <r_epik_State_Penalty>
 -0.0000

> <r_epik_Charging_Adjusted_Penalty>
0

> <i_epik_Tot_Q>
0

> <i_epik_Tot_abs_Q>
0

$$$$
