1dbk_ligand
                    3D
 Schrodinger Suite 2020-3.
 49 52  0  0  1  0            999 V2000
  -19.0460   42.4230  -11.7190 C   0  0  0  0  0  0
  -19.5520   40.9680  -11.6830 C   0  0  0  0  0  0
  -20.3890   40.3850  -12.8350 C   0  0  0  0  0  0
  -20.6990   39.1910  -12.9790 O   0  0  0  0  0  0
  -20.9200   41.5200  -13.7240 C   0  0  0  0  0  0
  -20.1610   42.8400  -13.8500 C   0  0  1  0  0  0
  -21.0280   43.7030  -14.6890 C   0  0  0  0  0  0
  -22.2800   44.2190  -14.0010 C   0  0  0  0  0  0
  -22.0410   44.7990  -12.6250 C   0  0  2  0  0  0
  -21.3010   43.7300  -11.7720 C   0  0  1  0  0  0
  -19.9280   43.4280  -12.4310 C   0  0  1  0  0  0
  -21.1190   44.2020  -10.3150 C   0  0  0  0  0  0
  -22.4600   44.4940   -9.6440 C   0  0  0  0  0  0
  -23.1580   45.5110  -10.4710 C   0  0  1  0  0  0
  -23.3970   45.1320  -11.9540 C   0  0  1  0  0  0
  -24.3860   46.1920  -12.4980 C   0  0  0  0  0  0
  -25.3630   46.3020  -11.3180 C   0  0  0  0  0  0
  -24.6340   45.6440  -10.1270 C   0  0  0  0  0  0
  -25.1770   45.2560   -9.0850 O   0  0  0  0  0  0
  -22.4890   46.8500  -10.2010 C   0  0  0  0  0  0
  -19.1510   44.7480  -12.4620 C   0  0  0  0  0  0
  -18.9332   42.7975  -10.6909 H   0  0  0  0  0  0
  -18.0735   42.4604  -12.2316 H   0  0  0  0  0  0
  -18.6937   40.2827  -11.6219 H   0  0  0  0  0  0
  -20.1979   40.8260  -10.8040 H   0  0  0  0  0  0
  -20.9948   41.1673  -14.7632 H   0  0  0  0  0  0
  -21.9143   41.8291  -13.3692 H   0  0  0  0  0  0
  -19.1833   42.7481  -14.3455 H   0  0  0  0  0  0
  -20.4604   44.5874  -15.0141 H   0  0  0  0  0  0
  -21.3638   43.1382  -15.5712 H   0  0  0  0  0  0
  -22.7321   45.0149  -14.6111 H   0  0  0  0  0  0
  -22.9990   43.3951  -13.8820 H   0  0  0  0  0  0
  -21.4444   45.7173  -12.7283 H   0  0  0  0  0  0
  -21.9051   42.8116  -11.7312 H   0  0  0  0  0  0
  -20.6061   43.4190   -9.7373 H   0  0  0  0  0  0
  -20.5168   45.1224  -10.3002 H   0  0  0  0  0  0
  -23.0523   43.5686   -9.5902 H   0  0  0  0  0  0
  -22.2858   44.8774   -8.6278 H   0  0  0  0  0  0
  -23.9140   44.1884  -12.1827 H   0  0  0  0  0  0
  -23.8433   47.1249  -12.7104 H   0  0  0  0  0  0
  -24.8507   45.8195  -13.4228 H   0  0  0  0  0  0
  -25.5833   47.3617  -11.1219 H   0  0  0  0  0  0
  -26.2957   45.7730  -11.5636 H   0  0  0  0  0  0
  -21.4181   46.7801  -10.4425 H   0  0  0  0  0  0
  -22.6092   47.1125   -9.1396 H   0  0  0  0  0  0
  -22.9559   47.6257  -10.8257 H   0  0  0  0  0  0
  -18.1660   44.5829  -12.9230 H   0  0  0  0  0  0
  -19.0177   45.1192  -11.4351 H   0  0  0  0  0  0
  -19.7114   45.4896  -13.0502 H   0  0  0  0  0  0
  1  2  1  0  0  0
  1 11  1  0  0  0
  1 22  1  0  0  0
  1 23  1  0  0  0
  2  3  1  0  0  0
  2 24  1  0  0  0
  2 25  1  0  0  0
  3  4  2  0  0  0
  3  5  1  0  0  0
  5  6  1  0  0  0
  5 26  1  0  0  0
  5 27  1  0  0  0
  6  7  1  0  0  0
  6 11  1  0  0  0
  6 28  1  0  0  0
  7  8  1  0  0  0
  7 29  1  0  0  0
  7 30  1  0  0  0
  8  9  1  0  0  0
  8 31  1  0  0  0
  8 32  1  0  0  0
  9 10  1  0  0  0
  9 15  1  0  0  0
  9 33  1  0  0  0
 10 11  1  0  0  0
 10 12  1  0  0  0
 10 34  1  0  0  0
 11 21  1  0  0  0
 12 13  1  0  0  0
 12 35  1  0  0  0
 12 36  1  0  0  0
 13 14  1  0  0  0
 13 37  1  0  0  0
 13 38  1  0  0  0
 14 15  1  0  0  0
 14 18  1  0  0  0
 14 20  1  0  0  0
 15 16  1  0  0  0
 15 39  1  0  0  0
 16 17  1  0  0  0
 16 40  1  0  0  0
 16 41  1  0  0  0
 17 18  1  0  0  0
 17 42  1  0  0  0
 17 43  1  0  0  0
 18 19  2  0  0  0
 20 44  1  0  0  0
 20 45  1  0  0  0
 20 46  1  0  0  0
 21 47  1  0  0  0
 21 48  1  0  0  0
 21 49  1  0  0  0
M  END
> <s_m_source_file>
../1dbk_ligand.sdf

> <i_m_source_file_index>
1

> <s_epik_input>
W0NIMl0xW0NIMl1DKD1PKVtDSDJdW0NASF0oW0NAXTEyW0NIM10pW0NIMl1bQ0gyXVtDQEBIXTNbQ0BASF0yW0NIMl1bQ0gyXVtDQEBdNChbQ0gzXSlbQ0BIXTNbQ0gyXVtDSDJdQzQ9Tw==

> <s_epik_cmdline>
J2VwaWtfYXBwJywgJy1pbWFlJywgJ2xpZ2FuZF9wcm8ubWFlJywgJy1vbWFlJywgJ2xpZ2FuZF9wcmVwLm1hZScsICctbXMnLCAnMScsICctcGgnLCAnNycsICctcGh0JywgJzAuNScsICctbnQn

> <r_lp_tautomer_probability>
1

> <r_epik_Ionization_Penalty>
  0.0000

> <r_epik_Ionization_Penalty_Charging>
  0.0000

> <r_epik_Ionization_Penalty_Neutral>
  0.0000

> <r_epik_State_Penalty>
 -0.0000

> <r_epik_Charging_Adjusted_Penalty>
0

> <i_epik_Tot_Q>
0

> <i_epik_Tot_abs_Q>
0

$$$$
