1det_ligand
                    3D
 Schrodinger Suite 2020-3.
 36 38  0  0  1  0            999 V2000
   22.7350  -47.6960   -0.0090 P   0  0  0  0  0  0
   23.9020  -47.3570   -0.7320 O   0  0  0  0  0  0
   21.5810  -47.3360   -0.7480 O   0  5  0  0  0  0
   22.7660  -49.1440   -0.1880 O   0  5  0  0  0  0
   19.6270  -47.8520    3.9310 O   0  0  0  0  0  0
   19.5520  -46.4330    4.1580 C   0  0  0  0  0  0
   20.8460  -45.7400    3.7100 C   0  0  1  0  0  0
   21.8990  -46.4050    4.4610 O   0  0  0  0  0  0
   21.2500  -45.8080    2.2670 C   0  0  1  0  0  0
   21.5680  -44.5100    1.7080 O   0  0  0  0  0  0
   22.6520  -46.4380    2.2270 C   0  0  2  0  0  0
   22.6900  -47.5800    1.4800 O   0  0  0  0  0  0
   23.0550  -46.5180    3.6710 C   0  0  2  0  0  0
   23.8290  -47.7260    4.1120 N   0  0  0  0  0  0
   23.4390  -48.9790    4.5070 C   0  0  0  0  0  0
   24.4330  -49.7590    4.7810 N   0  0  0  0  0  0
   25.5670  -48.9470    4.5580 C   0  0  0  0  0  0
   26.9630  -49.2380    4.6790 C   0  0  0  0  0  0
   27.4420  -50.3000    5.0250 O   0  0  0  0  0  0
   27.7440  -48.1120    4.4130 N   0  0  0  0  0  0
   27.2890  -46.8680    4.0140 C   0  0  0  0  0  0
   28.2310  -45.9750    3.7670 N   0  0  0  0  0  0
   25.9910  -46.6070    3.8680 N   0  0  0  0  0  0
   25.2100  -47.6780    4.1580 C   0  0  0  0  0  0
   18.7775  -48.4975    4.1988 H   0  0  0  0  0  0
   18.7099  -46.0144    3.5874 H   0  0  0  0  0  0
   19.3999  -46.2407    5.2303 H   0  0  0  0  0  0
   20.7228  -44.6626    3.8944 H   0  0  0  0  0  0
   20.4123  -46.2765    1.7297 H   0  0  0  0  0  0
   20.7760  -43.7576    1.5793 H   0  0  0  0  0  0
   23.4362  -45.9549    1.6256 H   0  0  0  0  0  0
   23.7189  -45.6596    3.8511 H   0  0  0  0  0  0
   22.3961  -49.2869    4.5825 H   0  0  0  0  0  0
   28.8379  -48.1647    4.5156 H   0  0  0  0  0  0
   29.2898  -46.2404    3.9032 H   0  0  0  0  0  0
   27.9565  -44.9662    3.4252 H   0  0  0  0  0  0
  1  2  2  0  0  0
  1  3  1  0  0  0
  1  4  1  0  0  0
  1 12  1  0  0  0
  5  6  1  0  0  0
  5 25  1  0  0  0
  6  7  1  0  0  0
  6 26  1  0  0  0
  6 27  1  0  0  0
  7  8  1  0  0  0
  7  9  1  0  0  0
  7 28  1  0  0  0
  8 13  1  0  0  0
  9 10  1  0  0  0
  9 11  1  0  0  0
  9 29  1  0  0  0
 10 30  1  0  0  0
 11 12  1  0  0  0
 11 13  1  0  0  0
 11 31  1  0  0  0
 13 14  1  0  0  0
 13 32  1  0  0  0
 14 15  1  0  0  0
 14 24  1  0  0  0
 15 16  2  0  0  0
 15 33  1  0  0  0
 16 17  1  0  0  0
 17 18  1  0  0  0
 17 24  2  0  0  0
 18 19  2  0  0  0
 18 20  1  0  0  0
 20 21  1  0  0  0
 20 34  1  0  0  0
 21 22  1  0  0  0
 21 23  2  0  0  0
 22 35  1  0  0  0
 22 36  1  0  0  0
 23 24  1  0  0  0
M  CHG  2   3  -1   4  -1
M  END
> <s_m_source_file>
../1det_ligand.sdf

> <i_m_source_file_index>
1

> <s_epik_input>
Tz1QKFtPSF0pKFtPSF0pT1tDQEBIXShbQ0BASF0xW09IXSlbQ0BASF0oT1tDQEBIXTFbQ0gyXVtPSF0pbihbY0hdbjIpYyhjMjMpbmMoW05IMl0pW25IXWMzPU8=

> <s_epik_cmdline>
J2VwaWtfYXBwJywgJy1pbWFlJywgJ2xpZ2FuZF9wcm8ubWFlJywgJy1vbWFlJywgJ2xpZ2FuZF9wcmVwLm1hZScsICctbXMnLCAnMScsICctcGgnLCAnNycsICctcGh0JywgJzAuNScsICctbnQn

> <r_lp_tautomer_probability>
0.999940409345307

> <r_epik_Ionization_Penalty>
  0.0708

> <r_epik_Ionization_Penalty_Charging>
  0.0707

> <r_epik_Ionization_Penalty_Neutral>
  0.0001

> <r_epik_State_Penalty>
  0.0606

> <r_epik_Charging_Adjusted_Penalty>
0.131326667537995

> <i_epik_Tot_Q>
-2

> <i_epik_Tot_abs_Q>
2

> <s_epik_Chemistry_Notes>
This compound contains an acetal/aminal-like group ( X-CH(R)-Y where X, Y are N, S, or O) that may be acid/base labile, releasing an aldehyde.

$$$$
