1df8_ligand
                    3D
 Schrodinger Suite 2020-3.
 31 32  0  0  1  0            999 V2000
   32.5640   18.1390   14.0710 C   0  0  0  0  0  0
   33.4260   17.4630   13.4730 O   0  0  0  0  0  0
   32.5320   19.3920   13.9660 O   0  5  0  0  0  0
   31.5990   17.4500   14.9620 C   0  0  0  0  0  0
   31.2260   16.0460   14.5600 C   0  0  0  0  0  0
   30.5160   16.0360   13.2000 C   0  0  0  0  0  0
   30.0160   14.6260   12.8220 C   0  0  0  0  0  0
   29.2080   14.5510   11.5450 C   0  0  2  0  0  0
   27.5110   15.2280   11.7030 S   0  0  0  0  0  0
   27.1670   14.6500   10.0230 C   0  0  0  0  0  0
   27.7360   13.2480    9.9740 C   0  0  2  0  0  0
   26.8850   12.1810   10.4970 N   0  0  0  0  0  0
   27.4580   11.5460   11.5290 C   0  0  0  0  0  0
   26.9770   10.6020   12.2050 O   0  0  0  0  0  0
   28.6480   12.1210   11.8210 N   0  0  0  0  0  0
   28.9670   13.2060   10.9010 C   0  0  2  0  0  0
   32.0217   17.3787   15.9750 H   0  0  0  0  0  0
   30.6594   18.0209   14.9962 H   0  0  0  0  0  0
   32.1354   15.4312   14.4885 H   0  0  0  0  0  0
   30.5509   15.6157   15.3144 H   0  0  0  0  0  0
   29.6483   16.7113   13.2344 H   0  0  0  0  0  0
   31.2135   16.3747   12.4197 H   0  0  0  0  0  0
   30.8775   13.9553   12.6878 H   0  0  0  0  0  0
   29.3710   14.2383   13.6243 H   0  0  0  0  0  0
   30.0359   14.9855   10.9655 H   0  0  0  0  0  0
   26.0810   14.6561    9.8483 H   0  0  0  0  0  0
   27.6587   15.3157    9.2983 H   0  0  0  0  0  0
   27.8711   13.0386    8.9026 H   0  0  0  0  0  0
   25.9033   11.9867   10.0403 H   0  0  0  0  0  0
   29.3465   11.8632   12.6308 H   0  0  0  0  0  0
   29.9355   12.9826   10.4297 H   0  0  0  0  0  0
  1  4  1  0  0  0
  1  3  1  0  0  0
  1  2  2  0  0  0
  4  5  1  0  0  0
  4 17  1  0  0  0
  4 18  1  0  0  0
  5  6  1  0  0  0
  5 19  1  0  0  0
  5 20  1  0  0  0
  6  7  1  0  0  0
  6 21  1  0  0  0
  6 22  1  0  0  0
  7  8  1  0  0  0
  7 23  1  0  0  0
  7 24  1  0  0  0
  8 16  1  0  0  0
  8  9  1  0  0  0
  8 25  1  0  0  0
  9 10  1  0  0  0
 10 11  1  0  0  0
 10 26  1  0  0  0
 10 27  1  0  0  0
 11 16  1  0  0  0
 11 12  1  0  0  0
 11 28  1  0  0  0
 12 13  1  0  0  0
 12 29  1  0  0  0
 13 15  1  0  0  0
 13 14  2  0  0  0
 15 16  1  0  0  0
 15 30  1  0  0  0
 16 31  1  0  0  0
M  CHG  1   3  -1
M  END
> <s_m_source_file>
../1df8_ligand.sdf

> <i_m_source_file_index>
1

> <s_epik_input>
Tz1DKFtPSF0pW0NIMl1bQ0gyXVtDSDJdW0NIMl1bQ0BIXShTW0NIMl0xKVtDQEhdKFtDQEhdMTIpW05IXUMoPU8pW05IXTI=

> <s_epik_cmdline>
J2VwaWtfYXBwJywgJy1pbWFlJywgJ2xpZ2FuZF9wcm8ubWFlJywgJy1vbWFlJywgJ2xpZ2FuZF9wcmVwLm1hZScsICctbXMnLCAnMScsICctcGgnLCAnNycsICctcGh0JywgJzAuNScsICctbnQn

> <r_lp_tautomer_probability>
1

> <r_epik_Ionization_Penalty>
  0.0045

> <r_epik_Ionization_Penalty_Charging>
  0.0044

> <r_epik_Ionization_Penalty_Neutral>
  0.0000

> <r_epik_State_Penalty>
 -0.0000

> <r_epik_Charging_Adjusted_Penalty>
0.00443833021372702

> <i_epik_Tot_Q>
-1

> <i_epik_Tot_abs_Q>
1

$$$$
