1dfo_ligand
                    3D
 Schrodinger Suite 2020-3.
 53 55  0  0  1  0            999 V2000
    9.5010   83.8170   43.4520 N   0  0  0  0  0  0
    8.3060   83.4100   43.9140 C   0  0  0  0  0  0
    7.3000   82.8090   43.3200 N   0  0  0  0  0  0
    8.0880   83.6730   45.2750 N   0  0  0  0  0  0
    8.9540   84.2940   46.1600 C   0  0  0  0  0  0
    8.6490   84.4850   47.3810 O   0  0  0  0  0  0
   10.2470   84.7290   45.5840 C   0  0  0  0  0  0
   11.2940   85.3970   46.3670 N   0  0  0  0  0  0
   12.6140   85.0350   45.9110 C   0  0  2  0  0  0
   12.6350   85.2700   44.4380 C   0  0  0  0  0  0
   11.7270   84.6200   43.6490 N   0  0  0  0  0  0
   10.4630   84.4490   44.2330 C   0  0  0  0  0  0
   12.9370   83.5390   46.0790 C   0  0  0  0  0  0
   12.9570   83.2050   47.5500 N   0  0  0  0  0  0
   12.6670   79.5260   49.3690 C   0  0  0  0  0  0
   13.5260   80.5350   49.9220 C   0  0  0  0  0  0
   13.6150   81.7630   49.3010 C   0  0  0  0  0  0
   12.8100   81.9330   48.1090 C   0  0  0  0  0  0
   11.9780   81.0220   47.5400 C   0  0  0  0  0  0
   11.9310   79.7820   48.2210 C   0  0  0  0  0  0
   12.5360   78.2000   49.9740 C   0  0  0  0  0  0
   11.4590   77.6160   49.8510 O   0  0  0  0  0  0
   13.5380   77.6370   50.6340 N   0  0  0  0  0  0
   13.3870   76.3810   51.4180 C   0  0  1  0  0  0
   13.9720   75.2030   50.5700 C   0  0  0  0  0  0
   15.3390   75.5610   49.7150 C   0  0  0  0  0  0
   16.0930   74.5430   48.8030 C   0  0  0  0  0  0
   15.6430   74.4500   47.6620 O   0  0  0  0  0  0
   17.1210   73.8550   49.2880 O   0  5  0  0  0  0
   14.2050   76.4830   52.6590 C   0  0  0  0  0  0
   14.9530   77.4440   52.8430 O   0  0  0  0  0  0
   14.1180   75.5750   53.5160 O   0  5  0  0  0  0
   10.9360   86.3940   47.1910 C   0  0  0  0  0  0
   11.8340   86.9460   47.8690 O   0  0  0  0  0  0
    7.3641   82.5553   42.2516 H   0  0  0  0  0  0
    6.3936   82.5595   43.8911 H   0  0  0  0  0  0
   13.2955   85.6628   46.5038 H   0  0  0  0  0  0
   13.3670   85.9547   43.9847 H   0  0  0  0  0  0
   12.1673   82.9385   45.5720 H   0  0  0  0  0  0
   13.9206   83.3242   45.6357 H   0  0  0  0  0  0
   13.0977   84.0034   48.2934 H   0  0  0  0  0  0
   14.1025   80.3321   50.8245 H   0  0  0  0  0  0
   14.2535   82.5588   49.6846 H   0  0  0  0  0  0
   11.3987   81.2276   46.6399 H   0  0  0  0  0  0
   11.2890   78.9944   47.8266 H   0  0  0  0  0  0
   14.5149   78.1402   50.5842 H   0  0  0  0  0  0
   12.3269   76.2582   51.6847 H   0  0  0  0  0  0
   14.2296   74.3653   51.2348 H   0  0  0  0  0  0
   13.2223   74.8717   49.8363 H   0  0  0  0  0  0
   15.1270   76.3784   49.0101 H   0  0  0  0  0  0
   16.1343   75.8718   50.4084 H   0  0  0  0  0  0
    9.8927   86.7303   47.2823 H   0  0  0  0  0  0
    7.1405   83.3751   45.7479 H   0  0  0  0  0  0
  1  2  2  0  0  0
  1 12  1  0  0  0
  2  3  1  0  0  0
  2  4  1  0  0  0
  3 35  1  0  0  0
  3 36  1  0  0  0
  4  5  1  0  0  0
  4 53  1  0  0  0
  5  6  2  0  0  0
  5  7  1  0  0  0
  7  8  1  0  0  0
  7 12  2  0  0  0
  8  9  1  0  0  0
  8 33  1  0  0  0
  9 10  1  0  0  0
  9 13  1  0  0  0
  9 37  1  0  0  0
 10 11  2  0  0  0
 10 38  1  0  0  0
 11 12  1  0  0  0
 13 14  1  0  0  0
 13 39  1  0  0  0
 13 40  1  0  0  0
 14 18  1  0  0  0
 14 41  1  0  0  0
 15 16  2  0  0  0
 15 20  1  0  0  0
 15 21  1  0  0  0
 16 17  1  0  0  0
 16 42  1  0  0  0
 17 18  2  0  0  0
 17 43  1  0  0  0
 18 19  1  0  0  0
 19 20  2  0  0  0
 19 44  1  0  0  0
 20 45  1  0  0  0
 21 22  2  0  0  0
 21 23  1  0  0  0
 23 24  1  0  0  0
 23 46  1  0  0  0
 24 25  1  0  0  0
 24 30  1  0  0  0
 24 47  1  0  0  0
 25 26  1  0  0  0
 25 48  1  0  0  0
 25 49  1  0  0  0
 26 27  1  0  0  0
 26 50  1  0  0  0
 26 51  1  0  0  0
 27 28  2  0  0  0
 27 29  1  0  0  0
 30 31  2  0  0  0
 30 32  1  0  0  0
 33 34  2  0  0  0
 33 52  1  0  0  0
M  CHG  2  29  -1  32  -1
M  END
> <s_m_source_file>
../1dfo_ligand.sdf

> <i_m_source_file_index>
1

> <s_epik_input>
Tz1jMW5jKFtOSDJdKVtuSF1jKGMxMilOPVtDSF1bQ0BASF0oTjJbQ0hdPU8pW0NIMl1bTkhdYyhbY0hdW2NIXTMpW2NIXVtjSF1jM0MoPU8pW05IXVtDQEhdKEMoPU8pW09IXSlbQ0gyXVtDSDJdQyg9TylbT0hd

> <s_epik_cmdline>
J2VwaWtfYXBwJywgJy1pbWFlJywgJ2xpZ2FuZF9wcm8ubWFlJywgJy1vbWFlJywgJ2xpZ2FuZF9wcmVwLm1hZScsICctbXMnLCAnMScsICctcGgnLCAnNycsICctcGh0JywgJzAuNScsICctbnQn

> <r_lp_tautomer_probability>
1

> <r_epik_Ionization_Penalty>
  0.0185

> <r_epik_Ionization_Penalty_Charging>
  0.0099

> <r_epik_Ionization_Penalty_Neutral>
  0.0086

> <r_epik_State_Penalty>
 -0.0000

> <r_epik_Charging_Adjusted_Penalty>
0.00988229151185584

> <i_epik_Tot_Q>
-2

> <i_epik_Tot_abs_Q>
2

> <s_epik_Chemistry_Notes>
This compound has an imine and may undergo hydrolysis.

$$$$
