1dg9_ligand
                    3D
 Schrodinger Suite 2020-3.
 33 33  0  0  1  0            999 V2000
    8.0230   42.5550   27.0260 N   0  0  2  0  0  0
    6.5510   42.5080   26.9560 C   0  0  0  0  0  0
    5.7540   43.7960   27.0300 C   0  0  0  0  0  0
    6.2020   44.6540   25.8930 N   0  3  2  0  0  0
    7.6890   44.8360   26.0050 C   0  0  0  0  0  0
    8.4490   43.5100   25.9790 C   0  0  0  0  0  0
    5.3320   45.8700   25.6410 C   0  0  0  0  0  0
    3.9310   45.7400   26.2350 C   0  0  0  0  0  0
    2.8360   45.7740   25.3050 O   0  0  0  0  0  0
    8.6030   41.3260   27.6150 C   0  0  0  0  0  0
    9.2410   40.3430   26.6070 C   0  0  0  0  0  0
   10.3530   39.2790   27.5250 S   0  0  0  0  0  0
   11.3640   40.0880   28.1720 O   0  0  0  0  0  0
    9.5170   38.6240   28.4960 O   0  0  0  0  0  0
   10.8860   38.3810   26.5140 O   0  5  0  0  0  0
    6.2436   42.0561   26.0014 H   0  0  0  0  0  0
    6.1634   41.9037   27.7894 H   0  0  0  0  0  0
    4.6811   43.5686   26.9456 H   0  0  0  0  0  0
    5.9489   44.2930   27.9918 H   0  0  0  0  0  0
    6.0398   44.1358   24.9363 H   0  0  0  0  0  0
    8.0480   45.4467   25.1635 H   0  0  0  0  0  0
    7.9262   45.3418   26.9526 H   0  0  0  0  0  0
    9.5162   43.7435   26.1080 H   0  0  0  0  0  0
    8.2890   43.0621   24.9871 H   0  0  0  0  0  0
    5.8026   46.7570   26.0902 H   0  0  0  0  0  0
    5.2208   46.0231   24.5574 H   0  0  0  0  0  0
    3.8454   44.7804   26.7659 H   0  0  0  0  0  0
    3.7533   46.5659   26.9395 H   0  0  0  0  0  0
    1.8019   45.6852   25.6694 H   0  0  0  0  0  0
    9.3961   41.5994   28.3265 H   0  0  0  0  0  0
    7.8164   40.7648   28.1406 H   0  0  0  0  0  0
    8.4511   39.7490   26.1241 H   0  0  0  0  0  0
    9.7934   40.9089   25.8425 H   0  0  0  0  0  0
  1  2  1  0  0  0
  1  6  1  0  0  0
  1 10  1  0  0  0
  2  3  1  0  0  0
  2 16  1  0  0  0
  2 17  1  0  0  0
  3  4  1  0  0  0
  3 18  1  0  0  0
  3 19  1  0  0  0
  4  5  1  0  0  0
  4  7  1  0  0  0
  4 20  1  0  0  0
  5  6  1  0  0  0
  5 21  1  0  0  0
  5 22  1  0  0  0
  6 23  1  0  0  0
  6 24  1  0  0  0
  7  8  1  0  0  0
  7 25  1  0  0  0
  7 26  1  0  0  0
  8  9  1  0  0  0
  8 27  1  0  0  0
  8 28  1  0  0  0
  9 29  1  0  0  0
 10 11  1  0  0  0
 10 30  1  0  0  0
 10 31  1  0  0  0
 11 12  1  0  0  0
 11 32  1  0  0  0
 11 33  1  0  0  0
 12 13  2  0  0  0
 12 14  2  0  0  0
 12 15  1  0  0  0
M  CHG  2   4   1  15  -1
M  END
> <s_m_source_file>
../1dg9_ligand.sdf

> <i_m_source_file_index>
1

> <s_epik_input>
Tz1TKD1PKShbT0hdKVtDSDJdW0NIMl1bTkBASCtdMVtDSDJdW0NIMl1bTkBIK10oW0NIMl1bQ0gyXTEpW0NIMl1bQ0gyXVtPSF0=

> <s_epik_cmdline>
J2VwaWtfYXBwJywgJy1pbWFlJywgJ2xpZ2FuZF9wcm8ubWFlJywgJy1vbWFlJywgJ2xpZ2FuZF9wcmVwLm1hZScsICctbXMnLCAnMScsICctcGgnLCAnNycsICctcGh0JywgJzAuNScsICctbnQn

> <r_lp_tautomer_probability>
1

> <r_epik_Ionization_Penalty>
  0.0766

> <r_epik_Ionization_Penalty_Charging>
  0.0762

> <r_epik_Ionization_Penalty_Neutral>
  0.0003

> <r_epik_State_Penalty>
 -0.0000

> <r_epik_Charging_Adjusted_Penalty>
0.0762199954204676

> <i_epik_Tot_Q>
0

> <i_epik_Tot_abs_Q>
2

$$$$
