1dhi_ligand
                    3D
 Schrodinger Suite 2020-3.
 53 55  0  0  1  0            999 V2000
   16.6040   65.5800   46.0260 N   0  0  0  0  0  0
   15.9550   65.6840   47.1820 C   0  0  0  0  0  0
   14.7430   65.3130   47.4180 N   0  0  0  0  0  0
   16.6870   66.2910   48.2200 N   0  0  0  0  0  0
   17.9370   66.8090   48.1580 C   0  0  0  0  0  0
   18.5270   67.3840   49.1750 N   0  0  0  0  0  0
   18.5560   66.6710   46.8620 C   0  0  0  0  0  0
   19.7780   67.2190   46.6980 N   0  0  0  0  0  0
   20.3890   67.0840   45.5020 C   0  0  0  0  0  0
   19.6710   66.3790   44.5290 C   0  0  0  0  0  0
   18.4680   65.8980   44.6740 N   0  0  0  0  0  0
   17.9050   66.0620   45.8690 C   0  0  0  0  0  0
   21.7500   67.6610   45.3850 C   0  0  0  0  0  0
   22.1240   67.8650   43.9550 N   0  0  0  0  0  0
   23.3380   67.1900   43.5620 C   0  0  0  0  0  0
   19.8840   70.1850   41.2790 C   0  0  0  0  0  0
   21.0630   69.5220   40.8740 C   0  0  0  0  0  0
   21.8060   68.7730   41.7650 C   0  0  0  0  0  0
   21.3710   68.6690   43.1090 C   0  0  0  0  0  0
   20.2490   69.3370   43.5120 C   0  0  0  0  0  0
   19.4980   70.0860   42.6050 C   0  0  0  0  0  0
   19.0780   70.9960   40.3530 C   0  0  0  0  0  0
   19.4700   71.1900   39.1920 O   0  0  0  0  0  0
   17.9200   71.5010   40.7610 N   0  0  0  0  0  0
   17.0230   72.3730   39.9310 C   0  0  2  0  0  0
   16.3270   73.2540   40.9130 C   0  0  0  0  0  0
   16.1880   72.8610   42.1090 O   0  5  0  0  0  0
   15.8900   74.3110   40.4130 O   0  0  0  0  0  0
   15.8740   71.5400   39.3360 C   0  0  0  0  0  0
   16.2830   70.5050   38.1680 C   0  0  0  0  0  0
   16.5780   70.9500   36.6970 C   0  0  0  0  0  0
   17.0990   69.9990   36.0080 O   0  5  0  0  0  0
   16.3560   72.1180   36.2870 O   0  0  0  0  0  0
   14.1493   64.8363   46.6241 H   0  0  0  0  0  0
   14.3027   65.4732   48.4132 H   0  0  0  0  0  0
   18.0066   67.4613   50.1410 H   0  0  0  0  0  0
   19.5433   67.7900   49.0637 H   0  0  0  0  0  0
   20.1595   66.2184   43.5679 H   0  0  0  0  0  0
   21.7818   68.6327   45.8997 H   0  0  0  0  0  0
   22.4787   66.9780   45.8459 H   0  0  0  0  0  0
   23.7347   66.6219   44.4164 H   0  0  0  0  0  0
   24.0821   67.9326   43.2382 H   0  0  0  0  0  0
   23.1223   66.5011   42.7320 H   0  0  0  0  0  0
   21.3930   69.6029   39.8383 H   0  0  0  0  0  0
   22.7153   68.2684   41.4383 H   0  0  0  0  0  0
   19.9367   69.2841   44.5550 H   0  0  0  0  0  0
   18.5978   70.5986   42.9442 H   0  0  0  0  0  0
   17.6325   71.2373   41.7895 H   0  0  0  0  0  0
   17.6192   72.8913   39.1656 H   0  0  0  0  0  0
   15.4091   70.9369   40.1298 H   0  0  0  0  0  0
   15.1217   72.2128   38.8985 H   0  0  0  0  0  0
   17.2121   69.9862   38.4466 H   0  0  0  0  0  0
   15.4778   69.7678   38.0328 H   0  0  0  0  0  0
  1 12  2  0  0  0
  1  2  1  0  0  0
  2  4  2  0  0  0
  2  3  1  0  0  0
  3 34  1  0  0  0
  3 35  1  0  0  0
  4  5  1  0  0  0
  5  7  2  0  0  0
  5  6  1  0  0  0
  6 36  1  0  0  0
  6 37  1  0  0  0
  7 12  1  0  0  0
  7  8  1  0  0  0
  8  9  2  0  0  0
  9 13  1  0  0  0
  9 10  1  0  0  0
 10 11  2  0  0  0
 10 38  1  0  0  0
 11 12  1  0  0  0
 13 14  1  0  0  0
 13 39  1  0  0  0
 13 40  1  0  0  0
 14 19  1  0  0  0
 14 15  1  0  0  0
 15 41  1  0  0  0
 15 42  1  0  0  0
 15 43  1  0  0  0
 16 17  1  0  0  0
 16 22  1  0  0  0
 16 21  2  0  0  0
 17 18  2  0  0  0
 17 44  1  0  0  0
 18 19  1  0  0  0
 18 45  1  0  0  0
 19 20  2  0  0  0
 20 21  1  0  0  0
 20 46  1  0  0  0
 21 47  1  0  0  0
 22 24  1  0  0  0
 22 23  2  0  0  0
 24 25  1  0  0  0
 24 48  1  0  0  0
 25 29  1  0  0  0
 25 26  1  0  0  0
 25 49  1  0  0  0
 26 28  2  0  0  0
 26 27  1  0  0  0
 29 30  1  0  0  0
 29 50  1  0  0  0
 29 51  1  0  0  0
 30 31  1  0  0  0
 30 52  1  0  0  0
 30 53  1  0  0  0
 31 33  2  0  0  0
 31 32  1  0  0  0
M  CHG  2  27  -1  32  -1
M  END
> <s_m_source_file>
../1dhi_ligand.sdf

> <i_m_source_file_index>
1

> <s_epik_input>
W05IMl1jMW5jKFtOSDJdKW5jKGMxMiluW2NIXWMobjIpW0NIMl1OKFtDSDNdKWMoW2NIXVtjSF0zKVtjSF1bY0hdYzNDKD1PKVtOSF1bQ0BIXShDKD1PKVtPSF0pW0NIMl1bQ0gyXUMoPU8pW09IXQ==

> <s_epik_cmdline>
J2VwaWtfYXBwJywgJy1pbWFlJywgJ2xpZ2FuZF9wcm8ubWFlJywgJy1vbWFlJywgJ2xpZ2FuZF9wcmVwLm1hZScsICctbXMnLCAnMScsICctcGgnLCAnNycsICctcGh0JywgJzAuNScsICctbnQn

> <r_epik_Ionization_Penalty>
  0.0825

> <r_epik_Ionization_Penalty_Charging>
  0.0043

> <r_epik_Ionization_Penalty_Neutral>
  0.0782

> <r_epik_State_Penalty>
  0.0653

> <r_epik_Charging_Adjusted_Penalty>
0.0696263758716877

> <i_epik_Tot_Q>
-2

> <i_epik_Tot_abs_Q>
2

$$$$
