1dhj_ligand
                    3D
 Schrodinger Suite 2020-3.
 53 55  0  0  1  0            999 V2000
   16.2100   65.2120   46.2830 N   0  0  0  0  0  0
   15.6380   65.3350   47.4680 C   0  0  0  0  0  0
   14.4580   64.9440   47.7320 N   0  0  0  0  0  0
   16.3910   66.0070   48.4650 N   0  0  0  0  0  0
   17.6730   66.4950   48.3110 C   0  0  0  0  0  0
   18.3250   67.0990   49.2750 N   0  0  0  0  0  0
   18.2160   66.2600   46.9780 C   0  0  0  0  0  0
   19.3830   66.7910   46.6640 N   0  0  0  0  0  0
   19.9280   66.6230   45.4530 C   0  0  0  0  0  0
   19.1560   65.9130   44.5520 C   0  0  0  0  0  0
   17.9510   65.4830   44.8130 N   0  0  0  0  0  0
   17.4990   65.6500   46.0360 C   0  0  0  0  0  0
   21.2660   67.2580   45.2860 C   0  0  0  0  0  0
   21.6000   67.3790   43.8170 N   0  0  0  0  0  0
   22.5390   66.4600   43.1980 C   0  0  0  0  0  0
   19.3670   69.8130   41.3100 C   0  0  0  0  0  0
   20.4520   68.9720   40.8240 C   0  0  0  0  0  0
   21.1820   68.1660   41.6460 C   0  0  0  0  0  0
   20.8250   68.2180   43.0060 C   0  0  0  0  0  0
   19.8170   69.0330   43.4910 C   0  0  0  0  0  0
   19.0290   69.8290   42.6640 C   0  0  0  0  0  0
   18.5840   70.6350   40.3750 C   0  0  0  0  0  0
   19.0520   70.9900   39.2460 O   0  0  0  0  0  0
   17.2680   70.8060   40.6290 N   0  0  0  0  0  0
   16.5520   71.8680   39.8380 C   0  0  2  0  0  0
   15.9490   72.8430   40.8090 C   0  0  0  0  0  0
   15.7680   72.5090   41.9660 O   0  0  0  0  0  0
   15.5680   73.9700   40.4220 O   0  5  0  0  0  0
   15.2630   71.2330   39.1920 C   0  0  0  0  0  0
   15.6460   70.1970   37.9730 C   0  0  0  0  0  0
   16.1940   70.9990   36.7480 C   0  0  0  0  0  0
   16.9320   70.2630   36.0500 O   0  0  0  0  0  0
   15.9960   72.2280   36.5850 O   0  5  0  0  0  0
   13.8670   64.4222   46.9649 H   0  0  0  0  0  0
   14.0276   65.1274   48.7276 H   0  0  0  0  0  0
   17.8489   67.2404   50.2565 H   0  0  0  0  0  0
   19.3481   67.4644   49.1022 H   0  0  0  0  0  0
   19.5767   65.7004   43.5692 H   0  0  0  0  0  0
   21.2552   68.2604   45.7388 H   0  0  0  0  0  0
   22.0295   66.6402   45.7814 H   0  0  0  0  0  0
   23.0574   65.8843   43.9789 H   0  0  0  0  0  0
   23.2758   67.0284   42.6114 H   0  0  0  0  0  0
   21.9950   65.7713   42.5349 H   0  0  0  0  0  0
   20.6899   68.9876   39.7604 H   0  0  0  0  0  0
   21.9843   67.5274   41.2764 H   0  0  0  0  0  0
   19.6324   69.0525   44.5651 H   0  0  0  0  0  0
   18.2021   70.4257   43.0489 H   0  0  0  0  0  0
   16.7191   70.2111   41.3738 H   0  0  0  0  0  0
   17.2809   72.3155   39.1463 H   0  0  0  0  0  0
   14.7048   70.6762   39.9590 H   0  0  0  0  0  0
   14.6266   72.0314   38.7827 H   0  0  0  0  0  0
   16.4158   69.4917   38.3195 H   0  0  0  0  0  0
   14.7476   69.6393   37.6698 H   0  0  0  0  0  0
  1 12  2  0  0  0
  1  2  1  0  0  0
  2  4  2  0  0  0
  2  3  1  0  0  0
  3 34  1  0  0  0
  3 35  1  0  0  0
  4  5  1  0  0  0
  5  7  2  0  0  0
  5  6  1  0  0  0
  6 36  1  0  0  0
  6 37  1  0  0  0
  7 12  1  0  0  0
  7  8  1  0  0  0
  8  9  2  0  0  0
  9 13  1  0  0  0
  9 10  1  0  0  0
 10 11  2  0  0  0
 10 38  1  0  0  0
 11 12  1  0  0  0
 13 14  1  0  0  0
 13 39  1  0  0  0
 13 40  1  0  0  0
 14 19  1  0  0  0
 14 15  1  0  0  0
 15 41  1  0  0  0
 15 42  1  0  0  0
 15 43  1  0  0  0
 16 17  1  0  0  0
 16 22  1  0  0  0
 16 21  2  0  0  0
 17 18  2  0  0  0
 17 44  1  0  0  0
 18 19  1  0  0  0
 18 45  1  0  0  0
 19 20  2  0  0  0
 20 21  1  0  0  0
 20 46  1  0  0  0
 21 47  1  0  0  0
 22 24  1  0  0  0
 22 23  2  0  0  0
 24 25  1  0  0  0
 24 48  1  0  0  0
 25 29  1  0  0  0
 25 26  1  0  0  0
 25 49  1  0  0  0
 26 28  1  0  0  0
 26 27  2  0  0  0
 29 30  1  0  0  0
 29 50  1  0  0  0
 29 51  1  0  0  0
 30 31  1  0  0  0
 30 52  1  0  0  0
 30 53  1  0  0  0
 31 33  1  0  0  0
 31 32  2  0  0  0
M  CHG  2  28  -1  33  -1
M  END
> <s_m_source_file>
../1dhj_ligand.sdf

> <i_m_source_file_index>
1

> <s_epik_input>
W05IMl1jMW5jKFtOSDJdKW5jKGMxMiluW2NIXWMobjIpW0NIMl1OKFtDSDNdKWMoW2NIXVtjSF0zKVtjSF1bY0hdYzNDKD1PKVtOSF1bQ0BIXShDKD1PKVtPSF0pW0NIMl1bQ0gyXUMoPU8pW09IXQ==

> <s_epik_cmdline>
J2VwaWtfYXBwJywgJy1pbWFlJywgJ2xpZ2FuZF9wcm8ubWFlJywgJy1vbWFlJywgJ2xpZ2FuZF9wcmVwLm1hZScsICctbXMnLCAnMScsICctcGgnLCAnNycsICctcGh0JywgJzAuNScsICctbnQn

> <r_epik_Ionization_Penalty>
  0.0825

> <r_epik_Ionization_Penalty_Charging>
  0.0043

> <r_epik_Ionization_Penalty_Neutral>
  0.0782

> <r_epik_State_Penalty>
  0.0653

> <r_epik_Charging_Adjusted_Penalty>
0.0696263758716872

> <i_epik_Tot_Q>
-2

> <i_epik_Tot_abs_Q>
2

$$$$
