1di8_ligand
                    3D
 Schrodinger Suite 2020-3.
 37 39  0  0  1  0            999 V2000
   -9.2640   52.3090   13.3720 N   0  0  0  0  0  0
  -10.2040   52.9720   12.5990 C   0  0  0  0  0  0
  -10.8280   52.3530   11.5200 N   0  0  0  0  0  0
  -10.5050   51.0150   11.1310 C   0  0  0  0  0  0
   -9.4320   50.2410   11.9370 C   0  0  0  0  0  0
   -8.8630   50.9420   13.1320 C   0  0  0  0  0  0
  -11.1780   50.3770    9.9930 C   0  0  0  0  0  0
  -10.8540   48.9910    9.5930 C   0  0  0  0  0  0
   -9.7510   48.2530   10.3090 C   0  0  0  0  0  0
   -9.0520   48.8980   11.4690 C   0  0  0  0  0  0
   -7.9420   50.3180   14.0110 N   0  0  0  0  0  0
   -7.2290   50.6820   15.1650 C   0  0  0  0  0  0
   -6.3650   49.6150   15.7210 C   0  0  0  0  0  0
   -5.5720   49.8430   16.9480 C   0  0  0  0  0  0
   -5.5700   51.1620   17.5920 C   0  0  0  0  0  0
   -6.4190   52.2450   17.0620 C   0  0  0  0  0  0
   -7.2620   52.0030   15.8780 C   0  0  0  0  0  0
   -4.8340   48.8240   17.5090 O   0  0  0  0  0  0
  -11.5470   48.2780    8.5820 O   0  0  0  0  0  0
  -12.3960   48.8920    7.6050 C   0  0  0  0  0  0
   -9.4630   46.9300    9.8550 O   0  0  0  0  0  0
   -8.4820   46.1170   10.5080 C   0  0  0  0  0  0
  -10.4608   54.0031   12.8420 H   0  0  0  0  0  0
  -11.9292   50.9345    9.4335 H   0  0  0  0  0  0
   -8.2483   48.3626   11.9745 H   0  0  0  0  0  0
   -7.6354   49.2760   13.8372 H   0  0  0  0  0  0
   -6.3131   48.6489   15.2190 H   0  0  0  0  0  0
   -4.9400   51.3412   18.4633 H   0  0  0  0  0  0
   -6.4229   53.2222   17.5449 H   0  0  0  0  0  0
   -7.9185   52.7937   15.5148 H   0  0  0  0  0  0
   -4.8241   47.8292   17.0396 H   0  0  0  0  0  0
  -12.8094   48.1188    6.9407 H   0  0  0  0  0  0
  -11.8120   49.6111    7.0118 H   0  0  0  0  0  0
  -13.2184   49.4175    8.1123 H   0  0  0  0  0  0
   -8.4178   45.1424   10.0020 H   0  0  0  0  0  0
   -8.7711   45.9664   11.5586 H   0  0  0  0  0  0
   -7.5035   46.6176   10.4651 H   0  0  0  0  0  0
  1  6  2  0  0  0
  1  2  1  0  0  0
  2  3  2  0  0  0
  2 23  1  0  0  0
  3  4  1  0  0  0
  4  7  1  0  0  0
  4  5  2  0  0  0
  5 10  1  0  0  0
  5  6  1  0  0  0
  6 11  1  0  0  0
  7  8  2  0  0  0
  7 24  1  0  0  0
  8  9  1  0  0  0
  8 19  1  0  0  0
  9 10  2  0  0  0
  9 21  1  0  0  0
 10 25  1  0  0  0
 11 12  1  0  0  0
 11 26  1  0  0  0
 12 17  2  0  0  0
 12 13  1  0  0  0
 13 14  2  0  0  0
 13 27  1  0  0  0
 14 18  1  0  0  0
 14 15  1  0  0  0
 15 16  2  0  0  0
 15 28  1  0  0  0
 16 17  1  0  0  0
 16 29  1  0  0  0
 17 30  1  0  0  0
 18 31  1  0  0  0
 19 20  1  0  0  0
 20 32  1  0  0  0
 20 33  1  0  0  0
 20 34  1  0  0  0
 21 22  1  0  0  0
 22 35  1  0  0  0
 22 36  1  0  0  0
 22 37  1  0  0  0
M  END
> <s_m_source_file>
../1di8_ligand.sdf

> <i_m_source_file_index>
1

> <s_epik_input>
W0NIM11PYyhbY0hdMSljKE9bQ0gzXSlbY0hdYyhjMTIpYyhuW2NIXW4yKVtOSF1jM1tjSF1jKFtPSF0pW2NIXVtjSF1bY0hdMw==

> <s_epik_cmdline>
J2VwaWtfYXBwJywgJy1pbWFlJywgJ2xpZ2FuZF9wcm8ubWFlJywgJy1vbWFlJywgJ2xpZ2FuZF9wcmVwLm1hZScsICctbXMnLCAnMScsICctcGgnLCAnNycsICctcGh0JywgJzAuNScsICctbnQn

> <r_lp_tautomer_probability>
1

> <r_epik_Ionization_Penalty>
  0.0025

> <r_epik_Ionization_Penalty_Charging>
  0.0000

> <r_epik_Ionization_Penalty_Neutral>
  0.0025

> <r_epik_State_Penalty>
 -0.0000

> <r_epik_Charging_Adjusted_Penalty>
0

> <i_epik_Tot_Q>
0

> <i_epik_Tot_abs_Q>
0

$$$$
