1di9_ligand
                    3D
 Schrodinger Suite 2020-3.
 40 42  0  0  1  0            999 V2000
   43.0150   32.0510   32.3060 N   0  0  0  0  0  0
   43.5280   33.3560   32.3740 C   0  0  0  0  0  0
   44.6160   33.7610   31.5820 N   0  0  0  0  0  0
   45.3250   32.8150   30.7600 C   0  0  0  0  0  0
   44.8050   31.3540   30.6580 C   0  0  0  0  0  0
   43.6190   31.0220   31.4970 C   0  0  0  0  0  0
   46.5880   33.1820   30.0880 C   0  0  0  0  0  0
   47.4330   32.1490   29.4040 C   0  0  0  0  0  0
   46.8980   30.7430   29.2390 C   0  0  0  0  0  0
   45.5660   30.3730   29.8290 C   0  0  0  0  0  0
   43.0870   29.7090   31.5300 N   0  0  0  0  0  0
   41.8510   29.2210   31.9100 C   0  0  0  0  0  0
   40.6150   29.7090   31.2620 C   0  0  0  0  0  0
   39.3000   29.4010   31.8370 C   0  0  0  0  0  0
   39.1800   28.4200   32.9280 C   0  0  0  0  0  0
   40.4100   27.8220   33.5040 C   0  0  0  0  0  0
   41.7550   28.2320   33.0070 C   0  0  0  0  0  0
   37.8780   30.2090   31.2290 S   0  0  0  0  0  0
   38.3800   31.9360   30.9080 C   0  0  0  0  0  0
   48.7700   32.3890   28.9470 O   0  0  0  0  0  0
   49.3270   33.6180   28.8460 C   0  0  0  0  0  0
   47.7520   29.8330   28.5470 O   0  0  0  0  0  0
   47.3320   28.5320   28.0930 C   0  0  0  0  0  0
   43.0716   34.0722   33.0573 H   0  0  0  0  0  0
   46.9119   34.2228   30.0892 H   0  0  0  0  0  0
   45.1524   29.3805   29.6502 H   0  0  0  0  0  0
   43.7049   28.8570   31.2103 H   0  0  0  0  0  0
   40.6807   30.3023   30.3500 H   0  0  0  0  0  0
   38.1988   28.1361   33.3085 H   0  0  0  0  0  0
   40.3298   27.0776   34.2962 H   0  0  0  0  0  0
   42.6576   27.8079   33.4469 H   0  0  0  0  0  0
   37.5201   32.5016   30.5198 H   0  0  0  0  0  0
   39.1928   31.9499   30.1669 H   0  0  0  0  0  0
   38.7294   32.3963   31.8440 H   0  0  0  0  0  0
   50.3571   33.5241   28.4718 H   0  0  0  0  0  0
   49.3387   34.0977   29.8358 H   0  0  0  0  0  0
   48.7379   34.2313   28.1483 H   0  0  0  0  0  0
   48.1722   28.0300   27.5909 H   0  0  0  0  0  0
   46.4958   28.6424   27.3869 H   0  0  0  0  0  0
   47.0073   27.9302   28.9546 H   0  0  0  0  0  0
  1  2  2  0  0  0
  1  6  1  0  0  0
  2  3  1  0  0  0
  2 24  1  0  0  0
  3  4  2  0  0  0
  4  5  1  0  0  0
  4  7  1  0  0  0
  5  6  2  0  0  0
  5 10  1  0  0  0
  6 11  1  0  0  0
  7  8  2  0  0  0
  7 25  1  0  0  0
  8  9  1  0  0  0
  8 20  1  0  0  0
  9 10  2  0  0  0
  9 22  1  0  0  0
 10 26  1  0  0  0
 11 12  1  0  0  0
 11 27  1  0  0  0
 12 13  2  0  0  0
 12 17  1  0  0  0
 13 14  1  0  0  0
 13 28  1  0  0  0
 14 15  2  0  0  0
 14 18  1  0  0  0
 15 16  1  0  0  0
 15 29  1  0  0  0
 16 17  2  0  0  0
 16 30  1  0  0  0
 17 31  1  0  0  0
 18 19  1  0  0  0
 19 32  1  0  0  0
 19 33  1  0  0  0
 19 34  1  0  0  0
 20 21  1  0  0  0
 21 35  1  0  0  0
 21 36  1  0  0  0
 21 37  1  0  0  0
 22 23  1  0  0  0
 23 38  1  0  0  0
 23 39  1  0  0  0
 23 40  1  0  0  0
M  END
> <s_m_source_file>
../1di9_ligand.sdf

> <i_m_source_file_index>
1

> <s_epik_input>
W0NIM11PYyhbY0hdMSljKE9bQ0gzXSlbY0hdYyhjMTIpYyhuW2NIXW4yKVtOSF1jM1tjSF1jKFNbQ0gzXSlbY0hdW2NIXVtjSF0z

> <s_epik_cmdline>
J2VwaWtfYXBwJywgJy1pbWFlJywgJ2xpZ2FuZF9wcm8ubWFlJywgJy1vbWFlJywgJ2xpZ2FuZF9wcmVwLm1hZScsICctbXMnLCAnMScsICctcGgnLCAnNycsICctcGh0JywgJzAuNScsICctbnQn

> <r_lp_tautomer_probability>
1

> <r_epik_Ionization_Penalty>
  0.0016

> <r_epik_Ionization_Penalty_Charging>
  0.0000

> <r_epik_Ionization_Penalty_Neutral>
  0.0016

> <r_epik_State_Penalty>
 -0.0000

> <r_epik_Charging_Adjusted_Penalty>
0

> <i_epik_Tot_Q>
0

> <i_epik_Tot_abs_Q>
0

$$$$
