1dif_ligand
                    3D
 Schrodinger Suite 2020-3.
116119  0  0  1  0            999 V2000
    3.3710    3.2440   10.6920 C   0  0  0  0  0  0
    3.1580    3.9230   11.6780 O   0  0  0  0  0  0
    3.9360    3.7880    9.5880 N   0  0  0  0  0  0
    4.3560    3.0410    8.4100 C   0  0  0  0  0  0
    4.2080    5.1970    9.5570 C   0  0  0  0  0  0
    5.5530    5.5010   10.1640 C   0  0  0  0  0  0
    5.6990    5.5620   11.5750 C   0  0  0  0  0  0
    6.5630    5.7500    9.2950 N   0  0  0  0  0  0
    6.9460    5.9050   12.1100 C   0  0  0  0  0  0
    7.7480    6.1020    9.8440 C   0  0  0  0  0  0
    7.9940    6.1900   11.2340 C   0  0  0  0  0  0
    3.0420    1.9380   10.6590 N   0  0  0  0  0  0
    2.5260    1.2550   11.8400 C   0  0  2  0  0  0
    3.6010    0.3240   12.3920 C   0  0  0  0  0  0
    3.6530   -0.8760   12.1430 O   0  0  0  0  0  0
    1.2120    0.5400   11.5360 C   0  0  0  0  0  0
    0.6900   -0.1890   12.7810 C   0  0  0  0  0  0
    0.1270    1.5020   11.0100 C   0  0  0  0  0  0
    4.4710    0.9440   13.1890 N   0  0  0  0  0  0
    5.4170    0.2040   14.0260 C   0  0  1  0  0  0
    6.7580    0.9060   14.0100 C   0  0  0  0  0  0
    7.1910    0.9950   12.6000 C   0  0  0  0  0  0
    6.9620    2.1660   11.8770 C   0  0  0  0  0  0
    7.3180    2.2260   10.5290 C   0  0  0  0  0  0
    7.8910    1.1110    9.9160 C   0  0  0  0  0  0
    8.1260   -0.0590   10.6460 C   0  0  0  0  0  0
    7.7790   -0.1170   11.9860 C   0  0  0  0  0  0
    4.8310    0.0730   15.4350 C   0  0  0  0  0  0
    4.9900    1.2280   16.1180 F   0  0  0  0  0  0
    3.4910   -0.0550   15.3950 F   0  0  0  0  0  0
    5.3510   -1.0750   16.3120 C   0  0  0  0  0  0
    6.7280   -1.1480   16.1330 O   0  0  0  0  0  0
    5.1400   -0.7540   17.6490 O   0  0  0  0  0  0
    5.6720   -3.4510   16.4150 N   0  0  0  0  0  0
    4.7250   -2.4420   15.9740 C   0  0  1  0  0  0
    3.3380   -2.7440   16.5810 C   0  0  0  0  0  0
    2.9690   -4.1640   16.2730 C   0  0  0  0  0  0
    2.5230   -4.5260   14.9940 C   0  0  0  0  0  0
    2.2460   -5.8690   14.6830 C   0  0  0  0  0  0
    2.4260   -6.8580   15.6460 C   0  0  0  0  0  0
    2.8700   -6.4950   16.9160 C   0  0  0  0  0  0
    3.1350   -5.1620   17.2340 C   0  0  0  0  0  0
    7.0860   -6.1630   16.6480 N   0  0  0  0  0  0
    7.6010   -4.8630   16.2970 C   0  0  2  0  0  0
    6.5080   -4.0710   15.5860 C   0  0  0  0  0  0
    6.4240   -3.9600   14.3810 O   0  0  0  0  0  0
    8.9080   -4.9760   15.5210 C   0  0  0  0  0  0
    9.8120   -5.9170   16.3290 C   0  0  0  0  0  0
    9.5580   -3.5930   15.2780 C   0  0  0  0  0  0
    6.8600   -6.5570   17.9310 C   0  0  0  0  0  0
    7.1850   -5.8670   18.8910 O   0  0  0  0  0  0
    6.2940   -7.7700   18.1310 N   0  0  0  0  0  0
    5.8690   -8.6300   17.0160 C   0  0  0  0  0  0
    6.0610   -8.2570   19.4870 C   0  0  0  0  0  0
    4.6680   -7.8930   19.9620 C   0  0  0  0  0  0
    4.4290   -6.6260   20.5360 C   0  0  0  0  0  0
    3.6960   -8.8200   19.8070 N   0  0  0  0  0  0
    3.1300   -6.3160   20.9580 C   0  0  0  0  0  0
    2.4620   -8.5000   20.2030 C   0  0  0  0  0  0
    2.1280   -7.2740   20.7830 C   0  0  0  0  0  0
    4.1009    1.9788    8.5392 H   0  0  0  0  0  0
    5.4433    3.1437    8.2791 H   0  0  0  0  0  0
    3.8408    3.4364    7.5222 H   0  0  0  0  0  0
    4.2040    5.5483    8.5146 H   0  0  0  0  0  0
    3.4346    5.7324   10.1273 H   0  0  0  0  0  0
    4.8550    5.3456   12.2299 H   0  0  0  0  0  0
    7.0954    5.9486   13.1888 H   0  0  0  0  0  0
    8.5709    6.3341    9.1679 H   0  0  0  0  0  0
    8.9767    6.4731   11.6111 H   0  0  0  0  0  0
    3.1695    1.3859    9.7162 H   0  0  0  0  0  0
    2.3035    2.0287   12.5896 H   0  0  0  0  0  0
    1.4382   -0.1917   10.7464 H   0  0  0  0  0  0
    1.4640   -0.8749   13.1557 H   0  0  0  0  0  0
   -0.2119   -0.7617   12.5193 H   0  0  0  0  0  0
    0.4437    0.5470   13.5605 H   0  0  0  0  0  0
    0.5017    2.0244   10.1174 H   0  0  0  0  0  0
   -0.1194    2.2381   11.7894 H   0  0  0  0  0  0
   -0.7750    0.9294   10.7481 H   0  0  0  0  0  0
    4.4648    2.0438   13.2064 H   0  0  0  0  0  0
    5.5632   -0.7997   13.6003 H   0  0  0  0  0  0
    6.6511    1.9106   14.4451 H   0  0  0  0  0  0
    7.4826    0.3260   14.6004 H   0  0  0  0  0  0
    6.5074    3.0295   12.3625 H   0  0  0  0  0  0
    7.1494    3.1390    9.9579 H   0  0  0  0  0  0
    8.1576    1.1520    8.8599 H   0  0  0  0  0  0
    8.5810   -0.9230   10.1617 H   0  0  0  0  0  0
    7.9632   -1.0251   12.5600 H   0  0  0  0  0  0
    7.3553   -0.2652   16.3258 H   0  0  0  0  0  0
    5.5250    0.1932   18.0546 H   0  0  0  0  0  0
    5.7201   -3.7333   17.4771 H   0  0  0  0  0  0
    4.5788   -2.4860   14.8846 H   0  0  0  0  0  0
    3.3751   -2.5984   17.6707 H   0  0  0  0  0  0
    2.5912   -2.0639   16.1455 H   0  0  0  0  0  0
    2.3895   -3.7578   14.2323 H   0  0  0  0  0  0
    1.8903   -6.1357   13.6878 H   0  0  0  0  0  0
    2.2224   -7.9024   15.4098 H   0  0  0  0  0  0
    3.0128   -7.2652   17.6740 H   0  0  0  0  0  0
    3.4728   -4.8997   18.2366 H   0  0  0  0  0  0
    6.8549   -6.8943   15.8595 H   0  0  0  0  0  0
    7.8501   -4.3491   17.2371 H   0  0  0  0  0  0
    8.7234   -5.3907   14.5190 H   0  0  0  0  0  0
    9.3028   -6.8815   16.4718 H   0  0  0  0  0  0
   10.0266   -5.4669   17.3095 H   0  0  0  0  0  0
   10.7545   -6.0769   15.7848 H   0  0  0  0  0  0
    8.8699   -2.9615   14.6969 H   0  0  0  0  0  0
   10.4970   -3.7222   14.7198 H   0  0  0  0  0  0
    9.7692   -3.1122   16.2446 H   0  0  0  0  0  0
    6.1064   -8.1371   16.0617 H   0  0  0  0  0  0
    4.7846   -8.8033   17.0794 H   0  0  0  0  0  0
    6.3982   -9.5927   17.0731 H   0  0  0  0  0  0
    6.1659   -9.3518   19.5065 H   0  0  0  0  0  0
    6.7960   -7.8061   20.1699 H   0  0  0  0  0  0
    5.2380   -5.9042   20.6485 H   0  0  0  0  0  0
    2.9061   -5.3507   21.4120 H   0  0  0  0  0  0
    1.6705   -9.2368   20.0660 H   0  0  0  0  0  0
    1.1037   -7.0682   21.0936 H   0  0  0  0  0  0
  1  2  2  0  0  0
  1  3  1  0  0  0
  1 12  1  0  0  0
  3  4  1  0  0  0
  3  5  1  0  0  0
  4 61  1  0  0  0
  4 62  1  0  0  0
  4 63  1  0  0  0
  5  6  1  0  0  0
  5 64  1  0  0  0
  5 65  1  0  0  0
  6  7  2  0  0  0
  6  8  1  0  0  0
  7  9  1  0  0  0
  7 66  1  0  0  0
  8 10  2  0  0  0
  9 11  2  0  0  0
  9 67  1  0  0  0
 10 11  1  0  0  0
 10 68  1  0  0  0
 11 69  1  0  0  0
 12 13  1  0  0  0
 12 70  1  0  0  0
 13 14  1  0  0  0
 13 16  1  0  0  0
 13 71  1  0  0  0
 14 15  2  0  0  0
 14 19  1  0  0  0
 16 17  1  0  0  0
 16 18  1  0  0  0
 16 72  1  0  0  0
 17 73  1  0  0  0
 17 74  1  0  0  0
 17 75  1  0  0  0
 18 76  1  0  0  0
 18 77  1  0  0  0
 18 78  1  0  0  0
 19 20  1  0  0  0
 19 79  1  0  0  0
 20 21  1  0  0  0
 20 28  1  0  0  0
 20 80  1  0  0  0
 21 22  1  0  0  0
 21 81  1  0  0  0
 21 82  1  0  0  0
 22 23  2  0  0  0
 22 27  1  0  0  0
 23 24  1  0  0  0
 23 83  1  0  0  0
 24 25  2  0  0  0
 24 84  1  0  0  0
 25 26  1  0  0  0
 25 85  1  0  0  0
 26 27  2  0  0  0
 26 86  1  0  0  0
 27 87  1  0  0  0
 28 29  1  0  0  0
 28 30  1  0  0  0
 28 31  1  0  0  0
 31 32  1  0  0  0
 31 33  1  0  0  0
 31 35  1  0  0  0
 32 88  1  0  0  0
 33 89  1  0  0  0
 34 45  1  0  0  0
 34 35  1  0  0  0
 34 90  1  0  0  0
 35 36  1  0  0  0
 35 91  1  0  0  0
 36 37  1  0  0  0
 36 92  1  0  0  0
 36 93  1  0  0  0
 37 38  2  0  0  0
 37 42  1  0  0  0
 38 39  1  0  0  0
 38 94  1  0  0  0
 39 40  2  0  0  0
 39 95  1  0  0  0
 40 41  1  0  0  0
 40 96  1  0  0  0
 41 42  2  0  0  0
 41 97  1  0  0  0
 42 98  1  0  0  0
 43 44  1  0  0  0
 43 50  1  0  0  0
 43 99  1  0  0  0
 44 45  1  0  0  0
 44 47  1  0  0  0
 44100  1  0  0  0
 45 46  2  0  0  0
 47 48  1  0  0  0
 47 49  1  0  0  0
 47101  1  0  0  0
 48102  1  0  0  0
 48103  1  0  0  0
 48104  1  0  0  0
 49105  1  0  0  0
 49106  1  0  0  0
 49107  1  0  0  0
 50 51  2  0  0  0
 50 52  1  0  0  0
 52 53  1  0  0  0
 52 54  1  0  0  0
 53108  1  0  0  0
 53109  1  0  0  0
 53110  1  0  0  0
 54 55  1  0  0  0
 54111  1  0  0  0
 54112  1  0  0  0
 55 56  2  0  0  0
 55 57  1  0  0  0
 56 58  1  0  0  0
 56113  1  0  0  0
 57 59  2  0  0  0
 58 60  2  0  0  0
 58114  1  0  0  0
 59 60  1  0  0  0
 59115  1  0  0  0
 60116  1  0  0  0
M  END
> <s_m_source_file>
../1dif_ligand.sdf

> <i_m_source_file_index>
1

> <s_epik_input>
bjFbY0hdW2NIXVtjSF1bY0hdYzFbQ0gyXU4oW0NIM10pQyg9TylbTkhdW0NAQEhdKFtDSF0oW0NIM10pW0NIM10pQyg9TylbTkhdW0NAQEhdKFtDSDJdYzJbY0hdW2NIXVtjSF1bY0hdW2NIXTIpQyhGKShGKUMoW09IXSkoW09IXSlbQ0BIXShbQ0gyXWMzW2NIXVtjSF1bY0hdW2NIXVtjSF0zKVtOSF1DKD1PKVtDQEhdKFtDSF0oW0NIM10pW0NIM10pW05IXUMoPU8pTihbQ0gzXSlbQ0gyXWM0W2NIXVtjSF1bY0hdW2NIXW40

> <s_epik_cmdline>
J2VwaWtfYXBwJywgJy1pbWFlJywgJ2xpZ2FuZF9wcm8ubWFlJywgJy1vbWFlJywgJ2xpZ2FuZF9wcmVwLm1hZScsICctbXMnLCAnMScsICctcGgnLCAnNycsICctcGh0JywgJzAuNScsICctbnQn

> <r_lp_tautomer_probability>
1

> <r_epik_Ionization_Penalty>
  0.0020

> <r_epik_Ionization_Penalty_Charging>
  0.0000

> <r_epik_Ionization_Penalty_Neutral>
  0.0020

> <r_epik_State_Penalty>
 -0.0000

> <r_epik_Charging_Adjusted_Penalty>
0

> <i_epik_Tot_Q>
0

> <i_epik_Tot_abs_Q>
0

$$$$
