1dis_ligand
                    3D
 Schrodinger Suite 2020-3.
 55 56  0  0  1  0            999 V2000
   -4.5080   31.2890   21.0300 N   0  3  0  0  0  0
   -4.4730   30.0400   21.4670 C   0  0  0  0  0  0
   -5.6070   29.5150   21.9000 N   0  0  0  0  0  0
   -3.4020   29.2780   21.5780 N   0  0  0  0  0  0
   -2.2240   29.8070   21.2690 C   0  0  0  0  0  0
   -1.1440   29.0450   21.4230 N   0  0  0  0  0  0
   -2.1270   31.1620   20.8330 C   0  0  0  0  0  0
   -3.3520   31.8580   20.7010 C   0  0  0  0  0  0
   -0.7980   31.9000   20.6480 C   0  0  0  0  0  0
   -0.7870   33.4030   20.8140 C   0  0  0  0  0  0
   -1.2490   34.2080   21.8610 C   0  0  0  0  0  0
   -1.0620   35.6010   21.8120 C   0  0  0  0  0  0
   -1.4120   36.5100   22.7860 O   0  0  0  0  0  0
   -0.4520   36.1620   20.7000 C   0  0  0  0  0  0
   -0.3200   38.0710   20.5040 Br  0  0  0  0  0  0
    0.0870   35.3500   19.7160 C   0  0  0  0  0  0
    0.8040   35.9080   18.6860 O   0  0  0  0  0  0
   -0.0910   33.9750   19.7780 C   0  0  0  0  0  0
    2.2090   35.7000   18.8280 C   0  0  0  0  0  0
   -2.4040   36.3510   23.8110 C   0  0  0  0  0  0
   -2.8090   37.7880   24.1940 C   0  0  0  0  0  0
   -3.5080   37.9930   25.5490 C   0  0  0  0  0  0
   -3.7540   39.4970   25.8430 C   0  0  1  0  0  0
   -5.1780   39.8790   25.3960 C   0  0  0  0  0  0
   -5.3820   39.7020   23.8790 C   0  0  0  0  0  0
   -3.4930   39.9280   27.3040 C   0  0  0  0  0  0
   -3.2780   41.1390   27.5350 O   0  5  0  0  0  0
   -3.4890   39.0750   28.2180 O   0  0  0  0  0  0
   -6.7620   40.1370   23.3630 C   0  0  0  0  0  0
   -7.4450   39.3130   22.7160 O   0  0  0  0  0  0
   -7.1600   41.3030   23.5810 O   0  5  0  0  0  0
   -6.5401   30.0942   21.8383 H   0  0  0  0  0  0
   -5.6171   28.4991   22.3218 H   0  0  0  0  0  0
   -1.2494   28.0034   21.7606 H   0  0  0  0  0  0
   -0.1459   29.4567   21.2127 H   0  0  0  0  0  0
   -3.3480   32.8801   20.3224 H   0  0  0  0  0  0
   -0.0669   31.5279   21.3808 H   0  0  0  0  0  0
   -0.4193   31.7238   19.6304 H   0  0  0  0  0  0
   -1.7538   33.7555   22.7145 H   0  0  0  0  0  0
    0.3266   33.3419   18.9951 H   0  0  0  0  0  0
    2.7358   36.1642   17.9812 H   0  0  0  0  0  0
    2.4201   34.6206   18.8439 H   0  0  0  0  0  0
    2.5538   36.1550   19.7683 H   0  0  0  0  0  0
   -3.2555   35.7803   23.4118 H   0  0  0  0  0  0
   -1.9672   35.8099   24.6633 H   0  0  0  0  0  0
   -1.9124   38.4241   24.2308 H   0  0  0  0  0  0
   -3.5090   38.1841   23.4435 H   0  0  0  0  0  0
   -4.4795   37.4771   25.5422 H   0  0  0  0  0  0
   -2.8794   37.5805   26.3520 H   0  0  0  0  0  0
   -3.0097   40.0578   25.2586 H   0  0  0  0  0  0
   -5.9086   39.2409   25.9147 H   0  0  0  0  0  0
   -5.3700   40.9332   25.6448 H   0  0  0  0  0  0
   -4.6359   40.3010   23.3364 H   0  0  0  0  0  0
   -5.2631   38.6409   23.6144 H   0  0  0  0  0  0
   -5.4697   31.8170   20.9502 H   0  0  0  0  0  0
  1  2  2  0  0  0
  1  8  1  0  0  0
  1 55  1  0  0  0
  2  3  1  0  0  0
  2  4  1  0  0  0
  3 32  1  0  0  0
  3 33  1  0  0  0
  4  5  2  0  0  0
  5  6  1  0  0  0
  5  7  1  0  0  0
  6 34  1  0  0  0
  6 35  1  0  0  0
  7  8  2  0  0  0
  7  9  1  0  0  0
  8 36  1  0  0  0
  9 10  1  0  0  0
  9 37  1  0  0  0
  9 38  1  0  0  0
 10 11  2  0  0  0
 10 18  1  0  0  0
 11 12  1  0  0  0
 11 39  1  0  0  0
 12 13  1  0  0  0
 12 14  2  0  0  0
 13 20  1  0  0  0
 14 15  1  0  0  0
 14 16  1  0  0  0
 16 17  1  0  0  0
 16 18  2  0  0  0
 17 19  1  0  0  0
 18 40  1  0  0  0
 19 41  1  0  0  0
 19 42  1  0  0  0
 19 43  1  0  0  0
 20 21  1  0  0  0
 20 44  1  0  0  0
 20 45  1  0  0  0
 21 22  1  0  0  0
 21 46  1  0  0  0
 21 47  1  0  0  0
 22 23  1  0  0  0
 22 48  1  0  0  0
 22 49  1  0  0  0
 23 24  1  0  0  0
 23 26  1  0  0  0
 23 50  1  0  0  0
 24 25  1  0  0  0
 24 51  1  0  0  0
 24 52  1  0  0  0
 25 29  1  0  0  0
 25 53  1  0  0  0
 25 54  1  0  0  0
 26 27  1  0  0  0
 26 28  2  0  0  0
 29 30  2  0  0  0
 29 31  1  0  0  0
M  CHG  3   1   1  27  -1  31  -1
M  END
> <s_m_source_file>
../1dis_ligand.sdf

> <i_m_source_file_index>
1

> <s_epik_input>
W05IMl1jMW5bY0hdYyhjKG4xKVtOSDJdKVtDSDJdYzJbY0hdYyhjKEJyKWMoW2NIXTIpT1tDSDNdKU9bQ0gyXVtDSDJdW0NIMl1bQ0BIXShDKD1PKVtPSF0pW0NIMl1bQ0gyXUMoPU8pW09IXQ==

> <s_epik_cmdline>
J2VwaWtfYXBwJywgJy1pbWFlJywgJ2xpZ2FuZF9wcm8ubWFlJywgJy1vbWFlJywgJ2xpZ2FuZF9wcmVwLm1hZScsICctbXMnLCAnMScsICctcGgnLCAnNycsICctcGh0JywgJzAuNScsICctbnQn

> <r_lp_tautomer_probability>
0.575010577011949

> <r_epik_Ionization_Penalty>
  0.2472

> <r_epik_Ionization_Penalty_Charging>
  0.2472

> <r_epik_Ionization_Penalty_Neutral>
  0.0000

> <r_epik_State_Penalty>
  0.4697

> <r_epik_Charging_Adjusted_Penalty>
0.716884683442875

> <i_epik_Tot_Q>
-1

> <i_epik_Tot_abs_Q>
3

$$$$
