1dkd_ligand
                    3D
 Schrodinger Suite 2020-3.
185192  0  0  1  0            999 V2000
   28.7250   56.6320   27.7230 N   0  3  0  0  0  0
   29.8600   57.3380   27.0590 C   0  0  2  0  0  0
   29.5060   57.7810   25.6460 C   0  0  0  0  0  0
   28.9340   57.0170   24.8700 O   0  0  0  0  0  0
   31.0940   56.4290   27.0120 C   0  0  0  0  0  0
   31.6700   56.1320   28.3620 C   0  0  0  0  0  0
   30.9940   55.6780   29.4590 C   0  0  0  0  0  0
   33.0390   56.2670   28.7610 C   0  0  0  0  0  0
   31.8590   55.5250   30.5180 N   0  0  0  0  0  0
   33.1200   55.8800   30.1170 C   0  0  0  0  0  0
   34.2070   56.6780   28.1050 C   0  0  0  0  0  0
   34.3220   55.8910   30.8310 C   0  0  0  0  0  0
   35.4060   56.6880   28.8160 C   0  0  0  0  0  0
   35.4510   56.2960   30.1670 C   0  0  0  0  0  0
   29.8570   59.0230   25.3230 N   0  0  0  0  0  0
   29.5960   59.5990   24.0060 C   0  0  2  0  0  0
   30.8850   59.6140   23.1970 C   0  0  0  0  0  0
   31.9570   59.3250   23.7230 O   0  0  0  0  0  0
   29.0980   61.0360   24.1450 C   0  0  0  0  0  0
   27.9020   61.2090   25.0490 C   0  0  0  0  0  0
   27.5440   62.9560   25.3030 S   0  0  0  0  0  0
   28.4710   63.2640   26.7930 C   0  0  0  0  0  0
   30.7720   59.9730   21.9240 N   0  0  0  0  0  0
   31.9230   60.0390   21.0360 C   0  0  2  0  0  0
   31.9050   61.3330   20.2300 C   0  0  0  0  0  0
   31.0760   61.4990   19.3410 O   0  0  0  0  0  0
   31.9260   58.8660   20.0450 C   0  0  2  0  0  0
   31.9170   57.6290   20.7670 O   0  0  0  0  0  0
   33.1670   58.9220   19.1620 C   0  0  0  0  0  0
   32.8190   62.2480   20.5330 N   0  0  0  0  0  0
   32.8840   63.5100   19.8070 C   0  0  2  0  0  0
   32.9310   63.2180   18.3060 C   0  0  0  0  0  0
   33.2450   62.1010   17.8940 O   0  0  0  0  0  0
   34.1490   64.3080   20.1710 C   0  0  2  0  0  0
   35.3110   63.5810   19.7440 O   0  0  0  0  0  0
   34.2200   64.5530   21.6720 C   0  0  0  0  0  0
   32.6110   64.2180   17.4670 N   0  0  0  0  0  0
   32.6450   63.9980   16.0190 C   0  0  2  0  0  0
   34.0300   63.5240   15.5840 C   0  0  0  0  0  0
   34.1700   62.8630   14.5560 O   0  0  0  0  0  0
   32.3060   65.3730   15.4530 C   0  0  0  0  0  0
   31.3800   65.9240   16.4790 C   0  0  0  0  0  0
   32.0690   65.5520   17.7770 C   0  0  0  0  0  0
   35.0540   63.8620   16.3640 N   0  0  0  0  0  0
   36.3990   63.4340   16.0140 C   0  0  2  0  0  0
   36.7960   62.1140   16.6720 C   0  0  0  0  0  0
   37.9670   61.7380   16.6620 O   0  0  0  0  0  0
   37.4300   64.5290   16.3140 C   0  0  0  0  0  0
   37.3820   65.1090   17.6920 C   0  0  0  0  0  0
   36.4480   65.9740   18.1880 C   0  0  0  0  0  0
   38.3310   64.8980   18.7440 C   0  0  0  0  0  0
   36.7580   66.3190   19.4840 N   0  0  0  0  0  0
   37.9090   65.6720   19.8500 C   0  0  0  0  0  0
   39.4990   64.1300   18.8610 C   0  0  0  0  0  0
   38.6130   65.7020   21.0540 C   0  0  0  0  0  0
   40.1970   64.1600   20.0560 C   0  0  0  0  0  0
   39.7530   64.9410   21.1380 C   0  0  0  0  0  0
   35.8120   61.4150   17.2400 N   0  0  0  0  0  0
   36.0640   60.1080   17.8300 C   0  0  0  0  0  0
   36.5290   59.9410   19.2640 C   0  0  0  0  0  0
   36.9240   58.8370   19.6490 O   0  0  0  0  0  0
   36.4800   61.0000   20.0640 N   0  0  0  0  0  0
   36.9150   60.9050   21.4520 C   0  0  2  0  0  0
   35.7530   60.3610   22.2850 C   0  0  0  0  0  0
   34.6840   60.9670   22.3510 O   0  0  0  0  0  0
   37.3490   62.2870   21.9630 C   0  0  0  0  0  0
   38.1380   62.2490   23.2500 C   0  0  0  0  0  0
   39.5310   62.2520   23.2300 C   0  0  0  0  0  0
   37.4900   62.2160   24.4760 C   0  0  0  0  0  0
   40.2700   62.2250   24.4130 C   0  0  0  0  0  0
   38.2080   62.1860   25.6670 C   0  0  0  0  0  0
   39.6090   62.1900   25.6380 C   0  0  0  0  0  0
   35.9770   59.2110   22.9120 N   0  0  0  0  0  0
   34.9720   58.5440   23.7360 C   0  0  2  0  0  0
   35.0430   59.0430   25.1760 C   0  0  0  0  0  0
   36.0790   58.9210   25.8190 O   0  0  0  0  0  0
   35.2190   57.0350   23.6910 C   0  0  0  0  0  0
   34.2480   56.0620   24.3570 C   0  0  0  0  0  0
   32.8730   56.1600   23.7050 C   0  0  0  0  0  0
   34.7990   54.6450   24.2150 C   0  0  0  0  0  0
   33.9440   59.5900   25.6900 N   0  0  0  0  0  0
   33.9360   60.1140   27.0550 C   0  0  2  0  0  0
   32.5560   60.0720   27.7130 C   0  0  0  0  0  0
   31.5350   59.9740   27.0360 O   0  0  0  0  0  0
   34.4360   61.5530   27.0460 C   0  0  0  0  0  0
   33.5020   62.5050   26.3690 C   0  0  0  0  0  0
   32.4510   63.1090   27.0250 N   0  0  0  0  0  0
   33.4420   62.9360   25.0870 C   0  0  0  0  0  0
   31.7860   63.8740   26.1780 C   0  0  0  0  0  0
   32.3670   63.7850   24.9950 N   0  0  0  0  0  0
   32.5160   60.1610   29.0510 N   0  0  0  0  0  0
   31.2660   60.1340   29.8200 C   0  0  2  0  0  0
   30.4320   61.4010   29.6130 C   0  0  0  0  0  0
   30.9720   62.3870   29.0670 O   0  0  0  0  0  0
   31.7480   60.0110   31.2690 C   0  0  0  0  0  0
   33.1300   59.4290   31.1480 C   0  0  0  0  0  0
   33.6770   60.1620   29.9570 C   0  0  0  0  0  0
   29.2500   61.3970   30.0190 O   0  0  0  0  0  0
   27.8470   57.2941   27.7503 H   0  0  0  0  0  0
   29.0120   56.3611   28.7498 H   0  0  0  0  0  0
   28.4795   55.7205   27.1583 H   0  0  0  0  0  0
   30.0549   58.2336   27.6673 H   0  0  0  0  0  0
   30.8238   55.4675   26.5509 H   0  0  0  0  0  0
   31.8829   56.9122   26.4169 H   0  0  0  0  0  0
   29.9250   55.4676   29.4907 H   0  0  0  0  0  0
   34.1786   56.9839   27.0592 H   0  0  0  0  0  0
   34.3601   55.5886   31.8775 H   0  0  0  0  0  0
   36.3226   57.0042   28.3181 H   0  0  0  0  0  0
   36.4035   56.3148   30.6965 H   0  0  0  0  0  0
   30.3629   59.6217   26.0947 H   0  0  0  0  0  0
   28.8317   58.9626   23.5360 H   0  0  0  0  0  0
   29.9007   61.6638   24.5591 H   0  0  0  0  0  0
   28.8053   61.4199   23.1566 H   0  0  0  0  0  0
   27.0243   60.7289   24.5917 H   0  0  0  0  0  0
   28.1086   60.7429   26.0237 H   0  0  0  0  0  0
   28.3522   64.3171   27.0877 H   0  0  0  0  0  0
   29.5352   63.0514   26.6133 H   0  0  0  0  0  0
   28.0980   62.6137   27.5979 H   0  0  0  0  0  0
   29.7703   60.2249   21.5457 H   0  0  0  0  0  0
   32.7899   59.9981   21.7118 H   0  0  0  0  0  0
   31.0144   58.8719   19.4294 H   0  0  0  0  0  0
   31.0943   57.4035   21.4614 H   0  0  0  0  0  0
   33.1783   59.8706   18.6053 H   0  0  0  0  0  0
   33.1509   58.0810   18.4532 H   0  0  0  0  0  0
   34.0674   58.8548   19.7903 H   0  0  0  0  0  0
   33.5330   62.0428   21.3443 H   0  0  0  0  0  0
   31.9786   64.0589   20.1054 H   0  0  0  0  0  0
   34.1730   65.2697   19.6376 H   0  0  0  0  0  0
   35.4330   63.3123   18.6843 H   0  0  0  0  0  0
   33.3282   65.1101   21.9952 H   0  0  0  0  0  0
   35.1221   65.1374   21.9058 H   0  0  0  0  0  0
   34.2609   63.5885   22.1994 H   0  0  0  0  0  0
   31.9382   63.2151   15.7068 H   0  0  0  0  0  0
   33.2279   65.9639   15.3485 H   0  0  0  0  0  0
   31.8312   65.2570   14.4676 H   0  0  0  0  0  0
   31.2862   67.0114   16.3420 H   0  0  0  0  0  0
   30.3913   65.4542   16.3707 H   0  0  0  0  0  0
   31.3745   65.4772   18.6268 H   0  0  0  0  0  0
   32.8940   66.2318   18.0365 H   0  0  0  0  0  0
   34.8863   64.4626   17.2702 H   0  0  0  0  0  0
   36.3302   63.2656   14.9291 H   0  0  0  0  0  0
   38.4442   64.1224   16.1871 H   0  0  0  0  0  0
   37.2831   65.3707   15.6212 H   0  0  0  0  0  0
   35.5815   66.3387   17.6364 H   0  0  0  0  0  0
   39.8500   63.5217   18.0274 H   0  0  0  0  0  0
   38.2716   66.3057   21.8949 H   0  0  0  0  0  0
   41.1064   63.5681   20.1602 H   0  0  0  0  0  0
   40.3270   64.9423   22.0646 H   0  0  0  0  0  0
   34.7978   61.8404   17.2583 H   0  0  0  0  0  0
   35.1413   59.5098   17.8037 H   0  0  0  0  0  0
   36.8509   59.5935   17.2590 H   0  0  0  0  0  0
   36.1062   61.9562   19.6690 H   0  0  0  0  0  0
   37.7726   60.2170   21.4844 H   0  0  0  0  0  0
   37.9841   62.7741   21.2084 H   0  0  0  0  0  0
   36.4586   62.9059   22.1476 H   0  0  0  0  0  0
   40.0527   62.2759   22.2732 H   0  0  0  0  0  0
   36.4004   62.2135   24.5066 H   0  0  0  0  0  0
   41.3594   62.2313   24.3785 H   0  0  0  0  0  0
   37.6818   62.1594   26.6212 H   0  0  0  0  0  0
   40.1773   62.1659   26.5678 H   0  0  0  0  0  0
   36.9734   58.7616   22.7884 H   0  0  0  0  0  0
   33.9895   58.7987   23.3120 H   0  0  0  0  0  0
   35.2426   56.6984   22.6440 H   0  0  0  0  0  0
   36.1818   56.8065   24.1714 H   0  0  0  0  0  0
   34.1407   56.3145   25.4223 H   0  0  0  0  0  0
   32.4877   57.1845   23.8141 H   0  0  0  0  0  0
   32.1843   55.4552   24.1939 H   0  0  0  0  0  0
   32.9552   55.9110   22.6367 H   0  0  0  0  0  0
   35.7900   54.5878   24.6889 H   0  0  0  0  0  0
   34.8874   54.3911   23.1483 H   0  0  0  0  0  0
   34.1165   53.9354   24.7055 H   0  0  0  0  0  0
   33.0341   59.6451   25.0744 H   0  0  0  0  0  0
   34.6084   59.4409   27.6071 H   0  0  0  0  0  0
   34.5684   61.9016   28.0809 H   0  0  0  0  0  0
   35.3986   61.6034   26.5161 H   0  0  0  0  0  0
   34.0588   62.7314   24.1995 H   0  0  0  0  0  0
   30.9084   64.4755   26.4146 H   0  0  0  0  0  0
   30.6286   59.3028   29.4842 H   0  0  0  0  0  0
   31.7581   61.0061   31.7378 H   0  0  0  0  0  0
   31.0684   59.3499   31.8267 H   0  0  0  0  0  0
   33.6936   59.6276   32.0715 H   0  0  0  0  0  0
   33.0579   58.3430   30.9889 H   0  0  0  0  0  0
   34.5183   59.6420   29.4755 H   0  0  0  0  0  0
   33.9667   61.1993   30.1806 H   0  0  0  0  0  0
   28.6203   62.2893   29.8877 H   0  0  0  0  0  0
  1  2  1  0  0  0
  1 99  1  0  0  0
  1100  1  0  0  0
  1101  1  0  0  0
  2  3  1  0  0  0
  2  5  1  0  0  0
  2102  1  0  0  0
  3  4  2  0  0  0
  3 15  1  0  0  0
  5  6  1  0  0  0
  5103  1  0  0  0
  5104  1  0  0  0
  6  7  2  0  0  0
  6  8  1  0  0  0
  7  9  1  0  0  0
  7105  1  0  0  0
  8 10  2  0  0  0
  8 11  1  0  0  0
  9 10  1  0  0  0
 10 12  1  0  0  0
 11 13  2  0  0  0
 11106  1  0  0  0
 12 14  2  0  0  0
 12107  1  0  0  0
 13 14  1  0  0  0
 13108  1  0  0  0
 14109  1  0  0  0
 15 16  1  0  0  0
 15110  1  0  0  0
 16 17  1  0  0  0
 16 19  1  0  0  0
 16111  1  0  0  0
 17 18  2  0  0  0
 17 23  1  0  0  0
 19 20  1  0  0  0
 19112  1  0  0  0
 19113  1  0  0  0
 20 21  1  0  0  0
 20114  1  0  0  0
 20115  1  0  0  0
 21 22  1  0  0  0
 22116  1  0  0  0
 22117  1  0  0  0
 22118  1  0  0  0
 23 24  1  0  0  0
 23119  1  0  0  0
 24 25  1  0  0  0
 24 27  1  0  0  0
 24120  1  0  0  0
 25 26  2  0  0  0
 25 30  1  0  0  0
 27 28  1  0  0  0
 27 29  1  0  0  0
 27121  1  0  0  0
 28122  1  0  0  0
 29123  1  0  0  0
 29124  1  0  0  0
 29125  1  0  0  0
 30 31  1  0  0  0
 30126  1  0  0  0
 31 32  1  0  0  0
 31 34  1  0  0  0
 31127  1  0  0  0
 32 33  2  0  0  0
 32 37  1  0  0  0
 34 35  1  0  0  0
 34 36  1  0  0  0
 34128  1  0  0  0
 35129  1  0  0  0
 36130  1  0  0  0
 36131  1  0  0  0
 36132  1  0  0  0
 37 38  1  0  0  0
 37 43  1  0  0  0
 38 39  1  0  0  0
 38 41  1  0  0  0
 38133  1  0  0  0
 39 40  2  0  0  0
 39 44  1  0  0  0
 41 42  1  0  0  0
 41134  1  0  0  0
 41135  1  0  0  0
 42 43  1  0  0  0
 42136  1  0  0  0
 42137  1  0  0  0
 43138  1  0  0  0
 43139  1  0  0  0
 44 45  1  0  0  0
 44140  1  0  0  0
 45 46  1  0  0  0
 45 48  1  0  0  0
 45141  1  0  0  0
 46 47  2  0  0  0
 46 58  1  0  0  0
 48 49  1  0  0  0
 48142  1  0  0  0
 48143  1  0  0  0
 49 50  2  0  0  0
 49 51  1  0  0  0
 50 52  1  0  0  0
 50144  1  0  0  0
 51 53  2  0  0  0
 51 54  1  0  0  0
 52 53  1  0  0  0
 53 55  1  0  0  0
 54 56  2  0  0  0
 54145  1  0  0  0
 55 57  2  0  0  0
 55146  1  0  0  0
 56 57  1  0  0  0
 56147  1  0  0  0
 57148  1  0  0  0
 58 59  1  0  0  0
 58149  1  0  0  0
 59 60  1  0  0  0
 59150  1  0  0  0
 59151  1  0  0  0
 60 61  2  0  0  0
 60 62  1  0  0  0
 62 63  1  0  0  0
 62152  1  0  0  0
 63 64  1  0  0  0
 63 66  1  0  0  0
 63153  1  0  0  0
 64 65  2  0  0  0
 64 73  1  0  0  0
 66 67  1  0  0  0
 66154  1  0  0  0
 66155  1  0  0  0
 67 68  2  0  0  0
 67 69  1  0  0  0
 68 70  1  0  0  0
 68156  1  0  0  0
 69 71  2  0  0  0
 69157  1  0  0  0
 70 72  2  0  0  0
 70158  1  0  0  0
 71 72  1  0  0  0
 71159  1  0  0  0
 72160  1  0  0  0
 73 74  1  0  0  0
 73161  1  0  0  0
 74 75  1  0  0  0
 74 77  1  0  0  0
 74162  1  0  0  0
 75 76  2  0  0  0
 75 81  1  0  0  0
 77 78  1  0  0  0
 77163  1  0  0  0
 77164  1  0  0  0
 78 79  1  0  0  0
 78 80  1  0  0  0
 78165  1  0  0  0
 79166  1  0  0  0
 79167  1  0  0  0
 79168  1  0  0  0
 80169  1  0  0  0
 80170  1  0  0  0
 80171  1  0  0  0
 81 82  1  0  0  0
 81172  1  0  0  0
 82 83  1  0  0  0
 82 85  1  0  0  0
 82173  1  0  0  0
 83 84  2  0  0  0
 83 91  1  0  0  0
 85 86  1  0  0  0
 85174  1  0  0  0
 85175  1  0  0  0
 86 87  2  0  0  0
 86 88  1  0  0  0
 87 89  1  0  0  0
 88 90  2  0  0  0
 88176  1  0  0  0
 89 90  1  0  0  0
 89177  1  0  0  0
 91 92  1  0  0  0
 91 97  1  0  0  0
 92 93  1  0  0  0
 92 95  1  0  0  0
 92178  1  0  0  0
 93 94  2  0  0  0
 93 98  1  0  0  0
 95 96  1  0  0  0
 95179  1  0  0  0
 95180  1  0  0  0
 96 97  1  0  0  0
 96181  1  0  0  0
 96182  1  0  0  0
 97183  1  0  0  0
 97184  1  0  0  0
 98185  1  0  0  0
M  CHG  1   1   1
M  END
> <s_m_source_file>
../1dkd_ligand.sdf

> <i_m_source_file_index>
1

> <s_epik_input>
W2NIXTFbY0hdW2NIXVtjSF1jKGMxMilbbkhdW2NIXWMyW0NIMl1bQ0BIXShbTkgzK10pQyg9TylbTkhdW0NAQEhdKFtDSDJdW0NIMl1TW0NIM10pQyg9TylbTkhdW0NAQEhdKFtDQEhdKFtPSF0pW0NIM10pQyg9TylbTkhdW0NAQEhdKFtDQEhdKFtPSF0pW0NIM10pQyg9TylOM1tDQEBIXShbQ0gyXVtDSDJdW0NIMl0zKUMoPU8pW05IXVtDQEBIXShbQ0gyXWM0W2NIXVtuSF1jKGM0NSlbY0hdW2NIXVtjSF1bY0hdNSlDKD1PKVtOSF1bQ0gyXUMoPU8pW05IXVtDQEBIXShbQ0gyXWM2W2NIXVtjSF1bY0hdW2NIXVtjSF02KUMoPU8pW05IXVtDQEBIXShbQ0gyXVtDSF0oW0NIM10pW0NIM10pQyg9TylbTkhdW0NASF0oQyg9TylON1tDQEhdKEMoPU8pW09IXSlbQ0gyXVtDSDJdW0NIMl03KVtDSDJdQzg9TltDSDJdTj1bQ0hdOA==

> <s_epik_cmdline>
J2VwaWtfYXBwJywgJy1pbWFlJywgJ2xpZ2FuZF9wcm8ubWFlJywgJy1vbWFlJywgJ2xpZ2FuZF9wcmVwLm1hZScsICctbXMnLCAnMScsICctcGgnLCAnNycsICctcGh0JywgJzAuNScsICctbnQn

> <s_epik_pKa_notes>
Molecule size exceeds maximum supported for generating protonation states

> <s_epik_Chemistry_Notes>
This compound has an imine and may undergo hydrolysis.

$$$$
