1dl7_ligand
                    3D
 Schrodinger Suite 2020-3.
 37 37  0  0  1  0            999 V2000
  106.0490   23.8740   17.7300 O   0  0  0  0  0  0
  106.5490   23.7800   19.1090 P   0  0  1  0  0  0
  107.4320   22.6010   19.2430 O   0  5  0  0  0  0
  107.3350   25.0890   19.4760 O   0  0  0  0  0  0
  105.3290   23.5560   20.1330 O   0  0  0  0  0  0
  104.4020   22.5820   19.6700 C   0  0  0  0  0  0
  103.8450   21.7860   20.8170 C   0  0  0  0  0  0
  102.5080   21.2700   20.3740 N   0  3  0  0  0  0
  102.6780   20.2140   19.3010 C   0  0  0  0  0  0
  101.6490   22.4260   19.9000 C   0  0  0  0  0  0
  101.8120   20.4330   21.4370 C   0  0  0  0  0  0
  107.3880   28.2420   16.4320 C   0  0  0  0  0  0
  107.3880   29.2840   15.4390 N   0  3  0  0  0  0
  108.6020   29.8800   15.0700 O   0  5  0  0  0  0
  106.1330   29.6270   14.9180 O   0  0  0  0  0  0
  108.5520   27.8280   17.0170 C   0  0  0  0  0  0
  108.5220   26.8300   17.9650 C   0  0  0  0  0  0
  107.3380   26.2260   18.3450 C   0  0  0  0  0  0
  106.1800   26.6650   17.7510 C   0  0  0  0  0  0
  106.2120   27.6680   16.7950 C   0  0  0  0  0  0
  103.5720   23.0835   19.1508 H   0  0  0  0  0  0
  104.9078   21.8955   18.9751 H   0  0  0  0  0  0
  104.5268   20.9554   21.0522 H   0  0  0  0  0  0
  103.7413   22.4360   21.6983 H   0  0  0  0  0  0
  103.3057   19.3971   19.6867 H   0  0  0  0  0  0
  103.1597   20.6616   18.4191 H   0  0  0  0  0  0
  101.6920   19.8166   19.0182 H   0  0  0  0  0  0
  101.5525   23.1664   20.7078 H   0  0  0  0  0  0
  100.6519   22.0526   19.6237 H   0  0  0  0  0  0
  102.1195   22.8976   19.0247 H   0  0  0  0  0  0
  101.6046   21.0580   22.3181 H   0  0  0  0  0  0
  102.4621   19.5944   21.7271 H   0  0  0  0  0  0
  100.8662   20.0415   21.0343 H   0  0  0  0  0  0
  109.4998   28.2860   16.7342 H   0  0  0  0  0  0
  109.4551   26.5081   18.4274 H   0  0  0  0  0  0
  105.2261   26.2201   18.0343 H   0  0  0  0  0  0
  105.2837   27.9995   16.3297 H   0  0  0  0  0  0
  1  2  2  0  0  0
  2  5  1  0  0  0
  2  4  1  0  0  0
  2  3  1  0  0  0
  4 18  1  0  0  0
  5  6  1  0  0  0
  6  7  1  0  0  0
  6 21  1  0  0  0
  6 22  1  0  0  0
  7  8  1  0  0  0
  7 23  1  0  0  0
  7 24  1  0  0  0
  8 11  1  0  0  0
  8 10  1  0  0  0
  8  9  1  0  0  0
  9 25  1  0  0  0
  9 26  1  0  0  0
  9 27  1  0  0  0
 10 28  1  0  0  0
 10 29  1  0  0  0
 10 30  1  0  0  0
 11 31  1  0  0  0
 11 32  1  0  0  0
 11 33  1  0  0  0
 12 16  1  0  0  0
 12 20  2  0  0  0
 12 13  1  0  0  0
 13 15  2  0  0  0
 13 14  1  0  0  0
 16 17  2  0  0  0
 16 34  1  0  0  0
 17 18  1  0  0  0
 17 35  1  0  0  0
 18 19  2  0  0  0
 19 20  1  0  0  0
 19 36  1  0  0  0
 20 37  1  0  0  0
M  CHG  4   3  -1   8   1  13   1  14  -1
M  END
> <s_m_source_file>
../1dl7_ligand.sdf

> <i_m_source_file_index>
1

> <s_epik_input>
W0NIM11bTitdKFtDSDNdKShbQ0gzXSlbQ0gyXVtDSDJdT1tQQF0oPU8pKFtPSF0pT2MoW2NIXVtjSF0xKVtjSF1bY0hdYzFbTitdKFtPLV0pPU8=

> <s_epik_cmdline>
J2VwaWtfYXBwJywgJy1pbWFlJywgJ2xpZ2FuZF9wcm8ubWFlJywgJy1vbWFlJywgJ2xpZ2FuZF9wcmVwLm1hZScsICctbXMnLCAnMScsICctcGgnLCAnNycsICctcGh0JywgJzAuNScsICctbnQn

> <r_lp_tautomer_probability>
1

> <r_epik_Ionization_Penalty>
  0.0000

> <r_epik_Ionization_Penalty_Charging>
  0.0000

> <r_epik_Ionization_Penalty_Neutral>
  0.0000

> <r_epik_State_Penalty>
 -0.0000

> <r_epik_Charging_Adjusted_Penalty>
4.02418348623474e-07

> <i_epik_Tot_Q>
0

> <i_epik_Tot_abs_Q>
4

$$$$
