1dm2_ligand
                    3D
 Schrodinger Suite 2020-3.
 28 30  0  0  1  0            999 V2000
   23.1200   26.8710   28.1360 Br  0  0  0  0  0  0
   25.1840   31.3200   30.2860 O   0  0  0  0  0  0
   30.5370   29.9590   25.4670 O   0  0  0  0  0  0
   24.5420   29.1570   28.7920 N   0  0  0  0  0  0
   26.7440   32.0690   28.7860 N   0  0  0  0  0  0
   29.8580   28.1070   24.2840 N   0  0  0  0  0  0
   27.9500   27.6500   25.3760 N   0  0  0  0  0  0
   28.5480   26.2710   23.6020 N   0  0  0  0  0  0
   24.5650   28.0270   28.0820 C   0  0  0  0  0  0
   25.7290   27.9080   27.3810 C   0  0  0  0  0  0
   26.4900   29.0720   27.6720 C   0  0  0  0  0  0
   25.6920   29.8330   28.5810 C   0  0  3  0  0  0
   25.8600   31.1210   29.2680 C   0  0  0  0  0  0
   27.6150   31.9880   27.6010 C   0  0  0  0  0  0
   28.5210   30.7700   27.6000 C   0  0  0  0  0  0
   27.8380   29.5180   27.0570 C   0  0  2  0  0  0
   28.4320   28.8050   26.0100 C   0  0  0  0  0  0
   29.7250   29.0460   25.2510 C   0  0  0  0  0  0
   28.7890   27.3080   24.3810 C   0  0  0  0  0  0
   26.7494   32.9736   29.4118 H   0  0  0  0  0  0
   29.2507   26.0136   22.7958 H   0  0  0  0  0  0
   27.6443   25.6637   23.7586 H   0  0  0  0  0  0
   26.1323   27.1429   26.7013 H   0  0  0  0  0  0
   26.9956   31.9393   26.6933 H   0  0  0  0  0  0
   28.2592   32.8786   27.5579 H   0  0  0  0  0  0
   29.4018   30.9687   26.9717 H   0  0  0  0  0  0
   28.8456   30.5536   28.6285 H   0  0  0  0  0  0
   27.2989   30.1316   26.3203 H   0  0  0  0  0  0
  1  9  1  0  0  0
  2 13  2  0  0  0
  3 18  2  0  0  0
  4  9  2  0  0  0
  4 12  1  0  0  0
  5 13  1  0  0  0
  5 14  1  0  0  0
  5 20  1  0  0  0
  6 18  1  0  0  0
  6 19  2  0  0  0
  7 17  2  0  0  0
  7 19  1  0  0  0
  8 19  1  0  0  0
  8 21  1  0  0  0
  8 22  1  0  0  0
  9 10  1  0  0  0
 10 11  2  0  0  0
 10 23  1  0  0  0
 11 16  1  0  0  0
 11 12  1  0  0  0
 12 13  1  0  0  0
 14 15  1  0  0  0
 14 24  1  0  0  0
 14 25  1  0  0  0
 15 16  1  0  0  0
 15 26  1  0  0  0
 15 27  1  0  0  0
 16 17  1  0  0  0
 16 28  1  0  0  0
 17 18  1  0  0  0
M  END
> <s_m_source_file>
../1dm2_ligand.sdf

> <i_m_source_file_index>
1

> <s_epik_input>
QnJDKFtDSF09MSk9TltDSF0oQzEyKUMoPU8pW05IXVtDSDJdW0NIMl1bQ0BASF0yQzM9TkMoW05IMl0pPU5DMz1P

> <s_epik_cmdline>
J2VwaWtfYXBwJywgJy1pbWFlJywgJ2xpZ2FuZF9wcm8ubWFlJywgJy1vbWFlJywgJ2xpZ2FuZF9wcmVwLm1hZScsICctbXMnLCAnMScsICctcGgnLCAnNycsICctcGh0JywgJzAuNScsICctbnQn

> <r_epik_Ionization_Penalty>
  0.2786

> <r_epik_Ionization_Penalty_Charging>
  0.0000

> <r_epik_Ionization_Penalty_Neutral>
  0.2786

> <r_epik_State_Penalty>
  0.2688

> <r_epik_Charging_Adjusted_Penalty>
0.268806334109889

> <i_epik_Tot_Q>
0

> <i_epik_Tot_abs_Q>
0

> <s_epik_Chemistry_Notes>
This compound has an imine and may undergo hydrolysis.

$$$$
