1dmb_ligand
                    3D
 Schrodinger Suite 2020-3.
147154  0  0  1  0            999 V2000
  -10.6950   -3.0480    2.0180 C   0  0  2  0  0  0
   -9.8220   -2.5570    0.8350 C   0  0  2  0  0  0
  -10.2920   -3.1690   -0.3840 O   0  0  0  0  0  0
   -8.3470   -2.8400    1.0900 C   0  0  1  0  0  0
   -7.5390   -2.2390    0.0550 O   0  0  0  0  0  0
   -7.9190   -2.2960    2.4400 C   0  0  2  0  0  0
   -6.6110   -2.8200    2.6940 O   0  0  0  0  0  0
   -8.8440   -2.7560    3.5600 C   0  0  2  0  0  0
  -10.2330   -2.4020    3.2040 O   0  0  0  0  0  0
   -8.6060   -2.1230    4.9100 C   0  0  0  0  0  0
   -9.4680   -2.7520    5.8720 O   0  0  0  0  0  0
   -5.6130   -1.9530    3.1330 C   0  0  2  0  0  0
   -4.3330   -2.1330    2.3090 C   0  0  2  0  0  0
   -4.6760   -1.9710    0.9240 O   0  0  0  0  0  0
   -3.6860   -3.4610    2.6470 C   0  0  1  0  0  0
   -2.4550   -3.5710    1.9090 O   0  0  0  0  0  0
   -3.3950   -3.5320    4.1440 C   0  0  2  0  0  0
   -2.8410   -4.8180    4.4360 O   0  0  0  0  0  0
   -4.6860   -3.1070    4.9290 C   0  0  2  0  0  0
   -5.3440   -2.1600    4.5110 O   0  0  0  0  0  0
   -4.5490   -3.3150    6.4150 C   0  0  0  0  0  0
   -5.8830   -3.6210    6.8080 O   0  0  0  0  0  0
   -1.5170   -5.0010    4.8570 C   0  0  2  0  0  0
   -0.9320   -6.2110    4.1280 C   0  0  2  0  0  0
   -1.1370   -6.0340    2.6980 O   0  0  0  0  0  0
   -1.6250   -7.4800    4.5730 C   0  0  1  0  0  0
   -1.0470   -8.6020    3.8750 O   0  0  0  0  0  0
   -1.5530   -7.6420    6.0700 C   0  0  2  0  0  0
   -2.3690   -8.7420    6.4180 O   0  0  0  0  0  0
   -2.1420   -6.4000    6.7420 C   0  0  2  0  0  0
   -1.4930   -5.2340    6.2620 O   0  0  0  0  0  0
   -1.9160   -6.4540    8.2750 C   0  0  0  0  0  0
   -2.0990   -5.2980    8.9830 O   0  0  0  0  0  0
   -1.9640   -9.6470    7.4370 C   0  0  2  0  0  0
   -1.4020  -10.9030    6.6990 C   0  0  2  0  0  0
   -0.2480  -10.5840    5.9470 O   0  0  0  0  0  0
   -2.5190  -11.4120    5.7910 C   0  0  1  0  0  0
   -2.0540  -12.4780    4.9600 O   0  0  0  0  0  0
   -3.6900  -11.8180    6.6560 C   0  0  2  0  0  0
   -4.7810  -12.1550    5.7750 O   0  0  0  0  0  0
   -4.1380  -10.6300    7.5090 C   0  0  2  0  0  0
   -3.0730  -10.0040    8.1990 O   0  0  0  0  0  0
   -5.1020  -11.1490    8.6340 C   0  0  0  0  0  0
   -5.3900  -10.0380    9.4710 O   0  0  0  0  0  0
   -5.4190  -13.4140    5.9450 C   0  0  2  0  0  0
   -5.7070  -13.9940    4.5760 C   0  0  2  0  0  0
   -4.5460  -13.9810    3.7250 O   0  0  0  0  0  0
   -6.8000  -13.1720    3.8860 C   0  0  1  0  0  0
   -7.1710  -13.7860    2.6400 O   0  0  0  0  0  0
   -8.0100  -13.0900    4.7800 C   0  0  2  0  0  0
   -8.9300  -12.1900    4.1140 O   0  0  0  0  0  0
   -7.6650  -12.4980    6.1690 C   0  0  2  0  0  0
   -6.5710  -13.2550    6.7330 O   0  0  0  0  0  0
   -8.8180  -12.6370    7.0860 C   0  0  0  0  0  0
   -8.7060  -11.8450    8.2420 O   0  0  0  0  0  0
  -10.3040  -12.5900    4.0180 C   0  0  2  0  0  0
  -10.7130  -12.4470    2.5990 C   0  0  2  0  0  0
   -9.6330  -12.9430    1.7880 O   0  0  0  0  0  0
  -10.9590  -10.9960    2.1830 C   0  0  1  0  0  0
  -11.7980  -11.0370    0.9790 O   0  0  0  0  0  0
  -11.6080  -10.1620    3.1870 C   0  0  2  0  0  0
  -11.3420   -8.7810    2.7660 O   0  0  0  0  0  0
  -11.0290  -10.3520    4.5810 C   0  0  2  0  0  0
  -11.0920  -11.7660    4.8710 O   0  0  0  0  0  0
  -11.7720   -9.6570    5.7260 C   0  0  0  0  0  0
  -12.3790  -10.5400    6.4270 O   0  0  0  0  0  0
  -12.4610   -8.1300    2.1450 C   0  0  2  0  0  0
  -12.0230   -7.6210    0.7920 C   0  0  2  0  0  0
  -11.2760   -8.6550    0.1070 O   0  0  0  0  0  0
  -11.1320   -6.3900    0.8920 C   0  0  1  0  0  0
  -11.0490   -5.7760   -0.4110 O   0  0  0  0  0  0
  -11.6700   -5.3440    1.8830 C   0  0  2  0  0  0
  -10.5540   -4.4430    2.0510 O   0  0  0  0  0  0
  -11.9100   -6.0450    3.2250 C   0  0  2  0  0  0
  -12.8880   -7.1120    3.0020 O   0  0  0  0  0  0
  -12.5450   -5.1110    4.2550 C   0  0  0  0  0  0
  -11.8470   -5.3380    5.4800 O   0  0  0  0  0  0
  -11.7783   -2.8586    1.9916 H   0  0  0  0  0  0
   -9.9250   -1.4753    0.6641 H   0  0  0  0  0  0
  -11.3408   -3.0461   -0.6923 H   0  0  0  0  0  0
   -8.1656   -3.9240    1.0445 H   0  0  0  0  0  0
   -7.7028   -2.5110   -0.9982 H   0  0  0  0  0  0
   -7.8866   -1.1966    2.4227 H   0  0  0  0  0  0
   -8.6749   -3.8388    3.6543 H   0  0  0  0  0  0
   -7.5548   -2.2648    5.2012 H   0  0  0  0  0  0
   -8.8294   -1.0473    4.8551 H   0  0  0  0  0  0
   -9.4460   -2.4300    6.9236 H   0  0  0  0  0  0
   -6.0540   -0.9495    3.0410 H   0  0  0  0  0  0
   -3.5690   -1.3611    2.4836 H   0  0  0  0  0  0
   -5.1505   -1.0401    0.5802 H   0  0  0  0  0  0
   -4.3265   -4.3006    2.3388 H   0  0  0  0  0  0
   -2.4682   -3.5400    0.8095 H   0  0  0  0  0  0
   -2.5653   -2.8944    4.4830 H   0  0  0  0  0  0
   -5.6503   -3.5002    4.5746 H   0  0  0  0  0  0
   -3.8477   -4.1405    6.6066 H   0  0  0  0  0  0
   -4.1675   -2.3943    6.8805 H   0  0  0  0  0  0
   -6.1114   -3.8285    7.8638 H   0  0  0  0  0  0
   -0.9823   -4.0588    4.6663 H   0  0  0  0  0  0
    0.1487   -6.2970    4.3145 H   0  0  0  0  0  0
   -0.7064   -5.1617    2.1845 H   0  0  0  0  0  0
   -2.6886   -7.4681    4.2926 H   0  0  0  0  0  0
   -1.0315   -8.6168    2.7752 H   0  0  0  0  0  0
   -0.5258   -7.8534    6.4018 H   0  0  0  0  0  0
   -3.2026   -6.3058    6.4660 H   0  0  0  0  0  0
   -2.6097   -7.1810    8.7225 H   0  0  0  0  0  0
   -0.8800   -6.7601    8.4824 H   0  0  0  0  0  0
   -1.9494   -5.2909   10.0728 H   0  0  0  0  0  0
   -1.2877   -9.1440    8.1439 H   0  0  0  0  0  0
   -1.0180  -11.6826    7.3733 H   0  0  0  0  0  0
    0.6505  -10.2020    6.4538 H   0  0  0  0  0  0
   -2.8400  -10.6599    5.0553 H   0  0  0  0  0  0
   -1.2046  -12.3151    4.2803 H   0  0  0  0  0  0
   -3.4346  -12.6902    7.2757 H   0  0  0  0  0  0
   -4.5282   -9.8617    6.8253 H   0  0  0  0  0  0
   -6.0216  -11.5422    8.1762 H   0  0  0  0  0  0
   -4.6048  -11.9485    9.2029 H   0  0  0  0  0  0
   -6.0543  -10.1610   10.3391 H   0  0  0  0  0  0
   -4.7806  -14.0811    6.5428 H   0  0  0  0  0  0
   -5.9735  -15.0534    4.7048 H   0  0  0  0  0  0
   -3.6343  -14.5154    4.0303 H   0  0  0  0  0  0
   -6.4369  -12.1646    3.6345 H   0  0  0  0  0  0
   -6.4164  -13.9335    1.8533 H   0  0  0  0  0  0
   -8.4590  -14.0869    4.9009 H   0  0  0  0  0  0
   -7.3773  -11.4383    6.1035 H   0  0  0  0  0  0
   -9.7390  -12.3357    6.5653 H   0  0  0  0  0  0
   -8.9054  -13.6849    7.4089 H   0  0  0  0  0  0
   -9.5026  -11.8630    9.0003 H   0  0  0  0  0  0
  -10.4377  -13.6225    4.3730 H   0  0  0  0  0  0
  -11.6263  -13.0436    2.4579 H   0  0  0  0  0  0
   -9.2802  -13.9772    1.9146 H   0  0  0  0  0  0
   -9.9983  -10.4870    2.0159 H   0  0  0  0  0  0
  -11.4756  -11.6198    0.1036 H   0  0  0  0  0  0
  -12.6777  -10.4176    3.2092 H   0  0  0  0  0  0
  -10.0018   -9.9597    4.5506 H   0  0  0  0  0  0
  -11.0508   -9.1155    6.3558 H   0  0  0  0  0  0
  -12.5025   -8.9467    5.3114 H   0  0  0  0  0  0
  -12.9727  -10.2352    7.3014 H   0  0  0  0  0  0
  -13.3271   -8.8014    2.0492 H   0  0  0  0  0  0
  -12.9281   -7.3857    0.2128 H   0  0  0  0  0  0
  -11.7360   -9.6377   -0.0738 H   0  0  0  0  0  0
  -10.1259   -6.7107    1.2000 H   0  0  0  0  0  0
  -10.6846   -6.3574   -1.2708 H   0  0  0  0  0  0
  -12.5703   -4.8053    1.5525 H   0  0  0  0  0  0
  -10.9536   -6.4406    3.5976 H   0  0  0  0  0  0
  -12.4333   -4.0684    3.9226 H   0  0  0  0  0  0
  -13.6137   -5.3506    4.3576 H   0  0  0  0  0  0
  -12.1248   -4.7757    6.3837 H   0  0  0  0  0  0
  1  2  1  0  0  0
  1  9  1  0  0  0
  1 73  1  0  0  0
  1 78  1  0  0  0
  2  3  1  0  0  0
  2  4  1  0  0  0
  2 79  1  0  0  0
  3 80  1  0  0  0
  4  5  1  0  0  0
  4  6  1  0  0  0
  4 81  1  0  0  0
  5 82  1  0  0  0
  6  7  1  0  0  0
  6  8  1  0  0  0
  6 83  1  0  0  0
  7 12  1  0  0  0
  8  9  1  0  0  0
  8 10  1  0  0  0
  8 84  1  0  0  0
 10 11  1  0  0  0
 10 85  1  0  0  0
 10 86  1  0  0  0
 11 87  1  0  0  0
 12 13  1  0  0  0
 12 20  1  0  0  0
 12 88  1  0  0  0
 13 14  1  0  0  0
 13 15  1  0  0  0
 13 89  1  0  0  0
 14 90  1  0  0  0
 15 16  1  0  0  0
 15 17  1  0  0  0
 15 91  1  0  0  0
 16 92  1  0  0  0
 17 18  1  0  0  0
 17 19  1  0  0  0
 17 93  1  0  0  0
 18 23  1  0  0  0
 19 20  1  0  0  0
 19 21  1  0  0  0
 19 94  1  0  0  0
 21 22  1  0  0  0
 21 95  1  0  0  0
 21 96  1  0  0  0
 22 97  1  0  0  0
 23 24  1  0  0  0
 23 31  1  0  0  0
 23 98  1  0  0  0
 24 25  1  0  0  0
 24 26  1  0  0  0
 24 99  1  0  0  0
 25100  1  0  0  0
 26 27  1  0  0  0
 26 28  1  0  0  0
 26101  1  0  0  0
 27102  1  0  0  0
 28 29  1  0  0  0
 28 30  1  0  0  0
 28103  1  0  0  0
 29 34  1  0  0  0
 30 31  1  0  0  0
 30 32  1  0  0  0
 30104  1  0  0  0
 32 33  1  0  0  0
 32105  1  0  0  0
 32106  1  0  0  0
 33107  1  0  0  0
 34 35  1  0  0  0
 34 42  1  0  0  0
 34108  1  0  0  0
 35 36  1  0  0  0
 35 37  1  0  0  0
 35109  1  0  0  0
 36110  1  0  0  0
 37 38  1  0  0  0
 37 39  1  0  0  0
 37111  1  0  0  0
 38112  1  0  0  0
 39 40  1  0  0  0
 39 41  1  0  0  0
 39113  1  0  0  0
 40 45  1  0  0  0
 41 42  1  0  0  0
 41 43  1  0  0  0
 41114  1  0  0  0
 43 44  1  0  0  0
 43115  1  0  0  0
 43116  1  0  0  0
 44117  1  0  0  0
 45 46  1  0  0  0
 45 53  1  0  0  0
 45118  1  0  0  0
 46 47  1  0  0  0
 46 48  1  0  0  0
 46119  1  0  0  0
 47120  1  0  0  0
 48 49  1  0  0  0
 48 50  1  0  0  0
 48121  1  0  0  0
 49122  1  0  0  0
 50 51  1  0  0  0
 50 52  1  0  0  0
 50123  1  0  0  0
 51 56  1  0  0  0
 52 53  1  0  0  0
 52 54  1  0  0  0
 52124  1  0  0  0
 54 55  1  0  0  0
 54125  1  0  0  0
 54126  1  0  0  0
 55127  1  0  0  0
 56 57  1  0  0  0
 56 64  1  0  0  0
 56128  1  0  0  0
 57 58  1  0  0  0
 57 59  1  0  0  0
 57129  1  0  0  0
 58130  1  0  0  0
 59 60  1  0  0  0
 59 61  1  0  0  0
 59131  1  0  0  0
 60132  1  0  0  0
 61 62  1  0  0  0
 61 63  1  0  0  0
 61133  1  0  0  0
 62 67  1  0  0  0
 63 64  1  0  0  0
 63 65  1  0  0  0
 63134  1  0  0  0
 65 66  1  0  0  0
 65135  1  0  0  0
 65136  1  0  0  0
 66137  1  0  0  0
 67 68  1  0  0  0
 67 75  1  0  0  0
 67138  1  0  0  0
 68 69  1  0  0  0
 68 70  1  0  0  0
 68139  1  0  0  0
 69140  1  0  0  0
 70 71  1  0  0  0
 70 72  1  0  0  0
 70141  1  0  0  0
 71142  1  0  0  0
 72 73  1  0  0  0
 72 74  1  0  0  0
 72143  1  0  0  0
 74 75  1  0  0  0
 74 76  1  0  0  0
 74144  1  0  0  0
 76 77  1  0  0  0
 76145  1  0  0  0
 76146  1  0  0  0
 77147  1  0  0  0
M  END
> <s_m_source_file>
../1dmb_ligand.sdf

> <i_m_source_file_index>
1

> <s_epik_input>
W0NAQEhdMTJbQ0BIXShbT0hdKVtDQEBIXShbT0hdKVtDQEBIXShbQ0BIXShPMSlbQ0gyXVtPSF0pT1tDQEBIXTNbQ0BIXShbT0hdKVtDQEBIXShbT0hdKVtDQEBIXShbQ0BIXShPMylbQ0gyXVtPSF0pT1tDQEBIXTRbQ0BIXShbT0hdKVtDQEBIXShbT0hdKVtDQEBIXShbQ0BIXShPNClbQ0gyXVtPSF0pT1tDQEBIXTVbQ0BIXShbT0hdKVtDQEBIXShbT0hdKVtDQEBIXShbQ0BIXShPNSlbQ0gyXVtPSF0pT1tDQEBIXTZbQ0BIXShbT0hdKVtDQEBIXShbT0hdKVtDQEBIXShbQ0BIXShPNilbQ0gyXVtPSF0pT1tDQEBIXTdbQ0BIXShbT0hdKVtDQEBIXShbT0hdKVtDQEBIXShbQ0BIXShPNylbQ0gyXVtPSF0pT1tDQEBIXThbQ0BIXShbT0hdKVtDQEBIXShbT0hdKVtDQEhdKE8yKVtDQEhdKE84KVtDSDJdW09IXQ==

> <s_epik_cmdline>
J2VwaWtfYXBwJywgJy1pbWFlJywgJ2xpZ2FuZF9wcm8ubWFlJywgJy1vbWFlJywgJ2xpZ2FuZF9wcmVwLm1hZScsICctbXMnLCAnMScsICctcGgnLCAnNycsICctcGh0JywgJzAuNScsICctbnQn

> <r_lp_tautomer_probability>
1

> <r_epik_Ionization_Penalty>
  0.0000

> <r_epik_Ionization_Penalty_Charging>
  0.0000

> <r_epik_Ionization_Penalty_Neutral>
  0.0000

> <r_epik_State_Penalty>
 -0.0000

> <r_epik_Charging_Adjusted_Penalty>
0

> <i_epik_Tot_Q>
0

> <i_epik_Tot_abs_Q>
0

> <s_epik_Chemistry_Notes>
This compound contains an acetal/aminal-like group ( X-CH(R)-Y where X, Y are N, S, or O) that may be acid/base labile, releasing an aldehyde.

$$$$
