1dmt_ligand
                    3D
 Schrodinger Suite 2020-3.
 69 71  0  0  1  0            999 V2000
   27.2160   41.1930   31.6090 C   0  0  1  0  0  0
   27.6230   42.2720   30.8190 O   0  0  0  0  0  0
   25.6860   41.0020   31.4970 C   0  0  2  0  0  0
   25.2390   40.0860   32.4720 O   0  0  0  0  0  0
   25.2940   40.5440   30.0730 C   0  0  2  0  0  0
   23.8550   40.4130   29.9470 O   0  0  0  0  0  0
   26.0640   39.2580   29.7010 C   0  0  1  0  0  0
   25.8560   39.0050   28.2870 O   0  0  0  0  0  0
   27.5530   39.5560   29.9040 C   0  0  1  0  0  0
   27.8650   39.9810   31.2330 O   0  0  0  0  0  0
   28.4170   38.3850   29.5120 C   0  0  0  0  0  0
   28.9340   43.1570   30.9510 P   0  0  1  0  0  0
   30.1380   42.2750   31.0820 O   0  5  0  0  0  0
   28.9360   44.1080   29.8520 O   0  0  0  0  0  0
   28.8020   44.0060   32.4090 N   0  0  1  0  0  0
   29.9980   44.4090   33.2370 C   0  0  2  0  0  0
   30.3850   43.2660   34.1440 C   0  0  0  0  0  0
   31.5050   42.8940   34.4160 O   0  0  0  0  0  0
   29.5690   45.5800   34.1480 C   0  0  0  0  0  0
   30.6210   46.0240   35.1710 C   0  0  0  0  0  0
   29.9540   47.1450   35.9840 C   0  0  0  0  0  0
   31.9080   46.5460   34.4720 C   0  0  0  0  0  0
   29.2680   42.5490   34.7520 N   0  0  0  0  0  0
   29.6610   41.4190   35.6340 C   0  0  2  0  0  0
   28.5050   40.3730   35.6370 C   0  0  0  0  0  0
   27.4540   40.5900   34.9740 O   0  5  0  0  0  0
   29.9190   41.9820   37.0740 C   0  0  0  0  0  0
   28.5810   42.2780   37.7480 C   0  0  0  0  0  0
   27.6540   43.1960   37.3360 C   0  0  0  0  0  0
   28.0300   41.6250   38.9100 C   0  0  0  0  0  0
   26.5520   43.1560   38.1730 N   0  3  0  0  0  0
   26.7560   42.1880   39.1630 C   0  0  0  0  0  0
   28.5160   40.5890   39.7790 C   0  0  0  0  0  0
   25.9040   41.7870   40.2420 C   0  0  0  0  0  0
   27.7090   40.1730   40.8470 C   0  0  0  0  0  0
   26.3990   40.7710   41.0780 C   0  0  0  0  0  0
   28.6820   39.3600   36.3090 O   0  0  0  0  0  0
   27.5881   41.4474   32.6124 H   0  0  0  0  0  0
   25.1473   41.9243   31.7597 H   0  0  0  0  0  0
   25.4419   40.2734   33.5368 H   0  0  0  0  0  0
   25.5178   41.3188   29.3249 H   0  0  0  0  0  0
   23.2021   41.2656   30.1854 H   0  0  0  0  0  0
   25.7242   38.3730   30.2589 H   0  0  0  0  0  0
   24.8492   38.7674   27.9131 H   0  0  0  0  0  0
   27.8150   40.4300   29.2896 H   0  0  0  0  0  0
   28.1654   38.0701   28.4885 H   0  0  0  0  0  0
   28.2403   37.5503   30.2063 H   0  0  0  0  0  0
   29.4758   38.6800   29.5551 H   0  0  0  0  0  0
   28.3056   44.9708   32.2278 H   0  0  0  0  0  0
   30.8340   44.6622   32.5685 H   0  0  0  0  0  0
   29.3395   46.4604   33.5298 H   0  0  0  0  0  0
   28.6753   45.2909   34.7204 H   0  0  0  0  0  0
   30.9246   45.1815   35.8097 H   0  0  0  0  0  0
   29.0470   46.7558   36.4697 H   0  0  0  0  0  0
   29.6838   47.9736   35.3129 H   0  0  0  0  0  0
   30.6539   47.5078   36.7512 H   0  0  0  0  0  0
   32.3694   45.7299   33.8965 H   0  0  0  0  0  0
   32.6176   46.9057   35.2316 H   0  0  0  0  0  0
   31.6475   47.3716   33.7934 H   0  0  0  0  0  0
   28.2042   42.7855   34.6021 H   0  0  0  0  0  0
   30.5777   40.9596   35.2357 H   0  0  0  0  0  0
   30.4721   41.2373   37.6652 H   0  0  0  0  0  0
   30.5093   42.9076   37.0055 H   0  0  0  0  0  0
   27.8553   43.8238   36.4554 H   0  0  0  0  0  0
   29.4929   40.1356   39.6111 H   0  0  0  0  0  0
   24.9278   42.2434   40.4056 H   0  0  0  0  0  0
   28.0663   39.3899   41.5157 H   0  0  0  0  0  0
   25.7925   40.4237   41.9144 H   0  0  0  0  0  0
   25.7005   43.8288   37.9937 H   0  0  0  0  0  0
  1  2  1  0  0  0
  1  3  1  0  0  0
  1 10  1  0  0  0
  1 38  1  0  0  0
  2 12  1  0  0  0
  3  4  1  0  0  0
  3  5  1  0  0  0
  3 39  1  0  0  0
  4 40  1  0  0  0
  5  6  1  0  0  0
  5  7  1  0  0  0
  5 41  1  0  0  0
  6 42  1  0  0  0
  7  8  1  0  0  0
  7  9  1  0  0  0
  7 43  1  0  0  0
  8 44  1  0  0  0
  9 10  1  0  0  0
  9 11  1  0  0  0
  9 45  1  0  0  0
 11 46  1  0  0  0
 11 47  1  0  0  0
 11 48  1  0  0  0
 12 13  1  0  0  0
 12 14  2  0  0  0
 12 15  1  0  0  0
 15 16  1  0  0  0
 15 49  1  0  0  0
 16 17  1  0  0  0
 16 19  1  0  0  0
 16 50  1  0  0  0
 17 18  2  0  0  0
 17 23  1  0  0  0
 19 20  1  0  0  0
 19 51  1  0  0  0
 19 52  1  0  0  0
 20 21  1  0  0  0
 20 22  1  0  0  0
 20 53  1  0  0  0
 21 54  1  0  0  0
 21 55  1  0  0  0
 21 56  1  0  0  0
 22 57  1  0  0  0
 22 58  1  0  0  0
 22 59  1  0  0  0
 23 24  1  0  0  0
 23 60  1  0  0  0
 24 25  1  0  0  0
 24 27  1  0  0  0
 24 61  1  0  0  0
 25 26  1  0  0  0
 25 37  2  0  0  0
 27 28  1  0  0  0
 27 62  1  0  0  0
 27 63  1  0  0  0
 28 29  2  0  0  0
 28 30  1  0  0  0
 29 31  1  0  0  0
 29 64  1  0  0  0
 30 32  2  0  0  0
 30 33  1  0  0  0
 31 32  1  0  0  0
 31 69  1  0  0  0
 32 34  1  0  0  0
 33 35  2  0  0  0
 33 65  1  0  0  0
 34 36  2  0  0  0
 34 66  1  0  0  0
 35 36  1  0  0  0
 35 67  1  0  0  0
 36 68  1  0  0  0
M  CHG  3  13  -1  26  -1  31   1
M  END
> <s_m_source_file>
../1dmt_ligand.sdf

> <i_m_source_file_index>
1

> <s_epik_input>
TzFbQ0BASF0oW0NIM10pW0NASF0oW09IXSlbQ0BASF0oW09IXSlbQ0BASF0oW09IXSlbQ0BASF0xT1tQQF0oPU8pKFtPSF0pW05IXVtDQEBIXShbQ0gyXVtDSF0oW0NIM10pW0NIM10pQyg9TylbTkhdW0NASF0oQyg9TylbT0hdKVtDSDJdYzJbY0hdW25IXWMoYzIzKVtjSF1bY0hdW2NIXVtjSF0z

> <s_epik_cmdline>
J2VwaWtfYXBwJywgJy1pbWFlJywgJ2xpZ2FuZF9wcm8ubWFlJywgJy1vbWFlJywgJ2xpZ2FuZF9wcmVwLm1hZScsICctbXMnLCAnMScsICctcGgnLCAnNycsICctcGh0JywgJzAuNScsICctbnQn

> <r_lp_tautomer_probability>
1

> <r_epik_Ionization_Penalty>
  0.0002

> <r_epik_Ionization_Penalty_Charging>
  0.0002

> <r_epik_Ionization_Penalty_Neutral>
  0.0000

> <r_epik_State_Penalty>
 -0.0000

> <r_epik_Charging_Adjusted_Penalty>
0.000165774631056018

> <i_epik_Tot_Q>
-1

> <i_epik_Tot_abs_Q>
3

> <s_epik_Chemistry_Notes>
This compound contains an acetal/aminal-like group ( X-CH(R)-Y where X, Y are N, S, or O) that may be acid/base labile, releasing an aldehyde.

$$$$
