1doj_ligand
                    3D
 Schrodinger Suite 2020-3.
 80 83  0  0  1  0            999 V2000
    9.2080   25.9000   -9.8540 C   0  0  0  0  0  0
    9.8060   25.3970   -8.5820 N   0  3  0  0  0  0
   10.9020   26.3160   -8.1460 C   0  0  1  0  0  0
   11.4970   25.8040   -6.8370 C   0  0  0  0  0  0
   11.8400   24.6260   -6.7230 O   0  0  0  0  0  0
   11.9810   26.3700   -9.2310 C   0  0  0  0  0  0
   12.9500   27.5190   -9.0370 C   0  0  0  0  0  0
   12.4810   28.8260   -9.0200 C   0  0  0  0  0  0
   14.3040   27.2650   -8.8800 C   0  0  0  0  0  0
   13.3790   29.8780   -8.8450 C   0  0  0  0  0  0
   15.1900   28.3250   -8.7050 C   0  0  0  0  0  0
   14.7260   29.6280   -8.6880 C   0  0  0  0  0  0
   11.6410   26.6880   -5.8340 N   0  0  0  0  0  0
   12.1980   26.2640   -4.5430 C   0  0  2  0  0  0
   11.3190   25.1920   -3.9100 C   0  0  0  0  0  0
   10.0970   25.2250   -4.0440 O   0  0  0  0  0  0
   12.2130   27.5460   -3.7080 C   0  0  0  0  0  0
   12.1150   28.6570   -4.6980 C   0  0  0  0  0  0
   11.3150   28.1250   -5.8470 C   0  0  0  0  0  0
   11.9440   24.2430   -3.2240 N   0  0  0  0  0  0
   11.2070   23.1720   -2.5740 C   0  0  1  0  0  0
   11.7770   21.8170   -2.9930 C   0  0  0  0  0  0
   11.3090   21.4110   -4.3760 C   0  0  0  0  0  0
   12.1300   20.2820   -4.9720 C   0  0  0  0  0  0
   11.4600   19.7380   -6.1480 N   0  0  0  0  0  0
   11.7870   18.5980   -6.7450 C   0  0  0  0  0  0
   12.7890   17.8600   -6.2820 N   0  0  0  0  0  0
   11.1010   18.1940   -7.8010 N   0  3  0  0  0  0
   11.0870   25.6900   -0.1830 N   0  0  0  0  0  0
    8.7900   24.6430   -0.6100 S   0  0  0  0  0  0
   10.4860   24.5400   -0.6150 C   0  0  0  0  0  0
   10.2150   26.6720    0.1570 C   0  0  0  0  0  0
    8.8440   26.2860   -0.0110 C   0  0  0  0  0  0
    7.8240   27.1730    0.2940 C   0  0  0  0  0  0
    8.1250   28.4420    0.7640 C   0  0  0  0  0  0
    9.4520   28.8430    0.9360 C   0  0  0  0  0  0
   10.4900   27.9550    0.6300 C   0  0  0  0  0  0
    7.0990   29.2950    1.1230 C   0  0  0  0  0  0
    7.3430   30.2350    1.9090 O   0  5  0  0  0  0
    5.9420   29.0480    0.7230 O   0  0  0  0  0  0
   10.5460   22.2290   -0.4730 O   0  0  0  0  0  0
   11.2510   23.3080   -1.0710 C   0  0  1  0  0  0
    8.4021   25.2228  -10.1732 H   0  0  0  0  0  0
    9.9835   25.9399  -10.6331 H   0  0  0  0  0  0
    8.7978   26.9079   -9.6929 H   0  0  0  0  0  0
    9.0305   25.3571   -7.8029 H   0  0  0  0  0  0
   10.2162   24.3891   -8.7430 H   0  0  0  0  0  0
   10.4805   27.3202   -7.9914 H   0  0  0  0  0  0
   12.5607   25.4352   -9.2185 H   0  0  0  0  0  0
   11.5055   26.4934  -10.2152 H   0  0  0  0  0  0
   11.4170   29.0282   -9.1428 H   0  0  0  0  0  0
   14.6735   26.2396   -8.8935 H   0  0  0  0  0  0
   13.0139   30.9050   -8.8322 H   0  0  0  0  0  0
   16.2546   28.1269   -8.5808 H   0  0  0  0  0  0
   15.4230   30.4547   -8.5509 H   0  0  0  0  0  0
   13.1961   25.8187   -4.6673 H   0  0  0  0  0  0
   11.3574   27.5433   -3.0167 H   0  0  0  0  0  0
   13.1491   27.5980   -3.1327 H   0  0  0  0  0  0
   11.6142   29.5191   -4.2333 H   0  0  0  0  0  0
   13.1247   28.9501   -5.0215 H   0  0  0  0  0  0
   11.6157   28.5605   -6.8113 H   0  0  0  0  0  0
   10.2319   28.2566   -5.7071 H   0  0  0  0  0  0
   13.0411   24.2777   -3.1527 H   0  0  0  0  0  0
   10.1654   23.2861   -2.9086 H   0  0  0  0  0  0
   12.8758   21.8685   -3.0023 H   0  0  0  0  0  0
   11.4521   21.0459   -2.2790 H   0  0  0  0  0  0
   10.2635   21.0729   -4.3247 H   0  0  0  0  0  0
   11.3827   22.2727   -5.0557 H   0  0  0  0  0  0
   13.1192   20.6633   -5.2655 H   0  0  0  0  0  0
   12.2517   19.4834   -4.2254 H   0  0  0  0  0  0
   10.6187   20.2818   -6.6025 H   0  0  0  0  0  0
   13.3595   18.1961   -5.4036 H   0  0  0  0  0  0
   13.0486   16.9125   -6.7768 H   0  0  0  0  0  0
   10.2709   18.8055   -8.1845 H   0  0  0  0  0  0
    6.7842   26.8727    0.1643 H   0  0  0  0  0  0
    9.6782   29.8427    1.3068 H   0  0  0  0  0  0
   11.5250   28.2698    0.7629 H   0  0  0  0  0  0
   10.8835   21.1946   -0.6347 H   0  0  0  0  0  0
   12.3055   23.2962   -0.7583 H   0  0  0  0  0  0
   11.3605   17.2465   -8.2959 H   0  0  0  0  0  0
  1  2  1  0  0  0
  1 43  1  0  0  0
  1 44  1  0  0  0
  1 45  1  0  0  0
  2  3  1  0  0  0
  2 46  1  0  0  0
  2 47  1  0  0  0
  3  4  1  0  0  0
  3  6  1  0  0  0
  3 48  1  0  0  0
  4  5  2  0  0  0
  4 13  1  0  0  0
  6  7  1  0  0  0
  6 49  1  0  0  0
  6 50  1  0  0  0
  7  8  2  0  0  0
  7  9  1  0  0  0
  8 10  1  0  0  0
  8 51  1  0  0  0
  9 11  2  0  0  0
  9 52  1  0  0  0
 10 12  2  0  0  0
 10 53  1  0  0  0
 11 12  1  0  0  0
 11 54  1  0  0  0
 12 55  1  0  0  0
 13 14  1  0  0  0
 13 19  1  0  0  0
 14 15  1  0  0  0
 14 17  1  0  0  0
 14 56  1  0  0  0
 15 16  2  0  0  0
 15 20  1  0  0  0
 17 18  1  0  0  0
 17 57  1  0  0  0
 17 58  1  0  0  0
 18 19  1  0  0  0
 18 59  1  0  0  0
 18 60  1  0  0  0
 19 61  1  0  0  0
 19 62  1  0  0  0
 20 21  1  0  0  0
 20 63  1  0  0  0
 21 22  1  0  0  0
 21 42  1  0  0  0
 21 64  1  0  0  0
 22 23  1  0  0  0
 22 65  1  0  0  0
 22 66  1  0  0  0
 23 24  1  0  0  0
 23 67  1  0  0  0
 23 68  1  0  0  0
 24 25  1  0  0  0
 24 69  1  0  0  0
 24 70  1  0  0  0
 25 26  1  0  0  0
 25 71  1  0  0  0
 26 27  1  0  0  0
 26 28  2  0  0  0
 27 72  1  0  0  0
 27 73  1  0  0  0
 28 74  1  0  0  0
 28 80  1  0  0  0
 29 31  2  0  0  0
 29 32  1  0  0  0
 30 31  1  0  0  0
 30 33  1  0  0  0
 31 42  1  0  0  0
 32 33  2  0  0  0
 32 37  1  0  0  0
 33 34  1  0  0  0
 34 35  2  0  0  0
 34 75  1  0  0  0
 35 36  1  0  0  0
 35 38  1  0  0  0
 36 37  2  0  0  0
 36 76  1  0  0  0
 37 77  1  0  0  0
 38 39  1  0  0  0
 38 40  2  0  0  0
 41 42  1  0  0  0
 41 78  1  0  0  0
 42 79  1  0  0  0
M  CHG  3   2   1  28   1  39  -1
M  END
> <s_m_source_file>
../1doj_ligand.sdf

> <i_m_source_file_index>
1

> <s_epik_input>
W2NIXTFbY0hdW2NIXVtjSF1bY0hdYzFbQ0gyXVtDQEBIXShbTkgyK11bQ0gzXSlDKD1PKU4yW0NAQEhdKFtDSDJdW0NIMl1bQ0gyXTIpQyg9TylbTkhdW0NAQEhdKFtDSDJdW0NIMl1bQ0gyXVtOSF0vQyhbTkgyXSk9TlxbSF0pW0NASF0oW09IXSljKG4zKXNjKGMzNClbY0hdYyhbY0hdW2NIXTQpQyg9TylbT0hd

> <s_epik_cmdline>
J2VwaWtfYXBwJywgJy1pbWFlJywgJ2xpZ2FuZF9wcm8ubWFlJywgJy1vbWFlJywgJ2xpZ2FuZF9wcmVwLm1hZScsICctbXMnLCAnMScsICctcGgnLCAnNycsICctcGh0JywgJzAuNScsICctbnQn

> <r_epik_Ionization_Penalty>
  0.1254

> <r_epik_Ionization_Penalty_Charging>
  0.1254

> <r_epik_Ionization_Penalty_Neutral>
  0.0000

> <r_epik_State_Penalty>
  0.1146

> <r_epik_Charging_Adjusted_Penalty>
0.240014835672543

> <i_epik_Tot_Q>
1

> <i_epik_Tot_abs_Q>
3

> <s_epik_Chemistry_Notes>
This compound has an imine and may undergo hydrolysis.

$$$$
