1dpu_ligand
                    3D
 Schrodinger Suite 2020-3.
275274  0  0  1  0            999 V2000
   -7.8430  -13.0140  -16.8670 N   0  3  0  0  0  0
   -7.6870  -11.9800  -15.8260 C   0  0  2  0  0  0
   -6.6010  -10.9820  -16.2380 C   0  0  0  0  0  0
   -6.9060   -9.8780  -16.6870 O   0  0  0  0  0  0
   -7.4130  -12.5930  -14.4430 C   0  0  0  0  0  0
   -8.5400  -13.5360  -13.9980 C   0  0  0  0  0  0
   -8.2970  -14.0420  -12.5710 C   0  0  0  0  0  0
   -8.3440  -12.9470  -11.5920 N   0  0  0  0  0  0
   -9.4560  -12.3970  -11.0840 C   0  0  0  0  0  0
  -10.6660  -12.8390  -11.4420 N   0  0  0  0  0  0
   -9.3350  -11.3910  -10.2140 N   0  0  0  0  0  0
   -5.3340  -11.3870  -16.1320 N   0  0  0  0  0  0
   -4.2190  -10.6220  -16.6660 C   0  0  2  0  0  0
   -4.2920  -10.6890  -18.1920 C   0  0  0  0  0  0
   -4.3970  -11.7740  -18.7590 O   0  0  0  0  0  0
   -2.8940  -11.1920  -16.1250 C   0  0  2  0  0  0
   -2.7570  -10.9140  -14.6160 C   0  0  0  0  0  0
   -1.6760  -10.6020  -16.8540 C   0  0  0  0  0  0
   -2.0540  -12.0710  -13.9030 C   0  0  0  0  0  0
   -4.2410   -9.5310  -18.8480 N   0  0  0  0  0  0
   -4.1080   -9.4090  -20.2890 C   0  0  2  0  0  0
   -3.3260   -8.1210  -20.5830 C   0  0  0  0  0  0
   -2.1860   -7.9980  -20.1370 O   0  0  0  0  0  0
   -5.4670   -9.5860  -21.0060 C   0  0  0  0  0  0
   -6.7150   -9.2060  -20.1900 C   0  0  0  0  0  0
   -6.6690   -7.7790  -19.6610 C   0  0  0  0  0  0
   -6.4990   -6.8410  -20.4330 O   0  0  0  0  0  0
   -6.7910   -7.5990  -18.3510 N   0  0  0  0  0  0
   -3.9000   -7.1360  -21.2780 N   0  0  0  0  0  0
   -3.1890   -5.9240  -21.6770 C   0  0  2  0  0  0
   -3.1620   -4.9040  -20.5300 C   0  0  0  0  0  0
   -3.4650   -3.7270  -20.7130 O   0  0  0  0  0  0
   -3.7840   -5.3800  -22.9870 C   0  0  0  0  0  0
   -5.2800   -5.0330  -22.9120 C   0  0  0  0  0  0
   -5.7330   -4.3410  -24.2030 C   0  0  0  0  0  0
   -7.1520   -3.9630  -24.1370 N   0  0  0  0  0  0
   -8.1890   -4.7940  -24.3190 C   0  0  0  0  0  0
   -7.9850   -6.0910  -24.5730 N   0  0  0  0  0  0
   -9.4360   -4.3160  -24.2450 N   0  0  0  0  0  0
   -2.7710   -5.3570  -19.3360 N   0  0  0  0  0  0
   -2.8830   -4.6030  -18.0910 C   0  0  2  0  0  0
   -2.1910   -3.2420  -18.1860 C   0  0  0  0  0  0
   -2.7740   -2.2170  -17.8310 O   0  0  0  0  0  0
   -2.3370   -5.4260  -16.9150 C   0  0  0  0  0  0
   -3.1800   -6.6540  -16.5770 C   0  0  0  0  0  0
   -3.9740   -7.1240  -17.3860 O   0  0  0  0  0  0
   -3.0160   -7.1930  -15.3760 N   0  0  0  0  0  0
   -0.9510   -3.2190  -18.6820 N   0  0  0  0  0  0
   -0.2210   -1.9700  -18.8430 C   0  0  2  0  0  0
   -0.9840   -1.0180  -19.7690 C   0  0  0  0  0  0
   -1.1370    0.1610  -19.4560 O   0  0  0  0  0  0
    1.1990   -2.2360  -19.3620 C   0  0  0  0  0  0
    2.0150   -0.9390  -19.3260 C   0  0  0  0  0  0
    3.4890   -1.1870  -19.6560 C   0  0  0  0  0  0
    4.2150    0.1300  -19.9570 C   0  0  0  0  0  0
    4.1080    1.0890  -18.8440 N   0  3  0  0  0  0
   -1.4630   -1.5240  -20.9090 N   0  0  0  0  0  0
   -2.1960   -0.7140  -21.8710 C   0  0  2  0  0  0
   -3.4650   -0.1600  -21.2300 C   0  0  0  0  0  0
   -3.7660    1.0200  -21.3820 O   0  0  0  0  0  0
   -2.5210   -1.5240  -23.1260 C   0  0  0  0  0  0
   -4.1960   -0.9990  -20.4900 N   0  0  0  0  0  0
   -5.3640   -0.5630  -19.7390 C   0  0  2  0  0  0
   -4.9900    0.5890  -18.8020 C   0  0  0  0  0  0
   -5.6530    1.6230  -18.8010 O   0  0  0  0  0  0
   -5.9800   -1.7410  -18.9780 C   0  0  0  0  0  0
   -3.9120    0.4350  -18.0280 N   0  0  0  0  0  0
   -3.4440    1.4980  -17.1480 C   0  0  2  0  0  0
   -3.1340    2.7790  -17.9290 C   0  0  0  0  0  0
   -3.6190    3.8500  -17.5720 O   0  0  0  0  0  0
   -2.2440    1.0240  -16.3300 C   0  0  0  0  0  0
   -2.3500    2.6810  -19.0070 N   0  0  0  0  0  0
   -2.0540    3.8360  -19.8490 C   0  0  2  0  0  0
   -3.3450    4.4910  -20.3480 C   0  0  0  0  0  0
   -3.4730    5.7110  -20.3010 O   0  0  0  0  0  0
   -1.1520    3.4460  -21.0310 C   0  0  0  0  0  0
    0.2680    3.0130  -20.6290 C   0  0  0  0  0  0
    1.0040    2.4910  -21.8680 C   0  0  0  0  0  0
    1.0800    4.1600  -20.0130 C   0  0  0  0  0  0
   -4.3110    3.6950  -20.8120 N   0  0  0  0  0  0
   -5.5910    4.1990  -21.2860 C   0  0  2  0  0  0
   -6.3120    4.9540  -20.1670 C   0  0  0  0  0  0
   -6.7170    6.0960  -20.3640 O   0  0  0  0  0  0
   -6.4300    3.0430  -21.8520 C   0  0  0  0  0  0
   -7.8160    3.4700  -22.3650 C   0  0  0  0  0  0
   -7.7240    4.5070  -23.4910 C   0  0  0  0  0  0
   -8.5590    2.2310  -22.8780 C   0  0  0  0  0  0
   -6.4590    4.3360  -18.9910 N   0  0  0  0  0  0
   -7.0640    4.9730  -17.8240 C   0  0  2  0  0  0
   -6.3770    6.3050  -17.5100 C   0  0  0  0  0  0
   -7.0430    7.3120  -17.2760 O   0  0  0  0  0  0
   -6.9640    4.0480  -16.6070 C   0  0  0  0  0  0
   -7.9210    2.8530  -16.6650 C   0  0  0  0  0  0
   -7.6260    1.9610  -15.4560 C   0  0  0  0  0  0
   -8.4610    0.7550  -15.4290 N   0  0  0  0  0  0
   -8.3330   -0.2040  -14.4980 C   0  0  0  0  0  0
   -7.4230   -0.0660  -13.5290 N   0  0  0  0  0  0
   -9.1120   -1.2880  -14.5420 N   0  0  0  0  0  0
   -5.0430    6.3040  -17.4770 N   0  0  0  0  0  0
   -4.2570    7.4930  -17.1860 C   0  0  2  0  0  0
   -4.5300    8.5790  -18.2320 C   0  0  0  0  0  0
   -4.7880    9.7300  -17.8880 O   0  0  0  0  0  0
   -2.7730    7.0990  -17.1290 C   0  0  0  0  0  0
   -1.8090    8.2660  -16.8610 C   0  0  0  0  0  0
   -2.1370    8.9790  -15.5460 C   0  0  0  0  0  0
   -0.3790    7.7160  -16.7970 C   0  0  0  0  0  0
   -4.4600    8.2110  -19.5130 N   0  0  0  0  0  0
   -4.6290    9.1280  -20.6300 C   0  0  2  0  0  0
   -6.0460    9.7020  -20.6810 C   0  0  0  0  0  0
   -6.2230   10.8890  -20.9430 O   0  0  0  0  0  0
   -4.2910    8.4050  -21.9360 C   0  0  0  0  0  0
   -7.0620    8.8640  -20.4570 N   0  0  0  0  0  0
   -8.4680    9.2310  -20.5810 C   0  0  2  0  0  0
   -8.9460   10.0410  -19.3700 C   0  0  0  0  0  0
   -9.9410    9.6930  -18.7370 O   0  0  0  0  0  0
   -9.2990    7.9590  -20.7810 C   0  0  0  0  0  0
   -8.2480   11.1360  -19.0640 N   0  0  0  0  0  0
   -8.5420   12.0550  -17.9750 C   0  0  2  0  0  0
   -8.1970   13.4760  -18.4230 C   0  0  0  0  0  0
   -7.2490   13.6090  -19.2280 O   0  0  0  0  0  0
   -7.7300   11.6710  -16.7310 C   0  0  0  0  0  0
   -8.3290   10.4580  -16.0070 C   0  0  0  0  0  0
   -7.4900   10.1030  -14.7760 C   0  0  0  0  0  0
   -8.2840    9.3810  -13.7740 N   0  0  0  0  0  0
   -8.5470    8.0680  -13.7760 C   0  0  0  0  0  0
   -8.1640    7.2680  -14.7760 N   0  0  0  0  0  0
   -9.1700    7.5190  -12.7310 N   0  0  0  0  0  0
   -8.8850   14.4060  -17.9480 O   0  0  0  0  0  0
   -8.0368  -12.5319  -17.8365 H   0  0  0  0  0  0
   -8.6872  -13.6701  -16.6085 H   0  0  0  0  0  0
   -6.9213  -13.6108  -16.9320 H   0  0  0  0  0  0
   -8.6540  -11.4587  -15.7698 H   0  0  0  0  0  0
   -6.4764  -13.1690  -14.4763 H   0  0  0  0  0  0
   -7.3230  -11.7896  -13.6971 H   0  0  0  0  0  0
   -9.4995  -12.9988  -14.0245 H   0  0  0  0  0  0
   -8.5847  -14.4001  -14.6772 H   0  0  0  0  0  0
   -9.0709  -14.7774  -12.3060 H   0  0  0  0  0  0
   -7.3060  -14.5159  -12.5138 H   0  0  0  0  0  0
   -7.4095  -12.5074  -11.2132 H   0  0  0  0  0  0
  -10.7588  -13.6680  -12.1591 H   0  0  0  0  0  0
  -11.5687  -12.3737  -11.0195 H   0  0  0  0  0  0
   -8.3366  -11.0321   -9.9236 H   0  0  0  0  0  0
   -5.1496  -12.3408  -15.6160 H   0  0  0  0  0  0
   -4.3209   -9.5793  -16.3306 H   0  0  0  0  0  0
   -2.9166  -12.2769  -16.3053 H   0  0  0  0  0  0
   -2.1677   -9.9977  -14.4640 H   0  0  0  0  0  0
   -3.7563  -10.7847  -14.1748 H   0  0  0  0  0  0
   -1.7652  -10.7959  -17.9331 H   0  0  0  0  0  0
   -0.7573  -11.0711  -16.4719 H   0  0  0  0  0  0
   -1.6339   -9.5169  -16.6786 H   0  0  0  0  0  0
   -1.9710  -11.8441  -12.8299 H   0  0  0  0  0  0
   -1.0485  -12.2068  -14.3279 H   0  0  0  0  0  0
   -2.6371  -12.9938  -14.0387 H   0  0  0  0  0  0
   -4.3069   -8.6280  -18.2233 H   0  0  0  0  0  0
   -3.5031  -10.2516  -20.6553 H   0  0  0  0  0  0
   -5.4897   -8.9580  -21.9088 H   0  0  0  0  0  0
   -5.5973  -10.6408  -21.2897 H   0  0  0  0  0  0
   -7.6095   -9.2985  -20.8236 H   0  0  0  0  0  0
   -6.8069   -9.8797  -19.3253 H   0  0  0  0  0  0
   -6.9425   -8.4641  -17.6887 H   0  0  0  0  0  0
   -6.7405   -6.5848  -17.9281 H   0  0  0  0  0  0
   -4.9576   -7.2680  -21.5500 H   0  0  0  0  0  0
   -2.1448   -6.2114  -21.8697 H   0  0  0  0  0  0
   -3.2560   -4.4589  -23.2748 H   0  0  0  0  0  0
   -3.6695   -6.1318  -23.7818 H   0  0  0  0  0  0
   -5.8639   -5.9552  -22.7758 H   0  0  0  0  0  0
   -5.4576   -4.3577  -22.0621 H   0  0  0  0  0  0
   -5.1355   -3.4309  -24.3603 H   0  0  0  0  0  0
   -5.5921   -5.0237  -25.0539 H   0  0  0  0  0  0
   -7.4344   -2.9216  -23.9230 H   0  0  0  0  0  0
   -6.9597   -6.4849  -24.6340 H   0  0  0  0  0  0
   -9.6046   -3.2493  -24.0361 H   0  0  0  0  0  0
  -10.2929   -4.9896  -24.3930 H   0  0  0  0  0  0
   -2.3408   -6.3694  -19.3291 H   0  0  0  0  0  0
   -3.9615   -4.4304  -17.9600 H   0  0  0  0  0  0
   -1.3242   -5.7817  -17.1554 H   0  0  0  0  0  0
   -2.3003   -4.7973  -16.0131 H   0  0  0  0  0  0
   -2.2977   -6.7525  -14.6689 H   0  0  0  0  0  0
   -3.5983   -8.0804  -15.0872 H   0  0  0  0  0  0
   -0.4824   -4.1712  -18.9713 H   0  0  0  0  0  0
   -0.1638   -1.5289  -17.8370 H   0  0  0  0  0  0
    1.6862   -2.9905  -18.7269 H   0  0  0  0  0  0
    1.1480   -2.6055  -20.3968 H   0  0  0  0  0  0
    1.6100   -0.2304  -20.0635 H   0  0  0  0  0  0
    1.9554   -0.4961  -18.3209 H   0  0  0  0  0  0
    3.9799   -1.6722  -18.7995 H   0  0  0  0  0  0
    3.5624   -1.8395  -20.5385 H   0  0  0  0  0  0
    5.2818   -0.0716  -20.1340 H   0  0  0  0  0  0
    3.7761    0.5943  -20.8524 H   0  0  0  0  0  0
    4.6419    2.0147  -19.1050 H   0  0  0  0  0  0
    4.5540    0.6513  -17.9387 H   0  0  0  0  0  0
    3.0483    1.3171  -18.6572 H   0  0  0  0  0  0
   -1.2872   -2.5912  -21.1094 H   0  0  0  0  0  0
   -1.5261    0.1154  -22.1418 H   0  0  0  0  0  0
   -1.5890   -1.9096  -23.5651 H   0  0  0  0  0  0
   -3.0312   -0.8792  -23.8567 H   0  0  0  0  0  0
   -3.1766   -2.3661  -22.8593 H   0  0  0  0  0  0
   -3.8860   -2.0540  -20.4613 H   0  0  0  0  0  0
   -6.0901   -0.2007  -20.4816 H   0  0  0  0  0  0
   -6.2329   -2.5434  -19.6867 H   0  0  0  0  0  0
   -6.8920   -1.4071  -18.4614 H   0  0  0  0  0  0
   -5.2575   -2.1184  -18.2394 H   0  0  0  0  0  0
   -3.3742   -0.5238  -18.0665 H   0  0  0  0  0  0
   -4.2840    1.7044  -16.4684 H   0  0  0  0  0  0
   -2.5102    0.1050  -15.7873 H   0  0  0  0  0  0
   -1.9592    1.8055  -15.6102 H   0  0  0  0  0  0
   -1.3986    0.8203  -17.0036 H   0  0  0  0  0  0
   -1.9239    1.6972  -19.2533 H   0  0  0  0  0  0
   -1.5165    4.5344  -19.1907 H   0  0  0  0  0  0
   -1.6034    2.6026  -21.5740 H   0  0  0  0  0  0
   -1.0459    4.3047  -21.7102 H   0  0  0  0  0  0
    0.1728    2.2259  -19.8665 H   0  0  0  0  0  0
    0.4286    1.6678  -22.3165 H   0  0  0  0  0  0
    1.9998    2.1260  -21.5762 H   0  0  0  0  0  0
    1.1118    3.3047  -22.6004 H   0  0  0  0  0  0
    0.5588    4.5411  -19.1224 H   0  0  0  0  0  0
    1.1876    4.9699  -20.7496 H   0  0  0  0  0  0
    2.0756    3.7912  -19.7254 H   0  0  0  0  0  0
   -4.1060    2.6144  -20.8264 H   0  0  0  0  0  0
   -5.3706    4.9115  -22.0945 H   0  0  0  0  0  0
   -5.8977    2.5835  -22.6979 H   0  0  0  0  0  0
   -6.5919    2.2890  -21.0676 H   0  0  0  0  0  0
   -8.3606    3.9361  -21.5306 H   0  0  0  0  0  0
   -7.1913    5.3977  -23.1265 H   0  0  0  0  0  0
   -8.7372    4.7912  -23.8114 H   0  0  0  0  0  0
   -7.1775    4.0759  -24.3427 H   0  0  0  0  0  0
   -8.6270    1.4847  -22.0728 H   0  0  0  0  0  0
   -8.0117    1.8020  -23.7303 H   0  0  0  0  0  0
   -9.5714    2.5173  -23.1990 H   0  0  0  0  0  0
   -6.0986    3.2987  -18.9264 H   0  0  0  0  0  0
   -8.1149    5.1466  -18.0988 H   0  0  0  0  0  0
   -5.9422    3.6473  -16.5340 H   0  0  0  0  0  0
   -7.2015    4.6151  -15.6949 H   0  0  0  0  0  0
   -8.9598    3.2131  -16.6302 H   0  0  0  0  0  0
   -7.7569    2.2968  -17.5997 H   0  0  0  0  0  0
   -6.5733    1.6429  -15.4832 H   0  0  0  0  0  0
   -7.8151    2.5240  -14.5301 H   0  0  0  0  0  0
   -9.2354    0.6049  -16.1957 H   0  0  0  0  0  0
   -6.7842    0.8290  -13.4978 H   0  0  0  0  0  0
   -7.3128   -0.8474  -12.7626 H   0  0  0  0  0  0
   -9.8593   -1.3962  -15.3419 H   0  0  0  0  0  0
   -4.5389    5.3482  -17.6826 H   0  0  0  0  0  0
   -4.5822    7.8733  -16.2064 H   0  0  0  0  0  0
   -2.6187    6.3672  -16.3224 H   0  0  0  0  0  0
   -2.4746    6.6541  -18.0897 H   0  0  0  0  0  0
   -1.9099    9.0004  -17.6737 H   0  0  0  0  0  0
   -3.1625    9.3746  -15.5893 H   0  0  0  0  0  0
   -1.4304    9.8079  -15.3922 H   0  0  0  0  0  0
   -2.0537    8.2666  -14.7120 H   0  0  0  0  0  0
   -0.1408    7.2032  -17.7406 H   0  0  0  0  0  0
   -0.2969    7.0045  -15.9621 H   0  0  0  0  0  0
    0.3264    8.5458  -16.6424 H   0  0  0  0  0  0
   -4.2618    7.1455  -19.7013 H   0  0  0  0  0  0
   -3.9251    9.9526  -20.4443 H   0  0  0  0  0  0
   -3.2696    8.0009  -21.8776 H   0  0  0  0  0  0
   -4.3577    9.1132  -22.7750 H   0  0  0  0  0  0
   -5.0028    7.5813  -22.0939 H   0  0  0  0  0  0
   -6.7845    7.8412  -20.1624 H   0  0  0  0  0  0
   -8.5437    9.8783  -21.4672 H   0  0  0  0  0  0
   -8.9237    7.4098  -21.6571 H   0  0  0  0  0  0
  -10.3526    8.2309  -20.9424 H   0  0  0  0  0  0
   -9.2172    7.3232  -19.8871 H   0  0  0  0  0  0
   -7.3840   11.3188  -19.7199 H   0  0  0  0  0  0
   -9.6168   11.9676  -17.7580 H   0  0  0  0  0  0
   -6.9627   14.6111  -19.5798 H   0  0  0  0  0  0
   -6.7008   11.4206  -17.0278 H   0  0  0  0  0  0
   -7.7134   12.5172  -16.0284 H   0  0  0  0  0  0
   -9.3547   10.6923  -15.6860 H   0  0  0  0  0  0
   -8.3465    9.5955  -16.6894 H   0  0  0  0  0  0
   -6.6471    9.4643  -15.0786 H   0  0  0  0  0  0
   -7.1047   11.0252  -14.3165 H   0  0  0  0  0  0
   -8.7241    9.9247  -12.9251 H   0  0  0  0  0  0
   -7.6483    7.6900  -15.6512 H   0  0  0  0  0  0
   -8.3645    6.1877  -14.7237 H   0  0  0  0  0  0
   -9.4977    8.1505  -11.8921 H   0  0  0  0  0  0
  1  2  1  0  0  0
  1129  1  0  0  0
  1130  1  0  0  0
  1131  1  0  0  0
  2  3  1  0  0  0
  2  5  1  0  0  0
  2132  1  0  0  0
  3  4  2  0  0  0
  3 12  1  0  0  0
  5  6  1  0  0  0
  5133  1  0  0  0
  5134  1  0  0  0
  6  7  1  0  0  0
  6135  1  0  0  0
  6136  1  0  0  0
  7  8  1  0  0  0
  7137  1  0  0  0
  7138  1  0  0  0
  8  9  1  0  0  0
  8139  1  0  0  0
  9 10  1  0  0  0
  9 11  2  0  0  0
 10140  1  0  0  0
 10141  1  0  0  0
 11142  1  0  0  0
 12 13  1  0  0  0
 12143  1  0  0  0
 13 14  1  0  0  0
 13 16  1  0  0  0
 13144  1  0  0  0
 14 15  2  0  0  0
 14 20  1  0  0  0
 16 17  1  0  0  0
 16 18  1  0  0  0
 16145  1  0  0  0
 17 19  1  0  0  0
 17146  1  0  0  0
 17147  1  0  0  0
 18148  1  0  0  0
 18149  1  0  0  0
 18150  1  0  0  0
 19151  1  0  0  0
 19152  1  0  0  0
 19153  1  0  0  0
 20 21  1  0  0  0
 20154  1  0  0  0
 21 22  1  0  0  0
 21 24  1  0  0  0
 21155  1  0  0  0
 22 23  2  0  0  0
 22 29  1  0  0  0
 24 25  1  0  0  0
 24156  1  0  0  0
 24157  1  0  0  0
 25 26  1  0  0  0
 25158  1  0  0  0
 25159  1  0  0  0
 26 27  2  0  0  0
 26 28  1  0  0  0
 28160  1  0  0  0
 28161  1  0  0  0
 29 30  1  0  0  0
 29162  1  0  0  0
 30 31  1  0  0  0
 30 33  1  0  0  0
 30163  1  0  0  0
 31 32  2  0  0  0
 31 40  1  0  0  0
 33 34  1  0  0  0
 33164  1  0  0  0
 33165  1  0  0  0
 34 35  1  0  0  0
 34166  1  0  0  0
 34167  1  0  0  0
 35 36  1  0  0  0
 35168  1  0  0  0
 35169  1  0  0  0
 36 37  1  0  0  0
 36170  1  0  0  0
 37 38  2  0  0  0
 37 39  1  0  0  0
 38171  1  0  0  0
 39172  1  0  0  0
 39173  1  0  0  0
 40 41  1  0  0  0
 40174  1  0  0  0
 41 42  1  0  0  0
 41 44  1  0  0  0
 41175  1  0  0  0
 42 43  2  0  0  0
 42 48  1  0  0  0
 44 45  1  0  0  0
 44176  1  0  0  0
 44177  1  0  0  0
 45 46  2  0  0  0
 45 47  1  0  0  0
 47178  1  0  0  0
 47179  1  0  0  0
 48 49  1  0  0  0
 48180  1  0  0  0
 49 50  1  0  0  0
 49 52  1  0  0  0
 49181  1  0  0  0
 50 51  2  0  0  0
 50 57  1  0  0  0
 52 53  1  0  0  0
 52182  1  0  0  0
 52183  1  0  0  0
 53 54  1  0  0  0
 53184  1  0  0  0
 53185  1  0  0  0
 54 55  1  0  0  0
 54186  1  0  0  0
 54187  1  0  0  0
 55 56  1  0  0  0
 55188  1  0  0  0
 55189  1  0  0  0
 56190  1  0  0  0
 56191  1  0  0  0
 56192  1  0  0  0
 57 58  1  0  0  0
 57193  1  0  0  0
 58 59  1  0  0  0
 58 61  1  0  0  0
 58194  1  0  0  0
 59 60  2  0  0  0
 59 62  1  0  0  0
 61195  1  0  0  0
 61196  1  0  0  0
 61197  1  0  0  0
 62 63  1  0  0  0
 62198  1  0  0  0
 63 64  1  0  0  0
 63 66  1  0  0  0
 63199  1  0  0  0
 64 65  2  0  0  0
 64 67  1  0  0  0
 66200  1  0  0  0
 66201  1  0  0  0
 66202  1  0  0  0
 67 68  1  0  0  0
 67203  1  0  0  0
 68 69  1  0  0  0
 68 71  1  0  0  0
 68204  1  0  0  0
 69 70  2  0  0  0
 69 72  1  0  0  0
 71205  1  0  0  0
 71206  1  0  0  0
 71207  1  0  0  0
 72 73  1  0  0  0
 72208  1  0  0  0
 73 74  1  0  0  0
 73 76  1  0  0  0
 73209  1  0  0  0
 74 75  2  0  0  0
 74 80  1  0  0  0
 76 77  1  0  0  0
 76210  1  0  0  0
 76211  1  0  0  0
 77 78  1  0  0  0
 77 79  1  0  0  0
 77212  1  0  0  0
 78213  1  0  0  0
 78214  1  0  0  0
 78215  1  0  0  0
 79216  1  0  0  0
 79217  1  0  0  0
 79218  1  0  0  0
 80 81  1  0  0  0
 80219  1  0  0  0
 81 82  1  0  0  0
 81 84  1  0  0  0
 81220  1  0  0  0
 82 83  2  0  0  0
 82 88  1  0  0  0
 84 85  1  0  0  0
 84221  1  0  0  0
 84222  1  0  0  0
 85 86  1  0  0  0
 85 87  1  0  0  0
 85223  1  0  0  0
 86224  1  0  0  0
 86225  1  0  0  0
 86226  1  0  0  0
 87227  1  0  0  0
 87228  1  0  0  0
 87229  1  0  0  0
 88 89  1  0  0  0
 88230  1  0  0  0
 89 90  1  0  0  0
 89 92  1  0  0  0
 89231  1  0  0  0
 90 91  2  0  0  0
 90 99  1  0  0  0
 92 93  1  0  0  0
 92232  1  0  0  0
 92233  1  0  0  0
 93 94  1  0  0  0
 93234  1  0  0  0
 93235  1  0  0  0
 94 95  1  0  0  0
 94236  1  0  0  0
 94237  1  0  0  0
 95 96  1  0  0  0
 95238  1  0  0  0
 96 97  1  0  0  0
 96 98  2  0  0  0
 97239  1  0  0  0
 97240  1  0  0  0
 98241  1  0  0  0
 99100  1  0  0  0
 99242  1  0  0  0
100101  1  0  0  0
100103  1  0  0  0
100243  1  0  0  0
101102  2  0  0  0
101107  1  0  0  0
103104  1  0  0  0
103244  1  0  0  0
103245  1  0  0  0
104105  1  0  0  0
104106  1  0  0  0
104246  1  0  0  0
105247  1  0  0  0
105248  1  0  0  0
105249  1  0  0  0
106250  1  0  0  0
106251  1  0  0  0
106252  1  0  0  0
107108  1  0  0  0
107253  1  0  0  0
108109  1  0  0  0
108111  1  0  0  0
108254  1  0  0  0
109110  2  0  0  0
109112  1  0  0  0
111255  1  0  0  0
111256  1  0  0  0
111257  1  0  0  0
112113  1  0  0  0
112258  1  0  0  0
113114  1  0  0  0
113116  1  0  0  0
113259  1  0  0  0
114115  2  0  0  0
114117  1  0  0  0
116260  1  0  0  0
116261  1  0  0  0
116262  1  0  0  0
117118  1  0  0  0
117263  1  0  0  0
118119  1  0  0  0
118121  1  0  0  0
118264  1  0  0  0
119120  1  0  0  0
119128  2  0  0  0
120265  1  0  0  0
121122  1  0  0  0
121266  1  0  0  0
121267  1  0  0  0
122123  1  0  0  0
122268  1  0  0  0
122269  1  0  0  0
123124  1  0  0  0
123270  1  0  0  0
123271  1  0  0  0
124125  1  0  0  0
124272  1  0  0  0
125126  1  0  0  0
125127  2  0  0  0
126273  1  0  0  0
126274  1  0  0  0
127275  1  0  0  0
M  CHG  2   1   1  56   1
M  END
> <s_m_source_file>
../1dpu_ligand.sdf

> <i_m_source_file_index>
1

> <s_epik_input>
W0hdL049QyhbTkgyXSlcW05IXVtDSDJdW0NIMl1bQ0gyXVtDQEhdKFtOSDMrXSlDKD1PKVtOSF1bQ0BASF0oW0NAQEhdKFtDSDNdKVtDSDJdW0NIM10pQyg9TylbTkhdW0NAQEhdKFtDSDJdW0NIMl1DKD1PKVtOSDJdKUMoPU8pW05IXVtDQEBIXShbQ0gyXVtDSDJdW0NIMl1bTkhdL0MoPU5cW0hdKVtOSDJdKUMoPU8pW05IXVtDQEBIXShbQ0gyXUMoPU8pW05IMl0pQyg9TylbTkhdW0NAQEhdKFtDSDJdW0NIMl1bQ0gyXVtDSDJdW05IMytdKUMoPU8pW05IXVtDQEBIXShbQ0gzXSlDKD1PKVtOSF1bQ0BASF0oW0NIM10pQyg9TylbTkhdW0NAQEhdKFtDSDNdKUMoPU8pW05IXVtDQEBIXShbQ0gyXVtDSF0oW0NIM10pW0NIM10pQyg9TylbTkhdW0NAQEhdKFtDSDJdW0NIXShbQ0gzXSlbQ0gzXSlDKD1PKVtOSF1bQ0BASF0oW0NIMl1bQ0gyXVtDSDJdW05IXS9DKFtOSDJdKT1OXFtIXSlDKD1PKVtOSF1bQ0BASF0oW0NIMl1bQ0hdKFtDSDNdKVtDSDNdKUMoPU8pW05IXVtDQEBIXShbQ0gzXSlDKD1PKVtOSF1bQ0BASF0oW0NIM10pQyg9TylbTkhdW0NASF0oQyg9TylbT0hdKVtDSDJdW0NIMl1bQ0gyXVtOSF0vQyhbTkgyXSk9TlxbSF0=

> <s_epik_cmdline>
J2VwaWtfYXBwJywgJy1pbWFlJywgJ2xpZ2FuZF9wcm8ubWFlJywgJy1vbWFlJywgJ2xpZ2FuZF9wcmVwLm1hZScsICctbXMnLCAnMScsICctcGgnLCAnNycsICctcGh0JywgJzAuNScsICctbnQn

> <s_epik_pKa_notes>
Molecule size exceeds maximum supported for generating protonation states

> <s_epik_Chemistry_Notes>
This compound has an imine and may undergo hydrolysis.

$$$$
