1dqn_ligand
                    3D
 Schrodinger Suite 2020-3.
 38 40  0  0  1  0            999 V2000
   23.4040   11.0060   47.1590 P   0  0  0  0  0  0
   18.0050    9.8050   54.4590 C   0  0  0  0  0  0
   24.0260   11.8820   48.1770 O   0  5  0  0  0  0
   22.7370   11.7560   46.0770 O   0  0  0  0  0  0
   24.4530   10.0810   46.6370 O   0  5  0  0  0  0
   22.4130   10.0680   47.9320 O   0  0  0  0  0  0
   21.7530    8.9170   47.3940 C   0  0  0  0  0  0
   20.9110    8.2770   48.4380 C   0  0  1  0  0  0
   21.4180    8.3900   49.8160 N   0  0  1  0  0  0
   19.5220    8.8420   48.5160 C   0  0  1  0  0  0
   18.7800    8.4630   47.3580 O   0  0  0  0  0  0
   19.0780    8.2690   49.7960 C   0  0  1  0  0  0
   18.5730    6.9360   49.6500 O   0  0  0  0  0  0
   20.3140    8.4140   50.7730 C   0  0  2  0  0  0
   20.1040    9.7860   51.4320 C   0  0  0  0  0  0
   20.6030   11.0340   51.0080 C   0  0  0  0  0  0
   20.2430   12.0520   51.7560 N   0  3  0  0  0  0
   19.4580   11.4860   52.7440 C   0  0  0  0  0  0
   18.7640   12.1070   53.8530 C   0  0  0  0  0  0
   18.7340   13.2870   54.1320 O   0  0  0  0  0  0
   18.0630   11.1930   54.6610 N   0  0  0  0  0  0
   17.2950    9.0910   55.3270 N   0  0  0  0  0  0
   18.6530    9.1980   53.4000 N   0  0  0  0  0  0
   19.3640   10.0890   52.5760 C   0  0  0  0  0  0
   21.1146    9.2209   46.5514 H   0  0  0  0  0  0
   22.5042    8.1943   47.0428 H   0  0  0  0  0  0
   20.9428    7.2275   48.1099 H   0  0  0  0  0  0
   22.0642    7.5286   50.0407 H   0  0  0  0  0  0
   19.3762    9.9318   48.4844 H   0  0  0  0  0  0
   19.0620    8.8575   46.3706 H   0  0  0  0  0  0
   18.1549    8.7522   50.1487 H   0  0  0  0  0  0
   17.7146    6.7423   48.9900 H   0  0  0  0  0  0
   20.5246    7.6731   51.5583 H   0  0  0  0  0  0
   21.2403   11.0964   50.1136 H   0  0  0  0  0  0
   17.5310   11.6480   55.5095 H   0  0  0  0  0  0
   17.2199    7.9998   55.2103 H   0  0  0  0  0  0
   16.7826    9.5914   56.1619 H   0  0  0  0  0  0
   20.5840   13.0671   51.5044 H   0  0  0  0  0  0
  1  3  1  0  0  0
  1  4  2  0  0  0
  1  5  1  0  0  0
  1  6  1  0  0  0
  2 23  2  0  0  0
  2 22  1  0  0  0
  2 21  1  0  0  0
  6  7  1  0  0  0
  7  8  1  0  0  0
  7 25  1  0  0  0
  7 26  1  0  0  0
  8  9  1  0  0  0
  8 10  1  0  0  0
  8 27  1  0  0  0
  9 14  1  0  0  0
  9 28  1  0  0  0
 10 11  1  0  0  0
 10 12  1  0  0  0
 10 29  1  0  0  0
 11 30  1  0  0  0
 12 13  1  0  0  0
 12 14  1  0  0  0
 12 31  1  0  0  0
 13 32  1  0  0  0
 14 15  1  0  0  0
 14 33  1  0  0  0
 15 16  2  0  0  0
 15 24  1  0  0  0
 16 17  1  0  0  0
 16 34  1  0  0  0
 17 18  1  0  0  0
 17 38  1  0  0  0
 18 19  1  0  0  0
 18 24  2  0  0  0
 19 20  2  0  0  0
 19 21  1  0  0  0
 21 35  1  0  0  0
 22 36  1  0  0  0
 22 37  1  0  0  0
 23 24  1  0  0  0
M  CHG  3   3  -1   5  -1  17   1
M  END
> <s_m_source_file>
../1dqn_ligand.sdf

> <i_m_source_file_index>
1

> <s_epik_input>
W09IXVAoPU8pKFtPSF0pT1tDSDJdW0NASF0xW05IMitdW0NASF0oW0NASF0oW09IXSlbQ0BASF0xW09IXSljKFtjSF1bbkhdMiljKGMyMyluYyhbTkgyXSlbbkhdYzM9Tw==

> <s_epik_cmdline>
J2VwaWtfYXBwJywgJy1pbWFlJywgJ2xpZ2FuZF9wcm8ubWFlJywgJy1vbWFlJywgJ2xpZ2FuZF9wcmVwLm1hZScsICctbXMnLCAnMScsICctcGgnLCAnNycsICctcGh0JywgJzAuNScsICctbnQn

> <r_lp_tautomer_probability>
1

> <r_epik_Ionization_Penalty>
  0.2077

> <r_epik_Ionization_Penalty_Charging>
  0.1442

> <r_epik_Ionization_Penalty_Neutral>
  0.0635

> <r_epik_State_Penalty>
 -0.0000

> <r_epik_Charging_Adjusted_Penalty>
0.144197706899011

> <i_epik_Tot_Q>
-1

> <i_epik_Tot_abs_Q>
3

$$$$
