1dqx_ligand
                    3D
 Schrodinger Suite 2020-3.
 32 33  0  0  1  0            999 V2000
   80.0490   64.3350   91.8040 P   0  0  0  0  0  0
   80.9250   65.1530   92.7730 O   0  5  0  0  0  0
   80.0860   62.8370   92.0660 O   0  0  0  0  0  0
   80.4560   64.5890   90.3250 O   0  5  0  0  0  0
   78.5760   64.8470   92.1690 O   0  0  0  0  0  0
   77.3980   64.5600   91.3820 C   0  0  0  0  0  0
   76.3050   65.6320   91.5710 C   0  0  1  0  0  0
   75.7520   65.6260   92.8890 O   0  0  0  0  0  0
   76.5440   67.0730   91.0870 C   0  0  1  0  0  0
   75.8260   67.3200   89.9260 O   0  0  0  0  0  0
   75.9240   67.8750   92.1710 C   0  0  1  0  0  0
   75.4550   69.1580   91.9150 O   0  0  0  0  0  0
   75.1580   66.9050   93.0770 C   0  0  2  0  0  0
   74.9960   67.2140   94.5290 N   0  0  0  0  0  0
   76.1070   67.1640   95.5290 C   0  0  0  0  0  0
   77.2840   66.8750   95.3030 O   0  0  0  0  0  0
   75.8970   67.4190   96.8840 N   0  0  0  0  0  0
   74.6130   67.6670   97.3720 C   0  0  0  0  0  0
   74.4740   67.6100   98.5820 O   0  5  0  0  0  0
   73.3680   67.7500   96.3480 C   0  0  0  0  0  0
   73.5920   67.5190   95.0030 C   0  0  0  0  0  0
   72.5210   67.5800   94.1770 O   0  0  0  0  0  0
   77.6681   64.5275   90.3162 H   0  0  0  0  0  0
   76.9827   63.5874   91.6848 H   0  0  0  0  0  0
   75.5075   65.2604   90.9107 H   0  0  0  0  0  0
   77.5795   67.3304   90.8197 H   0  0  0  0  0  0
   76.1128   66.8254   88.9863 H   0  0  0  0  0  0
   76.6777   68.4743   92.7029 H   0  0  0  0  0  0
   76.0267   69.8322   91.2603 H   0  0  0  0  0  0
   74.1041   66.9050   92.7620 H   0  0  0  0  0  0
   76.7482   67.4262   97.5807 H   0  0  0  0  0  0
   72.3672   67.9843   96.7107 H   0  0  0  0  0  0
  1  5  1  0  0  0
  1  4  1  0  0  0
  1  3  2  0  0  0
  1  2  1  0  0  0
  5  6  1  0  0  0
  6  7  1  0  0  0
  6 23  1  0  0  0
  6 24  1  0  0  0
  7  9  1  0  0  0
  7  8  1  0  0  0
  7 25  1  0  0  0
  8 13  1  0  0  0
  9 11  1  0  0  0
  9 10  1  0  0  0
  9 26  1  0  0  0
 10 27  1  0  0  0
 11 13  1  0  0  0
 11 12  1  0  0  0
 11 28  1  0  0  0
 12 29  1  0  0  0
 13 14  1  0  0  0
 13 30  1  0  0  0
 14 21  1  0  0  0
 14 15  1  0  0  0
 15 17  1  0  0  0
 15 16  2  0  0  0
 17 18  1  0  0  0
 17 31  1  0  0  0
 18 20  2  0  0  0
 18 19  1  0  0  0
 20 21  1  0  0  0
 20 32  1  0  0  0
 21 22  2  0  0  0
M  CHG  3   2  -1   4  -1  19  -1
M  END
> <s_m_source_file>
../1dqx_ligand.sdf

> <i_m_source_file_index>
1

> <s_epik_input>
W09IXVAoPU8pKFtPSF0pT1tDSDJdW0NASF0xT1tDQEhdKFtDQEhdKFtPSF0pW0NAQEhdMVtPSF0pbjJjKD1PKVtuSF1jKD1PKVtjSF1jMltPSF0=

> <s_epik_cmdline>
J2VwaWtfYXBwJywgJy1pbWFlJywgJ2xpZ2FuZF9wcm8ubWFlJywgJy1vbWFlJywgJ2xpZ2FuZF9wcmVwLm1hZScsICctbXMnLCAnMScsICctcGgnLCAnNycsICctcGh0JywgJzAuNScsICctbnQn

> <r_lp_tautomer_probability>
0.9999999990364

> <r_epik_Ionization_Penalty>
  0.1062

> <r_epik_Ionization_Penalty_Charging>
  0.1057

> <r_epik_Ionization_Penalty_Neutral>
  0.0005

> <r_epik_State_Penalty>
  0.0955

> <r_epik_Charging_Adjusted_Penalty>
0.201178237609322

> <i_epik_Tot_Q>
-3

> <i_epik_Tot_abs_Q>
3

> <s_epik_Chemistry_Notes>
This compound contains an acetal/aminal-like group ( X-CH(R)-Y where X, Y are N, S, or O) that may be acid/base labile, releasing an aldehyde.

$$$$
