1drj_ligand
                    3D
 Schrodinger Suite 2020-3.
 20 20  0  0  1  0            999 V2000
   50.1230   34.0140   43.2800 C   0  0  2  0  0  0
   49.4070   33.4660   44.5170 C   0  0  1  0  0  0
   49.0130   34.5990   45.4310 C   0  0  1  0  0  0
   50.2290   35.4740   45.7600 C   0  0  1  0  0  0
   50.9290   35.9190   44.4860 C   0  0  0  0  0  0
   50.5470   32.9690   42.4360 O   0  0  0  0  0  0
   48.2460   32.7680   44.1460 O   0  0  0  0  0  0
   48.0230   35.3570   44.7770 O   0  0  0  0  0  0
   49.8410   36.6150   46.4860 O   0  0  0  0  0  0
   51.2510   34.7940   43.6660 O   0  0  0  0  0  0
   49.4673   34.6517   42.6690 H   0  0  0  0  0  0
   50.0361   32.7289   45.0374 H   0  0  0  0  0  0
   48.5500   34.2256   46.3563 H   0  0  0  0  0  0
   50.9165   34.9333   46.4270 H   0  0  0  0  0  0
   50.2683   36.5928   43.9208 H   0  0  0  0  0  0
   51.8583   36.4480   44.7438 H   0  0  0  0  0  0
   51.0796   33.1986   41.5013 H   0  0  0  0  0  0
   48.3175   31.8984   43.4761 H   0  0  0  0  0  0
   47.0803   34.8814   44.4687 H   0  0  0  0  0  0
   49.3154   36.5037   47.4459 H   0  0  0  0  0  0
  1 10  1  0  0  0
  1  6  1  0  0  0
  1  2  1  0  0  0
  1 11  1  0  0  0
  2  7  1  0  0  0
  2  3  1  0  0  0
  2 12  1  0  0  0
  3  8  1  0  0  0
  3  4  1  0  0  0
  3 13  1  0  0  0
  4  9  1  0  0  0
  4  5  1  0  0  0
  4 14  1  0  0  0
  5 10  1  0  0  0
  5 15  1  0  0  0
  5 16  1  0  0  0
  6 17  1  0  0  0
  7 18  1  0  0  0
  8 19  1  0  0  0
  9 20  1  0  0  0
M  END
> <s_m_source_file>
../1drj_ligand.sdf

> <i_m_source_file_index>
1

> <s_epik_input>
W09IXVtDQEhdMVtDQEhdKFtPSF0pW0NASF0oW09IXSlbQ0BASF0oW0NIMl1PMSlbT0hd

> <s_epik_cmdline>
J2VwaWtfYXBwJywgJy1pbWFlJywgJ2xpZ2FuZF9wcm8ubWFlJywgJy1vbWFlJywgJ2xpZ2FuZF9wcmVwLm1hZScsICctbXMnLCAnMScsICctcGgnLCAnNycsICctcGh0JywgJzAuNScsICctbnQn

> <r_lp_tautomer_probability>
1

> <r_epik_Ionization_Penalty>
  0.0000

> <r_epik_Ionization_Penalty_Charging>
  0.0000

> <r_epik_Ionization_Penalty_Neutral>
  0.0000

> <r_epik_State_Penalty>
 -0.0000

> <r_epik_Charging_Adjusted_Penalty>
0

> <i_epik_Tot_Q>
0

> <i_epik_Tot_abs_Q>
0

> <s_epik_Chemistry_Notes>
This compound contains an acetal/aminal-like group ( X-CH(R)-Y where X, Y are N, S, or O) that may be acid/base labile, releasing an aldehyde.

$$$$
