1drk_ligand
                    3D
 Schrodinger Suite 2020-3.
 20 20  0  0  1  0            999 V2000
   49.7320   33.6320   43.6180 C   0  0  2  0  0  0
   49.0360   33.0990   44.8940 C   0  0  1  0  0  0
   48.7010   34.2690   45.8230 C   0  0  1  0  0  0
   49.9470   35.1320   46.0490 C   0  0  1  0  0  0
   50.5770   35.5630   44.7470 C   0  0  0  0  0  0
   50.1480   32.5760   42.7790 O   0  0  0  0  0  0
   47.8400   32.3830   44.5820 O   0  0  0  0  0  0
   47.6530   35.0530   45.2730 O   0  0  0  0  0  0
   49.6110   36.2780   46.7640 O   0  0  0  0  0  0
   50.8780   34.4250   43.9670 O   0  0  0  0  0  0
   49.0586   34.2509   43.0068 H   0  0  0  0  0  0
   49.6690   32.3508   45.3936 H   0  0  0  0  0  0
   48.2946   33.9053   46.7783 H   0  0  0  0  0  0
   50.6736   34.5870   46.6695 H   0  0  0  0  0  0
   49.8766   36.2085   44.1968 H   0  0  0  0  0  0
   51.5029   36.1195   44.9542 H   0  0  0  0  0  0
   50.6601   32.7961   41.8307 H   0  0  0  0  0  0
   47.8816   31.5037   43.9223 H   0  0  0  0  0  0
   46.6810   34.5906   45.0464 H   0  0  0  0  0  0
   49.1348   36.1902   47.7517 H   0  0  0  0  0  0
  1 10  1  0  0  0
  1  6  1  0  0  0
  1  2  1  0  0  0
  1 11  1  0  0  0
  2  7  1  0  0  0
  2  3  1  0  0  0
  2 12  1  0  0  0
  3  8  1  0  0  0
  3  4  1  0  0  0
  3 13  1  0  0  0
  4  9  1  0  0  0
  4  5  1  0  0  0
  4 14  1  0  0  0
  5 10  1  0  0  0
  5 15  1  0  0  0
  5 16  1  0  0  0
  6 17  1  0  0  0
  7 18  1  0  0  0
  8 19  1  0  0  0
  9 20  1  0  0  0
M  END
> <s_m_source_file>
../1drk_ligand.sdf

> <i_m_source_file_index>
1

> <s_epik_input>
W09IXVtDQEhdMVtDQEhdKFtPSF0pW0NASF0oW09IXSlbQ0BASF0oW0NIMl1PMSlbT0hd

> <s_epik_cmdline>
J2VwaWtfYXBwJywgJy1pbWFlJywgJ2xpZ2FuZF9wcm8ubWFlJywgJy1vbWFlJywgJ2xpZ2FuZF9wcmVwLm1hZScsICctbXMnLCAnMScsICctcGgnLCAnNycsICctcGh0JywgJzAuNScsICctbnQn

> <r_lp_tautomer_probability>
1

> <r_epik_Ionization_Penalty>
  0.0000

> <r_epik_Ionization_Penalty_Charging>
  0.0000

> <r_epik_Ionization_Penalty_Neutral>
  0.0000

> <r_epik_State_Penalty>
 -0.0000

> <r_epik_Charging_Adjusted_Penalty>
0

> <i_epik_Tot_Q>
0

> <i_epik_Tot_abs_Q>
0

> <s_epik_Chemistry_Notes>
This compound contains an acetal/aminal-like group ( X-CH(R)-Y where X, Y are N, S, or O) that may be acid/base labile, releasing an aldehyde.

$$$$
