1dth_ligand
                    3D
 Schrodinger Suite 2020-3.
 63 64  0  0  1  0            999 V2000
    2.3740   20.6560   -1.5010 C   0  0  0  0  0  0
    1.4140   21.4250   -0.8440 C   0  0  0  0  0  0
    1.7120   22.7420   -0.4570 C   0  0  0  0  0  0
    2.9660   23.2830   -0.7290 C   0  0  0  0  0  0
    3.9240   22.5100   -1.3840 C   0  0  0  0  0  0
    3.6270   21.1950   -1.7730 C   0  0  0  0  0  0
    3.2990   24.6910   -0.2760 C   0  0  0  0  0  0
    4.0160   24.6010    1.0720 C   0  0  1  0  0  0
    4.7520   25.8210    1.6620 C   0  0  0  0  0  0
    5.3100   25.7360    2.7580 O   0  0  0  0  0  0
    4.8310   26.9170    0.8930 N   0  0  0  0  0  0
    5.5300   28.0650    1.4470 C   0  0  0  0  0  0
    3.0650   24.1100    2.0520 N   0  0  0  0  0  0
    2.0360   24.8390    2.5270 C   0  0  0  0  0  0
    1.6630   25.8920    1.9890 O   0  0  0  0  0  0
    1.1870   24.0170    3.5230 C   0  0  2  0  0  0
    0.3100   23.1220    2.5980 C   0  0  0  0  0  0
   -0.9920   23.7080    1.9890 C   0  0  0  0  0  0
   -2.0500   24.4930    2.7870 C   0  0  0  0  0  0
   -1.6830   22.3680    1.6670 C   0  0  0  0  0  0
    0.7920   24.7450    4.8560 C   0  0  2  0  0  0
    0.3100   23.6760    5.8560 C   0  0  0  0  0  0
    0.8630   23.8970    7.5670 S   0  0  0  0  0  0
   -0.2370   22.9720    8.5430 C   0  0  0  0  0  0
   -0.3220   21.2450    8.4400 S   0  0  0  0  0  0
   -1.5540   21.2200    9.6350 C   0  0  0  0  0  0
   -1.9180   22.4830   10.1190 C   0  0  0  0  0  0
   -1.1300   23.5310    9.4650 C   0  0  0  0  0  0
   -0.2630   25.9070    4.8400 C   0  0  0  0  0  0
   -1.4080   25.7970    5.1360 O   0  0  0  0  0  0
    0.3130   27.0680    4.4810 N   0  0  0  0  0  0
   -0.0950   28.0490    4.4010 O   0  0  0  0  0  0
    2.1427   19.6339   -1.8010 H   0  0  0  0  0  0
    0.4316   21.0038   -0.6306 H   0  0  0  0  0  0
    0.9606   23.3414    0.0570 H   0  0  0  0  0  0
    4.9079   22.9291   -1.5947 H   0  0  0  0  0  0
    4.3780   20.5961   -2.2882 H   0  0  0  0  0  0
    3.9514   25.1710   -1.0203 H   0  0  0  0  0  0
    2.3708   25.2722   -0.1729 H   0  0  0  0  0  0
    4.8294   23.8862    0.8783 H   0  0  0  0  0  0
    4.3954   26.9724   -0.1156 H   0  0  0  0  0  0
    5.5200   28.8877    0.7169 H   0  0  0  0  0  0
    6.5702   27.7872    1.6722 H   0  0  0  0  0  0
    5.0286   28.3887    2.3710 H   0  0  0  0  0  0
    3.1624   23.0889    2.4493 H   0  0  0  0  0  0
    1.6635   23.2792    4.1853 H   0  0  0  0  0  0
    0.9014   22.8056    1.7261 H   0  0  0  0  0  0
   -0.0242   22.2348    3.1559 H   0  0  0  0  0  0
   -0.6916   24.4748    1.2598 H   0  0  0  0  0  0
   -1.6439   25.4766    3.0655 H   0  0  0  0  0  0
   -2.3124   23.9336    3.6971 H   0  0  0  0  0  0
   -2.9492   24.6294    2.1683 H   0  0  0  0  0  0
   -0.9963   21.7305    1.0908 H   0  0  0  0  0  0
   -2.5913   22.5566    1.0759 H   0  0  0  0  0  0
   -1.9544   21.8608    2.6046 H   0  0  0  0  0  0
    1.7208   25.2615    5.1399 H   0  0  0  0  0  0
   -0.7896   23.6705    5.8851 H   0  0  0  0  0  0
    0.6734   22.6872    5.5393 H   0  0  0  0  0  0
   -2.0150   20.2975    9.9880 H   0  0  0  0  0  0
   -2.6811   22.6614   10.8766 H   0  0  0  0  0  0
   -1.2258   24.5976    9.6681 H   0  0  0  0  0  0
    1.3738   26.8929    4.2486 H   0  0  0  0  0  0
    0.5446   28.8867    4.0861 H   0  0  0  0  0  0
  1  6  2  0  0  0
  1  2  1  0  0  0
  1 33  1  0  0  0
  2  3  2  0  0  0
  2 34  1  0  0  0
  3  4  1  0  0  0
  3 35  1  0  0  0
  4  7  1  0  0  0
  4  5  2  0  0  0
  5  6  1  0  0  0
  5 36  1  0  0  0
  6 37  1  0  0  0
  7  8  1  0  0  0
  7 38  1  0  0  0
  7 39  1  0  0  0
  8 13  1  0  0  0
  8  9  1  0  0  0
  8 40  1  0  0  0
  9 11  1  0  0  0
  9 10  2  0  0  0
 11 12  1  0  0  0
 11 41  1  0  0  0
 12 42  1  0  0  0
 12 43  1  0  0  0
 12 44  1  0  0  0
 13 14  1  0  0  0
 13 45  1  0  0  0
 14 16  1  0  0  0
 14 15  2  0  0  0
 16 21  1  0  0  0
 16 17  1  0  0  0
 16 46  1  0  0  0
 17 18  1  0  0  0
 17 47  1  0  0  0
 17 48  1  0  0  0
 18 20  1  0  0  0
 18 19  1  0  0  0
 18 49  1  0  0  0
 19 50  1  0  0  0
 19 51  1  0  0  0
 19 52  1  0  0  0
 20 53  1  0  0  0
 20 54  1  0  0  0
 20 55  1  0  0  0
 21 29  1  0  0  0
 21 22  1  0  0  0
 21 56  1  0  0  0
 22 23  1  0  0  0
 22 57  1  0  0  0
 22 58  1  0  0  0
 23 24  1  0  0  0
 24 28  2  0  0  0
 24 25  1  0  0  0
 25 26  1  0  0  0
 26 27  2  0  0  0
 26 59  1  0  0  0
 27 28  1  0  0  0
 27 60  1  0  0  0
 28 61  1  0  0  0
 29 31  1  0  0  0
 29 30  2  0  0  0
 31 32  1  0  0  0
 31 62  1  0  0  0
 32 63  1  0  0  0
M  END
> <s_m_source_file>
../1dth_ligand.sdf

> <i_m_source_file_index>
1

> <s_epik_input>
W2NIXTFbY0hdW2NIXVtjSF1bY0hdYzFbQ0gyXVtDQEBIXShDKD1PKVtOSF1bQ0gzXSlbTkhdQyg9TylbQ0BIXShbQ0gyXVtDSF0oW0NIM10pW0NIM10pW0NAQEhdKEMoPU8pW05IXVtPSF0pW0NIMl1TYzJzW2NIXVtjSF1bY0hdMg==

> <s_epik_cmdline>
J2VwaWtfYXBwJywgJy1pbWFlJywgJ2xpZ2FuZF9wcm8ubWFlJywgJy1vbWFlJywgJ2xpZ2FuZF9wcmVwLm1hZScsICctbXMnLCAnMScsICctcGgnLCAnNycsICctcGh0JywgJzAuNScsICctbnQn

> <r_lp_tautomer_probability>
1

> <r_epik_Ionization_Penalty>
  0.0083

> <r_epik_Ionization_Penalty_Charging>
  0.0000

> <r_epik_Ionization_Penalty_Neutral>
  0.0083

> <r_epik_State_Penalty>
 -0.0000

> <r_epik_Charging_Adjusted_Penalty>
0

> <i_epik_Tot_Q>
0

> <i_epik_Tot_abs_Q>
0

> <s_epik_Chemistry_Notes>
This compound has a N-S or N-O group and may undergo hydrolysis at high or low pH.

$$$$
