1dtq_ligand
                    3D
 Schrodinger Suite 2020-3.
 40 41  0  0  1  0            999 V2000
    0.2380  -37.3790   19.0320 C   0  0  0  0  0  0
    0.2770  -37.4010   20.4190 N   0  0  0  0  0  0
   -0.7440  -36.8670   21.1790 C   0  0  0  0  0  0
   -1.8570  -36.2940   20.5200 C   0  0  0  0  0  0
   -1.8760  -36.2550   19.1130 C   0  0  0  0  0  0
   -0.8430  -36.7850   18.3600 C   0  0  0  0  0  0
   -3.0160  -35.8050   21.2560 C   0  0  0  0  0  0
   -3.9720  -35.4400   21.8140 N   0  0  0  0  0  0
    1.1040  -38.0740   18.2690 N   0  0  0  0  0  0
    2.4030  -38.2360   18.3360 C   0  0  0  0  0  0
    3.4100  -38.2210   16.9450 S   0  0  0  0  0  0
    2.8830  -38.3830   19.5530 N   0  0  0  0  0  0
    2.9620  -39.6970   20.1960 C   0  0  0  0  0  0
    3.7810  -39.7290   21.5000 C   0  0  0  0  0  0
    3.7140  -38.4160   22.2530 C   0  0  0  0  0  0
    4.7770  -37.5450   22.0930 N   0  0  0  0  0  0
    4.8590  -36.3330   22.7490 C   0  0  0  0  0  0
    3.8370  -35.9580   23.6240 C   0  0  0  0  0  0
    2.7420  -36.8290   23.8190 C   0  0  0  0  0  0
    2.6500  -38.0690   23.1240 C   0  0  0  0  0  0
    1.8120  -36.4960   24.8030 O   0  0  0  0  0  0
    0.8440  -35.5180   24.4280 C   0  0  0  0  0  0
    0.0820  -35.0560   25.6660 C   0  0  0  0  0  0
    1.5450  -38.8370   23.2280 F   0  0  0  0  0  0
   -0.6936  -36.8864   22.2677 H   0  0  0  0  0  0
   -2.7243  -35.7966   18.6047 H   0  0  0  0  0  0
   -0.8676  -36.7425   17.2711 H   0  0  0  0  0  0
    0.7384  -38.6445   17.4025 H   0  0  0  0  0  0
    3.2299  -37.4869   20.0884 H   0  0  0  0  0  0
    1.9489  -40.0429   20.4491 H   0  0  0  0  0  0
    3.4331  -40.4143   19.5078 H   0  0  0  0  0  0
    3.3915  -40.5196   22.1583 H   0  0  0  0  0  0
    4.8360  -39.9339   21.2655 H   0  0  0  0  0  0
    5.7128  -35.6753   22.5857 H   0  0  0  0  0  0
    3.8837  -35.0046   24.1502 H   0  0  0  0  0  0
    1.3515  -34.6576   23.9675 H   0  0  0  0  0  0
    0.1394  -35.9573   23.7065 H   0  0  0  0  0  0
   -0.6646  -34.3017   25.3767 H   0  0  0  0  0  0
    0.7866  -34.6167   26.3875 H   0  0  0  0  0  0
   -0.4255  -35.9165   26.1265 H   0  0  0  0  0  0
  1  2  2  0  0  0
  1  6  1  0  0  0
  1  9  1  0  0  0
  2  3  1  0  0  0
  3  4  2  0  0  0
  3 25  1  0  0  0
  4  5  1  0  0  0
  4  7  1  0  0  0
  5  6  2  0  0  0
  5 26  1  0  0  0
  6 27  1  0  0  0
  7  8  3  0  0  0
  9 10  1  0  0  0
  9 28  1  0  0  0
 10 11  2  0  0  0
 10 12  1  0  0  0
 12 13  1  0  0  0
 12 29  1  0  0  0
 13 14  1  0  0  0
 13 30  1  0  0  0
 13 31  1  0  0  0
 14 15  1  0  0  0
 14 32  1  0  0  0
 14 33  1  0  0  0
 15 16  2  0  0  0
 15 20  1  0  0  0
 16 17  1  0  0  0
 17 18  2  0  0  0
 17 34  1  0  0  0
 18 19  1  0  0  0
 18 35  1  0  0  0
 19 20  2  0  0  0
 19 21  1  0  0  0
 20 24  1  0  0  0
 21 22  1  0  0  0
 22 23  1  0  0  0
 22 36  1  0  0  0
 22 37  1  0  0  0
 23 38  1  0  0  0
 23 39  1  0  0  0
 23 40  1  0  0  0
M  END
> <s_m_source_file>
../1dtq_ligand.sdf

> <i_m_source_file_index>
1

> <s_epik_input>
W2NIXTFbY0hdYyhDI04pW2NIXW5jMVtOSF1DKD1TKVtOSF1bQ0gyXVtDSDJdYzJuW2NIXVtjSF1jKGMyRilPW0NIMl1bQ0gzXQ==

> <s_epik_cmdline>
J2VwaWtfYXBwJywgJy1pbWFlJywgJ2xpZ2FuZF9wcm8ubWFlJywgJy1vbWFlJywgJ2xpZ2FuZF9wcmVwLm1hZScsICctbXMnLCAnMScsICctcGgnLCAnNycsICctcGh0JywgJzAuNScsICctbnQn

> <r_epik_Ionization_Penalty>
  0.0488

> <r_epik_Ionization_Penalty_Charging>
  0.0000

> <r_epik_Ionization_Penalty_Neutral>
  0.0488

> <r_epik_State_Penalty>
  0.0416

> <r_epik_Charging_Adjusted_Penalty>
0.041624235365888

> <i_epik_Tot_Q>
0

> <i_epik_Tot_abs_Q>
0

$$$$
