1dub_ligand
                    3D
 Schrodinger Suite 2020-3.
 90 92  0  0  1  0            999 V2000
   57.4910  105.7980  182.3710 N   0  0  0  0  0  0
   56.7250  105.8160  183.4260 C   0  0  0  0  0  0
   56.0510  106.8060  183.9620 N   0  0  0  0  0  0
   56.2300  107.9470  183.2460 C   0  0  0  0  0  0
   56.9900  108.0800  182.1280 C   0  0  0  0  0  0
   57.6650  106.9200  181.6700 C   0  0  0  0  0  0
   58.4440  106.8910  180.6030 N   0  0  0  0  0  0
   56.9480  109.3670  181.6640 N   0  0  0  0  0  0
   56.1610  109.9940  182.5080 C   0  0  0  0  0  0
   55.6800  109.1750  183.5050 N   0  0  0  0  0  0
   54.7890  109.4960  184.6410 C   0  0  1  0  0  0
   55.5150  110.5250  185.5470 C   0  0  2  0  0  0
   56.4540  109.8890  186.4700 O   0  0  0  0  0  0
   54.3430  111.1570  186.2880 C   0  0  2  0  0  0
   53.7580  110.1900  187.1500 O   0  0  0  0  0  0
   53.7980  110.4310  188.6590 P   0  0  0  0  0  0
   55.0160  109.7280  189.2650 O   0  5  0  0  0  0
   53.8980  111.9330  188.9680 O   0  5  0  0  0  0
   52.5190  109.8420  189.2500 O   0  0  0  0  0  0
   53.4020  111.3340  185.1060 C   0  0  2  0  0  0
   53.6190  110.2170  184.2260 O   0  0  0  0  0  0
   53.7080  112.6160  184.4030 C   0  0  0  0  0  0
   55.0730  112.7900  184.2300 O   0  0  0  0  0  0
   55.7000  114.1300  184.5250 P   0  0  1  0  0  0
   55.2040  114.5910  185.9110 O   0  0  0  0  0  0
   57.2430  113.9700  184.5450 O   0  5  0  0  0  0
   55.2600  115.1450  183.4480 O   0  0  0  0  0  0
   55.9900  116.4060  182.9150 P   0  0  1  0  0  0
   54.9760  117.2640  182.1220 O   0  5  0  0  0  0
   56.5600  117.2390  184.0850 O   0  0  0  0  0  0
   57.1560  116.0090  181.9760 O   0  0  0  0  0  0
   58.0160  114.4120  180.2830 C   0  0  0  0  0  0
   56.8890  115.3340  180.7350 C   0  0  0  0  0  0
   59.1580  115.2540  179.7160 C   0  0  0  0  0  0
   57.4840  113.4780  179.1730 C   0  0  0  0  0  0
   58.4860  113.6180  181.5350 C   0  0  1  0  0  0
   57.4920  112.6410  181.9620 O   0  0  0  0  0  0
   59.7190  112.7580  181.3550 C   0  0  0  0  0  0
   60.8320  113.2380  181.2030 O   0  0  0  0  0  0
   59.4860  111.3670  181.3470 N   0  0  0  0  0  0
   60.5020  110.4350  181.1190 C   0  0  0  0  0  0
   60.3060  109.7240  179.7950 C   0  0  0  0  0  0
   61.5300  108.9570  179.3120 C   0  0  0  0  0  0
   62.6640  109.1700  179.6930 O   0  0  0  0  0  0
   61.1540  107.9720  178.4140 N   0  0  0  0  0  0
   62.0320  107.0630  177.8190 C   0  0  0  0  0  0
   62.6750  106.1990  178.8450 C   0  0  0  0  0  0
   62.8650  104.3850  178.5860 S   0  0  0  0  0  0
   62.2910  103.7670  177.0400 C   0  0  0  0  0  0
   61.8690  104.5480  176.1990 O   0  0  0  0  0  0
   62.7220  102.3900  176.6700 C   0  0  0  0  0  0
   62.7730  101.8920  175.2780 C   0  0  0  0  0  0
   62.5320  102.5930  174.3500 O   0  0  0  0  0  0
   63.1150  100.4880  174.8800 C   0  0  0  0  0  0
   56.6298  104.8609  183.9426 H   0  0  0  0  0  0
   58.9363  105.9530  180.3068 H   0  0  0  0  0  0
   58.6002  107.8049  180.0110 H   0  0  0  0  0  0
   55.9142  111.0527  182.4276 H   0  0  0  0  0  0
   54.4874  108.5318  185.0762 H   0  0  0  0  0  0
   56.1741  111.2350  185.0260 H   0  0  0  0  0  0
   57.3533  109.3886  186.0816 H   0  0  0  0  0  0
   54.5582  112.0216  186.9331 H   0  0  0  0  0  0
   52.3411  111.3427  185.3966 H   0  0  0  0  0  0
   53.2299  112.6141  183.4123 H   0  0  0  0  0  0
   53.3226  113.4596  184.9945 H   0  0  0  0  0  0
   55.9842  114.7173  180.8403 H   0  0  0  0  0  0
   56.7354  116.0774  179.9389 H   0  0  0  0  0  0
   58.8033  115.8058  178.8330 H   0  0  0  0  0  0
   59.9905  114.5956  179.4270 H   0  0  0  0  0  0
   59.5023  115.9667  180.4798 H   0  0  0  0  0  0
   57.1637  114.0798  178.3097 H   0  0  0  0  0  0
   56.6284  112.9028  179.5567 H   0  0  0  0  0  0
   58.2811  112.7865  178.8625 H   0  0  0  0  0  0
   58.6592  114.4002  182.2887 H   0  0  0  0  0  0
   56.4627  112.9625  182.1792 H   0  0  0  0  0  0
   58.4566  111.0249  181.5297 H   0  0  0  0  0  0
   61.4741  110.9495  181.1006 H   0  0  0  0  0  0
   60.4992  109.6852  181.9239 H   0  0  0  0  0  0
   59.4851  108.9976  179.8869 H   0  0  0  0  0  0
   60.0583  110.4605  179.0164 H   0  0  0  0  0  0
   60.0803  107.9347  178.1778 H   0  0  0  0  0  0
   61.4776  106.4246  177.1154 H   0  0  0  0  0  0
   62.8159  107.6118  177.2765 H   0  0  0  0  0  0
   63.7070  106.5391  179.0162 H   0  0  0  0  0  0
   62.1075  106.2618  179.7852 H   0  0  0  0  0  0
   63.7556  102.2259  177.0088 H   0  0  0  0  0  0
   62.0578  101.6564  177.1503 H   0  0  0  0  0  0
   63.3266   99.8928  175.7806 H   0  0  0  0  0  0
   64.0021  100.4970  174.2296 H   0  0  0  0  0  0
   62.2673  100.0438  174.3378 H   0  0  0  0  0  0
  1  2  1  0  0  0
  1  6  2  0  0  0
  2  3  2  0  0  0
  2 55  1  0  0  0
  3  4  1  0  0  0
  4  5  2  0  0  0
  4 10  1  0  0  0
  5  6  1  0  0  0
  5  8  1  0  0  0
  6  7  1  0  0  0
  7 56  1  0  0  0
  7 57  1  0  0  0
  8  9  2  0  0  0
  9 10  1  0  0  0
  9 58  1  0  0  0
 10 11  1  0  0  0
 11 12  1  0  0  0
 11 21  1  0  0  0
 11 59  1  0  0  0
 12 13  1  0  0  0
 12 14  1  0  0  0
 12 60  1  0  0  0
 13 61  1  0  0  0
 14 15  1  0  0  0
 14 20  1  0  0  0
 14 62  1  0  0  0
 15 16  1  0  0  0
 16 17  1  0  0  0
 16 18  1  0  0  0
 16 19  2  0  0  0
 20 21  1  0  0  0
 20 22  1  0  0  0
 20 63  1  0  0  0
 22 23  1  0  0  0
 22 64  1  0  0  0
 22 65  1  0  0  0
 23 24  1  0  0  0
 24 25  2  0  0  0
 24 26  1  0  0  0
 24 27  1  0  0  0
 27 28  1  0  0  0
 28 29  1  0  0  0
 28 30  2  0  0  0
 28 31  1  0  0  0
 31 33  1  0  0  0
 32 33  1  0  0  0
 32 34  1  0  0  0
 32 35  1  0  0  0
 32 36  1  0  0  0
 33 66  1  0  0  0
 33 67  1  0  0  0
 34 68  1  0  0  0
 34 69  1  0  0  0
 34 70  1  0  0  0
 35 71  1  0  0  0
 35 72  1  0  0  0
 35 73  1  0  0  0
 36 37  1  0  0  0
 36 38  1  0  0  0
 36 74  1  0  0  0
 37 75  1  0  0  0
 38 39  2  0  0  0
 38 40  1  0  0  0
 40 41  1  0  0  0
 40 76  1  0  0  0
 41 42  1  0  0  0
 41 77  1  0  0  0
 41 78  1  0  0  0
 42 43  1  0  0  0
 42 79  1  0  0  0
 42 80  1  0  0  0
 43 44  2  0  0  0
 43 45  1  0  0  0
 45 46  1  0  0  0
 45 81  1  0  0  0
 46 47  1  0  0  0
 46 82  1  0  0  0
 46 83  1  0  0  0
 47 48  1  0  0  0
 47 84  1  0  0  0
 47 85  1  0  0  0
 48 49  1  0  0  0
 49 50  2  0  0  0
 49 51  1  0  0  0
 51 52  1  0  0  0
 51 86  1  0  0  0
 51 87  1  0  0  0
 52 53  2  0  0  0
 52 54  1  0  0  0
 54 88  1  0  0  0
 54 89  1  0  0  0
 54 90  1  0  0  0
M  CHG  4  17  -1  18  -1  26  -1  29  -1
M  END
> <s_m_source_file>
../1dub_ligand.sdf

> <i_m_source_file_index>
1

> <s_epik_input>
bjFbY0hdbmMoW05IMl0pYyhjMTIpbltjSF1uMltDQEhdM1tDQEhdKFtPSF0pW0NASF0oT1AoPU8pKFtPSF0pW09IXSlbQ0BIXShPMylbQ0gyXU9bUEBAXSg9TykoW09IXSlPW1BAXSg9TykoW09IXSlPW0NIMl1DKFtDSDNdKShbQ0gzXSlbQ0BASF0oW09IXSlDKD1PKVtOSF1bQ0gyXVtDSDJdQyg9TylbTkhdW0NIMl1bQ0gyXVNDKD1PKVtDSDJdQyg9TylbQ0gzXQ==

> <s_epik_cmdline>
J2VwaWtfYXBwJywgJy1pbWFlJywgJ2xpZ2FuZF9wcm8ubWFlJywgJy1vbWFlJywgJ2xpZ2FuZF9wcmVwLm1hZScsICctbXMnLCAnMScsICctcGgnLCAnNycsICctcGh0JywgJzAuNScsICctbnQn

> <r_lp_tautomer_probability>
0.9999971864111

> <r_epik_Ionization_Penalty>
  0.1769

> <r_epik_Ionization_Penalty_Charging>
  0.0752

> <r_epik_Ionization_Penalty_Neutral>
  0.1017

> <r_epik_State_Penalty>
  0.1479

> <r_epik_Charging_Adjusted_Penalty>
0.22306590826924

> <i_epik_Tot_Q>
-4

> <i_epik_Tot_abs_Q>
4

> <s_epik_Chemistry_Notes>
This compound contains an acetal/aminal-like group ( X-CH(R)-Y where X, Y are N, S, or O) that may be acid/base labile, releasing an aldehyde.

$$$$
