1duv_ligand
                    3D
 Schrodinger Suite 2020-3.
 30 29  0  0  1  0            999 V2000
   27.6570   16.4910   23.5070 S   0  0  0  0  0  0
   27.3000   17.2980   22.2810 O   0  0  0  0  0  0
   28.7920   15.7870   23.4180 O   0  0  0  0  0  0
   27.7220   17.4660   24.7420 O   0  5  0  0  0  0
   26.3190   14.3010   24.8570 P   0  0  1  0  0  0
   24.6690   13.8230   24.8630 N   0  0  0  0  0  0
   26.6320   14.7490   26.2730 O   0  0  0  0  0  0
   27.4460   13.2060   24.4900 N   0  0  1  0  0  0
   31.1920    9.3800   24.6430 C   0  0  0  0  0  0
   31.7350    9.7760   23.5750 O   0  5  0  0  0  0
   31.8020    9.3970   25.7440 O   0  0  0  0  0  0
   29.7540    8.8020   24.5930 C   0  0  2  0  0  0
   28.6760    9.7060   25.2530 C   0  0  0  0  0  0
   28.5300   11.1030   24.6040 C   0  0  0  0  0  0
   27.4790   11.9640   25.2980 C   0  0  0  0  0  0
   26.3940   15.5350   23.7070 N   0  5  0  0  0  0
   29.7720    7.4710   25.2470 N   0  3  0  0  0  0
   24.1242   13.8816   25.7233 H   0  0  0  0  0  0
   24.2341   13.4806   24.0062 H   0  0  0  0  0  0
   27.3097   12.8739   23.4502 H   0  0  0  0  0  0
   29.4619    8.6853   23.5389 H   0  0  0  0  0  0
   27.6938    9.2156   25.1838 H   0  0  0  0  0  0
   28.9311    9.8683   26.3106 H   0  0  0  0  0  0
   29.4916   11.6345   24.6575 H   0  0  0  0  0  0
   28.2322   10.9889   23.5512 H   0  0  0  0  0  0
   27.7594   12.2075   26.3334 H   0  0  0  0  0  0
   26.4846   11.4938   25.2884 H   0  0  0  0  0  0
   30.5378    6.8397   24.7726 H   0  0  0  0  0  0
   28.7860    6.9956   25.1382 H   0  0  0  0  0  0
   30.0055    7.5905   26.3153 H   0  0  0  0  0  0
  1 16  1  0  0  0
  1  4  1  0  0  0
  1  3  2  0  0  0
  1  2  2  0  0  0
  5 16  1  0  0  0
  5  8  1  0  0  0
  5  7  2  0  0  0
  5  6  1  0  0  0
  6 18  1  0  0  0
  6 19  1  0  0  0
  8 15  1  0  0  0
  8 20  1  0  0  0
  9 12  1  0  0  0
  9 11  2  0  0  0
  9 10  1  0  0  0
 12 13  1  0  0  0
 12 17  1  0  0  0
 12 21  1  0  0  0
 13 14  1  0  0  0
 13 22  1  0  0  0
 13 23  1  0  0  0
 14 15  1  0  0  0
 14 24  1  0  0  0
 14 25  1  0  0  0
 15 26  1  0  0  0
 15 27  1  0  0  0
 17 28  1  0  0  0
 17 29  1  0  0  0
 17 30  1  0  0  0
M  CHG  4   4  -1  10  -1  16  -1  17   1
M  END
> <s_m_source_file>
../1duv_ligand.sdf

> <i_m_source_file_index>
1

> <s_epik_input>
Tz1TKD1PKShbT0hdKVtOSF1bUEBAXSg9TykoW05IMl0pW05IXVtDSDJdW0NIMl1bQ0gyXVtDQEhdKFtOSDMrXSlDKD1PKVtPSF0=

> <s_epik_cmdline>
J2VwaWtfYXBwJywgJy1pbWFlJywgJ2xpZ2FuZF9wcm8ubWFlJywgJy1vbWFlJywgJ2xpZ2FuZF9wcmVwLm1hZScsICctbXMnLCAnMScsICctcGgnLCAnNycsICctcGh0JywgJzAuNScsICctbnQn

> <r_lp_tautomer_probability>
1

> <r_epik_Ionization_Penalty>
  0.0030

> <r_epik_Ionization_Penalty_Charging>
  0.0029

> <r_epik_Ionization_Penalty_Neutral>
  0.0001

> <r_epik_State_Penalty>
 -0.0000

> <r_epik_Charging_Adjusted_Penalty>
0.00289174068478547

> <i_epik_Tot_Q>
-2

> <i_epik_Tot_abs_Q>
4

$$$$
