1dwc_ligand
                    3D
 Schrodinger Suite 2020-3.
 71 73  0  0  1  0            999 V2000
   29.5620   11.9600   25.3330 C   0  0  0  0  0  0
   29.3790   11.3580   24.1210 C   0  0  0  0  0  0
   30.1090   10.2040   23.8000 C   0  0  0  0  0  0
   31.0580    9.6760   24.6800 C   0  0  0  0  0  0
   31.3110   10.3570   25.8650 C   0  0  0  0  0  0
   32.2630    9.8270   26.8440 C   0  0  0  0  0  0
   32.8640   10.9560   27.6000 C   0  0  1  0  0  0
   31.7960   11.7570   28.2400 C   0  0  0  0  0  0
   30.8260   12.2470   27.3000 N   0  0  0  0  0  0
   30.5960   11.5460   26.2180 C   0  0  0  0  0  0
   28.7520   13.5130   25.6380 S   0  0  0  0  0  0
   29.7320   14.8200   25.1830 N   0  0  3  0  0  0
   30.4930   14.8340   23.9360 C   0  0  2  0  0  0
   31.8340   14.1520   24.1210 C   0  0  0  0  0  0
   32.5200   14.2960   25.1110 O   0  0  0  0  0  0
   30.7090   16.2410   23.4460 C   0  0  0  0  0  0
   30.9130   17.1700   24.5960 C   0  0  0  0  0  0
   31.3610   18.5140   24.0090 C   0  0  0  0  0  0
   31.5800   19.5010   25.0670 N   0  0  0  0  0  0
   32.8380   19.8780   25.3590 C   0  0  0  0  0  0
   33.8690   19.3020   24.6870 N   0  0  0  0  0  0
   33.0480   20.7010   26.4060 N   0  3  0  0  0  0
   33.7940   10.4240   28.6730 C   0  0  0  0  0  0
   28.5540   13.6490   27.0570 O   0  0  0  0  0  0
   27.6690   13.3990   24.6800 O   0  0  0  0  0  0
   32.3370   13.5310   23.0090 N   0  0  0  0  0  0
   31.6320   13.5940   21.7350 C   0  0  2  0  0  0
   31.5630   12.2080   21.0910 C   0  0  0  0  0  0
   32.9310   11.6240   21.0310 C   0  0  1  0  0  0
   33.5710   11.5970   22.4090 C   0  0  0  0  0  0
   33.6280   12.9300   23.0790 C   0  0  0  0  0  0
   32.2420   14.6520   20.8170 C   0  0  0  0  0  0
   31.8780   14.5770   19.6490 O   0  5  0  0  0  0
   32.5180   15.7230   21.3050 O   0  0  0  0  0  0
   32.8000   10.2190   20.4830 C   0  0  0  0  0  0
   28.6685   11.7726   23.4059 H   0  0  0  0  0  0
   29.9326    9.7090   22.8450 H   0  0  0  0  0  0
   31.5867    8.7528   24.4428 H   0  0  0  0  0  0
   31.7384    9.1547   27.5388 H   0  0  0  0  0  0
   33.0542    9.2694   26.3214 H   0  0  0  0  0  0
   33.4119   11.5936   26.8905 H   0  0  0  0  0  0
   31.2649   11.1373   28.9775 H   0  0  0  0  0  0
   32.2423   12.6263   28.7451 H   0  0  0  0  0  0
   30.2964   13.1907   27.4977 H   0  0  0  0  0  0
   29.9055   15.5971   25.9420 H   0  0  0  0  0  0
   29.8779   14.2846   23.2081 H   0  0  0  0  0  0
   31.5988   16.2717   22.7999 H   0  0  0  0  0  0
   29.8288   16.5691   22.8736 H   0  0  0  0  0  0
   29.9687   17.2817   25.1491 H   0  0  0  0  0  0
   31.6839   16.7609   25.2656 H   0  0  0  0  0  0
   32.3010   18.3768   23.4544 H   0  0  0  0  0  0
   30.5853   18.8934   23.3276 H   0  0  0  0  0  0
   30.7224   19.9237   25.6109 H   0  0  0  0  0  0
   33.6666   18.6346   23.8363 H   0  0  0  0  0  0
   34.9061   19.5031   24.9937 H   0  0  0  0  0  0
   32.1932   21.1527   26.9306 H   0  0  0  0  0  0
   34.5907    9.8274   28.2048 H   0  0  0  0  0  0
   33.2250    9.7924   29.3711 H   0  0  0  0  0  0
   34.2408   11.2663   29.2215 H   0  0  0  0  0  0
   30.6071   13.9156   21.9719 H   0  0  0  0  0  0
   30.9109   11.5567   21.6915 H   0  0  0  0  0  0
   31.1557   12.2965   20.0730 H   0  0  0  0  0  0
   33.5611   12.2460   20.3782 H   0  0  0  0  0  0
   32.9971   10.9277   23.0668 H   0  0  0  0  0  0
   34.6051   11.2313   22.3259 H   0  0  0  0  0  0
   34.3602   13.5737   22.5696 H   0  0  0  0  0  0
   33.9185   12.8069   24.1328 H   0  0  0  0  0  0
   32.3357   10.2559   19.4865 H   0  0  0  0  0  0
   32.1720    9.6192   21.1582 H   0  0  0  0  0  0
   33.7971    9.7610   20.4062 H   0  0  0  0  0  0
   34.0742   20.9208   26.7356 H   0  0  0  0  0  0
  1  2  2  0  0  0
  1 10  1  0  0  0
  1 11  1  0  0  0
  2  3  1  0  0  0
  2 36  1  0  0  0
  3  4  2  0  0  0
  3 37  1  0  0  0
  4  5  1  0  0  0
  4 38  1  0  0  0
  5  6  1  0  0  0
  5 10  2  0  0  0
  6  7  1  0  0  0
  6 39  1  0  0  0
  6 40  1  0  0  0
  7  8  1  0  0  0
  7 23  1  0  0  0
  7 41  1  0  0  0
  8  9  1  0  0  0
  8 42  1  0  0  0
  8 43  1  0  0  0
  9 10  1  0  0  0
  9 44  1  0  0  0
 11 12  1  0  0  0
 11 24  2  0  0  0
 11 25  2  0  0  0
 12 13  1  0  0  0
 12 45  1  0  0  0
 13 14  1  0  0  0
 13 16  1  0  0  0
 13 46  1  0  0  0
 14 15  2  0  0  0
 14 26  1  0  0  0
 16 17  1  0  0  0
 16 47  1  0  0  0
 16 48  1  0  0  0
 17 18  1  0  0  0
 17 49  1  0  0  0
 17 50  1  0  0  0
 18 19  1  0  0  0
 18 51  1  0  0  0
 18 52  1  0  0  0
 19 20  1  0  0  0
 19 53  1  0  0  0
 20 21  1  0  0  0
 20 22  2  0  0  0
 21 54  1  0  0  0
 21 55  1  0  0  0
 22 56  1  0  0  0
 22 71  1  0  0  0
 23 57  1  0  0  0
 23 58  1  0  0  0
 23 59  1  0  0  0
 26 27  1  0  0  0
 26 31  1  0  0  0
 27 28  1  0  0  0
 27 32  1  0  0  0
 27 60  1  0  0  0
 28 29  1  0  0  0
 28 61  1  0  0  0
 28 62  1  0  0  0
 29 30  1  0  0  0
 29 35  1  0  0  0
 29 63  1  0  0  0
 30 31  1  0  0  0
 30 64  1  0  0  0
 30 65  1  0  0  0
 31 66  1  0  0  0
 31 67  1  0  0  0
 32 33  1  0  0  0
 32 34  2  0  0  0
 35 68  1  0  0  0
 35 69  1  0  0  0
 35 70  1  0  0  0
M  CHG  2  22   1  33  -1
M  END
> <s_m_source_file>
../1dwc_ligand.sdf

> <i_m_source_file_index>
1

> <s_epik_input>
W0NIMl0xW0NASF0oW0NIM10pW0NIMl1bTkhdYyhjMTIpYyhbY0hdW2NIXVtjSF0yKVMoPU8pKD1PKVtOSF1bQ0BASF0oW0NIMl1bQ0gyXVtDSDJdW05IXS9DKFtOSDJdKT1OXFtIXSlDKD1PKU4zW0NAQEhdKEMoPU8pW09IXSlbQ0gyXVtDQEhdKFtDSDNdKVtDSDJdW0NIMl0z

> <s_epik_cmdline>
J2VwaWtfYXBwJywgJy1pbWFlJywgJ2xpZ2FuZF9wcm8ubWFlJywgJy1vbWFlJywgJ2xpZ2FuZF9wcmVwLm1hZScsICctbXMnLCAnMScsICctcGgnLCAnNycsICctcGh0JywgJzAuNScsICctbnQn

> <r_lp_tautomer_probability>
1

> <r_epik_Ionization_Penalty>
  0.0004

> <r_epik_Ionization_Penalty_Charging>
  0.0002

> <r_epik_Ionization_Penalty_Neutral>
  0.0002

> <r_epik_State_Penalty>
 -0.0000

> <r_epik_Charging_Adjusted_Penalty>
0.000187931198407019

> <i_epik_Tot_Q>
0

> <i_epik_Tot_abs_Q>
2

> <s_epik_Chemistry_Notes>
This compound has an imine and may undergo hydrolysis.

$$$$
