1dx6_ligand
                    3D
 Schrodinger Suite 2020-3.
 43 46  0  0  1  0            999 V2000
    2.4700   67.5340   63.2010 C   0  0  0  0  0  0
    2.5980   67.9070   61.9410 C   0  0  0  0  0  0
    3.9180   68.1530   61.2660 C   0  0  1  0  0  0
    5.1610   68.1640   62.2440 C   0  0  0  0  0  0
    5.0120   67.1520   63.4030 C   0  0  1  0  0  0
    3.6480   67.2060   64.1640 C   0  0  1  0  0  0
    5.1710   65.7760   62.8850 O   0  0  0  0  0  0
    4.5400   63.5580   63.7920 C   0  0  0  0  0  0
    3.6820   62.9140   64.7140 C   0  0  0  0  0  0
    2.8010   63.6430   65.5070 C   0  0  0  0  0  0
    1.7460   65.7880   66.3260 C   0  0  0  0  0  0
    2.3820   66.8880   67.1060 N   0  3  1  0  0  0
    2.5160   68.1600   66.3430 C   0  0  0  0  0  0
    3.7030   68.1500   65.3760 C   0  0  0  0  0  0
    4.4440   64.9750   63.7330 C   0  0  0  0  0  0
    3.5440   65.7100   64.5470 C   0  0  0  0  0  0
    2.7020   65.0540   65.4510 C   0  0  0  0  0  0
    5.4060   61.8070   62.3790 C   0  0  0  0  0  0
    5.6070   62.9560   63.1470 O   0  0  0  0  0  0
    4.1130   67.1290   60.3230 O   0  0  0  0  0  0
    1.6470   67.0900   68.4040 C   0  0  0  0  0  0
    1.4690   67.4344   63.6461 H   0  0  0  0  0  0
    1.7038   68.0561   61.3180 H   0  0  0  0  0  0
    3.8285   69.1080   60.7275 H   0  0  0  0  0  0
    6.0711   67.9047   61.6832 H   0  0  0  0  0  0
    5.2737   69.1665   62.6825 H   0  0  0  0  0  0
    5.8232   67.3901   64.1067 H   0  0  0  0  0  0
    3.7114   61.8282   64.8049 H   0  0  0  0  0  0
    2.1583   63.1033   66.2025 H   0  0  0  0  0  0
    1.3031   65.0565   67.0179 H   0  0  0  0  0  0
    0.9593   66.2042   65.6796 H   0  0  0  0  0  0
    3.4165   66.5752   67.3109 H   0  0  0  0  0  0
    1.6036   68.3315   65.7530 H   0  0  0  0  0  0
    2.6613   68.9948   67.0444 H   0  0  0  0  0  0
    4.5732   67.8962   65.9992 H   0  0  0  0  0  0
    3.7924   69.1895   65.0274 H   0  0  0  0  0  0
    6.3648   61.4802   61.9503 H   0  0  0  0  0  0
    4.6976   62.0280   61.5670 H   0  0  0  0  0  0
    4.9972   61.0079   63.0148 H   0  0  0  0  0  0
    3.3584   66.9483   59.5433 H   0  0  0  0  0  0
    1.5699   66.1297   68.9350 H   0  0  0  0  0  0
    0.6382   67.4770   68.1977 H   0  0  0  0  0  0
    2.1959   67.8109   69.0278 H   0  0  0  0  0  0
  1  2  2  0  0  0
  1  6  1  0  0  0
  1 22  1  0  0  0
  2  3  1  0  0  0
  2 23  1  0  0  0
  3  4  1  0  0  0
  3 20  1  0  0  0
  3 24  1  0  0  0
  4  5  1  0  0  0
  4 25  1  0  0  0
  4 26  1  0  0  0
  5  6  1  0  0  0
  5  7  1  0  0  0
  5 27  1  0  0  0
  6 14  1  0  0  0
  6 16  1  0  0  0
  7 15  1  0  0  0
  8  9  2  0  0  0
  8 15  1  0  0  0
  8 19  1  0  0  0
  9 10  1  0  0  0
  9 28  1  0  0  0
 10 17  2  0  0  0
 10 29  1  0  0  0
 11 12  1  0  0  0
 11 17  1  0  0  0
 11 30  1  0  0  0
 11 31  1  0  0  0
 12 13  1  0  0  0
 12 21  1  0  0  0
 12 32  1  0  0  0
 13 14  1  0  0  0
 13 33  1  0  0  0
 13 34  1  0  0  0
 14 35  1  0  0  0
 14 36  1  0  0  0
 15 16  2  0  0  0
 16 17  1  0  0  0
 18 19  1  0  0  0
 18 37  1  0  0  0
 18 38  1  0  0  0
 18 39  1  0  0  0
 20 40  1  0  0  0
 21 41  1  0  0  0
 21 42  1  0  0  0
 21 43  1  0  0  0
M  CHG  1  12   1
M  END
> <s_m_source_file>
../1dx6_ligand.sdf

> <i_m_source_file_index>
1

> <s_epik_input>
W0NIXTE9W0NIXVtDQEhdKFtPSF0pW0NIMl1bQ0BASF0oW0NAXTEyMylPYzRjM2MoW0NIMl1bTkBIK10oW0NIM10pW0NIMl1bQ0gyXTIpW2NIXVtjSF1jNE9bQ0gzXQ==

> <s_epik_cmdline>
J2VwaWtfYXBwJywgJy1pbWFlJywgJ2xpZ2FuZF9wcm8ubWFlJywgJy1vbWFlJywgJ2xpZ2FuZF9wcmVwLm1hZScsICctbXMnLCAnMScsICctcGgnLCAnNycsICctcGh0JywgJzAuNScsICctbnQn

> <r_lp_tautomer_probability>
1

> <r_epik_Ionization_Penalty>
  0.0211

> <r_epik_Ionization_Penalty_Charging>
  0.0211

> <r_epik_Ionization_Penalty_Neutral>
  0.0000

> <r_epik_State_Penalty>
  0.0169

> <r_epik_Charging_Adjusted_Penalty>
0.0379604800893199

> <i_epik_Tot_Q>
1

> <i_epik_Tot_abs_Q>
1

$$$$
