1dxp_ligand
                    3D
 Schrodinger Suite 2020-3.
187186  0  0  1  0            999 V2000
   -8.8030   14.6150   11.1730 N   0  3  0  0  0  0
   -7.6930   14.7600   10.1630 C   0  0  0  0  0  0
   -6.7720   15.9210   10.5540 C   0  0  0  0  0  0
   -7.2060   17.0700   10.6690 O   0  0  0  0  0  0
   -5.5350   15.6400   10.8980 N   0  0  0  0  0  0
   -4.6070   16.5720   11.5240 C   0  0  2  0  0  0
   -3.6860   17.2890   10.5150 C   0  0  0  0  0  0
   -3.3690   16.6710    9.4700 O   0  0  0  0  0  0
   -3.6700   15.7560   12.4040 C   0  0  0  0  0  0
   -3.9300   15.7970   13.7820 O   0  0  0  0  0  0
   -3.3740   18.5690   10.7370 N   0  0  0  0  0  0
   -2.5120   19.2870    9.7870 C   0  0  2  0  0  0
   -1.0940   18.7280    9.9730 C   0  0  0  0  0  0
   -0.7400   18.3450   11.0830 O   0  0  0  0  0  0
   -2.4550   20.8060    9.9410 C   0  0  0  0  0  0
   -1.5140   21.4390    8.9140 C   0  0  0  0  0  0
   -3.8320   21.4600    9.8030 C   0  0  0  0  0  0
   -0.2730   18.6510    8.9300 N   0  0  0  0  0  0
    1.0440   18.0040    9.0850 C   0  0  2  0  0  0
    2.2040   18.8800    8.6360 C   0  0  0  0  0  0
    2.2290   19.5060    7.5730 O   0  0  0  0  0  0
    1.1240   16.6950    8.2730 C   0  0  0  0  0  0
    2.3670   15.9130    8.6750 C   0  0  0  0  0  0
   -0.1510   15.8590    8.4410 C   0  0  0  0  0  0
    3.1950   19.0080    9.5070 N   0  0  0  0  0  0
    4.4530   19.6540    9.1480 C   0  0  2  0  0  0
    5.1960   18.8210    8.1240 C   0  0  0  0  0  0
    5.8400   17.8570    8.5280 O   0  0  0  0  0  0
    5.3210   19.8700   10.4100 C   0  0  2  0  0  0
    4.5920   20.8970   11.3140 C   0  0  0  0  0  0
    6.6940   20.3560   10.0630 C   0  0  0  0  0  0
    5.4280   21.2250   12.5580 C   0  0  0  0  0  0
    5.1500   19.1500    6.8410 N   0  0  0  0  0  0
    5.8810   18.4200    5.8150 C   0  0  2  0  0  0
    7.2460   19.0070    5.4980 C   0  0  0  0  0  0
    7.9300   18.4900    4.6230 O   0  0  0  0  0  0
    5.1450   18.3410    4.4500 C   0  0  0  0  0  0
    3.7340   17.8230    4.7090 C   0  0  0  0  0  0
    5.0740   19.6490    3.7190 C   0  0  0  0  0  0
    7.6700   20.0720    6.1620 N   0  0  0  0  0  0
    8.9980   20.6240    5.9280 C   0  0  0  0  0  0
    9.1230   21.9680    6.6320 C   0  0  0  0  0  0
    8.1360   22.3630    7.2070 O   0  0  0  0  0  0
   10.2280   22.6830    6.5060 N   0  0  0  0  0  0
   10.4670   23.9090    7.2330 C   0  0  2  0  0  0
   11.3990   24.8720    6.4840 C   0  0  0  0  0  0
   12.1500   24.5460    5.5690 O   0  0  0  0  0  0
   11.0250   23.6490    8.6190 C   0  0  0  0  0  0
   12.5370   23.4060    8.7000 C   0  0  0  0  0  0
   12.8200   21.9630    8.3080 C   0  0  0  0  0  0
   13.9970   21.4490    8.9750 N   0  0  0  0  0  0
   14.1820   20.8030   10.1110 C   0  0  0  0  0  0
   13.2160   20.4520   10.9630 N   0  0  0  0  0  0
   15.4650   20.5140   10.3460 N   0  0  0  0  0  0
   11.3110   26.1340    6.8920 N   0  0  0  0  0  0
   12.0610   27.2280    6.2990 C   0  0  2  0  0  0
   12.8880   27.9260    7.3770 C   0  0  0  0  0  0
   12.3900   28.3740    8.3990 O   0  0  0  0  0  0
   11.2270   28.2810    5.5470 C   0  0  2  0  0  0
   10.6260   27.6560    4.2770 C   0  0  0  0  0  0
   12.1350   29.4470    5.1680 C   0  0  0  0  0  0
    9.3390   28.3370    3.8640 C   0  0  0  0  0  0
   14.1960   27.8670    7.1620 N   0  0  0  0  0  0
   15.1670   28.4420    8.0840 C   0  0  2  0  0  0
   15.5590   29.8720    7.7070 C   0  0  0  0  0  0
   15.9540   30.2390    6.5920 O   0  0  0  0  0  0
   16.4430   27.5790    8.1070 C   0  0  2  0  0  0
   16.0600   26.1400    8.4760 C   0  0  0  0  0  0
   17.4870   28.1890    9.0330 C   0  0  0  0  0  0
   15.3140   26.0480    9.7820 C   0  0  0  0  0  0
   15.4340   30.7540    8.6940 N   0  0  0  0  0  0
   15.6010   32.1840    8.4780 C   0  0  2  0  0  0
   16.9390   32.7720    8.9120 C   0  0  0  0  0  0
   17.6020   32.4520    9.8920 O   0  0  0  0  0  0
   14.4890   32.9870    9.1530 C   0  0  0  0  0  0
   13.6170   33.8500    8.2430 C   0  0  0  0  0  0
   13.2600   33.1720    6.9330 C   0  0  0  0  0  0
   12.3520   34.2390    8.9980 C   0  0  0  0  0  0
   17.3380   33.7510    8.1040 N   0  0  0  0  0  0
   18.7140   34.2360    8.1000 C   0  0  2  0  0  0
   18.8090   35.7610    8.1090 C   0  0  0  0  0  0
   18.4150   36.3390    7.0700 O   0  0  0  0  0  0
   19.4510   33.7340    6.8570 C   0  0  0  0  0  0
   20.8430   33.9260    6.9830 O   0  0  0  0  0  0
   19.2808   36.4330    9.1553 O   0  0  0  0  0  0
   -9.4567   13.7795   10.8820 H   0  0  0  0  0  0
   -9.3900   15.5446   11.2087 H   0  0  0  0  0  0
   -8.3721   14.4151   12.1652 H   0  0  0  0  0  0
   -7.1060   13.8304   10.1273 H   0  0  0  0  0  0
   -8.1238   14.9599    9.1708 H   0  0  0  0  0  0
   -5.2161   14.6104   10.6785 H   0  0  0  0  0  0
   -5.2543   17.2896   12.0495 H   0  0  0  0  0  0
   -3.7248   14.6963   12.1141 H   0  0  0  0  0  0
   -2.6392   16.1181   12.2766 H   0  0  0  0  0  0
   -3.2938   15.2316   14.4788 H   0  0  0  0  0  0
   -3.7604   19.0856   11.6279 H   0  0  0  0  0  0
   -2.9775   19.1032    8.8074 H   0  0  0  0  0  0
   -2.0750   20.9848   10.9577 H   0  0  0  0  0  0
   -0.5176   20.9807    8.9983 H   0  0  0  0  0  0
   -1.4378   22.5198    9.1038 H   0  0  0  0  0  0
   -1.9102   21.2715    7.9016 H   0  0  0  0  0  0
   -4.5234   21.0168   10.5348 H   0  0  0  0  0  0
   -4.2173   21.2924    8.7864 H   0  0  0  0  0  0
   -3.7449   22.5407    9.9886 H   0  0  0  0  0  0
   -0.5706   19.0661    7.9558 H   0  0  0  0  0  0
    1.1031   17.8399   10.1711 H   0  0  0  0  0  0
    1.2107   16.9343    7.2028 H   0  0  0  0  0  0
    3.2572   16.5450    8.5406 H   0  0  0  0  0  0
    2.4556   15.0159    8.0446 H   0  0  0  0  0  0
    2.2862   15.6131    9.7302 H   0  0  0  0  0  0
   -1.0240   16.4574    8.1412 H   0  0  0  0  0  0
   -0.2564   15.5586    9.4939 H   0  0  0  0  0  0
   -0.0869   14.9615    7.8083 H   0  0  0  0  0  0
    3.0504   18.6120   10.5230 H   0  0  0  0  0  0
    4.1835   20.6182    8.6922 H   0  0  0  0  0  0
    5.4860   18.9145   10.9294 H   0  0  0  0  0  0
    4.4202   21.8254   10.7495 H   0  0  0  0  0  0
    3.6266   20.4806   11.6374 H   0  0  0  0  0  0
    7.1942   19.6149    9.4223 H   0  0  0  0  0  0
    7.2771   20.4967   10.9851 H   0  0  0  0  0  0
    6.6194   21.3135    9.5267 H   0  0  0  0  0  0
    4.8886   21.9542   13.1804 H   0  0  0  0  0  0
    6.3941   21.6504   12.2488 H   0  0  0  0  0  0
    5.6006   20.3056   13.1367 H   0  0  0  0  0  0
    4.5275   20.0135    6.5636 H   0  0  0  0  0  0
    5.9609   17.4506    6.3287 H   0  0  0  0  0  0
    5.7100   17.6828    3.7736 H   0  0  0  0  0  0
    3.7881   16.8640    5.2450 H   0  0  0  0  0  0
    3.2148   17.6783    3.7501 H   0  0  0  0  0  0
    3.1815   18.5531    5.3187 H   0  0  0  0  0  0
    6.0924   20.0209    3.5332 H   0  0  0  0  0  0
    4.5221   20.3800    4.3282 H   0  0  0  0  0  0
    4.5554   19.5052    2.7596 H   0  0  0  0  0  0
    7.0019   20.5403    6.8998 H   0  0  0  0  0  0
    9.7572   19.9325    6.3224 H   0  0  0  0  0  0
    9.1529   20.7612    4.8476 H   0  0  0  0  0  0
   10.9861   22.3020    5.8059 H   0  0  0  0  0  0
    9.4543   24.3324    7.3059 H   0  0  0  0  0  0
   10.8198   24.5151    9.2653 H   0  0  0  0  0  0
   10.5485   22.7533    9.0441 H   0  0  0  0  0  0
   13.0556   24.0892    8.0113 H   0  0  0  0  0  0
   12.8833   23.5891    9.7279 H   0  0  0  0  0  0
   11.9619   21.3328    8.5848 H   0  0  0  0  0  0
   12.9834   21.9034    7.2218 H   0  0  0  0  0  0
   14.9886   21.5756    8.5160 H   0  0  0  0  0  0
   12.1686   20.7045   10.7412 H   0  0  0  0  0  0
   16.2381   20.8168    9.6245 H   0  0  0  0  0  0
   15.7483   19.9732   11.2610 H   0  0  0  0  0  0
   10.6228   26.3284    7.7278 H   0  0  0  0  0  0
   12.6733   26.6966    5.5556 H   0  0  0  0  0  0
   10.4115   28.6469    6.1881 H   0  0  0  0  0  0
   11.3438   27.7471    3.4485 H   0  0  0  0  0  0
   10.4090   26.5931    4.4588 H   0  0  0  0  0  0
   12.5622   29.8904    6.0796 H   0  0  0  0  0  0
   11.5500   30.2074    4.6298 H   0  0  0  0  0  0
   12.9474   29.0839    4.5214 H   0  0  0  0  0  0
    8.9466   27.8587    2.9545 H   0  0  0  0  0  0
    9.5350   29.4007    3.6635 H   0  0  0  0  0  0
    8.6001   28.2466    4.6739 H   0  0  0  0  0  0
   14.5387   27.3606    6.2476 H   0  0  0  0  0  0
   14.6397   28.4481    9.0494 H   0  0  0  0  0  0
   16.9217   27.5525    7.1170 H   0  0  0  0  0  0
   15.4141   25.7197    7.6910 H   0  0  0  0  0  0
   16.9708   25.5300    8.5669 H   0  0  0  0  0  0
   17.7101   29.2159    8.7080 H   0  0  0  0  0  0
   18.4059   27.5854    8.9976 H   0  0  0  0  0  0
   17.0990   28.2062   10.0621 H   0  0  0  0  0  0
   15.0684   24.9963    9.9907 H   0  0  0  0  0  0
   14.3861   26.6352    9.7164 H   0  0  0  0  0  0
   15.9429   26.4454   10.5923 H   0  0  0  0  0  0
   15.1968   30.3735    9.6985 H   0  0  0  0  0  0
   15.5521   32.2163    7.3796 H   0  0  0  0  0  0
   13.7988   32.2996    9.6640 H   0  0  0  0  0  0
   14.9293   33.6775    9.8874 H   0  0  0  0  0  0
   14.1981   34.7426    7.9679 H   0  0  0  0  0  0
   14.1817   32.8971    6.3993 H   0  0  0  0  0  0
   12.6688   33.8615    6.3125 H   0  0  0  0  0  0
   12.6707   32.2660    7.1377 H   0  0  0  0  0  0
   12.6257   34.7287    9.9442 H   0  0  0  0  0  0
   11.7595   33.3368    9.2101 H   0  0  0  0  0  0
   11.7576   34.9323    8.3848 H   0  0  0  0  0  0
   16.5958   34.1967    7.4254 H   0  0  0  0  0  0
   19.1271   33.8275    9.0340 H   0  0  0  0  0  0
   19.2537   32.6602    6.7224 H   0  0  0  0  0  0
   19.0973   34.2854    5.9733 H   0  0  0  0  0  0
   21.5167   33.6163    6.1705 H   0  0  0  0  0  0
   19.3341   37.5313    9.1250 H   0  0  0  0  0  0
  1  2  1  0  0  0
  1 86  1  0  0  0
  1 87  1  0  0  0
  1 88  1  0  0  0
  2  3  1  0  0  0
  2 89  1  0  0  0
  2 90  1  0  0  0
  3  4  2  0  0  0
  3  5  1  0  0  0
  5  6  1  0  0  0
  5 91  1  0  0  0
  6  9  1  0  0  0
  6  7  1  0  0  0
  6 92  1  0  0  0
  7  8  2  0  0  0
  7 11  1  0  0  0
  9 10  1  0  0  0
  9 93  1  0  0  0
  9 94  1  0  0  0
 10 95  1  0  0  0
 11 12  1  0  0  0
 11 96  1  0  0  0
 12 15  1  0  0  0
 12 13  1  0  0  0
 12 97  1  0  0  0
 13 14  2  0  0  0
 13 18  1  0  0  0
 15 17  1  0  0  0
 15 16  1  0  0  0
 15 98  1  0  0  0
 16 99  1  0  0  0
 16100  1  0  0  0
 16101  1  0  0  0
 17102  1  0  0  0
 17103  1  0  0  0
 17104  1  0  0  0
 18 19  1  0  0  0
 18105  1  0  0  0
 19 22  1  0  0  0
 19 20  1  0  0  0
 19106  1  0  0  0
 20 21  2  0  0  0
 20 25  1  0  0  0
 22 24  1  0  0  0
 22 23  1  0  0  0
 22107  1  0  0  0
 23108  1  0  0  0
 23109  1  0  0  0
 23110  1  0  0  0
 24111  1  0  0  0
 24112  1  0  0  0
 24113  1  0  0  0
 25 26  1  0  0  0
 25114  1  0  0  0
 26 29  1  0  0  0
 26 27  1  0  0  0
 26115  1  0  0  0
 27 28  2  0  0  0
 27 33  1  0  0  0
 29 31  1  0  0  0
 29 30  1  0  0  0
 29116  1  0  0  0
 30 32  1  0  0  0
 30117  1  0  0  0
 30118  1  0  0  0
 31119  1  0  0  0
 31120  1  0  0  0
 31121  1  0  0  0
 32122  1  0  0  0
 32123  1  0  0  0
 32124  1  0  0  0
 33 34  1  0  0  0
 33125  1  0  0  0
 34 37  1  0  0  0
 34 35  1  0  0  0
 34126  1  0  0  0
 35 36  2  0  0  0
 35 40  1  0  0  0
 37 39  1  0  0  0
 37 38  1  0  0  0
 37127  1  0  0  0
 38128  1  0  0  0
 38129  1  0  0  0
 38130  1  0  0  0
 39131  1  0  0  0
 39132  1  0  0  0
 39133  1  0  0  0
 40 41  1  0  0  0
 40134  1  0  0  0
 41 42  1  0  0  0
 41135  1  0  0  0
 41136  1  0  0  0
 42 43  2  0  0  0
 42 44  1  0  0  0
 44 45  1  0  0  0
 44137  1  0  0  0
 45 48  1  0  0  0
 45 46  1  0  0  0
 45138  1  0  0  0
 46 47  2  0  0  0
 46 55  1  0  0  0
 48 49  1  0  0  0
 48139  1  0  0  0
 48140  1  0  0  0
 49 50  1  0  0  0
 49141  1  0  0  0
 49142  1  0  0  0
 50 51  1  0  0  0
 50143  1  0  0  0
 50144  1  0  0  0
 51 52  1  0  0  0
 51145  1  0  0  0
 52 54  1  0  0  0
 52 53  2  0  0  0
 53146  1  0  0  0
 54147  1  0  0  0
 54148  1  0  0  0
 55 56  1  0  0  0
 55149  1  0  0  0
 56 59  1  0  0  0
 56 57  1  0  0  0
 56150  1  0  0  0
 57 58  2  0  0  0
 57 63  1  0  0  0
 59 61  1  0  0  0
 59 60  1  0  0  0
 59151  1  0  0  0
 60 62  1  0  0  0
 60152  1  0  0  0
 60153  1  0  0  0
 61154  1  0  0  0
 61155  1  0  0  0
 61156  1  0  0  0
 62157  1  0  0  0
 62158  1  0  0  0
 62159  1  0  0  0
 63 64  1  0  0  0
 63160  1  0  0  0
 64 67  1  0  0  0
 64 65  1  0  0  0
 64161  1  0  0  0
 65 66  2  0  0  0
 65 71  1  0  0  0
 67 69  1  0  0  0
 67 68  1  0  0  0
 67162  1  0  0  0
 68 70  1  0  0  0
 68163  1  0  0  0
 68164  1  0  0  0
 69165  1  0  0  0
 69166  1  0  0  0
 69167  1  0  0  0
 70168  1  0  0  0
 70169  1  0  0  0
 70170  1  0  0  0
 71 72  1  0  0  0
 71171  1  0  0  0
 72 75  1  0  0  0
 72 73  1  0  0  0
 72172  1  0  0  0
 73 74  2  0  0  0
 73 79  1  0  0  0
 75 76  1  0  0  0
 75173  1  0  0  0
 75174  1  0  0  0
 76 77  1  0  0  0
 76 78  1  0  0  0
 76175  1  0  0  0
 77176  1  0  0  0
 77177  1  0  0  0
 77178  1  0  0  0
 78179  1  0  0  0
 78180  1  0  0  0
 78181  1  0  0  0
 79 80  1  0  0  0
 79182  1  0  0  0
 80 83  1  0  0  0
 80 81  1  0  0  0
 80183  1  0  0  0
 81 82  2  0  0  0
 81 85  1  0  0  0
 83 84  1  0  0  0
 83184  1  0  0  0
 83185  1  0  0  0
 84186  1  0  0  0
 85187  1  0  0  0
M  CHG  1   1   1
M  END
> <s_m_source_file>
../1dxp_ligand.sdf

> <i_m_source_file_index>
1

> <s_epik_input>
W05IMytdW0NIMl1DKD1PKVtOSF1bQ0BASF0oW0NIMl1bT0hdKUMoPU8pW05IXVtDQEBIXShbQ0hdKFtDSDNdKVtDSDNdKUMoPU8pW05IXVtDQEBIXShbQ0hdKFtDSDNdKVtDSDNdKUMoPU8pW05IXVtDQEBIXShbQ0BASF0oW0NIM10pW0NIMl1bQ0gzXSlDKD1PKVtOSF1bQ0BASF0oW0NIXShbQ0gzXSlbQ0gzXSlDKD1PKVtOSF1bQ0gyXUMoPU8pW05IXVtDQEBIXShbQ0gyXVtDSDJdW0NIMl1bTkhdL0MoPU5cW0hdKVtOSDJdKUMoPU8pW05IXVtDQEBIXShbQ0BASF0oW0NIM10pW0NIMl1bQ0gzXSlDKD1PKVtOSF1bQ0BASF0oW0NAQEhdKFtDSDNdKVtDSDJdW0NIM10pQyg9TylbTkhdW0NAQEhdKFtDSDJdW0NIXShbQ0gzXSlbQ0gzXSlDKD1PKVtOSF1bQ0BIXShDKD1PKVtPSF0pW0NIMl1bT0hd

> <s_epik_cmdline>
J2VwaWtfYXBwJywgJy1pbWFlJywgJ2xpZ2FuZF9wcm8ubWFlJywgJy1vbWFlJywgJ2xpZ2FuZF9wcmVwLm1hZScsICctbXMnLCAnMScsICctcGgnLCAnNycsICctcGh0JywgJzAuNScsICctbnQn

> <s_epik_pKa_notes>
Molecule size exceeds maximum supported for generating protonation states

> <s_epik_Chemistry_Notes>
This compound has an imine and may undergo hydrolysis.

$$$$
