1dy4_ligand
                    3D
 Schrodinger Suite 2020-3.
 39 41  0  0  1  0            999 V2000
   24.3160   54.8910   90.5540 C   0  0  0  0  0  0
   23.9770   54.1950   91.7520 C   0  0  0  0  0  0
   22.6480   53.7560   92.0320 C   0  0  0  0  0  0
   21.6110   54.0220   91.0850 C   0  0  0  0  0  0
   20.8780   54.9610   88.9690 C   0  0  0  0  0  0
   21.1500   55.6570   87.7500 C   0  0  0  0  0  0
   22.4810   56.0950   87.4710 C   0  0  0  0  0  0
   23.5190   55.8280   88.4210 C   0  0  0  0  0  0
   23.2560   55.1400   89.6330 C   0  0  0  0  0  0
   21.9120   54.7070   89.8930 C   0  0  0  0  0  0
   25.5940   55.3310   90.2450 O   0  0  0  0  0  0
   26.4520   55.8300   91.2610 C   0  0  0  0  0  0
   27.6980   56.4180   90.5970 C   0  0  1  0  0  0
   28.4170   55.3760   89.9660 O   0  0  0  0  0  0
   27.3520   57.4830   89.5430 C   0  0  0  0  0  0
   28.3890   58.4990   89.5320 N   0  3  0  0  0  0
   28.3430   59.3960   88.3940 C   0  0  0  0  0  0
   29.2470   58.8190   87.2860 C   0  0  0  0  0  0
   28.8230   60.8130   88.7670 C   0  0  0  0  0  0
   24.7617   53.9909   92.4805 H   0  0  0  0  0  0
   22.4265   53.2241   92.9573 H   0  0  0  0  0  0
   20.5905   53.6954   91.2853 H   0  0  0  0  0  0
   19.8641   54.6244   89.1854 H   0  0  0  0  0  0
   20.3476   55.8521   87.0386 H   0  0  0  0  0  0
   22.7039   56.6263   86.5457 H   0  0  0  0  0  0
   24.5346   56.1613   88.2076 H   0  0  0  0  0  0
   25.9279   56.6096   91.8333 H   0  0  0  0  0  0
   26.7375   55.0094   91.9356 H   0  0  0  0  0  0
   28.3569   56.8445   91.3677 H   0  0  0  0  0  0
   28.7598   54.5108   90.5524 H   0  0  0  0  0  0
   27.2878   57.0105   88.5517 H   0  0  0  0  0  0
   26.3854   57.9451   89.7922 H   0  0  0  0  0  0
   28.3006   59.1229   90.4336 H   0  0  0  0  0  0
   29.3766   58.0148   89.5166 H   0  0  0  0  0  0
   27.2850   59.4382   88.0958 H   0  0  0  0  0  0
   29.7257   57.8966   87.6466 H   0  0  0  0  0  0
   28.6393   58.5934   86.3973 H   0  0  0  0  0  0
   28.0138   61.5348   88.5819 H   0  0  0  0  0  0
   29.1002   60.8380   89.8312 H   0  0  0  0  0  0
  1  2  2  0  0  0
  1  9  1  0  0  0
  1 11  1  0  0  0
  2  3  1  0  0  0
  2 20  1  0  0  0
  3  4  2  0  0  0
  3 21  1  0  0  0
  4 10  1  0  0  0
  4 22  1  0  0  0
  5  6  1  0  0  0
  5 10  2  0  0  0
  5 23  1  0  0  0
  6  7  2  0  0  0
  6 24  1  0  0  0
  7  8  1  0  0  0
  7 25  1  0  0  0
  8  9  2  0  0  0
  8 26  1  0  0  0
  9 10  1  0  0  0
 11 12  1  0  0  0
 12 13  1  0  0  0
 12 27  1  0  0  0
 12 28  1  0  0  0
 13 14  1  0  0  0
 13 15  1  0  0  0
 13 29  1  0  0  0
 14 30  1  0  0  0
 15 16  1  0  0  0
 15 31  1  0  0  0
 15 32  1  0  0  0
 16 17  1  0  0  0
 16 33  1  0  0  0
 16 34  1  0  0  0
 17 18  1  0  0  0
 17 19  1  0  0  0
 17 35  1  0  0  0
 18 19  1  0  0  0
 18 36  1  0  0  0
 18 37  1  0  0  0
 19 38  1  0  0  0
 19 39  1  0  0  0
M  CHG  1  16   1
M  END
> <s_m_source_file>
../1dy4_ligand.sdf

> <i_m_source_file_index>
1

> <s_epik_input>
W0NIMl0xW0NIMl1bQ0hdMVtOSDIrXVtDSDJdW0NASF0oW09IXSlbQ0gyXU9jMltjSF1bY0hdW2NIXWMoYzIzKVtjSF1bY0hdW2NIXVtjSF0z

> <s_epik_cmdline>
J2VwaWtfYXBwJywgJy1pbWFlJywgJ2xpZ2FuZF9wcm8ubWFlJywgJy1vbWFlJywgJ2xpZ2FuZF9wcmVwLm1hZScsICctbXMnLCAnMScsICctcGgnLCAnNycsICctcGh0JywgJzAuNScsICctbnQn

> <r_lp_tautomer_probability>
1

> <r_epik_Ionization_Penalty>
  0.0024

> <r_epik_Ionization_Penalty_Charging>
  0.0024

> <r_epik_Ionization_Penalty_Neutral>
  0.0000

> <r_epik_State_Penalty>
 -0.0000

> <r_epik_Charging_Adjusted_Penalty>
0.00240450875253428

> <i_epik_Tot_Q>
1

> <i_epik_Tot_abs_Q>
1

$$$$
