1dzj_ligand
                    3D
 Schrodinger Suite 2020-3.
 31 31  0  0  1  0            999 V2000
    2.9710   26.0680   12.4140 C   0  0  0  0  0  0
    2.5240   26.4140   10.9970 C   0  0  0  0  0  0
    1.1060   26.9660   11.0290 C   0  0  0  0  0  0
    0.1530   25.9620   11.6730 C   0  0  0  0  0  0
    0.1960   27.1630   15.5320 C   0  0  0  0  0  0
   -0.0080   25.7390   15.0230 C   0  0  0  0  0  0
   -1.4800   25.4930   14.6900 C   0  0  0  0  0  0
   -1.6270   27.6650   11.6020 N   0  0  0  0  0  0
   -2.7270   28.1160   12.2280 C   0  0  0  0  0  0
   -3.3410   29.1710   11.7080 N   0  0  0  0  0  0
   -3.4050   27.2700   13.8150 S   0  0  0  0  0  0
   -1.9090   26.1760   13.4140 C   0  0  0  0  0  0
   -1.0960   26.6040   12.2330 C   0  0  0  0  0  0
    3.9959   25.6694   12.3881 H   0  0  0  0  0  0
    2.2939   25.3116   12.8376 H   0  0  0  0  0  0
    2.9454   26.9736   13.0379 H   0  0  0  0  0  0
    3.2011   27.1704   10.5734 H   0  0  0  0  0  0
    2.5496   25.5085   10.3730 H   0  0  0  0  0  0
    1.0886   27.8985   11.6122 H   0  0  0  0  0  0
    0.7685   27.1695   10.0020 H   0  0  0  0  0  0
   -0.1611   25.2214   10.9228 H   0  0  0  0  0  0
    0.6645   25.4503   12.5016 H   0  0  0  0  0  0
    1.2594   27.3200   15.7657 H   0  0  0  0  0  0
   -0.4056   27.3176   16.4398 H   0  0  0  0  0  0
   -0.1187   27.8778   14.7574 H   0  0  0  0  0  0
    0.5936   25.5844   14.1152 H   0  0  0  0  0  0
    0.3067   25.0241   15.7975 H   0  0  0  0  0  0
   -1.6532   24.4134   14.5696 H   0  0  0  0  0  0
   -2.1097   25.8766   15.5063 H   0  0  0  0  0  0
   -2.9431   29.6464   10.7993 H   0  0  0  0  0  0
   -4.2479   29.5703   12.1856 H   0  0  0  0  0  0
  1  2  1  0  0  0
  1 14  1  0  0  0
  1 15  1  0  0  0
  1 16  1  0  0  0
  2  3  1  0  0  0
  2 17  1  0  0  0
  2 18  1  0  0  0
  3  4  1  0  0  0
  3 19  1  0  0  0
  3 20  1  0  0  0
  4 13  1  0  0  0
  4 21  1  0  0  0
  4 22  1  0  0  0
  5  6  1  0  0  0
  5 23  1  0  0  0
  5 24  1  0  0  0
  5 25  1  0  0  0
  6  7  1  0  0  0
  6 26  1  0  0  0
  6 27  1  0  0  0
  7 12  1  0  0  0
  7 28  1  0  0  0
  7 29  1  0  0  0
  8  9  2  0  0  0
  8 13  1  0  0  0
  9 10  1  0  0  0
  9 11  1  0  0  0
 10 30  1  0  0  0
 10 31  1  0  0  0
 11 12  1  0  0  0
 12 13  2  0  0  0
M  END
> <s_m_source_file>
../1dzj_ligand.sdf

> <i_m_source_file_index>
1

> <s_epik_input>
W0NIM11bQ0gyXVtDSDJdW0NIMl1jKG5jMVtOSDJdKWMoczEpW0NIMl1bQ0gyXVtDSDNd

> <s_epik_cmdline>
J2VwaWtfYXBwJywgJy1pbWFlJywgJ2xpZ2FuZF9wcm8ubWFlJywgJy1vbWFlJywgJ2xpZ2FuZF9wcmVwLm1hZScsICctbXMnLCAnMScsICctcGgnLCAnNycsICctcGh0JywgJzAuNScsICctbnQn

> <r_epik_Ionization_Penalty>
  0.0728

> <r_epik_Ionization_Penalty_Charging>
  0.0000

> <r_epik_Ionization_Penalty_Neutral>
  0.0728

> <r_epik_State_Penalty>
  0.0640

> <r_epik_Charging_Adjusted_Penalty>
0.0639570894385199

> <i_epik_Tot_Q>
0

> <i_epik_Tot_abs_Q>
0

$$$$
