1dzk_ligand
                    3D
 Schrodinger Suite 2020-3.
 26 26  0  0  1  0            999 V2000
   -0.0300   24.7570   10.5420 N   0  0  0  0  0  0
   -0.4030   25.8580   11.2200 C   0  0  0  0  0  0
    0.5710   26.7340   11.7610 C   0  0  0  0  0  0
    1.9330   26.4290   11.6440 N   0  0  0  0  0  0
    2.2990   25.1950   10.9970 C   0  0  0  0  0  0
    1.2920   24.3860   10.3500 C   0  0  0  0  0  0
   -1.9300   26.1020   11.5660 C   0  0  0  0  0  0
   -2.1570   26.4380   13.1700 C   0  0  0  0  0  0
   -3.2530   27.1590   13.7540 C   0  0  0  0  0  0
   -1.1970   25.8720   14.2440 C   0  0  0  0  0  0
    0.1150   27.8030   12.1900 O   0  0  0  0  0  0
    0.9980   28.7750   12.7450 C   0  0  0  0  0  0
    3.3396   24.8705   10.9956 H   0  0  0  0  0  0
    1.5592   23.5237    9.7391 H   0  0  0  0  0  0
   -2.3071   26.9534   10.9804 H   0  0  0  0  0  0
   -2.5105   25.2010   11.3187 H   0  0  0  0  0  0
   -2.6344   27.3876   12.8867 H   0  0  0  0  0  0
   -3.9067   27.5417   12.9563 H   0  0  0  0  0  0
   -2.8643   28.0013   14.3452 H   0  0  0  0  0  0
   -3.8275   26.4863   14.4078 H   0  0  0  0  0  0
   -0.3759   25.3296   13.7525 H   0  0  0  0  0  0
   -1.7481   25.1846   14.9027 H   0  0  0  0  0  0
   -0.7848   26.6995   14.8401 H   0  0  0  0  0  0
    0.4196   29.6520   13.0710 H   0  0  0  0  0  0
    1.7310   29.0813   11.9842 H   0  0  0  0  0  0
    1.5246   28.3416   13.6080 H   0  0  0  0  0  0
  1  6  2  0  0  0
  1  2  1  0  0  0
  2  7  1  0  0  0
  2  3  2  0  0  0
  3 11  1  0  0  0
  3  4  1  0  0  0
  4  5  2  0  0  0
  5  6  1  0  0  0
  5 13  1  0  0  0
  6 14  1  0  0  0
  7  8  1  0  0  0
  7 15  1  0  0  0
  7 16  1  0  0  0
  8 10  1  0  0  0
  8  9  1  0  0  0
  8 17  1  0  0  0
  9 18  1  0  0  0
  9 19  1  0  0  0
  9 20  1  0  0  0
 10 21  1  0  0  0
 10 22  1  0  0  0
 10 23  1  0  0  0
 11 12  1  0  0  0
 12 24  1  0  0  0
 12 25  1  0  0  0
 12 26  1  0  0  0
M  END
> <s_m_source_file>
../1dzk_ligand.sdf

> <i_m_source_file_index>
1

> <s_epik_input>
W0NIM11bQ0hdKFtDSDNdKVtDSDJdYzFuW2NIXVtjSF1uYzFPW0NIM10=

> <s_epik_cmdline>
J2VwaWtfYXBwJywgJy1pbWFlJywgJ2xpZ2FuZF9wcm8ubWFlJywgJy1vbWFlJywgJ2xpZ2FuZF9wcmVwLm1hZScsICctbXMnLCAnMScsICctcGgnLCAnNycsICctcGh0JywgJzAuNScsICctbnQn

> <r_lp_tautomer_probability>
1

> <r_epik_Ionization_Penalty>
  0.0000

> <r_epik_Ionization_Penalty_Charging>
  0.0000

> <r_epik_Ionization_Penalty_Neutral>
  0.0000

> <r_epik_State_Penalty>
 -0.0000

> <r_epik_Charging_Adjusted_Penalty>
0

> <i_epik_Tot_Q>
0

> <i_epik_Tot_abs_Q>
0

$$$$
