1dzm_ligand
                    3D
 Schrodinger Suite 2020-3.
 28 29  0  0  1  0            999 V2000
    0.5310   26.5430   13.7460 C   0  0  0  0  0  0
    1.3670   27.4410   13.0120 O   0  0  0  0  0  0
    1.9880   26.8410   11.9100 C   0  0  0  0  0  0
    2.9730   27.3650   11.4550 O   0  0  0  0  0  0
    1.4600   25.5900   11.3090 C   0  0  0  0  0  0
    2.1290   25.0460   10.2240 C   0  0  0  0  0  0
    0.3250   25.0120   11.8560 C   0  0  0  0  0  0
    1.6400   23.8820    9.6670 C   0  0  0  0  0  0
   -0.1430   23.8500   11.2800 C   0  0  0  0  0  0
    0.5220   23.2930   10.2070 C   0  0  0  0  0  0
   -0.9560   26.7620   13.7280 C   0  0  0  0  0  0
   -1.8470   25.7220   13.9230 C   0  0  0  0  0  0
   -1.4350   28.0440   13.5080 C   0  0  0  0  0  0
   -3.2050   25.9830   13.9010 C   0  0  0  0  0  0
   -2.7960   28.3050   13.4860 C   0  0  0  0  0  0
   -3.6880   27.2660   13.6850 C   0  0  0  0  0  0
    0.8981   26.6041   14.7811 H   0  0  0  0  0  0
    0.7603   25.5493   13.3337 H   0  0  0  0  0  0
    3.0203   25.5262    9.8202 H   0  0  0  0  0  0
   -0.1799   25.4605   12.7116 H   0  0  0  0  0  0
    2.1362   23.4337    8.8062 H   0  0  0  0  0  0
   -1.0397   23.3707   11.6729 H   0  0  0  0  0  0
    0.1513   22.3626    9.7769 H   0  0  0  0  0  0
   -1.4830   24.7086   14.0920 H   0  0  0  0  0  0
   -0.7299   28.8600   13.3497 H   0  0  0  0  0  0
   -3.9092   25.1656   14.0562 H   0  0  0  0  0  0
   -3.1599   29.3179   13.3138 H   0  0  0  0  0  0
   -4.7616   27.4538   13.6722 H   0  0  0  0  0  0
  1 11  1  0  0  0
  1  2  1  0  0  0
  1 17  1  0  0  0
  1 18  1  0  0  0
  2  3  1  0  0  0
  3  5  1  0  0  0
  3  4  2  0  0  0
  5  7  2  0  0  0
  5  6  1  0  0  0
  6  8  2  0  0  0
  6 19  1  0  0  0
  7  9  1  0  0  0
  7 20  1  0  0  0
  8 10  1  0  0  0
  8 21  1  0  0  0
  9 10  2  0  0  0
  9 22  1  0  0  0
 10 23  1  0  0  0
 11 13  2  0  0  0
 11 12  1  0  0  0
 12 14  2  0  0  0
 12 24  1  0  0  0
 13 15  1  0  0  0
 13 25  1  0  0  0
 14 16  1  0  0  0
 14 26  1  0  0  0
 15 16  2  0  0  0
 15 27  1  0  0  0
 16 28  1  0  0  0
M  END
> <s_m_source_file>
../1dzm_ligand.sdf

> <i_m_source_file_index>
1

> <s_epik_input>
W2NIXTFbY0hdW2NIXVtjSF1bY0hdYzFbQ0gyXU9DKD1PKWMyW2NIXVtjSF1bY0hdW2NIXVtjSF0y

> <s_epik_cmdline>
J2VwaWtfYXBwJywgJy1pbWFlJywgJ2xpZ2FuZF9wcm8ubWFlJywgJy1vbWFlJywgJ2xpZ2FuZF9wcmVwLm1hZScsICctbXMnLCAnMScsICctcGgnLCAnNycsICctcGh0JywgJzAuNScsICctbnQn

> <r_lp_tautomer_probability>
1

> <r_epik_Ionization_Penalty>
  0.0000

> <r_epik_Ionization_Penalty_Charging>
  0.0000

> <r_epik_Ionization_Penalty_Neutral>
  0.0000

> <r_epik_State_Penalty>
 -0.0000

> <r_epik_Charging_Adjusted_Penalty>
0

> <i_epik_Tot_Q>
0

> <i_epik_Tot_abs_Q>
0

> <s_epik_Chemistry_Notes>
This compound has an ester and may undergo hydrolysis at high or low pH.

$$$$
