1dzp_ligand
                    3D
 Schrodinger Suite 2020-3.
 24 25  0  0  1  0            999 V2000
   14.9880    4.1070   25.8360 C   0  0  0  0  0  0
   14.2430    4.5720   26.9480 C   0  0  0  0  0  0
   12.8940    4.8990   26.7960 C   0  0  0  0  0  0
   12.2920    4.7630   25.5320 C   0  0  0  0  0  0
   13.0180    4.3060   24.4210 C   0  0  0  0  0  0
   14.3770    3.9750   24.5890 C   0  0  0  0  0  0
   12.4090    4.1430   23.0410 C   0  0  0  0  0  0
   11.8740    6.4110   22.0880 C   0  0  0  0  0  0
   11.4570    5.1260   22.4340 C   0  0  0  0  0  0
   10.1400    4.7560   22.1830 C   0  0  0  0  0  0
    9.2460    5.6390   21.6140 C   0  0  0  0  0  0
    9.6690    6.9150   21.2800 C   0  0  0  0  0  0
   10.9890    7.2990   21.5190 C   0  0  0  0  0  0
   12.7640    3.0250   22.2650 O   0  0  0  0  0  0
   16.0410    3.8519   25.9553 H   0  0  0  0  0  0
   14.7226    4.6744   27.9214 H   0  0  0  0  0  0
   12.3140    5.2556   27.6472 H   0  0  0  0  0  0
   11.2390    5.0180   25.4127 H   0  0  0  0  0  0
   14.9551    3.6132   23.7387 H   0  0  0  0  0  0
   12.9054    6.7137   22.2689 H   0  0  0  0  0  0
    9.8083    3.7501   22.4406 H   0  0  0  0  0  0
    8.2157    5.3353   21.4288 H   0  0  0  0  0  0
    8.9699    7.6199   20.8300 H   0  0  0  0  0  0
   11.3199    8.3034   21.2549 H   0  0  0  0  0  0
  1  6  2  0  0  0
  1  2  1  0  0  0
  1 15  1  0  0  0
  2  3  2  0  0  0
  2 16  1  0  0  0
  3  4  1  0  0  0
  3 17  1  0  0  0
  4  5  2  0  0  0
  4 18  1  0  0  0
  5  7  1  0  0  0
  5  6  1  0  0  0
  6 19  1  0  0  0
  7 14  2  0  0  0
  7  9  1  0  0  0
  8  9  2  0  0  0
  8 13  1  0  0  0
  8 20  1  0  0  0
  9 10  1  0  0  0
 10 11  2  0  0  0
 10 21  1  0  0  0
 11 12  1  0  0  0
 11 22  1  0  0  0
 12 13  2  0  0  0
 12 23  1  0  0  0
 13 24  1  0  0  0
M  END
> <s_m_source_file>
../1dzp_ligand.sdf

> <i_m_source_file_index>
1

> <s_epik_input>
W2NIXTFbY0hdW2NIXVtjSF1bY0hdYzFDKD1PKWMyW2NIXVtjSF1bY0hdW2NIXVtjSF0y

> <s_epik_cmdline>
J2VwaWtfYXBwJywgJy1pbWFlJywgJ2xpZ2FuZF9wcm8ubWFlJywgJy1vbWFlJywgJ2xpZ2FuZF9wcmVwLm1hZScsICctbXMnLCAnMScsICctcGgnLCAnNycsICctcGh0JywgJzAuNScsICctbnQn

> <r_lp_tautomer_probability>
1

> <r_epik_Ionization_Penalty>
  0.0000

> <r_epik_Ionization_Penalty_Charging>
  0.0000

> <r_epik_Ionization_Penalty_Neutral>
  0.0000

> <r_epik_State_Penalty>
 -0.0000

> <r_epik_Charging_Adjusted_Penalty>
0

> <i_epik_Tot_Q>
0

> <i_epik_Tot_abs_Q>
0

$$$$
