1e00_ligand
                    3D
 Schrodinger Suite 2020-3.
 33 32  0  0  1  0            999 V2000
    1.3800   23.8270    9.5580 C   0  0  0  0  0  0
    1.7000   24.4500   10.8050 C   0  0  0  0  0  0
    1.4410   25.9270   10.9740 C   0  0  1  0  0  0
    0.5910   26.2120   12.2120 C   0  0  0  0  0  0
   -0.8610   26.3940   11.8790 C   0  0  0  0  0  0
   -1.5420   27.4100   12.8070 C   0  0  0  0  0  0
   -2.3440   26.7260   13.8750 C   0  0  0  0  0  0
   -1.6250   26.9260   15.1760 C   0  0  0  0  0  0
   -2.3040   25.2650   13.5640 C   0  0  0  0  0  0
    2.7700   26.5980   11.0990 C   0  0  0  0  0  0
   -3.7730   27.1630   14.0030 O   0  0  0  0  0  0
    1.6305   22.7571    9.6078 H   0  0  0  0  0  0
    1.9584   24.3019    8.7518 H   0  0  0  0  0  0
    0.3050   23.9429    9.3554 H   0  0  0  0  0  0
    1.1216   23.9751   11.6112 H   0  0  0  0  0  0
    2.7749   24.3341   11.0076 H   0  0  0  0  0  0
    0.8988   26.3098   10.0968 H   0  0  0  0  0  0
    0.6753   25.3711   12.9162 H   0  0  0  0  0  0
    0.9465   27.1332   12.6967 H   0  0  0  0  0  0
   -0.9574   26.7557   10.8447 H   0  0  0  0  0  0
   -1.3840   25.4317   11.9811 H   0  0  0  0  0  0
   -0.7769   28.0343   13.2916 H   0  0  0  0  0  0
   -2.2176   28.0485   12.2189 H   0  0  0  0  0  0
   -0.5790   26.6024   15.0703 H   0  0  0  0  0  0
   -2.1152   26.3315   15.9610 H   0  0  0  0  0  0
   -1.6535   27.9908   15.4508 H   0  0  0  0  0  0
   -1.2578   24.9389   13.4690 H   0  0  0  0  0  0
   -2.8341   25.0767   12.6187 H   0  0  0  0  0  0
   -2.7907   24.7040   14.3754 H   0  0  0  0  0  0
    3.3731   26.3866   10.2037 H   0  0  0  0  0  0
    3.2906   26.2173   11.9901 H   0  0  0  0  0  0
    2.6248   27.6841   11.1953 H   0  0  0  0  0  0
   -4.0087   28.2128   14.2316 H   0  0  0  0  0  0
  1  2  1  0  0  0
  1 12  1  0  0  0
  1 13  1  0  0  0
  1 14  1  0  0  0
  2  3  1  0  0  0
  2 15  1  0  0  0
  2 16  1  0  0  0
  3  4  1  0  0  0
  3 10  1  0  0  0
  3 17  1  0  0  0
  4  5  1  0  0  0
  4 18  1  0  0  0
  4 19  1  0  0  0
  5  6  1  0  0  0
  5 20  1  0  0  0
  5 21  1  0  0  0
  6  7  1  0  0  0
  6 22  1  0  0  0
  6 23  1  0  0  0
  7  8  1  0  0  0
  7  9  1  0  0  0
  7 11  1  0  0  0
  8 24  1  0  0  0
  8 25  1  0  0  0
  8 26  1  0  0  0
  9 27  1  0  0  0
  9 28  1  0  0  0
  9 29  1  0  0  0
 10 30  1  0  0  0
 10 31  1  0  0  0
 10 32  1  0  0  0
 11 33  1  0  0  0
M  END
> <s_m_source_file>
../1e00_ligand.sdf

> <i_m_source_file_index>
1

> <s_epik_input>
W0NIM11bQ0gyXVtDQEhdKFtDSDNdKVtDSDJdW0NIMl1bQ0gyXUMoW0NIM10pKFtDSDNdKVtPSF0=

> <s_epik_cmdline>
J2VwaWtfYXBwJywgJy1pbWFlJywgJ2xpZ2FuZF9wcm8ubWFlJywgJy1vbWFlJywgJ2xpZ2FuZF9wcmVwLm1hZScsICctbXMnLCAnMScsICctcGgnLCAnNycsICctcGh0JywgJzAuNScsICctbnQn

> <r_lp_tautomer_probability>
1

> <r_epik_Ionization_Penalty>
  0.0000

> <r_epik_Ionization_Penalty_Charging>
  0.0000

> <r_epik_Ionization_Penalty_Neutral>
  0.0000

> <r_epik_State_Penalty>
 -0.0000

> <r_epik_Charging_Adjusted_Penalty>
0

> <i_epik_Tot_Q>
0

> <i_epik_Tot_abs_Q>
0

$$$$
