1e02_ligand
                    3D
 Schrodinger Suite 2020-3.
 34 33  0  0  1  0            999 V2000
   -0.3830   26.7480   10.7750 C   0  0  0  0  0  0
    0.6160   25.5470   10.8870 C   0  0  0  0  0  0
    1.9160   25.9320   11.4160 C   0  0  0  0  0  0
    2.0120   27.3970   11.6870 C   0  0  0  0  0  0
    3.1190   27.8660   12.8070 C   0  0  0  0  0  0
    2.6120   28.1040   14.2600 C   0  0  0  0  0  0
    1.1560   27.7040   14.4190 C   0  0  0  0  0  0
    0.3270   28.9690   14.8550 C   0  0  0  0  0  0
   -1.0620   28.9080   14.1810 C   0  0  0  0  0  0
   -1.6010   27.3960   14.2820 C   0  0  0  0  0  0
   -2.9520   27.2540   13.7050 C   0  0  0  0  0  0
   -2.9100   26.2050   13.2270 O   0  0  0  0  0  0
   -1.3416   26.3910   10.3705 H   0  0  0  0  0  0
    0.0362   27.5123   10.1041 H   0  0  0  0  0  0
   -0.5452   27.1842   11.7717 H   0  0  0  0  0  0
    0.1968   24.7827   11.5579 H   0  0  0  0  0  0
    0.7782   25.1108    9.8903 H   0  0  0  0  0  0
    2.0993   25.4001   12.3612 H   0  0  0  0  0  0
    2.6996   25.6699   10.6899 H   0  0  0  0  0  0
    2.2813   27.9245   10.7600 H   0  0  0  0  0  0
    1.0421   27.7669   12.0508 H   0  0  0  0  0  0
    3.9014   27.0976   12.8934 H   0  0  0  0  0  0
    3.5733   28.8186   12.4970 H   0  0  0  0  0  0
    3.2137   27.5066   14.9608 H   0  0  0  0  0  0
    2.7076   29.1706   14.5116 H   0  0  0  0  0  0
    0.7745   27.3203   13.4613 H   0  0  0  0  0  0
    1.0726   26.9209   15.1870 H   0  0  0  0  0  0
    0.2115   28.9725   15.9489 H   0  0  0  0  0  0
    0.8556   29.8805   14.5393 H   0  0  0  0  0  0
   -1.7512   29.5912   14.6989 H   0  0  0  0  0  0
   -0.9715   29.2083   13.1267 H   0  0  0  0  0  0
   -0.9206   26.7269   13.7349 H   0  0  0  0  0  0
   -1.6437   27.0917   15.3382 H   0  0  0  0  0  0
   -3.8728   27.8521   13.6389 H   0  0  0  0  0  0
  1  2  1  0  0  0
  1 13  1  0  0  0
  1 14  1  0  0  0
  1 15  1  0  0  0
  2  3  1  0  0  0
  2 16  1  0  0  0
  2 17  1  0  0  0
  3  4  1  0  0  0
  3 18  1  0  0  0
  3 19  1  0  0  0
  4  5  1  0  0  0
  4 20  1  0  0  0
  4 21  1  0  0  0
  5  6  1  0  0  0
  5 22  1  0  0  0
  5 23  1  0  0  0
  6  7  1  0  0  0
  6 24  1  0  0  0
  6 25  1  0  0  0
  7  8  1  0  0  0
  7 26  1  0  0  0
  7 27  1  0  0  0
  8  9  1  0  0  0
  8 28  1  0  0  0
  8 29  1  0  0  0
  9 10  1  0  0  0
  9 30  1  0  0  0
  9 31  1  0  0  0
 10 11  1  0  0  0
 10 32  1  0  0  0
 10 33  1  0  0  0
 11 12  2  0  0  0
 11 34  1  0  0  0
M  END
> <s_m_source_file>
../1e02_ligand.sdf

> <i_m_source_file_index>
1

> <s_epik_input>
W0NIM11bQ0gyXVtDSDJdW0NIMl1bQ0gyXVtDSDJdW0NIMl1bQ0gyXVtDSDJdW0NIMl1bQ0hdPU8=

> <s_epik_cmdline>
J2VwaWtfYXBwJywgJy1pbWFlJywgJ2xpZ2FuZF9wcm8ubWFlJywgJy1vbWFlJywgJ2xpZ2FuZF9wcmVwLm1hZScsICctbXMnLCAnMScsICctcGgnLCAnNycsICctcGh0JywgJzAuNScsICctbnQn

> <r_lp_tautomer_probability>
1

> <r_epik_Ionization_Penalty>
  0.0000

> <r_epik_Ionization_Penalty_Charging>
  0.0000

> <r_epik_Ionization_Penalty_Neutral>
  0.0000

> <r_epik_State_Penalty>
 -0.0000

> <r_epik_Charging_Adjusted_Penalty>
0

> <i_epik_Tot_Q>
0

> <i_epik_Tot_abs_Q>
0

$$$$
