1e03_ligand
                    3D
 Schrodinger Suite 2020-3.
160164  0  0  1  0            999 V2000
   -1.3670  -25.4760   21.3010 O   0  0  0  0  0  0
   -0.5590  -26.6030   20.9500 C   0  0  0  0  0  0
   -2.4430  -25.2690   20.3920 C   0  0  2  0  0  0
   -3.5240  -24.3800   21.0240 C   0  0  2  0  0  0
   -4.5260  -24.0950   20.0290 O   0  0  0  0  0  0
   -2.9350  -23.0550   21.5270 C   0  0  0  0  0  0
   -3.6350  -21.9630   20.9370 O   0  0  0  0  0  0
   -2.8690  -20.5440   20.9080 S   0  0  0  0  0  0
   -2.9710  -20.1150   19.5560 O   0  0  0  0  0  0
   -1.5390  -20.8140   21.3370 O   0  0  0  0  0  0
   -3.6070  -19.7240   21.8100 O   0  0  0  0  0  0
   -3.0950  -26.5990   19.9950 C   0  0  2  0  0  0
   -2.1070  -27.4570   19.4210 O   0  0  0  0  0  0
   -2.5590  -27.9960   18.1730 C   0  0  0  0  0  0
   -4.1820  -26.2670   18.9390 C   0  0  1  0  0  0
   -4.9360  -27.4740   18.6820 O   0  0  0  0  0  0
   -4.9770  -27.8950   17.1220 S   0  0  0  0  0  0
   -3.6560  -27.6240   16.6610 O   0  0  0  0  0  0
   -5.9760  -27.0600   16.5270 O   0  0  0  0  0  0
   -5.3110  -29.2820   17.1410 O   0  0  0  0  0  0
   -5.1810  -25.2530   19.5230 C   0  0  1  0  0  0
   -5.8540  -25.9650   20.5670 O   0  0  0  0  0  0
   -7.1660  -25.5460   20.9270 C   0  0  2  0  0  0
   -7.2800  -25.5470   22.4840 C   0  0  2  0  0  0
   -8.5850  -25.0630   22.8480 O   0  0  0  0  0  0
   -6.1700  -24.6790   23.1110 C   0  0  0  0  0  0
   -5.7730  -23.6250   22.5440 O   0  0  0  0  0  0
   -5.4600  -25.1610   24.0310 O   0  0  0  0  0  0
   -8.2270  -26.5300   20.3790 C   0  0  2  0  0  0
   -8.1380  -26.6730   18.9670 O   0  0  0  0  0  0
   -7.6800  -25.4940   18.2970 C   0  0  0  0  0  0
   -9.5750  -25.9460   20.7980 C   0  0  1  0  0  0
  -10.6430  -26.7160   20.2850 O   0  0  0  0  0  0
  -11.3780  -26.0420   19.2660 C   0  0  0  0  0  0
   -9.6370  -25.9020   22.3410 C   0  0  2  0  0  0
  -10.9120  -25.3780   22.6630 O   0  0  0  0  0  0
  -11.5370  -25.7040   23.9090 C   0  0  2  0  0  0
  -12.7750  -26.5710   23.6090 C   0  0  2  0  0  0
  -13.5440  -26.7980   24.8000 O   0  0  0  0  0  0
  -12.3380  -27.9640   23.0870 C   0  0  0  0  0  0
  -11.9440  -28.7360   24.2250 O   0  0  0  0  0  0
  -10.7540  -29.8220   24.0300 S   0  0  0  0  0  0
   -9.8980  -29.2850   23.0180 O   0  0  0  0  0  0
  -11.4000  -31.0240   23.6140 O   0  0  0  0  0  0
  -10.1230  -29.9160   25.3090 O   0  0  0  0  0  0
  -11.9880  -24.3820   24.5530 C   0  0  2  0  0  0
  -10.8560  -23.5980   24.8660 O   0  0  0  0  0  0
  -10.8990  -22.0640   24.3870 S   0  0  0  0  0  0
  -11.9470  -21.4670   25.1380 O   0  0  0  0  0  0
   -9.5990  -21.5720   24.6900 O   0  0  0  0  0  0
  -11.1760  -22.1090   22.9870 O   0  0  0  0  0  0
  -12.7720  -24.6980   25.8350 C   0  0  1  0  0  0
  -13.2600  -23.4550   26.3780 O   0  0  0  0  0  0
  -13.8350  -23.4510   27.8980 S   0  0  0  0  0  0
  -14.7200  -22.3310   27.9340 O   0  0  0  0  0  0
  -12.6980  -23.2990   28.7300 O   0  0  0  0  0  0
  -14.4900  -24.7050   28.0870 O   0  0  0  0  0  0
  -13.9980  -25.5790   25.4390 C   0  0  1  0  0  0
  -14.7840  -24.7940   24.5160 O   0  0  0  0  0  0
  -15.9540  -25.4110   23.9660 C   0  0  2  0  0  0
  -16.4410  -24.6230   22.7340 C   0  0  1  0  0  0
  -17.1120  -23.4320   23.0950 O   0  0  0  0  0  0
  -15.3250  -24.3080   21.7340 C   0  0  0  0  0  0
  -14.5820  -25.2400   21.3290 O   0  0  0  0  0  0
  -14.9800  -23.1170   21.5220 O   0  0  0  0  0  0
  -17.0400  -25.4870   25.0590 C   0  0  2  0  0  0
  -17.1580  -26.8000   25.5750 O   0  0  0  0  0  0
  -16.7370  -26.8930   26.9270 C   0  0  0  0  0  0
  -18.4060  -25.0260   24.5040 C   0  0  1  0  0  0
  -19.3210  -24.9490   25.6100 O   0  0  0  0  0  0
  -20.6230  -25.9080   25.6560 S   0  0  0  0  0  0
  -21.2020  -25.9120   24.3450 O   0  0  0  0  0  0
  -21.4920  -25.3110   26.6270 O   0  0  0  0  0  0
  -20.1060  -27.1780   26.0580 O   0  0  0  0  0  0
  -18.2720  -23.6040   23.8690 C   0  0  2  0  0  0
  -19.4540  -23.3320   23.1430 O   0  0  0  0  0  0
  -19.6990  -22.0370   22.6450 C   0  0  2  0  0  0
  -20.9820  -21.4160   23.2080 C   0  0  2  0  0  0
  -21.1020  -20.0590   22.7400 O   0  0  0  0  0  0
  -21.0250  -21.3970   24.7340 C   0  0  0  0  0  0
  -19.7310  -21.0850   25.2410 O   0  0  0  0  0  0
  -19.6820  -20.4690   26.7410 S   0  0  0  0  0  0
  -19.5630  -21.6090   27.5980 O   0  0  0  0  0  0
  -20.9170  -19.7740   26.8980 O   0  0  0  0  0  0
  -18.5450  -19.6080   26.7800 O   0  0  0  0  0  0
  -19.8110  -22.0880   21.1110 C   0  0  2  0  0  0
  -18.6030  -22.6630   20.6060 O   0  0  0  0  0  0
  -18.6320  -23.6410   19.3250 S   0  0  0  0  0  0
  -19.2900  -24.8220   19.7690 O   0  0  0  0  0  0
  -17.2570  -23.8580   19.0130 O   0  0  0  0  0  0
  -19.3420  -22.9450   18.3060 O   0  0  0  0  0  0
  -19.9150  -20.6140   20.6480 C   0  0  1  0  0  0
  -20.0310  -20.5720   19.2200 O   0  0  0  0  0  0
  -19.3350  -19.3110   18.4710 S   0  0  0  0  0  0
  -18.4020  -19.8960   17.5710 O   0  0  0  0  0  0
  -18.7210  -18.5630   19.5070 O   0  0  0  0  0  0
  -20.4090  -18.6050   17.8500 O   0  0  0  0  0  0
  -21.1640  -19.9660   21.3050 C   0  0  1  0  0  0
  -22.3380  -20.6250   20.8310 O   0  0  0  0  0  0
  -23.5330  -20.0070   21.3000 C   0  0  0  0  0  0
    0.2531  -26.7146   21.6835 H   0  0  0  0  0  0
   -0.1302  -26.4491   19.9488 H   0  0  0  0  0  0
   -1.1786  -27.5119   20.9478 H   0  0  0  0  0  0
   -1.9513  -24.7840   19.5358 H   0  0  0  0  0  0
   -4.0161  -24.9112   21.8521 H   0  0  0  0  0  0
   -3.0330  -23.0022   22.6213 H   0  0  0  0  0  0
   -1.8717  -22.9981   21.2510 H   0  0  0  0  0  0
   -4.6474  -19.4510   21.5795 H   0  0  0  0  0  0
   -3.4819  -27.1614   20.8576 H   0  0  0  0  0  0
   -1.7814  -28.6513   17.7535 H   0  0  0  0  0  0
   -2.7636  -27.1740   17.4712 H   0  0  0  0  0  0
   -3.4790  -28.5765   18.3360 H   0  0  0  0  0  0
   -3.7304  -25.9110   18.0013 H   0  0  0  0  0  0
   -5.8173  -25.9735   16.4621 H   0  0  0  0  0  0
   -5.9055  -24.8335   18.8095 H   0  0  0  0  0  0
   -7.2631  -24.5514   20.4672 H   0  0  0  0  0  0
   -7.2193  -26.5602   22.9079 H   0  0  0  0  0  0
   -4.9803  -23.0176   23.0051 H   0  0  0  0  0  0
   -8.0824  -27.5709   20.7040 H   0  0  0  0  0  0
   -7.6375  -25.6809   17.2138 H   0  0  0  0  0  0
   -6.6768  -25.2304   18.6633 H   0  0  0  0  0  0
   -8.3737  -24.6646   18.4990 H   0  0  0  0  0  0
   -9.7390  -24.9602   20.3382 H   0  0  0  0  0  0
  -12.1914  -26.6914   18.9101 H   0  0  0  0  0  0
  -10.7072  -25.8019   18.4279 H   0  0  0  0  0  0
  -11.8025  -25.1127   19.6738 H   0  0  0  0  0  0
   -9.5196  -26.8638   22.8617 H   0  0  0  0  0  0
  -10.8049  -26.2414   24.5297 H   0  0  0  0  0  0
  -13.4283  -26.0280   22.9102 H   0  0  0  0  0  0
  -13.1816  -28.4421   22.5677 H   0  0  0  0  0  0
  -11.4965  -27.8464   22.3884 H   0  0  0  0  0  0
  -10.2705  -29.1635   21.9901 H   0  0  0  0  0  0
  -12.5711  -23.7588   23.8590 H   0  0  0  0  0  0
  -12.1512  -22.4723   22.6307 H   0  0  0  0  0  0
  -12.1391  -25.1594   26.6074 H   0  0  0  0  0  0
  -14.3249  -21.3133   27.7996 H   0  0  0  0  0  0
  -14.6383  -25.8992   26.2741 H   0  0  0  0  0  0
  -15.6479  -26.4204   23.6538 H   0  0  0  0  0  0
  -17.2191  -25.2225   22.2389 H   0  0  0  0  0  0
  -13.7763  -25.0284   20.6106 H   0  0  0  0  0  0
  -16.7336  -24.8897   25.9304 H   0  0  0  0  0  0
  -16.8495  -27.9302   27.2755 H   0  0  0  0  0  0
  -17.3536  -26.2280   27.5496 H   0  0  0  0  0  0
  -15.6815  -26.5928   27.0038 H   0  0  0  0  0  0
  -18.8153  -25.7522   23.7862 H   0  0  0  0  0  0
  -21.9500  -24.3312   26.4265 H   0  0  0  0  0  0
  -18.1415  -22.7859   24.5926 H   0  0  0  0  0  0
  -18.8202  -21.4829   23.0065 H   0  0  0  0  0  0
  -21.8384  -21.9933   22.8295 H   0  0  0  0  0  0
  -21.7444  -20.6362   25.0711 H   0  0  0  0  0  0
  -21.3358  -22.3850   25.1044 H   0  0  0  0  0  0
  -20.3792  -22.3445   27.6514 H   0  0  0  0  0  0
  -20.6248  -22.7238   20.7322 H   0  0  0  0  0  0
  -16.6078  -24.3865   19.7267 H   0  0  0  0  0  0
  -19.0003  -20.0453   20.8714 H   0  0  0  0  0  0
  -20.9724  -19.0723   17.0289 H   0  0  0  0  0  0
  -21.2687  -18.8959   21.0726 H   0  0  0  0  0  0
  -24.4052  -20.5507   20.9079 H   0  0  0  0  0  0
  -23.5659  -18.9632   20.9545 H   0  0  0  0  0  0
  -23.5505  -20.0300   22.3996 H   0  0  0  0  0  0
  1  2  1  0  0  0
  1  3  1  0  0  0
  2101  1  0  0  0
  2102  1  0  0  0
  2103  1  0  0  0
  3  4  1  0  0  0
  3 12  1  0  0  0
  3104  1  0  0  0
  4  5  1  0  0  0
  4  6  1  0  0  0
  4105  1  0  0  0
  5 21  1  0  0  0
  6  7  1  0  0  0
  6106  1  0  0  0
  6107  1  0  0  0
  7  8  1  0  0  0
  8  9  2  0  0  0
  8 10  2  0  0  0
  8 11  1  0  0  0
 11108  1  0  0  0
 12 13  1  0  0  0
 12 15  1  0  0  0
 12109  1  0  0  0
 13 14  1  0  0  0
 14110  1  0  0  0
 14111  1  0  0  0
 14112  1  0  0  0
 15 16  1  0  0  0
 15 21  1  0  0  0
 15113  1  0  0  0
 16 17  1  0  0  0
 17 18  2  0  0  0
 17 19  1  0  0  0
 17 20  2  0  0  0
 19114  1  0  0  0
 21 22  1  0  0  0
 21115  1  0  0  0
 22 23  1  0  0  0
 23 24  1  0  0  0
 23 29  1  0  0  0
 23116  1  0  0  0
 24 25  1  0  0  0
 24 26  1  0  0  0
 24117  1  0  0  0
 25 35  1  0  0  0
 26 27  1  0  0  0
 26 28  2  0  0  0
 27118  1  0  0  0
 29 30  1  0  0  0
 29 32  1  0  0  0
 29119  1  0  0  0
 30 31  1  0  0  0
 31120  1  0  0  0
 31121  1  0  0  0
 31122  1  0  0  0
 32 33  1  0  0  0
 32 35  1  0  0  0
 32123  1  0  0  0
 33 34  1  0  0  0
 34124  1  0  0  0
 34125  1  0  0  0
 34126  1  0  0  0
 35 36  1  0  0  0
 35127  1  0  0  0
 36 37  1  0  0  0
 37 38  1  0  0  0
 37 46  1  0  0  0
 37128  1  0  0  0
 38 39  1  0  0  0
 38 40  1  0  0  0
 38129  1  0  0  0
 39 58  1  0  0  0
 40 41  1  0  0  0
 40130  1  0  0  0
 40131  1  0  0  0
 41 42  1  0  0  0
 42 43  1  0  0  0
 42 44  2  0  0  0
 42 45  2  0  0  0
 43132  1  0  0  0
 46 47  1  0  0  0
 46 52  1  0  0  0
 46133  1  0  0  0
 47 48  1  0  0  0
 48 49  2  0  0  0
 48 50  2  0  0  0
 48 51  1  0  0  0
 51134  1  0  0  0
 52 53  1  0  0  0
 52 58  1  0  0  0
 52135  1  0  0  0
 53 54  1  0  0  0
 54 55  1  0  0  0
 54 56  2  0  0  0
 54 57  2  0  0  0
 55136  1  0  0  0
 58 59  1  0  0  0
 58137  1  0  0  0
 59 60  1  0  0  0
 60 61  1  0  0  0
 60 66  1  0  0  0
 60138  1  0  0  0
 61 62  1  0  0  0
 61 63  1  0  0  0
 61139  1  0  0  0
 62 75  1  0  0  0
 63 64  1  0  0  0
 63 65  2  0  0  0
 64140  1  0  0  0
 66 67  1  0  0  0
 66 69  1  0  0  0
 66141  1  0  0  0
 67 68  1  0  0  0
 68142  1  0  0  0
 68143  1  0  0  0
 68144  1  0  0  0
 69 70  1  0  0  0
 69 75  1  0  0  0
 69145  1  0  0  0
 70 71  1  0  0  0
 71 72  2  0  0  0
 71 73  1  0  0  0
 71 74  2  0  0  0
 73146  1  0  0  0
 75 76  1  0  0  0
 75147  1  0  0  0
 76 77  1  0  0  0
 77 78  1  0  0  0
 77 86  1  0  0  0
 77148  1  0  0  0
 78 79  1  0  0  0
 78 80  1  0  0  0
 78149  1  0  0  0
 79 98  1  0  0  0
 80 81  1  0  0  0
 80150  1  0  0  0
 80151  1  0  0  0
 81 82  1  0  0  0
 82 83  1  0  0  0
 82 84  2  0  0  0
 82 85  2  0  0  0
 83152  1  0  0  0
 86 87  1  0  0  0
 86 92  1  0  0  0
 86153  1  0  0  0
 87 88  1  0  0  0
 88 89  2  0  0  0
 88 90  1  0  0  0
 88 91  2  0  0  0
 90154  1  0  0  0
 92 93  1  0  0  0
 92 98  1  0  0  0
 92155  1  0  0  0
 93 94  1  0  0  0
 94 95  2  0  0  0
 94 96  2  0  0  0
 94 97  1  0  0  0
 97156  1  0  0  0
 98 99  1  0  0  0
 98157  1  0  0  0
 99100  1  0  0  0
100158  1  0  0  0
100159  1  0  0  0
100160  1  0  0  0
M  END
> <s_m_source_file>
../1e03_ligand.sdf

> <i_m_source_file_index>
1

> <s_epik_input>
Tz1TKD1PKShbT0hdKU9bQ0gyXVtDQEhdKFtDQEhdMU9bQ0gzXSlPW0NAQEhdKFtDQEBIXShbQ0BIXTFPW0NIM10pT1MoPU8pKD1PKVtPSF0pT1tDQEBIXTJbQ0BASF0oQyg9TylbT0hdKU9bQ0BIXShbQ0BIXShPW0NIM10pW0NASF0yT1tDSDNdKU9bQ0BASF0zW0NAQEhdKFtDSDJdT1MoPU8pKD1PKVtPSF0pT1tDQEBIXShbQ0BIXShPUyg9TykoPU8pW09IXSlbQ0BIXTNPUyg9TykoPU8pW09IXSlPW0NAQEhdNFtDQEhdKEMoPU8pW09IXSlPW0NASF0oW0NAQEhdKFtDQEhdNE9bQ0gzXSlPUyg9TykoPU8pW09IXSlPW0NAQEhdNVtDQEBIXShbQ0gyXU9TKD1PKSg9TylbT0hdKU9bQ0BIXShPW0NIM10pW0NASF0oT1MoPU8pKD1PKVtPSF0pW0NASF01T1MoPU8pKD1PKVtPSF0=

> <s_epik_cmdline>
J2VwaWtfYXBwJywgJy1pbWFlJywgJ2xpZ2FuZF9wcm8ubWFlJywgJy1vbWFlJywgJ2xpZ2FuZF9wcmVwLm1hZScsICctbXMnLCAnMScsICctcGgnLCAnNycsICctcGh0JywgJzAuNScsICctbnQn

> <s_epik_pKa_notes>
Molecule size exceeds maximum supported for generating protonation states

> <s_epik_Chemistry_Notes>
This compound contains an acetal/aminal-like group ( X-CH(R)-Y where X, Y are N, S, or O) that may be acid/base labile, releasing an aldehyde.

$$$$
