1e06_ligand
                    3D
 Schrodinger Suite 2020-3.
 25 25  0  0  1  0            999 V2000
   -0.3210   26.5360   12.3200 C   0  0  0  0  0  0
   -0.8400   25.3960   12.6760 C   0  0  0  0  0  0
   -2.1600   25.3250   13.3620 C   0  0  0  0  0  0
   -2.8440   26.4530   13.6290 C   0  0  0  0  0  0
   -2.2690   27.6790   13.2360 C   0  0  0  0  0  0
   -1.0940   27.7760   12.6170 C   0  0  0  0  0  0
    1.0310   26.6190   11.6050 C   0  0  0  0  0  0
   -4.1540   26.4090   14.2980 C   0  0  0  0  0  0
   -0.6470   29.0110   12.3010 O   0  0  0  0  0  0
    2.1090   25.7470   12.2720 C   0  0  0  0  0  0
    0.9270   26.2790   10.1480 C   0  0  0  0  0  0
   -0.2969   24.4742   12.4675 H   0  0  0  0  0  0
   -2.5729   24.3577   13.6484 H   0  0  0  0  0  0
   -2.8160   28.5971   13.4505 H   0  0  0  0  0  0
    1.3387   27.6733   11.6661 H   0  0  0  0  0  0
   -4.4183   25.3642   14.5183 H   0  0  0  0  0  0
   -4.9171   26.8492   13.6393 H   0  0  0  0  0  0
   -4.1058   26.9807   15.2365 H   0  0  0  0  0  0
    0.3192   29.1320   11.7892 H   0  0  0  0  0  0
    2.1786   26.0027   13.3396 H   0  0  0  0  0  0
    3.0795   25.9291   11.7873 H   0  0  0  0  0  0
    1.8395   24.6858   12.1659 H   0  0  0  0  0  0
    0.1547   26.9065    9.6793 H   0  0  0  0  0  0
    0.6550   25.2189   10.0374 H   0  0  0  0  0  0
    1.8950   26.4622    9.6587 H   0  0  0  0  0  0
  1  7  1  0  0  0
  1  6  2  0  0  0
  1  2  1  0  0  0
  2  3  2  0  0  0
  2 12  1  0  0  0
  3  4  1  0  0  0
  3 13  1  0  0  0
  4  8  1  0  0  0
  4  5  2  0  0  0
  5  6  1  0  0  0
  5 14  1  0  0  0
  6  9  1  0  0  0
  7 11  1  0  0  0
  7 10  1  0  0  0
  7 15  1  0  0  0
  8 16  1  0  0  0
  8 17  1  0  0  0
  8 18  1  0  0  0
  9 19  1  0  0  0
 10 20  1  0  0  0
 10 21  1  0  0  0
 10 22  1  0  0  0
 11 23  1  0  0  0
 11 24  1  0  0  0
 11 25  1  0  0  0
M  END
> <s_m_source_file>
../1e06_ligand.sdf

> <i_m_source_file_index>
1

> <s_epik_input>
W0NIM11bQ0hdKFtDSDNdKWMxW2NIXVtjSF1jKFtDSDNdKVtjSF1jMVtPSF0=

> <s_epik_cmdline>
J2VwaWtfYXBwJywgJy1pbWFlJywgJ2xpZ2FuZF9wcm8ubWFlJywgJy1vbWFlJywgJ2xpZ2FuZF9wcmVwLm1hZScsICctbXMnLCAnMScsICctcGgnLCAnNycsICctcGh0JywgJzAuNScsICctbnQn

> <r_lp_tautomer_probability>
1

> <r_epik_Ionization_Penalty>
  0.0002

> <r_epik_Ionization_Penalty_Charging>
  0.0000

> <r_epik_Ionization_Penalty_Neutral>
  0.0002

> <r_epik_State_Penalty>
 -0.0000

> <r_epik_Charging_Adjusted_Penalty>
0

> <i_epik_Tot_Q>
0

> <i_epik_Tot_abs_Q>
0

$$$$
