1e1v_ligand
                    3D
 Schrodinger Suite 2020-3.
 35 37  0  0  1  0            999 V2000
    2.4450   28.9910    7.3460 N   0  0  0  0  0  0
    2.9810   29.9600    6.6140 C   0  0  0  0  0  0
    2.3900   31.1700    6.6090 N   0  0  0  0  0  0
    1.3010   31.4190    7.3260 C   0  0  0  0  0  0
    0.7490   30.4080    8.0490 C   0  0  0  0  0  0
    1.3270   29.1410    8.0570 C   0  0  0  0  0  0
    0.7220   28.1600    8.8410 O   0  0  0  0  0  0
    1.7060   27.1180    9.1120 C   0  0  0  0  0  0
   -0.2920   31.0010    8.6180 N   0  0  0  0  0  0
   -0.4920   32.3190    8.2780 C   0  0  0  0  0  0
    0.5880   32.5280    7.4900 N   0  3  0  0  0  0
    4.1220   29.9810    5.8800 N   0  0  0  0  0  0
    0.9790   26.3030   10.2570 C   0  0  0  0  0  0
   -0.2230   25.5700    9.5700 C   0  0  0  0  0  0
   -0.7780   24.5780   10.5920 C   0  0  0  0  0  0
    0.1720   23.3870   10.3210 C   0  0  0  0  0  0
    1.3640   23.9990   11.1710 C   0  0  0  0  0  0
    1.8480   25.0470   10.1260 C   0  0  0  0  0  0
    1.8792   26.5307    8.1982 H   0  0  0  0  0  0
    2.6503   27.5805    9.4351 H   0  0  0  0  0  0
   -1.2930   33.0012    8.5626 H   0  0  0  0  0  0
    4.7290   29.0690    5.7808 H   0  0  0  0  0  0
    4.4400   30.9100    5.3842 H   0  0  0  0  0  0
    0.7923   26.8594   11.1873 H   0  0  0  0  0  0
   -0.9883   26.3074    9.2862 H   0  0  0  0  0  0
    0.1327   25.0460    8.6706 H   0  0  0  0  0  0
   -0.6924   25.0056   11.6019 H   0  0  0  0  0  0
   -1.8356   24.3744   10.3685 H   0  0  0  0  0  0
   -0.2813   22.4615   10.7057 H   0  0  0  0  0  0
    0.3395   23.2906    9.2381 H   0  0  0  0  0  0
    0.9680   24.4230   12.1056 H   0  0  0  0  0  0
    2.0906   23.2074   11.4065 H   0  0  0  0  0  0
    1.7490   24.6370    9.1101 H   0  0  0  0  0  0
    2.8998   25.3074   10.3154 H   0  0  0  0  0  0
    0.9073   33.4635    7.0074 H   0  0  0  0  0  0
  1  6  2  0  0  0
  1  2  1  0  0  0
  2 12  1  0  0  0
  2  3  2  0  0  0
  3  4  1  0  0  0
  4 11  2  0  0  0
  4  5  1  0  0  0
  5  9  2  0  0  0
  5  6  1  0  0  0
  6  7  1  0  0  0
  7  8  1  0  0  0
  8 13  1  0  0  0
  8 19  1  0  0  0
  8 20  1  0  0  0
  9 10  1  0  0  0
 10 11  1  0  0  0
 10 21  1  0  0  0
 11 35  1  0  0  0
 12 22  1  0  0  0
 12 23  1  0  0  0
 13 18  1  0  0  0
 13 14  1  0  0  0
 13 24  1  0  0  0
 14 15  1  0  0  0
 14 25  1  0  0  0
 14 26  1  0  0  0
 15 16  1  0  0  0
 15 27  1  0  0  0
 15 28  1  0  0  0
 16 17  1  0  0  0
 16 29  1  0  0  0
 16 30  1  0  0  0
 17 18  1  0  0  0
 17 31  1  0  0  0
 17 32  1  0  0  0
 18 33  1  0  0  0
 18 34  1  0  0  0
M  CHG  1  11   1
M  END
> <s_m_source_file>
../1e1v_ligand.sdf

> <i_m_source_file_index>
1

> <s_epik_input>
TjFbQ0gyXU49YyhjPTEyKWMobmMobjIpW05IMl0pT1tDSDJdW0NIXTNbQ0gyXVtDSDJdW0NIMl1bQ0gyXVtDSDJdMw==

> <s_epik_cmdline>
J2VwaWtfYXBwJywgJy1pbWFlJywgJ2xpZ2FuZF9wcm8ubWFlJywgJy1vbWFlJywgJ2xpZ2FuZF9wcmVwLm1hZScsICctbXMnLCAnMScsICctcGgnLCAnNycsICctcGh0JywgJzAuNScsICctbnQn

> <r_lp_tautomer_probability>
1

> <r_epik_Ionization_Penalty>
  0.0000

> <r_epik_Ionization_Penalty_Charging>
  0.0000

> <r_epik_Ionization_Penalty_Neutral>
  0.0000

> <r_epik_State_Penalty>
 -0.0000

> <r_epik_Charging_Adjusted_Penalty>
1.72341331169499e-14

> <i_epik_Tot_Q>
1

> <i_epik_Tot_abs_Q>
1

> <s_epik_Chemistry_Notes>
This compound has an imine and may undergo hydrolysis.

$$$$
