1e1x_ligand
                    3D
 Schrodinger Suite 2020-3.
 35 36  0  0  1  0            999 V2000
    2.1630   28.4110    7.1980 N   0  0  0  0  0  0
    1.2250   28.4780    8.1800 C   0  0  0  0  0  0
    0.9650   27.3090    8.8980 O   0  0  0  0  0  0
    1.9190   26.2340    8.6810 C   0  0  0  0  0  0
    1.6440   25.2190    9.7930 C   0  0  0  0  0  0
    0.1380   25.0120   10.0520 C   0  0  0  0  0  0
   -0.0450   24.0560   11.2680 C   0  0  0  0  0  0
    0.6520   22.6910   10.9410 C   0  0  0  0  0  0
    2.1770   22.9700   10.8330 C   0  0  0  0  0  0
    2.3790   23.8680    9.5680 C   0  0  0  0  0  0
    0.5130   29.7550    8.4910 C   0  0  0  0  0  0
   -0.4380   29.6840    9.5840 N   0  0  0  0  0  0
   -1.0670   30.7150    9.8740 O   0  0  0  0  0  0
    0.8580   30.8220    7.7690 C   0  0  0  0  0  0
    0.3240   31.9930    7.9600 N   0  0  0  0  0  0
    1.8720   30.6210    6.7240 N   0  0  0  0  0  0
    2.4880   29.5500    6.4660 C   0  0  0  0  0  0
    3.4110   29.4190    5.5470 N   0  0  0  0  0  0
    1.7568   25.7953    7.6854 H   0  0  0  0  0  0
    2.9420   26.6334    8.7435 H   0  0  0  0  0  0
    2.0621   25.6767   10.7017 H   0  0  0  0  0  0
   -0.3332   25.9817   10.2702 H   0  0  0  0  0  0
   -0.3300   24.5694    9.1603 H   0  0  0  0  0  0
    0.4139   24.5062   12.1606 H   0  0  0  0  0  0
   -1.1179   23.8944   11.4492 H   0  0  0  0  0  0
    0.4458   21.9716   11.7472 H   0  0  0  0  0  0
    0.2616   22.2984    9.9905 H   0  0  0  0  0  0
    2.5201   23.4883   11.7406 H   0  0  0  0  0  0
    2.7175   22.0177   10.7281 H   0  0  0  0  0  0
    1.9609   23.3661    8.6830 H   0  0  0  0  0  0
    3.4514   24.0557    9.4106 H   0  0  0  0  0  0
   -0.4339   32.1304    8.7453 H   0  0  0  0  0  0
    0.6304   32.8456    7.3361 H   0  0  0  0  0  0
    3.8968   28.4446    5.3904 H   0  0  0  0  0  0
    3.7008   30.2833    4.9314 H   0  0  0  0  0  0
  1 17  2  0  0  0
  1  2  1  0  0  0
  2 11  2  0  0  0
  2  3  1  0  0  0
  3  4  1  0  0  0
  4  5  1  0  0  0
  4 19  1  0  0  0
  4 20  1  0  0  0
  5 10  1  0  0  0
  5  6  1  0  0  0
  5 21  1  0  0  0
  6  7  1  0  0  0
  6 22  1  0  0  0
  6 23  1  0  0  0
  7  8  1  0  0  0
  7 24  1  0  0  0
  7 25  1  0  0  0
  8  9  1  0  0  0
  8 26  1  0  0  0
  8 27  1  0  0  0
  9 10  1  0  0  0
  9 28  1  0  0  0
  9 29  1  0  0  0
 10 30  1  0  0  0
 10 31  1  0  0  0
 11 14  1  0  0  0
 11 12  1  0  0  0
 12 13  2  0  0  0
 14 16  2  0  0  0
 14 15  1  0  0  0
 15 32  1  0  0  0
 15 33  1  0  0  0
 16 17  1  0  0  0
 17 18  1  0  0  0
 18 34  1  0  0  0
 18 35  1  0  0  0
M  END
> <s_m_source_file>
../1e1x_ligand.sdf

> <i_m_source_file_index>
1

> <s_epik_input>
Tz1OYzFjKFtOSDJdKW5jKFtOSDJdKW5jMU9bQ0gyXVtDSF0yW0NIMl1bQ0gyXVtDSDJdW0NIMl1bQ0gyXTI=

> <s_epik_cmdline>
J2VwaWtfYXBwJywgJy1pbWFlJywgJ2xpZ2FuZF9wcm8ubWFlJywgJy1vbWFlJywgJ2xpZ2FuZF9wcmVwLm1hZScsICctbXMnLCAnMScsICctcGgnLCAnNycsICctcGh0JywgJzAuNScsICctbnQn

> <r_lp_tautomer_probability>
1

> <r_epik_Ionization_Penalty>
  0.0004

> <r_epik_Ionization_Penalty_Charging>
  0.0000

> <r_epik_Ionization_Penalty_Neutral>
  0.0004

> <r_epik_State_Penalty>
 -0.0000

> <r_epik_Charging_Adjusted_Penalty>
0

> <i_epik_Tot_Q>
0

> <i_epik_Tot_abs_Q>
0

$$$$
