1e2k_ligand
                    3D
 Schrodinger Suite 2020-3.
 34 36  0  0  1  0            999 V2000
   50.3650   35.7730    1.2290 O   0  0  0  0  0  0
   50.7440   34.6090   -2.0410 O   0  0  0  0  0  0
   45.4850   31.6870   -1.2610 O   0  0  0  0  0  0
   43.1910   34.5170    1.4590 O   0  0  0  0  0  0
   46.6500   33.2970   -0.0480 N   0  0  0  0  0  0
   44.3790   33.1100    0.1630 N   0  0  0  0  0  0
   50.1450   33.6030    0.1970 C   0  0  1  0  0  0
   49.7430   34.2920   -1.1100 C   0  0  2  0  0  0
   48.4730   33.6530   -1.6110 C   0  0  0  0  0  0
   47.9650   32.7100   -0.5190 C   0  0  1  0  0  0
   49.0050   32.6710    0.6400 C   0  0  1  0  0  0
   50.3270   32.1180    0.1530 C   0  0  0  0  0  0
   50.8100   34.3980    1.2750 C   0  0  0  0  0  0
   45.5520   32.6120   -0.4750 C   0  0  0  0  0  0
   44.3590   34.1810    1.0470 C   0  0  0  0  0  0
   45.5420   34.8400    1.4210 C   0  0  0  0  0  0
   46.6870   34.3520    0.8440 C   0  0  0  0  0  0
   45.6000   35.9960    2.3980 C   0  0  0  0  0  0
   50.7552   36.5019    1.9545 H   0  0  0  0  0  0
   51.6811   35.0759   -1.7035 H   0  0  0  0  0  0
   43.4450   32.5850   -0.0862 H   0  0  0  0  0  0
   49.6006   35.3745   -0.9762 H   0  0  0  0  0  0
   47.7270   34.4341   -1.8195 H   0  0  0  0  0  0
   48.6839   33.0919   -2.5333 H   0  0  0  0  0  0
   47.8050   31.6863   -0.8884 H   0  0  0  0  0  0
   48.3943   32.4915    1.5371 H   0  0  0  0  0  0
   50.5375   31.8049   -0.8803 H   0  0  0  0  0  0
   51.1685   31.8323    0.8013 H   0  0  0  0  0  0
   51.8997   34.3602    1.1297 H   0  0  0  0  0  0
   50.5551   33.9626    2.2525 H   0  0  0  0  0  0
   47.6459   34.8058    1.0943 H   0  0  0  0  0  0
   44.5836   36.2346    2.7444 H   0  0  0  0  0  0
   46.0336   36.8757    1.8998 H   0  0  0  0  0  0
   46.2249   35.7172    3.2592 H   0  0  0  0  0  0
  1 13  1  0  0  0
  1 19  1  0  0  0
  2  8  1  0  0  0
  2 20  1  0  0  0
  3 14  2  0  0  0
  4 15  2  0  0  0
  5 10  1  0  0  0
  5 14  1  0  0  0
  5 17  1  0  0  0
  6 15  1  0  0  0
  6 14  1  0  0  0
  6 21  1  0  0  0
  7 13  1  0  0  0
  7  8  1  0  0  0
  7 11  1  0  0  0
  7 12  1  0  0  0
  8  9  1  0  0  0
  8 22  1  0  0  0
  9 10  1  0  0  0
  9 23  1  0  0  0
  9 24  1  0  0  0
 10 11  1  0  0  0
 10 25  1  0  0  0
 11 12  1  0  0  0
 11 26  1  0  0  0
 12 27  1  0  0  0
 12 28  1  0  0  0
 13 29  1  0  0  0
 13 30  1  0  0  0
 15 16  1  0  0  0
 16 17  2  0  0  0
 16 18  1  0  0  0
 17 31  1  0  0  0
 18 32  1  0  0  0
 18 33  1  0  0  0
 18 34  1  0  0  0
M  END
> <s_m_source_file>
../1e2k_ligand.sdf

> <i_m_source_file_index>
1

> <s_epik_input>
W09IXVtDSDJdW0NAQF0xMltDQEhdKFtDSDJdMilbQ0BIXShbQ0gyXVtDQEBIXTFbT0hdKW4zYyg9TylbbkhdYyg9TyljKFtjSF0zKVtDSDNd

> <s_epik_cmdline>
J2VwaWtfYXBwJywgJy1pbWFlJywgJ2xpZ2FuZF9wcm8ubWFlJywgJy1vbWFlJywgJ2xpZ2FuZF9wcmVwLm1hZScsICctbXMnLCAnMScsICctcGgnLCAnNycsICctcGh0JywgJzAuNScsICctbnQn

> <r_lp_tautomer_probability>
1

> <r_epik_Ionization_Penalty>
  0.0004

> <r_epik_Ionization_Penalty_Charging>
  0.0004

> <r_epik_Ionization_Penalty_Neutral>
  0.0000

> <r_epik_State_Penalty>
 -0.0000

> <r_epik_Charging_Adjusted_Penalty>
0.000399470124224266

> <i_epik_Tot_Q>
0

> <i_epik_Tot_abs_Q>
0

$$$$
