1e2l_ligand
                    3D
 Schrodinger Suite 2020-3.
 34 36  0  0  1  0            999 V2000
   50.2480   36.1560    0.6380 O   0  0  0  0  0  0
   50.7490   34.8620   -2.4060 O   0  0  0  0  0  0
   45.5780   31.9080   -1.4740 O   0  0  0  0  0  0
   43.2950   34.6050    1.4770 O   0  0  0  0  0  0
   46.8020   33.4610   -0.2830 N   0  0  0  0  0  0
   44.4640   33.2090    0.0280 N   0  0  0  0  0  0
   50.2620   33.9340   -0.1760 C   0  0  1  0  0  0
   49.7220   34.6090   -1.4330 C   0  0  2  0  0  0
   48.5910   33.7320   -1.9820 C   0  0  0  0  0  0
   48.0950   32.8740   -0.7790 C   0  0  1  0  0  0
   49.2220   32.9240    0.2940 C   0  0  1  0  0  0
   50.5670   32.4800   -0.2380 C   0  0  0  0  0  0
   50.8760   34.8460    0.8430 C   0  0  0  0  0  0
   45.6370   32.8110   -0.6370 C   0  0  0  0  0  0
   44.3550   34.2370    0.9510 C   0  0  0  0  0  0
   45.6250   34.8860    1.2590 C   0  0  0  0  0  0
   46.7800   34.4890    0.6550 C   0  0  0  0  0  0
   45.5750   36.0050    2.2950 C   0  0  0  0  0  0
   50.5338   37.0082    1.2720 H   0  0  0  0  0  0
   51.6194   35.4794   -2.1391 H   0  0  0  0  0  0
   43.5771   32.6180   -0.2443 H   0  0  0  0  0  0
   49.3784   35.6329   -1.2241 H   0  0  0  0  0  0
   47.7869   34.3728   -2.3729 H   0  0  0  0  0  0
   48.9797   33.0965   -2.7914 H   0  0  0  0  0  0
   47.8644   31.8293   -1.0348 H   0  0  0  0  0  0
   48.6642   32.6952    1.2141 H   0  0  0  0  0  0
   50.7698   32.1920   -1.2801 H   0  0  0  0  0  0
   51.4505   32.2640    0.3807 H   0  0  0  0  0  0
   51.9627   34.9334    0.6966 H   0  0  0  0  0  0
   50.6707   34.4970    1.8658 H   0  0  0  0  0  0
   47.7126   34.9904    0.9136 H   0  0  0  0  0  0
   44.5384   36.1424    2.6365 H   0  0  0  0  0  0
   45.9392   36.9395    1.8432 H   0  0  0  0  0  0
   46.2113   35.7398    3.1522 H   0  0  0  0  0  0
  1 13  1  0  0  0
  1 19  1  0  0  0
  2  8  1  0  0  0
  2 20  1  0  0  0
  3 14  2  0  0  0
  4 15  2  0  0  0
  5 10  1  0  0  0
  5 14  1  0  0  0
  5 17  1  0  0  0
  6 15  1  0  0  0
  6 14  1  0  0  0
  6 21  1  0  0  0
  7 13  1  0  0  0
  7  8  1  0  0  0
  7 11  1  0  0  0
  7 12  1  0  0  0
  8  9  1  0  0  0
  8 22  1  0  0  0
  9 10  1  0  0  0
  9 23  1  0  0  0
  9 24  1  0  0  0
 10 11  1  0  0  0
 10 25  1  0  0  0
 11 12  1  0  0  0
 11 26  1  0  0  0
 12 27  1  0  0  0
 12 28  1  0  0  0
 13 29  1  0  0  0
 13 30  1  0  0  0
 15 16  1  0  0  0
 16 17  2  0  0  0
 16 18  1  0  0  0
 17 31  1  0  0  0
 18 32  1  0  0  0
 18 33  1  0  0  0
 18 34  1  0  0  0
M  END
> <s_m_source_file>
../1e2l_ligand.sdf

> <i_m_source_file_index>
1

> <s_epik_input>
W09IXVtDSDJdW0NAQF0xMltDQEhdKFtDSDJdMilbQ0BIXShbQ0gyXVtDQEBIXTFbT0hdKW4zYyg9TylbbkhdYyg9TyljKFtjSF0zKVtDSDNd

> <s_epik_cmdline>
J2VwaWtfYXBwJywgJy1pbWFlJywgJ2xpZ2FuZF9wcm8ubWFlJywgJy1vbWFlJywgJ2xpZ2FuZF9wcmVwLm1hZScsICctbXMnLCAnMScsICctcGgnLCAnNycsICctcGh0JywgJzAuNScsICctbnQn

> <r_lp_tautomer_probability>
1

> <r_epik_Ionization_Penalty>
  0.0004

> <r_epik_Ionization_Penalty_Charging>
  0.0004

> <r_epik_Ionization_Penalty_Neutral>
  0.0000

> <r_epik_State_Penalty>
 -0.0000

> <r_epik_Charging_Adjusted_Penalty>
0.000399470124224266

> <i_epik_Tot_Q>
0

> <i_epik_Tot_abs_Q>
0

$$$$
