1e34_ligand
                    3D
 Schrodinger Suite 2020-3.
 39 39  0  0  1  0            999 V2000
   -9.0360   23.7870   37.6540 C   0  0  0  0  0  0
  -10.4560   23.2700   37.7690 C   0  0  2  0  0  0
  -10.6410   22.1640   36.8160 C   0  0  2  0  0  0
  -12.0150   21.5610   36.8870 C   0  0  0  0  0  0
  -11.4020   24.4160   37.5870 C   0  0  0  0  0  0
  -11.0880   25.5130   38.5910 C   0  0  0  0  0  0
   -8.5430   24.4530   36.7620 O   0  0  0  0  0  0
  -12.5260   21.1910   35.7980 O   0  5  0  0  0  0
  -12.5550   21.4450   38.0030 O   0  0  0  0  0  0
   -9.6190   21.0950   36.8170 C   0  0  0  0  0  0
   -8.2370   21.4900   36.6760 N   0  0  3  0  0  0
   -8.5790   22.2170   34.2940 O   0  0  0  0  0  0
   -6.3140   22.0310   35.2180 O   0  0  0  0  0  0
   -7.6510   21.5780   35.1370 S   0  0  0  0  0  0
   -7.5250   19.8540   34.7370 C   0  0  0  0  0  0
   -6.0850   19.6590   34.0230 C   0  0  0  0  0  0
   -8.3460   18.9860   34.4160 C   0  0  0  0  0  0
   -5.7890   18.3930   33.5580 C   0  0  0  0  0  0
   -8.0500   17.7210   33.9500 C   0  0  0  0  0  0
   -6.7720   17.4220   33.5210 C   0  0  0  0  0  0
   -6.4510   16.0460   33.0140 C   0  0  0  0  0  0
   -8.4254   23.4875   38.5185 H   0  0  0  0  0  0
  -10.6833   22.8319   38.7521 H   0  0  0  0  0  0
  -10.4857   22.6904   35.8627 H   0  0  0  0  0  0
  -11.2997   24.8176   36.5681 H   0  0  0  0  0  0
  -12.4339   24.0679   37.7420 H   0  0  0  0  0  0
  -11.7874   26.3502   38.4500 H   0  0  0  0  0  0
  -10.0576   25.8662   38.4378 H   0  0  0  0  0  0
  -11.1918   25.1164   39.6118 H   0  0  0  0  0  0
   -9.6668   20.5429   37.7672 H   0  0  0  0  0  0
   -9.8095   20.4048   35.9819 H   0  0  0  0  0  0
   -7.6823   21.8709   37.5462 H   0  0  0  0  0  0
   -5.3837   20.4864   33.9147 H   0  0  0  0  0  0
   -9.4008   19.2442   34.5099 H   0  0  0  0  0  0
   -4.7795   18.1592   33.2199 H   0  0  0  0  0  0
   -8.8265   16.9566   33.9206 H   0  0  0  0  0  0
   -5.3918   16.0012   32.7207 H   0  0  0  0  0  0
   -7.0827   15.8198   32.1423 H   0  0  0  0  0  0
   -6.6433   15.3088   33.8074 H   0  0  0  0  0  0
  1  2  1  0  0  0
  1  7  2  0  0  0
  1 22  1  0  0  0
  2  3  1  0  0  0
  2  5  1  0  0  0
  2 23  1  0  0  0
  3  4  1  0  0  0
  3 10  1  0  0  0
  3 24  1  0  0  0
  4  8  1  0  0  0
  4  9  2  0  0  0
  5  6  1  0  0  0
  5 25  1  0  0  0
  5 26  1  0  0  0
  6 27  1  0  0  0
  6 28  1  0  0  0
  6 29  1  0  0  0
 10 11  1  0  0  0
 10 30  1  0  0  0
 10 31  1  0  0  0
 11 14  1  0  0  0
 11 32  1  0  0  0
 12 14  2  0  0  0
 13 14  2  0  0  0
 14 15  1  0  0  0
 15 16  2  0  0  0
 15 17  1  0  0  0
 16 18  1  0  0  0
 16 33  1  0  0  0
 17 19  2  0  0  0
 17 34  1  0  0  0
 18 20  2  0  0  0
 18 35  1  0  0  0
 19 20  1  0  0  0
 19 36  1  0  0  0
 20 21  1  0  0  0
 21 37  1  0  0  0
 21 38  1  0  0  0
 21 39  1  0  0  0
M  CHG  1   8  -1
M  END
> <s_m_source_file>
../1e34_ligand.sdf

> <i_m_source_file_index>
1

> <s_epik_input>
W0NIM11bQ0gyXVtDQEhdKFtDSF09TylbQ0BIXShDKD1PKVtPSF0pW0NIMl1bTkhdUyg9TykoPU8pYzFbY0hdW2NIXWMoW0NIM10pW2NIXVtjSF0x

> <s_epik_cmdline>
J2VwaWtfYXBwJywgJy1pbWFlJywgJ2xpZ2FuZF9wcm8ubWFlJywgJy1vbWFlJywgJ2xpZ2FuZF9wcmVwLm1hZScsICctbXMnLCAnMScsICctcGgnLCAnNycsICctcGh0JywgJzAuNScsICctbnQn

> <r_lp_tautomer_probability>
1

> <r_epik_Ionization_Penalty>
  0.0007

> <r_epik_Ionization_Penalty_Charging>
  0.0007

> <r_epik_Ionization_Penalty_Neutral>
  0.0000

> <r_epik_State_Penalty>
 -0.0000

> <r_epik_Charging_Adjusted_Penalty>
0.000714670400021118

> <i_epik_Tot_Q>
-1

> <i_epik_Tot_abs_Q>
1

$$$$
