1e37_ligand
                    3D
 Schrodinger Suite 2020-3.
 38 38  0  0  1  0            999 V2000
   -9.1260   24.0010   37.7900 C   0  0  0  0  0  0
  -10.5040   23.4080   37.8760 C   0  0  2  0  0  0
  -10.6740   22.3720   36.8460 C   0  0  2  0  0  0
  -12.0030   21.6850   36.9380 C   0  0  0  0  0  0
  -11.5030   24.5360   37.8060 C   0  0  0  0  0  0
  -11.1790   25.6560   38.7850 C   0  0  0  0  0  0
   -8.6600   24.6410   36.8560 O   0  0  0  0  0  0
  -12.5620   21.3300   35.8780 O   0  5  0  0  0  0
  -12.4810   21.4910   38.0590 O   0  0  0  0  0  0
   -8.6600   22.0470   34.2340 O   0  0  0  0  0  0
   -6.6650   22.9970   35.2010 O   0  0  0  0  0  0
   -7.6140   21.9140   35.1610 S   0  0  0  0  0  0
   -8.2560   21.7210   36.6460 N   0  0  3  0  0  0
   -9.6280   21.3130   36.8120 C   0  0  0  0  0  0
   -6.5680   20.5080   35.0480 C   0  0  0  0  0  0
   -5.1970   20.6960   35.0520 C   0  0  0  0  0  0
   -7.1010   19.2320   34.9730 C   0  0  0  0  0  0
   -4.3350   19.6060   34.9720 C   0  0  0  0  0  0
   -6.2150   18.1810   34.9000 C   0  0  0  0  0  0
   -4.8500   18.3280   34.8990 C   0  0  0  0  0  0
   -3.9870   17.0990   34.8260 N   0  3  0  0  0  0
   -4.6300   16.0320   34.7510 O   0  0  0  0  0  0
   -2.7680   17.3080   34.8480 O   0  5  0  0  0  0
   -8.5156   23.8105   38.6850 H   0  0  0  0  0  0
  -10.6699   22.8641   38.8176 H   0  0  0  0  0  0
  -10.5787   22.9709   35.9283 H   0  0  0  0  0  0
  -11.5060   24.9607   36.7913 H   0  0  0  0  0  0
  -12.5059   24.1531   38.0461 H   0  0  0  0  0  0
  -11.9338   26.4511   38.6953 H   0  0  0  0  0  0
  -10.1846   26.0668   38.5561 H   0  0  0  0  0  0
  -11.1845   25.2592   39.8109 H   0  0  0  0  0  0
   -7.6755   22.0648   37.5148 H   0  0  0  0  0  0
   -9.6458   20.7496   37.7566 H   0  0  0  0  0  0
   -9.8257   20.6291   35.9734 H   0  0  0  0  0  0
   -4.7893   21.7047   35.1183 H   0  0  0  0  0  0
   -8.1784   19.0666   34.9718 H   0  0  0  0  0  0
   -3.2562   19.7616   34.9670 H   0  0  0  0  0  0
   -6.6216   17.1715   34.8394 H   0  0  0  0  0  0
  1  2  1  0  0  0
  1  7  2  0  0  0
  1 24  1  0  0  0
  2  3  1  0  0  0
  2  5  1  0  0  0
  2 25  1  0  0  0
  3  4  1  0  0  0
  3 14  1  0  0  0
  3 26  1  0  0  0
  4  8  1  0  0  0
  4  9  2  0  0  0
  5  6  1  0  0  0
  5 27  1  0  0  0
  5 28  1  0  0  0
  6 29  1  0  0  0
  6 30  1  0  0  0
  6 31  1  0  0  0
 10 12  2  0  0  0
 11 12  2  0  0  0
 12 13  1  0  0  0
 12 15  1  0  0  0
 13 14  1  0  0  0
 13 32  1  0  0  0
 14 33  1  0  0  0
 14 34  1  0  0  0
 15 16  2  0  0  0
 15 17  1  0  0  0
 16 18  1  0  0  0
 16 35  1  0  0  0
 17 19  2  0  0  0
 17 36  1  0  0  0
 18 20  2  0  0  0
 18 37  1  0  0  0
 19 20  1  0  0  0
 19 38  1  0  0  0
 20 21  1  0  0  0
 21 22  2  0  0  0
 21 23  1  0  0  0
M  CHG  3   8  -1  21   1  23  -1
M  END
> <s_m_source_file>
../1e37_ligand.sdf

> <i_m_source_file_index>
1

> <s_epik_input>
W0NIM11bQ0gyXVtDQEhdKFtDSF09TylbQ0BIXShDKD1PKVtPSF0pW0NIMl1bTkhdUyg9TykoPU8pYzFbY0hdW2NIXWMoW04rXSg9TylbTy1dKVtjSF1bY0hdMQ==

> <s_epik_cmdline>
J2VwaWtfYXBwJywgJy1pbWFlJywgJ2xpZ2FuZF9wcm8ubWFlJywgJy1vbWFlJywgJ2xpZ2FuZF9wcmVwLm1hZScsICctbXMnLCAnMScsICctcGgnLCAnNycsICctcGh0JywgJzAuNScsICctbnQn

> <r_lp_tautomer_probability>
1

> <r_epik_Ionization_Penalty>
  0.0009

> <r_epik_Ionization_Penalty_Charging>
  0.0007

> <r_epik_Ionization_Penalty_Neutral>
  0.0003

> <r_epik_State_Penalty>
 -0.0000

> <r_epik_Charging_Adjusted_Penalty>
0.00068275289866838

> <i_epik_Tot_Q>
-1

> <i_epik_Tot_abs_Q>
3

$$$$
