1e3g_ligand
                    3D
 Schrodinger Suite 2020-3.
 45 48  0  0  1  0            999 V2000
    0.4140   28.0700    4.1030 C   0  0  0  0  0  0
    1.1950   26.9990    4.8320 C   0  0  0  0  0  0
    2.6610   27.1400    4.5320 C   0  0  0  0  0  0
    3.1740   28.4570    4.7940 C   0  0  0  0  0  0
    2.3670   29.5530    4.7800 C   0  0  0  0  0  0
    2.9730   30.9060    5.1160 C   0  0  0  0  0  0
    2.2070   32.0300    4.4570 C   0  0  0  0  0  0
    0.7330   31.9620    4.8980 C   0  0  2  0  0  0
    0.1240   30.5970    4.5140 C   0  0  0  0  0  0
    0.9120   29.4800    4.4760 C   0  0  0  0  0  0
   -1.3160   30.5830    4.2510 C   0  0  0  0  0  0
   -2.1020   31.6750    4.3100 C   0  0  0  0  0  0
   -1.5350   33.0390    4.6640 C   0  0  1  0  0  0
   -0.0560   33.0660    4.2610 C   0  0  1  0  0  0
    0.3870   34.5090    4.5720 C   0  0  0  0  0  0
   -0.8990   35.2990    4.3110 C   0  0  0  0  0  0
   -2.0010   34.2820    3.9000 C   0  0  1  0  0  0
   -1.7250   33.2280    6.1890 C   0  0  0  0  0  0
   -2.0340   34.0500    2.4120 C   0  0  0  0  0  0
    3.3750   26.2120    4.1620 O   0  0  0  0  0  0
   -3.2570   34.7970    4.3450 O   0  0  0  0  0  0
    0.5305   27.9341    3.0177 H   0  0  0  0  0  0
   -0.6504   27.9934    4.3699 H   0  0  0  0  0  0
    1.0352   27.1020    5.9154 H   0  0  0  0  0  0
    0.8516   26.0070    4.5034 H   0  0  0  0  0  0
    4.2471   28.5668    5.0096 H   0  0  0  0  0  0
    2.9493   31.0581    6.2052 H   0  0  0  0  0  0
    4.0146   30.9389    4.7638 H   0  0  0  0  0  0
    2.6395   32.9951    4.7595 H   0  0  0  0  0  0
    2.2713   31.9259    3.3638 H   0  0  0  0  0  0
    0.6764   32.1058    5.9871 H   0  0  0  0  0  0
   -1.7504   29.6060    3.9925 H   0  0  0  0  0  0
   -3.1783   31.5900    4.0995 H   0  0  0  0  0  0
    0.1369   32.8223    3.2058 H   0  0  0  0  0  0
    0.7270   34.5712    5.6163 H   0  0  0  0  0  0
    1.2110   34.7923    3.9007 H   0  0  0  0  0  0
   -1.1930   35.8336    5.2263 H   0  0  0  0  0  0
   -0.7260   36.0243    3.5023 H   0  0  0  0  0  0
   -1.3842   32.3244    6.7157 H   0  0  0  0  0  0
   -2.7893   33.4002    6.4073 H   0  0  0  0  0  0
   -1.1365   34.0936    6.5273 H   0  0  0  0  0  0
   -1.0626   33.6539    2.0811 H   0  0  0  0  0  0
   -2.2370   35.0006    1.8971 H   0  0  0  0  0  0
   -2.8265   33.3261    2.1713 H   0  0  0  0  0  0
   -3.4115   35.0257    5.4098 H   0  0  0  0  0  0
  1  2  1  0  0  0
  1 10  1  0  0  0
  1 22  1  0  0  0
  1 23  1  0  0  0
  2  3  1  0  0  0
  2 24  1  0  0  0
  2 25  1  0  0  0
  3  4  1  0  0  0
  3 20  2  0  0  0
  4  5  2  0  0  0
  4 26  1  0  0  0
  5  6  1  0  0  0
  5 10  1  0  0  0
  6  7  1  0  0  0
  6 27  1  0  0  0
  6 28  1  0  0  0
  7  8  1  0  0  0
  7 29  1  0  0  0
  7 30  1  0  0  0
  8  9  1  0  0  0
  8 14  1  0  0  0
  8 31  1  0  0  0
  9 10  2  0  0  0
  9 11  1  0  0  0
 11 12  2  0  0  0
 11 32  1  0  0  0
 12 13  1  0  0  0
 12 33  1  0  0  0
 13 14  1  0  0  0
 13 17  1  0  0  0
 13 18  1  0  0  0
 14 15  1  0  0  0
 14 34  1  0  0  0
 15 16  1  0  0  0
 15 35  1  0  0  0
 15 36  1  0  0  0
 16 17  1  0  0  0
 16 37  1  0  0  0
 16 38  1  0  0  0
 17 19  1  0  0  0
 17 21  1  0  0  0
 18 39  1  0  0  0
 18 40  1  0  0  0
 18 41  1  0  0  0
 19 42  1  0  0  0
 19 43  1  0  0  0
 19 44  1  0  0  0
 21 45  1  0  0  0
M  END
> <s_m_source_file>
../1e3g_ligand.sdf

> <i_m_source_file_index>
1

> <s_epik_input>
W0NIMl0xW0NIMl1DKD1PKVtDSF09QyhbQ0gyXVtDSDJdMilDMT1DKFtDSF09W0NIXTMpW0NAQEhdMltDQEBIXShbQ0BdMzRbQ0gzXSlbQ0gyXVtDSDJdW0NAXTQoW0NIM10pW09IXQ==

> <s_epik_cmdline>
J2VwaWtfYXBwJywgJy1pbWFlJywgJ2xpZ2FuZF9wcm8ubWFlJywgJy1vbWFlJywgJ2xpZ2FuZF9wcmVwLm1hZScsICctbXMnLCAnMScsICctcGgnLCAnNycsICctcGh0JywgJzAuNScsICctbnQn

> <r_lp_tautomer_probability>
1

> <r_epik_Ionization_Penalty>
  0.0000

> <r_epik_Ionization_Penalty_Charging>
  0.0000

> <r_epik_Ionization_Penalty_Neutral>
  0.0000

> <r_epik_State_Penalty>
 -0.0000

> <r_epik_Charging_Adjusted_Penalty>
0

> <i_epik_Tot_Q>
0

> <i_epik_Tot_abs_Q>
0

$$$$
