1e3v_ligand
                    3D
 Schrodinger Suite 2020-3.
 67 70  0  0  1  0            999 V2000
    4.8530   -3.5000   84.8790 C   0  0  1  0  0  0
    3.8190   -4.1940   83.9850 C   0  0  0  0  0  0
    2.4560   -4.3450   84.6990 C   0  0  2  0  0  0
    2.5860   -5.0840   86.0690 C   0  0  2  0  0  0
    3.6330   -4.3160   86.9230 C   0  0  0  0  0  0
    5.0020   -4.2480   86.2280 C   0  0  0  0  0  0
    1.4380   -5.0580   83.7720 C   0  0  0  0  0  0
    1.7720   -6.5490   83.5890 C   0  0  0  0  0  0
    1.9340   -7.2910   84.9280 C   0  0  2  0  0  0
    2.9990   -6.5880   85.8200 C   0  0  2  0  0  0
    2.3590   -8.7630   84.7180 C   0  0  1  0  0  0
    2.5170   -9.5400   86.0420 C   0  0  2  0  0  0
    3.5660   -8.8710   86.9500 C   0  0  2  0  0  0
    3.1550   -7.3830   87.1570 C   0  0  0  0  0  0
    1.5170   -9.6960   83.8400 C   0  0  0  0  0  0
    1.8870  -11.1160   84.3090 C   0  0  0  0  0  0
    2.9060  -10.9290   85.4540 C   0  0  2  0  0  0
    1.2480   -5.0530   86.8530 C   0  0  0  0  0  0
    2.9680  -12.1840   86.3940 C   0  0  1  0  0  0
    4.8440   -8.9610   86.3340 O   0  0  0  0  0  0
    6.0610   -3.3990   84.1510 O   0  0  0  0  0  0
    1.1760   -9.6220   86.8150 C   0  0  0  0  0  0
    3.3500  -13.4460   85.5780 C   0  0  0  0  0  0
    4.7310  -13.4140   84.9230 C   0  0  0  0  0  0
    4.6260  -14.0460   83.5410 C   0  0  0  0  0  0
    4.7740  -13.4660   82.5160 O   0  0  0  0  0  0
    4.3460  -15.3480   83.6050 O   0  5  0  0  0  0
    3.9780  -12.0070   87.5370 C   0  0  0  0  0  0
    4.6003   -2.4509   85.0926 H   0  0  0  0  0  0
    3.6674   -3.6008   83.0711 H   0  0  0  0  0  0
    4.1817   -5.1968   83.7152 H   0  0  0  0  0  0
    2.0858   -3.3309   84.9102 H   0  0  0  0  0  0
    3.2828   -3.2875   87.0946 H   0  0  0  0  0  0
    3.7626   -4.8253   87.8894 H   0  0  0  0  0  0
    5.3729   -5.2670   86.0432 H   0  0  0  0  0  0
    5.7149   -3.7090   86.8693 H   0  0  0  0  0  0
    0.4305   -4.9823   84.2070 H   0  0  0  0  0  0
    1.4466   -4.5798   82.7814 H   0  0  0  0  0  0
    0.9631   -7.0398   83.0279 H   0  0  0  0  0  0
    2.7160   -6.6478   83.0331 H   0  0  0  0  0  0
    0.9482   -7.2710   85.4157 H   0  0  0  0  0  0
    3.9729   -6.5924   85.3087 H   0  0  0  0  0  0
    3.2900   -8.5632   84.1673 H   0  0  0  0  0  0
    3.6980   -9.3999   87.9054 H   0  0  0  0  0  0
    3.9312   -6.9099   87.7765 H   0  0  0  0  0  0
    2.1986   -7.3779   87.7004 H   0  0  0  0  0  0
    0.4495   -9.4804   83.9945 H   0  0  0  0  0  0
    1.7742   -9.5355   82.7826 H   0  0  0  0  0  0
    0.9822  -11.6334   84.6607 H   0  0  0  0  0  0
    2.3271  -11.6760   83.4707 H   0  0  0  0  0  0
    3.9632  -10.8874   85.1532 H   0  0  0  0  0  0
    0.4755   -5.5881   86.2812 H   0  0  0  0  0  0
    0.9355   -4.0092   87.0037 H   0  0  0  0  0  0
    1.3842   -5.5397   87.8300 H   0  0  0  0  0  0
    1.9757  -12.3108   86.8514 H   0  0  0  0  0  0
    5.2819   -9.9465   86.1171 H   0  0  0  0  0  0
    6.9426   -2.9284   84.6108 H   0  0  0  0  0  0
    0.4149  -10.0981   86.1794 H   0  0  0  0  0  0
    0.8460   -8.6081   87.0852 H   0  0  0  0  0  0
    1.3155  -10.2180   87.7290 H   0  0  0  0  0  0
    3.3403  -14.3261   86.2378 H   0  0  0  0  0  0
    2.6242  -13.5899   84.7641 H   0  0  0  0  0  0
    5.0705  -12.3715   84.8340 H   0  0  0  0  0  0
    5.4433  -13.9800   85.5413 H   0  0  0  0  0  0
    3.7159  -11.1136   88.1228 H   0  0  0  0  0  0
    4.9882  -11.8877   87.1184 H   0  0  0  0  0  0
    3.9533  -12.8929   88.1886 H   0  0  0  0  0  0
  1 21  1  0  0  0
  1  6  1  0  0  0
  1  2  1  0  0  0
  1 29  1  0  0  0
  2  3  1  0  0  0
  2 30  1  0  0  0
  2 31  1  0  0  0
  3  7  1  0  0  0
  3  4  1  0  0  0
  3 32  1  0  0  0
  4 18  1  0  0  0
  4 10  1  0  0  0
  4  5  1  0  0  0
  5  6  1  0  0  0
  5 33  1  0  0  0
  5 34  1  0  0  0
  6 35  1  0  0  0
  6 36  1  0  0  0
  7  8  1  0  0  0
  7 37  1  0  0  0
  7 38  1  0  0  0
  8  9  1  0  0  0
  8 39  1  0  0  0
  8 40  1  0  0  0
  9 10  1  0  0  0
  9 11  1  0  0  0
  9 41  1  0  0  0
 10 14  1  0  0  0
 10 42  1  0  0  0
 11 15  1  0  0  0
 11 12  1  0  0  0
 11 43  1  0  0  0
 12 22  1  0  0  0
 12 17  1  0  0  0
 12 13  1  0  0  0
 13 20  1  0  0  0
 13 14  1  0  0  0
 13 44  1  0  0  0
 14 45  1  0  0  0
 14 46  1  0  0  0
 15 16  1  0  0  0
 15 47  1  0  0  0
 15 48  1  0  0  0
 16 17  1  0  0  0
 16 49  1  0  0  0
 16 50  1  0  0  0
 17 19  1  0  0  0
 17 51  1  0  0  0
 18 52  1  0  0  0
 18 53  1  0  0  0
 18 54  1  0  0  0
 19 28  1  0  0  0
 19 23  1  0  0  0
 19 55  1  0  0  0
 20 56  1  0  0  0
 21 57  1  0  0  0
 22 58  1  0  0  0
 22 59  1  0  0  0
 22 60  1  0  0  0
 23 24  1  0  0  0
 23 61  1  0  0  0
 23 62  1  0  0  0
 24 25  1  0  0  0
 24 63  1  0  0  0
 24 64  1  0  0  0
 25 27  1  0  0  0
 25 26  2  0  0  0
 28 65  1  0  0  0
 28 66  1  0  0  0
 28 67  1  0  0  0
M  CHG  1  27  -1
M  END
> <s_m_source_file>
../1e3v_ligand.sdf

> <i_m_source_file_index>
1

> <s_epik_input>
W0NIMl0xW0NIMl1bQ0BASF0oW09IXSlbQ0gyXVtDQEhdKFtDQF0xMltDSDNdKVtDSDJdW0NIMl1bQ0BASF0zW0NAQEhdMltDSDJdW0NASF0oW09IXSlbQ0BAXTQoW0NIM10pW0NASF0zW0NIMl1bQ0gyXVtDQEBIXTRbQ0BIXShbQ0gzXSlbQ0gyXVtDSDJdQyg9TylbT0hd

> <s_epik_cmdline>
J2VwaWtfYXBwJywgJy1pbWFlJywgJ2xpZ2FuZF9wcm8ubWFlJywgJy1vbWFlJywgJ2xpZ2FuZF9wcmVwLm1hZScsICctbXMnLCAnMScsICctcGgnLCAnNycsICctcGh0JywgJzAuNScsICctbnQn

> <r_lp_tautomer_probability>
1

> <r_epik_Ionization_Penalty>
  0.0058

> <r_epik_Ionization_Penalty_Charging>
  0.0058

> <r_epik_Ionization_Penalty_Neutral>
  0.0000

> <r_epik_State_Penalty>
 -0.0000

> <r_epik_Charging_Adjusted_Penalty>
0.00577931387309457

> <i_epik_Tot_Q>
-1

> <i_epik_Tot_abs_Q>
1

$$$$
