1e4h_ligand
                    3D
 Schrodinger Suite 2020-3.
 12 12  0  0  1  0            999 V2000
   43.0000    0.0000   29.2030 O   0  5  0  0  0  0
   41.9070    0.5050   27.1740 C   0  0  0  0  0  0
   41.8980    0.5160   25.7600 C   0  0  0  0  0  0
   43.0000    0.0000   25.0470 C   0  0  0  0  0  0
   44.1000   -0.5160   25.7600 C   0  0  0  0  0  0
   44.0900   -0.5050   27.1740 C   0  0  0  0  0  0
   43.0000    0.0000   27.8680 C   0  0  0  0  0  0
   40.4450    1.1990   28.1520 Br  0  0  0  0  0  0
   40.4120    1.2290   24.8260 Br  0  0  0  0  0  0
   43.0000    0.0000   23.1510 Br  0  0  0  0  0  0
   45.5900   -1.2290   24.8260 Br  0  0  0  0  0  0
   45.5600   -1.1990   28.1520 Br  0  0  0  0  0  0
  1  7  1  0  0  0
  2  3  2  0  0  0
  2  7  1  0  0  0
  2  8  1  0  0  0
  3  4  1  0  0  0
  3  9  1  0  0  0
  4  5  2  0  0  0
  4 10  1  0  0  0
  5  6  1  0  0  0
  5 11  1  0  0  0
  6  7  2  0  0  0
  6 12  1  0  0  0
M  CHG  1   1  -1
M  END
> <s_m_source_file>
../1e4h_ligand.sdf

> <i_m_source_file_index>
1

> <s_epik_input>
W09IXWMxYyhCciljKEJyKWMoQnIpYyhCciljMUJy

> <s_epik_cmdline>
J2VwaWtfYXBwJywgJy1pbWFlJywgJ2xpZ2FuZF9wcm8ubWFlJywgJy1vbWFlJywgJ2xpZ2FuZF9wcmVwLm1hZScsICctbXMnLCAnMScsICctcGgnLCAnNycsICctcGh0JywgJzAuNScsICctbnQn

> <r_lp_tautomer_probability>
1

> <r_epik_Ionization_Penalty>
  0.0019

> <r_epik_Ionization_Penalty_Charging>
  0.0019

> <r_epik_Ionization_Penalty_Neutral>
  0.0000

> <r_epik_State_Penalty>
 -0.0000

> <r_epik_Charging_Adjusted_Penalty>
0.00190274406460207

> <i_epik_Tot_Q>
-1

> <i_epik_Tot_abs_Q>
1

$$$$
