1e55_ligand
                    3D
 Schrodinger Suite 2020-3.
 39 40  0  0  1  0            999 V2000
   28.6480    2.5650   28.3710 C   0  0  2  0  0  0
   27.2640    2.6920   27.6890 C   0  0  1  0  0  0
   26.6360    1.3540   27.2770 C   0  0  2  0  0  0
   27.6620    0.4020   26.6740 C   0  0  1  0  0  0
   28.8360    0.2800   27.6270 C   0  0  1  0  0  0
   29.8860   -0.6930   27.1320 C   0  0  0  0  0  0
   29.8680    4.2880   27.6670 O   0  0  0  0  0  0
   26.3670    3.3300   28.5890 O   0  0  0  0  0  0
   25.5920    1.5870   26.3390 O   0  0  0  0  0  0
   27.0690   -0.8630   26.4820 O   0  0  0  0  0  0
   29.4760    1.5600   27.7490 O   0  0  0  0  0  0
   29.3720   -1.5230   26.1010 O   0  0  0  0  0  0
   30.7560    5.7550   30.2570 N   0  0  0  0  0  0
   31.0770    4.9880   29.4290 C   0  0  0  0  0  0
   32.8530    4.1350   27.8930 C   0  0  0  0  0  0
   33.3070    3.3310   26.8350 C   0  0  0  0  0  0
   33.7270    4.9990   28.5930 C   0  0  0  0  0  0
   35.0780    5.0510   28.2180 C   0  0  0  0  0  0
   34.6720    3.3930   26.4630 C   0  0  0  0  0  0
   35.5590    4.2530   27.1580 C   0  0  0  0  0  0
   36.8870    4.3210   26.8030 O   0  0  0  0  0  0
   31.3380    4.0250   28.2930 C   0  0  2  0  0  0
   28.3273    2.1569   29.3408 H   0  0  0  0  0  0
   27.3717    3.3239   26.7951 H   0  0  0  0  0  0
   26.1650    0.8761   28.1487 H   0  0  0  0  0  0
   27.9885    0.7212   25.6732 H   0  0  0  0  0  0
   28.4541   -0.0375   28.6085 H   0  0  0  0  0  0
   30.7464   -0.1337   26.7358 H   0  0  0  0  0  0
   30.2158   -1.3316   27.9647 H   0  0  0  0  0  0
   26.6203    4.3125   29.0138 H   0  0  0  0  0  0
   24.7565    2.2532   26.6001 H   0  0  0  0  0  0
   26.1984   -0.9672   25.8178 H   0  0  0  0  0  0
   30.0151   -2.2848   25.6362 H   0  0  0  0  0  0
   32.6194    2.6694   26.3082 H   0  0  0  0  0  0
   33.3564    5.6155   29.4119 H   0  0  0  0  0  0
   35.7615    5.7130   28.7496 H   0  0  0  0  0  0
   35.0409    2.7789   25.6415 H   0  0  0  0  0  0
   37.5683    4.9911   27.3478 H   0  0  0  0  0  0
   31.5130    2.9427   28.2039 H   0  0  0  0  0  0
  1  2  1  0  0  0
  1 11  1  0  0  0
  1  7  1  0  0  0
  1 23  1  0  0  0
  2  3  1  0  0  0
  2  8  1  0  0  0
  2 24  1  0  0  0
  3  4  1  0  0  0
  3  9  1  0  0  0
  3 25  1  0  0  0
  4  5  1  0  0  0
  4 10  1  0  0  0
  4 26  1  0  0  0
  5  6  1  0  0  0
  5 11  1  0  0  0
  5 27  1  0  0  0
  6 12  1  0  0  0
  6 28  1  0  0  0
  6 29  1  0  0  0
  7 22  1  0  0  0
  8 30  1  0  0  0
  9 31  1  0  0  0
 10 32  1  0  0  0
 12 33  1  0  0  0
 13 14  3  0  0  0
 14 22  1  0  0  0
 15 16  2  0  0  0
 15 17  1  0  0  0
 15 22  1  0  0  0
 16 19  1  0  0  0
 16 34  1  0  0  0
 17 18  2  0  0  0
 17 35  1  0  0  0
 18 20  1  0  0  0
 18 36  1  0  0  0
 19 20  2  0  0  0
 19 37  1  0  0  0
 20 21  1  0  0  0
 21 38  1  0  0  0
 22 39  1  0  0  0
M  END
> <s_m_source_file>
../1e55_ligand.sdf

> <i_m_source_file_index>
1

> <s_epik_input>
W09IXVtDSDJdW0NAQEhdKE8xKVtDQEBIXShbT0hdKVtDQEhdKFtPSF0pW0NAQEhdKFtPSF0pW0NAQEhdMU9bQ0BIXShDI04pYzJbY0hdW2NIXWMoW09IXSlbY0hdW2NIXTI=

> <s_epik_cmdline>
J2VwaWtfYXBwJywgJy1pbWFlJywgJ2xpZ2FuZF9wcm8ubWFlJywgJy1vbWFlJywgJ2xpZ2FuZF9wcmVwLm1hZScsICctbXMnLCAnMScsICctcGgnLCAnNycsICctcGh0JywgJzAuNScsICctbnQn

> <r_lp_tautomer_probability>
1

> <r_epik_Ionization_Penalty>
  0.0067

> <r_epik_Ionization_Penalty_Charging>
  0.0000

> <r_epik_Ionization_Penalty_Neutral>
  0.0067

> <r_epik_State_Penalty>
 -0.0000

> <r_epik_Charging_Adjusted_Penalty>
0

> <i_epik_Tot_Q>
0

> <i_epik_Tot_abs_Q>
0

> <s_epik_Chemistry_Notes>
This compound contains an acetal/aminal-like group ( X-CH(R)-Y where X, Y are N, S, or O) that may be acid/base labile, releasing an aldehyde.

$$$$
