1e6s_ligand
                    3D
 Schrodinger Suite 2020-3.
 25 25  0  0  1  0            999 V2000
   46.8710  119.8910   52.8440 C   0  0  0  0  0  0
   46.1800  119.1010   52.0130 N   0  0  0  0  0  0
   45.5120  119.5680   50.9830 O   0  0  0  0  0  0
   47.7520  119.2200   53.9100 C   0  0  2  0  0  0
   47.1990  118.0540   54.5300 O   0  0  0  0  0  0
   48.2490  120.2590   54.8890 C   0  0  1  0  0  0
   49.3470  119.6490   55.5640 O   0  0  0  0  0  0
   48.6480  121.5070   54.0620 C   0  0  2  0  0  0
   49.2900  122.4630   54.9070 O   0  0  0  0  0  0
   47.3120  122.1730   53.5720 C   0  0  2  0  0  0
   46.7140  121.2240   52.6400 N   0  0  0  0  0  0
   47.4060  123.4560   52.7730 C   0  0  0  0  0  0
   48.1870  123.2780   51.5780 O   0  0  0  0  0  0
   44.9587  118.8789   50.3280 H   0  0  0  0  0  0
   48.6056  118.7244   53.4244 H   0  0  0  0  0  0
   46.8074  117.2345   53.9095 H   0  0  0  0  0  0
   47.5448  120.5414   55.6855 H   0  0  0  0  0  0
   49.1838  118.7542   56.1827 H   0  0  0  0  0  0
   49.3754  121.2581   53.2753 H   0  0  0  0  0  0
   50.2554  122.2220   55.3759 H   0  0  0  0  0  0
   46.7140  122.4116   54.4639 H   0  0  0  0  0  0
   46.1388  121.5893   51.7764 H   0  0  0  0  0  0
   46.3963  123.7822   52.4831 H   0  0  0  0  0  0
   47.8813  124.2358   53.3861 H   0  0  0  0  0  0
   48.3450  124.1241   50.8931 H   0  0  0  0  0  0
  1  2  2  0  0  0
  1  4  1  0  0  0
  1 11  1  0  0  0
  2  3  1  0  0  0
  3 14  1  0  0  0
  4  5  1  0  0  0
  4  6  1  0  0  0
  4 15  1  0  0  0
  5 16  1  0  0  0
  6  7  1  0  0  0
  6  8  1  0  0  0
  6 17  1  0  0  0
  7 18  1  0  0  0
  8  9  1  0  0  0
  8 10  1  0  0  0
  8 19  1  0  0  0
  9 20  1  0  0  0
 10 11  1  0  0  0
 10 12  1  0  0  0
 10 21  1  0  0  0
 11 22  1  0  0  0
 12 13  1  0  0  0
 12 23  1  0  0  0
 12 24  1  0  0  0
 13 25  1  0  0  0
M  END
> <s_m_source_file>
../1e6s_ligand.sdf

> <i_m_source_file_index>
1

> <s_epik_input>
W09IXVxOPUMxXFtDQEhdKFtPSF0pW0NAQEhdKFtPSF0pW0NASF0oW09IXSlbQ0BIXShbTkhdMSlbQ0gyXVtPSF0=

> <s_epik_cmdline>
J2VwaWtfYXBwJywgJy1pbWFlJywgJ2xpZ2FuZF9wcm8ubWFlJywgJy1vbWFlJywgJ2xpZ2FuZF9wcmVwLm1hZScsICctbXMnLCAnMScsICctcGgnLCAnNycsICctcGh0JywgJzAuNScsICctbnQn

> <r_lp_tautomer_probability>
1

> <r_epik_Ionization_Penalty>
  0.0001

> <r_epik_Ionization_Penalty_Charging>
  0.0000

> <r_epik_Ionization_Penalty_Neutral>
  0.0001

> <r_epik_State_Penalty>
 -0.0000

> <r_epik_Charging_Adjusted_Penalty>
0

> <i_epik_Tot_Q>
0

> <i_epik_Tot_abs_Q>
0

> <s_epik_Chemistry_Notes>
This compound has an imine and may undergo hydrolysis.

$$$$
