1e72_ligand
                    3D
 Schrodinger Suite 2020-3.
 28 28  0  0  1  0            999 V2000
   46.7020  119.7400   53.1760 C   0  0  1  0  0  0
   46.2750  118.9950   52.1470 N   0  0  2  0  0  0
   47.7740  119.0850   54.0360 C   0  0  2  0  0  0
   46.6980  121.0720   52.8070 N   0  3  2  0  0  0
   45.6150  119.4710   51.1010 O   0  0  0  0  0  0
   47.1030  117.9310   54.5760 O   0  0  0  0  0  0
   48.2040  120.2250   54.9390 C   0  0  1  0  0  0
   49.3070  119.6210   55.6010 O   0  0  0  0  0  0
   48.6440  121.4580   54.0870 C   0  0  2  0  0  0
   49.2470  122.4450   54.9200 O   0  0  0  0  0  0
   47.2400  122.1220   53.6360 C   0  0  1  0  0  0
   47.2410  123.3410   52.7700 C   0  0  0  0  0  0
   48.1270  123.2430   51.5990 O   0  0  0  0  0  0
   45.8622  119.8291   53.8808 H   0  0  0  0  0  0
   45.5851  118.3852   52.5858 H   0  0  0  0  0  0
   48.6921  118.6368   53.6283 H   0  0  0  0  0  0
   47.2654  121.1953   51.8727 H   0  0  0  0  0  0
   45.2981  118.7924   50.2953 H   0  0  0  0  0  0
   46.7965  117.1112   53.9097 H   0  0  0  0  0  0
   47.4582  120.5674   55.6714 H   0  0  0  0  0  0
   49.1496  118.7392   56.2395 H   0  0  0  0  0  0
   49.4027  121.2025   53.3326 H   0  0  0  0  0  0
   50.2306  122.2550   55.3742 H   0  0  0  0  0  0
   46.6440  122.4638   54.4951 H   0  0  0  0  0  0
   46.2239  123.5237   52.3930 H   0  0  0  0  0  0
   47.5753  124.2084   53.3581 H   0  0  0  0  0  0
   48.2033  124.0848   50.8951 H   0  0  0  0  0  0
   45.6615  121.4068   52.6534 H   0  0  0  0  0  0
  1  2  1  0  0  0
  1  3  1  0  0  0
  1  4  1  0  0  0
  1 14  1  0  0  0
  2  5  1  0  0  0
  2 15  1  0  0  0
  3  6  1  0  0  0
  3  7  1  0  0  0
  3 16  1  0  0  0
  4 11  1  0  0  0
  4 17  1  0  0  0
  4 28  1  0  0  0
  5 18  1  0  0  0
  6 19  1  0  0  0
  7  8  1  0  0  0
  7  9  1  0  0  0
  7 20  1  0  0  0
  8 21  1  0  0  0
  9 10  1  0  0  0
  9 11  1  0  0  0
  9 22  1  0  0  0
 10 23  1  0  0  0
 11 12  1  0  0  0
 11 24  1  0  0  0
 12 13  1  0  0  0
 12 25  1  0  0  0
 12 26  1  0  0  0
 13 27  1  0  0  0
M  CHG  1   4   1
M  END
> <s_m_source_file>
../1e72_ligand.sdf

> <i_m_source_file_index>
1

> <s_epik_input>
W09IXVtOSF1bQ0BIXTFbQ0BIXShbT0hdKVtDQEBIXShbT0hdKVtDQEhdKFtPSF0pW0NASF0oW05IXTEpW0NIMl1bT0hd

> <s_epik_cmdline>
J2VwaWtfYXBwJywgJy1pbWFlJywgJ2xpZ2FuZF9wcm8ubWFlJywgJy1vbWFlJywgJ2xpZ2FuZF9wcmVwLm1hZScsICctbXMnLCAnMScsICctcGgnLCAnNycsICctcGh0JywgJzAuNScsICctbnQn

> <r_lp_tautomer_probability>
1

> <r_epik_Ionization_Penalty>
  0.0069

> <r_epik_Ionization_Penalty_Charging>
  0.0067

> <r_epik_Ionization_Penalty_Neutral>
  0.0001

> <r_epik_State_Penalty>
 -0.0000

> <r_epik_Charging_Adjusted_Penalty>
0.00673839870451897

> <i_epik_Tot_Q>
1

> <i_epik_Tot_abs_Q>
1

> <s_epik_Chemistry_Notes>
This compound contains an acetal/aminal-like group ( X-CH(R)-Y where X, Y are N, S, or O) that may be acid/base labile, releasing an aldehyde. This compound has a N-S or N-O group and may undergo hydrolysis at high or low pH.

$$$$
