1e8h_ligand
                    3D
 Schrodinger Suite 2020-3.
 39 41  0  0  1  0            999 V2000
  100.4090   46.2510   75.6890 P   0  0  0  0  0  0
  101.5280   46.3420   74.5480 O   0  5  0  0  0  0
   99.8000   44.9120   75.7680 O   0  0  0  0  0  0
  100.7580   46.7110   77.0490 O   0  5  0  0  0  0
   97.8260   47.6160   75.2920 P   0  0  2  0  0  0
   97.6190   48.1780   76.6530 O   0  5  0  0  0  0
   97.0330   46.3760   75.2110 O   0  0  0  0  0  0
   99.4030   47.3540   75.0670 O   0  0  0  0  0  0
   97.4810   48.7690   74.2860 O   0  0  0  0  0  0
   97.8270   49.0300   72.9440 C   0  0  0  0  0  0
   96.6330   49.5360   72.1390 C   0  0  1  0  0  0
   95.9840   48.3660   71.5960 O   0  0  0  0  0  0
   95.5160   50.2410   72.9140 C   0  0  1  0  0  0
   95.7870   51.6500   73.0810 O   0  0  0  0  0  0
   94.3880   50.0420   71.8550 C   0  0  1  0  0  0
   94.7890   50.8880   70.7590 O   0  0  0  0  0  0
   94.6550   48.5950   71.4010 C   0  0  2  0  0  0
   93.8550   47.5590   72.0070 N   0  0  0  0  0  0
   94.2250   46.6710   72.9560 C   0  0  0  0  0  0
   93.4040   45.7210   73.2000 N   0  0  0  0  0  0
   92.4210   45.9470   72.3710 C   0  0  0  0  0  0
   91.2770   45.2420   72.1750 C   0  0  0  0  0  0
   90.9220   44.1560   72.8070 N   0  0  0  0  0  0
   90.4030   45.7090   71.2580 N   0  0  0  0  0  0
   90.7050   46.8550   70.5600 C   0  0  0  0  0  0
   91.8050   47.5720   70.6780 N   0  0  0  0  0  0
   92.6170   47.0720   71.6030 C   0  0  0  0  0  0
   98.6154   49.7963   72.9110 H   0  0  0  0  0  0
   98.1940   48.1059   72.4736 H   0  0  0  0  0  0
   97.0438   50.2334   71.3942 H   0  0  0  0  0  0
   95.3536   49.9256   73.9552 H   0  0  0  0  0  0
   96.5580   51.9813   73.7923 H   0  0  0  0  0  0
   93.3508   50.2741   72.1385 H   0  0  0  0  0  0
   94.6930   51.9805   70.8438 H   0  0  0  0  0  0
   94.4324   48.4404   70.3349 H   0  0  0  0  0  0
   95.1734   46.7596   73.4858 H   0  0  0  0  0  0
   91.5864   43.7202   73.5677 H   0  0  0  0  0  0
   89.9585   43.6769   72.5787 H   0  0  0  0  0  0
   89.9641   47.2037   69.8406 H   0  0  0  0  0  0
  1  2  1  0  0  0
  1  3  2  0  0  0
  1  4  1  0  0  0
  1  8  1  0  0  0
  5  6  1  0  0  0
  5  7  2  0  0  0
  5  8  1  0  0  0
  5  9  1  0  0  0
  9 10  1  0  0  0
 10 11  1  0  0  0
 10 28  1  0  0  0
 10 29  1  0  0  0
 11 12  1  0  0  0
 11 13  1  0  0  0
 11 30  1  0  0  0
 12 17  1  0  0  0
 13 14  1  0  0  0
 13 15  1  0  0  0
 13 31  1  0  0  0
 14 32  1  0  0  0
 15 16  1  0  0  0
 15 17  1  0  0  0
 15 33  1  0  0  0
 16 34  1  0  0  0
 17 18  1  0  0  0
 17 35  1  0  0  0
 18 19  1  0  0  0
 18 27  1  0  0  0
 19 20  2  0  0  0
 19 36  1  0  0  0
 20 21  1  0  0  0
 21 22  2  0  0  0
 21 27  1  0  0  0
 22 23  1  0  0  0
 22 24  1  0  0  0
 23 37  1  0  0  0
 23 38  1  0  0  0
 24 25  2  0  0  0
 25 26  1  0  0  0
 25 39  1  0  0  0
 26 27  2  0  0  0
M  CHG  3   2  -1   4  -1   6  -1
M  END
> <s_m_source_file>
../1e8h_ligand.sdf

> <i_m_source_file_index>
1

> <s_epik_input>
W09IXVAoPU8pKFtPSF0pT1tQQEBdKD1PKShbT0hdKU9bQ0gyXVtDQEhdMU9bQ0BIXShbQ0BIXShbT0hdKVtDQEBIXTFbT0hdKW4oW2NIXW4yKWMoYzIzKW5bY0hdbmMzW05IMl0=

> <s_epik_cmdline>
J2VwaWtfYXBwJywgJy1pbWFlJywgJ2xpZ2FuZF9wcm8ubWFlJywgJy1vbWFlJywgJ2xpZ2FuZF9wcmVwLm1hZScsICctbXMnLCAnMScsICctcGgnLCAnNycsICctcGh0JywgJzAuNScsICctbnQn

> <r_lp_tautomer_probability>
0.999997216410988

> <r_epik_Ionization_Penalty>
  0.1037

> <r_epik_Ionization_Penalty_Charging>
  0.1033

> <r_epik_Ionization_Penalty_Neutral>
  0.0004

> <r_epik_State_Penalty>
  0.0922

> <r_epik_Charging_Adjusted_Penalty>
0.19546844050481

> <i_epik_Tot_Q>
-3

> <i_epik_Tot_abs_Q>
3

> <s_epik_Chemistry_Notes>
This compound contains an acetal/aminal-like group ( X-CH(R)-Y where X, Y are N, S, or O) that may be acid/base labile, releasing an aldehyde.

$$$$
