1e9h_ligand
                    3D
 Schrodinger Suite 2020-3.
 33 36  0  0  1  0            999 V2000
    5.4790   42.2880   49.5910 C   0  0  0  0  0  0
    4.4740   42.6430   50.5070 C   0  0  0  0  0  0
    3.1850   42.0410   50.4880 C   0  0  0  0  0  0
    2.9390   41.0520   49.4890 C   0  0  0  0  0  0
    3.9620   40.6880   48.5490 C   0  0  0  0  0  0
    5.2510   41.3070   48.5890 C   0  0  0  0  0  0
    5.1390   43.6880   51.3530 C   0  0  0  0  0  0
    4.6080   44.2600   52.2820 O   0  0  0  0  0  0
    6.5140   43.8280   50.8300 C   0  0  0  0  0  0
    7.5750   44.6090   51.1860 C   0  0  0  0  0  0
    8.8950   44.5920   50.5140 C   0  0  0  0  0  0
    9.1670   43.8860   49.5430 O   0  0  0  0  0  0
    9.6940   45.4290   51.1040 N   0  0  0  0  0  0
    6.5960   42.9910   49.8150 N   0  0  0  0  0  0
    7.7760   45.6320   52.3030 C   0  0  0  0  0  0
    6.9910   46.1870   53.3550 C   0  0  0  0  0  0
    7.5910   47.1560   54.2230 C   0  0  0  0  0  0
    8.9410   47.5580   54.0400 C   0  0  0  0  0  0
    9.7160   47.0060   52.9840 C   0  0  0  0  0  0
    9.1110   46.0470   52.1340 C   0  0  0  0  0  0
    6.5850   47.8190   55.5250 S   0  0  0  0  0  0
    7.4830   48.7510   56.2540 O   0  5  0  0  0  0
    6.1900   46.7450   56.4090 O   0  0  0  0  0  0
    5.5630   48.6270   54.8910 O   0  0  0  0  0  0
    2.4165   42.3237   51.2074 H   0  0  0  0  0  0
    1.9639   40.5675   49.4388 H   0  0  0  0  0  0
    3.7533   39.9295   47.7946 H   0  0  0  0  0  0
    6.0301   41.0358   47.8765 H   0  0  0  0  0  0
   10.7228   45.5590   50.7371 H   0  0  0  0  0  0
    7.4776   42.8416   49.1744 H   0  0  0  0  0  0
    5.9546   45.8803   53.4964 H   0  0  0  0  0  0
    9.3844   48.2927   54.7120 H   0  0  0  0  0  0
   10.7507   47.3130   52.8317 H   0  0  0  0  0  0
  1 14  1  0  0  0
  1  6  2  0  0  0
  1  2  1  0  0  0
  2  7  1  0  0  0
  2  3  2  0  0  0
  3  4  1  0  0  0
  3 25  1  0  0  0
  4  5  2  0  0  0
  4 26  1  0  0  0
  5  6  1  0  0  0
  5 27  1  0  0  0
  6 28  1  0  0  0
  7  9  1  0  0  0
  7  8  2  0  0  0
  9 14  1  0  0  0
  9 10  2  0  0  0
 10 15  1  0  0  0
 10 11  1  0  0  0
 11 13  1  0  0  0
 11 12  2  0  0  0
 13 20  1  0  0  0
 13 29  1  0  0  0
 14 30  1  0  0  0
 15 20  1  0  0  0
 15 16  2  0  0  0
 16 17  1  0  0  0
 16 31  1  0  0  0
 17 21  1  0  0  0
 17 18  2  0  0  0
 18 19  1  0  0  0
 18 32  1  0  0  0
 19 20  2  0  0  0
 19 33  1  0  0  0
 21 24  2  0  0  0
 21 23  2  0  0  0
 21 22  1  0  0  0
M  CHG  1  22  -1
M  END
> <s_m_source_file>
../1e9h_ligand.sdf

> <i_m_source_file_index>
1

> <s_epik_input>
W2NIXTFbY0hdW2NIXVtjSF1jKGMxMilDKD1PKS9DKFtOSF0yKT1DMy9DKD1PKVtOSF1jKGMzNClbY0hdW2NIXWMoW2NIXTQpUyg9TykoPU8pW09IXQ==

> <s_epik_cmdline>
J2VwaWtfYXBwJywgJy1pbWFlJywgJ2xpZ2FuZF9wcm8ubWFlJywgJy1vbWFlJywgJ2xpZ2FuZF9wcmVwLm1hZScsICctbXMnLCAnMScsICctcGgnLCAnNycsICctcGh0JywgJzAuNScsICctbnQn

> <r_lp_tautomer_probability>
1

> <r_epik_Ionization_Penalty>
  0.0062

> <r_epik_Ionization_Penalty_Charging>
  0.0000

> <r_epik_Ionization_Penalty_Neutral>
  0.0062

> <r_epik_State_Penalty>
 -0.0000

> <r_epik_Charging_Adjusted_Penalty>
2.57220764073713e-06

> <i_epik_Tot_Q>
-1

> <i_epik_Tot_abs_Q>
1

$$$$
