1eas_ligand
                    3D
 Schrodinger Suite 2020-3.
 58 59  0  0  1  0            999 V2000
   -8.3400   22.4230   36.7220 C   0  0  0  0  0  0
   -8.8880   23.5270   37.6530 C   0  0  2  0  0  0
  -10.4230   23.4460   37.8420 C   0  0  2  0  0  0
  -11.1980   24.6910   38.3120 C   0  0  0  0  0  0
  -12.6810   24.6170   38.0350 C   0  0  0  0  0  0
  -10.9280   25.0600   39.7590 C   0  0  0  0  0  0
  -11.3620   21.2110   38.3310 C   0  0  0  0  0  0
  -11.3880   20.0850   39.3690 C   0  0  0  0  0  0
  -13.8070   19.5320   39.3490 C   0  0  0  0  0  0
  -14.8280   18.4950   39.3560 C   0  0  0  0  0  0
  -14.5020   17.2190   39.0310 C   0  0  0  0  0  0
  -13.1670   16.9040   38.6660 C   0  0  0  0  0  0
  -12.1500   17.8120   38.6680 C   0  0  0  0  0  0
  -10.7510   17.4390   38.2980 C   0  0  0  0  0  0
  -10.0880   18.1000   37.2530 C   0  0  0  0  0  0
   -8.8160   17.7100   36.8920 C   0  0  0  0  0  0
   -8.2390   16.6210   37.4780 C   0  0  0  0  0  0
   -8.9130   15.9020   38.4540 C   0  0  0  0  0  0
  -10.1490   16.3270   38.8940 C   0  0  0  0  0  0
  -17.4200   17.8550   42.8080 C   0  0  0  0  0  0
  -10.6950   22.2880   38.7240 N   0  0  0  0  0  0
  -12.4850   19.1310   39.1000 N   0  0  0  0  0  0
  -16.1160   18.9320   39.7660 N   0  0  0  0  0  0
  -16.9550   17.3180   41.5230 N   0  0  3  0  0  0
   -8.5290   24.7280   37.0890 O   0  0  0  0  0  0
  -11.9670   21.1210   37.2790 O   0  0  0  0  0  0
  -14.0950   20.7020   39.6150 O   0  0  0  0  0  0
  -18.4840   18.8030   40.3310 O   0  0  0  0  0  0
  -17.4370   16.9860   39.0870 O   0  0  0  0  0  0
   -8.6140   21.2120   37.1680 F   0  0  0  0  0  0
   -7.0230   22.4560   36.5790 F   0  0  0  0  0  0
   -8.8530   22.5120   35.4990 F   0  0  0  0  0  0
  -17.3840   17.9740   40.0930 S   0  0  0  0  0  0
   -8.4113   23.5149   38.6443 H   0  0  0  0  0  0
  -10.8449   23.3008   36.8366 H   0  0  0  0  0  0
  -10.8152   25.5212   37.7003 H   0  0  0  0  0  0
  -12.8441   24.3483   36.9809 H   0  0  0  0  0  0
  -13.1414   25.5948   38.2396 H   0  0  0  0  0  0
  -13.1374   23.8540   38.6828 H   0  0  0  0  0  0
   -9.8422   25.1059   39.9292 H   0  0  0  0  0  0
  -11.3710   24.3004   40.4199 H   0  0  0  0  0  0
  -11.3751   26.0412   39.9767 H   0  0  0  0  0  0
  -10.4340   19.5380   39.3406 H   0  0  0  0  0  0
  -11.5352   20.5136   40.3713 H   0  0  0  0  0  0
  -15.2625   16.4384   39.0501 H   0  0  0  0  0  0
  -12.9426   15.8799   38.3677 H   0  0  0  0  0  0
  -10.5776   18.9201   36.7278 H   0  0  0  0  0  0
   -8.2692   18.2734   36.1359 H   0  0  0  0  0  0
   -7.2380   16.3130   37.1759 H   0  0  0  0  0  0
   -8.4657   15.0008   38.8733 H   0  0  0  0  0  0
  -10.6540   15.7984   39.7025 H   0  0  0  0  0  0
  -17.0036   17.2531   43.6292 H   0  0  0  0  0  0
  -18.5187   17.8163   42.8455 H   0  0  0  0  0  0
  -17.0861   18.8979   42.9119 H   0  0  0  0  0  0
  -10.3375   22.2930   39.7643 H   0  0  0  0  0  0
  -16.2141   20.0239   39.8557 H   0  0  0  0  0  0
  -16.1672   16.5507   41.5003 H   0  0  0  0  0  0
   -7.4699   24.9461   36.8872 H   0  0  0  0  0  0
  1  2  1  0  0  0
  1 30  1  0  0  0
  1 31  1  0  0  0
  1 32  1  0  0  0
  2  3  1  0  0  0
  2 25  1  0  0  0
  2 34  1  0  0  0
  3  4  1  0  0  0
  3 21  1  0  0  0
  3 35  1  0  0  0
  4  5  1  0  0  0
  4  6  1  0  0  0
  4 36  1  0  0  0
  5 37  1  0  0  0
  5 38  1  0  0  0
  5 39  1  0  0  0
  6 40  1  0  0  0
  6 41  1  0  0  0
  6 42  1  0  0  0
  7  8  1  0  0  0
  7 21  1  0  0  0
  7 26  2  0  0  0
  8 22  1  0  0  0
  8 43  1  0  0  0
  8 44  1  0  0  0
  9 10  1  0  0  0
  9 22  1  0  0  0
  9 27  2  0  0  0
 10 11  2  0  0  0
 10 23  1  0  0  0
 11 12  1  0  0  0
 11 45  1  0  0  0
 12 13  2  0  0  0
 12 46  1  0  0  0
 13 14  1  0  0  0
 13 22  1  0  0  0
 14 15  2  0  0  0
 14 19  1  0  0  0
 15 16  1  0  0  0
 15 47  1  0  0  0
 16 17  2  0  0  0
 16 48  1  0  0  0
 17 18  1  0  0  0
 17 49  1  0  0  0
 18 19  2  0  0  0
 18 50  1  0  0  0
 19 51  1  0  0  0
 20 24  1  0  0  0
 20 52  1  0  0  0
 20 53  1  0  0  0
 20 54  1  0  0  0
 21 55  1  0  0  0
 23 33  1  0  0  0
 23 56  1  0  0  0
 24 33  1  0  0  0
 24 57  1  0  0  0
 25 58  1  0  0  0
 28 33  2  0  0  0
 29 33  2  0  0  0
M  END
> <s_m_source_file>
../1eas_ligand.sdf

> <i_m_source_file_index>
1

> <s_epik_input>
RkMoRikoRilbQ0BASF0oW09IXSlbQ0BIXShbQ0hdKFtDSDNdKVtDSDNdKVtOSF1DKD1PKVtDSDJdbjFjKC1jMltjSF1bY0hdW2NIXVtjSF1bY0hdMilbY0hdW2NIXWMoYzE9TylbTkhdUyg9TykoPU8pW05IXVtDSDNd

> <s_epik_cmdline>
J2VwaWtfYXBwJywgJy1pbWFlJywgJ2xpZ2FuZF9wcm8ubWFlJywgJy1vbWFlJywgJ2xpZ2FuZF9wcmVwLm1hZScsICctbXMnLCAnMScsICctcGgnLCAnNycsICctcGh0JywgJzAuNScsICctbnQn

> <r_epik_Ionization_Penalty>
  0.1237

> <r_epik_Ionization_Penalty_Charging>
  0.0000

> <r_epik_Ionization_Penalty_Neutral>
  0.1237

> <r_epik_State_Penalty>
  0.1078

> <r_epik_Charging_Adjusted_Penalty>
0.107839381938286

> <i_epik_Tot_Q>
0

> <i_epik_Tot_abs_Q>
0

$$$$
