1eat_ligand
                    3D
 Schrodinger Suite 2020-3.
 56 57  0  0  1  0            999 V2000
   -8.2040   22.4010   36.7880 C   0  0  0  0  0  0
   -8.7890   23.5050   37.7160 C   0  0  2  0  0  0
  -10.3040   23.4010   37.8790 C   0  0  2  0  0  0
  -11.1400   24.6340   38.2900 C   0  0  0  0  0  0
  -12.6170   24.4600   38.0110 C   0  0  0  0  0  0
  -10.9110   25.0880   39.7170 C   0  0  0  0  0  0
  -11.3540   21.2360   38.4010 C   0  0  0  0  0  0
  -11.4600   20.1430   39.4620 C   0  0  0  0  0  0
  -13.8800   19.6170   39.3700 C   0  0  0  0  0  0
  -14.8990   18.5650   39.2610 C   0  0  0  0  0  0
  -14.4860   17.3190   38.9440 C   0  0  0  0  0  0
  -12.2340   17.9170   38.7430 C   0  0  0  0  0  0
  -10.8370   17.4790   38.4100 C   0  0  0  0  0  0
  -10.1170   18.0820   37.3630 C   0  0  0  0  0  0
   -8.8520   17.6470   37.0630 C   0  0  0  0  0  0
   -8.3080   16.5610   37.7550 C   0  0  0  0  0  0
   -9.0600   15.8830   38.7070 C   0  0  0  0  0  0
  -10.3000   16.3570   39.0490 C   0  0  0  0  0  0
  -16.5730   18.1200   42.0370 C   0  0  0  0  0  0
  -10.5670   22.2490   38.7670 N   0  0  0  0  0  0
  -12.5550   19.2090   39.1760 N   0  0  0  0  0  0
  -13.1710   17.0010   38.6600 N   0  0  0  0  0  0
  -16.2420   18.9510   39.5160 N   0  5  0  0  0  0
   -6.9670   16.1770   37.5120 N   0  0  0  0  0  0
   -8.4550   24.7180   37.1560 O   0  0  0  0  0  0
  -12.0050   21.1960   37.3630 O   0  0  0  0  0  0
  -14.1720   20.7850   39.6380 O   0  0  0  0  0  0
  -18.4720   18.8100   40.5070 O   0  0  0  0  0  0
  -17.2400   16.7790   40.0020 O   0  0  0  0  0  0
   -8.4420   21.1710   37.2250 F   0  0  0  0  0  0
   -6.8910   22.4790   36.6400 F   0  0  0  0  0  0
   -8.7120   22.4680   35.5710 F   0  0  0  0  0  0
  -17.2630   18.1010   40.4550 S   0  0  0  0  0  0
   -8.3378   23.5012   38.7192 H   0  0  0  0  0  0
  -10.6779   23.2347   36.8579 H   0  0  0  0  0  0
  -10.7841   25.4573   37.6533 H   0  0  0  0  0  0
  -12.7573   24.1307   36.9709 H   0  0  0  0  0  0
  -13.1346   25.4183   38.1652 H   0  0  0  0  0  0
  -13.0327   23.7046   38.6941 H   0  0  0  0  0  0
   -9.8321   25.2072   39.8952 H   0  0  0  0  0  0
  -11.3163   24.3364   40.4104 H   0  0  0  0  0  0
  -11.4183   26.0501   39.8816 H   0  0  0  0  0  0
  -10.5201   19.5726   39.4959 H   0  0  0  0  0  0
  -11.6459   20.6021   40.4442 H   0  0  0  0  0  0
  -15.2287   16.5219   38.9103 H   0  0  0  0  0  0
  -10.5644   18.8945   36.7906 H   0  0  0  0  0  0
   -8.2720   18.1466   36.2870 H   0  0  0  0  0  0
   -8.6671   14.9818   39.1778 H   0  0  0  0  0  0
  -10.8736   15.8539   39.8274 H   0  0  0  0  0  0
  -16.5751   19.1491   42.4256 H   0  0  0  0  0  0
  -15.5389   17.7478   41.9905 H   0  0  0  0  0  0
  -17.1652   17.4753   42.7031 H   0  0  0  0  0  0
  -10.1076   22.2082   39.7657 H   0  0  0  0  0  0
   -6.3695   16.7119   36.7591 H   0  0  0  0  0  0
   -6.5227   15.3438   38.0761 H   0  0  0  0  0  0
   -7.3999   24.9642   36.9660 H   0  0  0  0  0  0
  1  2  1  0  0  0
  1 30  1  0  0  0
  1 31  1  0  0  0
  1 32  1  0  0  0
  2  3  1  0  0  0
  2 25  1  0  0  0
  2 34  1  0  0  0
  3  4  1  0  0  0
  3 20  1  0  0  0
  3 35  1  0  0  0
  4  5  1  0  0  0
  4  6  1  0  0  0
  4 36  1  0  0  0
  5 37  1  0  0  0
  5 38  1  0  0  0
  5 39  1  0  0  0
  6 40  1  0  0  0
  6 41  1  0  0  0
  6 42  1  0  0  0
  7  8  1  0  0  0
  7 20  1  0  0  0
  7 26  2  0  0  0
  8 21  1  0  0  0
  8 43  1  0  0  0
  8 44  1  0  0  0
  9 10  1  0  0  0
  9 21  1  0  0  0
  9 27  2  0  0  0
 10 11  2  0  0  0
 10 23  1  0  0  0
 11 22  1  0  0  0
 11 45  1  0  0  0
 12 13  1  0  0  0
 12 21  1  0  0  0
 12 22  2  0  0  0
 13 14  2  0  0  0
 13 18  1  0  0  0
 14 15  1  0  0  0
 14 46  1  0  0  0
 15 16  2  0  0  0
 15 47  1  0  0  0
 16 17  1  0  0  0
 16 24  1  0  0  0
 17 18  2  0  0  0
 17 48  1  0  0  0
 18 49  1  0  0  0
 19 33  1  0  0  0
 19 50  1  0  0  0
 19 51  1  0  0  0
 19 52  1  0  0  0
 20 53  1  0  0  0
 23 33  1  0  0  0
 24 54  1  0  0  0
 24 55  1  0  0  0
 25 56  1  0  0  0
 28 33  2  0  0  0
 29 33  2  0  0  0
M  CHG  1  23  -1
M  END
> <s_m_source_file>
../1eat_ligand.sdf

> <i_m_source_file_index>
1

> <s_epik_input>
RkMoRikoRilbQ0BASF0oW09IXSlbQ0BIXShbQ0hdKFtDSDNdKVtDSDNdKVtOSF1DKD1PKVtDSDJdbjFjKC1jMltjSF1bY0hdYyhbTkgyXSlbY0hdW2NIXTIpbltjSF1jKGMxPU8pW05IXVMoPU8pKD1PKVtDSDNd

> <s_epik_cmdline>
J2VwaWtfYXBwJywgJy1pbWFlJywgJ2xpZ2FuZF9wcm8ubWFlJywgJy1vbWFlJywgJ2xpZ2FuZF9wcmVwLm1hZScsICctbXMnLCAnMScsICctcGgnLCAnNycsICctcGh0JywgJzAuNScsICctbnQn

> <r_epik_Ionization_Penalty>
  0.2267

> <r_epik_Ionization_Penalty_Charging>
  0.2235

> <r_epik_Ionization_Penalty_Neutral>
  0.0032

> <r_epik_State_Penalty>
  0.2139

> <r_epik_Charging_Adjusted_Penalty>
0.437381413307366

> <i_epik_Tot_Q>
-1

> <i_epik_Tot_abs_Q>
1

$$$$
