1eb1_ligand
                    3D
 Schrodinger Suite 2020-3.
163166  0  0  1  0            999 V2000
   21.7210  -12.0310   33.9490 N   0  3  0  0  0  0
   23.0490  -11.4830   34.3430 C   0  0  2  0  0  0
   23.0570   -9.9550   34.3220 C   0  0  0  0  0  0
   24.0620   -9.3360   33.9760 O   0  0  0  0  0  0
   24.1410  -12.0370   33.4140 C   0  0  0  0  0  0
   23.8920  -11.7160   31.9430 C   0  0  0  0  0  0
   22.7130  -11.6730   31.5290 O   0  0  0  0  0  0
   24.8790  -11.5280   31.1950 O   0  0  0  0  0  0
   21.9320   -9.3570   34.7070 N   0  0  0  0  0  0
   21.8020   -7.9050   34.7330 C   0  0  2  0  0  0
   21.9040   -7.3090   36.1330 C   0  0  0  0  0  0
   21.1750   -7.7020   37.0450 O   0  0  0  0  0  0
   20.4620   -7.4620   34.1140 C   0  0  0  0  0  0
   20.4100   -7.5680   32.6020 C   0  0  0  0  0  0
   20.0760   -8.7710   31.9780 C   0  0  0  0  0  0
   20.7710   -6.4820   31.7950 C   0  0  0  0  0  0
   20.1110   -8.9000   30.5850 C   0  0  0  0  0  0
   20.8120   -6.5970   30.4020 C   0  0  0  0  0  0
   20.4860   -7.8110   29.8050 C   0  0  0  0  0  0
   20.5760   -7.9510   28.4410 O   0  0  0  0  0  0
   22.8050   -6.3500   36.2960 N   0  0  0  0  0  0
   22.9570   -5.6820   37.5700 C   0  0  2  0  0  0
   21.6350   -4.9780   37.8680 C   0  0  0  0  0  0
   21.0470   -4.3330   37.0050 O   0  0  0  0  0  0
   24.1130   -4.6900   37.4960 C   0  0  0  0  0  0
   24.0460   -3.5720   38.4970 C   0  0  0  0  0  0
   25.3360   -2.7640   38.5300 C   0  0  0  0  0  0
   26.0110   -2.6730   37.4880 O   0  0  0  0  0  0
   25.6730   -2.2160   39.6030 O   0  0  0  0  0  0
   21.1340   -5.1140   39.1020 N   0  0  0  0  0  0
   19.8660   -4.4810   39.4700 C   0  0  2  0  0  0
   19.8100   -2.9610   39.3880 C   0  0  0  0  0  0
   20.7620   -2.2580   39.7300 O   0  0  0  0  0  0
   19.6130   -5.0110   40.8860 C   0  0  0  0  0  0
   20.9960   -5.2600   41.4140 C   0  0  0  0  0  0
   21.6730   -5.9090   40.2200 C   0  0  0  0  0  0
   18.6790   -2.4630   38.9120 N   0  0  0  0  0  0
   18.4680   -1.0320   38.7960 C   0  0  2  0  0  0
   18.0270   -0.5040   40.1610 C   0  0  0  0  0  0
   16.8810   -0.6880   40.5770 O   0  0  0  0  0  0
   17.3900   -0.7310   37.7450 C   0  0  2  0  0  0
   17.7910   -1.3700   36.4070 C   0  0  0  0  0  0
   17.1950    0.7630   37.6120 C   0  0  0  0  0  0
   16.7610   -1.1820   35.3250 C   0  0  0  0  0  0
   18.9310    0.1790   40.8720 N   0  0  0  0  0  0
   18.6290    0.7270   42.1980 C   0  0  2  0  0  0
   17.4290    1.6580   42.2190 C   0  0  0  0  0  0
   17.2400    2.4370   41.2880 O   0  0  0  0  0  0
   19.9200    1.4540   42.5610 C   0  0  0  0  0  0
   20.4020    1.9410   41.2350 C   0  0  0  0  0  0
   20.2080    0.7190   40.3690 C   0  0  0  0  0  0
   16.6130    1.5750   43.2720 N   0  0  0  0  0  0
   15.4570    2.4610   43.3940 C   0  0  2  0  0  0
   16.0290    3.8600   43.2620 C   0  0  0  0  0  0
   17.2400    4.0210   43.1120 O   0  0  0  0  0  0
   14.7900    2.3270   44.7630 C   0  0  0  0  0  0
   13.3940    1.7340   44.7400 C   0  0  0  0  0  0
   13.4180    0.2250   44.7170 C   0  0  0  0  0  0
   14.1620   -0.3550   45.5400 O   0  0  0  0  0  0
   12.6940   -0.3810   43.8930 O   0  0  0  0  0  0
   15.1850    4.8750   43.3710 N   0  0  0  0  0  0
   15.6520    6.2460   43.1940 C   0  0  2  0  0  0
   15.6980    6.3780   41.6690 C   0  0  0  0  0  0
   15.0310    7.2370   41.0940 O   0  0  0  0  0  0
   17.0680    6.4560   43.7630 C   0  0  0  0  0  0
   17.2730    6.0240   45.2040 C   0  0  0  0  0  0
   18.7410    5.9960   45.5880 C   0  0  0  0  0  0
   19.3970    7.0550   45.5110 O   0  0  0  0  0  0
   19.2410    4.9130   45.9630 O   0  0  0  0  0  0
   16.4680    5.4980   41.0250 N   0  0  0  0  0  0
   16.6010    5.5010   39.5690 C   0  0  2  0  0  0
   15.2400    5.3610   38.8900 C   0  0  0  0  0  0
   14.9770    6.0110   37.8800 O   0  0  0  0  0  0
   17.5370    4.3810   39.1180 C   0  0  0  0  0  0
   14.3760    4.5120   39.4370 N   0  0  0  0  0  0
   13.0450    4.3310   38.8740 C   0  0  2  0  0  0
   12.2860    5.6450   39.0220 C   0  0  0  0  0  0
   11.7830    6.1560   38.0070 O   0  0  0  0  0  0
   12.2850    3.2130   39.6050 C   0  0  0  0  0  0
   12.7480    1.8250   39.2610 C   0  0  0  0  0  0
   14.0280    1.4000   39.5930 C   0  0  0  0  0  0
   11.8970    0.9420   38.6070 C   0  0  0  0  0  0
   14.4530    0.1120   39.2830 C   0  0  0  0  0  0
   12.3120   -0.3490   38.2920 C   0  0  0  0  0  0
   13.5920   -0.7630   38.6290 C   0  0  0  0  0  0
   12.1970    6.1460   40.1630 O   0  0  0  0  0  0
   20.9456  -11.6299   34.6183 H   0  0  0  0  0  0
   21.7397  -13.1282   34.0256 H   0  0  0  0  0  0
   21.4971  -11.7396   32.9122 H   0  0  0  0  0  0
   23.2246  -11.8111   35.3781 H   0  0  0  0  0  0
   25.1129  -11.6025   33.6908 H   0  0  0  0  0  0
   24.1868  -13.1315   33.5139 H   0  0  0  0  0  0
   24.7262  -11.2952   30.1308 H   0  0  0  0  0  0
   21.0857   -9.9905   35.0111 H   0  0  0  0  0  0
   22.6707   -7.5812   34.1410 H   0  0  0  0  0  0
   19.6500   -8.0900   34.5095 H   0  0  0  0  0  0
   20.2697   -6.4097   34.3704 H   0  0  0  0  0  0
   19.7824   -9.6259   32.5871 H   0  0  0  0  0  0
   21.0246   -5.5299   32.2611 H   0  0  0  0  0  0
   19.8463   -9.8470   30.1146 H   0  0  0  0  0  0
   21.0971   -5.7423   29.7885 H   0  0  0  0  0  0
   20.3185   -8.9103   27.9684 H   0  0  0  0  0  0
   23.4418   -6.0643   35.4458 H   0  0  0  0  0  0
   23.1897   -6.4341   38.3382 H   0  0  0  0  0  0
   25.0615   -5.2184   37.6727 H   0  0  0  0  0  0
   24.1330   -4.2239   36.4998 H   0  0  0  0  0  0
   23.2206   -2.8939   38.2346 H   0  0  0  0  0  0
   23.8736   -3.9882   39.5005 H   0  0  0  0  0  0
   26.6007   -1.6269   39.6521 H   0  0  0  0  0  0
   19.1164   -4.7601   38.7149 H   0  0  0  0  0  0
   19.0705   -4.2528   41.4698 H   0  0  0  0  0  0
   19.0121   -5.9308   40.8314 H   0  0  0  0  0  0
   21.4553   -4.3036   41.7043 H   0  0  0  0  0  0
   20.9400   -5.9211   42.2914 H   0  0  0  0  0  0
   21.3960   -6.9651   40.0859 H   0  0  0  0  0  0
   22.7690   -5.8171   40.2404 H   0  0  0  0  0  0
   17.8891   -3.1624   38.6008 H   0  0  0  0  0  0
   19.4255   -0.5913   38.4812 H   0  0  0  0  0  0
   16.4227   -1.1484   38.0614 H   0  0  0  0  0  0
   18.7299   -0.9197   36.0525 H   0  0  0  0  0  0
   17.9326   -2.4521   36.5452 H   0  0  0  0  0  0
   16.9095    1.1838   38.5874 H   0  0  0  0  0  0
   16.4004    0.9652   36.8787 H   0  0  0  0  0  0
   18.1333    1.2265   37.2732 H   0  0  0  0  0  0
   17.1104   -1.6617   34.3988 H   0  0  0  0  0  0
   16.6088   -0.1073   35.1465 H   0  0  0  0  0  0
   15.8114   -1.6396   35.6393 H   0  0  0  0  0  0
   18.3423   -0.0827   42.8852 H   0  0  0  0  0  0
   19.6954    2.2730   43.2602 H   0  0  0  0  0  0
   20.6175    0.7479   43.0353 H   0  0  0  0  0  0
   19.7922    2.7990   40.9158 H   0  0  0  0  0  0
   21.4544    2.2499   41.3183 H   0  0  0  0  0  0
   21.0012   -0.0315   40.5020 H   0  0  0  0  0  0
   20.1082    0.9616   39.3007 H   0  0  0  0  0  0
   16.8189    0.8287   44.0535 H   0  0  0  0  0  0
   14.7207    2.1980   42.6202 H   0  0  0  0  0  0
   15.3993    1.6742   45.4054 H   0  0  0  0  0  0
   14.7029    3.3204   45.2273 H   0  0  0  0  0  0
   12.8449    2.0541   45.6378 H   0  0  0  0  0  0
   12.8627    2.0817   43.8418 H   0  0  0  0  0  0
   12.6982   -1.4805   43.8615 H   0  0  0  0  0  0
   14.1263    4.6794   43.5964 H   0  0  0  0  0  0
   14.9804    6.9406   43.7198 H   0  0  0  0  0  0
   17.7921    5.8833   43.1650 H   0  0  0  0  0  0
   17.3241    7.5250   43.7237 H   0  0  0  0  0  0
   16.7568    6.7269   45.8745 H   0  0  0  0  0  0
   16.8624    5.0134   45.3458 H   0  0  0  0  0  0
   20.3028    4.8664   46.2467 H   0  0  0  0  0  0
   17.0123    4.7543   41.6255 H   0  0  0  0  0  0
   17.0336    6.4803   39.3162 H   0  0  0  0  0  0
   18.5117    4.4954   39.6149 H   0  0  0  0  0  0
   17.6729    4.4335   38.0277 H   0  0  0  0  0  0
   17.1004    3.4078   39.3867 H   0  0  0  0  0  0
   14.6787    3.9418   40.3276 H   0  0  0  0  0  0
   13.1827    4.0550   37.8181 H   0  0  0  0  0  0
   12.4097    3.3344   40.6911 H   0  0  0  0  0  0
   11.2164    3.2687   39.3501 H   0  0  0  0  0  0
   14.7074    2.0835   40.1023 H   0  0  0  0  0  0
   10.8914    1.2645   38.3372 H   0  0  0  0  0  0
   15.4587   -0.2108   39.5521 H   0  0  0  0  0  0
   11.6330   -1.0323   37.7820 H   0  0  0  0  0  0
   13.9226   -1.7718   38.3819 H   0  0  0  0  0  0
   11.6567    7.0933   40.3071 H   0  0  0  0  0  0
  1  2  1  0  0  0
  1 87  1  0  0  0
  1 88  1  0  0  0
  1 89  1  0  0  0
  2  3  1  0  0  0
  2  5  1  0  0  0
  2 90  1  0  0  0
  3  4  2  0  0  0
  3  9  1  0  0  0
  5  6  1  0  0  0
  5 91  1  0  0  0
  5 92  1  0  0  0
  6  7  2  0  0  0
  6  8  1  0  0  0
  8 93  1  0  0  0
  9 10  1  0  0  0
  9 94  1  0  0  0
 10 11  1  0  0  0
 10 13  1  0  0  0
 10 95  1  0  0  0
 11 12  2  0  0  0
 11 21  1  0  0  0
 13 14  1  0  0  0
 13 96  1  0  0  0
 13 97  1  0  0  0
 14 15  2  0  0  0
 14 16  1  0  0  0
 15 17  1  0  0  0
 15 98  1  0  0  0
 16 18  2  0  0  0
 16 99  1  0  0  0
 17 19  2  0  0  0
 17100  1  0  0  0
 18 19  1  0  0  0
 18101  1  0  0  0
 19 20  1  0  0  0
 20102  1  0  0  0
 21 22  1  0  0  0
 21103  1  0  0  0
 22 23  1  0  0  0
 22 25  1  0  0  0
 22104  1  0  0  0
 23 24  2  0  0  0
 23 30  1  0  0  0
 25 26  1  0  0  0
 25105  1  0  0  0
 25106  1  0  0  0
 26 27  1  0  0  0
 26107  1  0  0  0
 26108  1  0  0  0
 27 28  2  0  0  0
 27 29  1  0  0  0
 29109  1  0  0  0
 30 31  1  0  0  0
 30 36  1  0  0  0
 31 32  1  0  0  0
 31 34  1  0  0  0
 31110  1  0  0  0
 32 33  2  0  0  0
 32 37  1  0  0  0
 34 35  1  0  0  0
 34111  1  0  0  0
 34112  1  0  0  0
 35 36  1  0  0  0
 35113  1  0  0  0
 35114  1  0  0  0
 36115  1  0  0  0
 36116  1  0  0  0
 37 38  1  0  0  0
 37117  1  0  0  0
 38 39  1  0  0  0
 38 41  1  0  0  0
 38118  1  0  0  0
 39 40  2  0  0  0
 39 45  1  0  0  0
 41 42  1  0  0  0
 41 43  1  0  0  0
 41119  1  0  0  0
 42 44  1  0  0  0
 42120  1  0  0  0
 42121  1  0  0  0
 43122  1  0  0  0
 43123  1  0  0  0
 43124  1  0  0  0
 44125  1  0  0  0
 44126  1  0  0  0
 44127  1  0  0  0
 45 46  1  0  0  0
 45 51  1  0  0  0
 46 47  1  0  0  0
 46 49  1  0  0  0
 46128  1  0  0  0
 47 48  2  0  0  0
 47 52  1  0  0  0
 49 50  1  0  0  0
 49129  1  0  0  0
 49130  1  0  0  0
 50 51  1  0  0  0
 50131  1  0  0  0
 50132  1  0  0  0
 51133  1  0  0  0
 51134  1  0  0  0
 52 53  1  0  0  0
 52135  1  0  0  0
 53 54  1  0  0  0
 53 56  1  0  0  0
 53136  1  0  0  0
 54 55  2  0  0  0
 54 61  1  0  0  0
 56 57  1  0  0  0
 56137  1  0  0  0
 56138  1  0  0  0
 57 58  1  0  0  0
 57139  1  0  0  0
 57140  1  0  0  0
 58 59  2  0  0  0
 58 60  1  0  0  0
 60141  1  0  0  0
 61 62  1  0  0  0
 61142  1  0  0  0
 62 63  1  0  0  0
 62 65  1  0  0  0
 62143  1  0  0  0
 63 64  2  0  0  0
 63 70  1  0  0  0
 65 66  1  0  0  0
 65144  1  0  0  0
 65145  1  0  0  0
 66 67  1  0  0  0
 66146  1  0  0  0
 66147  1  0  0  0
 67 68  2  0  0  0
 67 69  1  0  0  0
 69148  1  0  0  0
 70 71  1  0  0  0
 70149  1  0  0  0
 71 72  1  0  0  0
 71 74  1  0  0  0
 71150  1  0  0  0
 72 73  2  0  0  0
 72 75  1  0  0  0
 74151  1  0  0  0
 74152  1  0  0  0
 74153  1  0  0  0
 75 76  1  0  0  0
 75154  1  0  0  0
 76 77  1  0  0  0
 76 79  1  0  0  0
 76155  1  0  0  0
 77 78  2  0  0  0
 77 86  1  0  0  0
 79 80  1  0  0  0
 79156  1  0  0  0
 79157  1  0  0  0
 80 81  2  0  0  0
 80 82  1  0  0  0
 81 83  1  0  0  0
 81158  1  0  0  0
 82 84  2  0  0  0
 82159  1  0  0  0
 83 85  2  0  0  0
 83160  1  0  0  0
 84 85  1  0  0  0
 84161  1  0  0  0
 85162  1  0  0  0
 86163  1  0  0  0
M  CHG  1   1   1
M  END
> <s_m_source_file>
../1eb1_ligand.sdf

> <i_m_source_file_index>
1

> <s_epik_input>
W2NIXTFbY0hdYyhbT0hdKVtjSF1bY0hdYzFbQ0gyXVtDQEhdKFtOSF1DKD1PKVtDQEBIXShbTkgzK10pW0NIMl1DKD1PKVtPSF0pQyg9TylbTkhdW0NAQEhdKFtDSDJdW0NIMl1DKD1PKVtPSF0pQyg9TylOMltDQEBIXShbQ0gyXVtDSDJdW0NIMl0yKUMoPU8pW05IXVtDQEBIXShbQ0BASF0oW0NIM10pW0NIMl1bQ0gzXSlDKD1PKU4zW0NAQEhdKFtDSDJdW0NIMl1bQ0gyXTMpQyg9TylbTkhdW0NAQEhdKFtDSDJdW0NIMl1DKD1PKVtPSF0pQyg9TylbTkhdW0NAQEhdKFtDSDJdW0NIMl1DKD1PKVtPSF0pQyg9TylbTkhdW0NAQEhdKFtDSDNdKUMoPU8pW05IXVtDQEhdKEMoPU8pW09IXSlbQ0gyXWM0W2NIXVtjSF1bY0hdW2NIXVtjSF00

> <s_epik_cmdline>
J2VwaWtfYXBwJywgJy1pbWFlJywgJ2xpZ2FuZF9wcm8ubWFlJywgJy1vbWFlJywgJ2xpZ2FuZF9wcmVwLm1hZScsICctbXMnLCAnMScsICctcGgnLCAnNycsICctcGh0JywgJzAuNScsICctbnQn

> <s_epik_pKa_notes>
Molecule size exceeds maximum supported for generating protonation states

$$$$
