1eb2_ligand
                    3D
 Schrodinger Suite 2020-3.
 64 67  0  0  1  0            999 V2000
   12.5690  -12.7510   24.1120 C   0  0  0  0  0  0
   12.8710   -3.7820   24.2480 C   0  0  0  0  0  0
   12.1740   -2.9340   29.2690 N   0  0  0  0  0  0
   13.1970   -3.0100   26.5470 C   0  0  0  0  0  0
    8.7610   -6.3070   23.0030 C   0  0  1  0  0  0
    8.0310   -7.6200   23.4610 C   0  0  0  0  0  0
   11.5950   -4.2710   24.6230 C   0  0  0  0  0  0
   11.1310   -4.1530   25.9410 C   0  0  0  0  0  0
   11.9420   -3.5110   26.9100 C   0  0  0  0  0  0
    7.4290   -4.1700   23.1940 C   0  0  0  0  0  0
    7.6680   -5.3640   22.5020 C   0  0  0  0  0  0
   11.3810   -3.4090   28.2850 C   0  0  0  0  0  0
   10.7130   -4.9350   23.5830 C   0  0  0  0  0  0
    6.4390   -3.2870   22.7710 C   0  0  0  0  0  0
    9.5540  -11.0470   24.2180 C   0  0  0  0  0  0
    8.5510   -9.9030   24.1580 C   0  0  0  0  0  0
    5.8950   -4.8230   20.9640 C   0  0  0  0  0  0
    5.6670   -3.6330   21.6510 C   0  0  0  0  0  0
    6.8930   -5.7200   21.3800 C   0  0  0  0  0  0
   10.9980  -10.6760   23.8290 C   0  0  0  0  0  0
   11.6300  -11.9640   23.2460 C   0  0  0  0  0  0
   11.0150   -9.7630   22.5630 C   0  0  0  0  0  0
   13.6590   -3.1610   25.2330 C   0  0  0  0  0  0
    6.8780   -7.6790   23.8250 O   0  0  0  0  0  0
   11.0060   -4.7500   22.4000 O   0  0  0  0  0  0
    9.5970   -5.6890   24.0250 N   0  0  0  0  0  0
   10.0410   -3.5030   28.3310 N   0  3  0  0  0  0
    8.8270   -8.7720   23.2810 N   0  0  0  0  0  0
   11.3480  -12.2870   22.1100 O   0  0  0  0  0  0
   10.2140   -8.4980   22.8570 C   0  0  0  0  0  0
   13.3920  -13.7170   23.4900 C   0  0  0  0  0  0
   14.2490  -14.4420   24.3040 C   0  0  0  0  0  0
   14.3430  -14.2730   25.6880 C   0  0  0  0  0  0
   13.5370  -13.3150   26.2830 C   0  0  0  0  0  0
   12.6610  -12.5670   25.4920 C   0  0  0  0  0  0
   13.2316   -3.8844   23.2245 H   0  0  0  0  0  0
   13.2645   -2.9002   29.1285 H   0  0  0  0  0  0
   11.7296   -2.5807   30.2112 H   0  0  0  0  0  0
   13.8155   -2.5020   27.2869 H   0  0  0  0  0  0
    9.5298   -6.5002   22.2404 H   0  0  0  0  0  0
   10.1550   -4.5516   26.2179 H   0  0  0  0  0  0
    8.0251   -3.9291   24.0742 H   0  0  0  0  0  0
    6.2674   -2.3483   23.2977 H   0  0  0  0  0  0
    9.5982  -11.4424   25.2435 H   0  0  0  0  0  0
    9.2404  -11.8461   23.5302 H   0  0  0  0  0  0
    7.5774  -10.2864   23.8186 H   0  0  0  0  0  0
    8.4415   -9.4585   25.1582 H   0  0  0  0  0  0
    5.2895   -5.0621   20.0898 H   0  0  0  0  0  0
    4.8778   -2.9609   21.3141 H   0  0  0  0  0  0
    7.0621   -6.6591   20.8531 H   0  0  0  0  0  0
   11.4779  -10.2256   24.7104 H   0  0  0  0  0  0
   12.0536   -9.4973   22.3165 H   0  0  0  0  0  0
   10.5635  -10.3013   21.7166 H   0  0  0  0  0  0
   14.6492   -2.7896   24.9690 H   0  0  0  0  0  0
    9.3503   -5.8177   25.0892 H   0  0  0  0  0  0
    9.5181   -3.4409   29.2968 H   0  0  0  0  0  0
   10.7027   -7.9342   23.6652 H   0  0  0  0  0  0
   10.1672   -7.8749   21.9517 H   0  0  0  0  0  0
   13.3546  -13.8853   22.4137 H   0  0  0  0  0  0
   14.8888  -15.1898   23.8355 H   0  0  0  0  0  0
   15.0295  -14.8764   26.2818 H   0  0  0  0  0  0
   13.5861  -13.1466   27.3588 H   0  0  0  0  0  0
   12.0299  -11.8164   25.9679 H   0  0  0  0  0  0
    9.4672   -3.6421   27.4029 H   0  0  0  0  0  0
  1 21  1  0  0  0
  1 31  2  0  0  0
  1 35  1  0  0  0
  2  7  2  0  0  0
  2 23  1  0  0  0
  2 36  1  0  0  0
  3 12  1  0  0  0
  3 37  1  0  0  0
  3 38  1  0  0  0
  4 23  2  0  0  0
  4  9  1  0  0  0
  4 39  1  0  0  0
  5  6  1  0  0  0
  5 11  1  0  0  0
  5 26  1  0  0  0
  5 40  1  0  0  0
  6 28  1  0  0  0
  6 24  2  0  0  0
  7  8  1  0  0  0
  7 13  1  0  0  0
  8  9  2  0  0  0
  8 41  1  0  0  0
  9 12  1  0  0  0
 10 11  2  0  0  0
 10 14  1  0  0  0
 10 42  1  0  0  0
 11 19  1  0  0  0
 12 27  2  0  0  0
 13 26  1  0  0  0
 13 25  2  0  0  0
 14 18  2  0  0  0
 14 43  1  0  0  0
 15 16  1  0  0  0
 15 20  1  0  0  0
 15 44  1  0  0  0
 15 45  1  0  0  0
 16 28  1  0  0  0
 16 46  1  0  0  0
 16 47  1  0  0  0
 17 19  2  0  0  0
 17 18  1  0  0  0
 17 48  1  0  0  0
 18 49  1  0  0  0
 19 50  1  0  0  0
 20 22  1  0  0  0
 20 21  1  0  0  0
 20 51  1  0  0  0
 21 29  2  0  0  0
 22 30  1  0  0  0
 22 52  1  0  0  0
 22 53  1  0  0  0
 23 54  1  0  0  0
 26 55  1  0  0  0
 27 56  1  0  0  0
 27 64  1  0  0  0
 28 30  1  0  0  0
 30 57  1  0  0  0
 30 58  1  0  0  0
 31 32  1  0  0  0
 31 59  1  0  0  0
 32 33  2  0  0  0
 32 60  1  0  0  0
 33 34  1  0  0  0
 33 61  1  0  0  0
 34 35  2  0  0  0
 34 62  1  0  0  0
 35 63  1  0  0  0
M  CHG  1  27   1
M  END
> <s_m_source_file>
../1eb2_ligand.sdf

> <i_m_source_file_index>
1

> <s_epik_input>
W2NIXTFbY0hdW2NIXVtjSF1bY0hdYzFDKD1PKVtDSF0yW0NIMl1bQ0gyXU4oW0NIMl1bQ0gyXTIpQyg9TylbQ0BASF0oYzNbY0hdW2NIXVtjSF1bY0hdW2NIXTMpW05IXUMoPU8pYzRbY0hdW2NIXVtjSF1jKFtjSF00KUMoXFtOSDJdKT1OL1tIXQ==

> <s_epik_cmdline>
J2VwaWtfYXBwJywgJy1pbWFlJywgJ2xpZ2FuZF9wcm8ubWFlJywgJy1vbWFlJywgJ2xpZ2FuZF9wcmVwLm1hZScsICctbXMnLCAnMScsICctcGgnLCAnNycsICctcGh0JywgJzAuNScsICctbnQn

> <r_lp_tautomer_probability>
1

> <r_epik_Ionization_Penalty>
  0.0003

> <r_epik_Ionization_Penalty_Charging>
  0.0003

> <r_epik_Ionization_Penalty_Neutral>
  0.0000

> <r_epik_State_Penalty>
 -0.0000

> <r_epik_Charging_Adjusted_Penalty>
0.0003115973184836

> <i_epik_Tot_Q>
1

> <i_epik_Tot_abs_Q>
1

> <s_epik_Chemistry_Notes>
This compound has an imine and may undergo hydrolysis.

$$$$
