1ebw_ligand
                    3D
 Schrodinger Suite 2020-3.
 98 99  0  0  1  0            999 V2000
    9.9100   24.1780    2.1720 C   0  0  0  0  0  0
    9.2280   25.3590    1.8090 C   0  0  0  0  0  0
    7.8190   25.4550    1.9400 C   0  0  0  0  0  0
    7.0880   24.3570    2.4430 C   0  0  0  0  0  0
    7.7540   23.1590    2.8160 C   0  0  0  0  0  0
    9.1700   23.0730    2.6790 C   0  0  0  0  0  0
   16.4460   22.1800    8.7940 C   0  0  0  0  0  0
   15.6340   21.2070    9.4800 C   0  0  0  0  0  0
   16.2240   20.0240   10.0370 C   0  0  0  0  0  0
   17.6170   19.8240    9.9050 C   0  0  0  0  0  0
   18.4340   20.7940    9.2210 C   0  0  0  0  0  0
   17.8460   21.9740    8.6640 C   0  0  0  0  0  0
   15.8020   23.4140    8.2000 C   0  0  0  0  0  0
   14.7140   23.0580    7.2820 O   0  0  0  0  0  0
   15.1550   22.6460    5.9370 C   0  0  2  0  0  0
   14.0930   23.0280    4.9120 C   0  0  1  0  0  0
   13.6800   24.4670    4.9960 C   0  0  2  0  0  0
   12.2940   24.6570    4.2920 C   0  0  2  0  0  0
   11.1140   24.6630    5.2640 C   0  0  0  0  0  0
   10.8230   23.6230    5.8630 O   0  0  0  0  0  0
   10.4190   25.8270    5.4040 N   0  0  0  0  0  0
    9.2350   25.9870    6.2840 C   0  0  1  0  0  0
    9.5850   26.6710    7.6650 C   0  0  1  0  0  0
    8.2980   26.8910    8.5270 C   0  0  0  0  0  0
   10.6480   25.8520    8.4900 C   0  0  0  0  0  0
   11.3160   26.7570    9.5730 C   0  0  0  0  0  0
    8.2700   26.8820    5.5190 C   0  0  0  0  0  0
    8.6910   27.9580    5.0600 O   0  0  0  0  0  0
    6.9760   26.4220    5.3980 N   0  0  0  0  0  0
    6.0360   27.2650    4.6770 C   0  0  0  0  0  0
   12.0690   23.6150    3.2490 O   0  0  0  0  0  0
   11.4240   24.0930    2.0330 C   0  0  0  0  0  0
   14.7800   25.2040    4.3700 O   0  0  0  0  0  0
   14.6060   22.7820    3.5510 O   0  0  0  0  0  0
   15.3520   21.1950    5.7900 C   0  0  0  0  0  0
   14.3850   20.4830    6.1080 O   0  0  0  0  0  0
   16.5460   20.7420    5.3250 N   0  0  0  0  0  0
   16.8210   19.3220    5.1510 C   0  0  1  0  0  0
   16.7560   18.8890    3.6270 C   0  0  1  0  0  0
   17.2260   17.3950    3.4290 C   0  0  0  0  0  0
   15.3220   19.0400    3.0550 C   0  0  0  0  0  0
   15.3410   19.0800    1.5130 C   0  0  0  0  0  0
   18.2000   19.0980    5.7050 C   0  0  0  0  0  0
   19.1520   19.7800    5.2690 O   0  0  0  0  0  0
   18.2940   18.1270    6.6760 N   0  0  0  0  0  0
   19.6250   17.8910    7.2220 C   0  0  0  0  0  0
    9.7914   26.2085    1.4229 H   0  0  0  0  0  0
    7.3033   26.3717    1.6538 H   0  0  0  0  0  0
    6.0053   24.4290    2.5459 H   0  0  0  0  0  0
    7.1869   22.3127    3.2037 H   0  0  0  0  0  0
    9.6883   22.1573    2.9636 H   0  0  0  0  0  0
   15.1424   21.6819   10.3419 H   0  0  0  0  0  0
   14.8701   20.8162    8.7917 H   0  0  0  0  0  0
   15.6085   19.2780   10.5610 H   0  0  0  0  0  0
   18.0855   18.9223   10.3261 H   0  0  0  0  0  0
   19.1967   21.1832    9.9115 H   0  0  0  0  0  0
   18.9271   20.3170    8.3611 H   0  0  0  0  0  0
   18.4649   22.7171    8.1399 H   0  0  0  0  0  0
   15.3891   24.0367    9.0073 H   0  0  0  0  0  0
   16.5561   23.9890    7.6426 H   0  0  0  0  0  0
   16.1309   23.1369    5.8077 H   0  0  0  0  0  0
   13.2049   22.4082    5.1046 H   0  0  0  0  0  0
   13.5874   24.8402    6.0266 H   0  0  0  0  0  0
   12.3091   25.6343    3.7874 H   0  0  0  0  0  0
   10.7852   26.6802    4.8142 H   0  0  0  0  0  0
    8.8316   24.9809    6.4712 H   0  0  0  0  0  0
   10.0239   27.6521    7.4310 H   0  0  0  0  0  0
    7.5604   27.4632    7.9452 H   0  0  0  0  0  0
    8.5583   27.4487    9.4387 H   0  0  0  0  0  0
    7.8705   25.9158    8.8031 H   0  0  0  0  0  0
   10.1526   25.0055    8.9881 H   0  0  0  0  0  0
   11.4265   25.4735    7.8113 H   0  0  0  0  0  0
   12.0540   26.1687   10.1380 H   0  0  0  0  0  0
   10.5453   27.1359   10.2604 H   0  0  0  0  0  0
   11.8192   27.6039    9.0835 H   0  0  0  0  0  0
    6.6427   25.4621    5.8194 H   0  0  0  0  0  0
    5.0490   26.7797    4.6570 H   0  0  0  0  0  0
    6.3924   27.4138    3.6470 H   0  0  0  0  0  0
    5.9555   28.2391    5.1815 H   0  0  0  0  0  0
   11.6790   23.3989    1.2186 H   0  0  0  0  0  0
   11.8278   25.0904    1.8046 H   0  0  0  0  0  0
   15.7951   25.1375    4.7886 H   0  0  0  0  0  0
   14.9660   21.7808    3.2715 H   0  0  0  0  0  0
   17.3174   21.4860    5.0773 H   0  0  0  0  0  0
   16.0666   18.7680    5.7289 H   0  0  0  0  0  0
   17.4220   19.5631    3.0684 H   0  0  0  0  0  0
   18.2428   17.2742    3.8309 H   0  0  0  0  0  0
   17.2239   17.1490    2.3569 H   0  0  0  0  0  0
   16.5388   16.7209    3.9613 H   0  0  0  0  0  0
   14.7070   18.1869    3.3774 H   0  0  0  0  0  0
   14.8758   19.9746    3.4258 H   0  0  0  0  0  0
   14.3131   19.1873    1.1363 H   0  0  0  0  0  0
   15.7773   18.1467    1.1274 H   0  0  0  0  0  0
   15.9462   19.9344    1.1758 H   0  0  0  0  0  0
   17.4373   17.5431    7.0435 H   0  0  0  0  0  0
   19.5737   17.0990    7.9837 H   0  0  0  0  0  0
   20.0027   18.8168    7.6805 H   0  0  0  0  0  0
   20.3028   17.5791    6.4138 H   0  0  0  0  0  0
  1  2  2  0  0  0
  1  6  1  0  0  0
  1 32  1  0  0  0
  2  3  1  0  0  0
  2 47  1  0  0  0
  3  4  2  0  0  0
  3 48  1  0  0  0
  4  5  1  0  0  0
  4 49  1  0  0  0
  5  6  2  0  0  0
  5 50  1  0  0  0
  6 51  1  0  0  0
  7  8  1  0  0  0
  7 12  2  0  0  0
  7 13  1  0  0  0
  8  9  1  0  0  0
  8 52  1  0  0  0
  8 53  1  0  0  0
  9 10  2  0  0  0
  9 54  1  0  0  0
 10 11  1  0  0  0
 10 55  1  0  0  0
 11 12  1  0  0  0
 11 56  1  0  0  0
 11 57  1  0  0  0
 12 58  1  0  0  0
 13 14  1  0  0  0
 13 59  1  0  0  0
 13 60  1  0  0  0
 14 15  1  0  0  0
 15 16  1  0  0  0
 15 35  1  0  0  0
 15 61  1  0  0  0
 16 17  1  0  0  0
 16 34  1  0  0  0
 16 62  1  0  0  0
 17 18  1  0  0  0
 17 33  1  0  0  0
 17 63  1  0  0  0
 18 19  1  0  0  0
 18 31  1  0  0  0
 18 64  1  0  0  0
 19 20  2  0  0  0
 19 21  1  0  0  0
 21 22  1  0  0  0
 21 65  1  0  0  0
 22 23  1  0  0  0
 22 27  1  0  0  0
 22 66  1  0  0  0
 23 24  1  0  0  0
 23 25  1  0  0  0
 23 67  1  0  0  0
 24 68  1  0  0  0
 24 69  1  0  0  0
 24 70  1  0  0  0
 25 26  1  0  0  0
 25 71  1  0  0  0
 25 72  1  0  0  0
 26 73  1  0  0  0
 26 74  1  0  0  0
 26 75  1  0  0  0
 27 28  2  0  0  0
 27 29  1  0  0  0
 29 30  1  0  0  0
 29 76  1  0  0  0
 30 77  1  0  0  0
 30 78  1  0  0  0
 30 79  1  0  0  0
 31 32  1  0  0  0
 32 80  1  0  0  0
 32 81  1  0  0  0
 33 82  1  0  0  0
 34 83  1  0  0  0
 35 36  2  0  0  0
 35 37  1  0  0  0
 37 38  1  0  0  0
 37 84  1  0  0  0
 38 39  1  0  0  0
 38 43  1  0  0  0
 38 85  1  0  0  0
 39 40  1  0  0  0
 39 41  1  0  0  0
 39 86  1  0  0  0
 40 87  1  0  0  0
 40 88  1  0  0  0
 40 89  1  0  0  0
 41 42  1  0  0  0
 41 90  1  0  0  0
 41 91  1  0  0  0
 42 92  1  0  0  0
 42 93  1  0  0  0
 42 94  1  0  0  0
 43 44  2  0  0  0
 43 45  1  0  0  0
 45 46  1  0  0  0
 45 95  1  0  0  0
 46 96  1  0  0  0
 46 97  1  0  0  0
 46 98  1  0  0  0
M  END
> <s_m_source_file>
../1ebw_ligand.sdf

> <i_m_source_file_index>
1

> <s_epik_input>
W2NIXTFbY0hdW2NIXVtjSF1bY0hdYzFbQ0gyXU9bQ0BASF0oQyg9TylbTkhdW0NAQEhdKFtDQEBIXShbQ0gzXSlbQ0gyXVtDSDNdKUMoPU8pW05IXVtDSDNdKVtDQEhdKFtPSF0pW0NAQEhdKFtPSF0pW0NASF0oQyg9TylbTkhdW0NAQEhdKFtDQEBIXShbQ0gzXSlbQ0gyXVtDSDNdKUMoPU8pW05IXVtDSDNdKU9bQ0gyXUMyPVtDSF1bQ0gyXVtDSF09W0NIXVtDSDJdMg==

> <s_epik_cmdline>
J2VwaWtfYXBwJywgJy1pbWFlJywgJ2xpZ2FuZF9wcm8ubWFlJywgJy1vbWFlJywgJ2xpZ2FuZF9wcmVwLm1hZScsICctbXMnLCAnMScsICctcGgnLCAnNycsICctcGh0JywgJzAuNScsICctbnQn

> <r_lp_tautomer_probability>
1

> <r_epik_Ionization_Penalty>
  0.0000

> <r_epik_Ionization_Penalty_Charging>
  0.0000

> <r_epik_Ionization_Penalty_Neutral>
  0.0000

> <r_epik_State_Penalty>
 -0.0000

> <r_epik_Charging_Adjusted_Penalty>
0

> <i_epik_Tot_Q>
0

> <i_epik_Tot_abs_Q>
0

$$$$
