1ec2_ligand
                    3D
 Schrodinger Suite 2020-3.
108111  0  0  1  0            999 V2000
    9.8350   24.3970    2.0850 C   0  0  0  0  0  0
    9.0400   25.5490    1.8790 C   0  0  0  0  0  0
    7.6350   25.5010    2.1390 C   0  0  0  0  0  0
    7.0070   24.2790    2.6150 C   0  0  0  0  0  0
    7.8510   23.1160    2.8180 C   0  0  0  0  0  0
    9.2480   23.1570    2.5610 C   0  0  0  0  0  0
   16.2970   22.4930    8.5540 C   0  0  0  0  0  0
   15.4530   21.6030    9.3310 C   0  0  0  0  0  0
   16.0100   20.4270    9.9300 C   0  0  0  0  0  0
   17.4170   20.1230    9.7610 C   0  0  0  0  0  0
   18.2510   21.0280    8.9770 C   0  0  0  0  0  0
   17.6990   22.2110    8.3720 C   0  0  0  0  0  0
   15.6680   23.7080    7.9250 C   0  0  0  0  0  0
   14.6010   23.3140    7.0070 O   0  0  0  0  0  0
   15.0840   22.8600    5.7300 C   0  0  2  0  0  0
   14.1220   23.2450    4.6160 C   0  0  1  0  0  0
   13.7150   24.6950    4.6870 C   0  0  2  0  0  0
   12.3440   24.9260    4.0130 C   0  0  2  0  0  0
   11.2200   24.8260    5.0650 C   0  0  0  0  0  0
   10.9830   23.7560    5.6420 O   0  0  0  0  0  0
   10.4910   25.9920    5.3170 N   0  0  0  0  0  0
    9.3480   26.1620    6.2850 C   0  0  1  0  0  0
    9.8180   26.8320    7.6460 C   0  0  0  0  0  0
   10.9390   26.0460    8.3940 C   0  0  0  0  0  0
    8.6680   27.1000    8.6580 C   0  0  0  0  0  0
    8.6030   27.1150    5.5900 C   0  0  0  0  0  0
    8.6960   28.1420    5.0140 O   0  0  0  0  0  0
    6.9870   26.6440    5.5530 N   0  0  0  0  0  0
    5.9540   27.4430    4.8940 C   0  0  0  0  0  0
   12.0750   23.9730    2.9180 O   0  0  0  0  0  0
   11.3040   24.4670    1.8160 C   0  0  0  0  0  0
   14.8340   25.4480    4.2200 O   0  0  0  0  0  0
   14.6510   22.9140    3.3160 O   0  0  0  0  0  0
   15.2240   21.3620    5.6540 C   0  0  0  0  0  0
   14.2940   20.6580    6.0570 O   0  0  0  0  0  0
   16.4240   20.8990    5.1360 N   0  0  0  0  0  0
   16.7750   19.4880    4.9810 C   0  0  1  0  0  0
   16.8160   19.0540    3.4640 C   0  0  0  0  0  0
   17.2550   17.5640    3.2430 C   0  0  0  0  0  0
   15.4900   19.3210    2.7410 C   0  0  0  0  0  0
   18.1920   19.3440    5.5570 C   0  0  0  0  0  0
   19.1180   20.0830    5.1640 O   0  0  0  0  0  0
   18.3310   18.3470    6.5160 N   0  0  0  0  0  0
   19.6240   18.1270    7.1140 C   0  0  0  0  0  0
    5.5060   24.2090    2.8920 C   0  0  0  0  0  0
    4.9050   23.4540    3.9650 C   0  0  0  0  0  0
    3.4730   23.4390    4.1530 C   0  0  0  0  0  0
    2.6850   24.2050    3.2270 C   0  0  0  0  0  0
    3.2170   24.9420    2.1850 N   0  0  0  0  0  0
    4.5770   24.9320    2.0390 C   0  0  0  0  0  0
   18.0040   18.8830   10.3930 C   0  0  0  0  0  0
   17.2650   17.6460   10.5600 C   0  0  0  0  0  0
   17.8750   16.4930   11.1740 C   0  0  0  0  0  0
   19.2290   16.6340   11.6020 C   0  0  0  0  0  0
   19.9660   17.8000   11.4570 N   0  0  0  0  0  0
   19.3620   18.8760   10.8730 C   0  0  0  0  0  0
    9.4980   26.4717    1.5226 H   0  0  0  0  0  0
    7.0271   26.3914    1.9784 H   0  0  0  0  0  0
    7.4028   22.1892    3.1760 H   0  0  0  0  0  0
    9.8675   22.2740    2.7182 H   0  0  0  0  0  0
   14.3945   21.8299    9.4586 H   0  0  0  0  0  0
   15.3751   19.7602   10.5134 H   0  0  0  0  0  0
   19.3099   20.8041    8.8475 H   0  0  0  0  0  0
   18.3289   22.8813    7.7872 H   0  0  0  0  0  0
   15.2443   24.3501    8.7112 H   0  0  0  0  0  0
   16.4318   24.2685    7.3660 H   0  0  0  0  0  0
   16.0642   23.3550    5.6647 H   0  0  0  0  0  0
   13.2147   22.6306    4.7123 H   0  0  0  0  0  0
   13.5846   25.0870    5.7065 H   0  0  0  0  0  0
   12.3609   25.9131    3.5279 H   0  0  0  0  0  0
   10.8332   26.8463    4.7145 H   0  0  0  0  0  0
    8.7926   25.2324    6.4782 H   0  0  0  0  0  0
   10.2249   27.8008    7.3206 H   0  0  0  0  0  0
   11.7684   25.8416    7.7009 H   0  0  0  0  0  0
   10.5322   25.0955    8.7695 H   0  0  0  0  0  0
   11.3067   26.6468    9.2389 H   0  0  0  0  0  0
    7.8607   27.6546    8.1572 H   0  0  0  0  0  0
    9.0522   27.6931    9.5009 H   0  0  0  0  0  0
    8.2777   26.1418    9.0316 H   0  0  0  0  0  0
    6.7191   25.6987    6.0477 H   0  0  0  0  0  0
    4.9806   26.9413    4.9976 H   0  0  0  0  0  0
    6.1991   27.5511    3.8271 H   0  0  0  0  0  0
    5.9056   28.4374    5.3617 H   0  0  0  0  0  0
   11.5437   23.8611    0.9298 H   0  0  0  0  0  0
   11.5942   25.5124    1.6348 H   0  0  0  0  0  0
   15.8231   25.3058    4.6798 H   0  0  0  0  0  0
   14.9928   21.8898    3.1058 H   0  0  0  0  0  0
   17.1365   21.6797    4.8313 H   0  0  0  0  0  0
   16.0105   18.9127    5.5238 H   0  0  0  0  0  0
   17.5743   19.6987    2.9958 H   0  0  0  0  0  0
   18.2061   17.3808    3.7643 H   0  0  0  0  0  0
   17.3844   17.3757    2.1670 H   0  0  0  0  0  0
   16.4822   16.8909    3.6427 H   0  0  0  0  0  0
   15.1894   20.3670    2.9008 H   0  0  0  0  0  0
   14.7137   18.6514    3.1397 H   0  0  0  0  0  0
   15.6159   19.1361    1.6640 H   0  0  0  0  0  0
   17.4723   17.7303    6.8200 H   0  0  0  0  0  0
   19.5552   17.3083    7.8455 H   0  0  0  0  0  0
   19.9543   19.0453    7.6215 H   0  0  0  0  0  0
   20.3492   17.8595    6.3314 H   0  0  0  0  0  0
    5.5414   22.8864    4.6439 H   0  0  0  0  0  0
    3.0107   22.8721    4.9611 H   0  0  0  0  0  0
    1.6024   24.2050    3.3537 H   0  0  0  0  0  0
    4.9977   25.5123    1.2178 H   0  0  0  0  0  0
   16.2324   17.5873   10.2159 H   0  0  0  0  0  0
   17.3285   15.5590   11.3049 H   0  0  0  0  0  0
   19.7118   15.7760   12.0698 H   0  0  0  0  0  0
   19.9458   19.7899   10.7627 H   0  0  0  0  0  0
  1  2  2  0  0  0
  1  6  1  0  0  0
  1 31  1  0  0  0
  2  3  1  0  0  0
  2 57  1  0  0  0
  3  4  2  0  0  0
  3 58  1  0  0  0
  4  5  1  0  0  0
  4 45  1  0  0  0
  5  6  2  0  0  0
  5 59  1  0  0  0
  6 60  1  0  0  0
  7  8  2  0  0  0
  7 12  1  0  0  0
  7 13  1  0  0  0
  8  9  1  0  0  0
  8 61  1  0  0  0
  9 10  2  0  0  0
  9 62  1  0  0  0
 10 11  1  0  0  0
 10 51  1  0  0  0
 11 12  2  0  0  0
 11 63  1  0  0  0
 12 64  1  0  0  0
 13 14  1  0  0  0
 13 65  1  0  0  0
 13 66  1  0  0  0
 14 15  1  0  0  0
 15 16  1  0  0  0
 15 34  1  0  0  0
 15 67  1  0  0  0
 16 17  1  0  0  0
 16 33  1  0  0  0
 16 68  1  0  0  0
 17 18  1  0  0  0
 17 32  1  0  0  0
 17 69  1  0  0  0
 18 19  1  0  0  0
 18 30  1  0  0  0
 18 70  1  0  0  0
 19 20  2  0  0  0
 19 21  1  0  0  0
 21 22  1  0  0  0
 21 71  1  0  0  0
 22 23  1  0  0  0
 22 26  1  0  0  0
 22 72  1  0  0  0
 23 24  1  0  0  0
 23 25  1  0  0  0
 23 73  1  0  0  0
 24 74  1  0  0  0
 24 75  1  0  0  0
 24 76  1  0  0  0
 25 77  1  0  0  0
 25 78  1  0  0  0
 25 79  1  0  0  0
 26 27  2  0  0  0
 26 28  1  0  0  0
 28 29  1  0  0  0
 28 80  1  0  0  0
 29 81  1  0  0  0
 29 82  1  0  0  0
 29 83  1  0  0  0
 30 31  1  0  0  0
 31 84  1  0  0  0
 31 85  1  0  0  0
 32 86  1  0  0  0
 33 87  1  0  0  0
 34 35  2  0  0  0
 34 36  1  0  0  0
 36 37  1  0  0  0
 36 88  1  0  0  0
 37 38  1  0  0  0
 37 41  1  0  0  0
 37 89  1  0  0  0
 38 39  1  0  0  0
 38 40  1  0  0  0
 38 90  1  0  0  0
 39 91  1  0  0  0
 39 92  1  0  0  0
 39 93  1  0  0  0
 40 94  1  0  0  0
 40 95  1  0  0  0
 40 96  1  0  0  0
 41 42  2  0  0  0
 41 43  1  0  0  0
 43 44  1  0  0  0
 43 97  1  0  0  0
 44 98  1  0  0  0
 44 99  1  0  0  0
 44100  1  0  0  0
 45 46  2  0  0  0
 45 50  1  0  0  0
 46 47  1  0  0  0
 46101  1  0  0  0
 47 48  2  0  0  0
 47102  1  0  0  0
 48 49  1  0  0  0
 48103  1  0  0  0
 49 50  2  0  0  0
 50104  1  0  0  0
 51 52  2  0  0  0
 51 56  1  0  0  0
 52 53  1  0  0  0
 52105  1  0  0  0
 53 54  2  0  0  0
 53106  1  0  0  0
 54 55  1  0  0  0
 54107  1  0  0  0
 55 56  2  0  0  0
 56108  1  0  0  0
M  END
> <s_m_source_file>
../1ec2_ligand.sdf

> <i_m_source_file_index>
1

> <s_epik_input>
W2NIXTFuW2NIXVtjSF1bY0hdYzEtYyhbY0hdW2NIXTIpW2NIXVtjSF1jMltDSDJdT1tDQEBIXShDKD1PKVtOSF1bQ0BASF0oW0NIXShbQ0gzXSlbQ0gzXSlDKD1PKVtOSF1bQ0gzXSlbQ0BIXShbT0hdKVtDQEBIXShbT0hdKVtDQEhdKEMoPU8pW05IXVtDQEBIXShbQ0hdKFtDSDNdKVtDSDNdKUMoPU8pW05IXVtDSDNdKU9bQ0gyXWMzW2NIXVtjSF1jKFtjSF1bY0hdMyktYzRbY0hdW2NIXVtjSF1uW2NIXTQ=

> <s_epik_cmdline>
J2VwaWtfYXBwJywgJy1pbWFlJywgJ2xpZ2FuZF9wcm8ubWFlJywgJy1vbWFlJywgJ2xpZ2FuZF9wcmVwLm1hZScsICctbXMnLCAnMScsICctcGgnLCAnNycsICctcGh0JywgJzAuNScsICctbnQn

> <r_epik_Ionization_Penalty>
  0.0114

> <r_epik_Ionization_Penalty_Charging>
  0.0000

> <r_epik_Ionization_Penalty_Neutral>
  0.0114

> <r_epik_State_Penalty>
  0.0088

> <r_epik_Charging_Adjusted_Penalty>
0.00875144456896581

> <i_epik_Tot_Q>
0

> <i_epik_Tot_abs_Q>
0

$$$$
