1ecv_ligand
                    3D
 Schrodinger Suite 2020-3.
 20 20  0  0  1  0            999 V2000
   12.5800   45.0950   19.1910 C   0  0  0  0  0  0
   11.6470   45.7120   20.0210 C   0  0  0  0  0  0
   10.3050   45.6960   19.6290 C   0  0  0  0  0  0
    9.9240   45.1170   18.4090 C   0  0  0  0  0  0
   10.8440   44.4610   17.6030 C   0  0  0  0  0  0
   12.1690   44.4310   18.0190 C   0  0  0  0  0  0
    8.4990   45.1420   17.9810 C   0  0  0  0  0  0
    7.5840   45.2690   18.7380 O   0  0  0  0  0  0
    8.2750   44.9050   16.6860 O   0  5  0  0  0  0
    9.3060   46.1420   20.4340 N   0  0  0  0  0  0
    9.3470   46.8630   21.5730 C   0  0  0  0  0  0
   10.3890   47.1340   22.1730 O   0  0  0  0  0  0
    7.9330   47.2600   22.1520 C   0  0  0  0  0  0
    6.9810   46.5360   22.1490 O   0  0  0  0  0  0
    7.8610   48.4170   22.7810 O   0  5  0  0  0  0
   13.5490   43.3360   16.8780 I   0  0  0  0  0  0
   13.6381   45.1264   19.4510 H   0  0  0  0  0  0
   11.9542   46.1935   20.9494 H   0  0  0  0  0  0
   10.5363   43.9841   16.6724 H   0  0  0  0  0  0
    8.2580   45.9198   20.1845 H   0  0  0  0  0  0
  1  6  2  0  0  0
  1  2  1  0  0  0
  1 17  1  0  0  0
  2  3  2  0  0  0
  2 18  1  0  0  0
  3 10  1  0  0  0
  3  4  1  0  0  0
  4  7  1  0  0  0
  4  5  2  0  0  0
  5  6  1  0  0  0
  5 19  1  0  0  0
  6 16  1  0  0  0
  7  9  1  0  0  0
  7  8  2  0  0  0
 10 11  1  0  0  0
 10 20  1  0  0  0
 11 13  1  0  0  0
 11 12  2  0  0  0
 13 15  1  0  0  0
 13 14  2  0  0  0
M  CHG  2   9  -1  15  -1
M  END
> <s_m_source_file>
../1ecv_ligand.sdf

> <i_m_source_file_index>
1

> <s_epik_input>
Tz1DKFtPSF0pYzFbY0hdYyhJKVtjSF1bY0hdYzFbTkhdQyg9TylDKD1PKVtPSF0=

> <s_epik_cmdline>
J2VwaWtfYXBwJywgJy1pbWFlJywgJ2xpZ2FuZF9wcm8ubWFlJywgJy1vbWFlJywgJ2xpZ2FuZF9wcmVwLm1hZScsICctbXMnLCAnMScsICctcGgnLCAnNycsICctcGh0JywgJzAuNScsICctbnQn

> <r_lp_tautomer_probability>
1

> <r_epik_Ionization_Penalty>
  0.0013

> <r_epik_Ionization_Penalty_Charging>
  0.0003

> <r_epik_Ionization_Penalty_Neutral>
  0.0010

> <r_epik_State_Penalty>
 -0.0000

> <r_epik_Charging_Adjusted_Penalty>
0.000277989899200573

> <i_epik_Tot_Q>
-2

> <i_epik_Tot_abs_Q>
2

$$$$
