1eed_ligand
                    3D
 Schrodinger Suite 2020-3.
 99100  0  0  1  0            999 V2000
    2.1180   27.1890   20.3310 O   0  0  0  0  0  0
    2.6590   26.4090   19.4870 C   0  0  0  0  0  0
    2.2040   25.0180   19.3660 O   0  0  0  0  0  0
    1.3620   24.3570   20.3580 C   0  0  0  0  0  0
    0.1070   25.1870   20.6420 C   0  0  0  0  0  0
    2.1620   24.1560   21.6470 C   0  0  0  0  0  0
    0.9730   22.9710   19.8170 C   0  0  0  0  0  0
    3.4060   32.1580   15.8780 C   0  0  0  0  0  0
    3.0450   33.1230   16.5620 O   0  0  0  0  0  0
    2.7790   30.7700   16.1010 C   0  0  0  0  0  0
    3.2570   30.1720   17.4450 C   0  0  0  0  0  0
    3.8500   28.7740   17.2040 C   0  0  2  0  0  0
    2.8660   27.9860   16.5620 O   0  0  0  0  0  0
    4.2950   28.0940   18.5170 C   0  0  1  0  0  0
    3.6650   26.7350   18.6380 N   0  0  0  0  0  0
    5.8330   27.9980   18.4050 C   0  0  0  0  0  0
    6.5580   27.5970   19.6950 C   0  0  0  0  0  0
    5.8880   26.8690   20.6830 C   0  0  0  0  0  0
    7.9030   27.9550   19.8770 C   0  0  0  0  0  0
    6.5620   26.4920   21.8510 C   0  0  0  0  0  0
    8.5770   27.5760   21.0440 C   0  0  0  0  0  0
    7.9060   26.8450   22.0310 C   0  0  0  0  0  0
    4.3240   32.2220   14.9150 N   0  0  0  0  0  0
    5.0780   33.4630   14.6120 C   0  0  1  0  0  0
    6.5750   33.2520   14.9320 C   0  0  0  0  0  0
    6.8280   32.5940   16.3040 C   0  0  0  0  0  0
    6.3260   33.5220   17.4150 C   0  0  0  0  0  0
    8.2110   32.3510   16.4950 C   0  0  0  0  0  0
    6.5210   32.8820   18.7930 C   0  0  0  0  0  0
    8.4670   31.6490   17.8380 C   0  0  0  0  0  0
    7.9890   32.5210   18.9980 C   0  0  0  0  0  0
    4.9610   33.8490   13.1280 C   0  0  1  0  0  0
    5.3820   32.7690   12.3130 O   0  0  0  0  0  0
    3.5150   34.2070   12.7690 C   0  0  0  0  0  0
    3.2000   35.6310   13.2290 C   0  0  0  0  0  0
    2.9290   35.8620   14.4140 O   0  0  0  0  0  0
    3.4250   36.6090   12.3300 N   0  0  0  0  0  0
    3.2460   38.0170   12.6820 C   0  0  2  0  0  0
    1.7700   38.2940   12.9820 C   0  0  0  0  0  0
    0.8940   38.0090   12.1660 O   0  0  0  0  0  0
    3.7010   38.8890   11.5240 C   0  0  0  0  0  0
    3.5780   40.3810   11.8720 C   0  0  0  0  0  0
    4.1390   40.7330   13.1560 C   0  0  0  0  0  0
    3.9130   41.3670   10.7810 C   0  0  0  0  0  0
    1.3890   38.8490   14.1050 O   0  5  0  0  0  0
    0.4001   26.1745   21.0279 H   0  0  0  0  0  0
   -0.5128   24.6704   21.3896 H   0  0  0  0  0  0
   -0.4678   25.3123   19.7125 H   0  0  0  0  0  0
    2.4527   25.1355   22.0546 H   0  0  0  0  0  0
    3.0650   23.5665   21.4299 H   0  0  0  0  0  0
    1.5433   23.6216   22.3829 H   0  0  0  0  0  0
    0.3956   23.0888   18.8882 H   0  0  0  0  0  0
    0.3618   22.4440   20.5644 H   0  0  0  0  0  0
    1.8834   22.3889   19.6114 H   0  0  0  0  0  0
    1.6830   30.8614   16.1193 H   0  0  0  0  0  0
    3.0772   30.0973   15.2834 H   0  0  0  0  0  0
    4.0257   30.8249   17.8841 H   0  0  0  0  0  0
    2.4043   30.0938   18.1355 H   0  0  0  0  0  0
    4.7056   28.8269   16.5147 H   0  0  0  0  0  0
    2.4318   28.3184   15.6076 H   0  0  0  0  0  0
    3.9739   28.6315   19.4214 H   0  0  0  0  0  0
    4.0176   25.9070   18.0054 H   0  0  0  0  0  0
    6.0993   27.2445   17.6492 H   0  0  0  0  0  0
    6.2407   28.9754   18.1077 H   0  0  0  0  0  0
    4.8421   26.5952   20.5441 H   0  0  0  0  0  0
    8.4228   28.5283   19.1094 H   0  0  0  0  0  0
    6.0406   25.9233   22.6210 H   0  0  0  0  0  0
    9.6228   27.8498   21.1837 H   0  0  0  0  0  0
    8.4294   26.5500   22.9405 H   0  0  0  0  0  0
    4.5142   31.3073   14.3344 H   0  0  0  0  0  0
    4.6209   34.2414   15.2407 H   0  0  0  0  0  0
    7.0250   32.6008   14.1682 H   0  0  0  0  0  0
    7.0900   34.2240   14.9347 H   0  0  0  0  0  0
    6.3626   31.5987   16.3559 H   0  0  0  0  0  0
    6.8855   34.4685   17.3828 H   0  0  0  0  0  0
    5.2548   33.7241   17.2678 H   0  0  0  0  0  0
    8.5858   31.7088   15.6844 H   0  0  0  0  0  0
    8.7557   33.3066   16.4872 H   0  0  0  0  0  0
    6.2105   33.5916   19.5741 H   0  0  0  0  0  0
    5.9109   31.9694   18.8631 H   0  0  0  0  0  0
    7.9228   30.6934   17.8618 H   0  0  0  0  0  0
    9.5445   31.4603   17.9536 H   0  0  0  0  0  0
    8.5908   33.4409   19.0369 H   0  0  0  0  0  0
    8.1023   31.9685   19.9424 H   0  0  0  0  0  0
    5.6425   34.6806   12.8953 H   0  0  0  0  0  0
    6.3987   32.3630   12.4200 H   0  0  0  0  0  0
    3.3805   34.1403   11.6793 H   0  0  0  0  0  0
    2.8292   33.5056   13.2667 H   0  0  0  0  0  0
    3.7489   36.3325   11.3158 H   0  0  0  0  0  0
    3.8648   38.2074   13.5713 H   0  0  0  0  0  0
    4.7529   38.6682   11.2900 H   0  0  0  0  0  0
    3.0778   38.6814   10.6417 H   0  0  0  0  0  0
    2.5024   40.5435   12.0356 H   0  0  0  0  0  0
    3.8560   39.9741   13.9003 H   0  0  0  0  0  0
    3.7529   41.7146   13.4681 H   0  0  0  0  0  0
    5.2352   40.7783   13.0772 H   0  0  0  0  0  0
    3.4558   41.0378    9.8362 H   0  0  0  0  0  0
    5.0049   41.4230   10.6601 H   0  0  0  0  0  0
    3.5226   42.3593   11.0511 H   0  0  0  0  0  0
  1  2  2  0  0  0
  2  3  1  0  0  0
  2 15  1  0  0  0
  3  4  1  0  0  0
  4  5  1  0  0  0
  4  6  1  0  0  0
  4  7  1  0  0  0
  5 46  1  0  0  0
  5 47  1  0  0  0
  5 48  1  0  0  0
  6 49  1  0  0  0
  6 50  1  0  0  0
  6 51  1  0  0  0
  7 52  1  0  0  0
  7 53  1  0  0  0
  7 54  1  0  0  0
  8  9  2  0  0  0
  8 10  1  0  0  0
  8 23  1  0  0  0
 10 11  1  0  0  0
 10 55  1  0  0  0
 10 56  1  0  0  0
 11 12  1  0  0  0
 11 57  1  0  0  0
 11 58  1  0  0  0
 12 13  1  0  0  0
 12 14  1  0  0  0
 12 59  1  0  0  0
 13 60  1  0  0  0
 14 15  1  0  0  0
 14 16  1  0  0  0
 14 61  1  0  0  0
 15 62  1  0  0  0
 16 17  1  0  0  0
 16 63  1  0  0  0
 16 64  1  0  0  0
 17 18  2  0  0  0
 17 19  1  0  0  0
 18 20  1  0  0  0
 18 65  1  0  0  0
 19 21  2  0  0  0
 19 66  1  0  0  0
 20 22  2  0  0  0
 20 67  1  0  0  0
 21 22  1  0  0  0
 21 68  1  0  0  0
 22 69  1  0  0  0
 23 24  1  0  0  0
 23 70  1  0  0  0
 24 25  1  0  0  0
 24 32  1  0  0  0
 24 71  1  0  0  0
 25 26  1  0  0  0
 25 72  1  0  0  0
 25 73  1  0  0  0
 26 27  1  0  0  0
 26 28  1  0  0  0
 26 74  1  0  0  0
 27 29  1  0  0  0
 27 75  1  0  0  0
 27 76  1  0  0  0
 28 30  1  0  0  0
 28 77  1  0  0  0
 28 78  1  0  0  0
 29 31  1  0  0  0
 29 79  1  0  0  0
 29 80  1  0  0  0
 30 31  1  0  0  0
 30 81  1  0  0  0
 30 82  1  0  0  0
 31 83  1  0  0  0
 31 84  1  0  0  0
 32 33  1  0  0  0
 32 34  1  0  0  0
 32 85  1  0  0  0
 33 86  1  0  0  0
 34 35  1  0  0  0
 34 87  1  0  0  0
 34 88  1  0  0  0
 35 36  2  0  0  0
 35 37  1  0  0  0
 37 38  1  0  0  0
 37 89  1  0  0  0
 38 41  1  0  0  0
 38 39  1  0  0  0
 38 90  1  0  0  0
 39 40  2  0  0  0
 39 45  1  0  0  0
 41 42  1  0  0  0
 41 91  1  0  0  0
 41 92  1  0  0  0
 42 43  1  0  0  0
 42 44  1  0  0  0
 42 93  1  0  0  0
 43 94  1  0  0  0
 43 95  1  0  0  0
 43 96  1  0  0  0
 44 97  1  0  0  0
 44 98  1  0  0  0
 44 99  1  0  0  0
M  CHG  1  45  -1
M  END
> <s_m_source_file>
../1eed_ligand.sdf

> <i_m_source_file_index>
1

> <s_epik_input>
W2NIXTFbY0hdW2NIXVtjSF1bY0hdYzFbQ0gyXVtDQEhdKFtOSF1DKD1PKU9DKFtDSDNdKShbQ0gzXSlbQ0gzXSlbQ0BASF0oW09IXSlbQ0gyXVtDSDJdQyg9TylbTkhdW0NAQEhdKFtDSDJdW0NIXTJbQ0gyXVtDSDJdW0NIMl1bQ0gyXVtDSDJdMilbQ0BASF0oW09IXSlbQ0gyXUMoPU8pW05IXVtDQEhdKEMoPU8pW09IXSlbQ0gyXVtDSF0oW0NIM10pW0NIM10=

> <s_epik_cmdline>
J2VwaWtfYXBwJywgJy1pbWFlJywgJ2xpZ2FuZF9wcm8ubWFlJywgJy1vbWFlJywgJ2xpZ2FuZF9wcmVwLm1hZScsICctbXMnLCAnMScsICctcGgnLCAnNycsICctcGh0JywgJzAuNScsICctbnQn

> <r_lp_tautomer_probability>
1

> <r_epik_Ionization_Penalty>
  0.0002

> <r_epik_Ionization_Penalty_Charging>
  0.0002

> <r_epik_Ionization_Penalty_Neutral>
  0.0000

> <r_epik_State_Penalty>
 -0.0000

> <r_epik_Charging_Adjusted_Penalty>
0.000239446167991465

> <i_epik_Tot_Q>
-1

> <i_epik_Tot_abs_Q>
1

> <s_epik_Chemistry_Notes>
This compound has an ester and may undergo hydrolysis at high or low pH.

$$$$
