1eef_ligand
                    3D
 Schrodinger Suite 2020-3.
 55 58  0  0  1  0            999 V2000
   20.7670   19.8500   39.3330 C   0  0  1  0  0  0
   19.9050   21.0200   38.8730 C   0  0  1  0  0  0
   18.4480   20.6560   38.7970 C   0  0  2  0  0  0
   18.2490   19.4050   38.0070 C   0  0  2  0  0  0
   19.0560   18.2800   38.5740 C   0  0  1  0  0  0
   18.9460   17.0210   37.7210 C   0  0  0  0  0  0
   20.4890   19.6890   40.7420 O   0  0  0  0  0  0
   20.0050   22.1110   39.7720 O   0  0  0  0  0  0
   17.7320   21.7440   38.1960 O   0  0  0  0  0  0
   18.6730   19.6850   36.6430 O   0  0  0  0  0  0
   20.4410   18.6390   38.5990 O   0  0  0  0  0  0
   19.5270   15.9940   38.4870 O   0  0  0  0  0  0
   21.3510   19.0350   41.5780 C   0  0  0  0  0  0
   20.9270   17.8980   42.2310 C   0  0  0  0  0  0
   21.8200   17.1970   43.0390 C   0  0  0  0  0  0
   23.1370   17.6550   43.2020 C   0  0  0  0  0  0
   23.5540   18.8080   42.5260 C   0  0  0  0  0  0
   22.6640   19.4960   41.7230 C   0  0  0  0  0  0
   21.3610   15.9830   43.7130 C   0  0  0  0  0  0
   20.2450   15.5170   43.6010 O   0  0  0  0  0  0
   22.2490   15.3720   44.4510 N   0  0  0  0  0  0
   23.5790   15.7980   44.6400 N   0  0  0  0  0  0
   24.0950   16.8920   44.0470 C   0  0  0  0  0  0
   25.2680   17.2080   44.2210 O   0  5  0  0  0  0
   21.9340   14.2750   45.3330 C   0  0  0  0  0  0
   21.9430   13.0730   44.4380 C   0  0  0  0  0  0
   23.1260   13.0580   43.5200 C   0  0  0  0  0  0
   24.3650   12.6190   43.9910 C   0  0  0  0  0  0
   23.0440   13.6200   42.2410 C   0  0  0  0  0  0
   25.5020   12.7410   43.2230 C   0  0  0  0  0  0
   24.1840   13.7550   41.4470 C   0  0  0  0  0  0
   25.4150   13.3190   41.9330 C   0  0  0  0  0  0
   21.8454   19.9986   39.1748 H   0  0  0  0  0  0
   20.2819   21.3573   37.8962 H   0  0  0  0  0  0
   18.0329   20.5021   39.8040 H   0  0  0  0  0  0
   17.1908   19.1046   38.0122 H   0  0  0  0  0  0
   18.7102   18.1137   39.6049 H   0  0  0  0  0  0
   17.8868   16.8131   37.5090 H   0  0  0  0  0  0
   19.4868   17.1707   36.7749 H   0  0  0  0  0  0
   20.9872   22.5556   39.9903 H   0  0  0  0  0  0
   17.7690   22.7448   38.6510 H   0  0  0  0  0  0
   18.1850   20.4864   36.0689 H   0  0  0  0  0  0
   19.5732   14.9697   38.0887 H   0  0  0  0  0  0
   19.9006   17.5495   42.1163 H   0  0  0  0  0  0
   24.5792   19.1626   42.6329 H   0  0  0  0  0  0
   22.9852   20.3982   41.2024 H   0  0  0  0  0  0
   22.6970   14.2086   46.1225 H   0  0  0  0  0  0
   20.9475   14.4433   45.7897 H   0  0  0  0  0  0
   21.9752   12.1600   45.0506 H   0  0  0  0  0  0
   21.0324   13.0685   43.8209 H   0  0  0  0  0  0
   24.4336   12.1723   44.9829 H   0  0  0  0  0  0
   22.0793   13.9560   41.8607 H   0  0  0  0  0  0
   26.4622   12.3950   43.6056 H   0  0  0  0  0  0
   24.1118   14.1983   40.4538 H   0  0  0  0  0  0
   26.3107   13.4228   41.3205 H   0  0  0  0  0  0
  1  2  1  0  0  0
  1  7  1  0  0  0
  1 11  1  0  0  0
  1 33  1  0  0  0
  2  3  1  0  0  0
  2  8  1  0  0  0
  2 34  1  0  0  0
  3  4  1  0  0  0
  3  9  1  0  0  0
  3 35  1  0  0  0
  4  5  1  0  0  0
  4 10  1  0  0  0
  4 36  1  0  0  0
  5  6  1  0  0  0
  5 11  1  0  0  0
  5 37  1  0  0  0
  6 12  1  0  0  0
  6 38  1  0  0  0
  6 39  1  0  0  0
  7 13  1  0  0  0
  8 40  1  0  0  0
  9 41  1  0  0  0
 10 42  1  0  0  0
 12 43  1  0  0  0
 13 14  2  0  0  0
 13 18  1  0  0  0
 14 15  1  0  0  0
 14 44  1  0  0  0
 15 16  2  0  0  0
 15 19  1  0  0  0
 16 17  1  0  0  0
 16 23  1  0  0  0
 17 18  2  0  0  0
 17 45  1  0  0  0
 18 46  1  0  0  0
 19 20  2  0  0  0
 19 21  1  0  0  0
 21 22  1  0  0  0
 21 25  1  0  0  0
 22 23  2  0  0  0
 23 24  1  0  0  0
 25 26  1  0  0  0
 25 47  1  0  0  0
 25 48  1  0  0  0
 26 27  1  0  0  0
 26 49  1  0  0  0
 26 50  1  0  0  0
 27 28  2  0  0  0
 27 29  1  0  0  0
 28 30  1  0  0  0
 28 51  1  0  0  0
 29 31  2  0  0  0
 29 52  1  0  0  0
 30 32  2  0  0  0
 30 53  1  0  0  0
 31 32  1  0  0  0
 31 54  1  0  0  0
 32 55  1  0  0  0
M  CHG  1  24  -1
M  END
> <s_m_source_file>
../1eef_ligand.sdf

> <i_m_source_file_index>
1

> <s_epik_input>
W09IXVtDSDJdW0NAQEhdKE8xKVtDQEhdKFtPSF0pW0NASF0oW09IXSlbQ0BASF0oW09IXSlbQ0BIXTFPYyhbY0hdMilbY0hdW2NIXWMoYzIzKWMoPU8pW25IXW4oYzM9TylbQ0gyXVtDSDJdYzRbY0hdW2NIXVtjSF1bY0hdW2NIXTQ=

> <s_epik_cmdline>
J2VwaWtfYXBwJywgJy1pbWFlJywgJ2xpZ2FuZF9wcm8ubWFlJywgJy1vbWFlJywgJ2xpZ2FuZF9wcmVwLm1hZScsICctbXMnLCAnMScsICctcGgnLCAnNycsICctcGh0JywgJzAuNScsICctbnQn

> <r_epik_Ionization_Penalty>
  0.0394

> <r_epik_Ionization_Penalty_Charging>
  0.0394

> <r_epik_Ionization_Penalty_Neutral>
  0.0000

> <r_epik_State_Penalty>
  0.0126

> <r_epik_Charging_Adjusted_Penalty>
0.0519830754872491

> <i_epik_Tot_Q>
-1

> <i_epik_Tot_abs_Q>
1

> <s_epik_Chemistry_Notes>
This compound contains an acetal/aminal-like group ( X-CH(R)-Y where X, Y are N, S, or O) that may be acid/base labile, releasing an aldehyde.

$$$$
