1eei_ligand
                    3D
 Schrodinger Suite 2020-3.
 36 37  0  0  1  0            999 V2000
   30.7160   12.9270   23.7880 C   0  0  1  0  0  0
   29.7840   12.4910   22.6700 C   0  0  1  0  0  0
   28.6690   13.5590   22.4870 C   0  0  2  0  0  0
   27.9330   13.7030   23.8070 C   0  0  2  0  0  0
   28.9400   14.1120   24.8350 C   0  0  1  0  0  0
   28.2100   14.1280   26.1070 C   0  0  0  0  0  0
   32.3190   14.7310   24.1690 C   0  0  0  0  0  0
   31.9220   15.5590   25.1870 C   0  0  0  0  0  0
   32.9050   16.1220   26.0110 C   0  0  0  0  0  0
   34.2730   15.8170   25.7550 C   0  0  0  0  0  0
   34.6330   14.9660   24.6960 C   0  0  0  0  0  0
   33.6370   14.4090   23.8810 C   0  0  0  0  0  0
   32.5140   17.0010   27.1130 N   0  3  0  0  0  0
   31.2920   14.1690   23.3400 O   0  0  0  0  0  0
   30.5540   12.4130   21.5440 O   0  0  0  0  0  0
   27.7490   13.3320   21.4380 O   0  0  0  0  0  0
   27.2950   12.4870   24.1700 O   0  0  0  0  0  0
   30.0060   13.1460   25.0030 O   0  0  0  0  0  0
   29.1170   14.7840   26.9310 O   0  0  0  0  0  0
   33.3610   17.5100   27.8780 O   0  0  0  0  0  0
   31.3020   17.2610   27.3350 O   0  5  0  0  0  0
   31.4875   12.1852   24.0420 H   0  0  0  0  0  0
   29.3685   11.4815   22.8052 H   0  0  0  0  0  0
   29.1097   14.4966   22.1172 H   0  0  0  0  0  0
   27.1002   14.4197   23.7535 H   0  0  0  0  0  0
   29.4099   15.0638   24.5465 H   0  0  0  0  0  0
   27.2625   14.6720   25.9792 H   0  0  0  0  0  0
   28.0002   13.0953   26.4224 H   0  0  0  0  0  0
   30.8662   15.7742   25.3514 H   0  0  0  0  0  0
   35.0489   16.2484   26.3874 H   0  0  0  0  0  0
   35.6827   14.7397   24.5088 H   0  0  0  0  0  0
   33.8892   13.7477   23.0521 H   0  0  0  0  0  0
   31.3940   11.7041   21.5001 H   0  0  0  0  0  0
   28.1109   13.2036   20.4072 H   0  0  0  0  0  0
   26.5259   12.0524   23.5145 H   0  0  0  0  0  0
   28.8693   14.9650   27.9873 H   0  0  0  0  0  0
  1 18  1  0  0  0
  1  2  1  0  0  0
  1 14  1  0  0  0
  1 22  1  0  0  0
  2  3  1  0  0  0
  2 15  1  0  0  0
  2 23  1  0  0  0
  3  4  1  0  0  0
  3 16  1  0  0  0
  3 24  1  0  0  0
  4  5  1  0  0  0
  4 17  1  0  0  0
  4 25  1  0  0  0
  5 18  1  0  0  0
  5  6  1  0  0  0
  5 26  1  0  0  0
  6 19  1  0  0  0
  6 27  1  0  0  0
  6 28  1  0  0  0
  7  8  2  0  0  0
  7 12  1  0  0  0
  7 14  1  0  0  0
  8  9  1  0  0  0
  8 29  1  0  0  0
  9 10  2  0  0  0
  9 13  1  0  0  0
 10 11  1  0  0  0
 10 30  1  0  0  0
 11 12  2  0  0  0
 11 31  1  0  0  0
 12 32  1  0  0  0
 13 20  2  0  0  0
 13 21  1  0  0  0
 15 33  1  0  0  0
 16 34  1  0  0  0
 17 35  1  0  0  0
 19 36  1  0  0  0
M  CHG  2  13   1  21  -1
M  END
> <s_m_source_file>
../1eei_ligand.sdf

> <i_m_source_file_index>
1

> <s_epik_input>
W09IXVtDSDJdW0NAQEhdKE8xKVtDQEhdKFtPSF0pW0NASF0oW09IXSlbQ0BASF0oW09IXSlbQ0BIXTFPYzJbY0hdYyhbTitdKD1PKVtPLV0pW2NIXVtjSF1bY0hdMg==

> <s_epik_cmdline>
J2VwaWtfYXBwJywgJy1pbWFlJywgJ2xpZ2FuZF9wcm8ubWFlJywgJy1vbWFlJywgJ2xpZ2FuZF9wcmVwLm1hZScsICctbXMnLCAnMScsICctcGgnLCAnNycsICctcGh0JywgJzAuNScsICctbnQn

> <r_lp_tautomer_probability>
1

> <r_epik_Ionization_Penalty>
  0.0000

> <r_epik_Ionization_Penalty_Charging>
  0.0000

> <r_epik_Ionization_Penalty_Neutral>
  0.0000

> <r_epik_State_Penalty>
 -0.0000

> <r_epik_Charging_Adjusted_Penalty>
0

> <i_epik_Tot_Q>
0

> <i_epik_Tot_abs_Q>
2

> <s_epik_Chemistry_Notes>
This compound contains an acetal/aminal-like group ( X-CH(R)-Y where X, Y are N, S, or O) that may be acid/base labile, releasing an aldehyde.

$$$$
