1efi_ligand
                    3D
 Schrodinger Suite 2020-3.
 36 37  0  0  1  0            999 V2000
  -20.1020   19.8870   14.9850 C   0  0  1  0  0  0
  -19.3160   21.0390   15.6030 C   0  0  1  0  0  0
  -17.8880   21.1030   15.1370 C   0  0  2  0  0  0
  -17.2380   19.7730   15.3920 C   0  0  2  0  0  0
  -18.0800   18.6550   14.7060 C   0  0  1  0  0  0
  -17.4690   17.2460   14.9760 C   0  0  0  0  0  0
  -21.1930   19.3240   12.8270 C   0  0  0  0  0  0
  -20.8270   18.2720   11.9820 C   0  0  0  0  0  0
  -21.7940   17.5520   11.2680 C   0  0  0  0  0  0
  -23.1490   17.8910   11.4030 C   0  0  0  0  0  0
  -23.5220   18.9330   12.2260 C   0  0  0  0  0  0
  -22.5430   19.6430   12.9380 C   0  0  0  0  0  0
  -24.1230   17.1540   10.7630 N   0  0  0  0  0  0
  -20.2140   20.0540   13.5620 O   0  0  0  0  0  0
  -19.9630   22.1910   15.0880 O   0  0  0  0  0  0
  -17.1120   22.1190   15.7530 O   0  0  0  0  0  0
  -17.1430   19.6060   16.7950 O   0  0  0  0  0  0
  -19.4400   18.6730   15.2300 O   0  0  0  0  0  0
  -18.3910   16.2450   14.5310 O   0  0  0  0  0  0
  -21.1138   19.8075   15.4091 H   0  0  0  0  0  0
  -19.3126   20.9950   16.7021 H   0  0  0  0  0  0
  -17.8864   21.4023   14.0785 H   0  0  0  0  0  0
  -16.1941   19.7394   15.0468 H   0  0  0  0  0  0
  -18.1478   18.8542   13.6263 H   0  0  0  0  0  0
  -16.5205   17.1465   14.4279 H   0  0  0  0  0  0
  -17.2839   17.1270   16.0538 H   0  0  0  0  0  0
  -19.7746   18.0082   11.8772 H   0  0  0  0  0  0
  -21.4958   16.7341   10.6121 H   0  0  0  0  0  0
  -24.5733   19.2040   12.3231 H   0  0  0  0  0  0
  -22.8462   20.4611   13.5913 H   0  0  0  0  0  0
  -23.8380   16.3205   10.1041 H   0  0  0  0  0  0
  -25.1849   17.3995   10.9114 H   0  0  0  0  0  0
  -21.0284   22.3643   15.2998 H   0  0  0  0  0  0
  -17.4251   23.1709   15.6794 H   0  0  0  0  0  0
  -16.5747   20.3297   17.3978 H   0  0  0  0  0  0
  -18.1392   15.1794   14.6365 H   0  0  0  0  0  0
  1  2  1  0  0  0
  1 14  1  0  0  0
  1 18  1  0  0  0
  1 20  1  0  0  0
  2  3  1  0  0  0
  2 15  1  0  0  0
  2 21  1  0  0  0
  3  4  1  0  0  0
  3 16  1  0  0  0
  3 22  1  0  0  0
  4  5  1  0  0  0
  4 17  1  0  0  0
  4 23  1  0  0  0
  5  6  1  0  0  0
  5 18  1  0  0  0
  5 24  1  0  0  0
  6 19  1  0  0  0
  6 25  1  0  0  0
  6 26  1  0  0  0
  7  8  2  0  0  0
  7 12  1  0  0  0
  7 14  1  0  0  0
  8  9  1  0  0  0
  8 27  1  0  0  0
  9 10  2  0  0  0
  9 28  1  0  0  0
 10 11  1  0  0  0
 10 13  1  0  0  0
 11 12  2  0  0  0
 11 29  1  0  0  0
 12 30  1  0  0  0
 13 31  1  0  0  0
 13 32  1  0  0  0
 15 33  1  0  0  0
 16 34  1  0  0  0
 17 35  1  0  0  0
 19 36  1  0  0  0
M  END
> <s_m_source_file>
../1efi_ligand.sdf

> <i_m_source_file_index>
1

> <s_epik_input>
W09IXVtDSDJdW0NAQEhdKE8xKVtDQEhdKFtPSF0pW0NASF0oW09IXSlbQ0BASF0oW09IXSlbQ0BIXTFPYzJbY0hdW2NIXWMoW05IMl0pW2NIXVtjSF0y

> <s_epik_cmdline>
J2VwaWtfYXBwJywgJy1pbWFlJywgJ2xpZ2FuZF9wcm8ubWFlJywgJy1vbWFlJywgJ2xpZ2FuZF9wcmVwLm1hZScsICctbXMnLCAnMScsICctcGgnLCAnNycsICctcGh0JywgJzAuNScsICctbnQn

> <r_epik_Ionization_Penalty>
  0.0585

> <r_epik_Ionization_Penalty_Charging>
  0.0000

> <r_epik_Ionization_Penalty_Neutral>
  0.0585

> <r_epik_State_Penalty>
  0.0506

> <r_epik_Charging_Adjusted_Penalty>
0.0505898956657481

> <i_epik_Tot_Q>
0

> <i_epik_Tot_abs_Q>
0

> <s_epik_Chemistry_Notes>
This compound contains an acetal/aminal-like group ( X-CH(R)-Y where X, Y are N, S, or O) that may be acid/base labile, releasing an aldehyde.

$$$$
