1efy_ligand
                    3D
 Schrodinger Suite 2020-3.
 32 34  0  0  1  0            999 V2000
   40.6790   22.6620   21.8370 C   0  0  0  0  0  0
   39.9280   22.8690   20.7290 N   0  0  0  0  0  0
   38.6530   22.4260   20.9470 C   0  0  0  0  0  0
   38.6030   21.9240   22.2360 N   0  0  0  0  0  0
   39.8310   22.0570   22.8020 C   0  0  0  0  0  0
   40.3600   21.7320   24.0480 C   0  0  0  0  0  0
   42.0330   22.9360   22.1260 C   0  0  0  0  0  0
   37.5710   22.5070   19.8910 C   0  0  0  0  0  0
   42.5490   22.5980   23.3900 C   0  0  0  0  0  0
   41.7080   22.0010   24.3360 C   0  0  0  0  0  0
   42.8860   23.5850   21.1520 C   0  0  0  0  0  0
   42.4080   23.9600   19.9530 N   0  0  0  0  0  0
   44.0640   23.8070   21.4100 O   0  0  0  0  0  0
   37.9370   22.5990   18.5340 C   0  0  0  0  0  0
   36.2060   22.5290   20.2400 C   0  0  0  0  0  0
   36.9460   22.7190   17.5480 C   0  0  0  0  0  0
   37.2660   22.7800   16.1600 O   0  0  0  0  0  0
   35.5880   22.7470   17.9180 C   0  0  0  0  0  0
   35.2060   22.6510   19.2600 C   0  0  0  0  0  0
   38.5440   22.3580   15.7040 C   0  0  0  0  0  0
   39.7182   21.2629   24.8083 H   0  0  0  0  0  0
   43.5930   22.7989   23.6303 H   0  0  0  0  0  0
   42.1222   21.7417   25.3215 H   0  0  0  0  0  0
   41.3547   23.7720   19.6975 H   0  0  0  0  0  0
   43.0701   24.4549   19.2272 H   0  0  0  0  0  0
   38.9891   22.5770   18.2501 H   0  0  0  0  0  0
   35.9205   22.4500   21.2890 H   0  0  0  0  0  0
   34.8232   22.8449   17.1475 H   0  0  0  0  0  0
   34.1529   22.6704   19.5405 H   0  0  0  0  0  0
   38.6021   22.4790   14.6122 H   0  0  0  0  0  0
   38.6952   21.3000   15.9643 H   0  0  0  0  0  0
   39.3240   22.9684   16.1826 H   0  0  0  0  0  0
  1  7  2  0  0  0
  1  5  1  0  0  0
  1  2  1  0  0  0
  2  3  2  0  0  0
  3  8  1  0  0  0
  3  4  1  0  0  0
  4  5  2  0  0  0
  5  6  1  0  0  0
  6 10  2  0  0  0
  6 21  1  0  0  0
  7  9  1  0  0  0
  7 11  1  0  0  0
  8 15  2  0  0  0
  8 14  1  0  0  0
  9 10  1  0  0  0
  9 22  1  0  0  0
 10 23  1  0  0  0
 11 13  2  0  0  0
 11 12  1  0  0  0
 12 24  1  0  0  0
 12 25  1  0  0  0
 14 16  2  0  0  0
 14 26  1  0  0  0
 15 19  1  0  0  0
 15 27  1  0  0  0
 16 18  1  0  0  0
 16 17  1  0  0  0
 17 20  1  0  0  0
 18 19  2  0  0  0
 18 28  1  0  0  0
 19 29  1  0  0  0
 20 30  1  0  0  0
 20 31  1  0  0  0
 20 32  1  0  0  0
M  END
> <s_m_source_file>
../1efy_ligand.sdf

> <i_m_source_file_index>
1

> <s_epik_input>
W05IMl1DKD1PKUMxW0NIMl1bQ0hdPVtDSF1DKEM9MTIpPU5DKD1OMiljM1tjSF1jKE9bQ0gzXSlbY0hdW2NIXVtjSF0z

> <s_epik_cmdline>
J2VwaWtfYXBwJywgJy1pbWFlJywgJ2xpZ2FuZF9wcm8ubWFlJywgJy1vbWFlJywgJ2xpZ2FuZF9wcmVwLm1hZScsICctbXMnLCAnMScsICctcGgnLCAnNycsICctcGh0JywgJzAuNScsICctbnQn

> <r_lp_tautomer_probability>
1

> <r_epik_Ionization_Penalty>
  0.0018

> <r_epik_Ionization_Penalty_Charging>
  0.0000

> <r_epik_Ionization_Penalty_Neutral>
  0.0018

> <r_epik_State_Penalty>
 -0.0000

> <r_epik_Charging_Adjusted_Penalty>
0

> <i_epik_Tot_Q>
0

> <i_epik_Tot_abs_Q>
0

> <s_epik_Chemistry_Notes>
This compound has an imine and may undergo hydrolysis.

$$$$
