1egh_ligand
                    3D
 Schrodinger Suite 2020-3.
 11 10  0  0  1  0            999 V2000
   84.1830  -12.3000   66.6850 P   0  0  0  0  0  0
   85.3810  -13.1100   65.9940 O   0  0  0  0  0  0
   84.6390  -12.2180   68.0790 O   0  0  0  0  0  0
   84.1630  -11.0260   65.8950 O   0  5  0  0  0  0
   82.9580  -13.1100   66.5040 O   0  5  0  0  0  0
   85.7690  -14.3460   66.5540 C   0  0  0  0  0  0
   86.3070  -15.2870   65.5050 C   0  0  0  0  0  0
   85.5590  -15.5910   64.5500 O   0  0  0  0  0  0
   87.4780  -15.7190   65.6330 O   0  5  0  0  0  0
   86.5549  -14.1777   67.3050 H   0  0  0  0  0  0
   84.8998  -14.8206   67.0329 H   0  0  0  0  0  0
  1  5  1  0  0  0
  1  4  1  0  0  0
  1  3  2  0  0  0
  1  2  1  0  0  0
  2  6  1  0  0  0
  6  7  1  0  0  0
  6 10  1  0  0  0
  6 11  1  0  0  0
  7  9  1  0  0  0
  7  8  2  0  0  0
M  CHG  3   4  -1   5  -1   9  -1
M  END
> <s_m_source_file>
../1egh_ligand.sdf

> <i_m_source_file_index>
1

> <s_epik_input>
Tz1QKFtPSF0pKFtPSF0pT1tDSDJdQyg9TylbT0hd

> <s_epik_cmdline>
J2VwaWtfYXBwJywgJy1pbWFlJywgJ2xpZ2FuZF9wcm8ubWFlJywgJy1vbWFlJywgJ2xpZ2FuZF9wcmVwLm1hZScsICctbXMnLCAnMScsICctcGgnLCAnNycsICctcGh0JywgJzAuNScsICctbnQn

> <r_epik_Ionization_Penalty>
  0.1459

> <r_epik_Ionization_Penalty_Charging>
  0.1459

> <r_epik_Ionization_Penalty_Neutral>
  0.0000

> <r_epik_State_Penalty>
  0.1346

> <r_epik_Charging_Adjusted_Penalty>
0.280492608850728

> <i_epik_Tot_Q>
-3

> <i_epik_Tot_abs_Q>
3

$$$$
