1ej4_ligand
                    3D
 Schrodinger Suite 2020-3.
252253  0  0  1  0            999 V2000
   28.5100   11.6200    6.4720 N   0  3  0  0  0  0
   27.2370   10.8640    6.6310 C   0  0  2  0  0  0
   26.4930   10.7950    5.3010 C   0  0  0  0  0  0
   26.4150   11.7820    4.5680 O   0  0  0  0  0  0
   26.3320   11.5190    7.6920 C   0  0  0  0  0  0
   24.9900   10.7770    7.8990 C   0  0  0  0  0  0
   24.1250   11.4590    8.9580 C   0  0  0  0  0  0
   24.8000   11.4810   10.2530 N   0  0  0  0  0  0
   24.8650   10.4530   11.0920 C   0  0  0  0  0  0
   24.2900    9.2920   10.7940 N   0  0  0  0  0  0
   25.5340   10.5880   12.2270 N   0  0  0  0  0  0
   25.9550    9.6190    5.0050 N   0  0  0  0  0  0
   25.2190    9.3880    3.7660 C   0  0  2  0  0  0
   23.7210    9.5620    3.9830 C   0  0  0  0  0  0
   23.0640    8.7360    4.6280 O   0  0  0  0  0  0
   25.4660    7.9600    3.2090 C   0  0  2  0  0  0
   26.9550    7.7610    2.9180 C   0  0  0  0  0  0
   24.6530    7.7500    1.9530 C   0  0  0  0  0  0
   27.6210    8.7140    1.8850 C   0  0  0  0  0  0
   23.1910   10.6380    3.4190 N   0  0  0  0  0  0
   21.7820   10.9350    3.5270 C   0  0  2  0  0  0
   21.1220   10.8180    2.1620 C   0  0  0  0  0  0
   21.7350   11.1100    1.1370 O   0  0  0  0  0  0
   21.5510   12.3570    4.0310 C   0  0  2  0  0  0
   22.2320   12.5530    5.3890 C   0  0  0  0  0  0
   20.0530   12.6280    4.1230 C   0  0  0  0  0  0
   23.7360   12.7900    5.3240 C   0  0  0  0  0  0
   19.8640   10.3910    2.1690 N   0  0  0  0  0  0
   19.0860   10.2530    0.9520 C   0  0  2  0  0  0
   17.6860   10.7860    1.1550 C   0  0  0  0  0  0
   17.0440   10.5600    2.1910 O   0  0  0  0  0  0
   18.9770    8.7980    0.5010 C   0  0  0  0  0  0
   20.2670    8.2060   -0.0050 C   0  0  0  0  0  0
   20.8460    7.1330    0.6390 C   0  0  0  0  0  0
   20.8980    8.7160   -1.1470 C   0  0  0  0  0  0
   22.0170    6.5680    0.1770 C   0  0  0  0  0  0
   22.0800    8.1600   -1.6280 C   0  0  0  0  0  0
   22.6320    7.0820   -0.9520 C   0  0  0  0  0  0
   23.7880    6.5070   -1.3900 O   0  0  0  0  0  0
   17.2470   11.4830    0.1180 N   0  0  0  0  0  0
   15.9400   12.1100   -0.0110 C   0  0  2  0  0  0
   14.8540   11.0460   -0.1970 C   0  0  0  0  0  0
   15.1200    9.9670   -0.7190 O   0  0  0  0  0  0
   15.9460   12.9680   -1.2900 C   0  0  0  0  0  0
   15.2920   14.2640   -1.1010 C   0  0  0  0  0  0
   14.2210   14.2740   -0.4630 O   0  0  0  0  0  0
   15.8300   15.2750   -1.5890 O   0  0  0  0  0  0
   13.6310   11.3910    0.1850 N   0  0  0  0  0  0
   12.4740   10.5290   -0.0080 C   0  0  2  0  0  0
   12.3820   10.3260   -1.5240 C   0  0  0  0  0  0
   12.3050    9.1950   -2.0140 O   0  0  0  0  0  0
   11.2270   11.2570    0.5340 C   0  0  0  0  0  0
    9.8210   10.7590    0.1190 C   0  0  0  0  0  0
    9.4580    9.4080    0.6730 C   0  0  0  0  0  0
    8.0230    9.0740    0.6130 N   0  0  0  0  0  0
    7.2670    9.0500   -0.4860 C   0  0  0  0  0  0
    7.7700    9.3520   -1.6700 N   0  0  0  0  0  0
    6.0100    8.6420   -0.4150 N   0  0  0  0  0  0
   12.4210   11.4340   -2.2620 N   0  0  0  0  0  0
   12.3340   11.4110   -3.7190 C   0  0  2  0  0  0
   13.4560   10.6220   -4.3790 C   0  0  0  0  0  0
   13.1920    9.7990   -5.2520 O   0  0  0  0  0  0
   12.3180   12.8320   -4.2660 C   0  0  0  0  0  0
   14.7000   10.8630   -3.9720 N   0  0  0  0  0  0
   15.8230   10.1380   -4.5540 C   0  0  2  0  0  0
   15.7310    8.6450   -4.2490 C   0  0  0  0  0  0
   16.0020    7.8130   -5.1140 O   0  0  0  0  0  0
   17.1610   10.6550   -4.0400 C   0  0  0  0  0  0
   18.3370   10.0020   -4.7090 C   0  0  0  0  0  0
   18.5720   10.1970   -6.0670 C   0  0  0  0  0  0
   19.1660    9.1380   -4.0090 C   0  0  0  0  0  0
   19.6140    9.5350   -6.7100 C   0  0  0  0  0  0
   20.2140    8.4740   -4.6540 C   0  0  0  0  0  0
   20.4310    8.6770   -6.0020 C   0  0  0  0  0  0
   15.3680    8.2990   -3.0170 N   0  0  0  0  0  0
   15.2320    6.8910   -2.6730 C   0  0  2  0  0  0
   14.2070    6.2240   -3.6050 C   0  0  0  0  0  0
   14.4010    5.1000   -4.0630 O   0  0  0  0  0  0
   14.8070    6.7380   -1.2130 C   0  0  0  0  0  0
   15.8670    7.0520   -0.1520 C   0  0  0  0  0  0
   15.2430    7.0010    1.2410 C   0  0  0  0  0  0
   17.0230    6.0510   -0.2690 C   0  0  0  0  0  0
   13.1250    6.9330   -3.8940 N   0  0  0  0  0  0
   12.0850    6.4170   -4.7770 C   0  0  2  0  0  0
   12.6030    6.2270   -6.2050 C   0  0  0  0  0  0
   12.2370    5.2730   -6.9000 O   0  0  0  0  0  0
   10.8800    7.3680   -4.7570 C   0  0  0  0  0  0
   10.1350    7.3490   -3.4290 C   0  0  0  0  0  0
    9.4550    5.6850   -3.2170 S   0  0  0  0  0  0
    8.5900    5.8210   -1.6890 C   0  0  0  0  0  0
   13.4700    7.1410   -6.6310 N   0  0  0  0  0  0
   14.0580    7.0720   -7.9570 C   0  0  2  0  0  0
   14.9740    5.8730   -8.0930 C   0  0  0  0  0  0
   15.1100    5.3210   -9.1830 O   0  0  0  0  0  0
   14.9040    8.3110   -8.2570 C   0  0  0  0  0  0
   14.1780    9.6040   -8.2580 C   0  0  0  0  0  0
   14.6310   10.4680   -9.4070 C   0  0  0  0  0  0
   15.8690   10.6270   -9.5790 O   0  0  0  0  0  0
   13.7400   10.9760  -10.1390 O   0  0  0  0  0  0
   15.6180    5.4850   -6.9950 N   0  0  0  0  0  0
   16.5400    4.3510   -7.0280 C   0  0  2  0  0  0
   15.9310    2.9640   -7.2590 C   0  0  0  0  0  0
   16.6640    1.9850   -7.4260 O   0  0  0  0  0  0
   17.3990    4.3250   -5.7630 C   0  0  0  0  0  0
   18.6210    5.6650   -5.6650 S   0  0  0  0  0  0
   14.6060    2.8570   -7.2580 N   0  0  0  0  0  0
   14.0110    1.5510   -7.5270 C   0  0  2  0  0  0
   14.1100    1.2550   -9.0240 C   0  0  0  0  0  0
   13.7760    0.1700   -9.4730 O   0  0  0  0  0  0
   12.5710    1.4780   -7.0020 C   0  0  0  0  0  0
   11.7860    2.7010   -7.2680 C   0  0  0  0  0  0
   10.4660    2.7760   -6.5080 C   0  0  0  0  0  0
    9.8970    4.0810   -6.8090 N   0  0  0  0  0  0
    8.6170    4.3990   -6.7650 C   0  0  0  0  0  0
    7.6970    3.5040   -6.4200 N   0  0  0  0  0  0
    8.2660    5.6320   -7.1050 N   0  0  0  0  0  0
   14.6110    2.2340   -9.7760 N   0  0  0  0  0  0
   14.8430    2.1080  -11.2150 C   0  0  2  0  0  0
   16.2580    2.5780  -11.5620 C   0  0  0  0  0  0
   16.4270    3.5570  -12.3250 O   0  0  0  0  0  0
   13.8330    2.9260  -12.0210 C   0  0  0  0  0  0
   12.4790    2.2630  -12.0920 C   0  0  0  0  0  0
   12.3750    1.0910  -12.4680 O   0  0  0  0  0  0
   11.4290    3.0090  -11.7500 N   0  0  0  0  0  0
   17.2530    1.9860  -11.0840 O   0  0  0  0  0  0
   29.1344   11.1305    5.7101 H   0  0  0  0  0  0
   29.0482   11.6376    7.4312 H   0  0  0  0  0  0
   28.2877   12.6503    6.1573 H   0  0  0  0  0  0
   27.5207    9.8515    6.9539 H   0  0  0  0  0  0
   26.8537   11.5337    8.6603 H   0  0  0  0  0  0
   26.0958   12.5492    7.3871 H   0  0  0  0  0  0
   24.4301   10.7610    6.9523 H   0  0  0  0  0  0
   25.1879    9.7454    8.2254 H   0  0  0  0  0  0
   23.9184   12.4949    8.6511 H   0  0  0  0  0  0
   23.1766   10.9121    9.0646 H   0  0  0  0  0  0
   25.3036   12.3971   10.5953 H   0  0  0  0  0  0
   23.7342    9.1794    9.8514 H   0  0  0  0  0  0
   24.3700    8.4440   11.4900 H   0  0  0  0  0  0
   26.0099   11.5485   12.4740 H   0  0  0  0  0  0
   26.0789    8.8024    5.7315 H   0  0  0  0  0  0
   25.6081   10.1609    3.0868 H   0  0  0  0  0  0
   25.1480    7.2047    3.9428 H   0  0  0  0  0  0
   27.5307    7.8920    3.8461 H   0  0  0  0  0  0
   27.1194    6.7470    2.5246 H   0  0  0  0  0  0
   23.5862    7.8963    2.1780 H   0  0  0  0  0  0
   24.8122    6.7275    1.5799 H   0  0  0  0  0  0
   24.9687    8.4733    1.1867 H   0  0  0  0  0  0
   28.6846    8.4542    1.7791 H   0  0  0  0  0  0
   27.5303    9.7534    2.2335 H   0  0  0  0  0  0
   27.1190    8.6084    0.9119 H   0  0  0  0  0  0
   23.8539   11.3128    2.8575 H   0  0  0  0  0  0
   21.3999   10.1914    4.2418 H   0  0  0  0  0  0
   21.9906   13.0734    3.3214 H   0  0  0  0  0  0
   21.7959   13.4269    5.8951 H   0  0  0  0  0  0
   22.0797   11.6568    6.0083 H   0  0  0  0  0  0
   19.5922   12.4797    3.1352 H   0  0  0  0  0  0
   19.8874   13.6642    4.4530 H   0  0  0  0  0  0
   19.5989   11.9356    4.8471 H   0  0  0  0  0  0
   24.1313   12.9185    6.3425 H   0  0  0  0  0  0
   23.9392   13.6964    4.7347 H   0  0  0  0  0  0
   24.2230   11.9262    4.8479 H   0  0  0  0  0  0
   19.4146   10.1384    3.1407 H   0  0  0  0  0  0
   19.6425   10.8498    0.2143 H   0  0  0  0  0  0
   18.6478    8.1758    1.3463 H   0  0  0  0  0  0
   18.2458    8.7215   -0.3172 H   0  0  0  0  0  0
   20.3697    6.7234    1.5298 H   0  0  0  0  0  0
   20.4550    9.5643   -1.6688 H   0  0  0  0  0  0
   22.4570    5.7188    0.6998 H   0  0  0  0  0  0
   22.5622    8.5638   -2.5182 H   0  0  0  0  0  0
   24.2175    5.6524   -0.8466 H   0  0  0  0  0  0
   17.9799   11.5663   -0.6980 H   0  0  0  0  0  0
   15.7830   12.6860    0.9129 H   0  0  0  0  0  0
   16.9844   13.1557   -1.6007 H   0  0  0  0  0  0
   15.4140   12.4348   -2.0917 H   0  0  0  0  0  0
   13.6905   15.2226   -0.2937 H   0  0  0  0  0  0
   13.5110   12.3734    0.6650 H   0  0  0  0  0  0
   12.5990    9.5767    0.5282 H   0  0  0  0  0  0
   11.2217   11.2066    1.6328 H   0  0  0  0  0  0
   11.2495   12.3096    0.2153 H   0  0  0  0  0  0
    9.0605   11.4693    0.4754 H   0  0  0  0  0  0
    9.7674   10.6838   -0.9771 H   0  0  0  0  0  0
    9.9870    8.6260    0.1084 H   0  0  0  0  0  0
    9.7492    9.3558    1.7325 H   0  0  0  0  0  0
    7.4800    8.8133    1.5334 H   0  0  0  0  0  0
    8.8123    9.6933   -1.7539 H   0  0  0  0  0  0
    5.5694    8.3850    0.5596 H   0  0  0  0  0  0
    5.4058    8.5599   -1.3306 H   0  0  0  0  0  0
   12.5231   12.3926   -1.7322 H   0  0  0  0  0  0
   11.3856   10.8903   -3.9177 H   0  0  0  0  0  0
   11.5065   13.3999   -3.7876 H   0  0  0  0  0  0
   12.1546   12.8044   -5.3535 H   0  0  0  0  0  0
   13.2813   13.3181   -4.0521 H   0  0  0  0  0  0
   14.8774   11.6161   -3.1901 H   0  0  0  0  0  0
   15.7283   10.3313   -5.6327 H   0  0  0  0  0  0
   17.2305   11.7375   -4.2228 H   0  0  0  0  0  0
   17.2393   10.4598   -2.9603 H   0  0  0  0  0  0
   17.9333   10.8752   -6.6329 H   0  0  0  0  0  0
   18.9987    8.9748   -2.9443 H   0  0  0  0  0  0
   19.7851    9.6945   -7.7746 H   0  0  0  0  0  0
   20.8586    7.7971   -4.0932 H   0  0  0  0  0  0
   21.2470    8.1601   -6.5070 H   0  0  0  0  0  0
   15.1708    9.0718   -2.2594 H   0  0  0  0  0  0
   16.2280    6.4453   -2.8125 H   0  0  0  0  0  0
   13.9649    7.4140   -1.0035 H   0  0  0  0  0  0
   14.4977    5.6987   -1.0281 H   0  0  0  0  0  0
   16.2594    8.0671   -0.3118 H   0  0  0  0  0  0
   14.4180    7.7262    1.3000 H   0  0  0  0  0  0
   16.0053    7.2508    1.9936 H   0  0  0  0  0  0
   14.8562    5.9892    1.4327 H   0  0  0  0  0  0
   17.4552    6.1064   -1.2790 H   0  0  0  0  0  0
   16.6469    5.0336   -0.0864 H   0  0  0  0  0  0
   17.7960    6.2951    0.4745 H   0  0  0  0  0  0
   13.0224    7.9339   -3.4495 H   0  0  0  0  0  0
   11.8125    5.4313   -4.3718 H   0  0  0  0  0  0
   11.2228    8.3979   -4.9351 H   0  0  0  0  0  0
   10.1697    7.0766   -5.5448 H   0  0  0  0  0  0
   10.8335    7.5874   -2.6133 H   0  0  0  0  0  0
    9.3278    8.0960   -3.4506 H   0  0  0  0  0  0
    8.1232    4.8554   -1.4447 H   0  0  0  0  0  0
    7.8114    6.5931   -1.7759 H   0  0  0  0  0  0
    9.2952    6.0994   -0.8920 H   0  0  0  0  0  0
   13.7392    7.9636   -5.9521 H   0  0  0  0  0  0
   13.1838    6.9908   -8.6197 H   0  0  0  0  0  0
   15.6975    8.4050   -7.5010 H   0  0  0  0  0  0
   15.3575    8.2127   -9.2543 H   0  0  0  0  0  0
   13.0983    9.4182   -8.3569 H   0  0  0  0  0  0
   14.3738   10.1352   -7.3149 H   0  0  0  0  0  0
   14.0241   11.6135  -10.9892 H   0  0  0  0  0  0
   15.4493    6.0295   -6.0542 H   0  0  0  0  0  0
   17.1124    4.5886   -7.9368 H   0  0  0  0  0  0
   16.7515    4.4135   -4.8782 H   0  0  0  0  0  0
   17.9552    3.3771   -5.7169 H   0  0  0  0  0  0
   19.2896    5.7371   -4.7945 H   0  0  0  0  0  0
   13.9603    3.7254   -7.0603 H   0  0  0  0  0  0
   14.6019    0.8088   -6.9702 H   0  0  0  0  0  0
   12.0475    0.6387   -7.4831 H   0  0  0  0  0  0
   12.5851    1.3253   -5.9127 H   0  0  0  0  0  0
   12.3745    3.5844   -6.9794 H   0  0  0  0  0  0
   11.5442    2.7557   -8.3397 H   0  0  0  0  0  0
    9.8016    1.9673   -6.8465 H   0  0  0  0  0  0
   10.6567    2.6669   -5.4302 H   0  0  0  0  0  0
   10.5537    4.9122   -7.1055 H   0  0  0  0  0  0
    7.9996    2.4842   -6.1398 H   0  0  0  0  0  0
    6.6330    3.7830   -6.4146 H   0  0  0  0  0  0
    9.0360    6.3645   -7.3888 H   0  0  0  0  0  0
   14.8534    3.1748   -9.2601 H   0  0  0  0  0  0
   14.7120    1.0375  -11.4315 H   0  0  0  0  0  0
   17.4451    3.8922  -12.5724 H   0  0  0  0  0  0
   13.7031    3.9127  -11.5525 H   0  0  0  0  0  0
   14.2021    3.0541  -13.0493 H   0  0  0  0  0  0
   11.5764    4.0484  -11.4216 H   0  0  0  0  0  0
   10.4149    2.5853  -11.7961 H   0  0  0  0  0  0
  1  2  1  0  0  0
  1126  1  0  0  0
  1127  1  0  0  0
  1128  1  0  0  0
  2  3  1  0  0  0
  2  5  1  0  0  0
  2129  1  0  0  0
  3  4  2  0  0  0
  3 12  1  0  0  0
  5  6  1  0  0  0
  5130  1  0  0  0
  5131  1  0  0  0
  6  7  1  0  0  0
  6132  1  0  0  0
  6133  1  0  0  0
  7  8  1  0  0  0
  7134  1  0  0  0
  7135  1  0  0  0
  8  9  1  0  0  0
  8136  1  0  0  0
  9 10  1  0  0  0
  9 11  2  0  0  0
 10137  1  0  0  0
 10138  1  0  0  0
 11139  1  0  0  0
 12 13  1  0  0  0
 12140  1  0  0  0
 13 14  1  0  0  0
 13 16  1  0  0  0
 13141  1  0  0  0
 14 15  2  0  0  0
 14 20  1  0  0  0
 16 17  1  0  0  0
 16 18  1  0  0  0
 16142  1  0  0  0
 17 19  1  0  0  0
 17143  1  0  0  0
 17144  1  0  0  0
 18145  1  0  0  0
 18146  1  0  0  0
 18147  1  0  0  0
 19148  1  0  0  0
 19149  1  0  0  0
 19150  1  0  0  0
 20 21  1  0  0  0
 20151  1  0  0  0
 21 22  1  0  0  0
 21 24  1  0  0  0
 21152  1  0  0  0
 22 23  2  0  0  0
 22 28  1  0  0  0
 24 25  1  0  0  0
 24 26  1  0  0  0
 24153  1  0  0  0
 25 27  1  0  0  0
 25154  1  0  0  0
 25155  1  0  0  0
 26156  1  0  0  0
 26157  1  0  0  0
 26158  1  0  0  0
 27159  1  0  0  0
 27160  1  0  0  0
 27161  1  0  0  0
 28 29  1  0  0  0
 28162  1  0  0  0
 29 30  1  0  0  0
 29 32  1  0  0  0
 29163  1  0  0  0
 30 31  2  0  0  0
 30 40  1  0  0  0
 32 33  1  0  0  0
 32164  1  0  0  0
 32165  1  0  0  0
 33 34  2  0  0  0
 33 35  1  0  0  0
 34 36  1  0  0  0
 34166  1  0  0  0
 35 37  2  0  0  0
 35167  1  0  0  0
 36 38  2  0  0  0
 36168  1  0  0  0
 37 38  1  0  0  0
 37169  1  0  0  0
 38 39  1  0  0  0
 39170  1  0  0  0
 40 41  1  0  0  0
 40171  1  0  0  0
 41 42  1  0  0  0
 41 44  1  0  0  0
 41172  1  0  0  0
 42 43  2  0  0  0
 42 48  1  0  0  0
 44 45  1  0  0  0
 44173  1  0  0  0
 44174  1  0  0  0
 45 46  1  0  0  0
 45 47  2  0  0  0
 46175  1  0  0  0
 48 49  1  0  0  0
 48176  1  0  0  0
 49 50  1  0  0  0
 49 52  1  0  0  0
 49177  1  0  0  0
 50 51  2  0  0  0
 50 59  1  0  0  0
 52 53  1  0  0  0
 52178  1  0  0  0
 52179  1  0  0  0
 53 54  1  0  0  0
 53180  1  0  0  0
 53181  1  0  0  0
 54 55  1  0  0  0
 54182  1  0  0  0
 54183  1  0  0  0
 55 56  1  0  0  0
 55184  1  0  0  0
 56 57  2  0  0  0
 56 58  1  0  0  0
 57185  1  0  0  0
 58186  1  0  0  0
 58187  1  0  0  0
 59 60  1  0  0  0
 59188  1  0  0  0
 60 61  1  0  0  0
 60 63  1  0  0  0
 60189  1  0  0  0
 61 62  2  0  0  0
 61 64  1  0  0  0
 63190  1  0  0  0
 63191  1  0  0  0
 63192  1  0  0  0
 64 65  1  0  0  0
 64193  1  0  0  0
 65 66  1  0  0  0
 65 68  1  0  0  0
 65194  1  0  0  0
 66 67  2  0  0  0
 66 75  1  0  0  0
 68 69  1  0  0  0
 68195  1  0  0  0
 68196  1  0  0  0
 69 70  2  0  0  0
 69 71  1  0  0  0
 70 72  1  0  0  0
 70197  1  0  0  0
 71 73  2  0  0  0
 71198  1  0  0  0
 72 74  2  0  0  0
 72199  1  0  0  0
 73 74  1  0  0  0
 73200  1  0  0  0
 74201  1  0  0  0
 75 76  1  0  0  0
 75202  1  0  0  0
 76 77  1  0  0  0
 76 79  1  0  0  0
 76203  1  0  0  0
 77 78  2  0  0  0
 77 83  1  0  0  0
 79 80  1  0  0  0
 79204  1  0  0  0
 79205  1  0  0  0
 80 81  1  0  0  0
 80 82  1  0  0  0
 80206  1  0  0  0
 81207  1  0  0  0
 81208  1  0  0  0
 81209  1  0  0  0
 82210  1  0  0  0
 82211  1  0  0  0
 82212  1  0  0  0
 83 84  1  0  0  0
 83213  1  0  0  0
 84 85  1  0  0  0
 84 87  1  0  0  0
 84214  1  0  0  0
 85 86  2  0  0  0
 85 91  1  0  0  0
 87 88  1  0  0  0
 87215  1  0  0  0
 87216  1  0  0  0
 88 89  1  0  0  0
 88217  1  0  0  0
 88218  1  0  0  0
 89 90  1  0  0  0
 90219  1  0  0  0
 90220  1  0  0  0
 90221  1  0  0  0
 91 92  1  0  0  0
 91222  1  0  0  0
 92 93  1  0  0  0
 92 95  1  0  0  0
 92223  1  0  0  0
 93 94  2  0  0  0
 93100  1  0  0  0
 95 96  1  0  0  0
 95224  1  0  0  0
 95225  1  0  0  0
 96 97  1  0  0  0
 96226  1  0  0  0
 96227  1  0  0  0
 97 98  2  0  0  0
 97 99  1  0  0  0
 99228  1  0  0  0
100101  1  0  0  0
100229  1  0  0  0
101102  1  0  0  0
101104  1  0  0  0
101230  1  0  0  0
102103  2  0  0  0
102106  1  0  0  0
104105  1  0  0  0
104231  1  0  0  0
104232  1  0  0  0
105233  1  0  0  0
106107  1  0  0  0
106234  1  0  0  0
107108  1  0  0  0
107110  1  0  0  0
107235  1  0  0  0
108109  2  0  0  0
108117  1  0  0  0
110111  1  0  0  0
110236  1  0  0  0
110237  1  0  0  0
111112  1  0  0  0
111238  1  0  0  0
111239  1  0  0  0
112113  1  0  0  0
112240  1  0  0  0
112241  1  0  0  0
113114  1  0  0  0
113242  1  0  0  0
114115  1  0  0  0
114116  2  0  0  0
115243  1  0  0  0
115244  1  0  0  0
116245  1  0  0  0
117118  1  0  0  0
117246  1  0  0  0
118119  1  0  0  0
118121  1  0  0  0
118247  1  0  0  0
119120  1  0  0  0
119125  2  0  0  0
120248  1  0  0  0
121122  1  0  0  0
121249  1  0  0  0
121250  1  0  0  0
122123  2  0  0  0
122124  1  0  0  0
124251  1  0  0  0
124252  1  0  0  0
M  CHG  1   1   1
M  END
> <s_m_source_file>
../1ej4_ligand.sdf

> <i_m_source_file_index>
1

> <s_epik_input>
W0hdL049QyhbTkgyXSlcW05IXVtDSDJdW0NIMl1bQ0gyXVtDQEhdKFtOSDMrXSlDKD1PKVtOSF1bQ0BASF0oW0NAQEhdKFtDSDNdKVtDSDJdW0NIM10pQyg9TylbTkhdW0NAQEhdKFtDQEBIXShbQ0gzXSlbQ0gyXVtDSDNdKUMoPU8pW05IXVtDQEBIXShbQ0gyXWMxW2NIXVtjSF1jKFtPSF0pW2NIXVtjSF0xKUMoPU8pW05IXVtDQEBIXShbQ0gyXUMoPU8pW09IXSlDKD1PKVtOSF1bQ0BASF0oW0NIMl1bQ0gyXVtDSDJdW05IXS9DKD1OXFtIXSlbTkgyXSlDKD1PKVtOSF1bQ0BASF0oW0NIM10pQyg9TylbTkhdW0NAQEhdKFtDSDJdYzJbY0hdW2NIXVtjSF1bY0hdW2NIXTIpQyg9TylbTkhdW0NAQEhdKFtDSDJdW0NIXShbQ0gzXSlbQ0gzXSlDKD1PKVtOSF1bQ0BASF0oW0NIMl1bQ0gyXVNbQ0gzXSlDKD1PKVtOSF1bQ0BASF0oW0NIMl1bQ0gyXUMoPU8pW09IXSlDKD1PKVtOSF1bQ0BASF0oW0NIMl1bU0hdKUMoPU8pW05IXVtDQEhdKEMoPU8pW05IXVtDQEhdKEMoPU8pW09IXSlbQ0gyXUMoPU8pW05IMl0pW0NIMl1bQ0gyXVtDSDJdW05IXS9DKFtOSDJdKT1OXFtIXQ==

> <s_epik_cmdline>
J2VwaWtfYXBwJywgJy1pbWFlJywgJ2xpZ2FuZF9wcm8ubWFlJywgJy1vbWFlJywgJ2xpZ2FuZF9wcmVwLm1hZScsICctbXMnLCAnMScsICctcGgnLCAnNycsICctcGh0JywgJzAuNScsICctbnQn

> <s_epik_pKa_notes>
Molecule size exceeds maximum supported for generating protonation states

> <s_epik_Chemistry_Notes>
This compound has an imine and may undergo hydrolysis.

$$$$
