1ejn_ligand
                    3D
 Schrodinger Suite 2020-3.
 53 56  0  0  1  0            999 V2000
   22.6160   11.2980   27.0970 C   0  0  1  0  0  0
   22.7960   12.7650   27.5790 C   0  0  0  0  0  0
   23.9920   10.5490   27.1350 C   0  0  0  0  0  0
   21.6000   10.5700   28.0280 C   0  0  0  0  0  0
   22.3300   12.0400   29.9730 C   0  0  0  0  0  0
   23.3450   12.7570   29.0310 C   0  0  1  0  0  0
   22.1400   10.5700   29.4910 C   0  0  2  0  0  0
   24.7070   12.0000   29.0690 C   0  0  0  0  0  0
   23.5050    9.8130   29.5460 C   0  0  0  0  0  0
   24.5380   10.5130   28.6040 C   0  0  0  0  0  0
   27.2030    8.0200   29.0940 N   0  0  0  0  0  0
   26.0830    8.5320   28.5490 C   0  0  0  0  0  0
   25.8560    9.8630   28.7070 N   0  0  0  0  0  0
   25.3160    7.7840   27.9360 O   0  0  0  0  0  0
   27.5820    6.6420   28.8350 C   0  0  0  0  0  0
   29.7790    5.4990   29.3810 C   0  0  0  0  0  0
   29.0900    6.4880   28.6600 C   0  0  0  0  0  0
   29.7990    7.3260   27.7680 C   0  0  0  0  0  0
   31.1620    7.0740   27.5100 C   0  0  0  0  0  0
   31.7920    5.9960   28.1480 C   0  0  0  0  0  0
   31.1050    5.2080   29.0770 C   0  0  0  0  0  0
   33.1960    5.8990   27.6390 N   0  0  0  0  0  0
   33.2340    3.4270   27.5260 N   0  3  0  0  0  0
   33.5800    4.6700   27.5130 C   0  0  0  0  0  0
   34.8510    4.8760   27.2810 N   0  0  0  0  0  0
   22.2323   11.3051   26.0661 H   0  0  0  0  0  0
   23.5053   13.2839   26.9174 H   0  0  0  0  0  0
   21.8251   13.2814   27.5527 H   0  0  0  0  0  0
   23.8591    9.5193   26.7715 H   0  0  0  0  0  0
   24.7134   11.0745   26.4921 H   0  0  0  0  0  0
   20.6327   11.0928   27.9950 H   0  0  0  0  0  0
   21.4680    9.5327   27.6866 H   0  0  0  0  0  0
   22.7182   12.0453   31.0022 H   0  0  0  0  0  0
   21.3653   12.5677   29.9423 H   0  0  0  0  0  0
   23.4881   13.7952   29.3653 H   0  0  0  0  0  0
   21.4187   10.0633   30.1490 H   0  0  0  0  0  0
   25.4227   12.4992   28.3993 H   0  0  0  0  0  0
   25.1009   12.0052   30.0961 H   0  0  0  0  0  0
   23.8884    9.8228   30.5770 H   0  0  0  0  0  0
   23.3609    8.7729   29.2183 H   0  0  0  0  0  0
   27.8321    8.6516   29.7384 H   0  0  0  0  0  0
   26.7502   10.4646   28.9272 H   0  0  0  0  0  0
   27.2676    6.0104   29.6790 H   0  0  0  0  0  0
   27.0917    6.2938   27.9139 H   0  0  0  0  0  0
   29.2734    4.9580   30.1809 H   0  0  0  0  0  0
   29.2946    8.1617   27.2829 H   0  0  0  0  0  0
   31.7196    7.7099   26.8224 H   0  0  0  0  0  0
   31.6063    4.3696   29.5607 H   0  0  0  0  0  0
   33.7667    6.8139   27.4216 H   0  0  0  0  0  0
   32.1860    3.1497   27.7127 H   0  0  0  0  0  0
   35.2451    5.9025   27.2497 H   0  0  0  0  0  0
   35.5256    4.0227   27.1172 H   0  0  0  0  0  0
   33.9870    2.6446   27.3503 H   0  0  0  0  0  0
  1  4  1  0  0  0
  1  3  1  0  0  0
  1  2  1  0  0  0
  1 26  1  0  0  0
  2  6  1  0  0  0
  2 27  1  0  0  0
  2 28  1  0  0  0
  3 10  1  0  0  0
  3 29  1  0  0  0
  3 30  1  0  0  0
  4  7  1  0  0  0
  4 31  1  0  0  0
  4 32  1  0  0  0
  5  6  1  0  0  0
  5  7  1  0  0  0
  5 33  1  0  0  0
  5 34  1  0  0  0
  6  8  1  0  0  0
  6 35  1  0  0  0
  7  9  1  0  0  0
  7 36  1  0  0  0
  8 10  1  0  0  0
  8 37  1  0  0  0
  8 38  1  0  0  0
  9 10  1  0  0  0
  9 39  1  0  0  0
  9 40  1  0  0  0
 10 13  1  0  0  0
 11 12  1  0  0  0
 11 15  1  0  0  0
 11 41  1  0  0  0
 12 13  1  0  0  0
 12 14  2  0  0  0
 13 42  1  0  0  0
 15 17  1  0  0  0
 15 43  1  0  0  0
 15 44  1  0  0  0
 16 17  2  0  0  0
 16 21  1  0  0  0
 16 45  1  0  0  0
 17 18  1  0  0  0
 18 19  2  0  0  0
 18 46  1  0  0  0
 19 20  1  0  0  0
 19 47  1  0  0  0
 20 22  1  0  0  0
 20 21  2  0  0  0
 21 48  1  0  0  0
 22 24  1  0  0  0
 22 49  1  0  0  0
 23 24  2  0  0  0
 23 50  1  0  0  0
 23 53  1  0  0  0
 24 25  1  0  0  0
 25 51  1  0  0  0
 25 52  1  0  0  0
M  CHG  1  23   1
M  END
> <s_m_source_file>
../1ejn_ligand.sdf

> <i_m_source_file_index>
1

> <s_epik_input>
W0NIMl0xW0NAQEhdKFtDSDJdMilbQ0gyXVtDQEBIXShbQ0gyXTMpW0NIMl1bQ0BIXTFbQ0gyXUMyM1tOSF1DKD1PKVtOSF1bQ0gyXWM0W2NIXVtjSF1jKFtjSF1bY0hdNClbTkhdL0MoPU5cW0hdKVtOSDJd

> <s_epik_cmdline>
J2VwaWtfYXBwJywgJy1pbWFlJywgJ2xpZ2FuZF9wcm8ubWFlJywgJy1vbWFlJywgJ2xpZ2FuZF9wcmVwLm1hZScsICctbXMnLCAnMScsICctcGgnLCAnNycsICctcGh0JywgJzAuNScsICctbnQn

> <r_lp_tautomer_probability>
1

> <r_epik_Ionization_Penalty>
  0.0002

> <r_epik_Ionization_Penalty_Charging>
  0.0001

> <r_epik_Ionization_Penalty_Neutral>
  0.0001

> <r_epik_State_Penalty>
 -0.0000

> <r_epik_Charging_Adjusted_Penalty>
0.000109669996545412

> <i_epik_Tot_Q>
1

> <i_epik_Tot_abs_Q>
1

> <s_epik_Chemistry_Notes>
This compound has an imine and may undergo hydrolysis.

$$$$
