1ek1_ligand
                    3D
 Schrodinger Suite 2020-3.
 34 35  0  0  1  0            999 V2000
  -41.1220 -112.5040  -27.0300 C   0  0  0  0  0  0
  -41.9080 -112.5300  -28.3670 C   0  0  0  0  0  0
  -42.3200 -114.0150  -28.7860 C   0  0  0  0  0  0
  -41.0400 -114.9820  -28.8970 C   0  0  0  0  0  0
  -40.2090 -115.0200  -27.5390 C   0  0  0  0  0  0
  -39.8890 -113.5370  -26.9840 C   0  0  0  0  0  0
  -43.0510 -113.9290  -30.0920 N   0  0  0  0  0  0
  -44.2300 -114.3770  -30.4060 C   0  0  0  0  0  0
  -44.9460 -114.6160  -29.4520 O   0  0  0  0  0  0
  -44.5890 -114.5410  -31.6730 N   0  0  0  0  0  0
  -45.7510 -115.0180  -32.3580 C   0  0  0  0  0  0
  -49.9230 -116.6940  -34.8360 I   0  0  0  0  0  0
  -46.8790 -115.4950  -31.6590 C   0  0  0  0  0  0
  -48.0160 -115.9610  -32.3430 C   0  0  0  0  0  0
  -48.0590 -115.9600  -33.7790 C   0  0  0  0  0  0
  -46.8840 -115.4630  -34.5060 C   0  0  0  0  0  0
  -45.7500 -115.0010  -33.7950 C   0  0  0  0  0  0
  -40.7115 -111.4968  -26.8655 H   0  0  0  0  0  0
  -41.7980 -112.7641  -26.2021 H   0  0  0  0  0  0
  -42.8265 -111.9335  -28.2640 H   0  0  0  0  0  0
  -41.2837 -112.1066  -29.1676 H   0  0  0  0  0  0
  -43.0194 -114.4546  -28.0597 H   0  0  0  0  0  0
  -41.3722 -116.0050  -29.1276 H   0  0  0  0  0  0
  -40.3772 -114.6224  -29.6978 H   0  0  0  0  0  0
  -40.7854 -115.5571  -26.7714 H   0  0  0  0  0  0
  -39.2530 -115.5371  -27.7084 H   0  0  0  0  0  0
  -39.0612 -113.1473  -27.5947 H   0  0  0  0  0  0
  -39.5516 -113.6592  -25.9442 H   0  0  0  0  0  0
  -42.5828 -113.4286  -30.9525 H   0  0  0  0  0  0
  -43.8920 -114.2741  -32.4811 H   0  0  0  0  0  0
  -46.8695 -115.5027  -30.5691 H   0  0  0  0  0  0
  -48.8733 -116.3267  -31.7779 H   0  0  0  0  0  0
  -46.8847 -115.4497  -35.5959 H   0  0  0  0  0  0
  -44.8783 -114.6333  -34.3363 H   0  0  0  0  0  0
  1  2  1  0  0  0
  1  6  1  0  0  0
  1 18  1  0  0  0
  1 19  1  0  0  0
  2  3  1  0  0  0
  2 20  1  0  0  0
  2 21  1  0  0  0
  3  4  1  0  0  0
  3  7  1  0  0  0
  3 22  1  0  0  0
  4  5  1  0  0  0
  4 23  1  0  0  0
  4 24  1  0  0  0
  5  6  1  0  0  0
  5 25  1  0  0  0
  5 26  1  0  0  0
  6 27  1  0  0  0
  6 28  1  0  0  0
  7  8  1  0  0  0
  7 29  1  0  0  0
  8  9  2  0  0  0
  8 10  1  0  0  0
 10 11  1  0  0  0
 10 30  1  0  0  0
 11 13  2  0  0  0
 11 17  1  0  0  0
 12 15  1  0  0  0
 13 14  1  0  0  0
 13 31  1  0  0  0
 14 15  2  0  0  0
 14 32  1  0  0  0
 15 16  1  0  0  0
 16 17  2  0  0  0
 16 33  1  0  0  0
 17 34  1  0  0  0
M  END
> <s_m_source_file>
../1ek1_ligand.sdf

> <i_m_source_file_index>
1

> <s_epik_input>
W0NIMl0xW0NIMl1bQ0gyXVtDSDJdW0NIMl1bQ0hdMVtOSF1DKD1PKVtOSF1jMltjSF1bY0hdYyhJKVtjSF1bY0hdMg==

> <s_epik_cmdline>
J2VwaWtfYXBwJywgJy1pbWFlJywgJ2xpZ2FuZF9wcm8ubWFlJywgJy1vbWFlJywgJ2xpZ2FuZF9wcmVwLm1hZScsICctbXMnLCAnMScsICctcGgnLCAnNycsICctcGh0JywgJzAuNScsICctbnQn

> <r_lp_tautomer_probability>
1

> <r_epik_Ionization_Penalty>
  0.0000

> <r_epik_Ionization_Penalty_Charging>
  0.0000

> <r_epik_Ionization_Penalty_Neutral>
  0.0000

> <r_epik_State_Penalty>
 -0.0000

> <r_epik_Charging_Adjusted_Penalty>
0

> <i_epik_Tot_Q>
0

> <i_epik_Tot_abs_Q>
0

$$$$
