1ek2_ligand
                    3D
 Schrodinger Suite 2020-3.
 54 54  0  0  1  0            999 V2000
  -41.5100 -114.2050  -26.3170 C   0  0  0  0  0  0
  -40.1420 -113.4190  -26.5350 C   0  0  0  0  0  0
  -40.2520 -112.2430  -27.6010 C   0  0  0  0  0  0
  -41.0750 -112.6590  -28.9050 C   0  0  0  0  0  0
  -42.4770 -113.3250  -28.5940 C   0  0  0  0  0  0
  -42.2140 -114.6060  -27.6890 C   0  0  0  0  0  0
  -43.1210 -113.6960  -29.9300 N   0  0  0  0  0  0
  -44.3210 -114.2880  -30.2350 C   0  0  0  0  0  0
  -45.0520 -114.5700  -29.2620 O   0  0  0  0  0  0
  -44.8290 -114.6370  -31.4550 N   0  0  0  0  0  0
  -46.1560 -115.3150  -31.6490 C   0  0  0  0  0  0
  -46.4210 -115.6030  -33.1340 C   0  0  0  0  0  0
  -47.7870 -116.3240  -33.3400 C   0  0  0  0  0  0
  -48.1860 -116.5080  -34.8550 C   0  0  0  0  0  0
  -49.7300 -116.7880  -35.1160 C   0  0  0  0  0  0
  -50.0870 -118.3070  -35.0610 C   0  0  0  0  0  0
  -51.6050 -118.6020  -35.3160 C   0  0  0  0  0  0
  -51.9280 -120.1410  -35.2540 C   0  0  0  0  0  0
  -53.4380 -120.4610  -35.4970 C   0  0  0  0  0  0
  -53.7500 -121.9800  -35.4350 C   0  0  0  0  0  0
  -41.3156 -115.1304  -25.7550 H   0  0  0  0  0  0
  -42.2101 -113.5727  -25.7513 H   0  0  0  0  0  0
  -39.8199 -112.9725  -25.5827 H   0  0  0  0  0  0
  -39.3707 -114.1173  -26.8920 H   0  0  0  0  0  0
  -40.7612 -111.3812  -27.1450 H   0  0  0  0  0  0
  -39.2435 -111.9446  -27.9231 H   0  0  0  0  0  0
  -41.2679 -111.7658  -29.5173 H   0  0  0  0  0  0
  -40.4923 -113.3857  -29.4901 H   0  0  0  0  0  0
  -43.1782 -112.6478  -28.0844 H   0  0  0  0  0  0
  -41.5669 -115.3014  -28.2436 H   0  0  0  0  0  0
  -43.1783 -115.0915  -27.4782 H   0  0  0  0  0  0
  -42.5939 -113.4849  -30.8721 H   0  0  0  0  0  0
  -44.2036 -114.3926  -32.3263 H   0  0  0  0  0  0
  -46.1645 -116.2681  -31.0999 H   0  0  0  0  0  0
  -46.9585 -114.6658  -31.2690 H   0  0  0  0  0  0
  -46.4389 -114.6562  -33.6936 H   0  0  0  0  0  0
  -45.6232 -116.2482  -33.5305 H   0  0  0  0  0  0
  -47.7442 -117.3264  -32.8890 H   0  0  0  0  0  0
  -48.5860 -115.7399  -32.8600 H   0  0  0  0  0  0
  -47.9331 -115.5951  -35.4142 H   0  0  0  0  0  0
  -47.6358 -117.3614  -35.2781 H   0  0  0  0  0  0
  -50.3303 -116.2738  -34.3510 H   0  0  0  0  0  0
  -50.0073 -116.4135  -36.1124 H   0  0  0  0  0  0
  -49.5132 -118.8465  -35.8289 H   0  0  0  0  0  0
  -49.8362 -118.7069  -34.0674 H   0  0  0  0  0  0
  -52.2108 -118.0939  -34.5512 H   0  0  0  0  0  0
  -51.8879 -118.2327  -36.3128 H   0  0  0  0  0  0
  -51.3475 -120.6688  -36.0249 H   0  0  0  0  0  0
  -51.6602 -120.5322  -34.2614 H   0  0  0  0  0  0
  -54.0468 -119.9619  -34.7287 H   0  0  0  0  0  0
  -53.7342 -120.0982  -36.4923 H   0  0  0  0  0  0
  -54.8235 -122.1414  -35.6129 H   0  0  0  0  0  0
  -53.4802 -122.3695  -34.4423 H   0  0  0  0  0  0
  -53.1675 -122.5057  -36.2059 H   0  0  0  0  0  0
  1  2  1  0  0  0
  1  6  1  0  0  0
  1 21  1  0  0  0
  1 22  1  0  0  0
  2  3  1  0  0  0
  2 23  1  0  0  0
  2 24  1  0  0  0
  3  4  1  0  0  0
  3 25  1  0  0  0
  3 26  1  0  0  0
  4  5  1  0  0  0
  4 27  1  0  0  0
  4 28  1  0  0  0
  5  6  1  0  0  0
  5  7  1  0  0  0
  5 29  1  0  0  0
  6 30  1  0  0  0
  6 31  1  0  0  0
  7  8  1  0  0  0
  7 32  1  0  0  0
  8  9  2  0  0  0
  8 10  1  0  0  0
 10 11  1  0  0  0
 10 33  1  0  0  0
 11 12  1  0  0  0
 11 34  1  0  0  0
 11 35  1  0  0  0
 12 13  1  0  0  0
 12 36  1  0  0  0
 12 37  1  0  0  0
 13 14  1  0  0  0
 13 38  1  0  0  0
 13 39  1  0  0  0
 14 15  1  0  0  0
 14 40  1  0  0  0
 14 41  1  0  0  0
 15 16  1  0  0  0
 15 42  1  0  0  0
 15 43  1  0  0  0
 16 17  1  0  0  0
 16 44  1  0  0  0
 16 45  1  0  0  0
 17 18  1  0  0  0
 17 46  1  0  0  0
 17 47  1  0  0  0
 18 19  1  0  0  0
 18 48  1  0  0  0
 18 49  1  0  0  0
 19 20  1  0  0  0
 19 50  1  0  0  0
 19 51  1  0  0  0
 20 52  1  0  0  0
 20 53  1  0  0  0
 20 54  1  0  0  0
M  END
> <s_m_source_file>
../1ek2_ligand.sdf

> <i_m_source_file_index>
1

> <s_epik_input>
W0NIMl0xW0NIMl1bQ0gyXVtDSDJdW0NIMl1bQ0hdMVtOSF1DKD1PKVtOSF1bQ0gyXVtDSDJdW0NIMl1bQ0gyXVtDSDJdW0NIMl1bQ0gyXVtDSDJdW0NIMl1bQ0gzXQ==

> <s_epik_cmdline>
J2VwaWtfYXBwJywgJy1pbWFlJywgJ2xpZ2FuZF9wcm8ubWFlJywgJy1vbWFlJywgJ2xpZ2FuZF9wcmVwLm1hZScsICctbXMnLCAnMScsICctcGgnLCAnNycsICctcGh0JywgJzAuNScsICctbnQn

> <r_lp_tautomer_probability>
1

> <r_epik_Ionization_Penalty>
  0.0001

> <r_epik_Ionization_Penalty_Charging>
  0.0000

> <r_epik_Ionization_Penalty_Neutral>
  0.0001

> <r_epik_State_Penalty>
 -0.0000

> <r_epik_Charging_Adjusted_Penalty>
0

> <i_epik_Tot_Q>
0

> <i_epik_Tot_abs_Q>
0

$$$$
