1ekb_ligand
                    3D
 Schrodinger Suite 2020-3.
 63 62  0  0  1  0            999 V2000
    6.4330   18.0640   16.5350 N   0  3  0  0  0  0
    7.2100   18.6820   15.4150 C   0  0  2  0  0  0
    6.8510   17.9470   14.1220 C   0  0  0  0  0  0
    5.6790   17.8310   13.7540 O   0  0  0  0  0  0
    8.7140   18.5340   15.7110 C   0  0  0  0  0  0
    9.5930   19.3730   14.8000 C   0  0  0  0  0  0
    9.0670   20.0920   13.9250 O   0  5  0  0  0  0
   10.8290   19.3150   14.9630 O   0  0  0  0  0  0
    7.8740   17.4720   13.4270 N   0  0  0  0  0  0
    7.6770   16.7080   12.2120 C   0  0  2  0  0  0
    7.6030   15.2690   12.7090 C   0  0  0  0  0  0
    7.1980   14.3640   11.9790 O   0  0  0  0  0  0
    8.8730   16.8780   11.2740 C   0  0  0  0  0  0
    8.9930   18.2900   10.7430 C   0  0  0  0  0  0
    7.9540   18.8510   10.3270 O   0  5  0  0  0  0
   10.1180   18.8380   10.7490 O   0  0  0  0  0  0
    7.9850   15.0770   13.9710 N   0  0  0  0  0  0
    7.9920   13.7550   14.5970 C   0  0  2  0  0  0
    6.6310   13.0930   14.5570 C   0  0  0  0  0  0
    5.6060   13.7510   14.6820 O   0  0  0  0  0  0
    8.4400   13.8530   16.0560 C   0  0  0  0  0  0
    9.8860   14.2980   16.2060 C   0  0  0  0  0  0
   10.7940   13.5950   15.7070 O   0  5  0  0  0  0
   10.1100   15.3540   16.8400 O   0  0  0  0  0  0
    6.6240   11.7800   14.3930 N   0  0  0  0  0  0
    5.3690   11.0530   14.3560 C   0  0  2  0  0  0
    5.1820   10.2220   15.6200 C   0  0  0  0  0  0
    4.0490   10.0730   16.0840 O   0  0  0  0  0  0
    5.3180   10.1570   13.1190 C   0  0  0  0  0  0
    5.3500   10.9310   11.8090 C   0  0  0  0  0  0
    5.5280   10.0060   10.6060 C   0  0  0  0  0  0
    5.5960   10.8040    9.3090 C   0  0  0  0  0  0
    5.6630    9.9310    8.1000 N   0  3  0  0  0  0
    5.3563   18.1643   16.3334 H   0  0  0  0  0  0
    6.6788   18.5752   17.4775 H   0  0  0  0  0  0
    6.6929   16.9983   16.6172 H   0  0  0  0  0  0
    6.9489   19.7470   15.3277 H   0  0  0  0  0  0
    8.9166   18.8472   16.7458 H   0  0  0  0  0  0
    9.0116   17.4830   15.5811 H   0  0  0  0  0  0
    8.8922   17.6701   13.7931 H   0  0  0  0  0  0
    6.7761   17.0529   11.6834 H   0  0  0  0  0  0
    9.8003   16.6385   11.8151 H   0  0  0  0  0  0
    8.7644   16.1999   10.4147 H   0  0  0  0  0  0
    8.3032   15.9593   14.5456 H   0  0  0  0  0  0
    8.6988   13.1726   13.9877 H   0  0  0  0  0  0
    7.8097   14.5831   16.5848 H   0  0  0  0  0  0
    8.3424   12.8683   16.5365 H   0  0  0  0  0  0
    7.5760   11.2397   14.2844 H   0  0  0  0  0  0
    4.5854   11.8235   14.3067 H   0  0  0  0  0  0
    5.5397    9.1972   15.4413 H   0  0  0  0  0  0
    5.7560   10.6724   16.4432 H   0  0  0  0  0  0
    3.9023    9.4753   16.9957 H   0  0  0  0  0  0
    6.1834    9.4780   13.1222 H   0  0  0  0  0  0
    4.3894    9.5675   13.1313 H   0  0  0  0  0  0
    4.4052   11.4805   11.6846 H   0  0  0  0  0  0
    6.1887   11.6425   11.8239 H   0  0  0  0  0  0
    6.4611    9.4344   10.7179 H   0  0  0  0  0  0
    4.6771    9.3112   10.5486 H   0  0  0  0  0  0
    4.6999   11.4358    9.2198 H   0  0  0  0  0  0
    6.4936   11.4398    9.3163 H   0  0  0  0  0  0
    5.7102   10.5578    7.1973 H   0  0  0  0  0  0
    4.7672    9.2939    8.0577 H   0  0  0  0  0  0
    6.5610    9.2980    8.1542 H   0  0  0  0  0  0
  1  2  1  0  0  0
  1 34  1  0  0  0
  1 35  1  0  0  0
  1 36  1  0  0  0
  2  3  1  0  0  0
  2  5  1  0  0  0
  2 37  1  0  0  0
  3  4  2  0  0  0
  3  9  1  0  0  0
  5  6  1  0  0  0
  5 38  1  0  0  0
  5 39  1  0  0  0
  6  7  1  0  0  0
  6  8  2  0  0  0
  9 10  1  0  0  0
  9 40  1  0  0  0
 10 11  1  0  0  0
 10 13  1  0  0  0
 10 41  1  0  0  0
 11 12  2  0  0  0
 11 17  1  0  0  0
 13 14  1  0  0  0
 13 42  1  0  0  0
 13 43  1  0  0  0
 14 15  1  0  0  0
 14 16  2  0  0  0
 17 18  1  0  0  0
 17 44  1  0  0  0
 18 19  1  0  0  0
 18 21  1  0  0  0
 18 45  1  0  0  0
 19 20  2  0  0  0
 19 25  1  0  0  0
 21 22  1  0  0  0
 21 46  1  0  0  0
 21 47  1  0  0  0
 22 23  1  0  0  0
 22 24  2  0  0  0
 25 26  1  0  0  0
 25 48  1  0  0  0
 26 27  1  0  0  0
 26 29  1  0  0  0
 26 49  1  0  0  0
 27 28  1  0  0  0
 27 50  1  0  0  0
 27 51  1  0  0  0
 28 52  1  0  0  0
 29 30  1  0  0  0
 29 53  1  0  0  0
 29 54  1  0  0  0
 30 31  1  0  0  0
 30 55  1  0  0  0
 30 56  1  0  0  0
 31 32  1  0  0  0
 31 57  1  0  0  0
 31 58  1  0  0  0
 32 33  1  0  0  0
 32 59  1  0  0  0
 32 60  1  0  0  0
 33 61  1  0  0  0
 33 62  1  0  0  0
 33 63  1  0  0  0
M  CHG  5   1   1   7  -1  15  -1  23  -1  33   1
M  END
> <s_m_source_file>
../1ekb_ligand.sdf

> <i_m_source_file_index>
1

> <s_epik_input>
W09IXUMoPU8pW0NIMl1bQ0BIXShbTkgzK10pQyg9TylbTkhdW0NAQEhdKFtDSDJdQyg9TylbT0hdKUMoPU8pW05IXVtDQEBIXShbQ0gyXUMoPU8pW09IXSlDKD1PKVtOSF1bQ0BIXShbQ0gyXVtPSF0pW0NIMl1bQ0gyXVtDSDJdW0NIMl1bTkgzK10=

> <s_epik_cmdline>
J2VwaWtfYXBwJywgJy1pbWFlJywgJ2xpZ2FuZF9wcm8ubWFlJywgJy1vbWFlJywgJ2xpZ2FuZF9wcmVwLm1hZScsICctbXMnLCAnMScsICctcGgnLCAnNycsICctcGh0JywgJzAuNScsICctbnQn

> <r_epik_Ionization_Penalty>
  0.0265

> <r_epik_Ionization_Penalty_Charging>
  0.0265

> <r_epik_Ionization_Penalty_Neutral>
  0.0000

> <r_epik_State_Penalty>
  0.0159

> <r_epik_Charging_Adjusted_Penalty>
0.0424483923581617

> <i_epik_Tot_Q>
-1

> <i_epik_Tot_abs_Q>
5

$$$$
