1ela_ligand
                    3D
 Schrodinger Suite 2020-3.
 64 65  0  0  1  0            999 V2000
   41.0260   23.4570   37.5520 C   0  0  0  0  0  0
   40.5080   23.4910   36.4290 O   0  0  0  0  0  0
   41.3570   24.7770   38.3540 C   0  0  0  0  0  0
   40.3210   25.6100   38.3690 F   0  0  0  0  0  0
   41.6550   24.6140   39.6510 F   0  0  0  0  0  0
   42.3640   25.4820   37.8480 F   0  0  0  0  0  0
   41.3550   22.2730   38.1070 N   0  0  0  0  0  0
   40.9500   20.9670   37.6240 C   0  0  2  0  0  0
   39.4240   20.9590   37.3850 C   0  0  0  0  0  0
   38.7000   21.3740   38.2770 O   0  0  0  0  0  0
   41.4240   19.9850   38.7160 C   0  0  0  0  0  0
   40.6820   18.6700   38.8800 C   0  0  0  0  0  0
   41.5880   17.4430   38.7380 C   0  0  0  0  0  0
   40.6760   16.2380   38.4700 C   0  0  0  0  0  0
   41.4070   14.9900   38.4870 N   0  3  0  0  0  0
   38.8360   20.5900   36.2350 N   0  0  0  0  0  0
   37.3820   20.3770   36.1140 C   0  0  2  0  0  0
   36.9250   19.0660   36.7880 C   0  0  0  0  0  0
   36.9440   17.9560   36.2220 O   0  0  0  0  0  0
   37.1460   20.4590   34.6080 C   0  0  0  0  0  0
   38.4480   19.9870   33.9860 C   0  0  0  0  0  0
   39.5430   20.4350   34.9620 C   0  0  0  0  0  0
   36.5850   19.3630   38.0670 N   0  0  0  0  0  0
   36.2230   18.4440   39.0040 C   0  0  0  0  0  0
   36.6700   17.1060   38.9640 C   0  0  0  0  0  0
   36.3750   16.2270   40.0160 C   0  0  0  0  0  0
   35.6300   16.6700   41.1260 C   0  0  0  0  0  0
   35.1810   17.9950   41.1620 C   0  0  0  0  0  0
   35.4700   18.8690   40.1080 C   0  0  0  0  0  0
   35.3340   15.7380   42.3120 C   0  0  0  0  0  0
   36.1110   14.4050   42.2320 C   0  0  0  0  0  0
   33.8640   15.4850   42.2850 C   0  0  0  0  0  0
   41.9875   22.3562   39.0031 H   0  0  0  0  0  0
   41.4189   20.7380   36.6557 H   0  0  0  0  0  0
   42.4674   19.6961   38.5215 H   0  0  0  0  0  0
   41.3555   20.4706   39.7006 H   0  0  0  0  0  0
   40.2233   18.6299   39.8790 H   0  0  0  0  0  0
   39.8973   18.5936   38.1129 H   0  0  0  0  0  0
   42.2844   17.5964   37.9005 H   0  0  0  0  0  0
   42.1584   17.2988   39.6674 H   0  0  0  0  0  0
   39.8959   16.1893   39.2440 H   0  0  0  0  0  0
   40.2056   16.3468   37.4816 H   0  0  0  0  0  0
   40.7154   14.1573   38.2910 H   0  0  0  0  0  0
   41.8758   14.8531   39.4726 H   0  0  0  0  0  0
   42.1856   15.0106   37.7103 H   0  0  0  0  0  0
   36.8067   21.1451   36.6515 H   0  0  0  0  0  0
   36.3030   19.8081   34.3330 H   0  0  0  0  0  0
   36.9136   21.4974   34.3293 H   0  0  0  0  0  0
   38.4263   18.8927   33.8762 H   0  0  0  0  0  0
   38.5718   20.4524   32.9970 H   0  0  0  0  0  0
   39.9905   21.3970   34.6716 H   0  0  0  0  0  0
   40.3357   19.6803   35.0723 H   0  0  0  0  0  0
   36.5901   20.4085   38.4088 H   0  0  0  0  0  0
   37.2483   16.7536   38.1099 H   0  0  0  0  0  0
   36.7242   15.1953   39.9744 H   0  0  0  0  0  0
   34.6029   18.3482   42.0159 H   0  0  0  0  0  0
   35.1044   19.8952   40.1457 H   0  0  0  0  0  0
   35.6247   16.2168   43.2587 H   0  0  0  0  0  0
   37.1918   14.6088   42.2530 H   0  0  0  0  0  0
   35.8538   13.8862   41.2967 H   0  0  0  0  0  0
   35.8407   13.7710   43.0893 H   0  0  0  0  0  0
   33.3260   16.4427   42.3426 H   0  0  0  0  0  0
   33.5845   14.8553   43.1425 H   0  0  0  0  0  0
   33.5976   14.9705   41.3500 H   0  0  0  0  0  0
  1  2  2  0  0  0
  1  3  1  0  0  0
  1  7  1  0  0  0
  3  4  1  0  0  0
  3  5  1  0  0  0
  3  6  1  0  0  0
  7  8  1  0  0  0
  7 33  1  0  0  0
  8 11  1  0  0  0
  8  9  1  0  0  0
  8 34  1  0  0  0
  9 10  2  0  0  0
  9 16  1  0  0  0
 11 12  1  0  0  0
 11 35  1  0  0  0
 11 36  1  0  0  0
 12 13  1  0  0  0
 12 37  1  0  0  0
 12 38  1  0  0  0
 13 14  1  0  0  0
 13 39  1  0  0  0
 13 40  1  0  0  0
 14 15  1  0  0  0
 14 41  1  0  0  0
 14 42  1  0  0  0
 15 43  1  0  0  0
 15 44  1  0  0  0
 15 45  1  0  0  0
 16 17  1  0  0  0
 16 22  1  0  0  0
 17 18  1  0  0  0
 17 20  1  0  0  0
 17 46  1  0  0  0
 18 19  2  0  0  0
 18 23  1  0  0  0
 20 21  1  0  0  0
 20 47  1  0  0  0
 20 48  1  0  0  0
 21 22  1  0  0  0
 21 49  1  0  0  0
 21 50  1  0  0  0
 22 51  1  0  0  0
 22 52  1  0  0  0
 23 24  1  0  0  0
 23 53  1  0  0  0
 24 25  2  0  0  0
 24 29  1  0  0  0
 25 26  1  0  0  0
 25 54  1  0  0  0
 26 27  2  0  0  0
 26 55  1  0  0  0
 27 28  1  0  0  0
 27 30  1  0  0  0
 28 29  2  0  0  0
 28 56  1  0  0  0
 29 57  1  0  0  0
 30 31  1  0  0  0
 30 32  1  0  0  0
 30 58  1  0  0  0
 31 59  1  0  0  0
 31 60  1  0  0  0
 31 61  1  0  0  0
 32 62  1  0  0  0
 32 63  1  0  0  0
 32 64  1  0  0  0
M  CHG  1  15   1
M  END
> <s_m_source_file>
../1ela_ligand.sdf

> <i_m_source_file_index>
1

> <s_epik_input>
W05IMytdW0NIMl1bQ0gyXVtDSDJdW0NIMl1bQ0BIXShbTkhdQyg9TylDKEYpKEYpRilDKD1PKU4xW0NAQEhdKFtDSDJdW0NIMl1bQ0gyXTEpQyg9TylbTkhdYzJbY0hdW2NIXWMoW2NIXVtjSF0yKVtDSF0oW0NIM10pW0NIM10=

> <s_epik_cmdline>
J2VwaWtfYXBwJywgJy1pbWFlJywgJ2xpZ2FuZF9wcm8ubWFlJywgJy1vbWFlJywgJ2xpZ2FuZF9wcmVwLm1hZScsICctbXMnLCAnMScsICctcGgnLCAnNycsICctcGh0JywgJzAuNScsICctbnQn

> <r_lp_tautomer_probability>
1

> <r_epik_Ionization_Penalty>
  0.0007

> <r_epik_Ionization_Penalty_Charging>
  0.0005

> <r_epik_Ionization_Penalty_Neutral>
  0.0002

> <r_epik_State_Penalty>
 -0.0000

> <r_epik_Charging_Adjusted_Penalty>
0.000485987556915926

> <i_epik_Tot_Q>
1

> <i_epik_Tot_abs_Q>
1

$$$$
