1elb_ligand
                    3D
 Schrodinger Suite 2020-3.
 69 69  0  0  1  0            999 V2000
   43.2350   20.8140   35.7780 C   0  0  0  0  0  0
   42.9080   19.9720   34.9160 O   0  0  0  0  0  0
   44.0100   22.1540   35.4490 C   0  0  0  0  0  0
   45.1590   22.3250   36.0450 F   0  0  0  0  0  0
   44.2650   22.4010   34.1750 F   0  0  0  0  0  0
   43.2850   23.1710   35.8590 F   0  0  0  0  0  0
   43.0130   20.5400   37.0850 N   0  0  0  0  0  0
   42.0630   19.5230   37.5010 C   0  0  2  0  0  0
   41.0600   20.3810   38.2600 C   0  0  0  0  0  0
   40.6280   20.0570   39.3690 O   0  0  0  0  0  0
   42.6420   18.4860   38.4520 C   0  0  0  0  0  0
   42.4980   17.0670   37.9460 C   0  0  0  0  0  0
   41.0750   16.5680   38.1170 C   0  0  0  0  0  0
   40.9830   15.0620   37.8910 C   0  0  0  0  0  0
   39.6060   14.6180   38.0590 N   0  3  0  0  0  0
   40.7660   21.5380   37.6270 N   0  0  0  0  0  0
   39.7140   22.4420   38.0170 C   0  0  2  0  0  0
   38.5900   21.6150   37.3970 C   0  0  0  0  0  0
   38.1910   21.7400   36.2420 O   0  0  0  0  0  0
   39.9830   23.8480   37.3740 C   0  0  0  0  0  0
   41.0410   24.8200   37.9770 C   0  0  0  0  0  0
   40.4360   26.1060   38.4180 C   0  0  0  0  0  0
   41.4610   24.4040   39.3330 C   0  0  0  0  0  0
   38.0760   20.8720   38.3950 N   0  0  0  0  0  0
   37.5070   19.6690   38.1880 C   0  0  0  0  0  0
   36.7500   19.3150   37.0760 C   0  0  0  0  0  0
   36.3940   17.9830   36.8960 C   0  0  0  0  0  0
   36.7790   17.0180   37.8240 C   0  0  0  0  0  0
   37.5040   17.3890   38.9220 C   0  0  0  0  0  0
   37.8600   18.6990   39.0980 C   0  0  0  0  0  0
   36.4700   15.5280   37.6480 C   0  0  0  0  0  0
   36.6970   15.1050   36.1960 C   0  0  0  0  0  0
   35.0870   15.2850   38.2240 C   0  0  0  0  0  0
   43.5739   21.1104   37.8400 H   0  0  0  0  0  0
   41.7078   18.9571   36.6272 H   0  0  0  0  0  0
   43.7151   18.6798   38.5967 H   0  0  0  0  0  0
   42.1245   18.5474   39.4207 H   0  0  0  0  0  0
   42.7577   17.0306   36.8777 H   0  0  0  0  0  0
   43.1727   16.4063   38.5101 H   0  0  0  0  0  0
   40.7288   16.7899   39.1372 H   0  0  0  0  0  0
   40.4202   17.0709   37.3901 H   0  0  0  0  0  0
   41.3191   14.8231   36.8712 H   0  0  0  0  0  0
   41.6229   14.5422   38.6192 H   0  0  0  0  0  0
   39.5483   13.5319   37.8945 H   0  0  0  0  0  0
   38.9630   15.1338   37.3307 H   0  0  0  0  0  0
   39.2668   14.8530   39.0787 H   0  0  0  0  0  0
   41.3971   21.7712   36.7567 H   0  0  0  0  0  0
   39.5862   22.6528   39.0890 H   0  0  0  0  0  0
   40.3201   23.7176   36.3351 H   0  0  0  0  0  0
   39.0563   24.4406   37.3871 H   0  0  0  0  0  0
   41.8329   24.8850   37.2163 H   0  0  0  0  0  0
   40.0281   26.6375   37.5456 H   0  0  0  0  0  0
   41.2057   26.7274   38.8991 H   0  0  0  0  0  0
   39.6270   25.9037   39.1353 H   0  0  0  0  0  0
   41.9627   23.4266   39.2777 H   0  0  0  0  0  0
   40.5769   24.3262   39.9829 H   0  0  0  0  0  0
   42.1557   25.1499   39.7466 H   0  0  0  0  0  0
   38.1107   21.2421   39.4303 H   0  0  0  0  0  0
   36.4400   20.0717   36.3553 H   0  0  0  0  0  0
   35.8098   17.6920   36.0230 H   0  0  0  0  0  0
   37.7989   16.6410   39.6580 H   0  0  0  0  0  0
   38.4364   18.9803   39.9793 H   0  0  0  0  0  0
   37.1484   14.8681   38.2086 H   0  0  0  0  0  0
   37.7326   15.3347   35.9048 H   0  0  0  0  0  0
   36.0022   15.6521   35.5418 H   0  0  0  0  0  0
   36.5195   14.0239   36.0970 H   0  0  0  0  0  0
   35.0583   15.6317   39.2675 H   0  0  0  0  0  0
   34.8588   14.2095   38.1885 H   0  0  0  0  0  0
   34.3415   15.8377   37.6334 H   0  0  0  0  0  0
  1  3  1  0  0  0
  1  2  2  0  0  0
  1  7  1  0  0  0
  3  6  1  0  0  0
  3  5  1  0  0  0
  3  4  1  0  0  0
  7  8  1  0  0  0
  7 34  1  0  0  0
  8  9  1  0  0  0
  8 11  1  0  0  0
  8 35  1  0  0  0
  9 10  2  0  0  0
  9 16  1  0  0  0
 11 12  1  0  0  0
 11 36  1  0  0  0
 11 37  1  0  0  0
 12 13  1  0  0  0
 12 38  1  0  0  0
 12 39  1  0  0  0
 13 14  1  0  0  0
 13 40  1  0  0  0
 13 41  1  0  0  0
 14 15  1  0  0  0
 14 42  1  0  0  0
 14 43  1  0  0  0
 15 44  1  0  0  0
 15 45  1  0  0  0
 15 46  1  0  0  0
 16 17  1  0  0  0
 16 47  1  0  0  0
 17 18  1  0  0  0
 17 20  1  0  0  0
 17 48  1  0  0  0
 18 19  2  0  0  0
 18 24  1  0  0  0
 20 21  1  0  0  0
 20 49  1  0  0  0
 20 50  1  0  0  0
 21 23  1  0  0  0
 21 22  1  0  0  0
 21 51  1  0  0  0
 22 52  1  0  0  0
 22 53  1  0  0  0
 22 54  1  0  0  0
 23 55  1  0  0  0
 23 56  1  0  0  0
 23 57  1  0  0  0
 24 25  1  0  0  0
 24 58  1  0  0  0
 25 30  2  0  0  0
 25 26  1  0  0  0
 26 27  2  0  0  0
 26 59  1  0  0  0
 27 28  1  0  0  0
 27 60  1  0  0  0
 28 31  1  0  0  0
 28 29  2  0  0  0
 29 30  1  0  0  0
 29 61  1  0  0  0
 30 62  1  0  0  0
 31 33  1  0  0  0
 31 32  1  0  0  0
 31 63  1  0  0  0
 32 64  1  0  0  0
 32 65  1  0  0  0
 32 66  1  0  0  0
 33 67  1  0  0  0
 33 68  1  0  0  0
 33 69  1  0  0  0
M  CHG  1  15   1
M  END
> <s_m_source_file>
../1elb_ligand.sdf

> <i_m_source_file_index>
1

> <s_epik_input>
W05IMytdW0NIMl1bQ0gyXVtDSDJdW0NIMl1bQ0BIXShbTkhdQyg9TylDKEYpKEYpRilDKD1PKVtOSF1bQ0BASF0oW0NIMl1bQ0hdKFtDSDNdKVtDSDNdKUMoPU8pW05IXWMxW2NIXVtjSF1jKFtjSF1bY0hdMSlbQ0hdKFtDSDNdKVtDSDNd

> <s_epik_cmdline>
J2VwaWtfYXBwJywgJy1pbWFlJywgJ2xpZ2FuZF9wcm8ubWFlJywgJy1vbWFlJywgJ2xpZ2FuZF9wcmVwLm1hZScsICctbXMnLCAnMScsICctcGgnLCAnNycsICctcGh0JywgJzAuNScsICctbnQn

> <r_lp_tautomer_probability>
1

> <r_epik_Ionization_Penalty>
  0.0007

> <r_epik_Ionization_Penalty_Charging>
  0.0005

> <r_epik_Ionization_Penalty_Neutral>
  0.0002

> <r_epik_State_Penalty>
 -0.0000

> <r_epik_Charging_Adjusted_Penalty>
0.000487214421235778

> <i_epik_Tot_Q>
1

> <i_epik_Tot_abs_Q>
1

$$$$
