1elc_ligand
                    3D
 Schrodinger Suite 2020-3.
 70 71  0  0  1  0            999 V2000
   42.8050   20.7570   36.2120 C   0  0  0  0  0  0
   43.2220   19.6600   35.7850 O   0  0  0  0  0  0
   43.3350   22.1690   35.5980 C   0  0  0  0  0  0
   44.5760   22.5880   35.9040 F   0  0  0  0  0  0
   43.3400   22.1380   34.2310 F   0  0  0  0  0  0
   42.5450   23.2360   35.9070 F   0  0  0  0  0  0
   41.9850   20.7120   37.3110 N   0  0  0  0  0  0
   41.1470   19.5470   37.7390 C   0  0  2  0  0  0
   39.9350   20.2470   38.3590 C   0  0  0  0  0  0
   39.5500   20.1350   39.5140 O   0  0  0  0  0  0
   41.6950   18.6340   38.8360 C   0  0  0  0  0  0
   41.7310   17.1930   38.3090 C   0  0  0  0  0  0
   42.0520   16.1940   39.4090 C   0  0  0  0  0  0
   42.4190   14.8100   38.8540 C   0  0  0  0  0  0
   43.7640   14.7820   38.3030 N   0  3  0  0  0  0
   39.2820   20.8490   37.3710 N   0  0  0  0  0  0
   38.3090   21.8990   37.4870 C   0  0  2  0  0  0
   36.8880   21.5760   36.9920 C   0  0  0  0  0  0
   36.1860   20.7300   37.5860 O   0  0  0  0  0  0
   39.0710   22.9630   36.7310 C   0  0  0  0  0  0
   39.5100   24.0670   37.6060 C   0  0  0  0  0  0
   40.4130   23.8390   38.6290 C   0  0  0  0  0  0
   38.9750   25.3110   37.3900 C   0  0  0  0  0  0
   40.7890   24.8850   39.4520 C   0  0  0  0  0  0
   39.3470   26.3550   38.2160 C   0  0  0  0  0  0
   40.2460   26.1450   39.2320 C   0  0  0  0  0  0
   36.5460   22.4810   36.0050 N   0  0  0  0  0  0
   35.5440   22.3810   35.1150 C   0  0  0  0  0  0
   35.2290   21.1470   34.5420 C   0  0  0  0  0  0
   34.3760   21.0890   33.4530 C   0  0  0  0  0  0
   33.8090   22.2580   32.9150 C   0  0  0  0  0  0
   34.1070   23.5020   33.4970 C   0  0  0  0  0  0
   34.9690   23.5580   34.5920 C   0  0  0  0  0  0
   32.9050   22.1250   31.6650 C   0  0  0  0  0  0
   33.7410   21.4370   30.5710 C   0  0  0  0  0  0
   32.3370   23.4620   31.2430 C   0  0  0  0  0  0
   41.9767   21.6412   37.8996 H   0  0  0  0  0  0
   41.0283   18.8973   36.8593 H   0  0  0  0  0  0
   42.7108   18.9566   39.1080 H   0  0  0  0  0  0
   41.0431   18.6911   39.7202 H   0  0  0  0  0  0
   40.7502   16.9334   37.8840 H   0  0  0  0  0  0
   42.5027   17.1067   37.5299 H   0  0  0  0  0  0
   42.9048   16.5602   39.9994 H   0  0  0  0  0  0
   41.1763   16.0759   40.0641 H   0  0  0  0  0  0
   42.3635   14.0648   39.6612 H   0  0  0  0  0  0
   41.7149   14.5372   38.0541 H   0  0  0  0  0  0
   43.9819   13.7746   37.9189 H   0  0  0  0  0  0
   44.4881   15.0389   39.0902 H   0  0  0  0  0  0
   43.8396   15.5114   37.4831 H   0  0  0  0  0  0
   39.5564   20.4605   36.3791 H   0  0  0  0  0  0
   38.0685   22.1357   38.5340 H   0  0  0  0  0  0
   39.9653   22.5168   36.2715 H   0  0  0  0  0  0
   38.4277   23.3865   35.9456 H   0  0  0  0  0  0
   40.8252   22.8421   38.7853 H   0  0  0  0  0  0
   38.2662   25.4743   36.5782 H   0  0  0  0  0  0
   41.5009   24.7233   40.2614 H   0  0  0  0  0  0
   38.9253   27.3480   38.0602 H   0  0  0  0  0  0
   40.5373   26.9765   39.8737 H   0  0  0  0  0  0
   37.1243   23.4091   35.8854 H   0  0  0  0  0  0
   35.6541   20.2307   34.9516 H   0  0  0  0  0  0
   34.1405   20.1231   33.0061 H   0  0  0  0  0  0
   33.6681   24.4156   33.0959 H   0  0  0  0  0  0
   35.2006   24.5206   35.0480 H   0  0  0  0  0  0
   32.0059   21.5251   31.8691 H   0  0  0  0  0  0
   34.1188   20.4754   30.9486 H   0  0  0  0  0  0
   34.5889   22.0821   30.2974 H   0  0  0  0  0  0
   33.1127   21.2618   29.6852 H   0  0  0  0  0  0
   31.7548   23.8911   32.0718 H   0  0  0  0  0  0
   31.6835   23.3234   30.3691 H   0  0  0  0  0  0
   33.1597   24.1437   30.9812 H   0  0  0  0  0  0
  1  2  2  0  0  0
  1  3  1  0  0  0
  1  7  1  0  0  0
  3  4  1  0  0  0
  3  5  1  0  0  0
  3  6  1  0  0  0
  7  8  1  0  0  0
  7 37  1  0  0  0
  8 11  1  0  0  0
  8  9  1  0  0  0
  8 38  1  0  0  0
  9 10  2  0  0  0
  9 16  1  0  0  0
 11 12  1  0  0  0
 11 39  1  0  0  0
 11 40  1  0  0  0
 12 13  1  0  0  0
 12 41  1  0  0  0
 12 42  1  0  0  0
 13 14  1  0  0  0
 13 43  1  0  0  0
 13 44  1  0  0  0
 14 15  1  0  0  0
 14 45  1  0  0  0
 14 46  1  0  0  0
 15 47  1  0  0  0
 15 48  1  0  0  0
 15 49  1  0  0  0
 16 17  1  0  0  0
 16 50  1  0  0  0
 17 20  1  0  0  0
 17 18  1  0  0  0
 17 51  1  0  0  0
 18 19  2  0  0  0
 18 27  1  0  0  0
 20 21  1  0  0  0
 20 52  1  0  0  0
 20 53  1  0  0  0
 21 22  2  0  0  0
 21 23  1  0  0  0
 22 24  1  0  0  0
 22 54  1  0  0  0
 23 25  2  0  0  0
 23 55  1  0  0  0
 24 26  2  0  0  0
 24 56  1  0  0  0
 25 26  1  0  0  0
 25 57  1  0  0  0
 26 58  1  0  0  0
 27 28  1  0  0  0
 27 59  1  0  0  0
 28 29  2  0  0  0
 28 33  1  0  0  0
 29 30  1  0  0  0
 29 60  1  0  0  0
 30 31  2  0  0  0
 30 61  1  0  0  0
 31 32  1  0  0  0
 31 34  1  0  0  0
 32 33  2  0  0  0
 32 62  1  0  0  0
 33 63  1  0  0  0
 34 35  1  0  0  0
 34 36  1  0  0  0
 34 64  1  0  0  0
 35 65  1  0  0  0
 35 66  1  0  0  0
 35 67  1  0  0  0
 36 68  1  0  0  0
 36 69  1  0  0  0
 36 70  1  0  0  0
M  CHG  1  15   1
M  END
> <s_m_source_file>
../1elc_ligand.sdf

> <i_m_source_file_index>
1

> <s_epik_input>
W05IMytdW0NIMl1bQ0gyXVtDSDJdW0NIMl1bQ0BIXShbTkhdQyg9TylDKEYpKEYpRilDKD1PKVtOSF1bQ0BASF0oW0NIMl1jMVtjSF1bY0hdW2NIXVtjSF1bY0hdMSlDKD1PKVtOSF1jMltjSF1bY0hdYyhbY0hdW2NIXTIpW0NIXShbQ0gzXSlbQ0gzXQ==

> <s_epik_cmdline>
J2VwaWtfYXBwJywgJy1pbWFlJywgJ2xpZ2FuZF9wcm8ubWFlJywgJy1vbWFlJywgJ2xpZ2FuZF9wcmVwLm1hZScsICctbXMnLCAnMScsICctcGgnLCAnNycsICctcGh0JywgJzAuNScsICctbnQn

> <r_lp_tautomer_probability>
1

> <r_epik_Ionization_Penalty>
  0.0007

> <r_epik_Ionization_Penalty_Charging>
  0.0005

> <r_epik_Ionization_Penalty_Neutral>
  0.0002

> <r_epik_State_Penalty>
 -0.0000

> <r_epik_Charging_Adjusted_Penalty>
0.000487214421235778

> <i_epik_Tot_Q>
1

> <i_epik_Tot_abs_Q>
1

$$$$
