1ele_ligand
                    3D
 Schrodinger Suite 2020-3.
 48 48  0  0  1  0            999 V2000
   40.8590   23.4540   37.6320 C   0  0  0  0  0  0
   41.3060   24.6440   38.5650 C   0  0  0  0  0  0
   40.2220   23.6390   36.5760 O   0  0  0  0  0  0
   41.9710   24.3170   39.6950 F   0  0  0  0  0  0
   42.1280   25.5110   37.9410 F   0  0  0  0  0  0
   40.2340   25.3420   38.9410 F   0  0  0  0  0  0
   41.1110   22.2030   38.0830 N   0  0  0  0  0  0
   40.8200   21.0120   37.3320 C   0  0  2  0  0  0
   39.2950   20.8540   37.3190 C   0  0  0  0  0  0
   38.6170   21.1530   38.3050 O   0  0  0  0  0  0
   41.6940   19.9010   38.0520 C   0  0  0  0  0  0
   41.0330   19.3510   39.2860 C   0  0  0  0  0  0
   42.0020   18.8020   37.0560 C   0  0  0  0  0  0
   38.7360   20.5480   36.1290 N   0  0  0  0  0  0
   37.2910   20.3340   36.0160 C   0  0  2  0  0  0
   37.0260   18.9830   36.6670 C   0  0  0  0  0  0
   37.4970   17.9290   36.2080 O   0  0  0  0  0  0
   36.8060   20.2580   34.5640 C   0  0  0  0  0  0
   36.3390   19.2080   37.8080 N   0  0  0  0  0  0
   36.0000   18.2370   38.6900 C   0  0  0  0  0  0
   35.3850   18.6370   39.8610 C   0  0  0  0  0  0
   35.0570   17.7240   40.8230 C   0  0  0  0  0  0
   35.3420   16.3720   40.6360 C   0  0  0  0  0  0
   35.9500   15.9680   39.4500 C   0  0  0  0  0  0
   36.2750   16.8880   38.4890 C   0  0  0  0  0  0
   35.0370   15.3260   41.7800 C   0  0  0  0  0  0
   35.4180   14.0140   41.6140 F   0  0  0  0  0  0
   35.6500   15.7270   42.8940 F   0  0  0  0  0  0
   33.7330   15.3160   42.0820 F   0  0  0  0  0  0
   41.5636   22.1260   39.0826 H   0  0  0  0  0  0
   41.0833   21.0691   36.2655 H   0  0  0  0  0  0
   42.6419   20.3166   38.4244 H   0  0  0  0  0  0
   40.8234   20.1726   39.9868 H   0  0  0  0  0  0
   41.7018   18.6213   39.7659 H   0  0  0  0  0  0
   40.0904   18.8569   39.0078 H   0  0  0  0  0  0
   42.4835   19.2367   36.1676 H   0  0  0  0  0  0
   41.0674   18.3034   36.7595 H   0  0  0  0  0  0
   42.6787   18.0679   37.5177 H   0  0  0  0  0  0
   39.3763   20.4598   35.2389 H   0  0  0  0  0  0
   36.8003   21.1904   36.5017 H   0  0  0  0  0  0
   36.9850   21.2227   34.0667 H   0  0  0  0  0  0
   35.7297   20.0315   34.5483 H   0  0  0  0  0  0
   37.3553   19.4653   34.0350 H   0  0  0  0  0  0
   36.0208   20.2288   38.0662 H   0  0  0  0  0  0
   35.1593   19.6916   40.0188 H   0  0  0  0  0  0
   34.5703   18.0540   41.7408 H   0  0  0  0  0  0
   36.1686   14.9129   39.2856 H   0  0  0  0  0  0
   36.7506   16.5624   37.5638 H   0  0  0  0  0  0
  1  3  2  0  0  0
  1  2  1  0  0  0
  1  7  1  0  0  0
  2  6  1  0  0  0
  2  5  1  0  0  0
  2  4  1  0  0  0
  7  8  1  0  0  0
  7 30  1  0  0  0
  8  9  1  0  0  0
  8 11  1  0  0  0
  8 31  1  0  0  0
  9 10  2  0  0  0
  9 14  1  0  0  0
 11 12  1  0  0  0
 11 13  1  0  0  0
 11 32  1  0  0  0
 12 33  1  0  0  0
 12 34  1  0  0  0
 12 35  1  0  0  0
 13 36  1  0  0  0
 13 37  1  0  0  0
 13 38  1  0  0  0
 14 15  1  0  0  0
 14 39  1  0  0  0
 15 16  1  0  0  0
 15 18  1  0  0  0
 15 40  1  0  0  0
 16 17  2  0  0  0
 16 19  1  0  0  0
 18 41  1  0  0  0
 18 42  1  0  0  0
 18 43  1  0  0  0
 19 20  1  0  0  0
 19 44  1  0  0  0
 20 25  2  0  0  0
 20 21  1  0  0  0
 21 22  2  0  0  0
 21 45  1  0  0  0
 22 23  1  0  0  0
 22 46  1  0  0  0
 23 26  1  0  0  0
 23 24  2  0  0  0
 24 25  1  0  0  0
 24 47  1  0  0  0
 25 48  1  0  0  0
 26 29  1  0  0  0
 26 28  1  0  0  0
 26 27  1  0  0  0
M  END
> <s_m_source_file>
../1ele_ligand.sdf

> <i_m_source_file_index>
1

> <s_epik_input>
RkMoRikoRilDKD1PKVtOSF1bQ0BASF0oW0NIXShbQ0gzXSlbQ0gzXSlDKD1PKVtOSF1bQ0BASF0oW0NIM10pQyg9TylbTkhdYzFbY0hdW2NIXWMoQyhGKShGKUYpW2NIXVtjSF0x

> <s_epik_cmdline>
J2VwaWtfYXBwJywgJy1pbWFlJywgJ2xpZ2FuZF9wcm8ubWFlJywgJy1vbWFlJywgJ2xpZ2FuZF9wcmVwLm1hZScsICctbXMnLCAnMScsICctcGgnLCAnNycsICctcGh0JywgJzAuNScsICctbnQn

> <r_lp_tautomer_probability>
1

> <r_epik_Ionization_Penalty>
  0.0002

> <r_epik_Ionization_Penalty_Charging>
  0.0000

> <r_epik_Ionization_Penalty_Neutral>
  0.0002

> <r_epik_State_Penalty>
 -0.0000

> <r_epik_Charging_Adjusted_Penalty>
0

> <i_epik_Tot_Q>
0

> <i_epik_Tot_abs_Q>
0

$$$$
