1elr_ligand
                    3D
 Schrodinger Suite 2020-3.
 82 81  0  0  1  0            999 V2000
   29.7870    6.1460   14.2530 C   0  0  0  0  0  0
   29.5220    5.6090   13.1770 O   0  0  0  0  0  0
   31.0170    7.0030   14.4080 C   0  0  0  0  0  0
   29.0240    6.0220   15.3310 N   0  0  0  0  0  0
   27.8120    5.2070   15.3320 C   0  0  2  0  0  0
   26.6740    5.8570   14.5360 C   0  0  0  0  0  0
   26.6340    7.0800   14.3640 O   0  0  0  0  0  0
   27.3210    5.0030   16.7750 C   0  0  0  0  0  0
   28.3160    4.3950   17.7330 C   0  0  0  0  0  0
   27.6370    4.3870   19.4090 S   0  0  0  0  0  0
   26.4770    3.0390   19.2830 C   0  0  0  0  0  0
   25.7430    5.0300   14.0640 N   0  0  0  0  0  0
   24.5780    5.5300   13.3420 C   0  0  2  0  0  0
   23.8740    6.5100   14.2830 C   0  0  0  0  0  0
   23.8990    6.3250   15.4980 O   0  0  0  0  0  0
   23.6290    4.3700   12.9940 C   0  0  0  0  0  0
   24.1060    3.5000   11.8420 C   0  0  0  0  0  0
   24.1450    4.2770   10.5440 C   0  0  0  0  0  0
   23.0660    4.5980   10.0060 O   0  5  0  0  0  0
   25.2520    4.5890   10.0680 O   0  0  0  0  0  0
   23.2470    7.5410   13.7280 N   0  0  0  0  0  0
   22.5480    8.5480   14.5320 C   0  0  2  0  0  0
   21.1190    8.1540   14.8850 C   0  0  0  0  0  0
   20.3790    7.6990   14.0230 O   0  0  0  0  0  0
   22.4880    9.8810   13.7700 C   0  0  0  0  0  0
   23.8170   10.6070   13.6400 C   0  0  0  0  0  0
   23.7290   11.8320   12.7290 C   0  0  0  0  0  0
   22.7620   12.6220   12.8640 O   0  5  0  0  0  0
   24.6360   12.0030   11.8820 O   0  0  0  0  0  0
   20.7260    8.3320   16.1460 N   0  0  0  0  0  0
   19.3450    8.0420   16.5340 C   0  0  2  0  0  0
   18.6250    9.3680   16.7440 C   0  0  0  0  0  0
   19.2470   10.3740   17.1100 O   0  0  0  0  0  0
   19.2250    7.1830   17.8150 C   0  0  0  0  0  0
   19.6210    5.7350   17.5080 C   0  0  0  0  0  0
   20.0750    7.7570   18.9310 C   0  0  0  0  0  0
   17.3160    9.3620   16.5120 N   0  0  0  0  0  0
   16.4950   10.5580   16.6300 C   0  0  2  0  0  0
   15.5980   10.5480   17.8720 C   0  0  0  0  0  0
   15.4870    9.4870   18.5080 O   0  0  0  0  0  0
   15.6340   10.6840   15.3730 C   0  0  0  0  0  0
   16.4670   10.7630   14.1100 C   0  0  0  0  0  0
   17.1010   11.8130   13.8980 O   0  0  0  0  0  0
   16.5050    9.7720   13.3360 O   0  5  0  0  0  0
   15.0060   11.6050   18.1750 O   0  5  0  0  0  0
   31.5666    7.0312   13.4556 H   0  0  0  0  0  0
   31.6626    6.5795   15.1915 H   0  0  0  0  0  0
   30.7195    8.0237   14.6901 H   0  0  0  0  0  0
   29.3283    6.5562   16.2432 H   0  0  0  0  0  0
   28.1226    4.2678   14.8509 H   0  0  0  0  0  0
   27.0364    5.9741   17.2062 H   0  0  0  0  0  0
   26.4490    4.3324   16.7743 H   0  0  0  0  0  0
   28.5354    3.3615   17.4268 H   0  0  0  0  0  0
   29.2440    4.9856   17.7216 H   0  0  0  0  0  0
   25.9674    2.9024   20.2482 H   0  0  0  0  0  0
   27.0143    2.1164   19.0182 H   0  0  0  0  0  0
   25.7336    3.2666   18.5048 H   0  0  0  0  0  0
   25.8661    3.9493   14.2283 H   0  0  0  0  0  0
   24.9224    6.0099   12.4140 H   0  0  0  0  0  0
   23.5160    3.7135   13.8694 H   0  0  0  0  0  0
   22.6461    4.7733   12.7088 H   0  0  0  0  0  0
   25.1188    3.1290   12.0577 H   0  0  0  0  0  0
   23.4218    2.6476   11.7185 H   0  0  0  0  0  0
   23.2625    7.6266   12.6314 H   0  0  0  0  0  0
   23.1477    8.5996   15.4527 H   0  0  0  0  0  0
   22.1252    9.7025   12.7470 H   0  0  0  0  0  0
   21.8027   10.5686   14.2873 H   0  0  0  0  0  0
   24.1480   10.9465   14.6326 H   0  0  0  0  0  0
   24.5682    9.9238   13.2169 H   0  0  0  0  0  0
   21.4427    8.6979   16.8959 H   0  0  0  0  0  0
   18.9326    7.4650   15.6932 H   0  0  0  0  0  0
   18.1854    7.1944   18.1742 H   0  0  0  0  0  0
   18.9887    5.3462   16.6962 H   0  0  0  0  0  0
   19.4824    5.1183   18.4082 H   0  0  0  0  0  0
   20.6762    5.7011   17.1992 H   0  0  0  0  0  0
   19.7685    8.7948   19.1286 H   0  0  0  0  0  0
   21.1336    7.7378   18.6326 H   0  0  0  0  0  0
   19.9397    7.1550   19.8416 H   0  0  0  0  0  0
   16.8564    8.4059   16.2210 H   0  0  0  0  0  0
   17.2128   11.3853   16.7319 H   0  0  0  0  0  0
   14.9742    9.8077   15.2912 H   0  0  0  0  0  0
   15.0243   11.5974   15.4362 H   0  0  0  0  0  0
  1  2  2  0  0  0
  1  3  1  0  0  0
  1  4  1  0  0  0
  3 46  1  0  0  0
  3 47  1  0  0  0
  3 48  1  0  0  0
  4  5  1  0  0  0
  4 49  1  0  0  0
  5  8  1  0  0  0
  5  6  1  0  0  0
  5 50  1  0  0  0
  6  7  2  0  0  0
  6 12  1  0  0  0
  8  9  1  0  0  0
  8 51  1  0  0  0
  8 52  1  0  0  0
  9 10  1  0  0  0
  9 53  1  0  0  0
  9 54  1  0  0  0
 10 11  1  0  0  0
 11 55  1  0  0  0
 11 56  1  0  0  0
 11 57  1  0  0  0
 12 13  1  0  0  0
 12 58  1  0  0  0
 13 16  1  0  0  0
 13 14  1  0  0  0
 13 59  1  0  0  0
 14 15  2  0  0  0
 14 21  1  0  0  0
 16 17  1  0  0  0
 16 60  1  0  0  0
 16 61  1  0  0  0
 17 18  1  0  0  0
 17 62  1  0  0  0
 17 63  1  0  0  0
 18 20  2  0  0  0
 18 19  1  0  0  0
 21 22  1  0  0  0
 21 64  1  0  0  0
 22 25  1  0  0  0
 22 23  1  0  0  0
 22 65  1  0  0  0
 23 24  2  0  0  0
 23 30  1  0  0  0
 25 26  1  0  0  0
 25 66  1  0  0  0
 25 67  1  0  0  0
 26 27  1  0  0  0
 26 68  1  0  0  0
 26 69  1  0  0  0
 27 29  2  0  0  0
 27 28  1  0  0  0
 30 31  1  0  0  0
 30 70  1  0  0  0
 31 34  1  0  0  0
 31 32  1  0  0  0
 31 71  1  0  0  0
 32 33  2  0  0  0
 32 37  1  0  0  0
 34 36  1  0  0  0
 34 35  1  0  0  0
 34 72  1  0  0  0
 35 73  1  0  0  0
 35 74  1  0  0  0
 35 75  1  0  0  0
 36 76  1  0  0  0
 36 77  1  0  0  0
 36 78  1  0  0  0
 37 38  1  0  0  0
 37 79  1  0  0  0
 38 41  1  0  0  0
 38 39  1  0  0  0
 38 80  1  0  0  0
 39 40  2  0  0  0
 39 45  1  0  0  0
 41 42  1  0  0  0
 41 81  1  0  0  0
 41 82  1  0  0  0
 42 43  2  0  0  0
 42 44  1  0  0  0
M  CHG  4  19  -1  28  -1  44  -1  45  -1
M  END
> <s_m_source_file>
../1elr_ligand.sdf

> <i_m_source_file_index>
1

> <s_epik_input>
W0NIM11TW0NIMl1bQ0gyXVtDQEhdKFtOSF1DKD1PKVtDSDNdKUMoPU8pW05IXVtDQEBIXShbQ0gyXVtDSDJdQyg9TylbT0hdKUMoPU8pW05IXVtDQEBIXShbQ0gyXVtDSDJdQyg9TylbT0hdKUMoPU8pW05IXVtDQEBIXShbQ0hdKFtDSDNdKVtDSDNdKUMoPU8pW05IXVtDQEhdKEMoPU8pW09IXSlbQ0gyXUMoPU8pW09IXQ==

> <s_epik_cmdline>
J2VwaWtfYXBwJywgJy1pbWFlJywgJ2xpZ2FuZF9wcm8ubWFlJywgJy1vbWFlJywgJ2xpZ2FuZF9wcmVwLm1hZScsICctbXMnLCAnMScsICctcGgnLCAnNycsICctcGh0JywgJzAuNScsICctbnQn

> <r_lp_tautomer_probability>
1

> <r_epik_Ionization_Penalty>
  0.0049

> <r_epik_Ionization_Penalty_Charging>
  0.0049

> <r_epik_Ionization_Penalty_Neutral>
  0.0000

> <r_epik_State_Penalty>
 -0.0000

> <r_epik_Charging_Adjusted_Penalty>
0.00493139741622348

> <i_epik_Tot_Q>
-4

> <i_epik_Tot_abs_Q>
4

$$$$
