1em6_ligand
                    3D
 Schrodinger Suite 2020-3.
 57 60  0  0  1  0            999 V2000
   -6.1280   35.0740   73.0490 C   0  0  0  0  0  0
   -4.8670   34.6920   73.5100 C   0  0  0  0  0  0
   -5.8140   35.7050   71.7150 C   0  0  0  0  0  0
   -7.3100   34.8440   73.7970 C   0  0  0  0  0  0
   -3.9470   35.0350   72.5920 N   0  3  0  0  0  0
   -4.7000   34.0420   74.7690 C   0  0  0  0  0  0
   -4.4840   35.6220   71.5460 C   0  0  0  0  0  0
   -7.1730   34.1980   75.0640 C   0  0  0  0  0  0
   -5.8840   33.8020   75.5470 C   0  0  0  0  0  0
   -3.6730   36.1100   70.3930 C   0  0  0  0  0  0
   -8.5880   33.8840   76.0230 Cl  0  0  0  0  0  0
   -4.2650   36.7460   69.3280 N   0  0  0  0  0  0
   -2.4520   35.9340   70.4660 O   0  0  0  0  0  0
   -3.4750   37.3030   68.2180 C   0  0  0  0  0  0
   -3.6630   36.5930   66.8670 C   0  0  0  0  0  0
   -3.0110   35.3100   67.0030 O   0  0  0  0  0  0
   -1.6740   35.2240   66.4440 C   0  0  0  0  0  0
   -1.4970   33.7590   65.9740 C   0  0  0  0  0  0
   -2.4980   33.4600   64.9830 O   0  0  0  0  0  0
   -2.9110   32.0760   64.9520 C   0  0  0  0  0  0
   -2.2180   31.3660   63.7530 C   0  0  0  0  0  0
   -2.7510   31.7670   62.4360 N   0  0  0  0  0  0
   -2.0580   32.5990   61.6040 C   0  0  0  0  0  0
   -2.5830   32.9810   60.2520 C   0  0  0  0  0  0
   -0.9590   33.0560   61.9080 O   0  0  0  0  0  0
   -1.8460   33.6570   59.3900 N   0  0  0  0  0  0
   -3.7930   32.7110   59.7020 C   0  0  0  0  0  0
   -2.5020   33.8780   58.2300 C   0  0  0  0  0  0
   -3.7850   33.3100   58.3180 C   0  0  0  0  0  0
   -2.0660   34.5620   57.0560 C   0  0  0  0  0  0
   -4.7110   33.3750   57.2460 C   0  0  0  0  0  0
   -2.9880   34.6370   55.9630 C   0  0  0  0  0  0
   -4.2950   34.0490   56.0560 C   0  0  0  0  0  0
   -5.3900   34.1520   54.7060 Cl  0  0  0  0  0  0
   -6.4387   36.1734   70.9402 H   0  0  0  0  0  0
   -8.2863   35.1484   73.4199 H   0  0  0  0  0  0
   -3.7153   33.7400   75.1258 H   0  0  0  0  0  0
   -5.8002   33.3123   76.5172 H   0  0  0  0  0  0
   -5.3615   36.8327   69.3204 H   0  0  0  0  0  0
   -3.7530   38.3558   68.0622 H   0  0  0  0  0  0
   -2.4042   37.2388   68.4616 H   0  0  0  0  0  0
   -4.7371   36.4752   66.6611 H   0  0  0  0  0  0
   -3.2005   37.1934   66.0697 H   0  0  0  0  0  0
   -1.5835   35.9243   65.6005 H   0  0  0  0  0  0
   -0.9359   35.4839   67.2171 H   0  0  0  0  0  0
   -0.4948   33.6321   65.5387 H   0  0  0  0  0  0
   -1.6120   33.0818   66.8332 H   0  0  0  0  0  0
   -2.6193   31.5852   65.8922 H   0  0  0  0  0  0
   -4.0033   32.0218   64.8337 H   0  0  0  0  0  0
   -1.1440   31.6035   63.7572 H   0  0  0  0  0  0
   -2.3533   30.2781   63.8431 H   0  0  0  0  0  0
   -3.7306   31.3940   62.1023 H   0  0  0  0  0  0
   -4.6850   32.1805   60.0666 H   0  0  0  0  0  0
   -1.0593   35.0038   57.0187 H   0  0  0  0  0  0
   -5.7160   32.9316   57.3042 H   0  0  0  0  0  0
   -2.6934   35.1481   55.0465 H   0  0  0  0  0  0
   -2.8840   34.8150   72.7698 H   0  0  0  0  0  0
  1  2  2  0  0  0
  1  3  1  0  0  0
  1  4  1  0  0  0
  2  5  1  0  0  0
  2  6  1  0  0  0
  3  7  2  0  0  0
  3 35  1  0  0  0
  4  8  2  0  0  0
  4 36  1  0  0  0
  5  7  1  0  0  0
  5 57  1  0  0  0
  6  9  2  0  0  0
  6 37  1  0  0  0
  7 10  1  0  0  0
  8  9  1  0  0  0
  8 11  1  0  0  0
  9 38  1  0  0  0
 10 12  1  0  0  0
 10 13  2  0  0  0
 12 14  1  0  0  0
 12 39  1  0  0  0
 14 15  1  0  0  0
 14 40  1  0  0  0
 14 41  1  0  0  0
 15 16  1  0  0  0
 15 42  1  0  0  0
 15 43  1  0  0  0
 16 17  1  0  0  0
 17 18  1  0  0  0
 17 44  1  0  0  0
 17 45  1  0  0  0
 18 19  1  0  0  0
 18 46  1  0  0  0
 18 47  1  0  0  0
 19 20  1  0  0  0
 20 21  1  0  0  0
 20 48  1  0  0  0
 20 49  1  0  0  0
 21 22  1  0  0  0
 21 50  1  0  0  0
 21 51  1  0  0  0
 22 23  1  0  0  0
 22 52  1  0  0  0
 23 24  1  0  0  0
 23 25  2  0  0  0
 24 26  2  0  0  0
 24 27  1  0  0  0
 26 28  1  0  0  0
 27 29  2  0  0  0
 27 53  1  0  0  0
 28 29  1  0  0  0
 28 30  2  0  0  0
 29 31  1  0  0  0
 30 32  1  0  0  0
 30 54  1  0  0  0
 31 33  2  0  0  0
 31 55  1  0  0  0
 32 33  1  0  0  0
 32 56  1  0  0  0
 33 34  1  0  0  0
M  CHG  1   5   1
M  END
> <s_m_source_file>
../1em6_ligand.sdf

> <i_m_source_file_index>
1

> <s_epik_input>
W2NIXTFjKENsKVtjSF1bY0hdYyhjMTIpW25IXWMoW2NIXTIpQyg9TylbTkhdW0NIMl1bQ0gyXU9bQ0gyXVtDSDJdT1tDSDJdW0NIMl1bTkhdQyg9TylDKD1OMylbQ0hdPUMoQzM9NClbQ0hdPUMoQ2wpW0NIMl1bQ0hdNA==

> <s_epik_cmdline>
J2VwaWtfYXBwJywgJy1pbWFlJywgJ2xpZ2FuZF9wcm8ubWFlJywgJy1vbWFlJywgJ2xpZ2FuZF9wcmVwLm1hZScsICctbXMnLCAnMScsICctcGgnLCAnNycsICctcGh0JywgJzAuNScsICctbnQn

> <r_epik_Ionization_Penalty>
  0.0166

> <r_epik_Ionization_Penalty_Charging>
  0.0000

> <r_epik_Ionization_Penalty_Neutral>
  0.0166

> <r_epik_State_Penalty>
  0.0131

> <r_epik_Charging_Adjusted_Penalty>
0.0131332323973709

> <i_epik_Tot_Q>
1

> <i_epik_Tot_abs_Q>
1

> <s_epik_Chemistry_Notes>
This compound has an imine and may undergo hydrolysis.

$$$$
