1ent_ligand
                    3D
 Schrodinger Suite 2020-3.
 96 97  0  0  1  0            999 V2000
    1.9390   27.2090   19.7660 O   0  0  0  0  0  0
    2.7800   26.3810   19.3940 C   0  0  0  0  0  0
    2.5800   24.9860   19.5670 O   0  0  0  0  0  0
    1.4470   24.4840   20.2840 C   0  0  0  0  0  0
    1.3410   25.1590   21.6570 C   0  0  0  0  0  0
    1.6150   22.9680   20.4520 C   0  0  0  0  0  0
    0.1790   24.7600   19.4720 C   0  0  0  0  0  0
    3.9230   26.7030   18.8150 N   0  0  0  0  0  0
    4.2970   28.1010   18.5560 C   0  0  2  0  0  0
    3.4020   28.6710   17.4480 C   0  0  0  0  0  0
    2.9540   27.9280   16.5910 O   0  0  0  0  0  0
    5.7520   28.2010   18.1070 C   0  0  0  0  0  0
    6.7300   28.0020   19.2580 C   0  0  0  0  0  0
    6.7520   26.8100   19.9730 C   0  0  0  0  0  0
    7.6360   29.0090   19.5810 C   0  0  0  0  0  0
    7.6560   26.6430   21.0170 C   0  0  0  0  0  0
    8.5400   28.8390   20.6220 C   0  0  0  0  0  0
    8.5550   27.6410   21.3370 C   0  0  0  0  0  0
    3.1880   29.9620   17.5180 N   0  0  0  0  0  0
    2.3450   30.6710   16.5180 C   0  0  2  0  0  0
    3.0170   32.0150   16.2170 C   0  0  0  0  0  0
    2.5650   33.0570   16.6730 O   0  0  0  0  0  0
    0.9730   30.9290   17.1680 C   0  0  0  0  0  0
   -0.0270   31.3150   16.0920 C   0  0  0  0  0  0
   -1.4100   31.2680   16.2120 N   0  0  0  0  0  0
    0.2970   31.8100   14.8330 C   0  0  0  0  0  0
   -1.9510   31.7320   15.0200 C   0  0  0  0  0  0
   -0.8950   32.0800   14.1800 N   0  3  0  0  0  0
    4.0970   31.9570   15.4550 N   0  0  0  0  0  0
    4.8680   33.1420   15.0750 C   0  0  1  0  0  0
    6.3390   32.9510   15.4960 C   0  0  0  0  0  0
    6.4650   32.5330   16.9540 C   0  0  0  0  0  0
    7.9020   32.3100   17.3750 C   0  0  0  0  0  0
    5.8230   33.5630   17.9340 C   0  0  0  0  0  0
    4.8220   33.4490   13.2960 P   0  0  2  0  0  0
    5.1030   32.1610   12.5580 O   0  5  0  0  0  0
    5.8340   34.5250   13.0150 O   0  0  0  0  0  0
    3.2250   34.1140   12.7590 C   0  0  0  0  0  0
    3.1080   35.5420   13.2780 C   0  0  0  0  0  0
    2.6020   35.7700   14.3720 O   0  0  0  0  0  0
    3.5720   36.5380   12.5250 N   0  0  0  0  0  0
    3.4740   37.9230   13.0180 C   0  0  0  0  0  0
    3.5640   38.9440   11.9000 C   0  0  2  0  0  0
    3.5200   40.3680   12.4820 C   0  0  0  0  0  0
    2.4190   38.7520   10.9120 C   0  0  0  0  0  0
    4.5270   41.3030   11.8420 C   0  0  0  0  0  0
    1.2210   26.2443   21.5237 H   0  0  0  0  0  0
    2.2552   24.9594   22.2352 H   0  0  0  0  0  0
    0.4707   24.7574   22.1968 H   0  0  0  0  0  0
    1.6898   22.4954   19.4615 H   0  0  0  0  0  0
    0.7455   22.5600   20.9882 H   0  0  0  0  0  0
    2.5300   22.7620   21.0267 H   0  0  0  0  0  0
    0.2603   24.2738   18.4886 H   0  0  0  0  0  0
    0.0597   25.8450   19.3359 H   0  0  0  0  0  0
   -0.6941   24.3595   20.0080 H   0  0  0  0  0  0
    4.6032   25.8888   18.5245 H   0  0  0  0  0  0
    4.1606   28.6349   19.5080 H   0  0  0  0  0  0
    5.9562   27.4289   17.3505 H   0  0  0  0  0  0
    5.9347   29.1957   17.6743 H   0  0  0  0  0  0
    6.0614   26.0069   19.7158 H   0  0  0  0  0  0
    7.6358   29.9387   19.0120 H   0  0  0  0  0  0
    7.6547   25.7147   21.5883 H   0  0  0  0  0  0
    9.2349   29.6384   20.8792 H   0  0  0  0  0  0
    9.2727   27.4937   22.1440 H   0  0  0  0  0  0
    3.6507   30.5226   18.3437 H   0  0  0  0  0  0
    2.2481   30.0662   15.6043 H   0  0  0  0  0  0
    0.6314   30.0162   17.6780 H   0  0  0  0  0  0
    1.0614   31.7462   17.8990 H   0  0  0  0  0  0
    1.3515   31.9163   14.5385 H   0  0  0  0  0  0
   -3.0425   31.7681   14.8886 H   0  0  0  0  0  0
    4.4088   30.9622   15.1042 H   0  0  0  0  0  0
    4.4154   33.8817   15.7518 H   0  0  0  0  0  0
    6.8000   32.1699   14.8737 H   0  0  0  0  0  0
    6.8847   33.8966   15.3614 H   0  0  0  0  0  0
    5.9382   31.5684   16.9989 H   0  0  0  0  0  0
    8.3748   31.5853   16.6958 H   0  0  0  0  0  0
    7.9265   31.9191   18.4029 H   0  0  0  0  0  0
    8.4488   33.2635   17.3321 H   0  0  0  0  0  0
    4.7763   33.7401   17.6458 H   0  0  0  0  0  0
    6.3812   34.5098   17.8882 H   0  0  0  0  0  0
    5.8588   33.1654   18.9590 H   0  0  0  0  0  0
    3.1748   34.1049   11.6602 H   0  0  0  0  0  0
    2.4135   33.4944   13.1683 H   0  0  0  0  0  0
    4.0251   36.3343   11.5435 H   0  0  0  0  0  0
    2.5097   38.0632   13.5283 H   0  0  0  0  0  0
    4.2944   38.1199   13.7238 H   0  0  0  0  0  0
    4.5153   38.7871   11.3704 H   0  0  0  0  0  0
    2.5196   40.7976   12.3249 H   0  0  0  0  0  0
    3.7379   40.3306   13.5596 H   0  0  0  0  0  0
    2.4569   37.7326   10.5004 H   0  0  0  0  0  0
    2.5142   39.4814   10.0942 H   0  0  0  0  0  0
    1.4597   38.9034   11.4286 H   0  0  0  0  0  0
    4.4447   42.2997   12.3002 H   0  0  0  0  0  0
    4.3243   41.3774   10.7634 H   0  0  0  0  0  0
    5.5426   40.9104   11.9981 H   0  0  0  0  0  0
   -0.8823   32.5007   13.1637 H   0  0  0  0  0  0
  1  2  2  0  0  0
  2  3  1  0  0  0
  2  8  1  0  0  0
  3  4  1  0  0  0
  4  7  1  0  0  0
  4  6  1  0  0  0
  4  5  1  0  0  0
  5 47  1  0  0  0
  5 48  1  0  0  0
  5 49  1  0  0  0
  6 50  1  0  0  0
  6 51  1  0  0  0
  6 52  1  0  0  0
  7 53  1  0  0  0
  7 54  1  0  0  0
  7 55  1  0  0  0
  8  9  1  0  0  0
  8 56  1  0  0  0
  9 10  1  0  0  0
  9 12  1  0  0  0
  9 57  1  0  0  0
 10 11  2  0  0  0
 10 19  1  0  0  0
 12 13  1  0  0  0
 12 58  1  0  0  0
 12 59  1  0  0  0
 13 15  2  0  0  0
 13 14  1  0  0  0
 14 16  2  0  0  0
 14 60  1  0  0  0
 15 17  1  0  0  0
 15 61  1  0  0  0
 16 18  1  0  0  0
 16 62  1  0  0  0
 17 18  2  0  0  0
 17 63  1  0  0  0
 18 64  1  0  0  0
 19 20  1  0  0  0
 19 65  1  0  0  0
 20 21  1  0  0  0
 20 23  1  0  0  0
 20 66  1  0  0  0
 21 22  2  0  0  0
 21 29  1  0  0  0
 23 24  1  0  0  0
 23 67  1  0  0  0
 23 68  1  0  0  0
 24 26  2  0  0  0
 24 25  1  0  0  0
 25 27  2  0  0  0
 26 28  1  0  0  0
 26 69  1  0  0  0
 27 28  1  0  0  0
 27 70  1  0  0  0
 28 96  1  0  0  0
 29 30  1  0  0  0
 29 71  1  0  0  0
 30 35  1  0  0  0
 30 31  1  0  0  0
 30 72  1  0  0  0
 31 32  1  0  0  0
 31 73  1  0  0  0
 31 74  1  0  0  0
 32 34  1  0  0  0
 32 33  1  0  0  0
 32 75  1  0  0  0
 33 76  1  0  0  0
 33 77  1  0  0  0
 33 78  1  0  0  0
 34 79  1  0  0  0
 34 80  1  0  0  0
 34 81  1  0  0  0
 35 38  1  0  0  0
 35 37  2  0  0  0
 35 36  1  0  0  0
 38 39  1  0  0  0
 38 82  1  0  0  0
 38 83  1  0  0  0
 39 40  2  0  0  0
 39 41  1  0  0  0
 41 42  1  0  0  0
 41 84  1  0  0  0
 42 43  1  0  0  0
 42 85  1  0  0  0
 42 86  1  0  0  0
 43 45  1  0  0  0
 43 44  1  0  0  0
 43 87  1  0  0  0
 44 46  1  0  0  0
 44 88  1  0  0  0
 44 89  1  0  0  0
 45 90  1  0  0  0
 45 91  1  0  0  0
 45 92  1  0  0  0
 46 93  1  0  0  0
 46 94  1  0  0  0
 46 95  1  0  0  0
M  CHG  2  28   1  36  -1
M  END
> <s_m_source_file>
../1ent_ligand.sdf

> <i_m_source_file_index>
1

> <s_epik_input>
W2NIXTFbY0hdW2NIXVtjSF1bY0hdYzFbQ0gyXVtDQEhdKFtOSF1DKD1PKU9DKFtDSDNdKShbQ0gzXSlbQ0gzXSlDKD1PKVtOSF1bQ0BASF0oW0NIMl1jMm5bY0hdW25IXVtjSF0yKUMoPU8pW05IXVtDQEBIXShbQ0gyXVtDSF0oW0NIM10pW0NIM10pW1BAQF0oPU8pKFtPSF0pW0NIMl1DKD1PKVtOSF1bQ0gyXVtDQEBIXShbQ0gzXSlbQ0gyXVtDSDNd

> <s_epik_cmdline>
J2VwaWtfYXBwJywgJy1pbWFlJywgJ2xpZ2FuZF9wcm8ubWFlJywgJy1vbWFlJywgJ2xpZ2FuZF9wcmVwLm1hZScsICctbXMnLCAnMScsICctcGgnLCAnNycsICctcGh0JywgJzAuNScsICctbnQn

> <r_lp_tautomer_probability>
0.499999999999999

> <r_epik_Ionization_Penalty>
  0.0035

> <r_epik_Ionization_Penalty_Charging>
  0.0035

> <r_epik_Ionization_Penalty_Neutral>
  0.0000

> <r_epik_State_Penalty>
  0.0002

> <r_epik_Charging_Adjusted_Penalty>
0.00372693011224092

> <i_epik_Tot_Q>
0

> <i_epik_Tot_abs_Q>
2

> <s_epik_Chemistry_Notes>
This compound has an ester and may undergo hydrolysis at high or low pH. This compound has an imine and may undergo hydrolysis.

$$$$
