1eoj_ligand
                    3D
 Schrodinger Suite 2020-3.
237241  0  0  1  0            999 V2000
   15.3350   14.1640   22.4430 N   0  3  0  0  0  0
   15.5110   15.2400   21.2940 C   0  0  2  0  0  0
   16.5170   16.3800   21.5520 C   0  0  0  0  0  0
   16.6420   16.8230   22.7140 O   0  0  0  0  0  0
   14.1570   15.8090   20.9420 C   0  0  0  0  0  0
   13.6010   16.6040   22.1150 C   0  0  0  0  0  0
   12.2250   17.1540   21.7620 C   0  0  0  0  0  0
   11.4820   17.7290   22.9060 N   0  0  0  0  0  0
   11.7140   18.9240   23.4350 C   0  0  0  0  0  0
   12.6660   19.6990   22.9300 N   0  0  0  0  0  0
   11.0170   19.3240   24.4720 N   0  0  0  0  0  0
   17.3210   16.8250   20.5690 N   0  0  0  0  0  0
   18.0850   18.0750   20.7670 C   0  0  0  0  0  0
   19.5010   17.6610   20.7560 C   0  0  0  0  0  0
   19.6740   17.3120   19.4030 C   0  0  0  0  0  0
   18.8930   16.1650   18.9230 C   0  0  0  0  0  0
   17.3770   16.3170   19.1930 C   0  0  2  0  0  0
   16.6800   17.3050   18.2450 C   0  0  0  0  0  0
   15.8700   18.0690   18.7110 O   0  0  0  0  0  0
   17.0010   17.3000   16.9430 N   0  0  0  0  0  0
   16.2970   18.1940   16.0220 C   0  0  2  0  0  0
   15.6580   17.4070   14.8700 C   0  0  0  0  0  0
   15.8500   16.1880   14.7750 O   0  0  0  0  0  0
   17.1850   19.3420   15.5220 C   0  0  0  0  0  0
   18.4200   18.9060   14.7620 C   0  0  0  0  0  0
   18.7150   19.2650   13.4540 C   0  0  0  0  0  0
   20.0300   18.8360   13.0200 C   0  0  0  0  0  0
   20.7420   18.1300   14.0190 C   0  0  0  0  0  0
   19.7110   18.0740   15.3800 S   0  0  0  0  0  0
   14.8790   18.0830   14.0270 N   0  0  0  0  0  0
   14.1810   17.4840   12.8910 C   0  0  0  0  0  0
   14.4840   18.1530   11.5700 C   0  0  0  0  0  0
   13.2690   18.1360   10.6350 C   0  0  0  0  0  0
   13.1540   16.8750    9.7610 C   0  0  0  0  0  0
   12.0580   17.0340    8.6720 C   0  0  0  0  0  0
   11.7840   15.7170    7.9300 C   0  0  0  0  0  0
   10.6010   15.7900    6.9350 C   0  0  0  0  0  0
   10.9710   16.4690    5.6060 C   0  0  0  0  0  0
    9.9470   16.2000    4.4770 C   0  0  0  0  0  0
   10.3160   16.9830    3.2000 C   0  0  0  0  0  0
    9.6540   16.4440    1.9160 C   0  0  0  0  0  0
    8.3130   17.0920    1.5830 C   0  0  0  0  0  0
    8.0640   17.4730    0.4360 O   0  0  0  0  0  0
    7.4550   17.2130    2.5890 N   0  0  0  0  0  0
    6.1220   17.7970    2.4590 C   0  0  2  0  0  0
    6.1300   19.2300    1.8990 C   0  0  0  0  0  0
    5.1350   19.7060    1.3630 O   0  0  0  0  0  0
    5.4860   17.8030    3.8550 C   0  0  0  0  0  0
    3.9760   17.9080    3.8240 C   0  0  0  0  0  0
    3.3640   17.6440    4.8790 O   0  0  0  0  0  0
    3.3940   18.2460    2.7700 O   0  0  0  0  0  0
    7.2770   19.8850    1.9940 N   0  0  0  0  0  0
    7.4420   21.2730    1.5770 C   0  0  2  0  0  0
    7.3160   21.6180    0.1020 C   0  0  0  0  0  0
    7.7780   20.8670   -0.7630 O   0  0  0  0  0  0
    8.7610   21.8050    2.1540 C   0  0  0  0  0  0
    8.7860   21.6430    3.6550 C   0  0  0  0  0  0
    9.2100   20.4470    4.2380 C   0  0  0  0  0  0
    8.2400   22.6200    4.4850 C   0  0  0  0  0  0
    9.0680   20.2220    5.5970 C   0  0  0  0  0  0
    8.0970   22.4050    5.8500 C   0  0  0  0  0  0
    8.5060   21.2020    6.3970 C   0  0  0  0  0  0
    8.3040   20.9560    7.7340 O   0  0  0  0  0  0
    6.6460   22.7400   -0.1670 N   0  0  0  0  0  0
    6.4590   23.2500   -1.5260 C   0  0  2  0  0  0
    7.7460   23.9080   -1.9980 C   0  0  0  0  0  0
    8.3290   24.7370   -1.2970 O   0  0  0  0  0  0
    5.3390   24.2980   -1.5790 C   0  0  0  0  0  0
    5.3650   25.1750   -2.8380 C   0  0  0  0  0  0
    4.3970   26.3390   -2.8170 C   0  0  0  0  0  0
    4.7090   27.3980   -3.3940 O   0  0  0  0  0  0
    3.3140   26.2010   -2.2330 O   0  0  0  0  0  0
    8.2100   23.5500   -3.2010 N   0  0  0  0  0  0
    9.4420   24.1540   -3.7050 C   0  0  2  0  0  0
    9.3900   25.6800   -3.6420 C   0  0  0  0  0  0
    8.3530   26.2890   -3.8760 O   0  0  0  0  0  0
    9.4930   23.6480   -5.1400 C   0  0  0  0  0  0
    8.8800   22.2760   -5.0150 C   0  0  0  0  0  0
    7.6850   22.5470   -4.1480 C   0  0  0  0  0  0
   10.5080   26.2780   -3.2630 N   0  0  0  0  0  0
   10.6220   27.7160   -3.1640 C   0  0  2  0  0  0
   10.9990   28.2280   -4.5450 C   0  0  0  0  0  0
   11.9500   27.7340   -5.1550 O   0  0  0  0  0  0
   11.7350   28.1040   -2.1680 C   0  0  2  0  0  0
   11.3430   27.6970   -0.7470 C   0  0  0  0  0  0
   12.0280   29.5940   -2.2560 C   0  0  0  0  0  0
   12.4580   27.8490    0.2550 C   0  0  0  0  0  0
   10.2200   29.1790   -5.0860 N   0  0  0  0  0  0
   10.4910   29.7540   -6.4070 C   0  0  2  0  0  0
   11.8010   30.5320   -6.3540 C   0  0  0  0  0  0
   12.2820   30.8590   -5.2720 O   0  0  0  0  0  0
    9.3170   30.7100   -6.6070 C   0  0  0  0  0  0
    8.2240   30.0930   -5.7960 C   0  0  0  0  0  0
    8.9490   29.6890   -4.5480 C   0  0  0  0  0  0
   12.3610   30.8490   -7.5150 N   0  0  0  0  0  0
   13.6030   31.6120   -7.5850 C   0  0  2  0  0  0
   13.2840   33.0690   -7.2390 C   0  0  0  0  0  0
   13.3490   33.9570   -8.0880 O   0  0  0  0  0  0
   14.1930   31.5030   -8.9910 C   0  0  0  0  0  0
   14.4410   30.0600   -9.4420 C   0  0  0  0  0  0
   14.4910   29.9090  -10.9610 C   0  0  0  0  0  0
   15.6060   29.9030  -11.5320 O   0  0  0  0  0  0
   13.4100   29.7880  -11.5820 O   0  0  0  0  0  0
   12.8890   33.2840   -5.9900 N   0  0  0  0  0  0
   12.5290   34.5960   -5.4700 C   0  0  2  0  0  0
   13.3060   34.7510   -4.1680 C   0  0  0  0  0  0
   12.7120   34.8830   -3.0970 O   0  0  0  0  0  0
   11.0210   34.6560   -5.1890 C   0  0  0  0  0  0
   10.3040   35.8680   -5.7890 C   0  0  0  0  0  0
    9.6500   35.5880   -7.1460 C   0  0  0  0  0  0
    8.5700   36.1680   -7.4060 O   0  0  0  0  0  0
   10.2060   34.8010   -7.9520 O   0  0  0  0  0  0
   14.6310   34.6810   -4.3130 N   0  0  0  0  0  0
   15.6580   34.7780   -3.2670 C   0  0  2  0  0  0
   16.5500   33.5420   -3.3710 C   0  0  0  0  0  0
   17.7730   33.6810   -3.1730 O   0  0  0  0  0  0
   15.0600   34.8810   -1.8670 C   0  0  0  0  0  0
   16.0190   32.4510   -3.6760 O   0  0  0  0  0  0
   14.5939   13.4131   22.1317 H   0  0  0  0  0  0
   14.9896   14.6614   23.3613 H   0  0  0  0  0  0
   16.2993   13.6703   22.6338 H   0  0  0  0  0  0
   15.9420   14.7193   20.4262 H   0  0  0  0  0  0
   14.2536   16.4728   20.0702 H   0  0  0  0  0  0
   13.4651   14.9880   20.7028 H   0  0  0  0  0  0
   13.5154   15.9487   22.9943 H   0  0  0  0  0  0
   14.2780   17.4399   22.3452 H   0  0  0  0  0  0
   12.3307   17.9541   21.0145 H   0  0  0  0  0  0
   11.6022   16.3466   21.3494 H   0  0  0  0  0  0
   10.6716   17.1555   23.3796 H   0  0  0  0  0  0
   13.2479   19.3596   22.0604 H   0  0  0  0  0  0
   12.8730   20.6807   23.3811 H   0  0  0  0  0  0
   10.2290   18.6785   24.8872 H   0  0  0  0  0  0
   17.8599   18.7757   19.9494 H   0  0  0  0  0  0
   17.8018   18.5296   21.7278 H   0  0  0  0  0  0
   20.1319   18.5040   21.0743 H   0  0  0  0  0  0
   19.6415   16.8166   21.4468 H   0  0  0  0  0  0
   19.3874   18.1615   18.7657 H   0  0  0  0  0  0
   20.7287   17.0573   19.2220 H   0  0  0  0  0  0
   19.0317   16.0556   17.8373 H   0  0  0  0  0  0
   19.2347   15.2507   19.4302 H   0  0  0  0  0  0
   16.8367   15.3654   19.0811 H   0  0  0  0  0  0
   17.7876   16.6300   16.5656 H   0  0  0  0  0  0
   15.4992   18.6402   16.6339 H   0  0  0  0  0  0
   16.6056   19.9846   14.8427 H   0  0  0  0  0  0
   17.5342   19.9358   16.3796 H   0  0  0  0  0  0
   18.0248   19.8160   12.8151 H   0  0  0  0  0  0
   20.4296   19.0366   12.0259 H   0  0  0  0  0  0
   21.7437   17.7081   13.9367 H   0  0  0  0  0  0
   14.7775   19.1594   14.2295 H   0  0  0  0  0  0
   14.4724   16.4275   12.7973 H   0  0  0  0  0  0
   13.0948   17.5519   13.0508 H   0  0  0  0  0  0
   14.7707   19.2002   11.7466 H   0  0  0  0  0  0
   15.3112   17.6252   11.0729 H   0  0  0  0  0  0
   12.3466   18.1970   11.2312 H   0  0  0  0  0  0
   13.3208   18.9957    9.9507 H   0  0  0  0  0  0
   14.1157   16.6861    9.2615 H   0  0  0  0  0  0
   12.8937   16.0132   10.3931 H   0  0  0  0  0  0
   11.1196   17.3638    9.1417 H   0  0  0  0  0  0
   12.3810   17.7822    7.9332 H   0  0  0  0  0  0
   12.6755   15.4284    7.3539 H   0  0  0  0  0  0
   11.5471   14.9279    8.6588 H   0  0  0  0  0  0
   10.2533   14.7724    6.7035 H   0  0  0  0  0  0
    9.7783   16.3651    7.3850 H   0  0  0  0  0  0
   11.0245   17.5578    5.7530 H   0  0  0  0  0  0
   11.9479   16.0968    5.2636 H   0  0  0  0  0  0
    9.9347   15.1256    4.2415 H   0  0  0  0  0  0
    8.9460   16.5144    4.8073 H   0  0  0  0  0  0
   10.0025   18.0317    3.3095 H   0  0  0  0  0  0
   11.4042   16.9399    3.0450 H   0  0  0  0  0  0
   10.3195   16.6212    1.0582 H   0  0  0  0  0  0
    9.4726   15.3643    2.0224 H   0  0  0  0  0  0
    7.7999   16.8414    3.5652 H   0  0  0  0  0  0
    5.5945   17.1572    1.7362 H   0  0  0  0  0  0
    5.7427   16.8705    4.3789 H   0  0  0  0  0  0
    5.8663   18.6618    4.4275 H   0  0  0  0  0  0
    2.2969   18.3222    2.7477 H   0  0  0  0  0  0
    8.1307   19.3309    2.4114 H   0  0  0  0  0  0
    6.5335   21.7246    2.0021 H   0  0  0  0  0  0
    9.6030   21.2454    1.7205 H   0  0  0  0  0  0
    8.8647   22.8722    1.9083 H   0  0  0  0  0  0
    9.6608   19.6768    3.6122 H   0  0  0  0  0  0
    7.9196   23.5693    4.0559 H   0  0  0  0  0  0
    9.3967   19.2791    6.0340 H   0  0  0  0  0  0
    7.6657   23.1785    6.4854 H   0  0  0  0  0  0
    8.6279   20.0006    8.1725 H   0  0  0  0  0  0
    6.2250   23.2879    0.6889 H   0  0  0  0  0  0
    6.1995   22.3732   -2.1374 H   0  0  0  0  0  0
    4.3624   23.7924   -1.5553 H   0  0  0  0  0  0
    5.4248   24.9705   -0.7128 H   0  0  0  0  0  0
    6.3712   25.6000   -2.9680 H   0  0  0  0  0  0
    5.1089   24.5638   -3.7160 H   0  0  0  0  0  0
    4.0164   28.2525   -3.3876 H   0  0  0  0  0  0
   10.3091   23.8615   -3.0946 H   0  0  0  0  0  0
    8.9114   24.3211   -5.7870 H   0  0  0  0  0  0
   10.5379   23.6222   -5.4828 H   0  0  0  0  0  0
    8.6120   21.9017   -6.0141 H   0  0  0  0  0  0
    9.6045   21.5917   -4.5493 H   0  0  0  0  0  0
    7.3469   21.6599   -3.5924 H   0  0  0  0  0  0
    6.8385   22.9758   -4.7044 H   0  0  0  0  0  0
   11.3701   25.6398   -3.0189 H   0  0  0  0  0  0
    9.6484   28.0967   -2.8216 H   0  0  0  0  0  0
   12.6626   27.5721   -2.4259 H   0  0  0  0  0  0
   10.5063   28.3233   -0.4039 H   0  0  0  0  0  0
   11.0373   26.6404   -0.7394 H   0  0  0  0  0  0
   12.3060   29.8527   -3.2884 H   0  0  0  0  0  0
   12.8578   29.8451   -1.5789 H   0  0  0  0  0  0
   11.1321   30.1617   -1.9643 H   0  0  0  0  0  0
   12.1027   27.5388    1.2487 H   0  0  0  0  0  0
   12.7771   28.9011    0.2916 H   0  0  0  0  0  0
   13.3081   27.2181   -0.0439 H   0  0  0  0  0  0
   10.5807   28.9838   -7.1872 H   0  0  0  0  0  0
    9.5936   31.7111   -6.2447 H   0  0  0  0  0  0
    9.0659   30.7636   -7.6766 H   0  0  0  0  0  0
    7.4367   30.8393   -5.6138 H   0  0  0  0  0  0
    7.7995   29.2382   -6.3428 H   0  0  0  0  0  0
    8.4386   28.8886   -3.9924 H   0  0  0  0  0  0
    9.1494   30.5339   -3.8727 H   0  0  0  0  0  0
   11.8642   30.5210   -8.4400 H   0  0  0  0  0  0
   14.3127   31.1844   -6.8614 H   0  0  0  0  0  0
   13.5018   31.9591   -9.7150 H   0  0  0  0  0  0
   15.1589   32.0283   -9.0251 H   0  0  0  0  0  0
   15.4034   29.7105   -9.0400 H   0  0  0  0  0  0
   13.6318   29.4150   -9.0689 H   0  0  0  0  0  0
   15.6635   29.7953  -12.6252 H   0  0  0  0  0  0
   12.8413   32.4010   -5.3357 H   0  0  0  0  0  0
   12.7886   35.3636   -6.2139 H   0  0  0  0  0  0
   10.5346   33.7617   -5.6055 H   0  0  0  0  0  0
   10.8516   34.6932   -4.1028 H   0  0  0  0  0  0
    9.5090   36.1994   -5.1048 H   0  0  0  0  0  0
   11.0255   36.6852   -5.9359 H   0  0  0  0  0  0
    9.7424   34.5951   -8.9281 H   0  0  0  0  0  0
   14.9267   34.5326   -5.3621 H   0  0  0  0  0  0
   16.2127   35.7089   -3.4562 H   0  0  0  0  0  0
   14.4208   35.7742   -1.8061 H   0  0  0  0  0  0
   15.8702   34.9588   -1.1271 H   0  0  0  0  0  0
   14.4579   33.9843   -1.6586 H   0  0  0  0  0  0
   16.6351   31.5435   -3.7586 H   0  0  0  0  0  0
  1  2  1  0  0  0
  1119  1  0  0  0
  1120  1  0  0  0
  1121  1  0  0  0
  2  5  1  0  0  0
  2  3  1  0  0  0
  2122  1  0  0  0
  3  4  2  0  0  0
  3 12  1  0  0  0
  5  6  1  0  0  0
  5123  1  0  0  0
  5124  1  0  0  0
  6  7  1  0  0  0
  6125  1  0  0  0
  6126  1  0  0  0
  7  8  1  0  0  0
  7127  1  0  0  0
  7128  1  0  0  0
  8  9  1  0  0  0
  8129  1  0  0  0
  9 11  2  0  0  0
  9 10  1  0  0  0
 10130  1  0  0  0
 10131  1  0  0  0
 11132  1  0  0  0
 12 13  1  0  0  0
 12 17  1  0  0  0
 13 14  1  0  0  0
 13133  1  0  0  0
 13134  1  0  0  0
 14 15  1  0  0  0
 14135  1  0  0  0
 14136  1  0  0  0
 15 16  1  0  0  0
 15137  1  0  0  0
 15138  1  0  0  0
 16 17  1  0  0  0
 16139  1  0  0  0
 16140  1  0  0  0
 17 18  1  0  0  0
 17141  1  0  0  0
 18 19  2  0  0  0
 18 20  1  0  0  0
 20 21  1  0  0  0
 20142  1  0  0  0
 21 22  1  0  0  0
 21 24  1  0  0  0
 21143  1  0  0  0
 22 23  2  0  0  0
 22 30  1  0  0  0
 24 25  1  0  0  0
 24144  1  0  0  0
 24145  1  0  0  0
 25 26  2  0  0  0
 25 29  1  0  0  0
 26 27  1  0  0  0
 26146  1  0  0  0
 27 28  2  0  0  0
 27147  1  0  0  0
 28 29  1  0  0  0
 28148  1  0  0  0
 30 31  1  0  0  0
 30149  1  0  0  0
 31 32  1  0  0  0
 31150  1  0  0  0
 31151  1  0  0  0
 32 33  1  0  0  0
 32152  1  0  0  0
 32153  1  0  0  0
 33 34  1  0  0  0
 33154  1  0  0  0
 33155  1  0  0  0
 34 35  1  0  0  0
 34156  1  0  0  0
 34157  1  0  0  0
 35 36  1  0  0  0
 35158  1  0  0  0
 35159  1  0  0  0
 36 37  1  0  0  0
 36160  1  0  0  0
 36161  1  0  0  0
 37 38  1  0  0  0
 37162  1  0  0  0
 37163  1  0  0  0
 38 39  1  0  0  0
 38164  1  0  0  0
 38165  1  0  0  0
 39 40  1  0  0  0
 39166  1  0  0  0
 39167  1  0  0  0
 40 41  1  0  0  0
 40168  1  0  0  0
 40169  1  0  0  0
 41 42  1  0  0  0
 41170  1  0  0  0
 41171  1  0  0  0
 42 43  2  0  0  0
 42 44  1  0  0  0
 44 45  1  0  0  0
 44172  1  0  0  0
 45 48  1  0  0  0
 45 46  1  0  0  0
 45173  1  0  0  0
 46 47  2  0  0  0
 46 52  1  0  0  0
 48 49  1  0  0  0
 48174  1  0  0  0
 48175  1  0  0  0
 49 50  2  0  0  0
 49 51  1  0  0  0
 51176  1  0  0  0
 52 53  1  0  0  0
 52177  1  0  0  0
 53 56  1  0  0  0
 53 54  1  0  0  0
 53178  1  0  0  0
 54 55  2  0  0  0
 54 64  1  0  0  0
 56 57  1  0  0  0
 56179  1  0  0  0
 56180  1  0  0  0
 57 58  2  0  0  0
 57 59  1  0  0  0
 58 60  1  0  0  0
 58181  1  0  0  0
 59 61  2  0  0  0
 59182  1  0  0  0
 60 62  2  0  0  0
 60183  1  0  0  0
 61 62  1  0  0  0
 61184  1  0  0  0
 62 63  1  0  0  0
 63185  1  0  0  0
 64 65  1  0  0  0
 64186  1  0  0  0
 65 68  1  0  0  0
 65 66  1  0  0  0
 65187  1  0  0  0
 66 67  2  0  0  0
 66 73  1  0  0  0
 68 69  1  0  0  0
 68188  1  0  0  0
 68189  1  0  0  0
 69 70  1  0  0  0
 69190  1  0  0  0
 69191  1  0  0  0
 70 72  2  0  0  0
 70 71  1  0  0  0
 71192  1  0  0  0
 73 74  1  0  0  0
 73 79  1  0  0  0
 74 75  1  0  0  0
 74 77  1  0  0  0
 74193  1  0  0  0
 75 76  2  0  0  0
 75 80  1  0  0  0
 77 78  1  0  0  0
 77194  1  0  0  0
 77195  1  0  0  0
 78 79  1  0  0  0
 78196  1  0  0  0
 78197  1  0  0  0
 79198  1  0  0  0
 79199  1  0  0  0
 80 81  1  0  0  0
 80200  1  0  0  0
 81 84  1  0  0  0
 81 82  1  0  0  0
 81201  1  0  0  0
 82 83  2  0  0  0
 82 88  1  0  0  0
 84 86  1  0  0  0
 84 85  1  0  0  0
 84202  1  0  0  0
 85 87  1  0  0  0
 85203  1  0  0  0
 85204  1  0  0  0
 86205  1  0  0  0
 86206  1  0  0  0
 86207  1  0  0  0
 87208  1  0  0  0
 87209  1  0  0  0
 87210  1  0  0  0
 88 89  1  0  0  0
 88 94  1  0  0  0
 89 90  1  0  0  0
 89 92  1  0  0  0
 89211  1  0  0  0
 90 91  2  0  0  0
 90 95  1  0  0  0
 92 93  1  0  0  0
 92212  1  0  0  0
 92213  1  0  0  0
 93 94  1  0  0  0
 93214  1  0  0  0
 93215  1  0  0  0
 94216  1  0  0  0
 94217  1  0  0  0
 95 96  1  0  0  0
 95218  1  0  0  0
 96 99  1  0  0  0
 96 97  1  0  0  0
 96219  1  0  0  0
 97 98  2  0  0  0
 97104  1  0  0  0
 99100  1  0  0  0
 99220  1  0  0  0
 99221  1  0  0  0
100101  1  0  0  0
100222  1  0  0  0
100223  1  0  0  0
101103  2  0  0  0
101102  1  0  0  0
102224  1  0  0  0
104105  1  0  0  0
104225  1  0  0  0
105108  1  0  0  0
105106  1  0  0  0
105226  1  0  0  0
106107  2  0  0  0
106113  1  0  0  0
108109  1  0  0  0
108227  1  0  0  0
108228  1  0  0  0
109110  1  0  0  0
109229  1  0  0  0
109230  1  0  0  0
110112  1  0  0  0
110111  2  0  0  0
112231  1  0  0  0
113114  1  0  0  0
113232  1  0  0  0
114117  1  0  0  0
114115  1  0  0  0
114233  1  0  0  0
115116  2  0  0  0
115118  1  0  0  0
117234  1  0  0  0
117235  1  0  0  0
117236  1  0  0  0
118237  1  0  0  0
M  CHG  1   1   1
M  END
> <s_m_source_file>
../1eoj_ligand.sdf

> <i_m_source_file_index>
1

> <s_epik_input>
W0hdL049QyhbTkgyXSlcW05IXVtDSDJdW0NIMl1bQ0gyXVtDQEhdKFtOSDMrXSlDKD1PKU4xW0NIMl1bQ0gyXVtDSDJdW0NIMl1bQ0BASF0xQyg9TylbTkhdW0NAQEhdKFtDSDJdYzJbY0hdW2NIXVtjSF1zMilDKD1PKVtOSF1bQ0gyXVtDSDJdW0NIMl1bQ0gyXVtDSDJdW0NIMl1bQ0gyXVtDSDJdW0NIMl1bQ0gyXVtDSDJdQyg9TylbTkhdW0NAQEhdKFtDSDJdQyg9TylbT0hdKUMoPU8pW05IXVtDQEBIXShbQ0gyXWMzW2NIXVtjSF1jKFtPSF0pW2NIXVtjSF0zKUMoPU8pW05IXVtDQEBIXShbQ0gyXVtDSDJdQyg9TylbT0hdKUMoPU8pTjRbQ0BASF0oW0NIMl1bQ0gyXVtDSDJdNClDKD1PKVtOSF1bQ0BASF0oW0NAQEhdKFtDSDNdKVtDSDJdW0NIM10pQyg9TylONVtDQEBIXShbQ0gyXVtDSDJdW0NIMl01KUMoPU8pW05IXVtDQEBIXShbQ0gyXVtDSDJdQyg9TylbT0hdKUMoPU8pW05IXVtDQEBIXShbQ0gyXVtDSDJdQyg9TylbT0hdKUMoPU8pW05IXVtDQEBIXShbQ0gzXSlDKD1PKVtPSF0=

> <s_epik_cmdline>
J2VwaWtfYXBwJywgJy1pbWFlJywgJ2xpZ2FuZF9wcm8ubWFlJywgJy1vbWFlJywgJ2xpZ2FuZF9wcmVwLm1hZScsICctbXMnLCAnMScsICctcGgnLCAnNycsICctcGh0JywgJzAuNScsICctbnQn

> <s_epik_pKa_notes>
Molecule size exceeds maximum supported for generating protonation states

> <s_epik_Chemistry_Notes>
This compound has an imine and may undergo hydrolysis.

$$$$
