1eol_ligand
                    3D
 Schrodinger Suite 2020-3.
249252  0  0  1  0            999 V2000
   15.3190   14.3180   22.4770 N   0  3  0  0  0  0
   15.3720   15.1970   21.3030 C   0  0  2  0  0  0
   16.3940   16.2490   21.6590 C   0  0  0  0  0  0
   16.4620   16.6790   22.8100 O   0  0  0  0  0  0
   14.0060   15.8120   21.0110 C   0  0  0  0  0  0
   13.4140   16.5670   22.1780 C   0  0  0  0  0  0
   12.0640   17.1760   21.7990 C   0  0  0  0  0  0
   11.4090   17.7400   22.9760 N   0  0  0  0  0  0
   11.6850   18.9330   23.4920 C   0  0  0  0  0  0
   12.6290   19.6950   22.9520 N   0  0  0  0  0  0
   11.0220   19.3560   24.5570 N   0  0  0  0  0  0
   17.2240   16.6890   20.6970 N   0  0  0  0  0  0
   17.9700   17.9700   20.8720 C   0  0  0  0  0  0
   19.4210   17.5680   20.8270 C   0  0  0  0  0  0
   19.6010   17.1040   19.4550 C   0  0  0  0  0  0
   18.7060   15.9810   19.0010 C   0  0  0  0  0  0
   17.2290   16.2020   19.3240 C   0  0  2  0  0  0
   16.5490   17.1520   18.3490 C   0  0  0  0  0  0
   15.7640   18.0350   18.7740 O   0  0  0  0  0  0
   16.8430   17.0170   17.0620 N   0  0  0  0  0  0
   16.2680   17.8550   16.0470 C   0  0  2  0  0  0
   15.3670   17.2280   14.9780 C   0  0  0  0  0  0
   15.2670   16.0010   14.9130 O   0  0  0  0  0  0
   17.2180   18.9140   15.4500 C   0  0  0  0  0  0
   18.4510   18.3180   14.8220 C   0  0  0  0  0  0
   19.3230   19.3980   14.2170 C   0  0  0  0  0  0
   20.5980   19.0180   13.5200 C   0  0  0  0  0  0
   14.7210   18.0280   14.1400 N   0  0  0  0  0  0
   13.8340   17.6200   13.0730 C   0  0  0  0  0  0
   14.5150   17.6210   11.7020 C   0  0  0  0  0  0
   13.5230   17.9240   10.5670 C   0  0  0  0  0  0
   12.9770   16.6740    9.8620 C   0  0  0  0  0  0
   12.0270   17.0220    8.6840 C   0  0  0  0  0  0
   11.5500   15.7480    7.9660 C   0  0  0  0  0  0
   10.3660   15.9710    7.0130 C   0  0  0  0  0  0
   10.7940   16.4350    5.6190 C   0  0  0  0  0  0
    9.6800   16.2210    4.5780 C   0  0  0  0  0  0
   10.0730   16.8130    3.2180 C   0  0  0  0  0  0
    9.2750   16.2300    2.0430 C   0  0  0  0  0  0
    8.0030   16.9960    1.7030 C   0  0  0  0  0  0
    7.8190   17.4160    0.5590 O   0  0  0  0  0  0
    7.1370   17.1880    2.6960 N   0  0  0  0  0  0
    5.8600   17.8810    2.5390 C   0  0  2  0  0  0
    5.9510   19.3110    1.9980 C   0  0  0  0  0  0
    4.9580   19.8770    1.5590 O   0  0  0  0  0  0
    5.1670   17.9050    3.9010 C   0  0  0  0  0  0
    3.6780   17.6660    3.8060 C   0  0  0  0  0  0
    3.0420   17.5420    4.8710 O   0  0  0  0  0  0
    3.1410   17.5960    2.6780 O   0  0  0  0  0  0
    7.1600   19.8580    1.9800 N   0  0  0  0  0  0
    7.4040   21.2360    1.5590 C   0  0  2  0  0  0
    7.3330   21.6260    0.0890 C   0  0  0  0  0  0
    7.9570   20.9970   -0.7690 O   0  0  0  0  0  0
    8.7220   21.7180    2.1630 C   0  0  0  0  0  0
    8.6870   21.6540    3.6630 C   0  0  0  0  0  0
    8.9960   20.4690    4.3320 C   0  0  0  0  0  0
    8.2400   22.7410    4.4110 C   0  0  0  0  0  0
    8.8450   20.3620    5.7050 C   0  0  0  0  0  0
    8.0880   22.6460    5.7830 C   0  0  0  0  0  0
    8.3860   21.4580    6.4170 C   0  0  0  0  0  0
    8.1840   21.3770    7.7650 O   0  0  0  0  0  0
    6.5620   22.6780   -0.1760 N   0  0  0  0  0  0
    6.3970   23.2280   -1.5140 C   0  0  2  0  0  0
    7.6920   23.9550   -1.8900 C   0  0  0  0  0  0
    8.2010   24.7820   -1.1330 O   0  0  0  0  0  0
    5.2320   24.2150   -1.5280 C   0  0  0  0  0  0
    5.1100   25.0200   -2.8080 C   0  0  0  0  0  0
    4.1300   26.1700   -2.6900 C   0  0  0  0  0  0
    4.3470   27.1990   -3.3650 O   0  0  0  0  0  0
    3.1490   26.0520   -1.9260 O   0  0  0  0  0  0
    8.2480   23.6470   -3.0710 N   0  0  0  0  0  0
    9.4890   24.2820   -3.5230 C   0  0  2  0  0  0
    9.4530   25.8020   -3.4590 C   0  0  0  0  0  0
    8.3960   26.4230   -3.5690 O   0  0  0  0  0  0
    9.6150   23.7920   -4.9540 C   0  0  0  0  0  0
    9.0070   22.4190   -4.8840 C   0  0  0  0  0  0
    7.7650   22.6790   -4.0720 C   0  0  0  0  0  0
   10.6270   26.3880   -3.2840 N   0  0  0  0  0  0
   10.7520   27.8270   -3.2160 C   0  0  2  0  0  0
   11.1570   28.3540   -4.5900 C   0  0  0  0  0  0
   12.1640   27.9190   -5.1530 O   0  0  0  0  0  0
   11.8150   28.2350   -2.1800 C   0  0  2  0  0  0
   11.3680   27.7970   -0.7830 C   0  0  0  0  0  0
   12.0580   29.7390   -2.2370 C   0  0  0  0  0  0
   12.4110   28.0130    0.2840 C   0  0  0  0  0  0
   10.3390   29.2460   -5.1790 N   0  0  0  0  0  0
   10.6320   29.8250   -6.4970 C   0  0  2  0  0  0
   11.9080   30.6520   -6.3860 C   0  0  0  0  0  0
   12.3000   31.0250   -5.2810 O   0  0  0  0  0  0
    9.4250   30.7290   -6.7490 C   0  0  0  0  0  0
    8.3250   30.0510   -5.9760 C   0  0  0  0  0  0
    9.0230   29.6950   -4.6930 C   0  0  0  0  0  0
   12.5360   30.9620   -7.5150 N   0  0  0  0  0  0
   13.7680   31.7490   -7.5060 C   0  0  2  0  0  0
   13.5310   33.2140   -7.1470 C   0  0  0  0  0  0
   13.8420   34.1100   -7.9160 O   0  0  0  0  0  0
   14.4650   31.6620   -8.8610 C   0  0  0  0  0  0
   14.7180   30.2480   -9.3530 C   0  0  0  0  0  0
   14.4510   30.1100  -10.8470 C   0  0  0  0  0  0
   15.4100   29.8650  -11.6170 O   0  0  0  0  0  0
   13.2760   30.2570  -11.2510 O   0  0  0  0  0  0
   12.9200   33.4380   -5.9940 N   0  0  0  0  0  0
   12.6600   34.7740   -5.4850 C   0  0  2  0  0  0
   13.3650   34.7550   -4.1360 C   0  0  0  0  0  0
   12.7320   34.7660   -3.0750 O   0  0  0  0  0  0
   11.1570   35.0170   -5.3400 C   0  0  0  0  0  0
   10.6590   36.2080   -6.1650 C   0  0  0  0  0  0
    9.5290   35.8550   -7.1300 C   0  0  0  0  0  0
    8.7150   36.7560   -7.4420 O   0  0  0  0  0  0
    9.4590   34.6880   -7.5860 O   0  0  0  0  0  0
   14.6890   34.6120   -4.2390 N   0  0  0  0  0  0
   15.6800   34.5300   -3.1570 C   0  0  2  0  0  0
   16.5640   33.3520   -3.5600 C   0  0  0  0  0  0
   17.6180   33.5500   -4.1590 O   0  0  0  0  0  0
   15.0380   34.2690   -1.8060 C   0  0  0  0  0  0
   16.0880   32.1340   -3.2880 N   0  0  0  0  0  0
   16.7870   30.8860   -3.6270 C   0  0  2  0  0  0
   16.1450   29.6840   -2.9360 C   0  0  0  0  0  0
   15.3990   29.8980   -1.9570 O   0  0  0  0  0  0
   18.2670   30.9680   -3.2600 C   0  0  0  0  0  0
   16.4060   28.5420   -3.3700 O   0  0  0  0  0  0
   14.5896   13.5138   22.3003 H   0  0  0  0  0  0
   15.0150   14.9015   23.3585 H   0  0  0  0  0  0
   16.3127   13.8799   22.6522 H   0  0  0  0  0  0
   15.6593   14.6268   20.4072 H   0  0  0  0  0  0
   14.0944   16.5213   20.1749 H   0  0  0  0  0  0
   13.2953   15.0163   20.7432 H   0  0  0  0  0  0
   13.2686   15.8791   23.0240 H   0  0  0  0  0  0
   14.0975   17.3756   22.4763 H   0  0  0  0  0  0
   12.2170   17.9746   21.0581 H   0  0  0  0  0  0
   11.4176   16.3964   21.3695 H   0  0  0  0  0  0
   10.6284   17.1675   23.4983 H   0  0  0  0  0  0
   13.1800   19.3438   22.0671 H   0  0  0  0  0  0
   12.8600   20.6774   23.3896 H   0  0  0  0  0  0
   10.2400   18.7250   25.0045 H   0  0  0  0  0  0
   17.7093   18.6605   20.0563 H   0  0  0  0  0  0
   17.6989   18.4234   21.8369 H   0  0  0  0  0  0
   20.0503   18.4393   21.0611 H   0  0  0  0  0  0
   19.6046   16.7740   21.5658 H   0  0  0  0  0  0
   19.4151   17.9356   18.7594 H   0  0  0  0  0  0
   20.6303   16.7390   19.3234 H   0  0  0  0  0  0
   18.7882   15.8647   17.9103 H   0  0  0  0  0  0
   19.0120   15.0462   19.4935 H   0  0  0  0  0  0
   16.6295   15.2815   19.2672 H   0  0  0  0  0  0
   17.5564   16.2271   16.7841 H   0  0  0  0  0  0
   15.5739   18.3066   16.7711 H   0  0  0  0  0  0
   16.6897   19.4826   14.6705 H   0  0  0  0  0  0
   17.5480   19.5999   16.2441 H   0  0  0  0  0  0
   19.0306   17.7827   15.5885 H   0  0  0  0  0  0
   18.1555   17.6156   14.0287 H   0  0  0  0  0  0
   18.7512   19.9461   13.4537 H   0  0  0  0  0  0
   19.6438   20.0948   15.0054 H   0  0  0  0  0  0
   21.0961   19.9249   13.1466 H   0  0  0  0  0  0
   20.3695   18.3511   12.6756 H   0  0  0  0  0  0
   21.2621   18.4997   14.2273 H   0  0  0  0  0  0
   14.9134   19.0965   14.3170 H   0  0  0  0  0  0
   13.4718   16.5997   13.2673 H   0  0  0  0  0  0
   12.9784   18.3096   13.0235 H   0  0  0  0  0  0
   15.3024   18.3889   11.6843 H   0  0  0  0  0  0
   14.9615   16.6335   11.5136 H   0  0  0  0  0  0
   12.6588   18.4711   10.9717 H   0  0  0  0  0  0
   14.0191   18.5375    9.8005 H   0  0  0  0  0  0
   13.8142   16.0853    9.4589 H   0  0  0  0  0  0
   12.4129   16.0636   10.5826 H   0  0  0  0  0  0
   11.1482   17.5603    9.0685 H   0  0  0  0  0  0
   12.5582   17.6572    7.9599 H   0  0  0  0  0  0
   12.3744   15.3344    7.3666 H   0  0  0  0  0  0
   11.2300   15.0050    8.7114 H   0  0  0  0  0  0
    9.8091   15.0299    6.8937 H   0  0  0  0  0  0
    9.6999   16.7409    7.4296 H   0  0  0  0  0  0
   11.0379   17.5072    5.6483 H   0  0  0  0  0  0
   11.6795   15.8662    5.2990 H   0  0  0  0  0  0
    9.4972   15.1435    4.4529 H   0  0  0  0  0  0
    8.7576   16.7119    4.9218 H   0  0  0  0  0  0
    9.8998   17.8992    3.2271 H   0  0  0  0  0  0
   11.1373   16.6131    3.0248 H   0  0  0  0  0  0
    9.9009   16.2309    1.1384 H   0  0  0  0  0  0
    8.9743   15.1987    2.2798 H   0  0  0  0  0  0
    7.4295   16.7899    3.6788 H   0  0  0  0  0  0
    5.3338   17.2878    1.7766 H   0  0  0  0  0  0
    5.5926   17.1195    4.5428 H   0  0  0  0  0  0
    5.3198   18.8868    4.3729 H   0  0  0  0  0  0
    2.0580   17.4224    2.5942 H   0  0  0  0  0  0
    7.9997   19.2242    2.3013 H   0  0  0  0  0  0
    6.4909   21.6966    1.9641 H   0  0  0  0  0  0
    9.5443   21.0819    1.8036 H   0  0  0  0  0  0
    8.9049   22.7596    1.8603 H   0  0  0  0  0  0
    9.3623   19.6133    3.7649 H   0  0  0  0  0  0
    8.0067   23.6796    3.9083 H   0  0  0  0  0  0
    9.0837   19.4298    6.2170 H   0  0  0  0  0  0
    7.7358   23.5026    6.3577 H   0  0  0  0  0  0
    8.4119   20.4434    8.3002 H   0  0  0  0  0  0
    6.0356   23.1346    0.6751 H   0  0  0  0  0  0
    6.1849   22.3911   -2.1956 H   0  0  0  0  0  0
    4.2863   23.6677   -1.4012 H   0  0  0  0  0  0
    5.3519   24.9354   -0.7055 H   0  0  0  0  0  0
    6.0914   25.4417   -3.0709 H   0  0  0  0  0  0
    4.7624   24.3656   -3.6210 H   0  0  0  0  0  0
    3.6562   28.0528   -3.3037 H   0  0  0  0  0  0
   10.3206   23.9966   -2.8619 H   0  0  0  0  0  0
    9.0637   24.4689   -5.6232 H   0  0  0  0  0  0
   10.6761   23.7743   -5.2434 H   0  0  0  0  0  0
    8.7934   22.0603   -5.9017 H   0  0  0  0  0  0
    9.7108   21.7309   -4.3929 H   0  0  0  0  0  0
    7.3888   21.7803   -3.5613 H   0  0  0  0  0  0
    6.9538   23.1333   -4.6598 H   0  0  0  0  0  0
   11.5204   25.7532   -3.1896 H   0  0  0  0  0  0
    9.7611   28.1989   -2.9164 H   0  0  0  0  0  0
   12.7698   27.7391   -2.4091 H   0  0  0  0  0  0
   10.4753   28.3680   -0.4879 H   0  0  0  0  0  0
   11.1293   26.7233   -0.7942 H   0  0  0  0  0  0
   12.3771   30.0207   -3.2513 H   0  0  0  0  0  0
   12.8436   30.0110   -1.5167 H   0  0  0  0  0  0
   11.1287   30.2704   -1.9841 H   0  0  0  0  0  0
   12.0180   27.6759    1.2545 H   0  0  0  0  0  0
   12.6610   29.0827    0.3412 H   0  0  0  0  0  0
   13.3150   27.4380    0.0348 H   0  0  0  0  0  0
   10.7802   29.0626   -7.2759 H   0  0  0  0  0  0
    9.6409   31.7412   -6.3765 H   0  0  0  0  0  0
    9.2181   30.7719   -7.8285 H   0  0  0  0  0  0
    7.4905   30.7533   -5.8334 H   0  0  0  0  0  0
    7.9726   29.1714   -6.5347 H   0  0  0  0  0  0
    8.5337   28.8741   -4.1482 H   0  0  0  0  0  0
    9.1546   30.5548   -4.0196 H   0  0  0  0  0  0
   12.1121   30.6148   -8.4688 H   0  0  0  0  0  0
   14.3753   31.2841   -6.7154 H   0  0  0  0  0  0
   13.8473   32.1589   -9.6236 H   0  0  0  0  0  0
   15.4447   32.1588   -8.8020 H   0  0  0  0  0  0
   15.7670   29.9762   -9.1640 H   0  0  0  0  0  0
   14.0565   29.5500   -8.8189 H   0  0  0  0  0  0
   15.2349   29.7623  -12.6981 H   0  0  0  0  0  0
   12.6051   32.5577   -5.4144 H   0  0  0  0  0  0
   13.0346   35.5482   -6.1708 H   0  0  0  0  0  0
   10.6073   34.1255   -5.6762 H   0  0  0  0  0  0
   10.9183   35.2189   -4.2854 H   0  0  0  0  0  0
   10.2812   36.9896   -5.4895 H   0  0  0  0  0  0
   11.4884   36.6111   -6.7646 H   0  0  0  0  0  0
    8.6515   34.4170   -8.2821 H   0  0  0  0  0  0
   15.0143   34.5548   -5.2882 H   0  0  0  0  0  0
   16.2096   35.4895   -3.0623 H   0  0  0  0  0  0
   14.4050   35.1250   -1.5293 H   0  0  0  0  0  0
   15.8228   34.1329   -1.0473 H   0  0  0  0  0  0
   14.4211   33.3600   -1.8627 H   0  0  0  0  0  0
   15.1131   32.0978   -2.7798 H   0  0  0  0  0  0
   16.6785   30.7861   -4.7171 H   0  0  0  0  0  0
   14.9203   29.0558   -1.4358 H   0  0  0  0  0  0
   18.7215   31.8353   -3.7611 H   0  0  0  0  0  0
   18.7766   30.0486   -3.5841 H   0  0  0  0  0  0
   18.3689   31.0791   -2.1704 H   0  0  0  0  0  0
  1  2  1  0  0  0
  1122  1  0  0  0
  1123  1  0  0  0
  1124  1  0  0  0
  2  5  1  0  0  0
  2  3  1  0  0  0
  2125  1  0  0  0
  3  4  2  0  0  0
  3 12  1  0  0  0
  5  6  1  0  0  0
  5126  1  0  0  0
  5127  1  0  0  0
  6  7  1  0  0  0
  6128  1  0  0  0
  6129  1  0  0  0
  7  8  1  0  0  0
  7130  1  0  0  0
  7131  1  0  0  0
  8  9  1  0  0  0
  8132  1  0  0  0
  9 11  2  0  0  0
  9 10  1  0  0  0
 10133  1  0  0  0
 10134  1  0  0  0
 11135  1  0  0  0
 12 13  1  0  0  0
 12 17  1  0  0  0
 13 14  1  0  0  0
 13136  1  0  0  0
 13137  1  0  0  0
 14 15  1  0  0  0
 14138  1  0  0  0
 14139  1  0  0  0
 15 16  1  0  0  0
 15140  1  0  0  0
 15141  1  0  0  0
 16 17  1  0  0  0
 16142  1  0  0  0
 16143  1  0  0  0
 17 18  1  0  0  0
 17144  1  0  0  0
 18 19  2  0  0  0
 18 20  1  0  0  0
 20 21  1  0  0  0
 20145  1  0  0  0
 21 24  1  0  0  0
 21 22  1  0  0  0
 21146  1  0  0  0
 22 23  2  0  0  0
 22 28  1  0  0  0
 24 25  1  0  0  0
 24147  1  0  0  0
 24148  1  0  0  0
 25 26  1  0  0  0
 25149  1  0  0  0
 25150  1  0  0  0
 26 27  1  0  0  0
 26151  1  0  0  0
 26152  1  0  0  0
 27153  1  0  0  0
 27154  1  0  0  0
 27155  1  0  0  0
 28 29  1  0  0  0
 28156  1  0  0  0
 29 30  1  0  0  0
 29157  1  0  0  0
 29158  1  0  0  0
 30 31  1  0  0  0
 30159  1  0  0  0
 30160  1  0  0  0
 31 32  1  0  0  0
 31161  1  0  0  0
 31162  1  0  0  0
 32 33  1  0  0  0
 32163  1  0  0  0
 32164  1  0  0  0
 33 34  1  0  0  0
 33165  1  0  0  0
 33166  1  0  0  0
 34 35  1  0  0  0
 34167  1  0  0  0
 34168  1  0  0  0
 35 36  1  0  0  0
 35169  1  0  0  0
 35170  1  0  0  0
 36 37  1  0  0  0
 36171  1  0  0  0
 36172  1  0  0  0
 37 38  1  0  0  0
 37173  1  0  0  0
 37174  1  0  0  0
 38 39  1  0  0  0
 38175  1  0  0  0
 38176  1  0  0  0
 39 40  1  0  0  0
 39177  1  0  0  0
 39178  1  0  0  0
 40 41  2  0  0  0
 40 42  1  0  0  0
 42 43  1  0  0  0
 42179  1  0  0  0
 43 46  1  0  0  0
 43 44  1  0  0  0
 43180  1  0  0  0
 44 45  2  0  0  0
 44 50  1  0  0  0
 46 47  1  0  0  0
 46181  1  0  0  0
 46182  1  0  0  0
 47 48  2  0  0  0
 47 49  1  0  0  0
 49183  1  0  0  0
 50 51  1  0  0  0
 50184  1  0  0  0
 51 54  1  0  0  0
 51 52  1  0  0  0
 51185  1  0  0  0
 52 53  2  0  0  0
 52 62  1  0  0  0
 54 55  1  0  0  0
 54186  1  0  0  0
 54187  1  0  0  0
 55 56  2  0  0  0
 55 57  1  0  0  0
 56 58  1  0  0  0
 56188  1  0  0  0
 57 59  2  0  0  0
 57189  1  0  0  0
 58 60  2  0  0  0
 58190  1  0  0  0
 59 60  1  0  0  0
 59191  1  0  0  0
 60 61  1  0  0  0
 61192  1  0  0  0
 62 63  1  0  0  0
 62193  1  0  0  0
 63 66  1  0  0  0
 63 64  1  0  0  0
 63194  1  0  0  0
 64 65  2  0  0  0
 64 71  1  0  0  0
 66 67  1  0  0  0
 66195  1  0  0  0
 66196  1  0  0  0
 67 68  1  0  0  0
 67197  1  0  0  0
 67198  1  0  0  0
 68 70  2  0  0  0
 68 69  1  0  0  0
 69199  1  0  0  0
 71 72  1  0  0  0
 71 77  1  0  0  0
 72 73  1  0  0  0
 72 75  1  0  0  0
 72200  1  0  0  0
 73 74  2  0  0  0
 73 78  1  0  0  0
 75 76  1  0  0  0
 75201  1  0  0  0
 75202  1  0  0  0
 76 77  1  0  0  0
 76203  1  0  0  0
 76204  1  0  0  0
 77205  1  0  0  0
 77206  1  0  0  0
 78 79  1  0  0  0
 78207  1  0  0  0
 79 82  1  0  0  0
 79 80  1  0  0  0
 79208  1  0  0  0
 80 81  2  0  0  0
 80 86  1  0  0  0
 82 84  1  0  0  0
 82 83  1  0  0  0
 82209  1  0  0  0
 83 85  1  0  0  0
 83210  1  0  0  0
 83211  1  0  0  0
 84212  1  0  0  0
 84213  1  0  0  0
 84214  1  0  0  0
 85215  1  0  0  0
 85216  1  0  0  0
 85217  1  0  0  0
 86 87  1  0  0  0
 86 92  1  0  0  0
 87 88  1  0  0  0
 87 90  1  0  0  0
 87218  1  0  0  0
 88 89  2  0  0  0
 88 93  1  0  0  0
 90 91  1  0  0  0
 90219  1  0  0  0
 90220  1  0  0  0
 91 92  1  0  0  0
 91221  1  0  0  0
 91222  1  0  0  0
 92223  1  0  0  0
 92224  1  0  0  0
 93 94  1  0  0  0
 93225  1  0  0  0
 94 97  1  0  0  0
 94 95  1  0  0  0
 94226  1  0  0  0
 95 96  2  0  0  0
 95102  1  0  0  0
 97 98  1  0  0  0
 97227  1  0  0  0
 97228  1  0  0  0
 98 99  1  0  0  0
 98229  1  0  0  0
 98230  1  0  0  0
 99101  2  0  0  0
 99100  1  0  0  0
100231  1  0  0  0
102103  1  0  0  0
102232  1  0  0  0
103106  1  0  0  0
103104  1  0  0  0
103233  1  0  0  0
104105  2  0  0  0
104111  1  0  0  0
106107  1  0  0  0
106234  1  0  0  0
106235  1  0  0  0
107108  1  0  0  0
107236  1  0  0  0
107237  1  0  0  0
108110  1  0  0  0
108109  2  0  0  0
110238  1  0  0  0
111112  1  0  0  0
111239  1  0  0  0
112115  1  0  0  0
112113  1  0  0  0
112240  1  0  0  0
113114  2  0  0  0
113116  1  0  0  0
115241  1  0  0  0
115242  1  0  0  0
115243  1  0  0  0
116117  1  0  0  0
116244  1  0  0  0
117120  1  0  0  0
117118  1  0  0  0
117245  1  0  0  0
118119  1  0  0  0
118121  2  0  0  0
119246  1  0  0  0
120247  1  0  0  0
120248  1  0  0  0
120249  1  0  0  0
M  CHG  1   1   1
M  END
> <s_m_source_file>
../1eol_ligand.sdf

> <i_m_source_file_index>
1

> <s_epik_input>
W0hdL049QyhbTkgyXSlcW05IXVtDSDJdW0NIMl1bQ0gyXVtDQEhdKFtOSDMrXSlDKD1PKU4xW0NIMl1bQ0gyXVtDSDJdW0NIMl1bQ0BASF0xQyg9TylbTkhdW0NAQEhdKFtDSDJdW0NIMl1bQ0gyXVtDSDNdKUMoPU8pW05IXVtDSDJdW0NIMl1bQ0gyXVtDSDJdW0NIMl1bQ0gyXVtDSDJdW0NIMl1bQ0gyXVtDSDJdW0NIMl1DKD1PKVtOSF1bQ0BASF0oW0NIMl1DKD1PKVtPSF0pQyg9TylbTkhdW0NAQEhdKFtDSDJdYzJbY0hdW2NIXWMoW09IXSlbY0hdW2NIXTIpQyg9TylbTkhdW0NAQEhdKFtDSDJdW0NIMl1DKD1PKVtPSF0pQyg9TylOM1tDQEBIXShbQ0gyXVtDSDJdW0NIMl0zKUMoPU8pW05IXVtDQEBIXShbQ0BASF0oW0NIM10pW0NIMl1bQ0gzXSlDKD1PKU40W0NAQEhdKFtDSDJdW0NIMl1bQ0gyXTQpQyg9TylbTkhdW0NAQEhdKFtDSDJdW0NIMl1DKD1PKVtPSF0pQyg9TylbTkhdW0NAQEhdKFtDSDJdW0NIMl1DKD1PKVtPSF0pQyg9TylbTkhdW0NAQEhdKFtDSDNdKUMoPU8pW05IXVtDQEBIXShbQ0gzXSlDKD1PKVtPSF0=

> <s_epik_cmdline>
J2VwaWtfYXBwJywgJy1pbWFlJywgJ2xpZ2FuZF9wcm8ubWFlJywgJy1vbWFlJywgJ2xpZ2FuZF9wcmVwLm1hZScsICctbXMnLCAnMScsICctcGgnLCAnNycsICctcGh0JywgJzAuNScsICctbnQn

> <s_epik_pKa_notes>
Molecule size exceeds maximum supported for generating protonation states

> <s_epik_Chemistry_Notes>
This compound has an imine and may undergo hydrolysis.

$$$$
