1eou_ligand
                    3D
 Schrodinger Suite 2020-3.
 37 39  0  0  1  0            999 V2000
   -5.7490    1.3350   16.8390 S   0  0  0  0  0  0
   -5.3260   -0.1620   16.6210 N   0  0  0  0  0  0
   -7.1400    1.4650   16.9140 O   0  0  0  0  0  0
   -5.0090    1.7710   17.9370 O   0  0  0  0  0  0
   -5.2570    1.9910   15.4980 O   0  0  0  0  0  0
   -5.5000    3.4020   15.2600 C   0  0  0  0  0  0
   -4.9520    3.6840   13.8510 C   0  0  2  0  0  0
   -3.4460    3.3820   13.5500 C   0  0  2  0  0  0
   -2.6050    4.6660   13.4420 C   0  0  1  0  0  0
   -3.2590    5.8030   12.5610 C   0  0  1  0  0  0
   -4.7560    5.6560   12.4450 C   0  0  0  0  0  0
   -5.2940    5.0590   13.6650 O   0  0  0  0  0  0
   -3.0060    7.0210   13.2680 O   0  0  0  0  0  0
   -2.3690    6.8260   14.6350 S   0  0  0  0  0  0
   -1.0630    7.2750   14.5700 O   0  0  0  0  0  0
   -3.1790    7.4270   15.6280 O   0  0  0  0  0  0
   -2.4520    5.2600   14.7260 O   0  0  0  0  0  0
   -3.4600    2.8030   12.2580 O   0  0  0  0  0  0
   -4.6780    2.0790   12.1180 C   0  0  0  0  0  0
   -4.5610    0.6390   12.6070 C   0  0  0  0  0  0
   -5.0850    2.1360   10.6670 C   0  0  0  0  0  0
   -5.6190    2.8570   12.9280 O   0  0  0  0  0  0
   -5.6138   -0.7562   17.5009 H   0  0  0  0  0  0
   -4.2364   -0.2184   16.4808 H   0  0  0  0  0  0
   -6.5800    3.6029   15.3177 H   0  0  0  0  0  0
   -4.9750    3.9980   16.0210 H   0  0  0  0  0  0
   -2.9900    2.7057   14.2881 H   0  0  0  0  0  0
   -1.6235    4.3391   13.0683 H   0  0  0  0  0  0
   -2.8501    5.8487   11.5408 H   0  0  0  0  0  0
   -5.2111    6.6461   12.2948 H   0  0  0  0  0  0
   -4.9956    5.0086   11.5886 H   0  0  0  0  0  0
   -4.2634    0.6344   13.6660 H   0  0  0  0  0  0
   -3.8030    0.1098   12.0108 H   0  0  0  0  0  0
   -5.5322    0.1343   12.4968 H   0  0  0  0  0  0
   -5.1597    3.1861   10.3481 H   0  0  0  0  0  0
   -6.0606    1.6440   10.5403 H   0  0  0  0  0  0
   -4.3315    1.6195   10.0543 H   0  0  0  0  0  0
  1  5  1  0  0  0
  1  4  2  0  0  0
  1  3  2  0  0  0
  1  2  1  0  0  0
  2 23  1  0  0  0
  2 24  1  0  0  0
  5  6  1  0  0  0
  6  7  1  0  0  0
  6 25  1  0  0  0
  6 26  1  0  0  0
  7 22  1  0  0  0
  7 12  1  0  0  0
  7  8  1  0  0  0
  8 18  1  0  0  0
  8  9  1  0  0  0
  8 27  1  0  0  0
  9 17  1  0  0  0
  9 10  1  0  0  0
  9 28  1  0  0  0
 10 13  1  0  0  0
 10 11  1  0  0  0
 10 29  1  0  0  0
 11 12  1  0  0  0
 11 30  1  0  0  0
 11 31  1  0  0  0
 13 14  1  0  0  0
 14 17  1  0  0  0
 14 16  2  0  0  0
 14 15  2  0  0  0
 18 19  1  0  0  0
 19 22  1  0  0  0
 19 21  1  0  0  0
 19 20  1  0  0  0
 20 32  1  0  0  0
 20 33  1  0  0  0
 20 34  1  0  0  0
 21 35  1  0  0  0
 21 36  1  0  0  0
 21 37  1  0  0  0
M  END
> <s_m_source_file>
../1eou_ligand.sdf

> <i_m_source_file_index>
1

> <s_epik_input>
W05IMl1TKD1PKSg9TylPW0NIMl1bQ0BdMTJbQ0BASF0oT0MoTzIpKFtDSDNdKVtDSDNdKVtDQEhdM1tDQEBIXShbQ0gyXU8xKU9TKD1PKSg9TylPMw==

> <s_epik_cmdline>
J2VwaWtfYXBwJywgJy1pbWFlJywgJ2xpZ2FuZF9wcm8ubWFlJywgJy1vbWFlJywgJ2xpZ2FuZF9wcmVwLm1hZScsICctbXMnLCAnMScsICctcGgnLCAnNycsICctcGh0JywgJzAuNScsICctbnQn

> <r_epik_Ionization_Penalty>
  0.0154

> <r_epik_Ionization_Penalty_Charging>
  0.0000

> <r_epik_Ionization_Penalty_Neutral>
  0.0154

> <r_epik_State_Penalty>
  0.0121

> <r_epik_Charging_Adjusted_Penalty>
0.0120873779991762

> <i_epik_Tot_Q>
0

> <i_epik_Tot_abs_Q>
0

$$$$
