1epo_ligand
                    3D
 Schrodinger Suite 2020-3.
 95 97  0  0  1  0            999 V2000
   30.9720   -7.3220   -7.5670 O   0  0  0  0  0  0
   30.7770   -6.5530   -6.3560 C   0  0  0  0  0  0
   32.0090   -6.3100   -5.7150 C   0  0  0  0  0  0
   32.8370   -7.4660   -5.6290 N   0  0  0  0  0  0
   32.8620   -8.4650   -6.6830 C   0  0  0  0  0  0
   31.4860   -8.6410   -7.1880 C   0  0  0  0  0  0
   33.6370   -7.6200   -4.5270 C   0  0  0  0  0  0
   34.3590   -8.5990   -4.4530 O   0  0  0  0  0  0
   33.6170   -6.7070   -3.5780 N   0  0  0  0  0  0
   34.4320   -6.8050   -2.3250 C   0  0  2  0  0  0
   33.8580   -7.8980   -1.3780 C   0  0  0  0  0  0
   32.7320   -8.1850   -1.2680 O   0  0  0  0  0  0
   34.2260   -5.4560   -1.5280 C   0  0  0  0  0  0
   35.0450   -4.3950   -2.2620 C   0  0  0  0  0  0
   36.3830   -4.5380   -2.4410 C   0  0  0  0  0  0
   34.3630   -3.2670   -2.8110 C   0  0  0  0  0  0
   37.1650   -3.6050   -3.1060 C   0  0  0  0  0  0
   35.1440   -2.3490   -3.4730 C   0  0  0  0  0  0
   36.4990   -2.4730   -3.6380 C   0  0  0  0  0  0
   34.8240   -8.5260   -0.6400 N   0  0  0  0  0  0
   34.4240   -9.6120    0.2950 C   0  0  2  0  0  0
   35.5270   -9.6380    1.4140 C   0  0  0  0  0  0
   36.5960  -10.1450    1.1750 O   0  0  0  0  0  0
   34.5110  -10.9620   -0.4720 C   0  0  0  0  0  0
   34.2020  -12.1490    0.4110 C   0  0  0  0  0  0
   33.4710  -13.3180   -0.1940 C   0  0  0  0  0  0
   34.0330  -13.8210   -1.4670 C   0  0  0  0  0  0
   35.1960   -9.0450    2.5090 N   0  0  0  0  0  0
   36.2070   -8.7560    3.5860 C   0  0  1  0  0  0
   36.6660   -7.3540    3.6360 C   0  0  0  0  0  0
   36.9750   -6.6040    2.3700 C   0  0  0  0  0  0
   38.2070   -7.0160    1.6900 C   0  0  0  0  0  0
   36.8100   -5.1140    2.4840 C   0  0  0  0  0  0
   38.6760   -6.2700    0.4530 C   0  0  0  0  0  0
   37.3100   -4.3430    1.2730 C   0  0  0  0  0  0
   38.6020   -4.7580    0.7240 C   0  0  0  0  0  0
   35.6750   -9.3170    4.9050 C   0  0  0  0  0  0
   34.3640   -8.7570    5.2470 O   0  0  0  0  0  0
   36.5070   -8.9240    5.9360 O   0  0  0  0  0  0
   35.5910  -10.8480    4.9370 C   0  0  0  0  0  0
   35.1040  -11.2960    3.8410 F   0  0  0  0  0  0
   34.7100  -11.2810    5.8530 F   0  0  0  0  0  0
   36.9100  -11.4650    5.2600 C   0  0  0  0  0  0
   37.7810  -11.8210    4.4160 O   0  0  0  0  0  0
   37.1720  -11.7830    6.5550 N   0  0  0  0  0  0
   38.5090  -12.4190    6.8120 C   0  0  0  0  0  0
   30.3101   -5.5887   -6.6052 H   0  0  0  0  0  0
   30.1231   -7.1103   -5.6690 H   0  0  0  0  0  0
   32.5673   -5.5433   -6.2723 H   0  0  0  0  0  0
   31.8254   -5.9570   -4.6895 H   0  0  0  0  0  0
   33.5211   -8.1246   -7.4952 H   0  0  0  0  0  0
   33.2396   -9.4156   -6.2783 H   0  0  0  0  0  0
   30.8457   -9.0728   -6.4047 H   0  0  0  0  0  0
   31.4852   -9.3015   -8.0676 H   0  0  0  0  0  0
   32.9599   -5.8399   -3.7403 H   0  0  0  0  0  0
   35.4604   -7.0333   -2.6416 H   0  0  0  0  0  0
   33.1576   -5.1944   -1.5199 H   0  0  0  0  0  0
   34.5802   -5.5830   -0.4944 H   0  0  0  0  0  0
   36.8667   -5.4299   -2.0426 H   0  0  0  0  0  0
   33.2850   -3.1408   -2.7111 H   0  0  0  0  0  0
   38.2416   -3.7365   -3.2143 H   0  0  0  0  0  0
   34.6558   -1.4691   -3.8920 H   0  0  0  0  0  0
   37.0596   -1.7072   -4.1740 H   0  0  0  0  0  0
   35.8822   -8.2395   -0.7297 H   0  0  0  0  0  0
   33.4061   -9.4263    0.6682 H   0  0  0  0  0  0
   33.7888  -10.9595   -1.3017 H   0  0  0  0  0  0
   35.5277  -11.0920   -0.8713 H   0  0  0  0  0  0
   35.1406  -12.5723    0.7980 H   0  0  0  0  0  0
   33.5712  -11.8259    1.2522 H   0  0  0  0  0  0
   33.4844  -14.1630    0.5101 H   0  0  0  0  0  0
   32.4298  -13.0312   -0.4027 H   0  0  0  0  0  0
   33.4309  -14.6697   -1.8237 H   0  0  0  0  0  0
   35.0703  -14.1496   -1.3054 H   0  0  0  0  0  0
   34.0156  -13.0177   -2.2182 H   0  0  0  0  0  0
   34.1457   -8.7484    2.6467 H   0  0  0  0  0  0
   37.1602   -9.2414    3.3292 H   0  0  0  0  0  0
   35.8994   -6.7344    4.1243 H   0  0  0  0  0  0
   37.6038   -7.2954    4.2080 H   0  0  0  0  0  0
   36.2049   -6.9373    1.6588 H   0  0  0  0  0  0
   39.0546   -6.9360    2.3866 H   0  0  0  0  0  0
   38.1080   -8.0578    1.3511 H   0  0  0  0  0  0
   35.7441   -4.8714    2.6062 H   0  0  0  0  0  0
   37.3716   -4.7486    3.3564 H   0  0  0  0  0  0
   39.7131   -6.5560    0.2236 H   0  0  0  0  0  0
   38.0280   -6.5271   -0.3979 H   0  0  0  0  0  0
   36.5869   -4.4436    0.4502 H   0  0  0  0  0  0
   37.4216   -3.2805    1.5352 H   0  0  0  0  0  0
   39.3808   -4.4767    1.4481 H   0  0  0  0  0  0
   38.7598   -4.2088   -0.2160 H   0  0  0  0  0  0
   34.2226   -7.6665    5.2772 H   0  0  0  0  0  0
   36.7116   -7.8559    6.1009 H   0  0  0  0  0  0
   36.4787  -11.6036    7.3899 H   0  0  0  0  0  0
   38.6132  -12.6323    7.8861 H   0  0  0  0  0  0
   39.3083  -11.7329    6.4952 H   0  0  0  0  0  0
   38.5842  -13.3573    6.2428 H   0  0  0  0  0  0
  1  2  1  0  0  0
  1  6  1  0  0  0
  2  3  1  0  0  0
  2 47  1  0  0  0
  2 48  1  0  0  0
  3  4  1  0  0  0
  3 49  1  0  0  0
  3 50  1  0  0  0
  4  5  1  0  0  0
  4  7  1  0  0  0
  5  6  1  0  0  0
  5 51  1  0  0  0
  5 52  1  0  0  0
  6 53  1  0  0  0
  6 54  1  0  0  0
  7  8  2  0  0  0
  7  9  1  0  0  0
  9 10  1  0  0  0
  9 55  1  0  0  0
 10 13  1  0  0  0
 10 11  1  0  0  0
 10 56  1  0  0  0
 11 12  2  0  0  0
 11 20  1  0  0  0
 13 14  1  0  0  0
 13 57  1  0  0  0
 13 58  1  0  0  0
 14 15  2  0  0  0
 14 16  1  0  0  0
 15 17  1  0  0  0
 15 59  1  0  0  0
 16 18  2  0  0  0
 16 60  1  0  0  0
 17 19  2  0  0  0
 17 61  1  0  0  0
 18 19  1  0  0  0
 18 62  1  0  0  0
 19 63  1  0  0  0
 20 21  1  0  0  0
 20 64  1  0  0  0
 21 22  1  0  0  0
 21 24  1  0  0  0
 21 65  1  0  0  0
 22 23  2  0  0  0
 22 28  1  0  0  0
 24 25  1  0  0  0
 24 66  1  0  0  0
 24 67  1  0  0  0
 25 26  1  0  0  0
 25 68  1  0  0  0
 25 69  1  0  0  0
 26 27  1  0  0  0
 26 70  1  0  0  0
 26 71  1  0  0  0
 27 72  1  0  0  0
 27 73  1  0  0  0
 27 74  1  0  0  0
 28 29  1  0  0  0
 28 75  1  0  0  0
 29 30  1  0  0  0
 29 37  1  0  0  0
 29 76  1  0  0  0
 30 31  1  0  0  0
 30 77  1  0  0  0
 30 78  1  0  0  0
 31 32  1  0  0  0
 31 33  1  0  0  0
 31 79  1  0  0  0
 32 34  1  0  0  0
 32 80  1  0  0  0
 32 81  1  0  0  0
 33 35  1  0  0  0
 33 82  1  0  0  0
 33 83  1  0  0  0
 34 36  1  0  0  0
 34 84  1  0  0  0
 34 85  1  0  0  0
 35 36  1  0  0  0
 35 86  1  0  0  0
 35 87  1  0  0  0
 36 88  1  0  0  0
 36 89  1  0  0  0
 37 38  1  0  0  0
 37 39  1  0  0  0
 37 40  1  0  0  0
 38 90  1  0  0  0
 39 91  1  0  0  0
 40 41  1  0  0  0
 40 42  1  0  0  0
 40 43  1  0  0  0
 43 44  2  0  0  0
 43 45  1  0  0  0
 45 46  1  0  0  0
 45 92  1  0  0  0
 46 93  1  0  0  0
 46 94  1  0  0  0
 46 95  1  0  0  0
M  END
> <s_m_source_file>
../1epo_ligand.sdf

> <i_m_source_file_index>
1

> <s_epik_input>
W0NIMl0xW0NIMl1PW0NIMl1bQ0gyXU4xQyg9TylbTkhdW0NAQEhdKFtDSDJdYzJbY0hdW2NIXVtjSF1bY0hdW2NIXTIpQyg9TylbTkhdW0NAQEhdKFtDSDJdW0NIMl1bQ0gyXVtDSDNdKUMoPU8pW05IXVtDQEhdKEMoW09IXSkoW09IXSlDKEYpKEYpQyg9TylbTkhdW0NIM10pW0NIMl1bQ0hdM1tDSDJdW0NIMl1bQ0gyXVtDSDJdW0NIMl0z

> <s_epik_cmdline>
J2VwaWtfYXBwJywgJy1pbWFlJywgJ2xpZ2FuZF9wcm8ubWFlJywgJy1vbWFlJywgJ2xpZ2FuZF9wcmVwLm1hZScsICctbXMnLCAnMScsICctcGgnLCAnNycsICctcGh0JywgJzAuNScsICctbnQn

> <r_lp_tautomer_probability>
1

> <r_epik_Ionization_Penalty>
  0.0028

> <r_epik_Ionization_Penalty_Charging>
  0.0000

> <r_epik_Ionization_Penalty_Neutral>
  0.0028

> <r_epik_State_Penalty>
 -0.0000

> <r_epik_Charging_Adjusted_Penalty>
0

> <i_epik_Tot_Q>
0

> <i_epik_Tot_abs_Q>
0

$$$$
