1epp_ligand
                    3D
 Schrodinger Suite 2020-3.
104104  0  0  1  0            999 V2000
    2.5630   27.0290   19.7660 S   0  0  0  0  0  0
    2.9330   27.8050   21.0240 O   0  0  0  0  0  0
    1.3660   27.5080   19.2970 O   0  0  0  0  0  0
    2.4870   25.4020   20.3270 N   0  0  0  0  0  0
    3.3730   25.3100   21.5310 C   0  0  0  0  0  0
    1.0760   25.1510   20.8390 C   0  0  0  0  0  0
    3.9000   27.1710   18.7470 N   0  0  3  0  0  0
    4.2750   28.4980   18.3380 C   0  0  2  0  0  0
    3.4770   28.9910   17.1450 C   0  0  0  0  0  0
    3.0630   28.1880   16.3340 O   0  0  0  0  0  0
    5.7680   28.5060   17.9040 C   0  0  0  0  0  0
    6.7390   28.3460   19.0560 C   0  0  0  0  0  0
    6.9860   27.1770   19.6880 C   0  0  0  0  0  0
    7.4330   29.4840   19.4970 C   0  0  0  0  0  0
    7.8860   26.9830   20.7710 C   0  0  0  0  0  0
    8.3320   29.3350   20.5590 C   0  0  0  0  0  0
    8.5660   28.1080   21.1970 C   0  0  0  0  0  0
    3.1770   30.2500   17.0990 N   0  0  0  0  0  0
    2.4710   30.9310   16.0490 C   0  0  2  0  0  0
    3.1160   32.2470   15.7100 C   0  0  0  0  0  0
    2.7850   33.2590   16.2730 O   0  0  0  0  0  0
    0.9780   30.9060   16.1100 C   0  0  0  0  0  0
    0.4810   29.9250   15.0800 C   0  0  0  0  0  0
   -1.0370   30.1940   14.9770 C   0  0  0  0  0  0
   -1.4680   30.0240   16.4460 C   0  0  0  0  0  0
   -2.4360   31.0460   16.7740 N   0  0  0  0  0  0
    4.0980   32.2220   14.7740 N   0  0  0  0  0  0
    4.9880   33.4360   14.6390 C   0  0  1  0  0  0
    6.3970   33.0870   15.1250 C   0  0  0  0  0  0
    6.6100   32.5140   16.4990 C   0  0  0  0  0  0
    7.9940   32.0160   16.7980 C   0  0  0  0  0  0
    6.2620   33.5470   17.7020 C   0  0  0  0  0  0
    5.0380   33.8050   13.1090 C   0  0  1  0  0  0
    5.3950   32.6280   12.4320 O   0  0  0  0  0  0
    3.6240   34.2220   12.6220 C   0  0  0  0  0  0
    3.4380   35.6740   13.0400 C   0  0  0  0  0  0
    2.9290   35.9070   14.1210 O   0  0  0  0  0  0
    3.8490   36.6850   12.2240 N   0  0  0  0  0  0
    3.9160   38.0280   12.8450 C   0  0  0  0  0  0
    3.8700   39.1310   11.7780 C   0  0  1  0  0  0
    2.6370   38.9480   10.9090 C   0  0  0  0  0  0
    3.6940   40.4670   12.6010 C   0  0  0  0  0  0
    4.3500   41.6290   11.8790 C   0  0  0  0  0  0
   -3.4860   30.5610   17.6140 C   0  0  0  0  0  0
   -4.7240   31.5600   18.1150 S   0  0  0  0  0  0
   -3.4980   29.2060   18.0310 N   0  0  0  0  0  0
   -4.6470   28.8610   18.8830 C   0  0  0  0  0  0
    4.4173   25.4827   21.2318 H   0  0  0  0  0  0
    3.2805   24.3095   21.9787 H   0  0  0  0  0  0
    3.0718   26.0702   22.2668 H   0  0  0  0  0  0
    0.3666   25.2042   20.0000 H   0  0  0  0  0  0
    0.8164   25.9141   21.5876 H   0  0  0  0  0  0
    1.0251   24.1533   21.2995 H   0  0  0  0  0  0
    4.3676   26.2962   18.2715 H   0  0  0  0  0  0
    4.0413   29.1013   19.2276 H   0  0  0  0  0  0
    5.9509   27.6770   17.2045 H   0  0  0  0  0  0
    6.0011   29.4608   17.4100 H   0  0  0  0  0  0
    6.4438   26.3003   19.3337 H   0  0  0  0  0  0
    7.2762   30.4545   19.0262 H   0  0  0  0  0  0
    8.0307   26.0080   21.2363 H   0  0  0  0  0  0
    8.8757   30.2134   20.9066 H   0  0  0  0  0  0
    9.2771   28.0425   22.0205 H   0  0  0  0  0  0
    3.5228   30.8084   17.9814 H   0  0  0  0  0  0
    2.6281   30.2560   15.1948 H   0  0  0  0  0  0
    0.6573   30.5940   17.1149 H   0  0  0  0  0  0
    0.5854   31.9109   15.8953 H   0  0  0  0  0  0
    0.9927   30.1070   14.1234 H   0  0  0  0  0  0
    0.6909   28.8997   15.4188 H   0  0  0  0  0  0
   -1.2039   31.2084   14.5857 H   0  0  0  0  0  0
   -1.4944   29.4593   14.2980 H   0  0  0  0  0  0
   -1.9177   29.0296   16.5834 H   0  0  0  0  0  0
   -0.5889   30.1224   17.0998 H   0  0  0  0  0  0
   -2.3125   32.0665   16.3824 H   0  0  0  0  0  0
    4.2555   31.3495   14.1229 H   0  0  0  0  0  0
    4.5980   34.2544   15.2620 H   0  0  0  0  0  0
    6.8392   32.3335   14.4567 H   0  0  0  0  0  0
    7.0213   33.9927   15.1204 H   0  0  0  0  0  0
    5.9569   31.6347   16.3974 H   0  0  0  0  0  0
    8.3037   31.3038   16.0190 H   0  0  0  0  0  0
    7.9996   31.5141   17.7768 H   0  0  0  0  0  0
    8.6930   32.8651   16.8173 H   0  0  0  0  0  0
    5.2529   33.9582   17.5517 H   0  0  0  0  0  0
    6.9954   34.3668   17.7049 H   0  0  0  0  0  0
    6.3020   33.0158   18.6644 H   0  0  0  0  0  0
    5.7883   34.5702   12.8609 H   0  0  0  0  0  0
    6.3683   32.1544   12.6280 H   0  0  0  0  0  0
    3.5667   34.1158   11.5286 H   0  0  0  0  0  0
    2.8686   33.5760   13.0932 H   0  0  0  0  0  0
    4.1224   36.5537   11.1666 H   0  0  0  0  0  0
    3.0621   38.1602   13.5257 H   0  0  0  0  0  0
    4.8544   38.1239   13.4110 H   0  0  0  0  0  0
    4.7500   39.0987   11.1188 H   0  0  0  0  0  0
    2.7350   38.0217   10.3239 H   0  0  0  0  0  0
    2.5395   39.8046   10.2258 H   0  0  0  0  0  0
    1.7440   38.8852   11.5482 H   0  0  0  0  0  0
    2.6225   40.6832   12.7244 H   0  0  0  0  0  0
    4.1612   40.3525   13.5902 H   0  0  0  0  0  0
    4.2165   42.5487   12.4675 H   0  0  0  0  0  0
    3.8852   41.7557   10.8901 H   0  0  0  0  0  0
    5.4239   41.4250   11.7560 H   0  0  0  0  0  0
   -2.7517   28.4389   17.7769 H   0  0  0  0  0  0
   -4.5884   27.7995   19.1654 H   0  0  0  0  0  0
   -5.5807   29.0424   18.3305 H   0  0  0  0  0  0
   -4.6308   29.4832   19.7900 H   0  0  0  0  0  0
  1  2  2  0  0  0
  1  3  2  0  0  0
  1  4  1  0  0  0
  1  7  1  0  0  0
  4  5  1  0  0  0
  4  6  1  0  0  0
  5 48  1  0  0  0
  5 49  1  0  0  0
  5 50  1  0  0  0
  6 51  1  0  0  0
  6 52  1  0  0  0
  6 53  1  0  0  0
  7  8  1  0  0  0
  7 54  1  0  0  0
  8 11  1  0  0  0
  8  9  1  0  0  0
  8 55  1  0  0  0
  9 10  2  0  0  0
  9 18  1  0  0  0
 11 12  1  0  0  0
 11 56  1  0  0  0
 11 57  1  0  0  0
 12 13  2  0  0  0
 12 14  1  0  0  0
 13 15  1  0  0  0
 13 58  1  0  0  0
 14 16  2  0  0  0
 14 59  1  0  0  0
 15 17  2  0  0  0
 15 60  1  0  0  0
 16 17  1  0  0  0
 16 61  1  0  0  0
 17 62  1  0  0  0
 18 19  1  0  0  0
 18 63  1  0  0  0
 19 22  1  0  0  0
 19 20  1  0  0  0
 19 64  1  0  0  0
 20 21  2  0  0  0
 20 27  1  0  0  0
 22 23  1  0  0  0
 22 65  1  0  0  0
 22 66  1  0  0  0
 23 24  1  0  0  0
 23 67  1  0  0  0
 23 68  1  0  0  0
 24 25  1  0  0  0
 24 69  1  0  0  0
 24 70  1  0  0  0
 25 26  1  0  0  0
 25 71  1  0  0  0
 25 72  1  0  0  0
 26 44  1  0  0  0
 26 73  1  0  0  0
 27 28  1  0  0  0
 27 74  1  0  0  0
 28 29  1  0  0  0
 28 33  1  0  0  0
 28 75  1  0  0  0
 29 30  1  0  0  0
 29 76  1  0  0  0
 29 77  1  0  0  0
 30 31  1  0  0  0
 30 32  1  0  0  0
 30 78  1  0  0  0
 31 79  1  0  0  0
 31 80  1  0  0  0
 31 81  1  0  0  0
 32 82  1  0  0  0
 32 83  1  0  0  0
 32 84  1  0  0  0
 33 34  1  0  0  0
 33 35  1  0  0  0
 33 85  1  0  0  0
 34 86  1  0  0  0
 35 36  1  0  0  0
 35 87  1  0  0  0
 35 88  1  0  0  0
 36 37  2  0  0  0
 36 38  1  0  0  0
 38 39  1  0  0  0
 38 89  1  0  0  0
 39 40  1  0  0  0
 39 90  1  0  0  0
 39 91  1  0  0  0
 40 41  1  0  0  0
 40 42  1  0  0  0
 40 92  1  0  0  0
 41 93  1  0  0  0
 41 94  1  0  0  0
 41 95  1  0  0  0
 42 43  1  0  0  0
 42 96  1  0  0  0
 42 97  1  0  0  0
 43 98  1  0  0  0
 43 99  1  0  0  0
 43100  1  0  0  0
 44 45  2  0  0  0
 44 46  1  0  0  0
 46 47  1  0  0  0
 46101  1  0  0  0
 47102  1  0  0  0
 47103  1  0  0  0
 47104  1  0  0  0
M  END
> <s_m_source_file>
../1epp_ligand.sdf

> <i_m_source_file_index>
1

> <s_epik_input>
W2NIXTFbY0hdW2NIXVtjSF1bY0hdYzFbQ0gyXVtDQEhdKFtOSF1TKD1PKSg9TylOKFtDSDNdKVtDSDNdKUMoPU8pW05IXVtDQEBIXShbQ0gyXVtDSDJdW0NIMl1bQ0gyXVtOSF1DKD1TKVtOSF1bQ0gzXSlDKD1PKVtOSF1bQ0BASF0oW0NIMl1bQ0hdKFtDSDNdKVtDSDNdKVtDQEBIXShbT0hdKVtDSDJdQyg9TylbTkhdW0NIMl1bQ0BASF0oW0NIM10pW0NIMl1bQ0gzXQ==

> <s_epik_cmdline>
J2VwaWtfYXBwJywgJy1pbWFlJywgJ2xpZ2FuZF9wcm8ubWFlJywgJy1vbWFlJywgJ2xpZ2FuZF9wcmVwLm1hZScsICctbXMnLCAnMScsICctcGgnLCAnNycsICctcGh0JywgJzAuNScsICctbnQn

> <r_epik_Ionization_Penalty>
  0.0918

> <r_epik_Ionization_Penalty_Charging>
  0.0000

> <r_epik_Ionization_Penalty_Neutral>
  0.0918

> <r_epik_State_Penalty>
  0.0822

> <r_epik_Charging_Adjusted_Penalty>
0.0821625519143892

> <i_epik_Tot_Q>
0

> <i_epik_Tot_abs_Q>
0

$$$$
