1epq_ligand
                    3D
 Schrodinger Suite 2020-3.
 82 83  0  0  1  0            999 V2000
    2.5130   26.8580   19.9220 S   0  0  0  0  0  0
    2.9150   27.7570   20.9730 O   0  0  0  0  0  0
    1.3800   27.4970   19.3050 O   0  0  0  0  0  0
    3.3180   26.8670   18.8810 N   0  0  3  0  0  0
    3.9880   28.0780   18.4200 C   0  0  2  0  0  0
    3.2950   28.6280   17.1980 C   0  0  0  0  0  0
    2.8370   27.8720   16.3370 O   0  0  0  0  0  0
    5.4220   27.7720   18.0490 C   0  0  0  0  0  0
    6.3260   27.9180   19.2420 C   0  0  0  0  0  0
    6.3350   29.1240   19.9380 C   0  0  0  0  0  0
    7.1200   26.8470   19.6350 C   0  0  0  0  0  0
    7.1530   29.2660   21.0520 C   0  0  0  0  0  0
    7.9410   26.9860   20.7550 C   0  0  0  0  0  0
    7.9560   28.1970   21.4640 C   0  0  0  0  0  0
    3.2450   29.9370   17.1640 N   0  0  0  0  0  0
    2.6390   30.6630   16.0500 C   0  0  2  0  0  0
    3.3440   32.0070   15.8760 C   0  0  0  0  0  0
    2.9630   33.0130   16.4880 O   0  0  0  0  0  0
    6.6630   32.8800   14.9000 C   0  0  0  0  0  0
    5.1670   33.1840   14.7360 C   0  0  1  0  0  0
    4.8790   33.6500   13.3010 C   0  0  2  0  0  0
    3.3850   33.9690   13.1620 C   0  0  2  0  0  0
    3.0280   34.3300   11.7170 C   0  0  0  0  0  0
    1.5260   34.6330   11.6200 C   0  0  0  0  0  0
    1.1910   35.2180   10.2460 C   0  0  0  0  0  0
    0.7180   33.3470   11.8200 C   0  0  0  0  0  0
    7.0290   32.3230   16.2870 C   0  0  0  0  0  0
    6.6760   33.3410   17.3820 C   0  0  0  0  0  0
    6.9910   32.7630   18.7690 C   0  0  0  0  0  0
    8.4570   32.3360   18.8350 C   0  0  0  0  0  0
    8.7680   31.3890   17.6790 C   0  0  0  0  0  0
    8.4070   32.0510   16.3450 C   0  0  0  0  0  0
    4.3680   31.9850   15.0390 N   0  0  0  0  0  0
    5.2330   32.6290   12.3770 O   0  0  0  0  0  0
    3.0190   35.1530   14.0580 O   0  0  0  0  0  0
    0.8220   30.9790   16.2880 S   0  0  0  0  0  0
   -0.2300   29.4960   15.8910 C   0  0  0  0  0  0
   -1.5610   29.8640   15.2340 C   0  0  0  0  0  0
    3.4795   25.9946   18.3777 H   0  0  0  0  0  0
    3.9356   28.7917   19.2554 H   0  0  0  0  0  0
    5.4919   26.7396   17.6759 H   0  0  0  0  0  0
    5.7546   28.4684   17.2652 H   0  0  0  0  0  0
    5.7046   29.9510   19.6111 H   0  0  0  0  0  0
    7.1017   25.9114   19.0761 H   0  0  0  0  0  0
    7.1691   30.2065   21.6028 H   0  0  0  0  0  0
    8.5691   26.1559   21.0783 H   0  0  0  0  0  0
    8.5961   28.3052   22.3396 H   0  0  0  0  0  0
    3.6783   30.4902   18.0103 H   0  0  0  0  0  0
    2.9899   30.0153   15.2331 H   0  0  0  0  0  0
    7.2102   33.8182   14.7256 H   0  0  0  0  0  0
    6.9362   32.1470   14.1267 H   0  0  0  0  0  0
    4.8623   33.9566   15.4572 H   0  0  0  0  0  0
    5.5068   34.5107   13.0269 H   0  0  0  0  0  0
    2.8216   33.0730   13.4616 H   0  0  0  0  0  0
    3.6012   35.2167   11.4083 H   0  0  0  0  0  0
    3.2747   33.4857   11.0565 H   0  0  0  0  0  0
    1.2654   35.3617   12.4017 H   0  0  0  0  0  0
    1.7661   36.1428   10.0912 H   0  0  0  0  0  0
    0.1153   35.4422   10.1954 H   0  0  0  0  0  0
    1.4509   34.4893    9.4640 H   0  0  0  0  0  0
    0.9509   32.9172   12.8054 H   0  0  0  0  0  0
    0.9793   32.6238   11.0334 H   0  0  0  0  0  0
   -0.3563   33.5767   11.7648 H   0  0  0  0  0  0
    6.5388   31.3538   16.4611 H   0  0  0  0  0  0
    7.2646   34.2583   17.2333 H   0  0  0  0  0  0
    5.6038   33.5806   17.3281 H   0  0  0  0  0  0
    6.8013   33.5277   19.5366 H   0  0  0  0  0  0
    6.3501   31.8888   18.9561 H   0  0  0  0  0  0
    9.1013   33.2246   18.7626 H   0  0  0  0  0  0
    8.6467   31.8223   19.7890 H   0  0  0  0  0  0
    9.8407   31.1457   17.6828 H   0  0  0  0  0  0
    8.1821   30.4652   17.7940 H   0  0  0  0  0  0
    8.6817   31.3727   15.5238 H   0  0  0  0  0  0
    8.9706   32.9907   16.2485 H   0  0  0  0  0  0
    4.6147   31.0248   14.5625 H   0  0  0  0  0  0
    6.2701   32.2655   12.3297 H   0  0  0  0  0  0
    3.1968   35.0979   15.1421 H   0  0  0  0  0  0
    0.3128   28.8364   15.1980 H   0  0  0  0  0  0
   -0.4559   28.9480   16.8176 H   0  0  0  0  0  0
   -2.1328   28.9477   15.0258 H   0  0  0  0  0  0
   -1.3694   30.3987   14.2920 H   0  0  0  0  0  0
   -2.1381   30.5103   15.9117 H   0  0  0  0  0  0
  1  3  1  0  0  0
  1  2  1  0  0  0
  1  4  1  0  0  0
  4  5  1  0  0  0
  4 39  1  0  0  0
  5  6  1  0  0  0
  5  8  1  0  0  0
  5 40  1  0  0  0
  6  7  2  0  0  0
  6 15  1  0  0  0
  8  9  1  0  0  0
  8 41  1  0  0  0
  8 42  1  0  0  0
  9 11  2  0  0  0
  9 10  1  0  0  0
 10 12  2  0  0  0
 10 43  1  0  0  0
 11 13  1  0  0  0
 11 44  1  0  0  0
 12 14  1  0  0  0
 12 45  1  0  0  0
 13 14  2  0  0  0
 13 46  1  0  0  0
 14 47  1  0  0  0
 15 16  1  0  0  0
 15 48  1  0  0  0
 16 17  1  0  0  0
 16 36  1  0  0  0
 16 49  1  0  0  0
 17 18  2  0  0  0
 17 33  1  0  0  0
 19 27  1  0  0  0
 19 20  1  0  0  0
 19 50  1  0  0  0
 19 51  1  0  0  0
 20 33  1  0  0  0
 20 21  1  0  0  0
 20 52  1  0  0  0
 21 34  1  0  0  0
 21 22  1  0  0  0
 21 53  1  0  0  0
 22 35  1  0  0  0
 22 23  1  0  0  0
 22 54  1  0  0  0
 23 24  1  0  0  0
 23 55  1  0  0  0
 23 56  1  0  0  0
 24 26  1  0  0  0
 24 25  1  0  0  0
 24 57  1  0  0  0
 25 58  1  0  0  0
 25 59  1  0  0  0
 25 60  1  0  0  0
 26 61  1  0  0  0
 26 62  1  0  0  0
 26 63  1  0  0  0
 27 32  1  0  0  0
 27 28  1  0  0  0
 27 64  1  0  0  0
 28 29  1  0  0  0
 28 65  1  0  0  0
 28 66  1  0  0  0
 29 30  1  0  0  0
 29 67  1  0  0  0
 29 68  1  0  0  0
 30 31  1  0  0  0
 30 69  1  0  0  0
 30 70  1  0  0  0
 31 32  1  0  0  0
 31 71  1  0  0  0
 31 72  1  0  0  0
 32 73  1  0  0  0
 32 74  1  0  0  0
 33 75  1  0  0  0
 34 76  1  0  0  0
 35 77  1  0  0  0
 36 37  1  0  0  0
 37 38  1  0  0  0
 37 78  1  0  0  0
 37 79  1  0  0  0
 38 80  1  0  0  0
 38 81  1  0  0  0
 38 82  1  0  0  0
M  END
> <s_m_source_file>
../1epq_ligand.sdf

> <i_m_source_file_index>
1

> <s_epik_input>
W2NIXTFbY0hdW2NIXVtjSF1bY0hdYzFbQ0gyXVtDQEhdKFtOSF1bU0hdKFtPSF0pW09IXSlDKD1PKVtOSF1bQ0BASF0oU1tDSDJdW0NIM10pQyg9TylbTkhdW0NASF0oW0NAQEhdKFtPSF0pW0NAQEhdKFtPSF0pW0NIMl1bQ0hdKFtDSDNdKVtDSDNdKVtDSDJdW0NIXTJbQ0gyXVtDSDJdW0NIMl1bQ0gyXVtDSDJdMg==

> <s_epik_cmdline>
J2VwaWtfYXBwJywgJy1pbWFlJywgJ2xpZ2FuZF9wcm8ubWFlJywgJy1vbWFlJywgJ2xpZ2FuZF9wcmVwLm1hZScsICctbXMnLCAnMScsICctcGgnLCAnNycsICctcGh0JywgJzAuNScsICctbnQn

> <r_lp_tautomer_probability>
1

> <r_epik_Ionization_Penalty>
  0.0000

> <r_epik_Ionization_Penalty_Charging>
  0.0000

> <r_epik_Ionization_Penalty_Neutral>
  0.0000

> <r_epik_State_Penalty>
 -0.0000

> <r_epik_Charging_Adjusted_Penalty>
0

> <i_epik_Tot_Q>
0

> <i_epik_Tot_abs_Q>
0

> <s_epik_Chemistry_Notes>
This compound contains an acetal/aminal-like group ( X-CH(R)-Y where X, Y are N, S, or O) that may be acid/base labile, releasing an aldehyde.

$$$$
