1err_ligand
                    3D
 Schrodinger Suite 2020-3.
 62 66  0  0  1  0            999 V2000
   69.5710   36.2230   71.9170 C   0  0  0  0  0  0
   69.8160   37.4480   71.3520 C   0  0  0  0  0  0
   69.0830   37.9330   70.3050 C   0  0  0  0  0  0
   69.4100   39.1860   69.8500 O   0  0  0  0  0  0
   68.0290   37.1670   69.7940 C   0  0  0  0  0  0
   67.7650   35.9560   70.3850 C   0  0  0  0  0  0
   66.6380   34.8150   69.9860 S   0  0  0  0  0  0
   67.0010   33.6910   71.1920 C   0  0  0  0  0  0
   66.3470   32.3560   71.3010 C   0  0  0  0  0  0
   66.0870   31.7270   70.0990 C   0  0  0  0  0  0
   65.5600   30.4460   70.1280 C   0  0  0  0  0  0
   65.2590   29.8170   71.3200 C   0  0  0  0  0  0
   64.7350   28.5250   71.2490 O   0  0  0  0  0  0
   65.5620   30.4280   72.5190 C   0  0  0  0  0  0
   66.1060   31.7060   72.4800 C   0  0  0  0  0  0
   68.5560   35.4680   71.4640 C   0  0  0  0  0  0
   68.1280   34.1500   71.9060 C   0  0  0  0  0  0
   68.7710   33.4630   72.9180 C   0  0  0  0  0  0
   69.3680   32.4120   72.6530 O   0  0  0  0  0  0
   68.7680   33.9170   74.3130 C   0  0  0  0  0  0
   69.6210   33.3510   75.2390 C   0  0  0  0  0  0
   69.6330   33.7450   76.5630 C   0  0  0  0  0  0
   68.7330   34.7250   76.9780 C   0  0  0  0  0  0
   67.8790   35.3050   76.0570 C   0  0  0  0  0  0
   67.9070   34.9100   74.7300 C   0  0  0  0  0  0
   68.5550   35.2590   78.2200 O   0  0  0  0  0  0
   69.4610   34.8370   79.2280 C   0  0  0  0  0  0
   69.3110   35.6920   80.4580 C   0  0  0  0  0  0
   69.0230   37.1100   80.5570 N   0  3  0  0  0  0
   68.7200   37.4370   81.9650 C   0  0  0  0  0  0
   68.5440   38.9460   82.2290 C   0  0  0  0  0  0
   67.3380   39.4040   81.3930 C   0  0  0  0  0  0
   67.8040   39.1970   79.9190 C   0  0  0  0  0  0
   67.9600   37.6810   79.7070 C   0  0  0  0  0  0
   70.1984   35.8623   72.7321 H   0  0  0  0  0  0
   70.6256   38.0580   71.7527 H   0  0  0  0  0  0
   70.2529   39.7316   70.2992 H   0  0  0  0  0  0
   67.4351   37.5214   68.9515 H   0  0  0  0  0  0
   66.2913   32.2259   69.1516 H   0  0  0  0  0  0
   65.3789   29.9230   69.1890 H   0  0  0  0  0  0
   64.5080   28.0766   70.2706 H   0  0  0  0  0  0
   65.3802   29.9237   73.4681 H   0  0  0  0  0  0
   66.3481   32.2059   73.4179 H   0  0  0  0  0  0
   70.3070   32.5682   74.9152 H   0  0  0  0  0  0
   70.3327   33.2982   77.2694 H   0  0  0  0  0  0
   67.1800   36.0774   76.3777 H   0  0  0  0  0  0
   67.2432   35.3878   74.0095 H   0  0  0  0  0  0
   69.2539   33.7894   79.4919 H   0  0  0  0  0  0
   70.4919   34.9240   78.8542 H   0  0  0  0  0  0
   68.4854   35.3063   81.0742 H   0  0  0  0  0  0
   70.2449   35.6662   81.0386 H   0  0  0  0  0  0
   69.9481   37.5562   80.1631 H   0  0  0  0  0  0
   67.7841   36.9419   82.2632 H   0  0  0  0  0  0
   69.5410   37.0865   82.6077 H   0  0  0  0  0  0
   68.3622   39.1119   83.3011 H   0  0  0  0  0  0
   69.4561   39.4803   81.9248 H   0  0  0  0  0  0
   66.4629   38.7860   81.6427 H   0  0  0  0  0  0
   67.1174   40.4586   81.6147 H   0  0  0  0  0  0
   67.0487   39.6101   79.2342 H   0  0  0  0  0  0
   68.7628   39.7128   79.7617 H   0  0  0  0  0  0
   68.2030   37.5056   78.6486 H   0  0  0  0  0  0
   67.0003   37.2002   79.9474 H   0  0  0  0  0  0
  1  2  1  0  0  0
  1 16  2  0  0  0
  1 35  1  0  0  0
  2  3  2  0  0  0
  2 36  1  0  0  0
  3  4  1  0  0  0
  3  5  1  0  0  0
  4 37  1  0  0  0
  5  6  2  0  0  0
  5 38  1  0  0  0
  6  7  1  0  0  0
  6 16  1  0  0  0
  7  8  1  0  0  0
  8  9  1  0  0  0
  8 17  2  0  0  0
  9 10  2  0  0  0
  9 15  1  0  0  0
 10 11  1  0  0  0
 10 39  1  0  0  0
 11 12  2  0  0  0
 11 40  1  0  0  0
 12 13  1  0  0  0
 12 14  1  0  0  0
 13 41  1  0  0  0
 14 15  2  0  0  0
 14 42  1  0  0  0
 15 43  1  0  0  0
 16 17  1  0  0  0
 17 18  1  0  0  0
 18 19  2  0  0  0
 18 20  1  0  0  0
 20 21  2  0  0  0
 20 25  1  0  0  0
 21 22  1  0  0  0
 21 44  1  0  0  0
 22 23  2  0  0  0
 22 45  1  0  0  0
 23 24  1  0  0  0
 23 26  1  0  0  0
 24 25  2  0  0  0
 24 46  1  0  0  0
 25 47  1  0  0  0
 26 27  1  0  0  0
 27 28  1  0  0  0
 27 48  1  0  0  0
 27 49  1  0  0  0
 28 29  1  0  0  0
 28 50  1  0  0  0
 28 51  1  0  0  0
 29 30  1  0  0  0
 29 34  1  0  0  0
 29 52  1  0  0  0
 30 31  1  0  0  0
 30 53  1  0  0  0
 30 54  1  0  0  0
 31 32  1  0  0  0
 31 55  1  0  0  0
 31 56  1  0  0  0
 32 33  1  0  0  0
 32 57  1  0  0  0
 32 58  1  0  0  0
 33 34  1  0  0  0
 33 59  1  0  0  0
 33 60  1  0  0  0
 34 61  1  0  0  0
 34 62  1  0  0  0
M  CHG  1  29   1
M  END
> <s_m_source_file>
../1err_ligand.sdf

> <i_m_source_file_index>
1

> <s_epik_input>
W2NIXTFbY0hdYyhbT0hdKVtjSF1bY0hdYzEtYyhzMiljKGMoYzIzKVtjSF1bY0hdYyhbT0hdKVtjSF0zKUMoPU8pYzRbY0hdW2NIXWMoW2NIXVtjSF00KU9bQ0gyXVtDSDJdW05IK101W0NIMl1bQ0gyXVtDSDJdW0NIMl1bQ0gyXTU=

> <s_epik_cmdline>
J2VwaWtfYXBwJywgJy1pbWFlJywgJ2xpZ2FuZF9wcm8ubWFlJywgJy1vbWFlJywgJ2xpZ2FuZF9wcmVwLm1hZScsICctbXMnLCAnMScsICctcGgnLCAnNycsICctcGh0JywgJzAuNScsICctbnQn

> <r_lp_tautomer_probability>
0.999999999997365

> <r_epik_Ionization_Penalty>
  0.0212

> <r_epik_Ionization_Penalty_Charging>
  0.0122

> <r_epik_Ionization_Penalty_Neutral>
  0.0089

> <r_epik_State_Penalty>
  0.0095

> <r_epik_Charging_Adjusted_Penalty>
0.0216736986220823

> <i_epik_Tot_Q>
1

> <i_epik_Tot_abs_Q>
1

$$$$
