1esz_ligand
                    3D
 Schrodinger Suite 2020-3.
111116  0  0  1  0            999 V2000
   30.5630   -3.6230  -29.2120 C   0  0  0  0  0  0
   31.2070   -4.8070  -28.4850 C   0  0  2  0  0  0
   30.8310   -6.1910  -29.1440 C   0  0  0  0  0  0
   29.9240   -6.3210  -30.4170 C   0  0  0  0  0  0
   29.4300   -7.6990  -30.8440 C   0  0  0  0  0  0
   28.0480   -7.8310  -30.4610 N   0  0  0  0  0  0
   27.6640   -8.7960  -29.6480 C   0  0  0  0  0  0
   30.8700   -3.3590  -30.3560 O   0  0  0  0  0  0
   30.7580   -4.9700  -27.1530 N   0  0  0  0  0  0
   27.1290   -6.9610  -30.9260 O   0  0  0  0  0  0
   26.5040   -8.8790  -29.3410 O   0  0  0  0  0  0
   29.8240   -4.2080  -26.4930 C   0  0  0  0  0  0
   29.1270   -2.9930  -27.2520 C   0  0  2  0  0  0
   27.7870   -3.6790  -27.5310 C   0  0  0  0  0  0
   26.6330   -3.6780  -26.5210 C   0  0  0  0  0  0
   25.3710   -4.4960  -26.8910 C   0  0  0  0  0  0
   29.5040   -4.4240  -25.3350 O   0  0  0  0  0  0
   29.6170   -2.8510  -28.5650 N   0  0  0  0  0  0
   27.0410  -11.2270  -27.5790 C   0  0  0  0  0  0
   28.3380  -11.1250  -28.4770 C   0  0  1  0  0  0
   29.2100  -12.3960  -28.7330 C   0  0  0  0  0  0
   30.0110  -12.6190  -27.4540 C   0  0  0  0  0  0
   30.5440  -13.8690  -27.5010 O   0  0  0  0  0  0
   28.7200   -9.8420  -29.0740 C   0  0  0  0  0  0
   25.3770   -7.2980  -29.9840 Fe  0  0  0  0  0  0
   25.2990   -5.2480  -28.1620 N   0  0  0  0  0  0
   24.7500   -4.7040  -29.2390 C   0  0  0  0  0  0
   24.1890   -3.2340  -29.1990 C   0  0  0  0  0  0
   22.9760   -2.8590  -28.7520 C   0  0  0  0  0  0
   22.3980   -1.5160  -29.1620 C   0  0  0  0  0  0
   21.3340   -1.7120  -30.2840 C   0  0  0  0  0  0
   22.0220   -2.1780  -31.4810 O   0  0  0  0  0  0
   25.7840   -6.4580  -28.2360 O   0  0  0  0  0  0
   24.6990   -5.3910  -30.3330 O   0  0  0  0  0  0
   21.5270   -3.5140  -31.8000 C   0  0  0  0  0  0
   22.4880   -4.5710  -32.4480 C   0  0  1  0  0  0
   21.7350   -5.6090  -33.2990 C   0  0  0  0  0  0
   22.6430   -6.7530  -33.8320 C   0  0  0  0  0  0
   22.6400   -7.9570  -32.8640 C   0  0  0  0  0  0
   23.4090   -7.9410  -31.7160 N   0  0  0  0  0  0
   22.8660   -8.0690  -30.5630 C   0  0  0  0  0  0
   21.2840   -8.2540  -30.4190 C   0  0  0  0  0  0
   20.5400   -7.2920  -29.4560 C   0  0  2  0  0  0
   19.0520   -6.8960  -29.8840 C   0  0  0  0  0  0
   18.2760   -6.3670  -28.6250 C   0  0  0  0  0  0
   18.1160   -4.9410  -28.7630 O   0  0  0  0  0  0
   20.3350   -3.8190  -31.5480 O   0  0  0  0  0  0
   24.7520   -7.7960  -31.7960 O   0  0  0  0  0  0
   23.5770   -8.0570  -29.5640 O   0  0  0  0  0  0
   21.3540   -6.3020  -28.7910 C   0  0  0  0  0  0
   23.2050   -3.8590  -33.3820 N   0  0  0  0  0  0
   24.4470   -3.3050  -33.3030 C   0  0  0  0  0  0
   25.4200   -3.9760  -32.7920 O   0  0  0  0  0  0
   24.6920   -1.8760  -33.8270 C   0  0  0  0  0  0
   32.2742   -4.5433  -28.4458 H   0  0  0  0  0  0
   31.7491   -6.7083  -29.4596 H   0  0  0  0  0  0
   30.2936   -6.8117  -28.4120 H   0  0  0  0  0  0
   29.0048   -5.7341  -30.2737 H   0  0  0  0  0  0
   30.4678   -5.9421  -31.2949 H   0  0  0  0  0  0
   29.5276   -7.8017  -31.9348 H   0  0  0  0  0  0
   30.0318   -8.4744  -30.3474 H   0  0  0  0  0  0
   31.1667   -5.7791  -26.5299 H   0  0  0  0  0  0
   29.2132   -2.0019  -26.7827 H   0  0  0  0  0  0
   27.3249   -3.2316  -28.4233 H   0  0  0  0  0  0
   27.9535   -4.7525  -27.7035 H   0  0  0  0  0  0
   26.9829   -4.0927  -25.5641 H   0  0  0  0  0  0
   26.2813   -2.6472  -26.3671 H   0  0  0  0  0  0
   25.1968   -5.2673  -26.1263 H   0  0  0  0  0  0
   24.5006   -3.8252  -26.9401 H   0  0  0  0  0  0
   29.2392   -2.0429  -29.2086 H   0  0  0  0  0  0
   26.9212  -12.2613  -27.2241 H   0  0  0  0  0  0
   26.1607  -10.9386  -28.1722 H   0  0  0  0  0  0
   27.1386  -10.5521  -26.7159 H   0  0  0  0  0  0
   28.9377  -10.8933  -27.5845 H   0  0  0  0  0  0
   28.5547  -13.2533  -28.9467 H   0  0  0  0  0  0
   29.8735  -12.2185  -29.5922 H   0  0  0  0  0  0
   30.8120  -11.8680  -27.3874 H   0  0  0  0  0  0
   29.3456  -12.5235  -26.5833 H   0  0  0  0  0  0
   31.1636  -14.2343  -26.6688 H   0  0  0  0  0  0
   29.4017  -10.1540  -29.8790 H   0  0  0  0  0  0
   29.2987   -9.3724  -28.2650 H   0  0  0  0  0  0
   24.8391   -2.6105  -28.5676 H   0  0  0  0  0  0
   24.1649   -2.8228  -30.2190 H   0  0  0  0  0  0
   22.2213   -3.5864  -29.0857 H   0  0  0  0  0  0
   22.9864   -2.8196  -27.6528 H   0  0  0  0  0  0
   21.9220   -1.0406  -28.2917 H   0  0  0  0  0  0
   23.2044   -0.8691  -29.5378 H   0  0  0  0  0  0
   20.5913   -2.4555  -29.9591 H   0  0  0  0  0  0
   20.8310   -0.7543  -30.4837 H   0  0  0  0  0  0
   23.1409   -5.0497  -31.7034 H   0  0  0  0  0  0
   20.9423   -6.0735  -32.6941 H   0  0  0  0  0  0
   21.2865   -5.1118  -34.1717 H   0  0  0  0  0  0
   22.2738   -7.0874  -34.8127 H   0  0  0  0  0  0
   23.6745   -6.3849  -33.9346 H   0  0  0  0  0  0
   21.6193   -8.1237  -32.4894 H   0  0  0  0  0  0
   22.9869   -8.8555  -33.3953 H   0  0  0  0  0  0
   20.8075   -8.1122  -31.4002 H   0  0  0  0  0  0
   21.0654   -9.2663  -30.0481 H   0  0  0  0  0  0
   20.4487   -7.8448  -28.5094 H   0  0  0  0  0  0
   19.0885   -6.1098  -30.6524 H   0  0  0  0  0  0
   18.5391   -7.7809  -30.2889 H   0  0  0  0  0  0
   17.2917   -6.8549  -28.5693 H   0  0  0  0  0  0
   18.8513   -6.5973  -27.7162 H   0  0  0  0  0  0
   17.5943   -4.3680  -27.9823 H   0  0  0  0  0  0
   22.3418   -6.7305  -28.5660 H   0  0  0  0  0  0
   20.8656   -5.9948  -27.8544 H   0  0  0  0  0  0
   21.4746   -5.4265  -29.4459 H   0  0  0  0  0  0
   22.7738   -3.6647  -34.3752 H   0  0  0  0  0  0
   23.7521   -1.4648  -34.2238 H   0  0  0  0  0  0
   25.4469   -1.9031  -34.6266 H   0  0  0  0  0  0
   25.0518   -1.2405  -33.0044 H   0  0  0  0  0  0
  1  2  1  0  0  0
  1  8  2  0  0  0
  1 18  1  0  0  0
  2  3  1  0  0  0
  2  9  1  0  0  0
  2 55  1  0  0  0
  3  4  1  0  0  0
  3 56  1  0  0  0
  3 57  1  0  0  0
  4  5  1  0  0  0
  4 58  1  0  0  0
  4 59  1  0  0  0
  5  6  1  0  0  0
  5 60  1  0  0  0
  5 61  1  0  0  0
  6  7  1  0  0  0
  6 10  1  0  0  0
  7 11  2  0  0  0
  7 24  1  0  0  0
  9 12  1  0  0  0
  9 62  1  0  0  0
 10 25  1  0  0  0
 11 25  1  0  0  0
 12 13  1  0  0  0
 12 17  2  0  0  0
 13 14  1  0  0  0
 13 18  1  0  0  0
 13 63  1  0  0  0
 14 15  1  0  0  0
 14 64  1  0  0  0
 14 65  1  0  0  0
 15 16  1  0  0  0
 15 66  1  0  0  0
 15 67  1  0  0  0
 16 26  1  0  0  0
 16 68  1  0  0  0
 16 69  1  0  0  0
 18 70  1  0  0  0
 19 20  1  0  0  0
 19 71  1  0  0  0
 19 72  1  0  0  0
 19 73  1  0  0  0
 20 21  1  0  0  0
 20 24  1  0  0  0
 20 74  1  0  0  0
 21 22  1  0  0  0
 21 75  1  0  0  0
 21 76  1  0  0  0
 22 23  1  0  0  0
 22 77  1  0  0  0
 22 78  1  0  0  0
 23 79  1  0  0  0
 24 80  1  0  0  0
 24 81  1  0  0  0
 25 33  1  0  0  0
 25 34  1  0  0  0
 25 48  1  0  0  0
 25 49  1  0  0  0
 26 27  1  0  0  0
 26 33  1  0  0  0
 27 28  1  0  0  0
 27 34  2  0  0  0
 28 29  1  0  0  0
 28 82  1  0  0  0
 28 83  1  0  0  0
 29 30  1  0  0  0
 29 84  1  0  0  0
 29 85  1  0  0  0
 30 31  1  0  0  0
 30 86  1  0  0  0
 30 87  1  0  0  0
 31 32  1  0  0  0
 31 88  1  0  0  0
 31 89  1  0  0  0
 32 35  1  0  0  0
 35 36  1  0  0  0
 35 47  2  0  0  0
 36 37  1  0  0  0
 36 51  1  0  0  0
 36 90  1  0  0  0
 37 38  1  0  0  0
 37 91  1  0  0  0
 37 92  1  0  0  0
 38 39  1  0  0  0
 38 93  1  0  0  0
 38 94  1  0  0  0
 39 40  1  0  0  0
 39 95  1  0  0  0
 39 96  1  0  0  0
 40 41  1  0  0  0
 40 48  1  0  0  0
 41 42  1  0  0  0
 41 49  2  0  0  0
 42 43  1  0  0  0
 42 97  1  0  0  0
 42 98  1  0  0  0
 43 44  1  0  0  0
 43 50  1  0  0  0
 43 99  1  0  0  0
 44 45  1  0  0  0
 44100  1  0  0  0
 44101  1  0  0  0
 45 46  1  0  0  0
 45102  1  0  0  0
 45103  1  0  0  0
 46104  1  0  0  0
 50105  1  0  0  0
 50106  1  0  0  0
 50107  1  0  0  0
 51 52  1  0  0  0
 51108  1  0  0  0
 52 53  2  0  0  0
 52 54  1  0  0  0
 54109  1  0  0  0
 54110  1  0  0  0
 54111  1  0  0  0
M  END
> <s_m_source_file>
../1esz_ligand.sdf

> <i_m_source_file_index>
1

> <s_epik_input>
W09IXVtDSDJdW0NIMl1bQ0BIXShbQ0gzXSlbQ0gyXUMoPVtPXTEpTihPW0ZlXTEyMzQ1KVtDSDJdW0NIMl1bQ0gyXVtDQEhdNkMoPU8pW05IXVtDQEhdKEMoPU8pW05IXTYpW0NIMl1bQ0gyXVtDSDJdTihPMilDKD1bT10zKVtDSDJdW0NIMl1bQ0gyXVtDSDJdT0MoPU8pW0NASF0oW05IXUMoPU8pW0NIM10pW0NIMl1bQ0gyXVtDSDJdTihPNClDKD1bT101KVtDSDJdW0NAQEhdKFtDSDNdKVtDSDJdW0NIMl1bT0hd

> <s_epik_cmdline>
J2VwaWtfYXBwJywgJy1pbWFlJywgJ2xpZ2FuZF9wcm8ubWFlJywgJy1vbWFlJywgJ2xpZ2FuZF9wcmVwLm1hZScsICctbXMnLCAnMScsICctcGgnLCAnNycsICctcGh0JywgJzAuNScsICctbnQn

> <r_lp_tautomer_probability>
1

> <r_epik_Ionization_Penalty>
  0.0000

> <r_epik_Ionization_Penalty_Charging>
  0.0000

> <r_epik_Ionization_Penalty_Neutral>
  0.0000

> <r_epik_State_Penalty>
 -0.0000

> <r_epik_Charging_Adjusted_Penalty>
0

> <i_epik_Tot_Q>
0

> <i_epik_Tot_abs_Q>
0

> <s_epik_Chemistry_Notes>
This compound has an ester and may undergo hydrolysis at high or low pH. This compound has a N-S or N-O group and may undergo hydrolysis at high or low pH.

$$$$
