1ets_ligand
                    3D
 Schrodinger Suite 2020-3.
 69 72  0  0  1  0            999 V2000
  -37.3520  -31.2710   47.2640 S   0  0  0  0  0  0
  -36.1430  -32.1060   47.6390 O   0  0  0  0  0  0
  -38.5750  -31.7440   48.0490 O   0  0  0  0  0  0
  -38.1890  -28.7440   48.0850 C   0  0  0  0  0  0
  -37.1270  -29.5950   47.7860 C   0  0  0  0  0  0
  -35.8140  -29.1890   47.9700 C   0  0  0  0  0  0
  -35.5410  -27.9820   48.5800 C   0  0  0  0  0  0
  -36.2550  -25.9070   49.4020 C   0  0  0  0  0  0
  -37.2690  -25.0020   49.5860 C   0  0  0  0  0  0
  -38.5750  -25.3700   49.3230 C   0  0  0  0  0  0
  -38.9180  -26.6390   48.9050 C   0  0  0  0  0  0
  -37.9070  -27.4960   48.5970 C   0  0  0  0  0  0
  -36.5890  -27.1350   48.8700 C   0  0  0  0  0  0
  -37.7430  -31.5420   45.7410 N   0  0  3  0  0  0
  -36.8040  -31.2460   44.7000 C   0  0  0  0  0  0
  -37.3310  -30.0430   43.9490 C   0  0  0  0  0  0
  -38.3210  -29.3770   44.2970 O   0  0  0  0  0  0
  -36.8080  -28.7550   41.9950 C   0  0  2  0  0  0
  -35.5080  -27.9520   41.9950 C   0  0  0  0  0  0
  -34.6750  -28.0830   41.1030 O   0  0  0  0  0  0
  -36.5780  -29.8560   42.8920 N   0  0  0  0  0  0
  -37.1950  -29.2680   40.6250 C   0  0  0  0  0  0
  -38.5810  -29.8840   40.6330 C   0  0  0  0  0  0
  -38.7510  -31.2500   40.7230 C   0  0  0  0  0  0
  -39.6770  -29.0660   40.5420 C   0  0  0  0  0  0
  -40.0100  -31.8040   40.7820 C   0  0  0  0  0  0
  -40.9350  -29.6180   40.6020 C   0  0  0  0  0  0
  -41.1240  -30.9810   40.7110 C   0  0  0  0  0  0
  -42.4130  -31.4950   40.7260 C   0  0  0  0  0  0
  -42.6090  -32.7600   41.1140 N   0  0  0  0  0  0
  -43.4470  -30.7100   40.4430 N   0  3  0  0  0  0
  -35.3110  -27.0940   42.9980 N   0  0  0  0  0  0
  -34.0690  -26.3880   43.2110 C   0  0  0  0  0  0
  -33.6300  -26.7280   44.6420 C   0  0  0  0  0  0
  -34.5750  -26.2790   45.7310 C   0  0  0  0  0  0
  -35.8200  -27.0390   45.3910 C   0  0  0  0  0  0
  -36.3370  -26.7910   43.9920 C   0  0  0  0  0  0
  -39.2193  -29.0582   47.9178 H   0  0  0  0  0  0
  -34.9957  -29.8248   47.6320 H   0  0  0  0  0  0
  -34.5167  -27.7037   48.8277 H   0  0  0  0  0  0
  -35.2254  -25.6653   49.6659 H   0  0  0  0  0  0
  -37.0455  -23.9952   49.9387 H   0  0  0  0  0  0
  -39.3642  -24.6291   49.4508 H   0  0  0  0  0  0
  -39.9613  -26.9442   48.8243 H   0  0  0  0  0  0
  -38.7826  -31.7973   45.4877 H   0  0  0  0  0  0
  -35.8222  -31.0248   45.1439 H   0  0  0  0  0  0
  -36.7159  -32.1127   44.0284 H   0  0  0  0  0  0
  -37.6580  -28.1519   42.3468 H   0  0  0  0  0  0
  -35.7569  -30.5616   42.6974 H   0  0  0  0  0  0
  -37.1884  -28.4352   39.9063 H   0  0  0  0  0  0
  -36.4750  -30.0352   40.3039 H   0  0  0  0  0  0
  -37.8763  -31.8999   40.7478 H   0  0  0  0  0  0
  -39.5528  -27.9896   40.4234 H   0  0  0  0  0  0
  -40.1304  -32.8825   40.8839 H   0  0  0  0  0  0
  -41.8051  -28.9626   40.5625 H   0  0  0  0  0  0
  -41.7478  -33.4037   41.3465 H   0  0  0  0  0  0
  -43.6314  -33.1566   41.2005 H   0  0  0  0  0  0
  -43.2777  -29.6708   40.1246 H   0  0  0  0  0  0
  -33.3242  -26.7263   42.4756 H   0  0  0  0  0  0
  -34.2366  -25.3073   43.0926 H   0  0  0  0  0  0
  -33.5302  -27.8186   44.7455 H   0  0  0  0  0  0
  -32.6620  -26.2496   44.8520 H   0  0  0  0  0  0
  -34.1583  -26.5492   46.7125 H   0  0  0  0  0  0
  -34.7060  -25.1882   45.6760 H   0  0  0  0  0  0
  -35.6254  -28.1183   45.4757 H   0  0  0  0  0  0
  -36.6239  -26.7557   46.0863 H   0  0  0  0  0  0
  -36.6311  -25.7346   43.9050 H   0  0  0  0  0  0
  -37.2147  -27.4313   43.8199 H   0  0  0  0  0  0
  -44.4724  -31.0993   40.5271 H   0  0  0  0  0  0
  1  2  2  0  0  0
  1  3  2  0  0  0
  1  5  1  0  0  0
  1 14  1  0  0  0
  4 12  2  0  0  0
  4  5  1  0  0  0
  4 38  1  0  0  0
  5  6  2  0  0  0
  6  7  1  0  0  0
  6 39  1  0  0  0
  7 13  2  0  0  0
  7 40  1  0  0  0
  8  9  2  0  0  0
  8 13  1  0  0  0
  8 41  1  0  0  0
  9 10  1  0  0  0
  9 42  1  0  0  0
 10 11  2  0  0  0
 10 43  1  0  0  0
 11 12  1  0  0  0
 11 44  1  0  0  0
 12 13  1  0  0  0
 14 15  1  0  0  0
 14 45  1  0  0  0
 15 16  1  0  0  0
 15 46  1  0  0  0
 15 47  1  0  0  0
 16 17  2  0  0  0
 16 21  1  0  0  0
 18 19  1  0  0  0
 18 21  1  0  0  0
 18 22  1  0  0  0
 18 48  1  0  0  0
 19 20  2  0  0  0
 19 32  1  0  0  0
 21 49  1  0  0  0
 22 23  1  0  0  0
 22 50  1  0  0  0
 22 51  1  0  0  0
 23 24  2  0  0  0
 23 25  1  0  0  0
 24 26  1  0  0  0
 24 52  1  0  0  0
 25 27  2  0  0  0
 25 53  1  0  0  0
 26 28  2  0  0  0
 26 54  1  0  0  0
 27 28  1  0  0  0
 27 55  1  0  0  0
 28 29  1  0  0  0
 29 30  1  0  0  0
 29 31  2  0  0  0
 30 56  1  0  0  0
 30 57  1  0  0  0
 31 58  1  0  0  0
 31 69  1  0  0  0
 32 33  1  0  0  0
 32 37  1  0  0  0
 33 34  1  0  0  0
 33 59  1  0  0  0
 33 60  1  0  0  0
 34 35  1  0  0  0
 34 61  1  0  0  0
 34 62  1  0  0  0
 35 36  1  0  0  0
 35 63  1  0  0  0
 35 64  1  0  0  0
 36 37  1  0  0  0
 36 65  1  0  0  0
 36 66  1  0  0  0
 37 67  1  0  0  0
 37 68  1  0  0  0
M  CHG  1  31   1
M  END
> <s_m_source_file>
../1ets_ligand.sdf

> <i_m_source_file_index>
1

> <s_epik_input>
W2NIXTFbY0hdW2NIXVtjSF1jKGMxMilbY0hdW2NIXWMoW2NIXTIpUyg9TykoPU8pW05IXVtDSDJdQyg9TylbTkhdW0NAQEhdKEMoPU8pTjNbQ0gyXVtDSDJdW0NIMl1bQ0gyXVtDSDJdMylbQ0gyXWM0W2NIXVtjSF1jKFtjSF1bY0hdNCkvQyhbTkgyXSk9TlxbSF0=

> <s_epik_cmdline>
J2VwaWtfYXBwJywgJy1pbWFlJywgJ2xpZ2FuZF9wcm8ubWFlJywgJy1vbWFlJywgJ2xpZ2FuZF9wcmVwLm1hZScsICctbXMnLCAnMScsICctcGgnLCAnNycsICctcGh0JywgJzAuNScsICctbnQn

> <r_lp_tautomer_probability>
1

> <r_epik_Ionization_Penalty>
  0.0005

> <r_epik_Ionization_Penalty_Charging>
  0.0002

> <r_epik_Ionization_Penalty_Neutral>
  0.0003

> <r_epik_State_Penalty>
 -0.0000

> <r_epik_Charging_Adjusted_Penalty>
0.000162947685306239

> <i_epik_Tot_Q>
1

> <i_epik_Tot_abs_Q>
1

> <s_epik_Chemistry_Notes>
This compound has an imine and may undergo hydrolysis.

$$$$
