1ett_ligand
                    3D
 Schrodinger Suite 2020-3.
 59 61  0  0  1  0            999 V2000
  -36.7260  -31.8490   45.4930 S   0  0  0  0  0  0
  -35.2930  -32.2310   45.6030 O   0  0  0  0  0  0
  -37.5670  -33.0380   45.9630 O   0  0  0  0  0  0
  -37.0370  -30.4170   46.6250 C   0  0  0  0  0  0
  -36.0410  -29.5090   46.9620 C   0  0  0  0  0  0
  -36.3700  -28.3550   47.7050 C   0  0  0  0  0  0
  -37.6490  -28.1800   48.1990 C   0  0  0  0  0  0
  -38.6240  -29.1290   47.9200 C   0  0  0  0  0  0
  -38.3210  -30.2260   47.1230 C   0  0  0  0  0  0
  -37.9910  -27.0020   49.1120 C   0  0  0  0  0  0
  -36.7880  -30.6760   43.0800 C   0  0  1  0  0  0
  -37.1850  -29.2170   43.3640 C   0  0  0  0  0  0
  -38.3260  -28.8700   43.7610 O   0  0  0  0  0  0
  -37.3900  -31.6250   43.9840 N   0  0  3  0  0  0
  -37.0310  -31.0440   41.6140 C   0  0  0  0  0  0
  -38.4570  -30.8170   41.1570 C   0  0  0  0  0  0
  -38.8130  -29.6390   40.5400 C   0  0  0  0  0  0
  -39.4130  -31.7560   41.4420 C   0  0  0  0  0  0
  -40.1270  -29.4150   40.1870 C   0  0  0  0  0  0
  -40.7170  -31.5230   41.0790 C   0  0  0  0  0  0
  -41.1020  -30.3450   40.4600 C   0  0  0  0  0  0
  -42.4470  -30.1280   40.1580 C   0  0  0  0  0  0
  -43.2710  -31.1830   40.0910 N   0  3  0  0  0  0
  -42.9010  -28.8790   39.9540 N   0  0  0  0  0  0
  -36.1900  -28.3530   43.2180 N   0  0  0  0  0  0
  -34.8190  -28.7220   42.9610 C   0  0  0  0  0  0
  -34.0980  -28.0400   44.0820 C   0  0  0  0  0  0
  -34.1730  -26.5800   43.8280 C   0  0  0  0  0  0
  -35.6080  -26.2610   44.0440 C   0  0  0  0  0  0
  -36.4020  -26.9490   42.9930 C   0  0  0  0  0  0
  -35.0106  -29.6869   46.6541 H   0  0  0  0  0  0
  -35.6099  -27.5962   47.8906 H   0  0  0  0  0  0
  -39.6285  -29.0130   48.3270 H   0  0  0  0  0  0
  -39.1020  -30.9480   46.8845 H   0  0  0  0  0  0
  -37.1081  -26.3553   49.2224 H   0  0  0  0  0  0
  -38.2947  -27.3796   50.0995 H   0  0  0  0  0  0
  -38.8162  -26.4238   48.6709 H   0  0  0  0  0  0
  -35.7212  -30.7980   43.3188 H   0  0  0  0  0  0
  -38.3669  -32.0700   43.7438 H   0  0  0  0  0  0
  -36.3801  -30.4342   40.9702 H   0  0  0  0  0  0
  -36.8040  -32.1094   41.4609 H   0  0  0  0  0  0
  -38.0560  -28.8832   40.3305 H   0  0  0  0  0  0
  -39.1411  -32.6800   41.9524 H   0  0  0  0  0  0
  -40.3968  -28.4865   39.6839 H   0  0  0  0  0  0
  -41.4689  -32.2852   41.2834 H   0  0  0  0  0  0
  -42.8808  -32.1973   40.2609 H   0  0  0  0  0  0
  -42.2092  -28.0258   40.0132 H   0  0  0  0  0  0
  -43.9642  -28.7103   39.7279 H   0  0  0  0  0  0
  -34.7226  -29.8174   42.9897 H   0  0  0  0  0  0
  -34.5199  -28.3535   41.9687 H   0  0  0  0  0  0
  -34.5827  -28.2921   45.0368 H   0  0  0  0  0  0
  -33.0507  -28.3759   44.1025 H   0  0  0  0  0  0
  -33.5165  -26.0508   44.5343 H   0  0  0  0  0  0
  -33.8487  -26.3698   42.7981 H   0  0  0  0  0  0
  -35.9158  -26.6122   45.0399 H   0  0  0  0  0  0
  -35.7559  -25.1730   43.9770 H   0  0  0  0  0  0
  -36.0537  -26.6826   41.9842 H   0  0  0  0  0  0
  -37.4744  -26.7211   43.0827 H   0  0  0  0  0  0
  -44.3375  -31.0345   39.8661 H   0  0  0  0  0  0
  1  2  2  0  0  0
  1  3  2  0  0  0
  1  4  1  0  0  0
  1 14  1  0  0  0
  4  5  2  0  0  0
  4  9  1  0  0  0
  5  6  1  0  0  0
  5 31  1  0  0  0
  6  7  2  0  0  0
  6 32  1  0  0  0
  7  8  1  0  0  0
  7 10  1  0  0  0
  8  9  2  0  0  0
  8 33  1  0  0  0
  9 34  1  0  0  0
 10 35  1  0  0  0
 10 36  1  0  0  0
 10 37  1  0  0  0
 11 12  1  0  0  0
 11 14  1  0  0  0
 11 15  1  0  0  0
 11 38  1  0  0  0
 12 13  2  0  0  0
 12 25  1  0  0  0
 14 39  1  0  0  0
 15 16  1  0  0  0
 15 40  1  0  0  0
 15 41  1  0  0  0
 16 17  2  0  0  0
 16 18  1  0  0  0
 17 19  1  0  0  0
 17 42  1  0  0  0
 18 20  2  0  0  0
 18 43  1  0  0  0
 19 21  2  0  0  0
 19 44  1  0  0  0
 20 21  1  0  0  0
 20 45  1  0  0  0
 21 22  1  0  0  0
 22 23  2  0  0  0
 22 24  1  0  0  0
 23 46  1  0  0  0
 23 59  1  0  0  0
 24 47  1  0  0  0
 24 48  1  0  0  0
 25 26  1  0  0  0
 25 30  1  0  0  0
 26 27  1  0  0  0
 26 49  1  0  0  0
 26 50  1  0  0  0
 27 28  1  0  0  0
 27 51  1  0  0  0
 27 52  1  0  0  0
 28 29  1  0  0  0
 28 53  1  0  0  0
 28 54  1  0  0  0
 29 30  1  0  0  0
 29 55  1  0  0  0
 29 56  1  0  0  0
 30 57  1  0  0  0
 30 58  1  0  0  0
M  CHG  1  23   1
M  END
> <s_m_source_file>
../1ett_ligand.sdf

> <i_m_source_file_index>
1

> <s_epik_input>
W2NIXTFbY0hdYyhbQ0gzXSlbY0hdW2NIXWMxUyg9TykoPU8pW05IXVtDQEhdKEMoPU8pTjJbQ0gyXVtDSDJdW0NIMl1bQ0gyXVtDSDJdMilbQ0gyXWMzW2NIXVtjSF1jKFtjSF1bY0hdMykvQyg9TlxbSF0pW05IMl0=

> <s_epik_cmdline>
J2VwaWtfYXBwJywgJy1pbWFlJywgJ2xpZ2FuZF9wcm8ubWFlJywgJy1vbWFlJywgJ2xpZ2FuZF9wcmVwLm1hZScsICctbXMnLCAnMScsICctcGgnLCAnNycsICctcGh0JywgJzAuNScsICctbnQn

> <r_lp_tautomer_probability>
1

> <r_epik_Ionization_Penalty>
  0.0008

> <r_epik_Ionization_Penalty_Charging>
  0.0002

> <r_epik_Ionization_Penalty_Neutral>
  0.0006

> <r_epik_State_Penalty>
 -0.0000

> <r_epik_Charging_Adjusted_Penalty>
0.000162947685306239

> <i_epik_Tot_Q>
1

> <i_epik_Tot_abs_Q>
1

> <s_epik_Chemistry_Notes>
This compound has an imine and may undergo hydrolysis.

$$$$
