1eub_ligand
                    3D
 Schrodinger Suite 2020-3.
 50 51  0  0  1  0            999 V2000
    2.2050   -0.9770   -2.1840 N   0  0  1  0  0  0
    1.3870   -1.5900   -3.2660 C   0  0  2  0  0  0
    0.8650   -2.9520   -2.7770 C   0  0  0  0  0  0
   -0.4170   -2.7460   -1.9720 C   0  0  0  0  0  0
    0.5730   -3.8730   -3.9670 C   0  0  0  0  0  0
    2.2310   -1.7740   -4.5330 C   0  0  0  0  0  0
    3.1010   -2.6190   -4.6100 O   0  0  0  0  0  0
    2.6680   -1.1190   -6.7310 O   0  0  0  0  0  0
    1.9550   -0.9960   -5.5400 N   0  0  0  0  0  0
    3.5350   -1.5830   -1.9510 C   0  0  0  0  0  0
    3.3850   -2.6270   -0.8800 C   0  0  0  0  0  0
    2.9290   -2.2710    0.3770 C   0  0  0  0  0  0
    3.6920   -3.9630   -1.1420 C   0  0  0  0  0  0
    2.7960   -3.2640    1.3310 C   0  0  0  0  0  0
    3.1290   -4.5820    0.9900 C   0  0  0  0  0  0
    3.5690   -4.9350   -0.2270 N   0  0  0  0  0  0
    2.2350    0.6570   -2.0590 S   0  0  0  0  0  0
    2.4220    0.9320   -0.6680 O   0  0  0  0  0  0
    1.0440    1.1080   -2.6750 O   0  0  0  0  0  0
    3.5920    1.3350   -2.9700 C   0  0  0  0  0  0
    3.3570    1.9710   -4.1930 C   0  0  0  0  0  0
    4.8860    1.2520   -2.4590 C   0  0  0  0  0  0
    4.4240    2.5280   -4.9060 C   0  0  0  0  0  0
    5.9570    1.8050   -3.1710 C   0  0  0  0  0  0
    5.7240    2.4450   -4.3950 C   0  0  0  0  0  0
    6.7750    2.9980   -5.0960 O   0  0  0  0  0  0
    6.5540    4.2980   -5.6230 C   0  0  0  0  0  0
    0.5533   -0.9077   -3.4883 H   0  0  0  0  0  0
    1.6298   -3.4224   -2.1416 H   0  0  0  0  0  0
   -0.2109   -2.0853   -1.1170 H   0  0  0  0  0  0
   -0.7799   -3.7176   -1.6055 H   0  0  0  0  0  0
   -1.1832   -2.2868   -2.6139 H   0  0  0  0  0  0
    1.4943   -4.0234   -4.5489 H   0  0  0  0  0  0
   -0.1941   -3.4128   -4.6072 H   0  0  0  0  0  0
    0.2092   -4.8436   -3.5988 H   0  0  0  0  0  0
    2.4351   -0.4619   -7.5819 H   0  0  0  0  0  0
    1.1592   -0.2418   -5.4507 H   0  0  0  0  0  0
    3.8970   -2.0422   -2.8827 H   0  0  0  0  0  0
    4.2413   -0.8041   -1.6276 H   0  0  0  0  0  0
    2.6811   -1.2353    0.6094 H   0  0  0  0  0  0
    4.0485   -4.2286   -2.1372 H   0  0  0  0  0  0
    2.4378   -3.0251    2.3323 H   0  0  0  0  0  0
    3.0255   -5.3568    1.7496 H   0  0  0  0  0  0
    2.3438    2.0327   -4.5902 H   0  0  0  0  0  0
    5.0642    0.7564   -1.5047 H   0  0  0  0  0  0
    4.2429    3.0261   -5.8585 H   0  0  0  0  0  0
    6.9698    1.7377   -2.7738 H   0  0  0  0  0  0
    7.4542    4.6346   -6.1581 H   0  0  0  0  0  0
    6.3344    4.9946   -4.8005 H   0  0  0  0  0  0
    5.7022    4.2717   -6.3186 H   0  0  0  0  0  0
  1  2  1  0  0  0
  1 10  1  0  0  0
  1 17  1  0  0  0
  2  3  1  0  0  0
  2  6  1  0  0  0
  2 28  1  0  0  0
  3  4  1  0  0  0
  3  5  1  0  0  0
  3 29  1  0  0  0
  4 30  1  0  0  0
  4 31  1  0  0  0
  4 32  1  0  0  0
  5 33  1  0  0  0
  5 34  1  0  0  0
  5 35  1  0  0  0
  6  7  2  0  0  0
  6  9  1  0  0  0
  8  9  1  0  0  0
  8 36  1  0  0  0
  9 37  1  0  0  0
 10 11  1  0  0  0
 10 38  1  0  0  0
 10 39  1  0  0  0
 11 12  2  0  0  0
 11 13  1  0  0  0
 12 14  1  0  0  0
 12 40  1  0  0  0
 13 16  2  0  0  0
 13 41  1  0  0  0
 14 15  2  0  0  0
 14 42  1  0  0  0
 15 16  1  0  0  0
 15 43  1  0  0  0
 17 18  2  0  0  0
 17 19  2  0  0  0
 17 20  1  0  0  0
 20 21  2  0  0  0
 20 22  1  0  0  0
 21 23  1  0  0  0
 21 44  1  0  0  0
 22 24  2  0  0  0
 22 45  1  0  0  0
 23 25  2  0  0  0
 23 46  1  0  0  0
 24 25  1  0  0  0
 24 47  1  0  0  0
 25 26  1  0  0  0
 26 27  1  0  0  0
 27 48  1  0  0  0
 27 49  1  0  0  0
 27 50  1  0  0  0
M  END
> <s_m_source_file>
../1eub_ligand.sdf

> <i_m_source_file_index>
1

> <s_epik_input>
W2NIXTFbY0hdYyhPW0NIM10pW2NIXVtjSF1jMVMoPU8pKD1PKU4oW0NASF0oW0NIXShbQ0gzXSlbQ0gzXSlDKD1PKVtOSF1bT0hdKVtDSDJdYzJbY0hdW2NIXVtjSF1uW2NIXTI=

> <s_epik_cmdline>
J2VwaWtfYXBwJywgJy1pbWFlJywgJ2xpZ2FuZF9wcm8ubWFlJywgJy1vbWFlJywgJ2xpZ2FuZF9wcmVwLm1hZScsICctbXMnLCAnMScsICctcGgnLCAnNycsICctcGh0JywgJzAuNScsICctbnQn

> <r_lp_tautomer_probability>
1

> <r_epik_Ionization_Penalty>
  0.0224

> <r_epik_Ionization_Penalty_Charging>
  0.0000

> <r_epik_Ionization_Penalty_Neutral>
  0.0224

> <r_epik_State_Penalty>
  0.0110

> <r_epik_Charging_Adjusted_Penalty>
0.0109823314056708

> <i_epik_Tot_Q>
0

> <i_epik_Tot_abs_Q>
0

> <s_epik_Chemistry_Notes>
This compound has a N-S or N-O group and may undergo hydrolysis at high or low pH.

$$$$
