1eve_ligand
                    3D
 Schrodinger Suite 2020-3.
 58 61  0  0  1  0            999 V2000
    1.0570   60.0560   71.2400 C   0  0  0  0  0  0
    0.1880   61.0790   71.6280 C   0  0  0  0  0  0
    0.3470   62.4150   71.1710 C   0  0  0  0  0  0
    1.4470   62.7200   70.2700 C   0  0  0  0  0  0
    2.3060   61.6650   69.8810 C   0  0  0  0  0  0
    2.1400   60.3710   70.3620 C   0  0  0  0  0  0
    3.3650   62.0940   69.0160 C   0  0  0  0  0  0
    3.0860   63.5900   68.7400 C   0  0  1  0  0  0
    1.8390   63.9920   69.5580 C   0  0  0  0  0  0
    4.1050   64.5760   69.2450 C   0  0  0  0  0  0
    4.3070   65.8480   68.5330 C   0  0  1  0  0  0
    5.0060   65.6370   67.1950 C   0  0  0  0  0  0
    5.1610   66.9190   66.4250 C   0  0  0  0  0  0
    3.8540   67.6350   66.2370 N   0  3  1  0  0  0
    3.1770   67.9970   67.5350 C   0  0  0  0  0  0
    3.0040   66.7080   68.3900 C   0  0  0  0  0  0
    3.7430   68.9430   65.4830 C   0  0  0  0  0  0
    3.9920   68.8470   63.9880 C   0  0  0  0  0  0
    2.8640   68.6750   63.1260 C   0  0  0  0  0  0
    3.0520   68.4320   61.7230 C   0  0  0  0  0  0
    4.3450   68.3900   61.1950 C   0  0  0  0  0  0
    5.4790   68.5980   62.0460 C   0  0  0  0  0  0
    5.3100   68.8690   63.4400 C   0  0  0  0  0  0
    4.3250   61.3750   68.6150 O   0  0  0  0  0  0
    0.8900   58.7620   71.6440 O   0  0  0  0  0  0
    1.8420   57.6470   71.2650 C   0  0  0  0  0  0
   -0.9250   61.0250   72.3210 O   0  0  0  0  0  0
   -1.4340   59.8620   72.9280 C   0  0  0  0  0  0
   -0.3426   63.1966   71.4898 H   0  0  0  0  0  0
    2.8414   59.5905   70.0671 H   0  0  0  0  0  0
    3.0510   63.6641   67.6431 H   0  0  0  0  0  0
    1.0098   64.3230   68.9155 H   0  0  0  0  0  0
    2.0627   64.7732   70.2994 H   0  0  0  0  0  0
    3.8441   64.8808   70.2692 H   0  0  0  0  0  0
    5.1003   64.1076   69.2442 H   0  0  0  0  0  0
    5.0016   66.3849   69.1957 H   0  0  0  0  0  0
    6.0089   65.2192   67.3671 H   0  0  0  0  0  0
    4.4186   64.9390   66.5804 H   0  0  0  0  0  0
    5.8423   67.5918   66.9665 H   0  0  0  0  0  0
    5.5754   66.7011   65.4296 H   0  0  0  0  0  0
    3.4181   66.8337   65.6222 H   0  0  0  0  0  0
    3.7955   68.7248   68.0806 H   0  0  0  0  0  0
    2.1917   68.4383   67.3241 H   0  0  0  0  0  0
    2.2186   66.1064   67.9092 H   0  0  0  0  0  0
    2.6637   67.0265   69.3864 H   0  0  0  0  0  0
    2.7299   69.3530   65.6073 H   0  0  0  0  0  0
    4.4790   69.6581   65.8790 H   0  0  0  0  0  0
    1.8555   68.7286   63.5362 H   0  0  0  0  0  0
    2.1900   68.2810   61.0731 H   0  0  0  0  0  0
    4.4916   68.1983   60.1320 H   0  0  0  0  0  0
    6.4834   68.5490   61.6254 H   0  0  0  0  0  0
    6.1708   69.0881   64.0718 H   0  0  0  0  0  0
    1.4954   56.7022   71.7090 H   0  0  0  0  0  0
    2.8490   57.8811   71.6407 H   0  0  0  0  0  0
    1.8731   57.5478   70.1699 H   0  0  0  0  0  0
   -2.3767   60.0996   73.4427 H   0  0  0  0  0  0
   -0.7044   59.4796   73.6570 H   0  0  0  0  0  0
   -1.6188   59.0978   72.1587 H   0  0  0  0  0  0
  1 25  1  0  0  0
  1  6  2  0  0  0
  1  2  1  0  0  0
  2 27  1  0  0  0
  2  3  2  0  0  0
  3  4  1  0  0  0
  3 29  1  0  0  0
  4  9  1  0  0  0
  4  5  2  0  0  0
  5  7  1  0  0  0
  5  6  1  0  0  0
  6 30  1  0  0  0
  7 24  2  0  0  0
  7  8  1  0  0  0
  8 10  1  0  0  0
  8  9  1  0  0  0
  8 31  1  0  0  0
  9 32  1  0  0  0
  9 33  1  0  0  0
 10 11  1  0  0  0
 10 34  1  0  0  0
 10 35  1  0  0  0
 11 16  1  0  0  0
 11 12  1  0  0  0
 11 36  1  0  0  0
 12 13  1  0  0  0
 12 37  1  0  0  0
 12 38  1  0  0  0
 13 14  1  0  0  0
 13 39  1  0  0  0
 13 40  1  0  0  0
 14 17  1  0  0  0
 14 15  1  0  0  0
 14 41  1  0  0  0
 15 16  1  0  0  0
 15 42  1  0  0  0
 15 43  1  0  0  0
 16 44  1  0  0  0
 16 45  1  0  0  0
 17 18  1  0  0  0
 17 46  1  0  0  0
 17 47  1  0  0  0
 18 23  2  0  0  0
 18 19  1  0  0  0
 19 20  2  0  0  0
 19 48  1  0  0  0
 20 21  1  0  0  0
 20 49  1  0  0  0
 21 22  2  0  0  0
 21 50  1  0  0  0
 22 23  1  0  0  0
 22 51  1  0  0  0
 23 52  1  0  0  0
 25 26  1  0  0  0
 26 53  1  0  0  0
 26 54  1  0  0  0
 26 55  1  0  0  0
 27 28  1  0  0  0
 28 56  1  0  0  0
 28 57  1  0  0  0
 28 58  1  0  0  0
M  CHG  1  14   1
M  END
> <s_m_source_file>
../1eve_ligand.sdf

> <i_m_source_file_index>
1

> <s_epik_input>
W0NIM11PYyhbY0hdMSljKE9bQ0gzXSlbY0hdYyhjMTIpQyg9TylbQ0BASF0oW0NIMl0yKVtDSDJdW0NASF0zW0NIMl1bQ0gyXVtOQEBIK10oW0NIMl1bQ0gyXTMpW0NIMl1jNFtjSF1bY0hdW2NIXVtjSF1bY0hdNA==

> <s_epik_cmdline>
J2VwaWtfYXBwJywgJy1pbWFlJywgJ2xpZ2FuZF9wcm8ubWFlJywgJy1vbWFlJywgJ2xpZ2FuZF9wcmVwLm1hZScsICctbXMnLCAnMScsICctcGgnLCAnNycsICctcGh0JywgJzAuNScsICctbnQn

> <r_lp_tautomer_probability>
1

> <r_epik_Ionization_Penalty>
  0.0044

> <r_epik_Ionization_Penalty_Charging>
  0.0044

> <r_epik_Ionization_Penalty_Neutral>
  0.0000

> <r_epik_State_Penalty>
 -0.0000

> <r_epik_Charging_Adjusted_Penalty>
0.00443408906974131

> <i_epik_Tot_Q>
1

> <i_epik_Tot_abs_Q>
1

$$$$
