1evh_ligand
                    3D
 Schrodinger Suite 2020-3.
 83 87  0  0  1  0            999 V2000
   14.4800   17.8570   21.6620 C   0  0  0  0  0  0
   15.0350   16.8000   21.9850 O   0  0  0  0  0  0
   12.9570   17.9870   21.7120 C   0  0  0  0  0  0
   15.0680   18.7870   20.9120 N   0  0  0  0  0  0
   16.4510   18.6560   20.4610 C   0  0  2  0  0  0
   17.2200   19.9500   20.6710 C   0  0  0  0  0  0
   16.6310   21.0330   20.7280 O   0  0  0  0  0  0
   16.5190   18.3180   18.9670 C   0  0  0  0  0  0
   15.8980   17.0060   18.6060 C   0  0  0  0  0  0
   14.5300   16.9060   18.3940 C   0  0  0  0  0  0
   16.6850   15.8670   18.4730 C   0  0  0  0  0  0
   13.9530   15.6910   18.0520 C   0  0  0  0  0  0
   16.1140   14.6460   18.1320 C   0  0  0  0  0  0
   14.7480   14.5580   17.9200 C   0  0  0  0  0  0
   18.5520   19.8570   20.7940 N   0  0  0  0  0  0
   19.3470   21.0680   20.9880 C   0  0  2  0  0  0
   19.5160   21.7620   19.6420 C   0  0  0  0  0  0
   19.3160   21.1520   18.5870 O   0  0  0  0  0  0
   20.6660   20.5270   21.5330 C   0  0  0  0  0  0
   20.8020   19.2330   20.7980 C   0  0  0  0  0  0
   19.3980   18.6540   20.9000 C   0  0  0  0  0  0
   19.8820   23.0500   19.6560 N   0  0  0  0  0  0
   20.0650   23.7770   18.3990 C   0  0  2  0  0  0
   21.2580   23.2400   17.6090 C   0  0  0  0  0  0
   22.2090   22.7130   18.1870 O   0  0  0  0  0  0
   20.2740   25.2140   18.8670 C   0  0  0  0  0  0
   20.9720   25.0340   20.1750 C   0  0  0  0  0  0
   20.1780   23.9140   20.8120 C   0  0  0  0  0  0
   21.2110   23.3490   16.2730 N   0  0  0  0  0  0
   22.3160   22.8650   15.4440 C   0  0  2  0  0  0
   23.5600   23.7370   15.6310 C   0  0  0  0  0  0
   23.4890   24.8100   16.2320 O   0  0  0  0  0  0
   21.7400   22.9390   14.0300 C   0  0  0  0  0  0
   20.7890   24.0890   14.1150 C   0  0  0  0  0  0
   20.1040   23.8460   15.4360 C   0  0  0  0  0  0
   24.7170   23.2800   15.1310 N   0  0  0  0  0  0
   25.9890   24.0050   15.2370 C   0  0  2  0  0  0
   25.9110   25.4350   14.7050 C   0  0  0  0  0  0
   26.3250   26.3560   15.4410 O   0  0  0  0  0  0
   26.9460   23.1390   14.4240 C   0  0  0  0  0  0
   26.4040   21.7700   14.6300 C   0  0  0  0  0  0
   24.9200   21.9820   14.4650 C   0  0  0  0  0  0
   25.4440   25.6780   13.5603 O   0  5  0  0  0  0
   12.5416   17.1900   22.3462 H   0  0  0  0  0  0
   12.5478   17.8971   20.6949 H   0  0  0  0  0  0
   12.6863   18.9675   22.1308 H   0  0  0  0  0  0
   14.4802   19.6739   20.6329 H   0  0  0  0  0  0
   16.8584   17.8450   21.0825 H   0  0  0  0  0  0
   15.9924   19.0934   18.3913 H   0  0  0  0  0  0
   17.5709   18.2756   18.6482 H   0  0  0  0  0  0
   13.9022   17.7911   18.4972 H   0  0  0  0  0  0
   17.7605   15.9322   18.6378 H   0  0  0  0  0  0
   12.8776   15.6250   17.8870 H   0  0  0  0  0  0
   16.7402   13.7595   18.0317 H   0  0  0  0  0  0
   14.2974   13.6028   17.6503 H   0  0  0  0  0  0
   18.8733   21.7912   21.6681 H   0  0  0  0  0  0
   21.4750   21.2371   21.3067 H   0  0  0  0  0  0
   20.5867   20.3965   22.6223 H   0  0  0  0  0  0
   21.1098   19.4311   19.7607 H   0  0  0  0  0  0
   21.5604   18.6083   21.2926 H   0  0  0  0  0  0
   19.2090   18.1565   21.8627 H   0  0  0  0  0  0
   19.1588   17.9639   20.0775 H   0  0  0  0  0  0
   19.1977   23.6539   17.7337 H   0  0  0  0  0  0
   20.8852   25.7546   18.1293 H   0  0  0  0  0  0
   19.2984   25.7116   18.9701 H   0  0  0  0  0  0
   22.0236   24.7658   19.9956 H   0  0  0  0  0  0
   20.9254   25.9721   20.7476 H   0  0  0  0  0  0
   19.2357   24.2574   21.2639 H   0  0  0  0  0  0
   20.7558   23.3459   21.5560 H   0  0  0  0  0  0
   22.6267   21.8484   15.7269 H   0  0  0  0  0  0
   22.5539   23.1153   13.3113 H   0  0  0  0  0  0
   21.2369   21.9909   13.7889 H   0  0  0  0  0  0
   21.3527   25.0333   14.0929 H   0  0  0  0  0  0
   20.0960   24.0556   13.2614 H   0  0  0  0  0  0
   19.3164   23.0803   15.3772 H   0  0  0  0  0  0
   19.6910   24.7633   15.8810 H   0  0  0  0  0  0
   26.2749   24.1221   16.2927 H   0  0  0  0  0  0
   26.9190   23.4528   13.3700 H   0  0  0  0  0  0
   27.9676   23.2550   14.8150 H   0  0  0  0  0  0
   26.8260   21.0911   13.8744 H   0  0  0  0  0  0
   26.6765   21.4151   15.6349 H   0  0  0  0  0  0
   24.3170   21.2127   14.9696 H   0  0  0  0  0  0
   24.6109   22.0578   13.4120 H   0  0  0  0  0  0
  1  2  2  0  0  0
  1  3  1  0  0  0
  1  4  1  0  0  0
  3 44  1  0  0  0
  3 45  1  0  0  0
  3 46  1  0  0  0
  4  5  1  0  0  0
  4 47  1  0  0  0
  5  6  1  0  0  0
  5  8  1  0  0  0
  5 48  1  0  0  0
  6  7  2  0  0  0
  6 15  1  0  0  0
  8  9  1  0  0  0
  8 49  1  0  0  0
  8 50  1  0  0  0
  9 11  2  0  0  0
  9 10  1  0  0  0
 10 12  2  0  0  0
 10 51  1  0  0  0
 11 13  1  0  0  0
 11 52  1  0  0  0
 12 14  1  0  0  0
 12 53  1  0  0  0
 13 14  2  0  0  0
 13 54  1  0  0  0
 14 55  1  0  0  0
 15 16  1  0  0  0
 15 21  1  0  0  0
 16 19  1  0  0  0
 16 17  1  0  0  0
 16 56  1  0  0  0
 17 18  2  0  0  0
 17 22  1  0  0  0
 19 20  1  0  0  0
 19 57  1  0  0  0
 19 58  1  0  0  0
 20 21  1  0  0  0
 20 59  1  0  0  0
 20 60  1  0  0  0
 21 61  1  0  0  0
 21 62  1  0  0  0
 22 23  1  0  0  0
 22 28  1  0  0  0
 23 26  1  0  0  0
 23 24  1  0  0  0
 23 63  1  0  0  0
 24 25  2  0  0  0
 24 29  1  0  0  0
 26 27  1  0  0  0
 26 64  1  0  0  0
 26 65  1  0  0  0
 27 28  1  0  0  0
 27 66  1  0  0  0
 27 67  1  0  0  0
 28 68  1  0  0  0
 28 69  1  0  0  0
 29 30  1  0  0  0
 29 35  1  0  0  0
 30 33  1  0  0  0
 30 31  1  0  0  0
 30 70  1  0  0  0
 31 32  2  0  0  0
 31 36  1  0  0  0
 33 34  1  0  0  0
 33 71  1  0  0  0
 33 72  1  0  0  0
 34 35  1  0  0  0
 34 73  1  0  0  0
 34 74  1  0  0  0
 35 75  1  0  0  0
 35 76  1  0  0  0
 36 37  1  0  0  0
 36 42  1  0  0  0
 37 40  1  0  0  0
 37 38  1  0  0  0
 37 77  1  0  0  0
 38 39  2  0  0  0
 38 43  1  0  0  0
 40 41  1  0  0  0
 40 78  1  0  0  0
 40 79  1  0  0  0
 41 42  1  0  0  0
 41 80  1  0  0  0
 41 81  1  0  0  0
 42 82  1  0  0  0
 42 83  1  0  0  0
M  CHG  1  43  -1
M  END
> <s_m_source_file>
../1evh_ligand.sdf

> <i_m_source_file_index>
1

> <s_epik_input>
W2NIXTFbY0hdW2NIXVtjSF1bY0hdYzFbQ0gyXVtDQEhdKFtOSF1DKD1PKVtDSDNdKUMoPU8pTjJbQ0BASF0oW0NIMl1bQ0gyXVtDSDJdMilDKD1PKU4zW0NAQEhdKFtDSDJdW0NIMl1bQ0gyXTMpQyg9TylONFtDQEBIXShbQ0gyXVtDSDJdW0NIMl00KUMoPU8pTjVbQ0BIXShDKD1PKVtPSF0pW0NIMl1bQ0gyXVtDSDJdNQ==

> <s_epik_cmdline>
J2VwaWtfYXBwJywgJy1pbWFlJywgJ2xpZ2FuZF9wcm8ubWFlJywgJy1vbWFlJywgJ2xpZ2FuZF9wcmVwLm1hZScsICctbXMnLCAnMScsICctcGgnLCAnNycsICctcGh0JywgJzAuNScsICctbnQn

> <r_lp_tautomer_probability>
1

> <r_epik_Ionization_Penalty>
  0.0004

> <r_epik_Ionization_Penalty_Charging>
  0.0004

> <r_epik_Ionization_Penalty_Neutral>
  0.0000

> <r_epik_State_Penalty>
 -0.0000

> <r_epik_Charging_Adjusted_Penalty>
0.000364607412312622

> <i_epik_Tot_Q>
-1

> <i_epik_Tot_abs_Q>
1

$$$$
