1ew8_ligand
                    3D
 Schrodinger Suite 2020-3.
 11 10  0  0  1  0            999 V2000
   74.0080   39.2080   42.7000 P   0  0  0  0  0  0
   74.5960   40.5810   43.0350 O   0  5  0  0  0  0
   72.7710   39.0640   43.5800 O   0  0  0  0  0  0
   73.6850   39.1140   41.2760 O   0  0  0  0  0  0
   75.2080   37.9270   43.2380 C   0  0  0  0  0  0
   74.8340   37.7000   44.7350 C   0  0  0  0  0  0
   74.1090   38.6240   45.1830 O   0  5  0  0  0  0
   74.9690   36.5800   45.2080 O   0  0  0  0  0  0
   71.9119   39.7356   43.4353 H   0  0  0  0  0  0
   75.0758   37.0214   42.6278 H   0  0  0  0  0  0
   76.2322   38.3079   43.1117 H   0  0  0  0  0  0
  1  2  1  0  0  0
  1  3  1  0  0  0
  1  4  2  0  0  0
  1  5  1  0  0  0
  3  9  1  0  0  0
  5  6  1  0  0  0
  5 10  1  0  0  0
  5 11  1  0  0  0
  6  7  1  0  0  0
  6  8  2  0  0  0
M  CHG  2   2  -1   7  -1
M  END
> <s_m_source_file>
../1ew8_ligand.sdf

> <i_m_source_file_index>
1

> <s_epik_input>
W09IXVAoPU8pKFtPSF0pW0NIMl1DKD1PKVtPSF0=

> <s_epik_cmdline>
J2VwaWtfYXBwJywgJy1pbWFlJywgJ2xpZ2FuZF9wcm8ubWFlJywgJy1vbWFlJywgJ2xpZ2FuZF9wcmVwLm1hZScsICctbXMnLCAnMScsICctcGgnLCAnNycsICctcGh0JywgJzAuNScsICctbnQn

> <r_lp_tautomer_probability>
1

> <r_epik_Ionization_Penalty>
  0.0855

> <r_epik_Ionization_Penalty_Charging>
  0.0005

> <r_epik_Ionization_Penalty_Neutral>
  0.0850

> <r_epik_State_Penalty>
 -0.0000

> <r_epik_Charging_Adjusted_Penalty>
0.00047542846889136

> <i_epik_Tot_Q>
-2

> <i_epik_Tot_abs_Q>
2

$$$$
