1ewj_ligand
                    3D
 Schrodinger Suite 2020-3.
181186  0  0  1  0            999 V2000
   38.9010   16.4710   24.9920 N   0  0  0  0  0  0
   36.5150   16.7230   24.2540 C   0  0  2  0  0  0
   37.5800   16.6830   25.3470 C   0  0  0  0  0  0
   37.3420   16.7990   26.5290 O   0  0  0  0  0  0
   36.3690   14.2990   24.8020 N   0  3  0  0  0  0
   35.9770   15.3320   23.8540 C   0  0  0  0  0  0
   37.0280   17.3380   22.9730 N   0  3  0  0  0  0
   33.6830   10.2580   23.6380 N   0  0  0  0  0  0
   35.0220   12.2950   24.0900 C   0  0  0  0  0  0
   34.8270   10.8150   24.0950 C   0  0  0  0  0  0
   35.7540   10.0440   24.5390 O   0  0  0  0  0  0
   37.6690   12.2070   20.8620 C   0  0  0  0  0  0
   39.1650   12.2690   21.0910 C   0  0  0  0  0  0
   39.6240   12.5310   22.2770 C   0  0  0  0  0  0
   38.6430   12.7760   23.3750 N   0  0  0  0  0  0
   37.3010   12.7120   23.1320 C   0  0  0  0  0  0
   36.8330   12.4650   22.0320 N   0  0  0  0  0  0
   36.4050   12.9060   24.3750 C   0  0  1  0  0  0
   37.1400   11.9110   19.6700 N   0  0  0  0  0  0
   40.0670   12.0680   19.8880 C   0  0  0  0  0  0
   40.9540   12.5750   22.8010 C   0  0  0  0  0  0
   41.9040   12.2940   22.0680 O   0  0  0  0  0  0
   41.0690   12.9090   24.1340 N   0  0  0  0  0  0
   42.3470   12.9910   24.8100 C   0  0  2  0  0  0
   42.7780   11.6340   25.3420 C   0  0  0  0  0  0
   43.9720   11.3510   25.4670 O   0  0  0  0  0  0
   42.3050   14.0190   25.9520 C   0  0  2  0  0  0
   41.0910   13.8640   26.8540 C   0  0  0  0  0  0
   42.3160   15.3120   25.3670 O   0  0  0  0  0  0
   39.8740   13.6010   26.4120 N   0  0  0  0  0  0
   41.0680   14.0790   28.2040 C   0  0  0  0  0  0
   39.0930   13.6560   27.4710 C   0  0  0  0  0  0
   39.8100   13.9430   28.5440 N   0  0  0  0  0  0
   41.8100   10.7630   25.6430 N   0  0  0  0  0  0
   40.9610   10.1530   28.4380 C   0  0  2  0  0  0
   39.9690    9.6010   29.4430 C   0  0  0  0  0  0
   40.3170    9.1780   30.5510 O   0  0  0  0  0  0
   41.6920    7.9660   27.9420 O   0  0  0  0  0  0
   42.1180    9.4440   26.1680 C   0  0  2  0  0  0
   42.0170    8.4190   25.0500 C   0  0  0  0  0  0
   41.1470    9.1190   27.3070 C   0  0  2  0  0  0
   42.2670   10.4770   29.1640 C   0  0  0  0  0  0
   38.6970    9.5820   29.0500 N   0  0  0  0  0  0
   37.6490    9.0540   29.9080 C   0  0  2  0  0  0
   37.5680    7.5320   29.7750 C   0  0  0  0  0  0
   37.5820    6.9840   28.6660 O   0  0  0  0  0  0
   36.3140    9.7070   29.5510 C   0  0  2  0  0  0
   36.6320   10.9850   29.0090 O   0  0  0  0  0  0
   35.4150    9.8430   30.7710 C   0  0  0  0  0  0
   37.5260    6.8240   30.9140 N   0  0  0  0  0  0
   36.0590    4.8290   31.1710 C   0  0  0  0  0  0
   34.7300   -3.5370   31.6920 C   0  0  0  0  0  0
   34.4550   -4.2320   32.6640 O   0  0  0  0  0  0
   35.8810    3.4650   30.5970 C   0  0  0  0  0  0
   37.4750    5.3670   30.9460 C   0  0  0  0  0  0
   35.9930    3.0620   28.9200 S   0  0  0  0  0  0
   35.7030    1.4200   29.2700 C   0  0  0  0  0  0
   35.5380    1.2830   30.6500 C   0  0  0  0  0  0
   35.6430    2.4750   31.3600 N   0  0  0  0  0  0
   34.8820   -1.5050   33.1190 C   0  0  0  0  0  0
   34.9370   -2.0490   31.8770 C   0  0  0  0  0  0
   35.1850   -1.1380   30.8660 N   0  0  0  0  0  0
   35.3140    0.0650   31.3290 C   0  0  0  0  0  0
   35.1530    0.2040   33.0580 S   0  0  0  0  0  0
   34.8180   -3.9810   30.4440 N   0  0  0  0  0  0
   34.6570   -5.3910   30.1850 C   0  0  0  0  0  0
   33.5160   -5.6800   29.2490 C   0  0  0  0  0  0
   33.3580   -7.1870   29.0090 C   0  0  0  0  0  0
   34.5560   -7.7940   27.8070 S   0  0  0  0  0  0
   33.6360   -8.2650   26.3660 C   0  0  0  0  0  0
   35.1730   -9.3350   28.4320 C   0  0  0  0  0  0
   44.6130   19.2020   26.0480 O   0  0  0  0  0  0
   41.2610   17.9680   25.3900 O   0  0  0  0  0  0
   44.4190   17.4950   28.4650 C   0  0  0  0  0  0
   43.8380   16.8010   29.5360 O   0  0  0  0  0  0
   42.6220   16.8580   23.1130 O   0  0  0  0  0  0
   43.5400   17.3500   27.2200 C   0  0  2  0  0  0
   44.1080   16.2970   26.4350 O   0  0  0  0  0  0
   43.5520   15.9860   25.1550 C   0  0  2  0  0  0
   43.3210   17.2560   24.2950 C   0  0  2  0  0  0
   42.5910   18.3610   25.1050 C   0  0  2  0  0  0
   43.3610   18.6450   26.4050 C   0  0  2  0  0  0
   41.2420   17.6990   21.2920 C   0  0  1  0  0  0
   41.1100   16.4120   20.4670 C   0  0  2  0  0  0
   42.3350   16.2110   19.5510 C   0  0  1  0  0  0
   43.6660   16.3380   20.3060 C   0  0  2  0  0  0
   43.6970   17.4770   21.1550 O   0  0  0  0  0  0
   42.6030   17.7620   22.0200 C   0  0  2  0  0  0
   39.9740   16.3010   19.6370 O   0  0  0  0  0  0
   42.2790   14.9150   18.9950 O   0  0  0  0  0  0
   41.1420   18.8250   20.4450 O   0  0  0  0  0  0
   37.8360   16.1620   19.0260 N   0  0  0  0  0  0
   38.7460   15.9720   20.0260 C   0  0  0  0  0  0
   38.3820   15.5530   21.0910 O   0  0  0  0  0  0
   46.0230   16.6040   19.9620 O   0  0  0  0  0  0
   44.7950   16.5460   19.2950 C   0  0  0  0  0  0
   39.1745   16.3585   23.9325 H   0  0  0  0  0  0
   39.6772   16.4150   25.7694 H   0  0  0  0  0  0
   35.7243   17.3434   24.7011 H   0  0  0  0  0  0
   37.3900   14.4979   25.1596 H   0  0  0  0  0  0
   35.6747   14.3017   25.6552 H   0  0  0  0  0  0
   34.8781   15.3613   23.8148 H   0  0  0  0  0  0
   36.3720   15.0566   22.8650 H   0  0  0  0  0  0
   37.4303   18.3400   23.1828 H   0  0  0  0  0  0
   36.2038   17.4180   22.2489 H   0  0  0  0  0  0
   37.8234   16.7037   22.5546 H   0  0  0  0  0  0
   32.8753   10.8978   23.2531 H   0  0  0  0  0  0
   33.5599    9.1650   23.6511 H   0  0  0  0  0  0
   34.7612   12.6958   23.0994 H   0  0  0  0  0  0
   34.3748   12.7527   24.8527 H   0  0  0  0  0  0
   36.8301   12.4281   25.2699 H   0  0  0  0  0  0
   37.7971   11.7220   18.8083 H   0  0  0  0  0  0
   36.0478   11.8565   19.5512 H   0  0  0  0  0  0
   39.4526   11.8590   18.9999 H   0  0  0  0  0  0
   40.7429   11.2203   20.0741 H   0  0  0  0  0  0
   40.6596   12.9790   19.7178 H   0  0  0  0  0  0
   40.1405   13.1172   24.6859 H   0  0  0  0  0  0
   43.0463   13.3143   24.0249 H   0  0  0  0  0  0
   43.1990   13.9343   26.5873 H   0  0  0  0  0  0
   41.8218   14.3173   28.9689 H   0  0  0  0  0  0
   38.0158   13.4897   27.4639 H   0  0  0  0  0  0
   40.7631   11.0618   25.4860 H   0  0  0  0  0  0
   40.5904   11.0884   27.9933 H   0  0  0  0  0  0
   41.1784    7.5197   28.8063 H   0  0  0  0  0  0
   43.1510    9.4672   26.5453 H   0  0  0  0  0  0
   42.7246    8.6792   24.2490 H   0  0  0  0  0  0
   40.9932    8.4149   24.6477 H   0  0  0  0  0  0
   42.2601    7.4213   25.4443 H   0  0  0  0  0  0
   40.1616    8.9664   26.8425 H   0  0  0  0  0  0
   42.0730   11.2158   29.9555 H   0  0  0  0  0  0
   42.9924   10.8894   28.4472 H   0  0  0  0  0  0
   42.6752    9.5588   29.6116 H   0  0  0  0  0  0
   38.4460    9.9763   28.0542 H   0  0  0  0  0  0
   37.9304    9.3148   30.9389 H   0  0  0  0  0  0
   35.7572    9.1450   28.7867 H   0  0  0  0  0  0
   37.2761   11.0608   28.1205 H   0  0  0  0  0  0
   35.1846    8.8441   31.1698 H   0  0  0  0  0  0
   34.4808   10.3476   30.4836 H   0  0  0  0  0  0
   35.9298   10.4357   31.5415 H   0  0  0  0  0  0
   37.5314    7.3949   31.8542 H   0  0  0  0  0  0
   35.3492    5.5222   30.6960 H   0  0  0  0  0  0
   35.8719    4.7981   32.2545 H   0  0  0  0  0  0
   37.8390    4.9663   29.9884 H   0  0  0  0  0  0
   38.1099    4.9957   31.7639 H   0  0  0  0  0  0
   35.6544    0.6123   28.5397 H   0  0  0  0  0  0
   34.6926   -2.0685   34.0326 H   0  0  0  0  0  0
   35.0112   -3.2876   29.6122 H   0  0  0  0  0  0
   35.5764   -5.7874   29.7294 H   0  0  0  0  0  0
   34.4599   -5.9174   31.1306 H   0  0  0  0  0  0
   32.5806   -5.2951   29.6814 H   0  0  0  0  0  0
   33.7019   -5.1898   28.2819 H   0  0  0  0  0  0
   33.5103   -7.7269   29.9552 H   0  0  0  0  0  0
   32.3471   -7.3936   28.6276 H   0  0  0  0  0  0
   33.2052   -7.3682   25.8967 H   0  0  0  0  0  0
   32.8270   -8.9518   26.6557 H   0  0  0  0  0  0
   34.3051   -8.7672   25.6518 H   0  0  0  0  0  0
   35.7666   -9.1512   29.3397 H   0  0  0  0  0  0
   35.8065   -9.8124   27.6700 H   0  0  0  0  0  0
   34.3285   -9.9970   28.6740 H   0  0  0  0  0  0
   45.3327   19.4841   26.8306 H   0  0  0  0  0  0
   40.5707   17.7267   24.5682 H   0  0  0  0  0  0
   44.5109   18.5599   28.7249 H   0  0  0  0  0  0
   45.4167   17.0807   28.2577 H   0  0  0  0  0  0
   44.3319   16.7930   30.5189 H   0  0  0  0  0  0
   42.5237   17.0398   27.5045 H   0  0  0  0  0  0
   44.2516   15.2895   24.6697 H   0  0  0  0  0  0
   44.2551   17.6950   23.9145 H   0  0  0  0  0  0
   42.4621   19.2818   24.5172 H   0  0  0  0  0  0
   42.8697   19.4046   27.0308 H   0  0  0  0  0  0
   40.4000   17.7721   21.9960 H   0  0  0  0  0  0
   40.9312   15.6230   21.2123 H   0  0  0  0  0  0
   42.2978   16.9317   18.7208 H   0  0  0  0  0  0
   43.7885   15.4642   20.9628 H   0  0  0  0  0  0
   42.8020   18.7667   22.4212 H   0  0  0  0  0  0
   41.4024   14.6064   18.4064 H   0  0  0  0  0  0
   40.2417   18.9728   19.8305 H   0  0  0  0  0  0
   38.1647   16.5456   18.0488 H   0  0  0  0  0  0
   36.7742   15.9315   19.1975 H   0  0  0  0  0  0
   46.9522   16.7503   19.3918 H   0  0  0  0  0  0
   44.8075   15.7086   18.5819 H   0  0  0  0  0  0
   44.6314   17.4881   18.7513 H   0  0  0  0  0  0
  1  3  1  0  0  0
  1 97  1  0  0  0
  1 98  1  0  0  0
  2  3  1  0  0  0
  2  6  1  0  0  0
  2  7  1  0  0  0
  2 99  1  0  0  0
  3  4  2  0  0  0
  5  6  1  0  0  0
  5 18  1  0  0  0
  5100  1  0  0  0
  5101  1  0  0  0
  6102  1  0  0  0
  6103  1  0  0  0
  7104  1  0  0  0
  7105  1  0  0  0
  7106  1  0  0  0
  8 10  1  0  0  0
  8107  1  0  0  0
  8108  1  0  0  0
  9 10  1  0  0  0
  9 18  1  0  0  0
  9109  1  0  0  0
  9110  1  0  0  0
 10 11  2  0  0  0
 12 13  2  0  0  0
 12 17  1  0  0  0
 12 19  1  0  0  0
 13 14  1  0  0  0
 13 20  1  0  0  0
 14 15  2  0  0  0
 14 21  1  0  0  0
 15 16  1  0  0  0
 16 17  2  0  0  0
 16 18  1  0  0  0
 18111  1  0  0  0
 19112  1  0  0  0
 19113  1  0  0  0
 20114  1  0  0  0
 20115  1  0  0  0
 20116  1  0  0  0
 21 22  2  0  0  0
 21 23  1  0  0  0
 23 24  1  0  0  0
 23117  1  0  0  0
 24 25  1  0  0  0
 24 27  1  0  0  0
 24118  1  0  0  0
 25 26  2  0  0  0
 25 34  1  0  0  0
 27 28  1  0  0  0
 27 29  1  0  0  0
 27119  1  0  0  0
 28 30  2  0  0  0
 28 31  1  0  0  0
 29 79  1  0  0  0
 30 32  1  0  0  0
 31 33  2  0  0  0
 31120  1  0  0  0
 32 33  1  0  0  0
 32121  1  0  0  0
 34 39  1  0  0  0
 34122  1  0  0  0
 35 36  1  0  0  0
 35 41  1  0  0  0
 35 42  1  0  0  0
 35123  1  0  0  0
 36 37  2  0  0  0
 36 43  1  0  0  0
 38 41  1  0  0  0
 38124  1  0  0  0
 39 40  1  0  0  0
 39 41  1  0  0  0
 39125  1  0  0  0
 40126  1  0  0  0
 40127  1  0  0  0
 40128  1  0  0  0
 41129  1  0  0  0
 42130  1  0  0  0
 42131  1  0  0  0
 42132  1  0  0  0
 43 44  1  0  0  0
 43133  1  0  0  0
 44 45  1  0  0  0
 44 47  1  0  0  0
 44134  1  0  0  0
 45 46  2  0  0  0
 45 50  1  0  0  0
 47 48  1  0  0  0
 47 49  1  0  0  0
 47135  1  0  0  0
 48136  1  0  0  0
 49137  1  0  0  0
 49138  1  0  0  0
 49139  1  0  0  0
 50 55  1  0  0  0
 50140  1  0  0  0
 51 54  1  0  0  0
 51 55  1  0  0  0
 51141  1  0  0  0
 51142  1  0  0  0
 52 53  2  0  0  0
 52 61  1  0  0  0
 52 65  1  0  0  0
 54 56  1  0  0  0
 54 59  2  0  0  0
 55143  1  0  0  0
 55144  1  0  0  0
 56 57  1  0  0  0
 57 58  2  0  0  0
 57145  1  0  0  0
 58 59  1  0  0  0
 58 63  1  0  0  0
 60 61  2  0  0  0
 60 64  1  0  0  0
 60146  1  0  0  0
 61 62  1  0  0  0
 62 63  2  0  0  0
 63 64  1  0  0  0
 65 66  1  0  0  0
 65147  1  0  0  0
 66 67  1  0  0  0
 66148  1  0  0  0
 66149  1  0  0  0
 67 68  1  0  0  0
 67150  1  0  0  0
 67151  1  0  0  0
 68 69  1  0  0  0
 68152  1  0  0  0
 68153  1  0  0  0
 69 70  1  0  0  0
 69 71  1  0  0  0
 70154  1  0  0  0
 70155  1  0  0  0
 70156  1  0  0  0
 71157  1  0  0  0
 71158  1  0  0  0
 71159  1  0  0  0
 72 82  1  0  0  0
 72160  1  0  0  0
 73 81  1  0  0  0
 73161  1  0  0  0
 74 75  1  0  0  0
 74 77  1  0  0  0
 74162  1  0  0  0
 74163  1  0  0  0
 75164  1  0  0  0
 76 80  1  0  0  0
 76 88  1  0  0  0
 77 78  1  0  0  0
 77 82  1  0  0  0
 77165  1  0  0  0
 78 79  1  0  0  0
 79 80  1  0  0  0
 79166  1  0  0  0
 80 81  1  0  0  0
 80167  1  0  0  0
 81 82  1  0  0  0
 81168  1  0  0  0
 82169  1  0  0  0
 83 84  1  0  0  0
 83 88  1  0  0  0
 83 91  1  0  0  0
 83170  1  0  0  0
 84 85  1  0  0  0
 84 89  1  0  0  0
 84171  1  0  0  0
 85 86  1  0  0  0
 85 90  1  0  0  0
 85172  1  0  0  0
 86 87  1  0  0  0
 86 96  1  0  0  0
 86173  1  0  0  0
 87 88  1  0  0  0
 88174  1  0  0  0
 89 93  1  0  0  0
 90175  1  0  0  0
 91176  1  0  0  0
 92 93  1  0  0  0
 92177  1  0  0  0
 92178  1  0  0  0
 93 94  2  0  0  0
 95 96  1  0  0  0
 95179  1  0  0  0
 96180  1  0  0  0
 96181  1  0  0  0
M  CHG  2   5   1   7   1
M  END
> <s_m_source_file>
../1ewj_ligand.sdf

> <i_m_source_file_index>
1

> <s_epik_input>
W05IMl1DKD1PKU9bQ0BIXShbQ0BASF0xW09IXSlbQ0BIXShbT0hdKVtDQEBIXShbQ0gyXVtPSF0pT1tDQEBIXTFPW0NAQEhdKFtDQEBIXShbT0hdKVtDQEBIXTJbT0hdKVtDQEBIXShPW0NASF0yW0NIMl1bT0hdKU9bQ0BASF0oQzM9TltDSDJdTj1bQ0hdMylbQ0BIXShbTkhdQyg9TyljKGMoW0NIM10pYzRbTkgyXSluYyhuNClbQ0BIXShbQ0gyXUMoPU8pW05IMl0pW05IMitdW0NIMl1bQ0BIXShbTkgzK10pQyg9TylbTkgyXSlDKD1PKVtOSF1bQ0BIXShbQ0gzXSlbQ0BASF0oW09IXSlbQ0BIXShbQ0gzXSlDKD1PKVtOSF1bQ0BASF0oW0NASF0oW09IXSlbQ0gzXSlDKD1PKVtOSF1bQ0gyXVtDSDJdYzVzW2NIXWMobjUpLWMobjYpc1tjSF1jNkMoPU8pW05IXVtDSDJdW0NIMl1bQ0gyXVtTSF0oW0NIM10pW0NIM10=

> <s_epik_cmdline>
J2VwaWtfYXBwJywgJy1pbWFlJywgJ2xpZ2FuZF9wcm8ubWFlJywgJy1vbWFlJywgJ2xpZ2FuZF9wcmVwLm1hZScsICctbXMnLCAnMScsICctcGgnLCAnNycsICctcGh0JywgJzAuNScsICctbnQn

> <s_epik_pKa_notes>
Molecule size exceeds maximum supported for generating protonation states

> <s_epik_Chemistry_Notes>
This compound has an ester and may undergo hydrolysis at high or low pH. This compound has an imine and may undergo hydrolysis. This compound contains an acetal/aminal-like group ( X-CH(R)-Y where X, Y are N, S, or O) that may be acid/base labile, releasing an aldehyde.

$$$$
