1exv_ligand
                    3D
 Schrodinger Suite 2020-3.
 48 51  0  0  1  0            999 V2000
   97.6380   92.2600   75.7210 C   0  0  0  0  0  0
   97.6230   91.2390   74.5590 C   0  0  0  0  0  0
   98.7270   90.3510   74.3240 C   0  0  0  0  0  0
   98.6790   89.4100   73.2590 C   0  0  0  0  0  0
   97.5380   89.3350   72.4210 C   0  0  0  0  0  0
   96.4380   90.2120   72.6430 C   0  0  0  0  0  0
   96.4830   91.1610   73.7070 C   0  0  0  0  0  0
   96.7350   91.8380   76.9520 C   0  0  1  0  0  0
   97.2770   90.5970   77.4450 C   0  0  0  0  0  0
   98.2570   90.6450   78.1600 O   0  0  0  0  0  0
   96.7170   89.4350   77.0000 N   0  0  0  0  0  0
   95.4720   89.1040   76.2700 C   0  0  0  0  0  0
   95.7740   87.6130   76.4730 C   0  0  0  0  0  0
   94.7080   86.6570   77.0280 C   0  0  0  0  0  0
   93.5360   87.0200   76.8360 O   0  5  0  0  0  0
   95.1640   85.6300   77.5470 O   0  0  0  0  0  0
   97.0260   88.0630   77.3670 C   0  0  0  0  0  0
   96.7280   92.9170   77.9730 N   0  0  0  0  0  0
   95.9860   92.8420   79.1270 C   0  0  0  0  0  0
   95.9830   93.9110   80.1670 C   0  0  0  0  0  0
   96.7220   95.2410   80.2310 C   0  0  0  0  0  0
   96.3170   95.8390   81.5580 C   0  0  0  0  0  0
   95.4320   94.8700   82.0970 C   0  0  0  0  0  0
   94.8200   95.0610   83.3710 C   0  0  0  0  0  0
   95.1350   96.2440   84.0960 C   0  0  0  0  0  0
   96.0280   97.2130   83.5590 C   0  0  3  0  0  0
   96.3760   98.6320   84.4890 Cl  0  0  0  0  0  0
   96.6350   97.0270   82.2740 C   0  0  0  0  0  0
   95.2830   93.8100   81.2570 N   0  0  0  0  0  0
   95.2910   91.8780   79.3700 O   0  0  0  0  0  0
   98.6663   92.3758   76.0941 H   0  0  0  0  0  0
   97.2671   93.2309   75.3608 H   0  0  0  0  0  0
   99.6068   90.3986   74.9657 H   0  0  0  0  0  0
   99.5236   88.7431   73.0861 H   0  0  0  0  0  0
   97.5027   88.6084   71.6093 H   0  0  0  0  0  0
   95.5604   90.1579   71.9988 H   0  0  0  0  0  0
   95.6392   91.8316   73.8697 H   0  0  0  0  0  0
   95.6723   91.6459   76.7429 H   0  0  0  0  0  0
   94.6108   89.5402   76.7973 H   0  0  0  0  0  0
   95.5243   89.5147   75.2509 H   0  0  0  0  0  0
   95.8541   86.9326   75.6124 H   0  0  0  0  0  0
   98.0417   87.8124   77.0271 H   0  0  0  0  0  0
   96.9678   87.9538   78.4600 H   0  0  0  0  0  0
   97.3338   93.8224   77.8205 H   0  0  0  0  0  0
   97.3735   95.5488   79.3998 H   0  0  0  0  0  0
   94.1219   94.3248   83.7961 H   0  0  0  0  0  0
   94.6864   96.4188   85.0850 H   0  0  0  0  0  0
   97.3253   97.7640   81.8377 H   0  0  0  0  0  0
  1  2  1  0  0  0
  1  8  1  0  0  0
  1 31  1  0  0  0
  1 32  1  0  0  0
  2  3  2  0  0  0
  2  7  1  0  0  0
  3  4  1  0  0  0
  3 33  1  0  0  0
  4  5  2  0  0  0
  4 34  1  0  0  0
  5  6  1  0  0  0
  5 35  1  0  0  0
  6  7  2  0  0  0
  6 36  1  0  0  0
  7 37  1  0  0  0
  8  9  1  0  0  0
  8 18  1  0  0  0
  8 38  1  0  0  0
  9 10  2  0  0  0
  9 11  1  0  0  0
 11 12  1  0  0  0
 11 17  1  0  0  0
 12 13  1  0  0  0
 12 39  1  0  0  0
 12 40  1  0  0  0
 13 14  1  0  0  0
 13 17  1  0  0  0
 13 41  1  0  0  0
 14 15  1  0  0  0
 14 16  2  0  0  0
 17 42  1  0  0  0
 17 43  1  0  0  0
 18 19  1  0  0  0
 18 44  1  0  0  0
 19 20  1  0  0  0
 19 30  2  0  0  0
 20 21  2  0  0  0
 20 29  1  0  0  0
 21 22  1  0  0  0
 21 45  1  0  0  0
 22 23  1  0  0  0
 22 28  2  0  0  0
 23 24  1  0  0  0
 23 29  2  0  0  0
 24 25  2  0  0  0
 24 46  1  0  0  0
 25 26  1  0  0  0
 25 47  1  0  0  0
 26 27  1  0  0  0
 26 28  1  0  0  0
 28 48  1  0  0  0
M  CHG  1  15  -1
M  END
> <s_m_source_file>
../1exv_ligand.sdf

> <i_m_source_file_index>
1

> <s_epik_input>
W2NIXTFbY0hdW2NIXVtjSF1bY0hdYzFbQ0gyXVtDQEBIXShDKD1PKU4yW0NIMl1bQ0hdKFtDSDJdMilDKD1PKVtPSF0pW05IXUMoPU8pQyg9W0NIXTMpTj1DKEMzPTQpW0NIXT1bQ0hdW0NIXShDbClbQ0hdNA==

> <s_epik_cmdline>
J2VwaWtfYXBwJywgJy1pbWFlJywgJ2xpZ2FuZF9wcm8ubWFlJywgJy1vbWFlJywgJ2xpZ2FuZF9wcmVwLm1hZScsICctbXMnLCAnMScsICctcGgnLCAnNycsICctcGh0JywgJzAuNScsICctbnQn

> <r_epik_Ionization_Penalty>
  0.1445

> <r_epik_Ionization_Penalty_Charging>
  0.0006

> <r_epik_Ionization_Penalty_Neutral>
  0.1439

> <r_epik_State_Penalty>
  0.1332

> <r_epik_Charging_Adjusted_Penalty>
0.13377957834868

> <i_epik_Tot_Q>
-1

> <i_epik_Tot_abs_Q>
1

> <s_epik_Chemistry_Notes>
This compound has an imine and may undergo hydrolysis.

$$$$
