1exw_ligand
                    3D
 Schrodinger Suite 2020-3.
 52 51  0  0  1  0            999 V2000
   42.9280    9.5870   58.8790 C   0  0  0  0  0  0
   42.4020    8.1950   58.9090 C   0  0  0  0  0  0
   43.3180    7.4860   59.9130 C   0  0  0  0  0  0
   42.9660    5.9840   60.0950 C   0  0  0  0  0  0
   41.6680    5.9380   60.9320 C   0  0  0  0  0  0
   40.5870    5.1780   60.2490 C   0  0  0  0  0  0
   40.3280    3.8060   60.9430 C   0  0  0  0  0  0
   39.2100    3.1460   60.1060 C   0  0  0  0  0  0
   38.6800    1.8610   60.8410 C   0  0  0  0  0  0
   37.6330    1.2890   59.9530 C   0  0  0  0  0  0
   38.0770    0.3380   58.8450 C   0  0  0  0  0  0
   36.7940   -0.0060   58.1900 C   0  0  0  0  0  0
   36.3680   -1.4740   58.1560 C   0  0  0  0  0  0
   34.9320   -1.5630   57.7120 C   0  0  0  0  0  0
   34.4130   -3.0320   57.6580 C   0  0  0  0  0  0
   32.9770   -2.9910   57.7820 C   0  0  0  0  0  0
   42.4510   10.9840   59.0130 S   0  0  0  0  0  0
   41.3870   11.3750   57.7520 O   0  0  0  0  0  0
   41.4500   11.5150   60.4350 O   0  0  0  0  0  0
   43.6801    9.7119   59.6720 H   0  0  0  0  0  0
   43.3908    9.7831   57.9006 H   0  0  0  0  0  0
   41.3521    8.2068   59.2369 H   0  0  0  0  0  0
   42.4668    7.7568   57.9021 H   0  0  0  0  0  0
   44.3598    7.5465   59.5651 H   0  0  0  0  0  0
   43.2308    7.9723   60.8958 H   0  0  0  0  0  0
   42.8153    5.5206   59.1088 H   0  0  0  0  0  0
   43.7896    5.4750   60.6172 H   0  0  0  0  0  0
   41.8712    5.4511   61.8972 H   0  0  0  0  0  0
   41.3079    6.9626   61.1068 H   0  0  0  0  0  0
   39.6555    5.7626   60.2743 H   0  0  0  0  0  0
   40.8743    4.9910   59.2038 H   0  0  0  0  0  0
   41.2520    3.2093   60.9320 H   0  0  0  0  0  0
   40.0130    3.9750   61.9833 H   0  0  0  0  0  0
   38.3812    3.8574   59.9754 H   0  0  0  0  0  0
   39.6084    2.8624   59.1207 H   0  0  0  0  0  0
   39.5096    1.1536   60.9868 H   0  0  0  0  0  0
   38.2630    2.1436   61.8189 H   0  0  0  0  0  0
   36.9163    0.7119   60.5557 H   0  0  0  0  0  0
   37.1050    2.1041   59.4364 H   0  0  0  0  0  0
   38.7749    0.8586   58.1728 H   0  0  0  0  0  0
   38.5782   -0.5344   59.2896 H   0  0  0  0  0  0
   35.9706    0.5155   58.6999 H   0  0  0  0  0  0
   36.8264    0.3034   57.1349 H   0  0  0  0  0  0
   37.0072   -2.0250   57.4505 H   0  0  0  0  0  0
   36.4712   -1.9091   59.1610 H   0  0  0  0  0  0
   34.2957   -1.0050   58.4147 H   0  0  0  0  0  0
   34.8321   -1.1317   56.7050 H   0  0  0  0  0  0
   34.7025   -3.4882   56.6998 H   0  0  0  0  0  0
   34.8534   -3.6071   58.4858 H   0  0  0  0  0  0
   32.5766   -4.0150   57.7476 H   0  0  0  0  0  0
   32.5541   -2.4039   56.9535 H   0  0  0  0  0  0
   32.7049   -2.5228   58.7395 H   0  0  0  0  0  0
  1  2  1  0  0  0
  1 17  1  0  0  0
  1 20  1  0  0  0
  1 21  1  0  0  0
  2  3  1  0  0  0
  2 22  1  0  0  0
  2 23  1  0  0  0
  3  4  1  0  0  0
  3 24  1  0  0  0
  3 25  1  0  0  0
  4  5  1  0  0  0
  4 26  1  0  0  0
  4 27  1  0  0  0
  5  6  1  0  0  0
  5 28  1  0  0  0
  5 29  1  0  0  0
  6  7  1  0  0  0
  6 30  1  0  0  0
  6 31  1  0  0  0
  7  8  1  0  0  0
  7 32  1  0  0  0
  7 33  1  0  0  0
  8  9  1  0  0  0
  8 34  1  0  0  0
  8 35  1  0  0  0
  9 10  1  0  0  0
  9 36  1  0  0  0
  9 37  1  0  0  0
 10 11  1  0  0  0
 10 38  1  0  0  0
 10 39  1  0  0  0
 11 12  1  0  0  0
 11 40  1  0  0  0
 11 41  1  0  0  0
 12 13  1  0  0  0
 12 42  1  0  0  0
 12 43  1  0  0  0
 13 14  1  0  0  0
 13 44  1  0  0  0
 13 45  1  0  0  0
 14 15  1  0  0  0
 14 46  1  0  0  0
 14 47  1  0  0  0
 15 16  1  0  0  0
 15 48  1  0  0  0
 15 49  1  0  0  0
 16 50  1  0  0  0
 16 51  1  0  0  0
 16 52  1  0  0  0
 17 18  1  0  0  0
 17 19  1  0  0  0
M  END
> <s_m_source_file>
../1exw_ligand.sdf

> <i_m_source_file_index>
1

> <s_epik_input>
W09IXVtTSF0oW09IXSlbQ0gyXVtDSDJdW0NIMl1bQ0gyXVtDSDJdW0NIMl1bQ0gyXVtDSDJdW0NIMl1bQ0gyXVtDSDJdW0NIMl1bQ0gyXVtDSDJdW0NIMl1bQ0gzXQ==

> <s_epik_cmdline>
J2VwaWtfYXBwJywgJy1pbWFlJywgJ2xpZ2FuZF9wcm8ubWFlJywgJy1vbWFlJywgJ2xpZ2FuZF9wcmVwLm1hZScsICctbXMnLCAnMScsICctcGgnLCAnNycsICctcGh0JywgJzAuNScsICctbnQn

> <r_lp_tautomer_probability>
1

> <r_epik_Ionization_Penalty>
  0.0000

> <r_epik_Ionization_Penalty_Charging>
  0.0000

> <r_epik_Ionization_Penalty_Neutral>
  0.0000

> <r_epik_State_Penalty>
 -0.0000

> <r_epik_Charging_Adjusted_Penalty>
0

> <i_epik_Tot_Q>
0

> <i_epik_Tot_abs_Q>
0

$$$$
