1ezq_ligand
                    3D
 Schrodinger Suite 2020-3.
 66 68  0  0  1  0            999 V2000
    7.2260    0.1870   17.7590 C   0  0  0  0  0  0
    7.9430    0.8410   18.7920 C   0  0  0  0  0  0
    9.3330    0.5830   18.8920 C   0  0  0  0  0  0
    9.9990   -0.2930   17.9980 C   0  0  0  0  0  0
    9.2750   -0.9420   16.9700 C   0  0  0  0  0  0
    7.8800   -0.7010   16.8480 C   0  0  0  0  0  0
    7.1360    3.9720   20.9030 C   0  0  0  0  0  0
    5.9420    3.5980   21.5860 C   0  0  0  0  0  0
    5.4120    2.2940   21.3340 C   0  0  0  0  0  0
    6.0620    1.4080   20.4320 C   0  0  0  0  0  0
    7.2490    1.7840   19.7550 C   0  0  0  0  0  0
    7.7700    3.0800   20.0090 C   0  0  0  0  0  0
    5.2730    4.5350   22.5310 C   0  0  0  0  0  0
    5.4850    5.8740   22.2930 N   0  0  0  0  0  0
    4.9130    6.9410   23.1240 C   0  0  2  0  0  0
    4.4460    8.0750   22.1970 C   0  0  0  0  0  0
    5.9910    7.4100   24.1730 C   0  0  2  0  0  0
    5.3710    8.5300   25.0530 C   0  0  0  0  0  0
    4.1050    8.1520   25.5930 O   0  0  0  0  0  0
    7.2930    7.9220   23.4540 C   0  0  0  0  0  0
    7.0910   -1.3800   15.7640 C   0  0  0  0  0  0
    6.7260   -0.4380   14.7000 N   0  3  0  0  0  0
    8.8140    7.3760   25.4750 C   0  0  0  0  0  0
    9.9870    7.6130   26.2340 C   0  0  0  0  0  0
   10.8930    8.6260   25.8190 C   0  0  0  0  0  0
   10.6260    9.3840   24.6630 C   0  0  0  0  0  0
    9.4580    9.1410   23.9140 C   0  0  0  0  0  0
    8.5360    8.1360   24.3060 C   0  0  0  0  0  0
   10.2690    6.8280   27.4410 C   0  0  0  0  0  0
   11.5370    6.6570   27.8650 N   0  0  0  0  0  0
    9.2640    6.2760   28.1360 N   0  3  0  0  0  0
    5.8330    9.6280   25.1930 O   0  0  0  0  0  0
    4.5770    4.1470   23.4760 O   0  0  0  0  0  0
    3.3210    9.1160   26.3120 C   0  0  0  0  0  0
    6.1554    0.3642   17.6568 H   0  0  0  0  0  0
    9.9067    1.0723   19.6791 H   0  0  0  0  0  0
   11.0700   -0.4667   18.1027 H   0  0  0  0  0  0
    9.7808   -1.6180   16.2806 H   0  0  0  0  0  0
    7.5657    4.9593   21.0726 H   0  0  0  0  0  0
    4.4999    1.9759   21.8389 H   0  0  0  0  0  0
    5.6386    0.4189   20.2574 H   0  0  0  0  0  0
    8.6819    3.3949   19.5017 H   0  0  0  0  0  0
    6.1186    6.1284   21.4305 H   0  0  0  0  0  0
    4.0336    6.5425   23.6511 H   0  0  0  0  0  0
    3.6974    7.6865   21.4908 H   0  0  0  0  0  0
    5.3072    8.4698   21.6381 H   0  0  0  0  0  0
    3.9992    8.8801   22.7989 H   0  0  0  0  0  0
    6.2784    6.5661   24.8174 H   0  0  0  0  0  0
    7.5940    7.1986   22.6819 H   0  0  0  0  0  0
    7.0937    8.8970   22.9852 H   0  0  0  0  0  0
    7.6931   -2.1886   15.3239 H   0  0  0  0  0  0
    6.1684   -1.8005   16.1905 H   0  0  0  0  0  0
    6.1510   -0.9655   13.9247 H   0  0  0  0  0  0
    7.6391   -0.0152   14.2555 H   0  0  0  0  0  0
    6.1143    0.3729   15.1222 H   0  0  0  0  0  0
    8.1159    6.6010   25.7915 H   0  0  0  0  0  0
   11.7971    8.8167   26.3972 H   0  0  0  0  0  0
   11.3237   10.1596   24.3473 H   0  0  0  0  0  0
    9.2596    9.7333   23.0207 H   0  0  0  0  0  0
   12.3699    7.1050   27.3032 H   0  0  0  0  0  0
   11.7389    6.0695   28.7728 H   0  0  0  0  0  0
    8.2250    6.4085   27.7999 H   0  0  0  0  0  0
    2.3849    8.6480   26.6508 H   0  0  0  0  0  0
    3.0887    9.9651   25.6524 H   0  0  0  0  0  0
    3.8887    9.4735   27.1837 H   0  0  0  0  0  0
    9.4785    5.6906   29.0423 H   0  0  0  0  0  0
  1  6  2  0  0  0
  1  2  1  0  0  0
  1 35  1  0  0  0
  2 11  1  0  0  0
  2  3  2  0  0  0
  3  4  1  0  0  0
  3 36  1  0  0  0
  4  5  2  0  0  0
  4 37  1  0  0  0
  5  6  1  0  0  0
  5 38  1  0  0  0
  6 21  1  0  0  0
  7  8  2  0  0  0
  7 12  1  0  0  0
  7 39  1  0  0  0
  8  9  1  0  0  0
  8 13  1  0  0  0
  9 10  2  0  0  0
  9 40  1  0  0  0
 10 11  1  0  0  0
 10 41  1  0  0  0
 11 12  2  0  0  0
 12 42  1  0  0  0
 13 33  2  0  0  0
 13 14  1  0  0  0
 14 15  1  0  0  0
 14 43  1  0  0  0
 15 17  1  0  0  0
 15 16  1  0  0  0
 15 44  1  0  0  0
 16 45  1  0  0  0
 16 46  1  0  0  0
 16 47  1  0  0  0
 17 20  1  0  0  0
 17 18  1  0  0  0
 17 48  1  0  0  0
 18 32  2  0  0  0
 18 19  1  0  0  0
 19 34  1  0  0  0
 20 28  1  0  0  0
 20 49  1  0  0  0
 20 50  1  0  0  0
 21 22  1  0  0  0
 21 51  1  0  0  0
 21 52  1  0  0  0
 22 53  1  0  0  0
 22 54  1  0  0  0
 22 55  1  0  0  0
 23 28  1  0  0  0
 23 24  2  0  0  0
 23 56  1  0  0  0
 24 29  1  0  0  0
 24 25  1  0  0  0
 25 26  2  0  0  0
 25 57  1  0  0  0
 26 27  1  0  0  0
 26 58  1  0  0  0
 27 28  2  0  0  0
 27 59  1  0  0  0
 29 31  2  0  0  0
 29 30  1  0  0  0
 30 60  1  0  0  0
 30 61  1  0  0  0
 31 62  1  0  0  0
 31 66  1  0  0  0
 34 63  1  0  0  0
 34 64  1  0  0  0
 34 65  1  0  0  0
M  CHG  2  22   1  31   1
M  END
> <s_m_source_file>
../1ezq_ligand.sdf

> <i_m_source_file_index>
1

> <s_epik_input>
W2NIXTFbY0hdW2NIXWMoW0NIMl1bTkgzK10pW2NIXWMxLWMoW2NIXVtjSF0yKVtjSF1bY0hdYzJDKD1PKVtOSF1bQ0BIXShbQ0gzXSlbQ0BIXShDKD1PKU9bQ0gzXSlbQ0gyXWMoW2NIXVtjSF1bY0hdMylbY0hdYzMvQyhbTkgyXSk9TlxbSF0=

> <s_epik_cmdline>
J2VwaWtfYXBwJywgJy1pbWFlJywgJ2xpZ2FuZF9wcm8ubWFlJywgJy1vbWFlJywgJ2xpZ2FuZF9wcmVwLm1hZScsICctbXMnLCAnMScsICctcGgnLCAnNycsICctcGh0JywgJzAuNScsICctbnQn

> <r_epik_Ionization_Penalty>
  0.0290

> <r_epik_Ionization_Penalty_Charging>
  0.0290

> <r_epik_Ionization_Penalty_Neutral>
  0.0000

> <r_epik_State_Penalty>
  0.0236

> <r_epik_Charging_Adjusted_Penalty>
0.0526148968279822

> <i_epik_Tot_Q>
2

> <i_epik_Tot_abs_Q>
2

> <s_epik_Chemistry_Notes>
This compound has an ester and may undergo hydrolysis at high or low pH. This compound has an imine and may undergo hydrolysis.

$$$$
