1f0q_ligand
                    3D
 Schrodinger Suite 2020-3.
 30 32  0  0  1  0            999 V2000
   44.4380    8.6260    2.8160 C   0  0  0  0  0  0
   45.2150    9.7220    2.4500 O   0  0  0  0  0  0
   44.1340    7.7130    1.7570 C   0  0  0  0  0  0
   43.3440    6.5560    2.0280 C   0  0  0  0  0  0
   43.0370    5.6540    1.0140 O   0  0  0  0  0  0
   42.8410    6.2870    3.3480 C   0  0  0  0  0  0
   43.1290    7.1810    4.4340 C   0  0  0  0  0  0
   42.5980    6.8860    5.8540 C   0  0  0  0  0  0
   41.9180    5.8870    6.0690 O   0  0  0  0  0  0
   42.9280    7.8720    7.0010 C   0  0  0  0  0  0
   42.4560    7.6230    8.3570 C   0  0  0  0  0  0
   42.7810    8.5510    9.4250 C   0  0  0  0  0  0
   42.3340    8.3970   10.8460 C   0  0  0  0  0  0
   43.5810    9.7040    9.1550 C   0  0  0  0  0  0
   44.0450    9.9480    7.8270 C   0  0  0  0  0  0
   44.8310   11.1160    7.6330 O   0  0  0  0  0  0
   43.7500    9.0500    6.7400 C   0  0  0  0  0  0
   44.2690    9.3490    5.3210 C   0  0  0  0  0  0
   44.9520   10.3400    5.0970 O   0  0  0  0  0  0
   43.9400    8.3710    4.1730 C   0  0  0  0  0  0
   45.5471    9.8373    1.4077 H   0  0  0  0  0  0
   44.5038    7.9003    0.7489 H   0  0  0  0  0  0
   43.4054    5.8287   -0.0077 H   0  0  0  0  0  0
   42.2364    5.3976    3.5255 H   0  0  0  0  0  0
   41.8572    6.7374    8.5700 H   0  0  0  0  0  0
   41.7289    7.4835   10.9431 H   0  0  0  0  0  0
   41.7304    9.2693   11.1371 H   0  0  0  0  0  0
   43.2144    8.3250   11.5015 H   0  0  0  0  0  0
   43.8358   10.3941    9.9594 H   0  0  0  0  0  0
   45.0411   11.7847    8.4808 H   0  0  0  0  0  0
  1  2  1  0  0  0
  1  3  2  0  0  0
  1 20  1  0  0  0
  2 21  1  0  0  0
  3  4  1  0  0  0
  3 22  1  0  0  0
  4  5  1  0  0  0
  4  6  2  0  0  0
  5 23  1  0  0  0
  6  7  1  0  0  0
  6 24  1  0  0  0
  7  8  1  0  0  0
  7 20  2  0  0  0
  8  9  2  0  0  0
  8 10  1  0  0  0
 10 11  2  0  0  0
 10 17  1  0  0  0
 11 12  1  0  0  0
 11 25  1  0  0  0
 12 13  1  0  0  0
 12 14  2  0  0  0
 13 26  1  0  0  0
 13 27  1  0  0  0
 13 28  1  0  0  0
 14 15  1  0  0  0
 14 29  1  0  0  0
 15 16  1  0  0  0
 15 17  2  0  0  0
 16 30  1  0  0  0
 17 18  1  0  0  0
 18 19  2  0  0  0
 18 20  1  0  0  0
M  END
> <s_m_source_file>
../1f0q_ligand.sdf

> <i_m_source_file_index>
1

> <s_epik_input>
W09IXWMoW2NIXTEpW2NIXWMoW09IXSljKGMxMilDKD1PKWMzYyhDMj1PKVtjSF1jKFtDSDNdKVtjSF1jM1tPSF0=

> <s_epik_cmdline>
J2VwaWtfYXBwJywgJy1pbWFlJywgJ2xpZ2FuZF9wcm8ubWFlJywgJy1vbWFlJywgJ2xpZ2FuZF9wcmVwLm1hZScsICctbXMnLCAnMScsICctcGgnLCAnNycsICctcGh0JywgJzAuNScsICctbnQn

> <r_epik_Ionization_Penalty>
  0.1082

> <r_epik_Ionization_Penalty_Charging>
  0.0000

> <r_epik_Ionization_Penalty_Neutral>
  0.1082

> <r_epik_State_Penalty>
  0.0934

> <r_epik_Charging_Adjusted_Penalty>
0.0934409931676444

> <i_epik_Tot_Q>
0

> <i_epik_Tot_abs_Q>
0

$$$$
