1f0r_ligand
                    3D
 Schrodinger Suite 2020-3.
 51 55  0  0  1  0            999 V2000
    7.7410    9.1240   22.8480 C   0  0  0  0  0  0
    9.0880    9.4590   23.1410 C   0  0  0  0  0  0
    9.7550    8.8810   24.2720 C   0  0  0  0  0  0
    9.0680    7.9360   25.1490 C   0  0  0  0  0  0
    7.7300    7.5870   24.8810 C   0  0  0  0  0  0
    7.0170    8.2060   23.6710 C   0  0  0  0  0  0
   11.1090    9.2260   24.5460 C   0  0  0  0  0  0
   11.7210    8.6290   25.6650 C   0  0  0  0  0  0
   11.0810    7.7380   26.4960 N   0  3  0  0  0  0
    9.7720    7.3880   26.2540 C   0  0  0  0  0  0
    7.7850    1.0920   19.6120 C   0  0  0  0  0  0
    9.0610    0.9520   19.0840 C   0  0  0  0  0  0
    9.2710    0.4420   17.7740 C   0  0  0  0  0  0
    8.1400    0.0760   17.0030 C   0  0  0  0  0  0
    6.8780    0.2040   17.5050 N   0  0  0  0  0  0
    6.6740    0.7000   18.7800 C   0  0  0  0  0  0
    5.4160    0.9140   19.4960 C   0  0  0  0  0  0
    5.6160    1.4400   20.7820 C   0  0  0  0  0  0
    7.2850    1.6670   21.1220 S   0  0  0  0  0  0
    5.5450    6.5380   22.6240 N   0  0  0  0  0  0
    5.0640    5.3650   23.0920 C   0  0  0  0  0  0
    5.2120    4.3180   22.0020 C   0  0  2  0  0  0
    5.4240    5.1650   20.7410 C   0  0  0  0  0  0
    6.0400    6.4550   21.2450 C   0  0  0  0  0  0
    4.0250    3.4980   21.9110 N   0  0  3  0  0  0
    4.2360    1.7790   21.8030 S   0  0  0  0  0  0
    2.9910    1.4090   21.1640 O   0  0  0  0  0  0
    4.5080    1.3770   23.1580 O   0  0  0  0  0  0
    4.5910    5.1490   24.2020 O   0  0  0  0  0  0
    9.2240    6.5130   27.1140 N   0  0  0  0  0  0
    5.5990    7.7970   23.3850 C   0  0  0  0  0  0
    7.2513    9.5726   21.9837 H   0  0  0  0  0  0
    9.6211   10.1620   22.5009 H   0  0  0  0  0  0
    7.2054    6.8834   25.5274 H   0  0  0  0  0  0
   11.6523    9.9270   23.9124 H   0  0  0  0  0  0
   12.7571    8.8864   25.8847 H   0  0  0  0  0  0
    9.9217    1.2397   19.6878 H   0  0  0  0  0  0
   10.2785    0.3350   17.3720 H   0  0  0  0  0  0
    8.2802   -0.3133   15.9946 H   0  0  0  0  0  0
    4.4345    0.6903   19.0780 H   0  0  0  0  0  0
    5.9959    3.5683   22.1849 H   0  0  0  0  0  0
    6.0956    4.6333   20.0508 H   0  0  0  0  0  0
    4.4556    5.3390   20.2491 H   0  0  0  0  0  0
    5.7004    7.3355   20.6799 H   0  0  0  0  0  0
    7.1396    6.4251   21.2513 H   0  0  0  0  0  0
    3.0336    3.9451   22.0762 H   0  0  0  0  0  0
    8.1812    6.1897   26.9799 H   0  0  0  0  0  0
    9.8182    6.1200   27.9521 H   0  0  0  0  0  0
    5.0601    7.6545   24.3333 H   0  0  0  0  0  0
    5.1027    8.5821   22.7957 H   0  0  0  0  0  0
   11.6156    7.3050   27.3543 H   0  0  0  0  0  0
  1  6  2  0  0  0
  1  2  1  0  0  0
  1 32  1  0  0  0
  2  3  2  0  0  0
  2 33  1  0  0  0
  3  7  1  0  0  0
  3  4  1  0  0  0
  4 10  1  0  0  0
  4  5  2  0  0  0
  5  6  1  0  0  0
  5 34  1  0  0  0
  6 31  1  0  0  0
  7  8  2  0  0  0
  7 35  1  0  0  0
  8  9  1  0  0  0
  8 36  1  0  0  0
  9 10  2  0  0  0
  9 51  1  0  0  0
 10 30  1  0  0  0
 11 16  1  0  0  0
 11 19  1  0  0  0
 11 12  2  0  0  0
 12 13  1  0  0  0
 12 37  1  0  0  0
 13 14  2  0  0  0
 13 38  1  0  0  0
 14 15  1  0  0  0
 14 39  1  0  0  0
 15 16  2  0  0  0
 16 17  1  0  0  0
 17 18  2  0  0  0
 17 40  1  0  0  0
 18 26  1  0  0  0
 18 19  1  0  0  0
 20 31  1  0  0  0
 20 24  1  0  0  0
 20 21  1  0  0  0
 21 29  2  0  0  0
 21 22  1  0  0  0
 22 25  1  0  0  0
 22 23  1  0  0  0
 22 41  1  0  0  0
 23 24  1  0  0  0
 23 42  1  0  0  0
 23 43  1  0  0  0
 24 44  1  0  0  0
 24 45  1  0  0  0
 25 26  1  0  0  0
 25 46  1  0  0  0
 26 28  2  0  0  0
 26 27  2  0  0  0
 30 47  1  0  0  0
 30 48  1  0  0  0
 31 49  1  0  0  0
 31 50  1  0  0  0
M  CHG  1   9   1
M  END
> <s_m_source_file>
../1f0r_ligand.sdf

> <i_m_source_file_index>
1

> <s_epik_input>
W2NIXTFbY0hdbmMoW05IMl0pYyhjMTIpW2NIXWMoW2NIXVtjSF0yKVtDSDJdTjNDKD1PKVtDQEhdKFtDSDJdW0NIMl0zKVtOSF1TKD1PKSg9TyljKHM0KVtjSF1jKGM0NSluW2NIXVtjSF1bY0hdNQ==

> <s_epik_cmdline>
J2VwaWtfYXBwJywgJy1pbWFlJywgJ2xpZ2FuZF9wcm8ubWFlJywgJy1vbWFlJywgJ2xpZ2FuZF9wcmVwLm1hZScsICctbXMnLCAnMScsICctcGgnLCAnNycsICctcGh0JywgJzAuNScsICctbnQn

> <r_epik_Ionization_Penalty>
  0.3778

> <r_epik_Ionization_Penalty_Charging>
  0.3584

> <r_epik_Ionization_Penalty_Neutral>
  0.0193

> <r_epik_State_Penalty>
  0.3551

> <r_epik_Charging_Adjusted_Penalty>
0.713546890648685

> <i_epik_Tot_Q>
1

> <i_epik_Tot_abs_Q>
1

$$$$
