1f0s_ligand
                    3D
 Schrodinger Suite 2020-3.
 46 50  0  0  1  0            999 V2000
    7.6060    1.0940   19.3540 C   0  0  0  0  0  0
    8.9380    0.8560   18.9180 C   0  0  0  0  0  0
    9.1560    0.3320   17.6010 C   0  0  0  0  0  0
    8.0090    0.0760   16.7810 C   0  0  0  0  0  0
    6.7310    0.3140   17.2280 N   0  0  0  0  0  0
    6.5230    0.8210   18.5140 C   0  0  0  0  0  0
    5.2240    1.0830   19.0410 C   0  0  0  0  0  0
    5.4170    1.5850   20.3580 C   0  0  0  0  0  0
    7.0600    1.6950   20.8240 S   0  0  0  0  0  0
    5.4360    6.6890   22.3610 N   0  0  0  0  0  0
    4.8530    5.5240   22.7290 C   0  0  0  0  0  0
    5.1980    4.5040   21.6700 C   0  0  2  0  0  0
    5.6910    5.3290   20.4780 C   0  0  0  0  0  0
    6.1760    6.6130   21.1040 C   0  0  0  0  0  0
    4.0380    3.7310   21.2460 N   0  0  3  0  0  0
    4.0940    2.1000   21.3290 S   0  0  0  0  0  0
    2.8170    1.7980   20.7620 O   0  0  0  0  0  0
    4.3660    1.8090   22.7100 O   0  0  0  0  0  0
    4.1840    5.3260   23.7370 O   0  0  0  0  0  0
    5.3970    7.9560   23.0940 C   0  0  0  0  0  0
    8.2870    7.7370   25.3130 C   0  0  0  0  0  0
    8.8340    8.6580   24.3270 C   0  0  0  0  0  0
   10.1640    9.1550   24.4650 C   0  0  0  0  0  0
   10.9160    8.7110   25.5940 C   0  0  0  0  0  0
   10.3610    7.8440   26.4980 N   0  0  0  0  0  0
    9.1030    7.3430   26.4150 C   0  0  0  0  0  0
    7.8360    8.8770   23.3640 C   0  0  0  0  0  0
    6.7390    8.0990   23.7830 C   0  0  0  0  0  0
    7.0010    7.4330   24.9230 N   0  3  0  0  0  0
    9.7813    1.0687   19.5751 H   0  0  0  0  0  0
   10.1635    0.1345   17.2349 H   0  0  0  0  0  0
    8.1539   -0.3183   15.7752 H   0  0  0  0  0  0
    4.2712    0.9290   18.5346 H   0  0  0  0  0  0
    5.9044    3.7557   22.0588 H   0  0  0  0  0  0
    6.4982    4.7857   19.9648 H   0  0  0  0  0  0
    4.8588    5.4959   19.7783 H   0  0  0  0  0  0
    5.9405    7.4921   20.4862 H   0  0  0  0  0  0
    7.2554    6.5915   21.3147 H   0  0  0  0  0  0
    3.0862    4.2395   21.0329 H   0  0  0  0  0  0
    5.2284    8.7828   22.3883 H   0  0  0  0  0  0
    4.5794    7.9291   23.8294 H   0  0  0  0  0  0
   10.5890    9.8463   23.7373 H   0  0  0  0  0  0
   11.9373    9.0636   25.7377 H   0  0  0  0  0  0
    8.7248    6.6560   27.1720 H   0  0  0  0  0  0
    7.8970    9.5131   22.4809 H   0  0  0  0  0  0
    6.3906    6.7464   25.5280 H   0  0  0  0  0  0
  1  9  1  0  0  0
  1  6  2  0  0  0
  1  2  1  0  0  0
  2  3  2  0  0  0
  2 30  1  0  0  0
  3  4  1  0  0  0
  3 31  1  0  0  0
  4  5  2  0  0  0
  4 32  1  0  0  0
  5  6  1  0  0  0
  6  7  1  0  0  0
  7  8  2  0  0  0
  7 33  1  0  0  0
  8 16  1  0  0  0
  8  9  1  0  0  0
 10 11  1  0  0  0
 10 20  1  0  0  0
 10 14  1  0  0  0
 11 12  1  0  0  0
 11 19  2  0  0  0
 12 15  1  0  0  0
 12 13  1  0  0  0
 12 34  1  0  0  0
 13 14  1  0  0  0
 13 35  1  0  0  0
 13 36  1  0  0  0
 14 37  1  0  0  0
 14 38  1  0  0  0
 15 16  1  0  0  0
 15 39  1  0  0  0
 16 18  2  0  0  0
 16 17  2  0  0  0
 20 28  1  0  0  0
 20 40  1  0  0  0
 20 41  1  0  0  0
 21 22  1  0  0  0
 21 29  1  0  0  0
 21 26  2  0  0  0
 22 27  2  0  0  0
 22 23  1  0  0  0
 23 24  2  0  0  0
 23 42  1  0  0  0
 24 25  1  0  0  0
 24 43  1  0  0  0
 25 26  1  0  0  0
 26 44  1  0  0  0
 27 28  1  0  0  0
 27 45  1  0  0  0
 28 29  2  0  0  0
 29 46  1  0  0  0
M  CHG  1  29   1
M  END
> <s_m_source_file>
../1f0s_ligand.sdf

> <i_m_source_file_index>
1

> <s_epik_input>
W2NIXTFbY0hdW2NIXW5jKGMxMilbY0hdYyhzMilTKD1PKSg9TylbTkhdW0NAQEhdKFtDSDJdW0NIMl0zKUMoPU8pTjNbQ0gyXWMobjQpW2NIXWMoYzQ1KVtjSF1bY0hdW25IXVtjSF01

> <s_epik_cmdline>
J2VwaWtfYXBwJywgJy1pbWFlJywgJ2xpZ2FuZF9wcm8ubWFlJywgJy1vbWFlJywgJ2xpZ2FuZF9wcmVwLm1hZScsICctbXMnLCAnMScsICctcGgnLCAnNycsICctcGh0JywgJzAuNScsICctbnQn

> <r_epik_Ionization_Penalty>
  0.0196

> <r_epik_Ionization_Penalty_Charging>
  0.0000

> <r_epik_Ionization_Penalty_Neutral>
  0.0196

> <r_epik_State_Penalty>
  0.0156

> <r_epik_Charging_Adjusted_Penalty>
0.0156449900821837

> <i_epik_Tot_Q>
1

> <i_epik_Tot_abs_Q>
1

$$$$
