1f0t_ligand
                    3D
 Schrodinger Suite 2020-3.
 50 53  0  0  1  0            999 V2000
   13.7720   -3.4110   25.0880 C   0  0  0  0  0  0
   14.1560   -3.5440   23.7510 C   0  0  0  0  0  0
   13.3000   -4.1340   22.8220 C   0  0  0  0  0  0
   12.0440   -4.6010   23.2210 C   0  0  0  0  0  0
   11.6700   -4.4620   24.5630 C   0  0  0  0  0  0
   12.5100   -3.8680   25.5270 C   0  0  0  0  0  0
   12.0420   -3.6980   27.0270 C   0  0  0  0  0  0
   10.7640   -3.9510   27.3770 N   0  0  0  0  0  0
   12.9090   -3.2960   27.9690 N   0  3  0  0  0  0
   11.0480   -5.2790   22.2250 C   0  0  0  0  0  0
   13.6830   -4.2570   21.5510 O   0  0  0  0  0  0
   12.8720  -13.0390   24.1350 C   0  0  0  0  0  0
   13.8970  -13.4940   24.9520 C   0  0  0  0  0  0
   15.0640  -14.0690   24.4210 C   0  0  0  0  0  0
   15.2430  -14.2110   23.0270 C   0  0  0  0  0  0
   14.2890  -13.7930   22.1540 N   0  0  0  0  0  0
   13.0650  -13.1940   22.6230 C   0  0  0  0  0  0
   11.9690  -12.6880   21.9200 C   0  0  0  0  0  0
   10.9670  -12.1590   22.8150 C   0  0  0  0  0  0
   11.3720  -12.2880   24.4850 S   0  0  0  0  0  0
   11.0900   -6.7510   22.2170 N   0  0  0  0  0  0
   10.0010   -7.5520   22.3190 C   0  0  0  0  0  0
   10.4840   -8.9760   22.3110 C   0  0  2  0  0  0
   11.7780   -8.8860   21.5170 C   0  0  0  0  0  0
   12.3140   -7.5010   21.8510 C   0  0  0  0  0  0
    9.8950  -10.0120   21.5570 N   0  0  3  0  0  0
    9.4800  -11.4170   22.2470 S   0  0  0  0  0  0
    8.6800  -11.0280   23.3660 O   0  0  0  0  0  0
    8.9380  -12.1760   21.1670 O   0  0  0  0  0  0
    8.8430   -7.1990   22.3950 O   0  0  0  0  0  0
   14.4550   -2.9488   25.8008 H   0  0  0  0  0  0
   15.1337   -3.1832   23.4315 H   0  0  0  0  0  0
   10.6914   -4.8272   24.8746 H   0  0  0  0  0  0
   10.0407   -4.2813   26.6169 H   0  0  0  0  0  0
   10.4452   -3.8270   28.4225 H   0  0  0  0  0  0
   13.9547   -3.0855   27.7002 H   0  0  0  0  0  0
   10.0181   -4.9923   22.4843 H   0  0  0  0  0  0
   11.2733   -4.9496   21.2000 H   0  0  0  0  0  0
   14.6710   -3.8898   21.2363 H   0  0  0  0  0  0
   13.7944  -13.4031   26.0333 H   0  0  0  0  0  0
   15.8464  -14.4121   25.0979 H   0  0  0  0  0  0
   16.1592  -14.6622   22.6461 H   0  0  0  0  0  0
   11.8813  -12.6920   20.8335 H   0  0  0  0  0  0
   10.3340   -9.2990   23.3517 H   0  0  0  0  0  0
   12.4618   -9.6853   21.8386 H   0  0  0  0  0  0
   11.5591   -8.9999   20.4450 H   0  0  0  0  0  0
   12.7979   -7.0156   20.9907 H   0  0  0  0  0  0
   13.0075   -7.5101   22.7048 H   0  0  0  0  0  0
    9.5596   -9.8204   20.5271 H   0  0  0  0  0  0
   12.5740   -3.1769   29.0100 H   0  0  0  0  0  0
  1  6  2  0  0  0
  1  2  1  0  0  0
  1 31  1  0  0  0
  2  3  2  0  0  0
  2 32  1  0  0  0
  3 11  1  0  0  0
  3  4  1  0  0  0
  4 10  1  0  0  0
  4  5  2  0  0  0
  5  6  1  0  0  0
  5 33  1  0  0  0
  6  7  1  0  0  0
  7  9  2  0  0  0
  7  8  1  0  0  0
  8 34  1  0  0  0
  8 35  1  0  0  0
  9 36  1  0  0  0
  9 50  1  0  0  0
 10 21  1  0  0  0
 10 37  1  0  0  0
 10 38  1  0  0  0
 11 39  1  0  0  0
 12 17  1  0  0  0
 12 20  1  0  0  0
 12 13  2  0  0  0
 13 14  1  0  0  0
 13 40  1  0  0  0
 14 15  2  0  0  0
 14 41  1  0  0  0
 15 16  1  0  0  0
 15 42  1  0  0  0
 16 17  2  0  0  0
 17 18  1  0  0  0
 18 19  2  0  0  0
 18 43  1  0  0  0
 19 27  1  0  0  0
 19 20  1  0  0  0
 21 25  1  0  0  0
 21 22  1  0  0  0
 22 30  2  0  0  0
 22 23  1  0  0  0
 23 26  1  0  0  0
 23 24  1  0  0  0
 23 44  1  0  0  0
 24 25  1  0  0  0
 24 45  1  0  0  0
 24 46  1  0  0  0
 25 47  1  0  0  0
 25 48  1  0  0  0
 26 27  1  0  0  0
 26 49  1  0  0  0
 27 29  2  0  0  0
 27 28  2  0  0  0
M  CHG  1   9   1
M  END
> <s_m_source_file>
../1f0t_ligand.sdf

> <i_m_source_file_index>
1

> <s_epik_input>
W09IXWMxW2NIXVtjSF1jKC9DKFtOSDJdKT1OL1tIXSlbY0hdYzFbQ0gyXU4yQyg9TylbQ0BIXShbQ0gyXVtDSDJdMilbTkhdUyg9TykoPU8pYyhzMylbY0hdYyhjMzQpbltjSF1bY0hdW2NIXTQ=

> <s_epik_cmdline>
J2VwaWtfYXBwJywgJy1pbWFlJywgJ2xpZ2FuZF9wcm8ubWFlJywgJy1vbWFlJywgJ2xpZ2FuZF9wcmVwLm1hZScsICctbXMnLCAnMScsICctcGgnLCAnNycsICctcGh0JywgJzAuNScsICctbnQn

> <r_lp_tautomer_probability>
1

> <r_epik_Ionization_Penalty>
  0.0320

> <r_epik_Ionization_Penalty_Charging>
  0.0097

> <r_epik_Ionization_Penalty_Neutral>
  0.0223

> <r_epik_State_Penalty>
 -0.0000

> <r_epik_Charging_Adjusted_Penalty>
0.00968619197253446

> <i_epik_Tot_Q>
1

> <i_epik_Tot_abs_Q>
1

> <s_epik_Chemistry_Notes>
This compound has an imine and may undergo hydrolysis.

$$$$
