1f0u_ligand
                    3D
 Schrodinger Suite 2020-3.
 66 68  0  0  1  0            999 V2000
   12.5050  -14.8710   23.4830 C   0  0  0  0  0  0
   12.9090  -13.6110   23.8810 C   0  0  0  0  0  0
   14.0530  -13.5150   24.6540 C   0  0  0  0  0  0
   14.7690  -14.6360   25.0460 C   0  0  0  0  0  0
   14.3500  -15.8940   24.6550 C   0  0  0  0  0  0
   13.2170  -16.0130   23.8570 C   0  0  0  0  0  0
   10.0850  -11.2180   22.9830 C   0  0  0  0  0  0
   10.7820  -10.0770   22.5860 C   0  0  0  0  0  0
   12.1730  -10.1120   22.6430 C   0  0  0  0  0  0
   12.8400  -11.2490   23.0750 C   0  0  0  0  0  0
   12.1550  -12.3870   23.4590 C   0  0  0  0  0  0
   10.7710  -12.3550   23.4140 C   0  0  0  0  0  0
   10.0600   -8.8680   22.1450 C   0  0  0  0  0  0
   10.7800   -8.0000   21.3880 N   0  0  0  0  0  0
   10.2840   -6.6780   21.0060 C   0  0  2  0  0  0
   10.7870   -6.3510   19.5940 C   0  0  0  0  0  0
   10.7310   -5.6350   22.0590 C   0  0  2  0  0  0
   10.0810   -4.2890   21.6970 C   0  0  0  0  0  0
    8.6550   -4.3630   21.6680 O   0  0  0  0  0  0
   12.2730   -5.5160   22.1310 C   0  0  0  0  0  0
   12.7840  -17.3630   23.3610 C   0  0  0  0  0  0
   13.2850  -17.6150   22.0060 N   0  3  0  0  0  0
   12.2570   -4.5180   24.4810 C   0  0  0  0  0  0
   12.8600   -3.7520   25.4860 C   0  0  0  0  0  0
   14.0610   -3.0960   25.2170 C   0  0  0  0  0  0
   14.6290   -3.1830   23.9560 C   0  0  0  0  0  0
   14.0180   -3.9360   22.9640 C   0  0  0  0  0  0
   12.8390   -4.6300   23.2170 C   0  0  0  0  0  0
   12.2420   -3.6320   26.8170 C   0  0  0  0  0  0
   12.9490   -3.2590   27.8790 N   0  3  0  0  0  0
   10.9350   -3.9120   26.9630 N   0  0  0  0  0  0
   10.6790   -3.2860   21.4430 O   0  0  0  0  0  0
    8.8920   -8.6520   22.4350 O   0  0  0  0  0  0
    7.9040   -3.2530   21.1650 C   0  0  0  0  0  0
   11.6132  -14.9758   22.8651 H   0  0  0  0  0  0
   14.4013  -12.5297   24.9637 H   0  0  0  0  0  0
   15.6615  -14.5253   25.6619 H   0  0  0  0  0  0
   14.9004  -16.7812   24.9680 H   0  0  0  0  0  0
    8.9953  -11.2220   22.9565 H   0  0  0  0  0  0
   12.7455   -9.2339   22.3441 H   0  0  0  0  0  0
   13.9293  -11.2452   23.1126 H   0  0  0  0  0  0
   10.2061  -13.2351   23.7212 H   0  0  0  0  0  0
   11.7771   -8.3292   21.0602 H   0  0  0  0  0  0
    9.1847   -6.7145   20.9885 H   0  0  0  0  0  0
   10.4393   -7.1239   18.8928 H   0  0  0  0  0  0
   11.8867   -6.3236   19.5937 H   0  0  0  0  0  0
   10.3957   -5.3711   19.2832 H   0  0  0  0  0  0
   10.3994   -5.9494   23.0596 H   0  0  0  0  0  0
   12.7100   -6.5110   22.3014 H   0  0  0  0  0  0
   12.6537   -5.1056   21.1841 H   0  0  0  0  0  0
   13.1757  -18.1427   24.0309 H   0  0  0  0  0  0
   11.6852  -17.4123   23.3440 H   0  0  0  0  0  0
   12.9525  -18.6086   21.6710 H   0  0  0  0  0  0
   14.3844  -17.5779   22.0088 H   0  0  0  0  0  0
   12.8939  -16.8475   21.3219 H   0  0  0  0  0  0
   11.3197   -5.0343   24.6885 H   0  0  0  0  0  0
   14.5523   -2.5155   25.9978 H   0  0  0  0  0  0
   15.5598   -2.6575   23.7427 H   0  0  0  0  0  0
   14.4679   -3.9846   21.9724 H   0  0  0  0  0  0
   14.0191   -3.0270   27.7735 H   0  0  0  0  0  0
   10.3383   -4.2218   26.0924 H   0  0  0  0  0  0
   10.4625   -3.8312   27.9530 H   0  0  0  0  0  0
    6.8297   -3.4834   21.2173 H   0  0  0  0  0  0
    8.1876   -3.0620   20.1195 H   0  0  0  0  0  0
    8.1176   -2.3607   21.7717 H   0  0  0  0  0  0
   12.4640   -3.1823   28.8633 H   0  0  0  0  0  0
  1  6  2  0  0  0
  1  2  1  0  0  0
  1 35  1  0  0  0
  2 11  1  0  0  0
  2  3  2  0  0  0
  3  4  1  0  0  0
  3 36  1  0  0  0
  4  5  2  0  0  0
  4 37  1  0  0  0
  5  6  1  0  0  0
  5 38  1  0  0  0
  6 21  1  0  0  0
  7  8  2  0  0  0
  7 12  1  0  0  0
  7 39  1  0  0  0
  8  9  1  0  0  0
  8 13  1  0  0  0
  9 10  2  0  0  0
  9 40  1  0  0  0
 10 11  1  0  0  0
 10 41  1  0  0  0
 11 12  2  0  0  0
 12 42  1  0  0  0
 13 33  2  0  0  0
 13 14  1  0  0  0
 14 15  1  0  0  0
 14 43  1  0  0  0
 15 17  1  0  0  0
 15 16  1  0  0  0
 15 44  1  0  0  0
 16 45  1  0  0  0
 16 46  1  0  0  0
 16 47  1  0  0  0
 17 20  1  0  0  0
 17 18  1  0  0  0
 17 48  1  0  0  0
 18 32  2  0  0  0
 18 19  1  0  0  0
 19 34  1  0  0  0
 20 28  1  0  0  0
 20 49  1  0  0  0
 20 50  1  0  0  0
 21 22  1  0  0  0
 21 51  1  0  0  0
 21 52  1  0  0  0
 22 53  1  0  0  0
 22 54  1  0  0  0
 22 55  1  0  0  0
 23 28  1  0  0  0
 23 24  2  0  0  0
 23 56  1  0  0  0
 24 29  1  0  0  0
 24 25  1  0  0  0
 25 26  2  0  0  0
 25 57  1  0  0  0
 26 27  1  0  0  0
 26 58  1  0  0  0
 27 28  2  0  0  0
 27 59  1  0  0  0
 29 31  1  0  0  0
 29 30  2  0  0  0
 30 60  1  0  0  0
 30 66  1  0  0  0
 31 61  1  0  0  0
 31 62  1  0  0  0
 34 63  1  0  0  0
 34 64  1  0  0  0
 34 65  1  0  0  0
M  CHG  2  22   1  30   1
M  END
> <s_m_source_file>
../1f0u_ligand.sdf

> <i_m_source_file_index>
1

> <s_epik_input>
W2NIXTFbY0hdW2NIXWMoW0NIMl1bTkgzK10pW2NIXWMxLWMoW2NIXVtjSF0yKVtjSF1bY0hdYzJDKD1PKVtOSF1bQ0BIXShbQ0gzXSlbQ0BIXShDKD1PKU9bQ0gzXSlbQ0gyXWMoW2NIXVtjSF1bY0hdMylbY0hdYzMvQyg9TlxbSF0pW05IMl0=

> <s_epik_cmdline>
J2VwaWtfYXBwJywgJy1pbWFlJywgJ2xpZ2FuZF9wcm8ubWFlJywgJy1vbWFlJywgJ2xpZ2FuZF9wcmVwLm1hZScsICctbXMnLCAnMScsICctcGgnLCAnNycsICctcGh0JywgJzAuNScsICctbnQn

> <r_epik_Ionization_Penalty>
  0.0290

> <r_epik_Ionization_Penalty_Charging>
  0.0290

> <r_epik_Ionization_Penalty_Neutral>
  0.0000

> <r_epik_State_Penalty>
  0.0236

> <r_epik_Charging_Adjusted_Penalty>
0.0526148968279822

> <i_epik_Tot_Q>
2

> <i_epik_Tot_abs_Q>
2

> <s_epik_Chemistry_Notes>
This compound has an ester and may undergo hydrolysis at high or low pH. This compound has an imine and may undergo hydrolysis.

$$$$
