1f1j_ligand
                    3D
 Schrodinger Suite 2020-3.
 64 63  0  0  1  0            999 V2000
   29.7510   29.8600   -0.6500 C   0  0  0  0  0  0
   28.5520   30.1000   -0.8120 O   0  0  0  0  0  0
   30.8010   30.1830   -1.6750 C   0  0  0  0  0  0
   30.2520   29.3080    0.4270 N   0  0  0  0  0  0
   31.5580   28.6890    0.3630 C   0  0  2  0  0  0
   31.6650   27.5780   -0.6680 C   0  0  0  0  0  0
   30.7600   26.7830   -0.9370 O   0  0  0  0  0  0
   32.0620   28.3420    1.7560 C   0  0  0  0  0  0
   32.1440   29.5950    2.6020 C   0  0  0  0  0  0
   32.3050   30.7050    2.0530 O   0  5  0  0  0  0
   32.0490   29.4840    3.8390 O   0  0  0  0  0  0
   32.8300   27.5370   -1.2740 N   0  0  0  0  0  0
   33.1430   26.5350   -2.2780 C   0  0  2  0  0  0
   34.2820   25.6360   -1.6960 C   0  0  0  0  0  0
   35.0960   26.0720   -0.8840 O   0  0  0  0  0  0
   33.6810   27.3120   -3.4770 C   0  0  0  0  0  0
   33.0570   27.1020   -4.8490 C   0  0  0  0  0  0
   32.7410   28.4830   -5.4060 C   0  0  0  0  0  0
   33.6530   29.1470   -5.9490 O   0  5  0  0  0  0
   31.5750   28.9170   -5.2670 O   0  0  0  0  0  0
   34.3950   24.3700   -2.0530 N   0  0  0  0  0  0
   35.6260   23.6440   -1.6850 C   0  0  2  0  0  0
   36.6550   23.3970   -2.8980 C   0  0  0  0  0  0
   36.2320   23.4330   -4.0490 O   0  0  0  0  0  0
   35.1880   22.3330   -1.0180 C   0  0  0  0  0  0
   34.0570   22.4640   -0.0080 C   0  0  0  0  0  0
   34.8010   21.2730   -2.0310 C   0  0  0  0  0  0
   37.9550   23.1170   -2.6710 N   0  0  0  0  0  0
   38.9890   22.9510   -3.7080 C   0  0  2  0  0  0
   39.2120   21.4880   -3.9690 C   0  0  0  0  0  0
   40.2750   21.1000   -4.8400 O   0  0  0  0  0  0
   40.3560   23.6120   -3.4290 C   0  0  0  0  0  0
   40.2260   25.0930   -3.7120 C   0  0  0  0  0  0
   41.0410   25.8780   -3.1940 O   0  0  0  0  0  0
   39.3020   25.4820   -4.4580 O   0  5  0  0  0  0
   30.3259   30.6424   -2.5543 H   0  0  0  0  0  0
   31.3152   29.2586   -1.9770 H   0  0  0  0  0  0
   31.5306   30.8844   -1.2440 H   0  0  0  0  0  0
   29.6909   29.3117    1.3731 H   0  0  0  0  0  0
   32.2115   29.4779   -0.0376 H   0  0  0  0  0  0
   31.3703   27.6296    2.2293 H   0  0  0  0  0  0
   33.0614   27.8885    1.6819 H   0  0  0  0  0  0
   33.5799   28.2935   -0.9995 H   0  0  0  0  0  0
   32.2439   25.9549   -2.5331 H   0  0  0  0  0  0
   33.5726   28.3911   -3.2932 H   0  0  0  0  0  0
   34.7440   27.0700   -3.6237 H   0  0  0  0  0  0
   33.7697   26.5730   -5.4988 H   0  0  0  0  0  0
   32.1398   26.5034   -4.7470 H   0  0  0  0  0  0
   33.5992   23.8555   -2.6115 H   0  0  0  0  0  0
   36.1318   24.3015   -0.9626 H   0  0  0  0  0  0
   36.0832   22.0164   -0.4627 H   0  0  0  0  0  0
   34.3180   23.2296    0.7375 H   0  0  0  0  0  0
   33.9022   21.4988    0.4964 H   0  0  0  0  0  0
   33.1334   22.7583   -0.5279 H   0  0  0  0  0  0
   35.6066   21.1623   -2.7718 H   0  0  0  0  0  0
   33.8734   21.5737   -2.5401 H   0  0  0  0  0  0
   34.6423   20.3141   -1.5159 H   0  0  0  0  0  0
   38.2199   23.0126   -1.6085 H   0  0  0  0  0  0
   38.5365   23.4686   -4.5667 H   0  0  0  0  0  0
   39.4283   20.9751   -3.0202 H   0  0  0  0  0  0
   38.3084   21.0545   -4.4224 H   0  0  0  0  0  0
   40.4567   20.0347   -5.0455 H   0  0  0  0  0  0
   40.6341   23.4493   -2.3772 H   0  0  0  0  0  0
   41.1194   23.1659   -4.0833 H   0  0  0  0  0  0
  1  2  2  0  0  0
  1  3  1  0  0  0
  1  4  1  0  0  0
  3 36  1  0  0  0
  3 37  1  0  0  0
  3 38  1  0  0  0
  4  5  1  0  0  0
  4 39  1  0  0  0
  5  6  1  0  0  0
  5  8  1  0  0  0
  5 40  1  0  0  0
  6  7  2  0  0  0
  6 12  1  0  0  0
  8  9  1  0  0  0
  8 41  1  0  0  0
  8 42  1  0  0  0
  9 10  1  0  0  0
  9 11  2  0  0  0
 12 13  1  0  0  0
 12 43  1  0  0  0
 13 14  1  0  0  0
 13 16  1  0  0  0
 13 44  1  0  0  0
 14 15  2  0  0  0
 14 21  1  0  0  0
 16 17  1  0  0  0
 16 45  1  0  0  0
 16 46  1  0  0  0
 17 18  1  0  0  0
 17 47  1  0  0  0
 17 48  1  0  0  0
 18 19  1  0  0  0
 18 20  2  0  0  0
 21 22  1  0  0  0
 21 49  1  0  0  0
 22 23  1  0  0  0
 22 25  1  0  0  0
 22 50  1  0  0  0
 23 24  2  0  0  0
 23 28  1  0  0  0
 25 26  1  0  0  0
 25 27  1  0  0  0
 25 51  1  0  0  0
 26 52  1  0  0  0
 26 53  1  0  0  0
 26 54  1  0  0  0
 27 55  1  0  0  0
 27 56  1  0  0  0
 27 57  1  0  0  0
 28 29  1  0  0  0
 28 58  1  0  0  0
 29 30  1  0  0  0
 29 32  1  0  0  0
 29 59  1  0  0  0
 30 31  1  0  0  0
 30 60  1  0  0  0
 30 61  1  0  0  0
 31 62  1  0  0  0
 32 33  1  0  0  0
 32 63  1  0  0  0
 32 64  1  0  0  0
 33 34  2  0  0  0
 33 35  1  0  0  0
M  CHG  3  10  -1  19  -1  35  -1
M  END
> <s_m_source_file>
../1f1j_ligand.sdf

> <i_m_source_file_index>
1

> <s_epik_input>
Tz1DKFtDSDNdKVtOSF1bQ0BASF0oW0NIMl1DKD1PKVtPSF0pQyg9TylbTkhdW0NAQEhdKFtDSDJdW0NIMl1DKD1PKVtPSF0pQyg9TylbTkhdW0NAQEhdKFtDSF0oW0NIM10pW0NIM10pQyg9TylbTkhdW0NASF0oW0NIMl1bT0hdKVtDSDJdQyg9TylbT0hd

> <s_epik_cmdline>
J2VwaWtfYXBwJywgJy1pbWFlJywgJ2xpZ2FuZF9wcm8ubWFlJywgJy1vbWFlJywgJ2xpZ2FuZF9wcmVwLm1hZScsICctbXMnLCAnMScsICctcGgnLCAnNycsICctcGh0JywgJzAuNScsICctbnQn

> <r_lp_tautomer_probability>
1

> <r_epik_Ionization_Penalty>
  0.0047

> <r_epik_Ionization_Penalty_Charging>
  0.0047

> <r_epik_Ionization_Penalty_Neutral>
  0.0000

> <r_epik_State_Penalty>
 -0.0000

> <r_epik_Charging_Adjusted_Penalty>
0.00467056323236051

> <i_epik_Tot_Q>
-3

> <i_epik_Tot_abs_Q>
3

$$$$
