1f28_ligand
                    3D
 Schrodinger Suite 2020-3.
 59 63  0  0  1  0            999 V2000
    0.3970  -14.1130   24.4100 C   0  0  0  0  0  0
    1.0510  -14.2760   25.4420 O   0  0  0  0  0  0
   -0.8650  -13.5540   24.5860 N   0  0  0  0  0  0
   -1.7460  -13.2970   23.5590 C   0  0  0  0  0  0
   -3.0930  -12.6900   23.8250 C   0  0  0  0  0  0
   -1.3580  -13.6110   22.2720 N   0  0  0  0  0  0
   -0.1270  -14.1720   21.9690 C   0  0  0  0  0  0
    0.1620  -14.4590   20.5660 C   0  0  0  0  0  0
    1.4270  -15.0550   20.1700 C   0  0  0  0  0  0
    2.4350  -15.3620   21.1760 C   0  0  0  0  0  0
    3.6860  -15.9530   20.7380 C   0  0  0  0  0  0
    4.7080  -16.2820   21.7100 C   0  0  0  0  0  0
    4.5020  -16.0220   23.1450 C   0  0  0  0  0  0
    3.2550  -15.4310   23.6040 C   0  0  0  0  0  0
    2.1780  -15.0780   22.6550 C   0  0  0  0  0  0
    0.8680  -14.4710   23.0510 C   0  0  0  0  0  0
    5.5550  -16.3760   24.1510 C   0  0  0  0  0  0
    6.1880  -17.7040   23.8980 N   0  0  0  0  0  0
    5.5940  -19.0330   24.1660 C   0  0  0  0  0  0
    4.2400  -19.2060   24.7600 C   0  0  0  0  0  0
    3.7290  -20.5470   24.9800 C   0  0  0  0  0  0
    4.4940  -21.7080   24.6340 C   0  0  0  0  0  0
    5.8400  -21.5620   24.0430 C   0  0  0  0  0  0
    6.3840  -20.2160   23.8140 C   0  0  0  0  0  0
    2.4470  -20.9720   25.5470 C   0  0  0  0  0  0
    3.7260  -22.9080   24.9600 C   0  0  0  0  0  0
    3.8720  -24.0070   24.4090 O   0  0  0  0  0  0
    2.5380  -22.4470   25.4950 N   0  0  0  0  0  0
    1.1800  -23.0730   25.8130 C   0  0  2  0  0  0
    1.1650  -23.8410   27.1880 C   0  0  0  0  0  0
    2.0120  -24.7230   27.3980 O   0  0  0  0  0  0
    0.3610  -23.5160   28.0800 O   0  5  0  0  0  0
    0.5810  -23.9540   24.6510 C   0  0  0  0  0  0
    0.2920  -23.2340   23.3210 C   0  0  0  0  0  0
   -1.1280  -22.6250   23.1820 C   0  0  0  0  0  0
   -1.4420  -21.6790   23.9250 O   0  5  0  0  0  0
   -1.8140  -22.8880   22.1870 O   0  0  0  0  0  0
   -1.2131  -13.2885   25.5951 H   0  0  0  0  0  0
   -3.2099  -12.5158   24.9048 H   0  0  0  0  0  0
   -3.8794  -13.3759   23.4769 H   0  0  0  0  0  0
   -3.1766  -11.7336   23.2881 H   0  0  0  0  0  0
   -0.5819  -14.2227   19.8052 H   0  0  0  0  0  0
    1.6216  -15.2724   19.1198 H   0  0  0  0  0  0
    3.8561  -16.1489   19.6793 H   0  0  0  0  0  0
    5.6439  -16.7288   21.3744 H   0  0  0  0  0  0
    3.1117  -15.2447   24.6684 H   0  0  0  0  0  0
    6.3524  -15.6186   24.1291 H   0  0  0  0  0  0
    5.1069  -16.4077   25.1551 H   0  0  0  0  0  0
    7.1995  -17.7584   23.4692 H   0  0  0  0  0  0
    3.6394  -18.3363   25.0266 H   0  0  0  0  0  0
    6.4239  -22.4438   23.7794 H   0  0  0  0  0  0
    7.3774  -20.0974   23.3813 H   0  0  0  0  0  0
    2.3551  -20.5886   26.5739 H   0  0  0  0  0  0
    1.6250  -20.5757   24.9328 H   0  0  0  0  0  0
    0.5352  -22.1864   25.9040 H   0  0  0  0  0  0
    1.2827  -24.7652   24.4069 H   0  0  0  0  0  0
   -0.3785  -24.3840   24.9742 H   0  0  0  0  0  0
    0.9991  -22.4010   23.1938 H   0  0  0  0  0  0
    0.4069  -23.9429   22.4878 H   0  0  0  0  0  0
  1  2  2  0  0  0
  1  3  1  0  0  0
  1 16  1  0  0  0
  3  4  1  0  0  0
  3 38  1  0  0  0
  4  5  1  0  0  0
  4  6  2  0  0  0
  5 39  1  0  0  0
  5 40  1  0  0  0
  5 41  1  0  0  0
  6  7  1  0  0  0
  7  8  2  0  0  0
  7 16  1  0  0  0
  8  9  1  0  0  0
  8 42  1  0  0  0
  9 10  2  0  0  0
  9 43  1  0  0  0
 10 11  1  0  0  0
 10 15  1  0  0  0
 11 12  2  0  0  0
 11 44  1  0  0  0
 12 13  1  0  0  0
 12 45  1  0  0  0
 13 14  2  0  0  0
 13 17  1  0  0  0
 14 15  1  0  0  0
 14 46  1  0  0  0
 15 16  2  0  0  0
 17 18  1  0  0  0
 17 47  1  0  0  0
 17 48  1  0  0  0
 18 19  1  0  0  0
 18 49  1  0  0  0
 19 20  2  0  0  0
 19 24  1  0  0  0
 20 21  1  0  0  0
 20 50  1  0  0  0
 21 22  2  0  0  0
 21 25  1  0  0  0
 22 23  1  0  0  0
 22 26  1  0  0  0
 23 24  2  0  0  0
 23 51  1  0  0  0
 24 52  1  0  0  0
 25 28  1  0  0  0
 25 53  1  0  0  0
 25 54  1  0  0  0
 26 27  2  0  0  0
 26 28  1  0  0  0
 28 29  1  0  0  0
 29 30  1  0  0  0
 29 33  1  0  0  0
 29 55  1  0  0  0
 30 31  2  0  0  0
 30 32  1  0  0  0
 33 34  1  0  0  0
 33 56  1  0  0  0
 33 57  1  0  0  0
 34 35  1  0  0  0
 34 58  1  0  0  0
 34 59  1  0  0  0
 35 36  1  0  0  0
 35 37  2  0  0  0
M  CHG  2  32  -1  36  -1
M  END
> <s_m_source_file>
../1f28_ligand.sdf

> <i_m_source_file_index>
1

> <s_epik_input>
W0NIM11jKG4xKVtuSF1jKD1PKWMoYzEyKWMzYyhbY0hdW2NIXTIpW2NIXVtjSF1jKFtjSF0zKVtDSDJdW05IXWMoW2NIXTQpW2NIXVtjSF1jKGM0NSlDKD1PKU4oW0NIMl01KVtDQEhdKEMoPU8pW09IXSlbQ0gyXVtDSDJdQyg9TylbT0hd

> <s_epik_cmdline>
J2VwaWtfYXBwJywgJy1pbWFlJywgJ2xpZ2FuZF9wcm8ubWFlJywgJy1vbWFlJywgJ2xpZ2FuZF9wcmVwLm1hZScsICctbXMnLCAnMScsICctcGgnLCAnNycsICctcGh0JywgJzAuNScsICctbnQn

> <r_lp_tautomer_probability>
1

> <r_epik_Ionization_Penalty>
  0.0047

> <r_epik_Ionization_Penalty_Charging>
  0.0046

> <r_epik_Ionization_Penalty_Neutral>
  0.0001

> <r_epik_State_Penalty>
 -0.0000

> <r_epik_Charging_Adjusted_Penalty>
0.00462235580007309

> <i_epik_Tot_Q>
-2

> <i_epik_Tot_abs_Q>
2

$$$$
