1f3j_ligand
                    3D
 Schrodinger Suite 2020-3.
228230  0  0  1  0            999 V2000
   23.7960   73.7540    3.8570 N   0  3  0  0  0  0
   22.8420   74.4080    4.7950 C   0  0  2  0  0  0
   23.2020   74.0340    6.2130 C   0  0  0  0  0  0
   24.3600   73.7110    6.5120 O   0  0  0  0  0  0
   21.4070   73.9640    4.5060 C   0  0  0  0  0  0
   22.1860   74.0780    7.0720 N   0  0  0  0  0  0
   22.3430   73.7490    8.4750 C   0  0  2  0  0  0
   22.9120   72.3530    8.6060 C   0  0  0  0  0  0
   22.6290   71.4650    7.7900 O   0  0  0  0  0  0
   21.0050   73.8390    9.2230 C   0  0  0  0  0  0
   20.4240   75.2450    9.3130 C   0  0  0  0  0  0
   21.6230   76.4410    9.9730 S   0  0  0  0  0  0
   20.8070   76.9950   11.4180 C   0  0  0  0  0  0
   23.7270   72.1790    9.6420 N   0  0  0  0  0  0
   24.3770   70.9100    9.9180 C   0  0  2  0  0  0
   24.0570   70.4770   11.3440 C   0  0  0  0  0  0
   23.7540   71.3010   12.2150 O   0  0  0  0  0  0
   25.9010   71.0440    9.7230 C   0  0  0  0  0  0
   26.2950   71.5830    8.3450 C   0  0  0  0  0  0
   27.7940   71.5110    8.0650 C   0  0  0  0  0  0
   28.1190   72.0050    6.6410 C   0  0  0  0  0  0
   27.3850   71.2610    5.5630 N   0  3  0  0  0  0
   24.1070   69.1710   11.5680 N   0  0  0  0  0  0
   23.8370   68.6310   12.8830 C   0  0  2  0  0  0
   25.0500   68.8350   13.8060 C   0  0  0  0  0  0
   26.2070   68.6600   13.3980 O   0  0  0  0  0  0
   23.4880   67.1440   12.7730 C   0  0  0  0  0  0
   22.1000   66.8670   12.2250 C   0  0  0  0  0  0
   21.8450   65.3570   12.1040 C   0  0  0  0  0  0
   20.5420   65.0430   11.5060 N   0  0  0  0  0  0
   19.4540   64.7000   12.1940 C   0  0  0  0  0  0
   19.5000   64.6180   13.5190 N   0  0  0  0  0  0
   18.3170   64.4400   11.5550 N   0  0  0  0  0  0
   24.7770   69.2380   15.0420 N   0  0  0  0  0  0
   25.8260   69.4430   16.0170 C   0  0  2  0  0  0
   25.7960   68.2890   17.0090 C   0  0  0  0  0  0
   24.7370   67.7610   17.3280 O   0  0  0  0  0  0
   25.6230   70.7620   16.7670 C   0  0  0  0  0  0
   25.8420   71.9870   15.9360 C   0  0  0  0  0  0
   26.1150   73.2170   16.4930 N   0  0  0  0  0  0
   25.7900   72.1820   14.5980 C   0  0  0  0  0  0
   26.2230   74.1170   15.5340 C   0  0  0  0  0  0
   26.0300   73.5150   14.3750 N   0  0  0  0  0  0
   26.9690   67.9010   17.4870 N   0  0  0  0  0  0
   27.0590   66.8220   18.4500 C   0  0  0  0  0  0
   27.6450   67.3280   19.7550 C   0  0  0  0  0  0
   28.7000   67.9800   19.7750 O   0  0  0  0  0  0
   26.9570   67.0390   20.8540 N   0  0  0  0  0  0
   27.4130   67.4780   22.1670 C   0  0  2  0  0  0
   28.8940   67.1600   22.3570 C   0  0  0  0  0  0
   29.3630   66.0880   21.9650 O   0  0  0  0  0  0
   26.5590   66.8130   23.2460 C   0  0  0  0  0  0
   25.0890   67.2430   23.2240 C   0  0  0  0  0  0
   24.2040   66.1450   23.7700 C   0  0  0  0  0  0
   24.9300   68.5140   24.0300 C   0  0  0  0  0  0
   29.6190   68.1000   22.9560 N   0  0  0  0  0  0
   31.0530   67.9590   23.1730 C   0  0  2  0  0  0
   31.3810   67.0850   24.3650 C   0  0  0  0  0  0
   30.8610   67.2860   25.4670 O   0  0  0  0  0  0
   31.6870   69.3370   23.3710 C   0  0  0  0  0  0
   33.0820   69.4260   22.8150 C   0  0  0  0  0  0
   33.9150   68.5380   23.1080 O   0  0  0  0  0  0
   33.3380   70.4030   22.0840 O   0  0  0  0  0  0
   32.2440   66.1070   24.1180 N   0  0  0  0  0  0
   32.7060   65.1860   25.1420 C   0  0  2  0  0  0
   33.9110   65.8900   25.7400 C   0  0  0  0  0  0
   34.9190   66.1100   25.0590 O   0  0  0  0  0  0
   33.0990   63.8490   24.4940 C   0  0  0  0  0  0
   33.6220   62.8260   25.4910 C   0  0  0  0  0  0
   33.1800   62.7600   26.6360 O   0  0  0  0  0  0
   34.5550   62.0020   25.0430 N   0  0  0  0  0  0
   33.7960   66.2730   27.0040 N   0  0  0  0  0  0
   34.8730   66.9860   27.6680 C   0  0  2  0  0  0
   35.9000   66.0950   28.3070 C   0  0  0  0  0  0
   35.5560   65.1340   28.9800 O   0  0  0  0  0  0
   34.2890   67.9090   28.7040 C   0  0  0  0  0  0
   33.4490   68.9590   28.0660 C   0  0  0  0  0  0
   34.0320   69.9620   27.3120 C   0  0  0  0  0  0
   32.0670   68.9380   28.1900 C   0  0  0  0  0  0
   33.2710   70.9240   26.6980 C   0  0  0  0  0  0
   31.2850   69.8940   27.5810 C   0  0  0  0  0  0
   31.8980   70.8910   26.8340 C   0  0  0  0  0  0
   31.1350   71.8630   26.2270 O   0  0  0  0  0  0
   37.1680   66.4230   28.0980 N   0  0  0  0  0  0
   38.2600   65.6390   28.6530 C   0  0  2  0  0  0
   38.3550   65.7700   30.1730 C   0  0  0  0  0  0
   37.9340   66.7710   30.7390 O   0  0  0  0  0  0
   39.5780   66.0890   28.0330 C   0  0  0  0  0  0
   39.7240   65.7800   26.5650 C   0  0  0  0  0  0
   41.0110   66.3710   26.0260 C   0  0  0  0  0  0
   41.2690   66.0250   24.6250 N   0  0  0  0  0  0
   41.7060   64.8380   24.2110 C   0  0  0  0  0  0
   41.9350   63.8760   25.0870 N   0  0  0  0  0  0
   41.9300   64.6160   22.9240 N   0  0  0  0  0  0
   38.9050   64.7540   30.8280 N   0  0  0  0  0  0
   39.0670   64.8040   32.2710 C   0  0  0  0  0  0
   40.4410   65.3830   32.5620 C   0  0  0  0  0  0
   41.2090   65.6190   31.6330 O   0  0  0  0  0  0
   40.7700   65.6090   33.8300 N   0  0  0  0  0  0
   42.0750   66.1800   34.1760 C   0  0  2  0  0  0
   43.2480   65.2160   34.0140 C   0  0  0  0  0  0
   43.2170   64.0870   34.5150 O   0  0  0  0  0  0
   42.0480   66.7320   35.5990 C   0  0  0  0  0  0
   41.4340   65.8000   36.6090 C   0  0  0  0  0  0
   42.1210   64.6740   37.0530 C   0  0  0  0  0  0
   40.1670   66.0550   37.1370 C   0  0  0  0  0  0
   41.5640   63.8200   38.0090 C   0  0  0  0  0  0
   39.5980   65.2160   38.0900 C   0  0  0  0  0  0
   40.2980   64.0990   38.5270 C   0  0  0  0  0  0
   39.7500   63.2710   39.4940 O   0  0  0  0  0  0
   44.2880   65.6920   33.3210 N   0  0  0  0  0  0
   45.5060   64.9180   33.0170 C   0  0  2  0  0  0
   46.5270   64.7540   34.1590 C   0  0  0  0  0  0
   46.6950   63.6090   34.6500 O   0  0  0  0  0  0
   46.2150   65.5450   31.8080 C   0  0  0  0  0  0
   45.2950   65.8260   30.7650 O   0  0  0  0  0  0
   47.1630   65.7650   34.5400 O   0  0  0  0  0  0
   24.8195   74.0876    4.0833 H   0  0  0  0  0  0
   23.5407   74.0295    2.8231 H   0  0  0  0  0  0
   23.7325   72.6619    3.9718 H   0  0  0  0  0  0
   22.9314   75.4952    4.6539 H   0  0  0  0  0  0
   21.1404   74.2345    3.4737 H   0  0  0  0  0  0
   20.7206   74.4642    5.2051 H   0  0  0  0  0  0
   21.3282   72.8740    4.6314 H   0  0  0  0  0  0
   21.2010   74.3768    6.6840 H   0  0  0  0  0  0
   23.0482   74.4930    8.8740 H   0  0  0  0  0  0
   20.2564   73.2160    8.7116 H   0  0  0  0  0  0
   21.1369   73.4810   10.2547 H   0  0  0  0  0  0
   20.1216   75.5816    8.3104 H   0  0  0  0  0  0
   19.5472   75.2376    9.9772 H   0  0  0  0  0  0
   21.4334   77.7404   11.9298 H   0  0  0  0  0  0
   20.6301   76.1416   12.0892 H   0  0  0  0  0  0
   19.8445   77.4512   11.1434 H   0  0  0  0  0  0
   23.9017   73.0414   10.3021 H   0  0  0  0  0  0
   23.9623   70.1840    9.2032 H   0  0  0  0  0  0
   26.3076   71.7354   10.4757 H   0  0  0  0  0  0
   26.3736   70.0574    9.8382 H   0  0  0  0  0  0
   25.7870   70.9986    7.5637 H   0  0  0  0  0  0
   25.9968   72.6388    8.2653 H   0  0  0  0  0  0
   28.3326   72.1423    8.7871 H   0  0  0  0  0  0
   28.1355   70.4699    8.1619 H   0  0  0  0  0  0
   27.8466   73.0669    6.5502 H   0  0  0  0  0  0
   29.1952   71.8847    6.4479 H   0  0  0  0  0  0
   27.6665   71.6672    4.5803 H   0  0  0  0  0  0
   26.3011   71.3765    5.7107 H   0  0  0  0  0  0
   27.6497   70.1943    5.6083 H   0  0  0  0  0  0
   24.3580   68.4955   10.7369 H   0  0  0  0  0  0
   22.9742   69.1963   13.2650 H   0  0  0  0  0  0
   24.2040   66.6481   12.1011 H   0  0  0  0  0  0
   23.5388   66.6807   13.7694 H   0  0  0  0  0  0
   21.3464   67.2982   12.9003 H   0  0  0  0  0  0
   22.0019   67.3215   11.2281 H   0  0  0  0  0  0
   22.6218   64.9036   11.4708 H   0  0  0  0  0  0
   21.8735   64.8990   13.1037 H   0  0  0  0  0  0
   20.4141   65.0825   10.4142 H   0  0  0  0  0  0
   20.4386   64.8323   14.0511 H   0  0  0  0  0  0
   18.2750   64.5069   10.4578 H   0  0  0  0  0  0
   17.4186   64.1581   12.1236 H   0  0  0  0  0  0
   23.7272   69.4163   15.3179 H   0  0  0  0  0  0
   26.7696   69.4724   15.4524 H   0  0  0  0  0  0
   24.5920   70.8128   17.1469 H   0  0  0  0  0  0
   26.3275   70.8167   17.6100 H   0  0  0  0  0  0
   25.6043   71.5071   13.7494 H   0  0  0  0  0  0
   26.4354   75.1768   15.6748 H   0  0  0  0  0  0
   27.8821   68.4093   17.1436 H   0  0  0  0  0  0
   26.0546   66.4163   18.6410 H   0  0  0  0  0  0
   27.7057   66.0269   18.0505 H   0  0  0  0  0  0
   26.0279   66.4575   20.7605 H   0  0  0  0  0  0
   27.2817   68.5696   22.2008 H   0  0  0  0  0  0
   26.5817   65.7216   23.1107 H   0  0  0  0  0  0
   26.9586   67.0678   24.2387 H   0  0  0  0  0  0
   24.7683   67.4365   22.1897 H   0  0  0  0  0  0
   24.3372   65.2336   23.1687 H   0  0  0  0  0  0
   23.1524   66.4645   23.7235 H   0  0  0  0  0  0
   24.4786   65.9383   24.8149 H   0  0  0  0  0  0
   25.5825   69.2959   23.6142 H   0  0  0  0  0  0
   25.2091   68.3218   25.0765 H   0  0  0  0  0  0
   23.8829   68.8480   23.9851 H   0  0  0  0  0  0
   29.0986   69.0089   23.2923 H   0  0  0  0  0  0
   31.4188   67.4591   22.2640 H   0  0  0  0  0  0
   31.0756   70.0981   22.8642 H   0  0  0  0  0  0
   31.7399   69.5653   24.4458 H   0  0  0  0  0  0
   34.9385   68.5907   22.7085 H   0  0  0  0  0  0
   32.6106   66.0104   23.0854 H   0  0  0  0  0  0
   31.9199   64.9867   25.8852 H   0  0  0  0  0  0
   32.2206   63.4092   23.9991 H   0  0  0  0  0  0
   33.8911   64.0208   23.7503 H   0  0  0  0  0  0
   34.9224   62.0964   24.0105 H   0  0  0  0  0  0
   34.9634   61.2225   25.7030 H   0  0  0  0  0  0
   32.8692   66.0439   27.5504 H   0  0  0  0  0  0
   35.3806   67.5312   26.8586 H   0  0  0  0  0  0
   33.6639   67.3303   29.4000 H   0  0  0  0  0  0
   35.1026   68.3968   29.2609 H   0  0  0  0  0  0
   35.1163   69.9882   27.2039 H   0  0  0  0  0  0
   31.5931   68.1525   28.7786 H   0  0  0  0  0  0
   33.7464   71.7075   26.1079 H   0  0  0  0  0  0
   30.2002   69.8684   27.6839 H   0  0  0  0  0  0
   31.6201   72.6531   25.6351 H   0  0  0  0  0  0
   37.3841   67.3124   27.4879 H   0  0  0  0  0  0
   38.0155   64.5992   28.3902 H   0  0  0  0  0  0
   39.6798   67.1791   28.1392 H   0  0  0  0  0  0
   40.4137   65.5910   28.5464 H   0  0  0  0  0  0
   39.7422   64.6898   26.4198 H   0  0  0  0  0  0
   38.8744   66.2092   26.0137 H   0  0  0  0  0  0
   40.9667   67.4681   26.0924 H   0  0  0  0  0  0
   41.8607   66.0018   26.6191 H   0  0  0  0  0  0
   41.1015   66.7712   23.8344 H   0  0  0  0  0  0
   41.7518   64.0517   26.1573 H   0  0  0  0  0  0
   41.7420   65.4114   22.1878 H   0  0  0  0  0  0
   42.3039   63.6363   22.5918 H   0  0  0  0  0  0
   39.2393   63.8686   30.2674 H   0  0  0  0  0  0
   38.2833   65.4416   32.7061 H   0  0  0  0  0  0
   38.9847   63.7881   32.6847 H   0  0  0  0  0  0
   40.0497   65.3623   34.6239 H   0  0  0  0  0  0
   42.2043   66.9796   33.4317 H   0  0  0  0  0  0
   43.0760   66.9378   35.9320 H   0  0  0  0  0  0
   41.4624   67.6629   35.6201 H   0  0  0  0  0  0
   43.1092   64.4546   36.6487 H   0  0  0  0  0  0
   39.6123   66.9291   36.7957 H   0  0  0  0  0  0
   42.1143   62.9422   38.3478 H   0  0  0  0  0  0
   38.6084   65.4342   38.4914 H   0  0  0  0  0  0
   40.3052   62.3865   39.8395 H   0  0  0  0  0  0
   44.1947   66.7306   32.9709 H   0  0  0  0  0  0
   45.0918   63.9172   32.8253 H   0  0  0  0  0  0
   47.4172   63.4612   35.4664 H   0  0  0  0  0  0
   46.6983   66.4848   32.1132 H   0  0  0  0  0  0
   46.9761   64.8481   31.4272 H   0  0  0  0  0  0
   45.6485   66.2791   29.8270 H   0  0  0  0  0  0
  1  2  1  0  0  0
  1118  1  0  0  0
  1119  1  0  0  0
  1120  1  0  0  0
  2  3  1  0  0  0
  2  5  1  0  0  0
  2121  1  0  0  0
  3  4  2  0  0  0
  3  6  1  0  0  0
  5122  1  0  0  0
  5123  1  0  0  0
  5124  1  0  0  0
  6  7  1  0  0  0
  6125  1  0  0  0
  7  8  1  0  0  0
  7 10  1  0  0  0
  7126  1  0  0  0
  8  9  2  0  0  0
  8 14  1  0  0  0
 10 11  1  0  0  0
 10127  1  0  0  0
 10128  1  0  0  0
 11 12  1  0  0  0
 11129  1  0  0  0
 11130  1  0  0  0
 12 13  1  0  0  0
 13131  1  0  0  0
 13132  1  0  0  0
 13133  1  0  0  0
 14 15  1  0  0  0
 14134  1  0  0  0
 15 16  1  0  0  0
 15 18  1  0  0  0
 15135  1  0  0  0
 16 17  2  0  0  0
 16 23  1  0  0  0
 18 19  1  0  0  0
 18136  1  0  0  0
 18137  1  0  0  0
 19 20  1  0  0  0
 19138  1  0  0  0
 19139  1  0  0  0
 20 21  1  0  0  0
 20140  1  0  0  0
 20141  1  0  0  0
 21 22  1  0  0  0
 21142  1  0  0  0
 21143  1  0  0  0
 22144  1  0  0  0
 22145  1  0  0  0
 22146  1  0  0  0
 23 24  1  0  0  0
 23147  1  0  0  0
 24 25  1  0  0  0
 24 27  1  0  0  0
 24148  1  0  0  0
 25 26  2  0  0  0
 25 34  1  0  0  0
 27 28  1  0  0  0
 27149  1  0  0  0
 27150  1  0  0  0
 28 29  1  0  0  0
 28151  1  0  0  0
 28152  1  0  0  0
 29 30  1  0  0  0
 29153  1  0  0  0
 29154  1  0  0  0
 30 31  1  0  0  0
 30155  1  0  0  0
 31 32  2  0  0  0
 31 33  1  0  0  0
 32156  1  0  0  0
 33157  1  0  0  0
 33158  1  0  0  0
 34 35  1  0  0  0
 34159  1  0  0  0
 35 36  1  0  0  0
 35 38  1  0  0  0
 35160  1  0  0  0
 36 37  2  0  0  0
 36 44  1  0  0  0
 38 39  1  0  0  0
 38161  1  0  0  0
 38162  1  0  0  0
 39 40  2  0  0  0
 39 41  1  0  0  0
 40 42  1  0  0  0
 41 43  2  0  0  0
 41163  1  0  0  0
 42 43  1  0  0  0
 42164  1  0  0  0
 44 45  1  0  0  0
 44165  1  0  0  0
 45 46  1  0  0  0
 45166  1  0  0  0
 45167  1  0  0  0
 46 47  2  0  0  0
 46 48  1  0  0  0
 48 49  1  0  0  0
 48168  1  0  0  0
 49 50  1  0  0  0
 49 52  1  0  0  0
 49169  1  0  0  0
 50 51  2  0  0  0
 50 56  1  0  0  0
 52 53  1  0  0  0
 52170  1  0  0  0
 52171  1  0  0  0
 53 54  1  0  0  0
 53 55  1  0  0  0
 53172  1  0  0  0
 54173  1  0  0  0
 54174  1  0  0  0
 54175  1  0  0  0
 55176  1  0  0  0
 55177  1  0  0  0
 55178  1  0  0  0
 56 57  1  0  0  0
 56179  1  0  0  0
 57 58  1  0  0  0
 57 60  1  0  0  0
 57180  1  0  0  0
 58 59  2  0  0  0
 58 64  1  0  0  0
 60 61  1  0  0  0
 60181  1  0  0  0
 60182  1  0  0  0
 61 62  1  0  0  0
 61 63  2  0  0  0
 62183  1  0  0  0
 64 65  1  0  0  0
 64184  1  0  0  0
 65 66  1  0  0  0
 65 68  1  0  0  0
 65185  1  0  0  0
 66 67  2  0  0  0
 66 72  1  0  0  0
 68 69  1  0  0  0
 68186  1  0  0  0
 68187  1  0  0  0
 69 70  2  0  0  0
 69 71  1  0  0  0
 71188  1  0  0  0
 71189  1  0  0  0
 72 73  1  0  0  0
 72190  1  0  0  0
 73 74  1  0  0  0
 73 76  1  0  0  0
 73191  1  0  0  0
 74 75  2  0  0  0
 74 84  1  0  0  0
 76 77  1  0  0  0
 76192  1  0  0  0
 76193  1  0  0  0
 77 78  2  0  0  0
 77 79  1  0  0  0
 78 80  1  0  0  0
 78194  1  0  0  0
 79 81  2  0  0  0
 79195  1  0  0  0
 80 82  2  0  0  0
 80196  1  0  0  0
 81 82  1  0  0  0
 81197  1  0  0  0
 82 83  1  0  0  0
 83198  1  0  0  0
 84 85  1  0  0  0
 84199  1  0  0  0
 85 86  1  0  0  0
 85 88  1  0  0  0
 85200  1  0  0  0
 86 87  2  0  0  0
 86 95  1  0  0  0
 88 89  1  0  0  0
 88201  1  0  0  0
 88202  1  0  0  0
 89 90  1  0  0  0
 89203  1  0  0  0
 89204  1  0  0  0
 90 91  1  0  0  0
 90205  1  0  0  0
 90206  1  0  0  0
 91 92  1  0  0  0
 91207  1  0  0  0
 92 93  2  0  0  0
 92 94  1  0  0  0
 93208  1  0  0  0
 94209  1  0  0  0
 94210  1  0  0  0
 95 96  1  0  0  0
 95211  1  0  0  0
 96 97  1  0  0  0
 96212  1  0  0  0
 96213  1  0  0  0
 97 98  2  0  0  0
 97 99  1  0  0  0
 99100  1  0  0  0
 99214  1  0  0  0
100101  1  0  0  0
100103  1  0  0  0
100215  1  0  0  0
101102  2  0  0  0
101111  1  0  0  0
103104  1  0  0  0
103216  1  0  0  0
103217  1  0  0  0
104105  2  0  0  0
104106  1  0  0  0
105107  1  0  0  0
105218  1  0  0  0
106108  2  0  0  0
106219  1  0  0  0
107109  2  0  0  0
107220  1  0  0  0
108109  1  0  0  0
108221  1  0  0  0
109110  1  0  0  0
110222  1  0  0  0
111112  1  0  0  0
111223  1  0  0  0
112113  1  0  0  0
112115  1  0  0  0
112224  1  0  0  0
113114  1  0  0  0
113117  2  0  0  0
114225  1  0  0  0
115116  1  0  0  0
115226  1  0  0  0
115227  1  0  0  0
116228  1  0  0  0
M  CHG  2   1   1  22   1
M  END
> <s_m_source_file>
../1f3j_ligand.sdf

> <i_m_source_file_index>
1

> <s_epik_input>
W05IMytdW0NAQEhdKFtDSDNdKUMoPU8pW05IXVtDQEBIXShbQ0gyXVtDSDJdU1tDSDNdKUMoPU8pW05IXVtDQEBIXShbQ0gyXVtDSDJdW0NIMl1bQ0gyXVtOSDMrXSlDKD1PKVtOSF1bQ0BASF0oW0NIMl1bQ0gyXVtDSDJdW05IXS9DKD1OXFtIXSlbTkgyXSlDKD1PKVtOSF1bQ0BASF0oW0NIMl1DMT1OW0NIMl1OPVtDSF0xKUMoPU8pW05IXVtDSDJdQyg9TylbTkhdW0NAQEhdKFtDSDJdW0NIXShbQ0gzXSlbQ0gzXSlDKD1PKVtOSF1bQ0BASF0oW0NIMl1DKD1PKVtPSF0pQyg9TylbTkhdW0NAQEhdKFtDSDJdQyg9TylbTkgyXSlDKD1PKVtOSF1bQ0BASF0oW0NIMl1jMltjSF1bY0hdYyhbT0hdKVtjSF1bY0hdMilDKD1PKVtOSF1bQ0BASF0oW0NIMl1bQ0gyXVtDSDJdW05IXS9DKD1OXFtIXSlbTkgyXSlDKD1PKVtOSF1bQ0gyXUMoPU8pW05IXVtDQEhdKEMoPU8pW05IXVtDQEhdKEMoPU8pW09IXSlbQ0gyXVtPSF0pW0NIMl1jM1tjSF1bY0hdYyhbT0hdKVtjSF1bY0hdMw==

> <s_epik_cmdline>
J2VwaWtfYXBwJywgJy1pbWFlJywgJ2xpZ2FuZF9wcm8ubWFlJywgJy1vbWFlJywgJ2xpZ2FuZF9wcmVwLm1hZScsICctbXMnLCAnMScsICctcGgnLCAnNycsICctcGh0JywgJzAuNScsICctbnQn

> <s_epik_pKa_notes>
Molecule size exceeds maximum supported for generating protonation states

> <s_epik_Chemistry_Notes>
This compound has an imine and may undergo hydrolysis.

$$$$
