1f40_ligand
                    3D
 Schrodinger Suite 2020-3.
 54 55  0  0  1  0            999 V2000
   -3.8610    1.6840   -0.8040 C   0  0  1  0  0  0
   -4.1450    3.1480   -0.4470 N   0  0  0  0  0  0
   -2.7720    3.8430   -0.5040 C   0  0  0  0  0  0
   -2.4470    1.4110   -0.3280 C   0  0  0  0  0  0
   -1.7110    2.7370   -0.4470 C   0  0  0  0  0  0
   -4.8330    0.7670   -0.0420 C   0  0  0  0  0  0
   -4.4610    0.2050    0.9910 O   0  0  0  0  0  0
   -6.1000    0.5710   -0.5160 O   0  0  0  0  0  0
   -7.0380    0.5410    0.5660 C   0  0  0  0  0  0
   -8.4530    0.8080    0.0230 C   0  0  0  0  0  0
   -9.3760   -0.3610    0.4020 C   0  0  0  0  0  0
  -11.3570    1.2290    3.2950 N   0  0  0  0  0  0
  -11.0830    0.3410    4.3590 C   0  0  0  0  0  0
  -10.2540   -0.7750    4.1390 C   0  0  0  0  0  0
   -9.7040   -0.9980    2.8570 C   0  0  0  0  0  0
   -9.9790   -0.1100    1.7950 C   0  0  0  0  0  0
  -10.8070    1.0070    2.0140 C   0  0  0  0  0  0
   -5.3050    3.6950   -0.1600 C   0  0  0  0  0  0
   -6.3260    3.0110   -0.1540 O   0  0  0  0  0  0
   -5.3820    5.1970    0.1730 C   0  0  0  0  0  0
   -5.0690    6.0280   -0.6770 O   0  0  0  0  0  0
   -5.8500    5.6650    1.5650 C   0  0  0  0  0  0
   -5.0260    6.8920    1.9930 C   0  0  0  0  0  0
   -5.6530    4.5360    2.5930 C   0  0  0  0  0  0
   -7.3390    6.0470    1.5040 C   0  0  0  0  0  0
   -7.5410    7.1600    0.4610 C   0  0  0  0  0  0
   -3.9679    1.4986   -1.8830 H   0  0  0  0  0  0
   -2.6892    4.4150   -1.4399 H   0  0  0  0  0  0
   -2.6705    4.5253    0.3529 H   0  0  0  0  0  0
   -2.4724    1.0591    0.7139 H   0  0  0  0  0  0
   -1.9883    0.6398   -0.9644 H   0  0  0  0  0  0
   -1.1057    2.7619   -1.3652 H   0  0  0  0  0  0
   -1.0605    2.8975    0.4254 H   0  0  0  0  0  0
   -7.0099   -0.4472    1.0483 H   0  0  0  0  0  0
   -6.7744    1.3155    1.3014 H   0  0  0  0  0  0
   -8.8432    1.7396    0.4588 H   0  0  0  0  0  0
   -8.4135    0.9039   -1.0721 H   0  0  0  0  0  0
  -10.1858   -0.4436   -0.3379 H   0  0  0  0  0  0
   -8.7964   -1.2958    0.4171 H   0  0  0  0  0  0
  -11.5114    0.5192    5.3453 H   0  0  0  0  0  0
  -10.0372   -1.4646    4.9548 H   0  0  0  0  0  0
   -9.0623   -1.8625    2.6867 H   0  0  0  0  0  0
  -11.0225    1.6973    1.1984 H   0  0  0  0  0  0
   -3.9608    6.6210    2.0373 H   0  0  0  0  0  0
   -5.3599    7.2300    2.9851 H   0  0  0  0  0  0
   -5.1682    7.7021    1.2626 H   0  0  0  0  0  0
   -4.5886    4.2621    2.6373 H   0  0  0  0  0  0
   -6.2450    3.6590    2.2924 H   0  0  0  0  0  0
   -5.9846    4.8802    3.5837 H   0  0  0  0  0  0
   -7.9323    5.1656    1.2191 H   0  0  0  0  0  0
   -7.6662    6.4058    2.4910 H   0  0  0  0  0  0
   -8.6057    7.4329    0.4176 H   0  0  0  0  0  0
   -7.2139    6.8012   -0.5261 H   0  0  0  0  0  0
   -6.9478    8.0415    0.7459 H   0  0  0  0  0  0
  1  2  1  0  0  0
  1  4  1  0  0  0
  1  6  1  0  0  0
  1 27  1  0  0  0
  2  3  1  0  0  0
  2 18  1  0  0  0
  3  5  1  0  0  0
  3 28  1  0  0  0
  3 29  1  0  0  0
  4  5  1  0  0  0
  4 30  1  0  0  0
  4 31  1  0  0  0
  5 32  1  0  0  0
  5 33  1  0  0  0
  6  7  2  0  0  0
  6  8  1  0  0  0
  8  9  1  0  0  0
  9 10  1  0  0  0
  9 34  1  0  0  0
  9 35  1  0  0  0
 10 11  1  0  0  0
 10 36  1  0  0  0
 10 37  1  0  0  0
 11 16  1  0  0  0
 11 38  1  0  0  0
 11 39  1  0  0  0
 12 13  2  0  0  0
 12 17  1  0  0  0
 13 14  1  0  0  0
 13 40  1  0  0  0
 14 15  2  0  0  0
 14 41  1  0  0  0
 15 16  1  0  0  0
 15 42  1  0  0  0
 16 17  2  0  0  0
 17 43  1  0  0  0
 18 19  2  0  0  0
 18 20  1  0  0  0
 20 21  2  0  0  0
 20 22  1  0  0  0
 22 23  1  0  0  0
 22 24  1  0  0  0
 22 25  1  0  0  0
 23 44  1  0  0  0
 23 45  1  0  0  0
 23 46  1  0  0  0
 24 47  1  0  0  0
 24 48  1  0  0  0
 24 49  1  0  0  0
 25 26  1  0  0  0
 25 50  1  0  0  0
 25 51  1  0  0  0
 26 52  1  0  0  0
 26 53  1  0  0  0
 26 54  1  0  0  0
M  END
> <s_m_source_file>
../1f40_ligand.sdf

> <i_m_source_file_index>
1

> <s_epik_input>
W0NIM11bQ0gyXUMoW0NIM10pKFtDSDNdKUMoPU8pQyg9TylOKFtDSDJdW0NIMl1bQ0gyXTEpW0NAQEhdMUMoPU8pT1tDSDJdW0NIMl1bQ0gyXWMyW2NIXVtjSF1bY0hdbltjSF0y

> <s_epik_cmdline>
J2VwaWtfYXBwJywgJy1pbWFlJywgJ2xpZ2FuZF9wcm8ubWFlJywgJy1vbWFlJywgJ2xpZ2FuZF9wcmVwLm1hZScsICctbXMnLCAnMScsICctcGgnLCAnNycsICctcGh0JywgJzAuNScsICctbnQn

> <r_epik_Ionization_Penalty>
  0.0114

> <r_epik_Ionization_Penalty_Charging>
  0.0000

> <r_epik_Ionization_Penalty_Neutral>
  0.0114

> <r_epik_State_Penalty>
  0.0088

> <r_epik_Charging_Adjusted_Penalty>
0.0087704266985692

> <i_epik_Tot_Q>
0

> <i_epik_Tot_abs_Q>
0

> <s_epik_Chemistry_Notes>
This compound has an ester and may undergo hydrolysis at high or low pH.

$$$$
