1f4e_ligand
                    3D
 Schrodinger Suite 2020-3.
 32 33  0  0  1  0            999 V2000
   38.0050   61.0350   78.5880 C   0  0  0  0  0  0
   38.3900   59.9010   77.8630 C   0  0  0  0  0  0
   38.3030   58.6360   78.4640 C   0  0  0  0  0  0
   37.8390   58.4910   79.7770 C   0  0  0  0  0  0
   37.4760   59.6340   80.4790 C   0  0  0  0  0  0
   37.5440   60.8970   79.8990 C   0  0  0  0  0  0
   38.9080   60.0060   76.4330 C   0  0  0  0  0  0
   36.8630   59.5010   82.1190 S   0  0  0  0  0  0
   37.4950   60.6150   83.0490 O   0  0  0  0  0  0
   37.2030   58.0690   82.7100 O   0  0  0  0  0  0
   35.1210   59.7520   82.1440 N   0  0  1  0  0  0
   34.5120   60.0170   80.8280 C   0  0  0  0  0  0
   33.4720   58.9200   80.6770 C   0  0  0  0  0  0
   33.0440   58.6100   82.1100 C   0  0  0  0  0  0
   34.2970   58.8680   82.9760 C   0  0  2  0  0  0
   34.0590   59.4180   84.3980 C   0  0  0  0  0  0
   33.8350   58.6810   85.3640 O   0  0  0  0  0  0
   34.1160   60.7720   84.5760 O   0  5  0  0  0  0
   38.0649   62.0226   78.1307 H   0  0  0  0  0  0
   38.6013   57.7524   77.8998 H   0  0  0  0  0  0
   37.7643   57.5058   80.2372 H   0  0  0  0  0  0
   37.2383   61.7761   80.4663 H   0  0  0  0  0  0
   38.9107   61.0607   76.1205 H   0  0  0  0  0  0
   38.2554   59.4268   75.7632 H   0  0  0  0  0  0
   39.9316   59.6063   76.3835 H   0  0  0  0  0  0
   34.0598   61.0197   80.8285 H   0  0  0  0  0  0
   35.2862   59.9644   80.0484 H   0  0  0  0  0  0
   32.6348   59.2900   80.0670 H   0  0  0  0  0  0
   33.9274   58.0483   80.1844 H   0  0  0  0  0  0
   32.2133   59.2720   82.3959 H   0  0  0  0  0  0
   32.7171   57.5618   82.1764 H   0  0  0  0  0  0
   34.8287   57.9305   83.1960 H   0  0  0  0  0  0
  1  6  2  0  0  0
  1  2  1  0  0  0
  1 19  1  0  0  0
  2  7  1  0  0  0
  2  3  2  0  0  0
  3  4  1  0  0  0
  3 20  1  0  0  0
  4  5  2  0  0  0
  4 21  1  0  0  0
  5  8  1  0  0  0
  5  6  1  0  0  0
  6 22  1  0  0  0
  7 23  1  0  0  0
  7 24  1  0  0  0
  7 25  1  0  0  0
  8 11  1  0  0  0
  8 10  2  0  0  0
  8  9  2  0  0  0
 11 15  1  0  0  0
 11 12  1  0  0  0
 12 13  1  0  0  0
 12 26  1  0  0  0
 12 27  1  0  0  0
 13 14  1  0  0  0
 13 28  1  0  0  0
 13 29  1  0  0  0
 14 15  1  0  0  0
 14 30  1  0  0  0
 14 31  1  0  0  0
 15 16  1  0  0  0
 15 32  1  0  0  0
 16 18  1  0  0  0
 16 17  2  0  0  0
M  CHG  1  18  -1
M  END
> <s_m_source_file>
../1f4e_ligand.sdf

> <i_m_source_file_index>
1

> <s_epik_input>
W0NIM11jMVtjSF1bY0hdYyhbY0hdW2NIXTEpUyg9TykoPU8pTjJbQ0gyXVtDSDJdW0NIMl1bQ0BASF0yQyg9TylbT0hd

> <s_epik_cmdline>
J2VwaWtfYXBwJywgJy1pbWFlJywgJ2xpZ2FuZF9wcm8ubWFlJywgJy1vbWFlJywgJ2xpZ2FuZF9wcmVwLm1hZScsICctbXMnLCAnMScsICctcGgnLCAnNycsICctcGh0JywgJzAuNScsICctbnQn

> <r_lp_tautomer_probability>
1

> <r_epik_Ionization_Penalty>
  0.0002

> <r_epik_Ionization_Penalty_Charging>
  0.0002

> <r_epik_Ionization_Penalty_Neutral>
  0.0000

> <r_epik_State_Penalty>
 -0.0000

> <r_epik_Charging_Adjusted_Penalty>
0.000159035703298039

> <i_epik_Tot_Q>
-1

> <i_epik_Tot_abs_Q>
1

$$$$
