1f4f_ligand
                    3D
 Schrodinger Suite 2020-3.
 46 47  0  0  1  0            999 V2000
   16.0830   13.5170   30.2510 C   0  0  0  0  0  0
   17.4530   13.8730   30.8970 C   0  0  0  0  0  0
   17.2220   15.2930   31.1590 N   0  0  3  0  0  0
   16.2910   15.9270   30.2340 C   0  0  2  0  0  0
   15.8950   14.7310   29.3170 C   0  0  0  0  0  0
   16.6250   17.1980   29.4520 C   0  0  0  0  0  0
   17.6970   17.4750   28.8890 O   0  0  0  0  0  0
   15.6600   18.0300   29.3840 O   0  5  0  0  0  0
   17.7180   15.9660   32.6620 S   0  0  0  0  0  0
   16.5540   15.4030   33.8730 C   0  0  0  0  0  0
   19.1170   15.4630   33.1360 O   0  0  0  0  0  0
   17.6380   17.5550   32.6130 O   0  0  0  0  0  0
   15.2840   15.9350   33.8350 C   0  0  0  0  0  0
   14.3640   15.5090   34.7770 C   0  0  0  0  0  0
   14.7610   14.5440   35.7220 C   0  0  0  0  0  0
   16.0700   14.0180   35.7260 C   0  0  0  0  0  0
   16.9890   14.4540   34.7790 C   0  0  0  0  0  0
   13.6990   14.1060   36.7070 C   0  0  0  0  0  0
   14.0410   13.3750   37.7830 N   0  0  0  0  0  0
   12.9540   12.8270   38.6390 C   0  0  1  0  0  0
   12.6190   11.3410   38.4960 C   0  0  0  0  0  0
   13.4520   10.5780   37.4660 C   0  0  0  0  0  0
   13.4310    9.0670   37.6610 C   0  0  0  0  0  0
   12.4990   14.1670   36.4090 O   0  0  0  0  0  0
   13.4980   13.2360   40.0520 C   0  0  0  0  0  0
   12.6340   13.4320   40.9230 O   0  0  0  0  0  0
   14.7340   13.3430   40.1930 O   0  5  0  0  0  0
   14.0100    8.6230   38.6770 O   0  5  0  0  0  0
   12.8710    8.3290   36.8300 O   0  0  0  0  0  0
   15.2505   13.4742   30.9688 H   0  0  0  0  0  0
   16.0996   12.5937   29.6534 H   0  0  0  0  0  0
   17.6022   13.2628   31.8000 H   0  0  0  0  0  0
   18.2610   13.6690   30.1790 H   0  0  0  0  0  0
   15.5506   16.4033   30.8935 H   0  0  0  0  0  0
   16.5546   14.6267   28.4429 H   0  0  0  0  0  0
   14.8481   14.7778   28.9828 H   0  0  0  0  0  0
   15.0103   16.6735   33.0814 H   0  0  0  0  0  0
   13.3516   15.9128   34.7871 H   0  0  0  0  0  0
   16.3591   13.2736   36.4679 H   0  0  0  0  0  0
   18.0069   14.0651   34.7519 H   0  0  0  0  0  0
   15.0931   13.1785   38.0370 H   0  0  0  0  0  0
   11.9774   13.2256   38.3270 H   0  0  0  0  0  0
   12.7763   10.8353   39.4601 H   0  0  0  0  0  0
   11.5681   11.2297   38.1908 H   0  0  0  0  0  0
   13.0656   10.7838   36.4569 H   0  0  0  0  0  0
   14.5012   10.9023   37.5300 H   0  0  0  0  0  0
  1  5  1  0  0  0
  1  2  1  0  0  0
  1 30  1  0  0  0
  1 31  1  0  0  0
  2  3  1  0  0  0
  2 32  1  0  0  0
  2 33  1  0  0  0
  3  9  1  0  0  0
  3  4  1  0  0  0
  4  6  1  0  0  0
  4  5  1  0  0  0
  4 34  1  0  0  0
  5 35  1  0  0  0
  5 36  1  0  0  0
  6  8  1  0  0  0
  6  7  2  0  0  0
  9 12  2  0  0  0
  9 11  2  0  0  0
  9 10  1  0  0  0
 10 17  2  0  0  0
 10 13  1  0  0  0
 13 14  2  0  0  0
 13 37  1  0  0  0
 14 15  1  0  0  0
 14 38  1  0  0  0
 15 18  1  0  0  0
 15 16  2  0  0  0
 16 17  1  0  0  0
 16 39  1  0  0  0
 17 40  1  0  0  0
 18 24  2  0  0  0
 18 19  1  0  0  0
 19 20  1  0  0  0
 19 41  1  0  0  0
 20 25  1  0  0  0
 20 21  1  0  0  0
 20 42  1  0  0  0
 21 22  1  0  0  0
 21 43  1  0  0  0
 21 44  1  0  0  0
 22 23  1  0  0  0
 22 45  1  0  0  0
 22 46  1  0  0  0
 23 29  2  0  0  0
 23 28  1  0  0  0
 25 27  1  0  0  0
 25 26  2  0  0  0
M  CHG  3   8  -1  27  -1  28  -1
M  END
> <s_m_source_file>
../1f4f_ligand.sdf

> <i_m_source_file_index>
1

> <s_epik_input>
Tz1DKFtPSF0pW0NASF0xW0NIMl1bQ0gyXVtDSDJdTjFTKD1PKSg9TyljMltjSF1bY0hdYyhbY0hdW2NIXTIpQyg9TylbTkhdW0NASF0oQyg9TylbT0hdKVtDSDJdW0NIMl1DKD1PKVtPSF0=

> <s_epik_cmdline>
J2VwaWtfYXBwJywgJy1pbWFlJywgJ2xpZ2FuZF9wcm8ubWFlJywgJy1vbWFlJywgJ2xpZ2FuZF9wcmVwLm1hZScsICctbXMnLCAnMScsICctcGgnLCAnNycsICctcGh0JywgJzAuNScsICctbnQn

> <r_lp_tautomer_probability>
1

> <r_epik_Ionization_Penalty>
  0.0045

> <r_epik_Ionization_Penalty_Charging>
  0.0045

> <r_epik_Ionization_Penalty_Neutral>
  0.0000

> <r_epik_State_Penalty>
 -0.0000

> <r_epik_Charging_Adjusted_Penalty>
0.00446075855854855

> <i_epik_Tot_Q>
-3

> <i_epik_Tot_abs_Q>
3

$$$$
