1f4g_ligand
                    3D
 Schrodinger Suite 2020-3.
 56 57  0  0  1  0            999 V2000
   15.8620   13.7790   30.1580 C   0  0  0  0  0  0
   16.9920   13.9700   31.1850 C   0  0  0  0  0  0
   16.8370   15.3840   31.5640 N   0  0  1  0  0  0
   15.8290   16.0880   30.7340 C   0  0  2  0  0  0
   15.7590   15.1630   29.4930 C   0  0  0  0  0  0
   16.1610   17.5860   30.4220 C   0  0  0  0  0  0
   17.3600   17.8920   30.3700 O   0  0  0  0  0  0
   15.2010   18.4940   30.1840 N   0  0  0  0  0  0
   17.0960   15.8630   33.1930 S   0  0  0  0  0  0
   16.0530   15.0270   34.3300 C   0  0  0  0  0  0
   18.6050   15.6420   33.5640 O   0  0  0  0  0  0
   16.6690   17.3750   33.2680 O   0  0  0  0  0  0
   14.6990   15.1390   34.0750 C   0  0  0  0  0  0
   13.8230   14.5480   34.9700 C   0  0  0  0  0  0
   14.3380   13.8840   36.1040 C   0  0  0  0  0  0
   15.7170   13.7990   36.3290 C   0  0  0  0  0  0
   16.6050   14.3860   35.4310 C   0  0  0  0  0  0
   13.3490   13.2270   37.0480 C   0  0  0  0  0  0
   13.8210   12.7210   38.2010 N   0  0  0  0  0  0
   12.8470   12.0330   39.1310 C   0  0  1  0  0  0
   13.1060   10.5130   39.2510 C   0  0  0  0  0  0
   14.0190    9.8950   38.1720 C   0  0  0  0  0  0
   14.6720    8.6310   38.7460 C   0  0  0  0  0  0
   12.1810   13.0390   36.6770 O   0  0  0  0  0  0
   13.0430   12.7980   40.4880 C   0  0  0  0  0  0
   12.1320   12.7460   41.3150 O   0  0  0  0  0  0
   14.1400   13.3790   40.6250 O   0  5  0  0  0  0
   15.1840    8.6400   39.8870 O   0  5  0  0  0  0
   14.6830    7.5930   38.0580 O   0  0  0  0  0  0
   15.2700   19.9480   30.0370 C   0  0  0  0  0  0
   15.0900   20.6270   31.4120 C   0  0  0  0  0  0
   15.4300   22.1250   31.2540 C   0  0  0  0  0  0
   14.5320   22.9560   31.5020 O   0  5  0  0  0  0
   16.5810   22.4080   30.8770 O   0  0  0  0  0  0
   14.9009   13.5264   30.6297 H   0  0  0  0  0  0
   16.1065   13.0236   29.3967 H   0  0  0  0  0  0
   16.8404   13.2813   32.0292 H   0  0  0  0  0  0
   17.9604   13.7581   30.7083 H   0  0  0  0  0  0
   14.8769   16.1862   31.2760 H   0  0  0  0  0  0
   16.5986   15.2979   28.7952 H   0  0  0  0  0  0
   14.8094   15.2356   28.9425 H   0  0  0  0  0  0
   14.2334   17.9779   30.0987 H   0  0  0  0  0  0
   14.3332   15.6745   33.1989 H   0  0  0  0  0  0
   12.7473   14.5951   34.8005 H   0  0  0  0  0  0
   16.0954   13.2740   37.2061 H   0  0  0  0  0  0
   17.6832   14.3442   35.5853 H   0  0  0  0  0  0
   14.8835   12.7968   38.4755 H   0  0  0  0  0  0
   11.8207   12.0811   38.7381 H   0  0  0  0  0  0
   13.5864   10.2981   40.2169 H   0  0  0  0  0  0
   12.1502    9.9721   39.1884 H   0  0  0  0  0  0
   13.4183    9.6367   37.2875 H   0  0  0  0  0  0
   14.7953   10.6211   37.8887 H   0  0  0  0  0  0
   16.2487   20.2284   29.6203 H   0  0  0  0  0  0
   14.4724   20.2863   29.3592 H   0  0  0  0  0  0
   14.0489   20.5074   31.7465 H   0  0  0  0  0  0
   15.7660   20.1595   32.1431 H   0  0  0  0  0  0
  1  5  1  0  0  0
  1  2  1  0  0  0
  1 35  1  0  0  0
  1 36  1  0  0  0
  2  3  1  0  0  0
  2 37  1  0  0  0
  2 38  1  0  0  0
  3  9  1  0  0  0
  3  4  1  0  0  0
  4  6  1  0  0  0
  4  5  1  0  0  0
  4 39  1  0  0  0
  5 40  1  0  0  0
  5 41  1  0  0  0
  6  8  1  0  0  0
  6  7  2  0  0  0
  8 30  1  0  0  0
  8 42  1  0  0  0
  9 12  2  0  0  0
  9 11  2  0  0  0
  9 10  1  0  0  0
 10 17  2  0  0  0
 10 13  1  0  0  0
 13 14  2  0  0  0
 13 43  1  0  0  0
 14 15  1  0  0  0
 14 44  1  0  0  0
 15 18  1  0  0  0
 15 16  2  0  0  0
 16 17  1  0  0  0
 16 45  1  0  0  0
 17 46  1  0  0  0
 18 24  2  0  0  0
 18 19  1  0  0  0
 19 20  1  0  0  0
 19 47  1  0  0  0
 20 25  1  0  0  0
 20 21  1  0  0  0
 20 48  1  0  0  0
 21 22  1  0  0  0
 21 49  1  0  0  0
 21 50  1  0  0  0
 22 23  1  0  0  0
 22 51  1  0  0  0
 22 52  1  0  0  0
 23 29  2  0  0  0
 23 28  1  0  0  0
 25 27  1  0  0  0
 25 26  2  0  0  0
 30 31  1  0  0  0
 30 53  1  0  0  0
 30 54  1  0  0  0
 31 32  1  0  0  0
 31 55  1  0  0  0
 31 56  1  0  0  0
 32 34  2  0  0  0
 32 33  1  0  0  0
M  CHG  3  27  -1  28  -1  33  -1
M  END
> <s_m_source_file>
../1f4g_ligand.sdf

> <i_m_source_file_index>
1

> <s_epik_input>
W09IXUMoPU8pW0NIMl1bQ0gyXVtOSF1DKD1PKVtDQEhdMVtDSDJdW0NIMl1bQ0gyXU4xUyg9TykoPU8pYzJbY0hdW2NIXWMoW2NIXVtjSF0yKUMoPU8pW05IXVtDQEhdKEMoPU8pW09IXSlbQ0gyXVtDSDJdQyg9TylbT0hd

> <s_epik_cmdline>
J2VwaWtfYXBwJywgJy1pbWFlJywgJ2xpZ2FuZF9wcm8ubWFlJywgJy1vbWFlJywgJ2xpZ2FuZF9wcmVwLm1hZScsICctbXMnLCAnMScsICctcGgnLCAnNycsICctcGh0JywgJzAuNScsICctbnQn

> <r_lp_tautomer_probability>
1

> <r_epik_Ionization_Penalty>
  0.0061

> <r_epik_Ionization_Penalty_Charging>
  0.0061

> <r_epik_Ionization_Penalty_Neutral>
  0.0000

> <r_epik_State_Penalty>
 -0.0000

> <r_epik_Charging_Adjusted_Penalty>
0.00609589373590886

> <i_epik_Tot_Q>
-3

> <i_epik_Tot_abs_Q>
3

$$$$
