1f4x_ligand
                    3D
 Schrodinger Suite 2020-3.
 43 43  0  0  1  0            999 V2000
   -7.8070  -21.7350   18.3110 C   0  0  2  0  0  0
   -8.3470  -21.8120   19.6040 O   0  0  0  0  0  0
   -8.2540  -23.1530   20.1440 C   0  0  0  0  0  0
   -8.2330  -20.4470   17.6300 C   0  0  1  0  0  0
   -7.5690  -20.2700   16.3690 O   0  0  0  0  0  0
   -6.1850  -19.9980   16.6490 C   0  0  0  0  0  0
   -9.7530  -20.4310   17.3620 C   0  0  1  0  0  0
  -10.0820  -19.3010   16.5180 O   0  0  0  0  0  0
  -10.1110  -21.7190   16.6250 C   0  0  2  0  0  0
  -11.5860  -21.9050   16.4020 N   0  0  0  0  0  0
  -11.8900  -21.6680   15.1410 C   0  0  0  0  0  0
  -10.9450  -21.3860   14.4220 O   0  0  0  0  0  0
   -9.5410  -22.9810   17.2830 C   0  0  2  0  0  0
   -8.0930  -22.8950   17.5250 O   0  0  0  0  0  0
   -9.8510  -24.2360   16.4340 C   0  0  0  0  0  0
  -15.1280  -23.0140   13.6980 C   0  0  0  0  0  0
  -16.0240  -22.9060   14.8070 O   0  0  0  0  0  0
  -13.8460  -23.0380   14.4390 C   0  0  0  0  0  0
  -13.1310  -21.6910   14.2410 C   0  0  1  0  0  0
  -13.8570  -20.4940   14.2140 O   0  0  0  0  0  0
   -6.7184  -21.7793   18.4623 H   0  0  0  0  0  0
   -8.6864  -23.1718   21.1553 H   0  0  0  0  0  0
   -7.1979  -23.4569   20.1911 H   0  0  0  0  0  0
   -8.8071  -23.8485   19.4957 H   0  0  0  0  0  0
   -7.9068  -19.6164   18.2732 H   0  0  0  0  0  0
   -5.6407  -19.8559   15.7037 H   0  0  0  0  0  0
   -5.7490  -20.8447   17.1994 H   0  0  0  0  0  0
   -6.1066  -19.0854   17.2581 H   0  0  0  0  0  0
  -10.3386  -20.3087   18.2851 H   0  0  0  0  0  0
   -9.8968  -18.2766   16.8735 H   0  0  0  0  0  0
   -9.6493  -21.5840   15.6358 H   0  0  0  0  0  0
  -12.2361  -22.1990   17.2393 H   0  0  0  0  0  0
   -9.9906  -23.0546   18.2842 H   0  0  0  0  0  0
  -10.9344  -24.2985   16.2541 H   0  0  0  0  0  0
   -9.5162  -25.1348   16.9725 H   0  0  0  0  0  0
   -9.3228  -24.1672   15.4715 H   0  0  0  0  0  0
  -15.1414  -22.1508   13.0163 H   0  0  0  0  0  0
  -15.2330  -23.9419   13.1167 H   0  0  0  0  0  0
  -17.1094  -22.8602   14.6347 H   0  0  0  0  0  0
  -14.0439  -23.2002   15.5088 H   0  0  0  0  0  0
  -13.2157  -23.8536   14.0549 H   0  0  0  0  0  0
  -12.9304  -21.5636   13.1670 H   0  0  0  0  0  0
  -13.3342  -19.5367   14.0717 H   0  0  0  0  0  0
  1 14  1  0  0  0
  1  4  1  0  0  0
  1  2  1  0  0  0
  1 21  1  0  0  0
  2  3  1  0  0  0
  3 22  1  0  0  0
  3 23  1  0  0  0
  3 24  1  0  0  0
  4  7  1  0  0  0
  4  5  1  0  0  0
  4 25  1  0  0  0
  5  6  1  0  0  0
  6 26  1  0  0  0
  6 27  1  0  0  0
  6 28  1  0  0  0
  7  9  1  0  0  0
  7  8  1  0  0  0
  7 29  1  0  0  0
  8 30  1  0  0  0
  9 13  1  0  0  0
  9 10  1  0  0  0
  9 31  1  0  0  0
 10 11  1  0  0  0
 10 32  1  0  0  0
 11 19  1  0  0  0
 11 12  2  0  0  0
 13 15  1  0  0  0
 13 14  1  0  0  0
 13 33  1  0  0  0
 15 34  1  0  0  0
 15 35  1  0  0  0
 15 36  1  0  0  0
 16 18  1  0  0  0
 16 17  1  0  0  0
 16 37  1  0  0  0
 16 38  1  0  0  0
 17 39  1  0  0  0
 18 19  1  0  0  0
 18 40  1  0  0  0
 18 41  1  0  0  0
 19 20  1  0  0  0
 19 42  1  0  0  0
 20 43  1  0  0  0
M  END
> <s_m_source_file>
../1f4x_ligand.sdf

> <i_m_source_file_index>
1

> <s_epik_input>
W0NIM11PW0NAQEhdMVtDQEBIXShPW0NIM10pW0NAQEhdKFtPSF0pW0NAQEhdKFtDQEhdKE8xKVtDSDNdKVtOSF1DKD1PKVtDQEhdKFtPSF0pW0NIMl1bQ0gyXVtPSF0=

> <s_epik_cmdline>
J2VwaWtfYXBwJywgJy1pbWFlJywgJ2xpZ2FuZF9wcm8ubWFlJywgJy1vbWFlJywgJ2xpZ2FuZF9wcmVwLm1hZScsICctbXMnLCAnMScsICctcGgnLCAnNycsICctcGh0JywgJzAuNScsICctbnQn

> <r_lp_tautomer_probability>
1

> <r_epik_Ionization_Penalty>
  0.0000

> <r_epik_Ionization_Penalty_Charging>
  0.0000

> <r_epik_Ionization_Penalty_Neutral>
  0.0000

> <r_epik_State_Penalty>
 -0.0000

> <r_epik_Charging_Adjusted_Penalty>
0

> <i_epik_Tot_Q>
0

> <i_epik_Tot_abs_Q>
0

> <s_epik_Chemistry_Notes>
This compound contains an acetal/aminal-like group ( X-CH(R)-Y where X, Y are N, S, or O) that may be acid/base labile, releasing an aldehyde.

$$$$
