1f4y_ligand
                    3D
 Schrodinger Suite 2020-3.
 77 78  0  0  1  0            999 V2000
   39.3180   34.9420   -6.4200 C   0  0  2  0  0  0
   38.7270   33.5480   -6.6370 C   0  0  1  0  0  0
   37.5110   33.3580   -5.9690 O   0  0  0  0  0  0
   36.4450   32.7640   -6.6590 C   0  0  0  0  0  0
   38.7160   33.3610   -8.1610 C   0  0  1  0  0  0
   38.4540   31.9860   -8.5400 O   0  0  0  0  0  0
   37.7670   34.3810   -8.7660 C   0  0  2  0  0  0
   37.6350   34.2850  -10.2700 N   0  0  0  0  0  0
   36.3310   34.4370  -10.6040 C   0  0  0  0  0  0
   35.7300   34.5970   -9.5450 O   0  0  0  0  0  0
   38.1820   35.8250   -8.4210 C   0  0  2  0  0  0
   38.7900   36.0420   -7.1270 O   0  0  0  0  0  0
   36.9910   36.8020   -8.5370 C   0  0  0  0  0  0
   36.0800   35.4420  -14.1210 C   0  0  0  0  0  0
   37.4410   35.8630  -14.2980 O   0  0  0  0  0  0
   35.7620   35.6930  -12.7050 C   0  0  0  0  0  0
   35.4340   34.4700  -11.8440 C   0  0  1  0  0  0
   35.2150   33.2860  -12.5640 O   0  0  0  0  0  0
   41.8150   36.6270   -7.7930 C   0  0  1  0  0  0
   40.6950   34.7540   -6.7710 O   0  0  0  0  0  0
   43.9480   36.9350   -6.9700 C   0  0  0  0  0  0
   41.6340   35.7800   -6.5380 C   0  0  1  0  0  0
   42.7460   37.6040   -7.3840 O   0  0  0  0  0  0
   42.9590   35.1650   -6.0840 C   0  0  1  0  0  0
   42.9170   34.0200   -5.2110 O   0  0  0  0  0  0
   43.6390   34.5750   -7.3000 C   0  0  2  0  0  0
   45.0090   34.0580   -6.9980 N   0  0  0  0  0  0
   45.1350   32.7780   -7.4070 C   0  0  0  0  0  0
   44.2870   32.3790   -8.2050 O   0  0  0  0  0  0
   43.7620   35.5740   -8.4530 C   0  0  2  0  0  0
   42.4200   35.9330   -8.9150 O   0  0  0  0  0  0
   44.7110   34.9710   -9.4950 C   0  0  0  0  0  0
   48.4520   31.6250   -5.9460 C   0  0  0  0  0  0
   48.1920   30.2260   -6.1160 O   0  0  0  0  0  0
   47.6360   32.4130   -6.9320 C   0  0  0  0  0  0
   46.2190   31.8340   -6.8830 C   0  0  1  0  0  0
   45.9550   31.3740   -5.5880 O   0  0  0  0  0  0
   39.1134   35.3242   -5.4090 H   0  0  0  0  0  0
   39.2418   32.7249   -6.1198 H   0  0  0  0  0  0
   35.5727   32.6903   -5.9929 H   0  0  0  0  0  0
   36.7388   31.7573   -6.9912 H   0  0  0  0  0  0
   36.1871   33.3783   -7.5343 H   0  0  0  0  0  0
   39.7110   33.5003   -8.6088 H   0  0  0  0  0  0
   39.0900   31.1774   -8.1505 H   0  0  0  0  0  0
   36.7921   34.1214   -8.3276 H   0  0  0  0  0  0
   38.5273   34.1166  -10.8908 H   0  0  0  0  0  0
   39.0113   36.0327   -9.1132 H   0  0  0  0  0  0
   36.4999   36.6673   -9.5121 H   0  0  0  0  0  0
   37.3553   37.8362   -8.4496 H   0  0  0  0  0  0
   36.2697   36.5981   -7.7319 H   0  0  0  0  0  0
   35.4263   36.0256  -14.7859 H   0  0  0  0  0  0
   35.9920   34.3732  -14.3659 H   0  0  0  0  0  0
   37.9197   35.7762  -15.2846 H   0  0  0  0  0  0
   36.6198   36.1790  -12.2172 H   0  0  0  0  0  0
   34.8817   36.3492  -12.6376 H   0  0  0  0  0  0
   34.3922   34.4638  -11.4909 H   0  0  0  0  0  0
   34.9730   32.3548  -12.0308 H   0  0  0  0  0  0
   40.8623   37.0235   -8.1741 H   0  0  0  0  0  0
   44.6895   37.6802   -6.6462 H   0  0  0  0  0  0
   44.3540   36.3558   -7.8125 H   0  0  0  0  0  0
   43.7209   36.2567   -6.1344 H   0  0  0  0  0  0
   41.1953   36.3944   -5.7379 H   0  0  0  0  0  0
   43.4508   35.9667   -5.5135 H   0  0  0  0  0  0
   42.4702   34.1079   -4.2097 H   0  0  0  0  0  0
   42.9975   33.7291   -7.5880 H   0  0  0  0  0  0
   45.7465   34.7092   -6.5060 H   0  0  0  0  0  0
   44.1701   36.5571   -8.1754 H   0  0  0  0  0  0
   45.6792   34.7473   -9.0232 H   0  0  0  0  0  0
   44.8598   35.6894  -10.3146 H   0  0  0  0  0  0
   44.2750   34.0436   -9.8948 H   0  0  0  0  0  0
   48.1810   31.9267   -4.9235 H   0  0  0  0  0  0
   49.5208   31.8226   -6.1155 H   0  0  0  0  0  0
   48.7028   29.4901   -5.4776 H   0  0  0  0  0  0
   47.6375   33.4746   -6.6438 H   0  0  0  0  0  0
   48.0706   32.3053   -7.9367 H   0  0  0  0  0  0
   46.1600   30.9254   -7.5002 H   0  0  0  0  0  0
   44.9806   30.9208   -5.3533 H   0  0  0  0  0  0
  1  2  1  0  0  0
  1 12  1  0  0  0
  1 20  1  0  0  0
  1 38  1  0  0  0
  2  3  1  0  0  0
  2  5  1  0  0  0
  2 39  1  0  0  0
  3  4  1  0  0  0
  4 40  1  0  0  0
  4 41  1  0  0  0
  4 42  1  0  0  0
  5  6  1  0  0  0
  5  7  1  0  0  0
  5 43  1  0  0  0
  6 44  1  0  0  0
  7  8  1  0  0  0
  7 11  1  0  0  0
  7 45  1  0  0  0
  8  9  1  0  0  0
  8 46  1  0  0  0
  9 10  2  0  0  0
  9 17  1  0  0  0
 11 12  1  0  0  0
 11 13  1  0  0  0
 11 47  1  0  0  0
 13 48  1  0  0  0
 13 49  1  0  0  0
 13 50  1  0  0  0
 14 15  1  0  0  0
 14 16  1  0  0  0
 14 51  1  0  0  0
 14 52  1  0  0  0
 15 53  1  0  0  0
 16 17  1  0  0  0
 16 54  1  0  0  0
 16 55  1  0  0  0
 17 18  1  0  0  0
 17 56  1  0  0  0
 18 57  1  0  0  0
 19 22  1  0  0  0
 19 23  1  0  0  0
 19 31  1  0  0  0
 19 58  1  0  0  0
 20 22  1  0  0  0
 21 23  1  0  0  0
 21 59  1  0  0  0
 21 60  1  0  0  0
 21 61  1  0  0  0
 22 24  1  0  0  0
 22 62  1  0  0  0
 24 25  1  0  0  0
 24 26  1  0  0  0
 24 63  1  0  0  0
 25 64  1  0  0  0
 26 27  1  0  0  0
 26 30  1  0  0  0
 26 65  1  0  0  0
 27 28  1  0  0  0
 27 66  1  0  0  0
 28 29  2  0  0  0
 28 36  1  0  0  0
 30 31  1  0  0  0
 30 32  1  0  0  0
 30 67  1  0  0  0
 32 68  1  0  0  0
 32 69  1  0  0  0
 32 70  1  0  0  0
 33 34  1  0  0  0
 33 35  1  0  0  0
 33 71  1  0  0  0
 33 72  1  0  0  0
 34 73  1  0  0  0
 35 36  1  0  0  0
 35 74  1  0  0  0
 35 75  1  0  0  0
 36 37  1  0  0  0
 36 76  1  0  0  0
 37 77  1  0  0  0
M  END
> <s_m_source_file>
../1f4y_ligand.sdf

> <i_m_source_file_index>
1

> <s_epik_input>
W09IXVtDSDJdW0NIMl1bQ0BASF0oW09IXSlDKD1PKVtOSF1bQ0BIXShbQ0BIXShPMSlbQ0gzXSlbQ0BIXShbT0hdKVtDQEhdKE9bQ0gzXSlbQ0BIXTFPW0NASF0oW0NASF0yT1tDSDNdKVtDQEBIXShbT0hdKVtDQEBIXShbQ0BIXShPMilbQ0gzXSlbTkhdQyg9TylbQ0BIXShbT0hdKVtDSDJdW0NIMl1bT0hd

> <s_epik_cmdline>
J2VwaWtfYXBwJywgJy1pbWFlJywgJ2xpZ2FuZF9wcm8ubWFlJywgJy1vbWFlJywgJ2xpZ2FuZF9wcmVwLm1hZScsICctbXMnLCAnMScsICctcGgnLCAnNycsICctcGh0JywgJzAuNScsICctbnQn

> <r_lp_tautomer_probability>
1

> <r_epik_Ionization_Penalty>
  0.0000

> <r_epik_Ionization_Penalty_Charging>
  0.0000

> <r_epik_Ionization_Penalty_Neutral>
  0.0000

> <r_epik_State_Penalty>
 -0.0000

> <r_epik_Charging_Adjusted_Penalty>
0

> <i_epik_Tot_Q>
0

> <i_epik_Tot_abs_Q>
0

> <s_epik_Chemistry_Notes>
This compound contains an acetal/aminal-like group ( X-CH(R)-Y where X, Y are N, S, or O) that may be acid/base labile, releasing an aldehyde.

$$$$
