1f74_ligand
                    3D
 Schrodinger Suite 2020-3.
 38 37  0  0  1  0            999 V2000
    1.9790   14.3000    6.2480 C   0  0  0  0  0  0
    2.7170   13.3410    5.9700 O   0  0  0  0  0  0
    0.8910   14.5830    5.7190 O   0  5  0  0  0  0
    2.5340   15.2150    7.3700 C   0  0  0  0  0  0
    3.7680   15.1950    7.5440 O   0  0  0  0  0  0
    1.4840   16.0520    8.1210 C   0  0  0  0  0  0
    1.6290   16.0050    9.7010 C   0  0  0  0  0  0
    0.2090   15.8060   10.3300 C   0  0  1  0  0  0
    0.1130   14.5130   11.0610 N   0  0  0  0  0  0
   -0.9710   13.7350   10.9580 C   0  0  0  0  0  0
   -0.7590   12.3720   11.6120 C   0  0  0  0  0  0
   -2.0740   14.0130   10.4330 O   0  0  0  0  0  0
   -0.1450   18.1810   10.5700 O   0  0  0  0  0  0
   -0.1740   16.9550   11.3340 C   0  0  1  0  0  0
   -1.6170   16.7650   11.8980 C   0  0  2  0  0  0
   -2.5030   16.5780   10.7990 O   0  0  0  0  0  0
   -2.0580   17.9900   12.7340 C   0  0  2  0  0  0
   -0.9840   18.2830   13.6620 O   0  0  0  0  0  0
   -3.3860   17.7670   13.4230 C   0  0  0  0  0  0
   -3.3140   16.7290   14.4080 O   0  0  0  0  0  0
    1.5708   17.1061    7.8187 H   0  0  0  0  0  0
    0.4772   15.6822    7.8767 H   0  0  0  0  0  0
    2.2837   15.1677    9.9844 H   0  0  0  0  0  0
    2.0664   16.9493   10.0573 H   0  0  0  0  0  0
   -0.5033   15.7644    9.4928 H   0  0  0  0  0  0
    0.9432   14.1802   11.7013 H   0  0  0  0  0  0
    0.2631   12.3134   12.0144 H   0  0  0  0  0  0
   -0.9042   11.5794   10.8632 H   0  0  0  0  0  0
   -1.4831   12.2411   12.4296 H   0  0  0  0  0  0
    0.7870   18.5035   10.0827 H   0  0  0  0  0  0
    0.5397   17.0332   12.1674 H   0  0  0  0  0  0
   -1.7029   15.8554   12.5106 H   0  0  0  0  0  0
   -2.3392   15.7484   10.0955 H   0  0  0  0  0  0
   -2.2042   18.8931   12.1233 H   0  0  0  0  0  0
    0.0335   18.4654   13.2858 H   0  0  0  0  0  0
   -3.6990   18.6945   13.9247 H   0  0  0  0  0  0
   -4.1423   17.4802   12.6775 H   0  0  0  0  0  0
   -4.2083   16.4589   14.9888 H   0  0  0  0  0  0
  1  4  1  0  0  0
  1  3  1  0  0  0
  1  2  2  0  0  0
  4  6  1  0  0  0
  4  5  2  0  0  0
  6  7  1  0  0  0
  6 21  1  0  0  0
  6 22  1  0  0  0
  7  8  1  0  0  0
  7 23  1  0  0  0
  7 24  1  0  0  0
  8 14  1  0  0  0
  8  9  1  0  0  0
  8 25  1  0  0  0
  9 10  1  0  0  0
  9 26  1  0  0  0
 10 12  2  0  0  0
 10 11  1  0  0  0
 11 27  1  0  0  0
 11 28  1  0  0  0
 11 29  1  0  0  0
 13 14  1  0  0  0
 13 30  1  0  0  0
 14 15  1  0  0  0
 14 31  1  0  0  0
 15 17  1  0  0  0
 15 16  1  0  0  0
 15 32  1  0  0  0
 16 33  1  0  0  0
 17 19  1  0  0  0
 17 18  1  0  0  0
 17 34  1  0  0  0
 18 35  1  0  0  0
 19 20  1  0  0  0
 19 36  1  0  0  0
 19 37  1  0  0  0
 20 38  1  0  0  0
M  CHG  1   3  -1
M  END
> <s_m_source_file>
../1f74_ligand.sdf

> <i_m_source_file_index>
1

> <s_epik_input>
Tz1DKFtPSF0pQyg9TylbQ0gyXVtDSDJdW0NAQEhdKFtOSF1DKD1PKVtDSDNdKVtDQEBIXShbT0hdKVtDQEhdKFtPSF0pW0NASF0oW09IXSlbQ0gyXVtPSF0=

> <s_epik_cmdline>
J2VwaWtfYXBwJywgJy1pbWFlJywgJ2xpZ2FuZF9wcm8ubWFlJywgJy1vbWFlJywgJ2xpZ2FuZF9wcmVwLm1hZScsICctbXMnLCAnMScsICctcGgnLCAnNycsICctcGh0JywgJzAuNScsICctbnQn

> <r_lp_tautomer_probability>
1

> <r_epik_Ionization_Penalty>
  0.0001

> <r_epik_Ionization_Penalty_Charging>
  0.0001

> <r_epik_Ionization_Penalty_Neutral>
  0.0000

> <r_epik_State_Penalty>
 -0.0000

> <r_epik_Charging_Adjusted_Penalty>
0.000114413509516313

> <i_epik_Tot_Q>
-1

> <i_epik_Tot_abs_Q>
1

$$$$
