1f7b_ligand
                    3D
 Schrodinger Suite 2020-3.
 38 37  0  0  1  0            999 V2000
    7.3730   12.4050   42.4780 C   0  0  0  0  0  0
    6.3060   12.0780   43.0440 O   0  5  0  0  0  0
    8.4900   11.9850   42.8520 O   0  0  0  0  0  0
    7.3480   13.2280   41.3100 C   0  0  0  0  0  0
    8.3700   12.7430   40.3130 C   0  0  0  0  0  0
    8.8450   13.1170   38.9570 C   0  0  0  0  0  0
    9.8180   12.1300   38.2890 C   0  0  1  0  0  0
    9.0270   11.0710   37.6200 N   0  0  0  0  0  0
    9.5450    9.8350   37.2800 C   0  0  0  0  0  0
    8.7390    8.8900   36.4200 C   0  0  0  0  0  0
   10.7000    9.4520   37.6560 O   0  0  0  0  0  0
   11.4610   13.8770   38.0980 O   0  0  0  0  0  0
   10.7800   12.8590   37.3160 C   0  0  1  0  0  0
   11.8740   11.8730   36.8110 C   0  0  2  0  0  0
   12.4860   11.2100   37.9540 O   0  0  0  0  0  0
   12.8950   12.6480   35.9360 C   0  0  2  0  0  0
   12.1730   13.5060   35.0050 O   0  0  0  0  0  0
   13.8360   11.7340   35.1430 C   0  0  0  0  0  0
   13.0770   11.0730   34.1020 O   0  0  0  0  0  0
    8.4300   14.1410   38.3730 O   0  0  0  0  0  0
    6.3485   13.1851   40.8526 H   0  0  0  0  0  0
    7.5796   14.2667   41.5883 H   0  0  0  0  0  0
    9.3727   12.7915   40.7627 H   0  0  0  0  0  0
    8.1440   11.7037   40.0323 H   0  0  0  0  0  0
   10.4382   11.6220   39.0422 H   0  0  0  0  0  0
    7.9710   11.2491   37.3688 H   0  0  0  0  0  0
    7.7715    9.3523   36.1748 H   0  0  0  0  0  0
    8.5686    7.9512   36.9673 H   0  0  0  0  0  0
    9.2901    8.6785   35.4918 H   0  0  0  0  0  0
   10.8848   14.6911   38.5620 H   0  0  0  0  0  0
   10.2367   13.3248   36.4806 H   0  0  0  0  0  0
   11.4642   11.0383   36.2233 H   0  0  0  0  0  0
   11.8642   10.6278   38.6499 H   0  0  0  0  0  0
   13.5105   13.2857   36.5875 H   0  0  0  0  0  0
   11.4442   14.2378   35.3836 H   0  0  0  0  0  0
   14.6393   12.3362   34.6934 H   0  0  0  0  0  0
   14.2740   10.9841   35.8182 H   0  0  0  0  0  0
   13.5765   10.3700   33.4192 H   0  0  0  0  0  0
  1  2  1  0  0  0
  1  3  2  0  0  0
  1  4  1  0  0  0
  4  5  1  0  0  0
  4 21  1  0  0  0
  4 22  1  0  0  0
  5  6  1  0  0  0
  5 23  1  0  0  0
  5 24  1  0  0  0
  6  7  1  0  0  0
  6 20  2  0  0  0
  7  8  1  0  0  0
  7 13  1  0  0  0
  7 25  1  0  0  0
  8  9  1  0  0  0
  8 26  1  0  0  0
  9 10  1  0  0  0
  9 11  2  0  0  0
 10 27  1  0  0  0
 10 28  1  0  0  0
 10 29  1  0  0  0
 12 13  1  0  0  0
 12 30  1  0  0  0
 13 14  1  0  0  0
 13 31  1  0  0  0
 14 15  1  0  0  0
 14 16  1  0  0  0
 14 32  1  0  0  0
 15 33  1  0  0  0
 16 17  1  0  0  0
 16 18  1  0  0  0
 16 34  1  0  0  0
 17 35  1  0  0  0
 18 19  1  0  0  0
 18 36  1  0  0  0
 18 37  1  0  0  0
 19 38  1  0  0  0
M  CHG  1   2  -1
M  END
> <s_m_source_file>
../1f7b_ligand.sdf

> <i_m_source_file_index>
1

> <s_epik_input>
W09IXUMoPU8pW0NIMl1bQ0gyXUMoPU8pW0NAQEhdKFtOSF1DKD1PKVtDSDNdKVtDQEBIXShbT0hdKVtDQEhdKFtPSF0pW0NASF0oW09IXSlbQ0gyXVtPSF0=

> <s_epik_cmdline>
J2VwaWtfYXBwJywgJy1pbWFlJywgJ2xpZ2FuZF9wcm8ubWFlJywgJy1vbWFlJywgJ2xpZ2FuZF9wcmVwLm1hZScsICctbXMnLCAnMScsICctcGgnLCAnNycsICctcGh0JywgJzAuNScsICctbnQn

> <r_lp_tautomer_probability>
1

> <r_epik_Ionization_Penalty>
  0.0015

> <r_epik_Ionization_Penalty_Charging>
  0.0015

> <r_epik_Ionization_Penalty_Neutral>
  0.0000

> <r_epik_State_Penalty>
 -0.0000

> <r_epik_Charging_Adjusted_Penalty>
0.00148099961634119

> <i_epik_Tot_Q>
-1

> <i_epik_Tot_abs_Q>
1

$$$$
