1f8a_ligand
                    3D
 Schrodinger Suite 2020-3.
105107  0  0  1  0            999 V2000
    8.6410   14.8880   54.2820 N   0  3  0  0  0  0
    7.3030   14.8400   53.6190 C   0  0  2  0  0  0
    6.1940   14.9200   54.6420 C   0  0  0  0  0  0
    5.9700   13.9610   55.3560 O   0  0  0  0  0  0
    7.1180   13.5300   52.8140 C   0  0  0  0  0  0
    5.7030   13.3510   52.2480 C   0  0  0  0  0  0
    4.9520   12.2030   52.5210 C   0  0  0  0  0  0
    5.1140   14.3390   51.4510 C   0  0  0  0  0  0
    3.6450   12.0440   52.0170 C   0  0  0  0  0  0
    3.8070   14.1890   50.9430 C   0  0  0  0  0  0
    3.0810   13.0430   51.2310 C   0  0  0  0  0  0
    1.7930   12.9040   50.7540 O   0  0  0  0  0  0
    5.8930   16.1380   54.2700 N   0  0  0  0  0  0
    4.9110   16.1550   55.3420 C   0  0  1  0  0  0
    4.9760   17.4000   56.2480 C   0  0  0  0  0  0
    5.4180   17.0880   57.6030 O   0  0  0  0  0  0
    3.5480   15.9670   54.6670 C   0  0  0  0  0  0
    3.0410   16.8600   53.9990 O   0  0  0  0  0  0
    4.4750   17.3490   58.9060 P   0  0  0  0  0  0
    5.3460   17.2610   60.1200 O   0  5  0  0  0  0
    4.0060   18.7610   58.9480 O   0  5  0  0  0  0
    3.2790   16.4930   58.7490 O   0  0  0  0  0  0
    2.7180   14.7840   54.9620 N   0  0  0  0  0  0
    1.4100   14.4320   54.3830 C   0  0  2  0  0  0
    0.2900   15.4670   54.3780 C   0  0  0  0  0  0
    0.2290   16.3730   55.2130 O   0  0  0  0  0  0
    1.0200   13.1600   55.1480 C   0  0  0  0  0  0
    1.7520   13.2800   56.4460 C   0  0  0  0  0  0
    3.0940   13.8220   56.0100 C   0  0  0  0  0  0
   -0.6100   15.3120   53.4170 N   0  0  0  0  0  0
   -1.7440   16.2070   53.2870 C   0  0  2  0  0  0
   -2.9650   15.4720   53.8240 C   0  0  0  0  0  0
   -3.0480   14.2460   53.7400 O   0  0  0  0  0  0
   -1.9800   16.5790   51.8170 C   0  0  2  0  0  0
   -0.7220   16.6010   51.1310 O   0  0  0  0  0  0
   -2.6010   17.9600   51.7130 C   0  0  0  0  0  0
   -3.9010   16.2190   54.3940 N   0  0  0  0  0  0
   -5.1070   15.6130   54.9280 C   0  0  1  0  0  0
   -5.9820   16.6610   55.6130 C   0  0  0  0  0  0
   -5.2850   17.2780   56.6770 O   0  0  0  0  0  0
   -5.8590   14.9470   53.7880 C   0  0  0  0  0  0
   -5.8030   15.4050   52.6480 O   0  0  0  0  0  0
   -5.0170   18.8480   56.6710 P   0  0  0  0  0  0
   -3.9390   19.0530   57.6570 O   0  0  0  0  0  0
   -4.4100   19.2630   55.3770 O   0  5  0  0  0  0
   -6.3310   19.5260   56.7830 O   0  5  0  0  0  0
   -6.5710   13.8500   54.0790 N   0  0  0  0  0  0
   -7.3330   13.1220   53.0580 C   0  0  2  0  0  0
   -8.2890   13.9690   52.2170 C   0  0  0  0  0  0
   -8.5020   13.6780   51.0390 O   0  0  0  0  0  0
   -8.0430   12.0290   53.8620 C   0  0  0  0  0  0
   -8.0700   12.5660   55.2570 C   0  0  0  0  0  0
   -6.7440   13.2340   55.4050 C   0  0  0  0  0  0
   -8.8630   15.0110   52.8120 N   0  0  0  0  0  0
   -9.7770   15.8870   52.0810 C   0  0  2  0  0  0
   -9.7910   17.2730   52.7090 C   0  0  0  0  0  0
   -9.1050   17.4520   53.7380 O   0  5  0  0  0  0
  -11.1990   15.3100   52.0730 C   0  0  0  0  0  0
  -11.8200   15.4340   53.3400 O   0  0  0  0  0  0
  -10.4850   18.1590   52.1670 O   0  0  0  0  0  0
    8.7385   15.8289   54.8434 H   0  0  0  0  0  0
    9.4308   14.8331   53.5183 H   0  0  0  0  0  0
    8.7388   14.0373   54.9724 H   0  0  0  0  0  0
    7.2702   15.7216   52.9619 H   0  0  0  0  0  0
    7.8154   13.5208   51.9634 H   0  0  0  0  0  0
    7.3226   12.6674   53.4652 H   0  0  0  0  0  0
    5.3863   11.4149   53.1362 H   0  0  0  0  0  0
    5.6769   15.2429   51.2181 H   0  0  0  0  0  0
    3.0782   11.1407   52.2427 H   0  0  0  0  0  0
    3.3682   14.9724   50.3251 H   0  0  0  0  0  0
    1.2170   11.9951   50.9823 H   0  0  0  0  0  0
    6.0172   17.0195   53.6239 H   0  0  0  0  0  0
    5.1639   15.3226   56.0151 H   0  0  0  0  0  0
    5.6832   18.1269   55.8220 H   0  0  0  0  0  0
    3.9775   17.8565   56.3161 H   0  0  0  0  0  0
    1.5735   14.3389   53.2992 H   0  0  0  0  0  0
   -0.0708   13.1362   55.2879 H   0  0  0  0  0  0
    1.3354   12.2759   54.5745 H   0  0  0  0  0  0
    1.2082   13.9666   57.1115 H   0  0  0  0  0  0
    1.8232   12.2898   56.9198 H   0  0  0  0  0  0
    3.7492   13.0497   55.5808 H   0  0  0  0  0  0
    3.6264   14.3477   56.8164 H   0  0  0  0  0  0
   -0.4814   14.4807   52.7082 H   0  0  0  0  0  0
   -1.5113   17.1132   53.8655 H   0  0  0  0  0  0
   -2.6149   15.8292   51.3224 H   0  0  0  0  0  0
   -0.1039   15.6922   51.0864 H   0  0  0  0  0  0
   -3.5698   17.9665   52.2339 H   0  0  0  0  0  0
   -2.7524   18.2151   50.6538 H   0  0  0  0  0  0
   -1.9308   18.6992   52.1760 H   0  0  0  0  0  0
   -3.7568   17.3075   54.4600 H   0  0  0  0  0  0
   -4.7898   14.8686   55.6732 H   0  0  0  0  0  0
   -6.2701   17.4319   54.8831 H   0  0  0  0  0  0
   -6.8861   16.1790   56.0133 H   0  0  0  0  0  0
   -6.6330   12.7487   52.2960 H   0  0  0  0  0  0
   -9.0543   11.8748   53.4576 H   0  0  0  0  0  0
   -7.4723   11.0914   53.7898 H   0  0  0  0  0  0
   -8.9066   13.2725   55.3618 H   0  0  0  0  0  0
   -8.2000   11.7359   55.9670 H   0  0  0  0  0  0
   -5.9213   12.5281   55.5915 H   0  0  0  0  0  0
   -6.7369   14.0175   56.1771 H   0  0  0  0  0  0
   -8.6405   15.2089   53.8709 H   0  0  0  0  0  0
   -9.3810   15.9378   51.0560 H   0  0  0  0  0  0
  -11.8092   15.8490   51.3334 H   0  0  0  0  0  0
  -11.1603   14.2429   51.8087 H   0  0  0  0  0  0
  -12.8451   15.0638   53.4887 H   0  0  0  0  0  0
  1  2  1  0  0  0
  1 61  1  0  0  0
  1 62  1  0  0  0
  1 63  1  0  0  0
  2  3  1  0  0  0
  2  5  1  0  0  0
  2 64  1  0  0  0
  3  4  2  0  0  0
  3 13  1  0  0  0
  5  6  1  0  0  0
  5 65  1  0  0  0
  5 66  1  0  0  0
  6  8  2  0  0  0
  6  7  1  0  0  0
  7  9  2  0  0  0
  7 67  1  0  0  0
  8 10  1  0  0  0
  8 68  1  0  0  0
  9 11  1  0  0  0
  9 69  1  0  0  0
 10 11  2  0  0  0
 10 70  1  0  0  0
 11 12  1  0  0  0
 12 71  1  0  0  0
 13 14  1  0  0  0
 13 72  1  0  0  0
 14 17  1  0  0  0
 14 15  1  0  0  0
 14 73  1  0  0  0
 15 16  1  0  0  0
 15 74  1  0  0  0
 15 75  1  0  0  0
 16 19  1  0  0  0
 17 18  2  0  0  0
 17 23  1  0  0  0
 19 22  2  0  0  0
 19 21  1  0  0  0
 19 20  1  0  0  0
 23 24  1  0  0  0
 23 29  1  0  0  0
 24 27  1  0  0  0
 24 25  1  0  0  0
 24 76  1  0  0  0
 25 26  2  0  0  0
 25 30  1  0  0  0
 27 28  1  0  0  0
 27 77  1  0  0  0
 27 78  1  0  0  0
 28 29  1  0  0  0
 28 79  1  0  0  0
 28 80  1  0  0  0
 29 81  1  0  0  0
 29 82  1  0  0  0
 30 31  1  0  0  0
 30 83  1  0  0  0
 31 32  1  0  0  0
 31 34  1  0  0  0
 31 84  1  0  0  0
 32 33  2  0  0  0
 32 37  1  0  0  0
 34 35  1  0  0  0
 34 36  1  0  0  0
 34 85  1  0  0  0
 35 86  1  0  0  0
 36 87  1  0  0  0
 36 88  1  0  0  0
 36 89  1  0  0  0
 37 38  1  0  0  0
 37 90  1  0  0  0
 38 41  1  0  0  0
 38 39  1  0  0  0
 38 91  1  0  0  0
 39 40  1  0  0  0
 39 92  1  0  0  0
 39 93  1  0  0  0
 40 43  1  0  0  0
 41 42  2  0  0  0
 41 47  1  0  0  0
 43 46  1  0  0  0
 43 45  1  0  0  0
 43 44  2  0  0  0
 47 48  1  0  0  0
 47 53  1  0  0  0
 48 51  1  0  0  0
 48 49  1  0  0  0
 48 94  1  0  0  0
 49 50  2  0  0  0
 49 54  1  0  0  0
 51 52  1  0  0  0
 51 95  1  0  0  0
 51 96  1  0  0  0
 52 53  1  0  0  0
 52 97  1  0  0  0
 52 98  1  0  0  0
 53 99  1  0  0  0
 53100  1  0  0  0
 54 55  1  0  0  0
 54101  1  0  0  0
 55 56  1  0  0  0
 55 58  1  0  0  0
 55102  1  0  0  0
 56 60  2  0  0  0
 56 57  1  0  0  0
 58 59  1  0  0  0
 58103  1  0  0  0
 58104  1  0  0  0
 59105  1  0  0  0
M  CHG  6   1   1  20  -1  21  -1  45  -1  46  -1  57  -1
M  END
> <s_m_source_file>
../1f8a_ligand.sdf

> <i_m_source_file_index>
1

> <s_epik_input>
W2NIXTFbY0hdYyhbT0hdKVtjSF1bY0hdYzFbQ0gyXVtDQEhdKFtOSDMrXSlDKD1PKVtOSF1bQ0BASF0oW0NIMl1PUCg9TykoW09IXSlbT0hdKUMoPU8pTjJbQ0BASF0oW0NIMl1bQ0gyXVtDSDJdMilDKD1PKVtOSF1bQ0BASF0oW0NASF0oW09IXSlbQ0gzXSlDKD1PKVtOSF1bQ0BASF0oW0NIMl1PUCg9TykoW09IXSlbT0hdKUMoPU8pTjNbQ0BASF0oW0NIMl1bQ0gyXVtDSDJdMylDKD1PKVtOSF1bQ0BIXShDKD1PKVtPSF0pW0NIMl1bT0hd

> <s_epik_cmdline>
J2VwaWtfYXBwJywgJy1pbWFlJywgJ2xpZ2FuZF9wcm8ubWFlJywgJy1vbWFlJywgJ2xpZ2FuZF9wcmVwLm1hZScsICctbXMnLCAnMScsICctcGgnLCAnNycsICctcGh0JywgJzAuNScsICctbnQn

> <r_lp_tautomer_probability>
0.999999999997365

> <r_epik_Ionization_Penalty>
  0.3883

> <r_epik_Ionization_Penalty_Charging>
  0.3855

> <r_epik_Ionization_Penalty_Neutral>
  0.0027

> <r_epik_State_Penalty>
  0.2703

> <r_epik_Charging_Adjusted_Penalty>
0.655844983466323

> <i_epik_Tot_Q>
-4

> <i_epik_Tot_abs_Q>
6

$$$$
