1f8e_ligand
                    3D
 Schrodinger Suite 2020-3.
 40 40  0  0  1  0            999 V2000
   23.5370   19.8410   64.7380 C   0  0  0  0  0  0
   24.1250   18.7730   64.0580 C   0  0  0  0  0  0
   23.4520   17.6490   63.6220 C   0  0  0  0  0  0
   24.1130   16.6520   62.6490 C   0  0  1  0  0  0
   25.6290   16.6840   62.7420 C   0  0  2  0  0  0
   26.0790   18.1690   62.6850 C   0  0  2  0  0  0
   27.6420   18.3860   62.8000 C   0  0  1  0  0  0
   27.9270   19.8710   62.5510 C   0  0  1  0  0  0
   29.3330   20.2820   62.9920 C   0  0  0  0  0  0
   26.9630   14.8260   61.8030 C   0  0  0  0  0  0
   27.5060   14.1840   60.5530 C   0  0  0  0  0  0
   26.2370   15.9270   61.6270 N   0  0  0  0  0  0
   24.2410   20.8580   64.9270 O   0  5  0  0  0  0
   22.3570   19.7650   65.1340 O   0  0  0  0  0  0
   23.6780   15.2990   63.0060 N   0  3  0  0  0  0
   25.4800   18.8980   63.7870 O   0  0  0  0  0  0
   28.1110   17.9780   64.1020 O   0  0  0  0  0  0
   27.7800   20.1390   61.1890 O   0  0  0  0  0  0
   30.3930   19.6150   62.1900 N   0  3  0  0  0  0
   27.1870   14.3390   62.9110 O   0  0  0  0  0  0
   22.4268   17.4527   63.9689 H   0  0  0  0  0  0
   23.8088   16.8867   61.6183 H   0  0  0  0  0  0
   25.9616   16.1786   63.6606 H   0  0  0  0  0  0
   25.6959   18.5708   61.7354 H   0  0  0  0  0  0
   28.2321   17.7587   62.1158 H   0  0  0  0  0  0
   27.1787   20.4902   63.0673 H   0  0  0  0  0  0
   29.4507   21.3694   62.8752 H   0  0  0  0  0  0
   29.4810   20.0084   64.0471 H   0  0  0  0  0  0
   27.1951   14.7696   59.6753 H   0  0  0  0  0  0
   27.1149   13.1594   60.4675 H   0  0  0  0  0  0
   28.6044   14.1542   60.6036 H   0  0  0  0  0  0
   26.0985   16.2682   60.5905 H   0  0  0  0  0  0
   22.5811   15.2396   62.9491 H   0  0  0  0  0  0
   24.0051   15.0670   64.0303 H   0  0  0  0  0  0
   24.1213   14.5749   62.3066 H   0  0  0  0  0  0
   27.9803   16.9369   64.4323 H   0  0  0  0  0  0
   26.8304   19.9106   60.6829 H   0  0  0  0  0  0
   31.3815   19.9422   62.5445 H   0  0  0  0  0  0
   30.2756   19.8852   61.1302 H   0  0  0  0  0  0
   30.3059   18.5242   62.3021 H   0  0  0  0  0  0
  1 14  2  0  0  0
  1 13  1  0  0  0
  1  2  1  0  0  0
  2 16  1  0  0  0
  2  3  2  0  0  0
  3  4  1  0  0  0
  3 21  1  0  0  0
  4 15  1  0  0  0
  4  5  1  0  0  0
  4 22  1  0  0  0
  5 12  1  0  0  0
  5  6  1  0  0  0
  5 23  1  0  0  0
  6 16  1  0  0  0
  6  7  1  0  0  0
  6 24  1  0  0  0
  7 17  1  0  0  0
  7  8  1  0  0  0
  7 25  1  0  0  0
  8 18  1  0  0  0
  8  9  1  0  0  0
  8 26  1  0  0  0
  9 19  1  0  0  0
  9 27  1  0  0  0
  9 28  1  0  0  0
 10 12  1  0  0  0
 10 20  2  0  0  0
 10 11  1  0  0  0
 11 29  1  0  0  0
 11 30  1  0  0  0
 11 31  1  0  0  0
 12 32  1  0  0  0
 15 33  1  0  0  0
 15 34  1  0  0  0
 15 35  1  0  0  0
 17 36  1  0  0  0
 18 37  1  0  0  0
 19 38  1  0  0  0
 19 39  1  0  0  0
 19 40  1  0  0  0
M  CHG  3  13  -1  15   1  19   1
M  END
> <s_m_source_file>
../1f8e_ligand.sdf

> <i_m_source_file_index>
1

> <s_epik_input>
W09IXUMoPU8pQzE9W0NIXVtDQEhdKFtOSDMrXSlbQ0BASF0oW05IXUMoPU8pW0NIM10pW0NAQEhdKE8xKVtDQEhdKFtPSF0pW0NASF0oW09IXSlbQ0gyXVtOSDMrXQ==

> <s_epik_cmdline>
J2VwaWtfYXBwJywgJy1pbWFlJywgJ2xpZ2FuZF9wcm8ubWFlJywgJy1vbWFlJywgJ2xpZ2FuZF9wcmVwLm1hZScsICctbXMnLCAnMScsICctcGgnLCAnNycsICctcGh0JywgJzAuNScsICctbnQn

> <r_lp_tautomer_probability>
1

> <r_epik_Ionization_Penalty>
  0.1391

> <r_epik_Ionization_Penalty_Charging>
  0.1391

> <r_epik_Ionization_Penalty_Neutral>
  0.0000

> <r_epik_State_Penalty>
 -0.0000

> <r_epik_Charging_Adjusted_Penalty>
0.139050676911852

> <i_epik_Tot_Q>
1

> <i_epik_Tot_abs_Q>
3

$$$$
