1f90_ligand
                    3D
 Schrodinger Suite 2020-3.
159159  0  0  1  0            999 V2000
   59.1680   59.6480  -25.6250 N   0  3  0  0  0  0
   59.8460   58.8870  -24.5230 C   0  0  2  0  0  0
   60.0390   57.3980  -24.8540 C   0  0  0  0  0  0
   59.0900   56.7050  -25.2310 O   0  0  0  0  0  0
   59.0430   59.0330  -23.2280 C   0  0  0  0  0  0
   59.8180   58.7110  -21.9550 C   0  0  0  0  0  0
   59.2340   59.4630  -20.7580 C   0  0  0  0  0  0
   60.0240   59.1950  -19.4840 C   0  0  0  0  0  0
   59.6730   60.1220  -18.3630 N   0  3  0  0  0  0
   61.2760   56.8860  -24.7020 N   0  0  0  0  0  0
   61.6340   55.4890  -24.9770 C   0  0  2  0  0  0
   60.6190   54.4560  -24.4940 C   0  0  0  0  0  0
   59.9080   54.6790  -23.5230 O   0  0  0  0  0  0
   62.9840   55.3410  -24.2820 C   0  0  0  0  0  0
   63.5810   56.6790  -24.4690 C   0  0  0  0  0  0
   62.4330   57.6140  -24.1550 C   0  0  0  0  0  0
   60.5670   53.3190  -25.1820 N   0  0  0  0  0  0
   59.6480   52.2410  -24.8350 C   0  0  2  0  0  0
   59.9630   51.6420  -23.4740 C   0  0  0  0  0  0
   59.0540   51.3230  -22.7110 O   0  0  0  0  0  0
   59.6840   51.1510  -25.9100 C   0  0  0  0  0  0
   58.9640   51.5240  -27.2040 C   0  0  0  0  0  0
   59.1380   50.4450  -28.2520 C   0  0  0  0  0  0
   57.4960   51.7320  -26.8860 C   0  0  0  0  0  0
   61.2460   51.4900  -23.1690 N   0  0  0  0  0  0
   61.6530   50.9380  -21.8820 C   0  0  2  0  0  0
   60.9620   51.6400  -20.7070 C   0  0  0  0  0  0
   60.6510   51.0150  -19.6940 O   0  0  0  0  0  0
   63.1590   51.0350  -21.7220 C   0  0  0  0  0  0
   63.6050   50.7400  -20.3300 C   0  0  0  0  0  0
   64.8700   49.9340  -20.2910 C   0  0  0  0  0  0
   65.8630   50.3580  -20.9150 O   0  0  0  0  0  0
   64.8650   48.8740  -19.6320 O   0  0  0  0  0  0
   60.7240   52.9410  -20.8420 N   0  0  0  0  0  0
   60.0420   53.6860  -19.7940 C   0  0  2  0  0  0
   58.5450   53.5690  -19.9890 C   0  0  0  0  0  0
   57.8240   53.1850  -19.0720 O   0  0  0  0  0  0
   60.4420   55.1570  -19.8150 C   0  0  0  0  0  0
   61.8170   55.4120  -19.2470 C   0  0  0  0  0  0
   62.1320   56.8800  -19.1580 C   0  0  0  0  0  0
   62.1050   57.5570  -20.2050 O   0  0  0  0  0  0
   62.4080   57.3590  -18.0410 O   0  0  0  0  0  0
   58.0840   53.8940  -21.1910 N   0  0  0  0  0  0
   56.6650   53.8200  -21.5140 C   0  0  2  0  0  0
   56.0520   52.5040  -21.0630 C   0  0  0  0  0  0
   54.9830   52.4910  -20.4620 O   0  0  0  0  0  0
   56.4250   53.9640  -23.0340 C   0  0  0  0  0  0
   54.9580   53.7590  -23.3500 C   0  0  0  0  0  0
   56.8720   55.3350  -23.5040 C   0  0  0  0  0  0
   56.7360   51.3990  -21.3370 N   0  0  0  0  0  0
   56.2230   50.0790  -20.9810 C   0  0  2  0  0  0
   56.3120   49.7130  -19.5020 C   0  0  0  0  0  0
   55.7260   48.7200  -19.0660 O   0  0  0  0  0  0
   56.9210   49.0050  -21.8240 C   0  0  0  0  0  0
   56.6300   49.0220  -23.3350 C   0  0  0  0  0  0
   57.5280   48.0090  -24.0200 C   0  0  0  0  0  0
   55.1550   48.7200  -23.6130 C   0  0  0  0  0  0
   57.0350   50.5150  -18.7290 N   0  0  0  0  0  0
   57.1870   50.2530  -17.3010 C   0  0  2  0  0  0
   56.8250   51.4740  -16.4600 C   0  0  0  0  0  0
   57.5840   51.8880  -15.5820 O   0  0  0  0  0  0
   58.6250   49.8220  -17.0020 C   0  0  0  0  0  0
   58.9990   48.5240  -17.6910 C   0  0  0  0  0  0
   58.3800   47.4820  -17.4610 O   0  0  0  0  0  0
   60.0170   48.5800  -18.5420 N   0  0  0  0  0  0
   55.6520   52.0380  -16.7300 N   0  0  0  0  0  0
   55.1850   53.2220  -16.0170 C   0  0  2  0  0  0
   53.6590   53.2830  -16.0350 C   0  0  0  0  0  0
   53.1060   54.2950  -16.5240 O   0  0  0  0  0  0
   55.7690   54.4780  -16.6730 C   0  0  0  0  0  0
   55.5420   55.8460  -16.0280 C   0  0  0  0  0  0
   56.1580   55.8750  -14.6340 C   0  0  0  0  0  0
   56.1600   56.9220  -16.9150 C   0  0  0  0  0  0
   53.0360   52.3100  -15.5570 O   0  0  0  0  0  0
   59.7470   59.5414  -26.5542 H   0  0  0  0  0  0
   59.1058   60.7117  -25.3516 H   0  0  0  0  0  0
   58.1544   59.2485  -25.7767 H   0  0  0  0  0  0
   60.8437   59.3378  -24.4161 H   0  0  0  0  0  0
   58.6901   60.0703  -23.1304 H   0  0  0  0  0  0
   58.1790   58.3527  -23.2536 H   0  0  0  0  0  0
   59.7632   57.6306  -21.7558 H   0  0  0  0  0  0
   60.8697   59.0077  -22.0810 H   0  0  0  0  0  0
   59.2564   60.5444  -20.9580 H   0  0  0  0  0  0
   58.1947   59.1418  -20.5947 H   0  0  0  0  0  0
   59.8268   58.1692  -19.1393 H   0  0  0  0  0  0
   61.0986   59.3133  -19.6871 H   0  0  0  0  0  0
   60.2778   59.8733  -17.4785 H   0  0  0  0  0  0
   58.6057   60.0150  -18.1193 H   0  0  0  0  0  0
   59.8775   61.1591  -18.6672 H   0  0  0  0  0  0
   61.6512   55.3273  -26.0649 H   0  0  0  0  0  0
   62.8256   55.0860  -23.2237 H   0  0  0  0  0  0
   63.5616   54.5416  -24.7692 H   0  0  0  0  0  0
   64.4273   56.8028  -23.7773 H   0  0  0  0  0  0
   63.9364   56.7804  -25.5050 H   0  0  0  0  0  0
   62.5243   58.5882  -24.6577 H   0  0  0  0  0  0
   62.2909   57.7703  -23.0755 H   0  0  0  0  0  0
   61.2481   53.2068  -26.0384 H   0  0  0  0  0  0
   58.6577   52.7174  -24.7874 H   0  0  0  0  0  0
   60.7289   50.9308  -26.1740 H   0  0  0  0  0  0
   59.2034   50.2397  -25.5245 H   0  0  0  0  0  0
   59.3902   52.4476  -27.6227 H   0  0  0  0  0  0
   60.2086   50.3115  -28.4665 H   0  0  0  0  0  0
   58.6136   50.7402  -29.1728 H   0  0  0  0  0  0
   58.7182   49.4995  -27.8780 H   0  0  0  0  0  0
   57.3938   52.5187  -26.1239 H   0  0  0  0  0  0
   57.0670   50.7938  -26.5043 H   0  0  0  0  0  0
   56.9623   52.0345  -27.7991 H   0  0  0  0  0  0
   62.0071   51.7880  -23.9051 H   0  0  0  0  0  0
   61.3352   49.8856  -21.9194 H   0  0  0  0  0  0
   63.6463   50.3133  -22.3941 H   0  0  0  0  0  0
   63.4898   52.0531  -21.9752 H   0  0  0  0  0  0
   63.7882   51.6840  -19.7959 H   0  0  0  0  0  0
   62.8232   50.1690  -19.8077 H   0  0  0  0  0  0
   65.7728   48.2551  -19.5789 H   0  0  0  0  0  0
   61.0491   53.4541  -21.7591 H   0  0  0  0  0  0
   60.3540   53.2282  -18.8437 H   0  0  0  0  0  0
   60.4399   55.5227  -20.8524 H   0  0  0  0  0  0
   59.7248   55.7406  -19.2191 H   0  0  0  0  0  0
   61.8799   54.9872  -18.2343 H   0  0  0  0  0  0
   62.5732   54.9389  -19.8907 H   0  0  0  0  0  0
   62.3311   58.6330  -20.1702 H   0  0  0  0  0  0
   58.8048   54.2261  -21.9526 H   0  0  0  0  0  0
   56.2336   54.6570  -20.9454 H   0  0  0  0  0  0
   57.0046   53.2046  -23.5794 H   0  0  0  0  0  0
   54.6444   52.7626  -23.0053 H   0  0  0  0  0  0
   54.8025   53.8370  -24.4362 H   0  0  0  0  0  0
   54.3616   54.5286  -22.8380 H   0  0  0  0  0  0
   57.9378   55.4734  -23.2698 H   0  0  0  0  0  0
   56.2807   56.1088  -22.9924 H   0  0  0  0  0  0
   56.7216   55.4171  -24.5906 H   0  0  0  0  0  0
   57.7082   51.4931  -21.8430 H   0  0  0  0  0  0
   55.1520   50.1779  -21.2117 H   0  0  0  0  0  0
   58.0113   49.1137  -21.7266 H   0  0  0  0  0  0
   56.6189   48.0080  -21.4709 H   0  0  0  0  0  0
   56.8442   50.0198  -23.7455 H   0  0  0  0  0  0
   58.5802   48.2474  -23.8053 H   0  0  0  0  0  0
   57.3584   48.0441  -25.1063 H   0  0  0  0  0  0
   57.2965   47.0011  -23.6451 H   0  0  0  0  0  0
   54.5260   49.4669  -23.1065 H   0  0  0  0  0  0
   54.9087   47.7166  -23.2355 H   0  0  0  0  0  0
   54.9706   48.7595  -24.6967 H   0  0  0  0  0  0
   57.5239   51.3896  -19.1828 H   0  0  0  0  0  0
   56.4760   49.4435  -17.0794 H   0  0  0  0  0  0
   59.3206   50.6008  -17.3477 H   0  0  0  0  0  0
   58.7465   49.6767  -15.9184 H   0  0  0  0  0  0
   60.5382   49.5333  -18.7140 H   0  0  0  0  0  0
   60.3390   47.6731  -19.0748 H   0  0  0  0  0  0
   55.0279   51.5873  -17.5157 H   0  0  0  0  0  0
   55.5399   53.1226  -14.9806 H   0  0  0  0  0  0
   52.0084   54.3639  -16.5491 H   0  0  0  0  0  0
   56.8637   54.3865  -16.7302 H   0  0  0  0  0  0
   55.3568   54.5876  -17.6869 H   0  0  0  0  0  0
   54.4640   56.0400  -15.9262 H   0  0  0  0  0  0
   55.6978   55.0920  -14.0134 H   0  0  0  0  0  0
   55.9800   56.8586  -14.1749 H   0  0  0  0  0  0
   57.2407   55.6953  -14.7078 H   0  0  0  0  0  0
   55.7009   56.8820  -17.9138 H   0  0  0  0  0  0
   57.2427   56.7483  -17.0019 H   0  0  0  0  0  0
   55.9820   57.9116  -16.4690 H   0  0  0  0  0  0
  1  2  1  0  0  0
  1 75  1  0  0  0
  1 76  1  0  0  0
  1 77  1  0  0  0
  2  3  1  0  0  0
  2  5  1  0  0  0
  2 78  1  0  0  0
  3  4  2  0  0  0
  3 10  1  0  0  0
  5  6  1  0  0  0
  5 79  1  0  0  0
  5 80  1  0  0  0
  6  7  1  0  0  0
  6 81  1  0  0  0
  6 82  1  0  0  0
  7  8  1  0  0  0
  7 83  1  0  0  0
  7 84  1  0  0  0
  8  9  1  0  0  0
  8 85  1  0  0  0
  8 86  1  0  0  0
  9 87  1  0  0  0
  9 88  1  0  0  0
  9 89  1  0  0  0
 10 11  1  0  0  0
 10 16  1  0  0  0
 11 12  1  0  0  0
 11 14  1  0  0  0
 11 90  1  0  0  0
 12 13  2  0  0  0
 12 17  1  0  0  0
 14 15  1  0  0  0
 14 91  1  0  0  0
 14 92  1  0  0  0
 15 16  1  0  0  0
 15 93  1  0  0  0
 15 94  1  0  0  0
 16 95  1  0  0  0
 16 96  1  0  0  0
 17 18  1  0  0  0
 17 97  1  0  0  0
 18 19  1  0  0  0
 18 21  1  0  0  0
 18 98  1  0  0  0
 19 20  2  0  0  0
 19 25  1  0  0  0
 21 22  1  0  0  0
 21 99  1  0  0  0
 21100  1  0  0  0
 22 23  1  0  0  0
 22 24  1  0  0  0
 22101  1  0  0  0
 23102  1  0  0  0
 23103  1  0  0  0
 23104  1  0  0  0
 24105  1  0  0  0
 24106  1  0  0  0
 24107  1  0  0  0
 25 26  1  0  0  0
 25108  1  0  0  0
 26 27  1  0  0  0
 26 29  1  0  0  0
 26109  1  0  0  0
 27 28  2  0  0  0
 27 34  1  0  0  0
 29 30  1  0  0  0
 29110  1  0  0  0
 29111  1  0  0  0
 30 31  1  0  0  0
 30112  1  0  0  0
 30113  1  0  0  0
 31 32  2  0  0  0
 31 33  1  0  0  0
 33114  1  0  0  0
 34 35  1  0  0  0
 34115  1  0  0  0
 35 36  1  0  0  0
 35 38  1  0  0  0
 35116  1  0  0  0
 36 37  2  0  0  0
 36 43  1  0  0  0
 38 39  1  0  0  0
 38117  1  0  0  0
 38118  1  0  0  0
 39 40  1  0  0  0
 39119  1  0  0  0
 39120  1  0  0  0
 40 41  1  0  0  0
 40 42  2  0  0  0
 41121  1  0  0  0
 43 44  1  0  0  0
 43122  1  0  0  0
 44 45  1  0  0  0
 44 47  1  0  0  0
 44123  1  0  0  0
 45 46  2  0  0  0
 45 50  1  0  0  0
 47 48  1  0  0  0
 47 49  1  0  0  0
 47124  1  0  0  0
 48125  1  0  0  0
 48126  1  0  0  0
 48127  1  0  0  0
 49128  1  0  0  0
 49129  1  0  0  0
 49130  1  0  0  0
 50 51  1  0  0  0
 50131  1  0  0  0
 51 52  1  0  0  0
 51 54  1  0  0  0
 51132  1  0  0  0
 52 53  2  0  0  0
 52 58  1  0  0  0
 54 55  1  0  0  0
 54133  1  0  0  0
 54134  1  0  0  0
 55 56  1  0  0  0
 55 57  1  0  0  0
 55135  1  0  0  0
 56136  1  0  0  0
 56137  1  0  0  0
 56138  1  0  0  0
 57139  1  0  0  0
 57140  1  0  0  0
 57141  1  0  0  0
 58 59  1  0  0  0
 58142  1  0  0  0
 59 60  1  0  0  0
 59 62  1  0  0  0
 59143  1  0  0  0
 60 61  2  0  0  0
 60 66  1  0  0  0
 62 63  1  0  0  0
 62144  1  0  0  0
 62145  1  0  0  0
 63 64  2  0  0  0
 63 65  1  0  0  0
 65146  1  0  0  0
 65147  1  0  0  0
 66 67  1  0  0  0
 66148  1  0  0  0
 67 68  1  0  0  0
 67 70  1  0  0  0
 67149  1  0  0  0
 68 69  1  0  0  0
 68 74  2  0  0  0
 69150  1  0  0  0
 70 71  1  0  0  0
 70151  1  0  0  0
 70152  1  0  0  0
 71 72  1  0  0  0
 71 73  1  0  0  0
 71153  1  0  0  0
 72154  1  0  0  0
 72155  1  0  0  0
 72156  1  0  0  0
 73157  1  0  0  0
 73158  1  0  0  0
 73159  1  0  0  0
M  CHG  2   1   1   9   1
M  END
> <s_m_source_file>
../1f90_ligand.sdf

> <i_m_source_file_index>
1

> <s_epik_input>
W05IMytdW0NIMl1bQ0gyXVtDSDJdW0NIMl1bQ0BIXShbTkgzK10pQyg9TylOMVtDQEBIXShbQ0gyXVtDSDJdW0NIMl0xKUMoPU8pW05IXVtDQEBIXShbQ0gyXVtDSF0oW0NIM10pW0NIM10pQyg9TylbTkhdW0NAQEhdKFtDSDJdW0NIMl1DKD1PKVtPSF0pQyg9TylbTkhdW0NAQEhdKFtDSDJdW0NIMl1DKD1PKVtPSF0pQyg9TylbTkhdW0NAQEhdKFtDSF0oW0NIM10pW0NIM10pQyg9TylbTkhdW0NAQEhdKFtDSDJdW0NIXShbQ0gzXSlbQ0gzXSlDKD1PKVtOSF1bQ0BASF0oW0NIMl1DKD1PKVtOSDJdKUMoPU8pW05IXVtDQEhdKEMoPU8pW09IXSlbQ0gyXVtDSF0oW0NIM10pW0NIM10=

> <s_epik_cmdline>
J2VwaWtfYXBwJywgJy1pbWFlJywgJ2xpZ2FuZF9wcm8ubWFlJywgJy1vbWFlJywgJ2xpZ2FuZF9wcmVwLm1hZScsICctbXMnLCAnMScsICctcGgnLCAnNycsICctcGh0JywgJzAuNScsICctbnQn

> <s_epik_pKa_notes>
Molecule size exceeds maximum supported for generating protonation states

$$$$
