1f92_ligand
                    3D
 Schrodinger Suite 2020-3.
 93 95  0  0  1  0            999 V2000
   31.6590    9.9960   27.9900 N   0  0  3  0  0  0
   30.2070    9.9320   28.0070 C   0  0  1  0  0  0
   32.6280    4.2320   27.7640 C   0  0  0  0  0  0
   30.3990    9.0980   30.1770 O   0  0  0  0  0  0
   29.7540    8.7560   27.1090 C   0  0  0  0  0  0
   30.1480    7.0900   27.7780 C   0  0  0  0  0  0
   31.2820    6.3160   27.4730 C   0  0  0  0  0  0
   31.4950    5.0290   28.0620 C   0  0  0  0  0  0
   30.4890    4.5810   28.9770 C   0  0  0  0  0  0
   29.3580    5.3590   29.2780 C   0  0  0  0  0  0
   29.1970    6.5990   28.6780 C   0  0  0  0  0  0
   32.5900    2.9900   27.7940 N   0  3  0  0  0  0
   33.8070    4.6630   27.4200 N   0  0  0  0  0  0
   29.6840    9.7800   29.4370 C   0  0  0  0  0  0
   31.5900   12.6370   28.0800 C   0  0  0  0  0  0
   31.7500   12.8130   29.4820 C   0  0  0  0  0  0
   31.0930   13.8770   30.1310 C   0  0  0  0  0  0
   30.2750   14.7770   29.4330 C   0  0  0  0  0  0
   30.1240   14.5950   28.0480 C   0  0  0  0  0  0
   30.7610   13.5460   27.3510 C   0  0  0  0  0  0
   32.6300   11.8780   30.3600 C   0  0  0  0  0  0
   32.0080   11.3980   31.7110 C   0  0  0  0  0  0
   33.9700   12.5970   30.6480 C   0  0  0  0  0  0
   30.4990   13.4630   25.8130 C   0  0  0  0  0  0
   29.2990   14.3090   25.2880 C   0  0  0  0  0  0
   31.7960   13.8740   25.0610 C   0  0  0  0  0  0
   29.5630   15.9340   30.1640 C   0  0  0  0  0  0
   30.4990   16.5520   31.2360 C   0  0  0  0  0  0
   28.2440   15.4270   30.8150 C   0  0  0  0  0  0
   32.4540   11.2360   27.2800 S   0  0  0  0  0  0
   33.8460   11.1910   27.6990 O   0  0  0  0  0  0
   32.2220   11.1400   25.8530 O   0  0  0  0  0  0
   28.5060   10.3520   29.8970 N   0  0  0  0  0  0
   28.1020   10.1310   31.2920 C   0  0  0  0  0  0
   27.8850   11.5420   31.8800 C   0  0  0  0  0  0
   26.6970   12.1140   31.2380 N   0  0  0  0  0  0
   26.9930   12.1820   29.7220 C   0  0  0  0  0  0
   27.3050   10.9740   29.0810 C   0  0  0  0  0  0
   25.8310   12.9190   31.9340 C   0  0  0  0  0  0
   25.0310   13.6610   31.3740 O   0  0  0  0  0  0
   25.7870   12.9630   33.4550 C   0  0  0  0  0  0
   24.7450   13.9910   33.9940 C   0  0  0  0  0  0
   25.0050   14.3210   35.4170 N   0  3  0  0  0  0
   32.2477    9.2934   28.5981 H   0  0  0  0  0  0
   29.8448   10.8939   27.6151 H   0  0  0  0  0  0
   28.6630    8.7966   26.9743 H   0  0  0  0  0  0
   30.2475    8.8318   26.1288 H   0  0  0  0  0  0
   32.0177    6.7064   26.7698 H   0  0  0  0  0  0
   30.6037    3.6078   29.4542 H   0  0  0  0  0  0
   28.6105    4.9895   29.9800 H   0  0  0  0  0  0
   28.3173    7.1989   28.9111 H   0  0  0  0  0  0
   31.6578    2.4747   28.0687 H   0  0  0  0  0  0
   33.9982    5.7439   27.3486 H   0  0  0  0  0  0
   34.6122    3.9463   27.2006 H   0  0  0  0  0  0
   31.2242   14.0041   31.2056 H   0  0  0  0  0  0
   29.4927   15.2883   27.4923 H   0  0  0  0  0  0
   32.7565   10.9611   29.7656 H   0  0  0  0  0  0
   31.0547   10.8857   31.5142 H   0  0  0  0  0  0
   31.8299   12.2668   32.3618 H   0  0  0  0  0  0
   32.7017   10.7037   32.2078 H   0  0  0  0  0  0
   34.4141   12.9379   29.7011 H   0  0  0  0  0  0
   34.6600   11.9005   31.1468 H   0  0  0  0  0  0
   33.7882   13.4635   31.3008 H   0  0  0  0  0  0
   30.2192   12.4188   25.6096 H   0  0  0  0  0  0
   28.3827   14.0163   25.8216 H   0  0  0  0  0  0
   29.1685   14.1309   24.2104 H   0  0  0  0  0  0
   29.4993   15.3766   25.4616 H   0  0  0  0  0  0
   32.6408   13.2758   25.4332 H   0  0  0  0  0  0
   31.9978   14.9413   25.2345 H   0  0  0  0  0  0
   31.6671   13.6957   23.9832 H   0  0  0  0  0  0
   29.3183   16.7121   29.4260 H   0  0  0  0  0  0
   31.4242   16.9037   30.7561 H   0  0  0  0  0  0
   30.7442   15.7909   31.9914 H   0  0  0  0  0  0
   29.9922   17.3996   31.7206 H   0  0  0  0  0  0
   27.5955   14.9933   30.0395 H   0  0  0  0  0  0
   27.7260   16.2690   31.2975 H   0  0  0  0  0  0
   28.4780   14.6603   31.5683 H   0  0  0  0  0  0
   27.1767    9.5367   31.3160 H   0  0  0  0  0  0
   28.8990    9.5901   31.8233 H   0  0  0  0  0  0
   27.7340   11.4670   32.9670 H   0  0  0  0  0  0
   28.7683   12.1646   31.6747 H   0  0  0  0  0  0
   26.1134   12.5790   29.1941 H   0  0  0  0  0  0
   27.8551   12.8422   29.5460 H   0  0  0  0  0  0
   27.6178   11.1436   28.0401 H   0  0  0  0  0  0
   26.4514   10.2805   29.0989 H   0  0  0  0  0  0
   25.5146   11.9703   33.8428 H   0  0  0  0  0  0
   26.7760   13.2492   33.8423 H   0  0  0  0  0  0
   24.8033   14.9166   33.4025 H   0  0  0  0  0  0
   23.7338   13.5659   33.9111 H   0  0  0  0  0  0
   24.2560   15.0462   35.7680 H   0  0  0  0  0  0
   26.0106   14.7561   35.5147 H   0  0  0  0  0  0
   24.9411   13.4054   36.0233 H   0  0  0  0  0  0
   33.4886    2.4061   27.5459 H   0  0  0  0  0  0
  1  2  1  0  0  0
  1 30  1  0  0  0
  1 44  1  0  0  0
  2  5  1  0  0  0
  2 14  1  0  0  0
  2 45  1  0  0  0
  3  8  1  0  0  0
  3 12  2  0  0  0
  3 13  1  0  0  0
  4 14  2  0  0  0
  5  6  1  0  0  0
  5 46  1  0  0  0
  5 47  1  0  0  0
  6  7  2  0  0  0
  6 11  1  0  0  0
  7  8  1  0  0  0
  7 48  1  0  0  0
  8  9  2  0  0  0
  9 10  1  0  0  0
  9 49  1  0  0  0
 10 11  2  0  0  0
 10 50  1  0  0  0
 11 51  1  0  0  0
 12 52  1  0  0  0
 12 93  1  0  0  0
 13 53  1  0  0  0
 13 54  1  0  0  0
 14 33  1  0  0  0
 15 16  2  0  0  0
 15 20  1  0  0  0
 15 30  1  0  0  0
 16 17  1  0  0  0
 16 21  1  0  0  0
 17 18  2  0  0  0
 17 55  1  0  0  0
 18 19  1  0  0  0
 18 27  1  0  0  0
 19 20  2  0  0  0
 19 56  1  0  0  0
 20 24  1  0  0  0
 21 22  1  0  0  0
 21 23  1  0  0  0
 21 57  1  0  0  0
 22 58  1  0  0  0
 22 59  1  0  0  0
 22 60  1  0  0  0
 23 61  1  0  0  0
 23 62  1  0  0  0
 23 63  1  0  0  0
 24 25  1  0  0  0
 24 26  1  0  0  0
 24 64  1  0  0  0
 25 65  1  0  0  0
 25 66  1  0  0  0
 25 67  1  0  0  0
 26 68  1  0  0  0
 26 69  1  0  0  0
 26 70  1  0  0  0
 27 28  1  0  0  0
 27 29  1  0  0  0
 27 71  1  0  0  0
 28 72  1  0  0  0
 28 73  1  0  0  0
 28 74  1  0  0  0
 29 75  1  0  0  0
 29 76  1  0  0  0
 29 77  1  0  0  0
 30 31  2  0  0  0
 30 32  2  0  0  0
 33 34  1  0  0  0
 33 38  1  0  0  0
 34 35  1  0  0  0
 34 78  1  0  0  0
 34 79  1  0  0  0
 35 36  1  0  0  0
 35 80  1  0  0  0
 35 81  1  0  0  0
 36 37  1  0  0  0
 36 39  1  0  0  0
 37 38  1  0  0  0
 37 82  1  0  0  0
 37 83  1  0  0  0
 38 84  1  0  0  0
 38 85  1  0  0  0
 39 40  2  0  0  0
 39 41  1  0  0  0
 41 42  1  0  0  0
 41 86  1  0  0  0
 41 87  1  0  0  0
 42 43  1  0  0  0
 42 88  1  0  0  0
 42 89  1  0  0  0
 43 90  1  0  0  0
 43 91  1  0  0  0
 43 92  1  0  0  0
M  CHG  2  12   1  43   1
M  END
> <s_m_source_file>
../1f92_ligand.sdf

> <i_m_source_file_index>
1

> <s_epik_input>
W0NIM11bQ0hdKFtDSDNdKWMxW2NIXWMoW0NIXShbQ0gzXSlbQ0gzXSlbY0hdYyhbQ0hdKFtDSDNdKVtDSDNdKWMxUyg9TykoPU8pW05IXVtDQEBIXShbQ0gyXWMyW2NIXWMoL0MoPU5cW0hdKVtOSDJdKVtjSF1bY0hdW2NIXTIpQyg9TylOM1tDSDJdW0NIMl1OKFtDSDJdW0NIMl0zKUMoPU8pW0NIMl1bQ0gyXVtOSDMrXQ==

> <s_epik_cmdline>
J2VwaWtfYXBwJywgJy1pbWFlJywgJ2xpZ2FuZF9wcm8ubWFlJywgJy1vbWFlJywgJ2xpZ2FuZF9wcmVwLm1hZScsICctbXMnLCAnMScsICctcGgnLCAnNycsICctcGh0JywgJzAuNScsICctbnQn

> <r_lp_tautomer_probability>
1

> <r_epik_Ionization_Penalty>
  0.0019

> <r_epik_Ionization_Penalty_Charging>
  0.0017

> <r_epik_Ionization_Penalty_Neutral>
  0.0002

> <r_epik_State_Penalty>
 -0.0000

> <r_epik_Charging_Adjusted_Penalty>
0.00170423993128134

> <i_epik_Tot_Q>
2

> <i_epik_Tot_abs_Q>
2

> <s_epik_Chemistry_Notes>
This compound has an imine and may undergo hydrolysis.

$$$$
