1f9e_ligand
                    3D
 Schrodinger Suite 2020-3.
 73 73  0  0  1  0            999 V2000
   45.2780   75.0660    9.4630 C   0  0  0  0  0  0
   46.3970   74.5280    9.3240 O   0  0  0  0  0  0
   44.7620   76.0360    8.6140 O   0  0  0  0  0  0
   45.4340   76.5380    7.4500 C   0  0  0  0  0  0
   44.4790   77.5800    6.9710 C   0  0  0  0  0  0
   44.5120   78.9060    7.5470 C   0  0  0  0  0  0
   43.5720   79.9090    7.1030 C   0  0  0  0  0  0
   42.5870   79.6000    6.0820 C   0  0  0  0  0  0
   42.5410   78.2730    5.4980 C   0  0  0  0  0  0
   43.4870   77.2660    5.9480 C   0  0  0  0  0  0
   44.4920   74.8110   10.4260 N   0  0  0  0  0  0
   44.8320   73.9130   11.4860 C   0  0  2  0  0  0
   43.9490   72.6900   11.6070 C   0  0  0  0  0  0
   45.6290   75.8590   12.7570 O   0  0  0  0  0  0
   44.7850   74.9420   12.6710 C   0  0  0  0  0  0
   44.0910   71.6820   10.4620 C   0  0  0  0  0  0
   45.2380   71.0610   10.2850 O   0  5  0  0  0  0
   43.0770   71.4300    9.6890 O   0  0  0  0  0  0
   43.7260   74.8720   13.4620 N   0  0  0  0  0  0
   43.4300   75.8130   14.5910 C   0  0  2  0  0  0
   42.6690   75.0020   15.6720 C   0  0  0  0  0  0
   41.8180   74.1370   15.3600 O   0  0  0  0  0  0
   42.5470   77.0250   14.1490 C   0  0  0  0  0  0
   43.0260   77.8030   12.9000 C   0  0  0  0  0  0
   42.8010   79.3510   12.8770 C   0  0  0  0  0  0
   41.8220   79.9120   13.5300 O   0  0  0  0  0  0
   43.6120   80.1010   12.1720 O   0  5  0  0  0  0
   42.9860   75.2650   16.9380 N   0  0  0  0  0  0
   42.3380   74.5340   18.0610 C   0  0  2  0  0  0
   41.1480   75.2660   18.5190 C   0  0  0  0  0  0
   41.0660   76.4910   18.4360 O   0  0  0  0  0  0
   43.4220   74.2260   19.1040 C   0  0  0  0  0  0
   44.6010   73.4440   18.5220 C   0  0  0  0  0  0
   44.0310   75.4840   19.7280 C   0  0  0  0  0  0
   40.2530   74.4580   18.9150 N   0  0  0  0  0  0
   39.0570   74.9240   19.4850 C   0  0  2  0  0  0
   39.2290   74.7630   21.0110 C   0  0  0  0  0  0
   38.3910   75.3030   21.8490 O   0  0  0  0  0  0
   37.8750   74.0650   18.9970 C   0  0  0  0  0  0
   37.1120   74.6560   17.8010 C   0  0  0  0  0  0
   37.3210   75.8730   17.4340 O   0  0  0  0  0  0
   36.2550   73.9310   17.1590 O   0  5  0  0  0  0
   46.4124   76.9487    7.7400 H   0  0  0  0  0  0
   45.5789   75.7200    6.7289 H   0  0  0  0  0  0
   45.2457   79.1485    8.3157 H   0  0  0  0  0  0
   43.6025   80.9076    7.5388 H   0  0  0  0  0  0
   41.8826   80.3647    5.7546 H   0  0  0  0  0  0
   41.8051   78.0339    4.7303 H   0  0  0  0  0  0
   43.4553   76.2654    5.5168 H   0  0  0  0  0  0
   43.5136   75.3138   10.4236 H   0  0  0  0  0  0
   45.7806   73.3872   11.3023 H   0  0  0  0  0  0
   44.1921   72.1527   12.5355 H   0  0  0  0  0  0
   42.8939   73.0002   11.6284 H   0  0  0  0  0  0
   43.0353   74.0453   13.2396 H   0  0  0  0  0  0
   44.3975   76.2006   14.9427 H   0  0  0  0  0  0
   41.5316   76.6727   13.9148 H   0  0  0  0  0  0
   42.5005   77.7616   14.9646 H   0  0  0  0  0  0
   44.1106   77.6671   12.7770 H   0  0  0  0  0  0
   42.5054   77.4223   12.0089 H   0  0  0  0  0  0
   43.7408   76.0374   17.1473 H   0  0  0  0  0  0
   41.8900   73.5792   17.7485 H   0  0  0  0  0  0
   42.8892   73.6326   19.8616 H   0  0  0  0  0  0
   44.2323   72.5195   18.0536 H   0  0  0  0  0  0
   45.3064   73.1910   19.3272 H   0  0  0  0  0  0
   45.1120   74.0592   17.7667 H   0  0  0  0  0  0
   43.2321   76.0980   20.1692 H   0  0  0  0  0  0
   44.5521   76.0631   18.9514 H   0  0  0  0  0  0
   44.7465   75.1949   20.5119 H   0  0  0  0  0  0
   40.4257   73.3771   18.8059 H   0  0  0  0  0  0
   38.9266   75.9658   19.1569 H   0  0  0  0  0  0
   40.0814   74.1775   21.3859 H   0  0  0  0  0  0
   38.2440   73.0767   18.6855 H   0  0  0  0  0  0
   37.1478   73.9442   19.8135 H   0  0  0  0  0  0
  1  2  2  0  0  0
  1  3  1  0  0  0
  1 11  1  0  0  0
  3  4  1  0  0  0
  4  5  1  0  0  0
  4 43  1  0  0  0
  4 44  1  0  0  0
  5  6  2  0  0  0
  5 10  1  0  0  0
  6  7  1  0  0  0
  6 45  1  0  0  0
  7  8  2  0  0  0
  7 46  1  0  0  0
  8  9  1  0  0  0
  8 47  1  0  0  0
  9 10  2  0  0  0
  9 48  1  0  0  0
 10 49  1  0  0  0
 11 12  1  0  0  0
 11 50  1  0  0  0
 12 13  1  0  0  0
 12 15  1  0  0  0
 12 51  1  0  0  0
 13 16  1  0  0  0
 13 52  1  0  0  0
 13 53  1  0  0  0
 14 15  2  0  0  0
 15 19  1  0  0  0
 16 17  1  0  0  0
 16 18  2  0  0  0
 19 20  1  0  0  0
 19 54  1  0  0  0
 20 21  1  0  0  0
 20 23  1  0  0  0
 20 55  1  0  0  0
 21 22  2  0  0  0
 21 28  1  0  0  0
 23 24  1  0  0  0
 23 56  1  0  0  0
 23 57  1  0  0  0
 24 25  1  0  0  0
 24 58  1  0  0  0
 24 59  1  0  0  0
 25 26  2  0  0  0
 25 27  1  0  0  0
 28 29  1  0  0  0
 28 60  1  0  0  0
 29 30  1  0  0  0
 29 32  1  0  0  0
 29 61  1  0  0  0
 30 31  2  0  0  0
 30 35  1  0  0  0
 32 33  1  0  0  0
 32 34  1  0  0  0
 32 62  1  0  0  0
 33 63  1  0  0  0
 33 64  1  0  0  0
 33 65  1  0  0  0
 34 66  1  0  0  0
 34 67  1  0  0  0
 34 68  1  0  0  0
 35 36  1  0  0  0
 35 69  1  0  0  0
 36 37  1  0  0  0
 36 39  1  0  0  0
 36 70  1  0  0  0
 37 38  2  0  0  0
 37 71  1  0  0  0
 39 40  1  0  0  0
 39 72  1  0  0  0
 39 73  1  0  0  0
 40 41  2  0  0  0
 40 42  1  0  0  0
M  CHG  3  17  -1  27  -1  42  -1
M  END
> <s_m_source_file>
../1f9e_ligand.sdf

> <i_m_source_file_index>
1

> <s_epik_input>
W2NIXTFbY0hdW2NIXVtjSF1bY0hdYzFbQ0gyXU9DKD1PKVtOSF1bQ0BIXShbQ0gyXUMoPU8pW09IXSlDKD1PKVtOSF1bQ0BASF0oW0NIMl1bQ0gyXUMoPU8pW09IXSlDKD1PKVtOSF1bQ0BASF0oW0NIXShbQ0gzXSlbQ0gzXSlDKD1PKVtOSF1bQ0BIXShbQ0hdPU8pW0NIMl1DKD1PKVtPSF0=

> <s_epik_cmdline>
J2VwaWtfYXBwJywgJy1pbWFlJywgJ2xpZ2FuZF9wcm8ubWFlJywgJy1vbWFlJywgJ2xpZ2FuZF9wcmVwLm1hZScsICctbXMnLCAnMScsICctcGgnLCAnNycsICctcGh0JywgJzAuNScsICctbnQn

> <r_lp_tautomer_probability>
1

> <r_epik_Ionization_Penalty>
  0.0038

> <r_epik_Ionization_Penalty_Charging>
  0.0036

> <r_epik_Ionization_Penalty_Neutral>
  0.0001

> <r_epik_State_Penalty>
 -0.0000

> <r_epik_Charging_Adjusted_Penalty>
0.00364272047389304

> <i_epik_Tot_Q>
-3

> <i_epik_Tot_abs_Q>
3

> <s_epik_Chemistry_Notes>
This compound has an ester and may undergo hydrolysis at high or low pH.

$$$$
