1fao_ligand
                    3D
 Schrodinger Suite 2020-3.
 38 38  0  0  1  0            999 V2000
   25.9280    6.5440    8.2430 C   0  0  2  0  0  0
   26.7630    7.6030    7.7540 O   0  0  0  0  0  0
   24.9410    7.0920    9.2600 C   0  0  2  0  0  0
   25.6410    7.6550   10.3600 O   0  0  0  0  0  0
   24.0450    5.9750    9.7510 C   0  0  2  0  0  0
   23.0660    6.5010   10.6580 O   0  0  0  0  0  0
   24.8450    4.8640   10.4260 C   0  0  1  0  0  0
   23.9780    3.7670   10.7620 O   0  0  0  0  0  0
   26.0020    4.3490    9.5720 C   0  0  2  0  0  0
   26.8830    3.5660   10.3910 O   0  0  0  0  0  0
   26.7960    5.4440    8.8480 C   0  0  1  0  0  0
   27.5830    4.8550    7.8210 O   0  0  0  0  0  0
   26.3810    8.4170    6.3980 P   0  0  0  0  0  0
   27.1890    9.7010    6.4810 O   0  5  0  0  0  0
   24.8780    8.6280    6.4550 O   0  5  0  0  0  0
   26.8040    7.5350    5.2420 O   0  0  0  0  0  0
   21.4830    6.3590   10.3300 P   0  0  0  0  0  0
   20.7630    7.0130   11.4960 O   0  0  0  0  0  0
   21.2520    7.0410    8.9930 O   0  5  0  0  0  0
   21.2280    4.8560   10.2690 O   0  5  0  0  0  0
   23.5020    3.4960   12.2940 P   0  0  0  0  0  0
   24.2330    4.4920   13.1770 O   0  5  0  0  0  0
   22.0040    3.7180   12.2810 O   0  0  0  0  0  0
   23.8730    2.0540   12.6080 O   0  0  0  0  0  0
   27.6430    2.2530    9.8030 P   0  0  0  0  0  0
   28.0640    1.4830   11.0420 O   0  0  0  0  0  0
   26.6090    1.5200    8.9610 O   0  5  0  0  0  0
   28.8090    2.7970    8.9930 O   0  0  0  0  0  0
   25.3784    6.1548    7.3733 H   0  0  0  0  0  0
   24.3503    7.9150    8.8313 H   0  0  0  0  0  0
   26.3442    8.4851   10.1977 H   0  0  0  0  0  0
   23.4855    5.5599    8.8997 H   0  0  0  0  0  0
   25.2484    5.2602   11.3696 H   0  0  0  0  0  0
   25.5834    3.6807    8.8051 H   0  0  0  0  0  0
   27.4886    5.9063    9.5667 H   0  0  0  0  0  0
   28.2247    5.4867    7.1891 H   0  0  0  0  0  0
   23.4138    1.2317   12.0397 H   0  0  0  0  0  0
   28.6199    3.3715    8.0742 H   0  0  0  0  0  0
  1 11  1  0  0  0
  1  3  1  0  0  0
  1  2  1  0  0  0
  1 29  1  0  0  0
  2 13  1  0  0  0
  3  5  1  0  0  0
  3  4  1  0  0  0
  3 30  1  0  0  0
  4 31  1  0  0  0
  5  7  1  0  0  0
  5  6  1  0  0  0
  5 32  1  0  0  0
  6 17  1  0  0  0
  7  9  1  0  0  0
  7  8  1  0  0  0
  7 33  1  0  0  0
  8 21  1  0  0  0
  9 11  1  0  0  0
  9 10  1  0  0  0
  9 34  1  0  0  0
 10 25  1  0  0  0
 11 12  1  0  0  0
 11 35  1  0  0  0
 12 36  1  0  0  0
 13 16  2  0  0  0
 13 15  1  0  0  0
 13 14  1  0  0  0
 17 20  1  0  0  0
 17 19  1  0  0  0
 17 18  2  0  0  0
 21 24  1  0  0  0
 21 23  2  0  0  0
 21 22  1  0  0  0
 24 37  1  0  0  0
 25 28  1  0  0  0
 25 27  1  0  0  0
 25 26  2  0  0  0
 28 38  1  0  0  0
M  CHG  6  14  -1  15  -1  19  -1  20  -1  22  -1  27  -1
M  END
> <s_m_source_file>
../1fao_ligand.sdf

> <i_m_source_file_index>
1

> <s_epik_input>
W09IXVAoPU8pKFtPSF0pT1tDQEBIXTFbQ0BIXShbT0hdKVtDQEhdKE9QKD1PKShbT0hdKVtPSF0pW0NAQEhdKE9QKD1PKShbT0hdKVtPSF0pW0NAQEhdKFtDQEhdMVtPSF0pT1AoPU8pKFtPSF0pW09IXQ==

> <s_epik_cmdline>
J2VwaWtfYXBwJywgJy1pbWFlJywgJ2xpZ2FuZF9wcm8ubWFlJywgJy1vbWFlJywgJ2xpZ2FuZF9wcmVwLm1hZScsICctbXMnLCAnMScsICctcGgnLCAnNycsICctcGh0JywgJzAuNScsICctbnQn

> <r_epik_Ionization_Penalty>
  1.9576

> <r_epik_Ionization_Penalty_Charging>
  0.1711

> <r_epik_Ionization_Penalty_Neutral>
  1.7865

> <r_epik_State_Penalty>
  0.5318

> <r_epik_Charging_Adjusted_Penalty>
0.702919789572401

> <i_epik_Tot_Q>
-6

> <i_epik_Tot_abs_Q>
6

$$$$
