1fax_ligand
                    3D
 Schrodinger Suite 2020-3.
 62 65  0  0  1  0            999 V2000
    7.3860    8.0220   24.6130 C   0  0  0  0  0  0
    6.8510    8.5690   23.4630 C   0  0  0  0  0  0
    7.6620    9.4000   22.6650 C   0  0  0  0  0  0
    8.9470    9.7530   23.0930 C   0  0  0  0  0  0
    9.4380    9.2310   24.2950 C   0  0  0  0  0  0
   10.7200    9.5510   24.7430 C   0  0  0  0  0  0
   11.1950    8.9950   25.9340 C   0  0  0  0  0  0
   10.4250    8.0720   26.6620 C   0  0  0  0  0  0
    9.1340    7.8410   26.2190 C   0  0  0  0  0  0
    8.6490    8.3480   25.0430 C   0  0  0  0  0  0
   10.9090    7.3820   27.7650 C   0  0  0  0  0  0
   10.1050    6.5260   28.4000 N   0  3  0  0  0  0
   12.1710    7.5740   28.1700 N   0  0  0  0  0  0
    5.4000    8.2470   23.1480 C   0  0  0  0  0  0
    3.5350    7.7930   21.6200 C   0  0  0  0  0  0
    2.9820    6.7090   21.8260 O   0  5  0  0  0  0
    2.9120    8.8320   21.3890 O   0  0  0  0  0  0
    5.0580    7.9040   21.7030 C   0  0  2  0  0  0
    7.7040    1.8270   17.2590 N   0  0  0  0  0  0
    7.4520    2.9440   18.1600 C   0  0  0  0  0  0
    8.7690    3.1530   18.8680 C   0  0  2  0  0  0
    9.3440    1.7900   18.7950 C   0  0  0  0  0  0
    8.9230    1.0600   17.5440 C   0  0  0  0  0  0
    6.8740    1.5560   16.2570 C   0  0  0  0  0  0
    7.0060    0.4220   15.5920 N   0  3  0  0  0  0
    5.7010    2.4500   15.8530 C   0  0  0  0  0  0
    5.9360    5.5240   21.9400 C   0  0  0  0  0  0
    6.8210    4.5210   21.5670 C   0  0  0  0  0  0
    6.7960    6.9530   20.1780 C   0  0  0  0  0  0
    7.6780    5.9480   19.8020 C   0  0  0  0  0  0
    7.6880    4.7380   20.5010 C   0  0  0  0  0  0
    8.6120    3.6880   20.1390 O   0  0  0  0  0  0
    5.9370    6.7410   21.2500 C   0  0  0  0  0  0
    6.7921    7.3153   25.1926 H   0  0  0  0  0  0
    7.2872    9.7695   21.7105 H   0  0  0  0  0  0
    9.5596   10.4282   22.4956 H   0  0  0  0  0  0
   11.3478   10.2310   24.1672 H   0  0  0  0  0  0
   12.1791    9.2821   26.3044 H   0  0  0  0  0  0
    8.4743    7.2284   26.8335 H   0  0  0  0  0  0
    9.0713    6.3815   28.0527 H   0  0  0  0  0  0
   12.8187    8.2835   27.6342 H   0  0  0  0  0  0
   12.5599    7.0222   29.0385 H   0  0  0  0  0  0
    5.0812    7.3757   23.7389 H   0  0  0  0  0  0
    4.7692    9.1121   23.4006 H   0  0  0  0  0  0
    5.3067    8.6707   20.9544 H   0  0  0  0  0  0
    7.1531    3.8265   17.5753 H   0  0  0  0  0  0
    6.6456    2.6768   18.8587 H   0  0  0  0  0  0
    9.4476    3.9358   18.4981 H   0  0  0  0  0  0
   10.4421    1.8546   18.7996 H   0  0  0  0  0  0
    9.0076    1.2032   19.6624 H   0  0  0  0  0  0
    8.6638    0.0012   17.6918 H   0  0  0  0  0  0
    9.6204    1.1522   16.6983 H   0  0  0  0  0  0
    7.8298   -0.2653   15.8348 H   0  0  0  0  0  0
    5.6998    3.3569   16.4755 H   0  0  0  0  0  0
    4.7570    1.9043   15.9983 H   0  0  0  0  0  0
    5.8024    2.7319   14.7946 H   0  0  0  0  0  0
    5.2437    5.3638   22.7666 H   0  0  0  0  0  0
    6.8362    3.5728   22.1043 H   0  0  0  0  0  0
    6.7776    7.8993   19.6373 H   0  0  0  0  0  0
    8.3594    6.1025   18.9654 H   0  0  0  0  0  0
    6.2921    0.1652   14.7955 H   0  0  0  0  0  0
   10.4763    5.9652   29.2705 H   0  0  0  0  0  0
  1  2  2  0  0  0
  1 10  1  0  0  0
  1 34  1  0  0  0
  2  3  1  0  0  0
  2 14  1  0  0  0
  3  4  2  0  0  0
  3 35  1  0  0  0
  4  5  1  0  0  0
  4 36  1  0  0  0
  5  6  1  0  0  0
  5 10  2  0  0  0
  6  7  2  0  0  0
  6 37  1  0  0  0
  7  8  1  0  0  0
  7 38  1  0  0  0
  8  9  2  0  0  0
  8 11  1  0  0  0
  9 10  1  0  0  0
  9 39  1  0  0  0
 11 12  2  0  0  0
 11 13  1  0  0  0
 12 40  1  0  0  0
 12 62  1  0  0  0
 13 41  1  0  0  0
 13 42  1  0  0  0
 14 18  1  0  0  0
 14 43  1  0  0  0
 14 44  1  0  0  0
 15 16  1  0  0  0
 15 17  2  0  0  0
 15 18  1  0  0  0
 18 33  1  0  0  0
 18 45  1  0  0  0
 19 20  1  0  0  0
 19 23  1  0  0  0
 19 24  1  0  0  0
 20 21  1  0  0  0
 20 46  1  0  0  0
 20 47  1  0  0  0
 21 22  1  0  0  0
 21 32  1  0  0  0
 21 48  1  0  0  0
 22 23  1  0  0  0
 22 49  1  0  0  0
 22 50  1  0  0  0
 23 51  1  0  0  0
 23 52  1  0  0  0
 24 25  2  0  0  0
 24 26  1  0  0  0
 25 53  1  0  0  0
 25 61  1  0  0  0
 26 54  1  0  0  0
 26 55  1  0  0  0
 26 56  1  0  0  0
 27 28  2  0  0  0
 27 33  1  0  0  0
 27 57  1  0  0  0
 28 31  1  0  0  0
 28 58  1  0  0  0
 29 30  1  0  0  0
 29 33  2  0  0  0
 29 59  1  0  0  0
 30 31  2  0  0  0
 30 60  1  0  0  0
 31 32  1  0  0  0
M  CHG  3  12   1  16  -1  25   1
M  END
> <s_m_source_file>
../1fax_ligand.sdf

> <i_m_source_file_index>
1

> <s_epik_input>
W0hdL049QyhbTkgyXSlcYyhbY0hdW2NIXTEpW2NIXWMoYzEyKVtjSF1jKFtjSF1bY0hdMilbQ0gyXVtDQEhdKEMoPU8pW09IXSljKFtjSF1bY0hdMylbY0hdW2NIXWMzT1tDQEBIXShbQ0gyXVtDSDJdNClbQ0gyXU40L0MoPU5cW0hdKVtDSDNd

> <s_epik_cmdline>
J2VwaWtfYXBwJywgJy1pbWFlJywgJ2xpZ2FuZF9wcm8ubWFlJywgJy1vbWFlJywgJ2xpZ2FuZF9wcmVwLm1hZScsICctbXMnLCAnMScsICctcGgnLCAnNycsICctcGh0JywgJzAuNScsICctbnQn

> <r_lp_tautomer_probability>
1

> <r_epik_Ionization_Penalty>
  0.0017

> <r_epik_Ionization_Penalty_Charging>
  0.0017

> <r_epik_Ionization_Penalty_Neutral>
  0.0000

> <r_epik_State_Penalty>
 -0.0000

> <r_epik_Charging_Adjusted_Penalty>
0.00165533940787812

> <i_epik_Tot_Q>
1

> <i_epik_Tot_abs_Q>
3

> <s_epik_Chemistry_Notes>
This compound has an imine and may undergo hydrolysis.

$$$$
