1fbm_ligand
                    3D
 Schrodinger Suite 2020-3.
 57 57  0  0  1  0            999 V2000
   29.2390   47.8000   -1.9220 C   0  0  0  0  0  0
   28.9030   48.3950   -0.5190 C   0  0  0  0  0  0
   29.8370   48.0100    0.6180 C   0  0  0  0  0  0
   30.9540   47.1010    0.1370 C   0  0  0  0  0  0
   31.4960   47.4840   -1.2560 C   0  0  3  0  0  0
   30.7540   47.8990   -2.3400 C   0  0  1  0  0  0
   31.2540   47.2950   -3.6040 C   0  0  0  0  0  0
   32.3640   47.8120   -4.2770 C   0  0  0  0  0  0
   32.7730   47.1160   -5.5070 C   0  0  0  0  0  0
   33.8520   47.7870   -6.0120 C   0  0  0  0  0  0
   34.2860   47.1070   -7.2360 C   0  0  0  0  0  0
   35.3740   47.7250   -7.8060 C   0  0  0  0  0  0
   35.8410   46.9840   -8.9890 C   0  0  1  0  0  0
   36.9270   47.6230   -9.5430 C   0  0  0  0  0  0
   37.3720   46.8840  -10.7320 C   0  0  0  0  0  0
   38.4460   47.4980  -11.2990 O   0  0  0  0  0  0
   28.5690   48.8340   -2.7680 C   0  0  0  0  0  0
   28.5080   46.4700   -2.0600 C   0  0  0  0  0  0
   33.0100   47.3970   -1.2340 C   0  0  0  0  0  0
   31.8870   45.8980   -5.7960 C   0  0  0  0  0  0
   36.2760   45.5520   -8.6320 C   0  0  0  0  0  0
   28.9272   49.4935   -0.5712 H   0  0  0  0  0  0
   27.9000   48.0646   -0.2112 H   0  0  0  0  0  0
   30.2870   48.9178    1.0462 H   0  0  0  0  0  0
   29.2682   47.4805    1.3965 H   0  0  0  0  0  0
   31.7953   47.1483    0.8441 H   0  0  0  0  0  0
   30.5844   46.0668    0.0756 H   0  0  0  0  0  0
   30.8741   47.6327   -2.1510 H   0  0  0  0  0  0
   31.0095   48.9455   -2.5628 H   0  0  0  0  0  0
   30.7255   46.4186   -4.0071 H   0  0  0  0  0  0
   32.8844   48.6966   -3.8811 H   0  0  0  0  0  0
   34.2379   48.6772   -5.4938 H   0  0  0  0  0  0
   34.5632   46.0690   -7.0001 H   0  0  0  0  0  0
   33.4649   47.1099   -7.9679 H   0  0  0  0  0  0
   35.0970   48.7439   -8.1144 H   0  0  0  0  0  0
   36.1934   47.7736   -7.0738 H   0  0  0  0  0  0
   35.0382   47.0236   -9.7400 H   0  0  0  0  0  0
   36.6430   48.6460   -9.8307 H   0  0  0  0  0  0
   37.7439   47.6624   -8.8073 H   0  0  0  0  0  0
   37.6558   45.8613  -10.4431 H   0  0  0  0  0  0
   36.5539   46.8439  -11.4663 H   0  0  0  0  0  0
   38.9078   47.0744  -12.2031 H   0  0  0  0  0  0
   29.0998   49.7920   -2.6653 H   0  0  0  0  0  0
   27.5259   48.9558   -2.4407 H   0  0  0  0  0  0
   28.5882   48.5152   -3.8206 H   0  0  0  0  0  0
   29.0044   45.7123   -1.4359 H   0  0  0  0  0  0
   28.5271   46.1485   -3.1118 H   0  0  0  0  0  0
   27.4649   46.5892   -1.7319 H   0  0  0  0  0  0
   33.3423   47.0378   -0.2489 H   0  0  0  0  0  0
   33.4373   48.3926   -1.4246 H   0  0  0  0  0  0
   33.3484   46.6976   -2.0126 H   0  0  0  0  0  0
   31.1147   45.8133   -5.0173 H   0  0  0  0  0  0
   32.5048   44.9879   -5.8002 H   0  0  0  0  0  0
   31.4060   46.0192   -6.7778 H   0  0  0  0  0  0
   35.4282   45.0119   -8.1854 H   0  0  0  0  0  0
   37.1069   45.5899   -7.9121 H   0  0  0  0  0  0
   36.6039   45.0305   -9.5433 H   0  0  0  0  0  0
  1  2  1  0  0  0
  1  6  1  0  0  0
  1 17  1  0  0  0
  1 18  1  0  0  0
  2  3  1  0  0  0
  2 22  1  0  0  0
  2 23  1  0  0  0
  3  4  1  0  0  0
  3 24  1  0  0  0
  3 25  1  0  0  0
  4  5  1  0  0  0
  4 26  1  0  0  0
  4 27  1  0  0  0
  5  6  1  0  0  0
  5 19  1  0  0  0
  5 28  1  0  0  0
  6  7  1  0  0  0
  6 29  1  0  0  0
  7  8  2  0  0  0
  7 30  1  0  0  0
  8  9  1  0  0  0
  8 31  1  0  0  0
  9 10  2  0  0  0
  9 20  1  0  0  0
 10 11  1  0  0  0
 10 32  1  0  0  0
 11 12  1  0  0  0
 11 33  1  0  0  0
 11 34  1  0  0  0
 12 13  1  0  0  0
 12 35  1  0  0  0
 12 36  1  0  0  0
 13 14  1  0  0  0
 13 21  1  0  0  0
 13 37  1  0  0  0
 14 15  1  0  0  0
 14 38  1  0  0  0
 14 39  1  0  0  0
 15 16  1  0  0  0
 15 40  1  0  0  0
 15 41  1  0  0  0
 16 42  1  0  0  0
 17 43  1  0  0  0
 17 44  1  0  0  0
 17 45  1  0  0  0
 18 46  1  0  0  0
 18 47  1  0  0  0
 18 48  1  0  0  0
 19 49  1  0  0  0
 19 50  1  0  0  0
 19 51  1  0  0  0
 20 52  1  0  0  0
 20 53  1  0  0  0
 20 54  1  0  0  0
 21 55  1  0  0  0
 21 56  1  0  0  0
 21 57  1  0  0  0
M  END
> <s_m_source_file>
../1fbm_ligand.sdf

> <i_m_source_file_index>
1

> <s_epik_input>
W0NIM11DMShbQ0gzXSlbQ0gyXVtDSDJdW0NIMl1bQ0hdKFtDSDNdKVtDQEhdMS9bQ0hdPVtDSF0vQyhbQ0gzXSk9W0NIXS9bQ0gyXVtDSDJdW0NASF0oW0NIM10pW0NIMl1bQ0gyXVtPSF0=

> <s_epik_cmdline>
J2VwaWtfYXBwJywgJy1pbWFlJywgJ2xpZ2FuZF9wcm8ubWFlJywgJy1vbWFlJywgJ2xpZ2FuZF9wcmVwLm1hZScsICctbXMnLCAnMScsICctcGgnLCAnNycsICctcGh0JywgJzAuNScsICctbnQn

> <r_lp_tautomer_probability>
1

> <r_epik_Ionization_Penalty>
  0.0000

> <r_epik_Ionization_Penalty_Charging>
  0.0000

> <r_epik_Ionization_Penalty_Neutral>
  0.0000

> <r_epik_State_Penalty>
 -0.0000

> <r_epik_Charging_Adjusted_Penalty>
0

> <i_epik_Tot_Q>
0

> <i_epik_Tot_abs_Q>
0

$$$$
