1fcx_ligand
                    3D
 Schrodinger Suite 2020-3.
 56 59  0  0  1  0            999 V2000
   34.8120   18.3020   88.3100 C   0  0  0  0  0  0
   35.6880   17.3620   87.6370 C   0  0  0  0  0  0
   35.7540   16.0480   88.1900 C   0  0  0  0  0  0
   36.5760   15.0880   87.6060 C   0  0  0  0  0  0
   37.3590   15.3820   86.4520 C   0  0  0  0  0  0
   37.2920   16.6660   85.9170 C   0  0  0  0  0  0
   36.4480   17.6410   86.5260 C   0  0  0  0  0  0
   42.6820   13.8490   81.6850 C   0  0  0  0  0  0
   43.0400   13.2180   80.3560 C   0  0  0  0  0  0
   44.4770   13.5720   79.9670 C   0  0  0  0  0  0
   44.9220   14.9440   80.2750 C   0  0  0  0  0  0
   44.8200   15.2950   81.7390 C   0  0  0  0  0  0
   43.4990   14.7970   82.3090 C   0  0  0  0  0  0
   42.0230   13.6600   79.3050 C   0  0  0  0  0  0
   43.0550   11.6870   80.4240 C   0  0  0  0  0  0
   44.8160   16.8220   81.6780 C   0  0  0  0  0  0
   45.9950   14.8610   82.6600 C   0  0  0  0  0  0
   34.4210   18.1730   89.4200 O   0  0  0  0  0  0
   34.4720   19.3250   87.5700 O   0  5  0  0  0  0
   38.1860   14.4020   85.8600 C   0  0  0  0  0  0
   38.9520   14.6930   84.7340 C   0  0  0  0  0  0
   38.8660   15.9890   84.2030 C   0  0  0  0  0  0
   38.0520   16.9820   84.7780 C   0  0  0  0  0  0
   41.1700   14.0730   83.5500 C   0  0  0  0  0  0
   41.4920   13.4880   82.3290 C   0  0  0  0  0  0
   43.1310   15.3500   83.5270 C   0  0  0  0  0  0
   41.9870   14.9980   84.1470 C   0  0  0  0  0  0
   39.8360   13.5480   84.0920 C   0  0  1  0  0  0
   39.9280   12.5170   85.0740 O   0  0  0  0  0  0
   35.1611   15.7961   89.0693 H   0  0  0  0  0  0
   36.6217   14.0896   88.0409 H   0  0  0  0  0  0
   36.4040   18.6416   86.0959 H   0  0  0  0  0  0
   45.1745   12.9040   80.4936 H   0  0  0  0  0  0
   44.6032   13.4514   78.8809 H   0  0  0  0  0  0
   45.9751   15.0627   79.9804 H   0  0  0  0  0  0
   44.3026   15.6637   79.7197 H   0  0  0  0  0  0
   41.0110   13.3818   79.6343 H   0  0  0  0  0  0
   42.2462   13.1655   78.3481 H   0  0  0  0  0  0
   42.0797   14.7509   79.1760 H   0  0  0  0  0  0
   42.0546   11.3224   80.7003 H   0  0  0  0  0  0
   43.7856   11.3607   81.1788 H   0  0  0  0  0  0
   43.3355   11.2791   79.4417 H   0  0  0  0  0  0
   45.7727   17.1750   81.2655 H   0  0  0  0  0  0
   44.6810   17.2291   82.6910 H   0  0  0  0  0  0
   43.9915   17.1610   81.0336 H   0  0  0  0  0  0
   46.9441   15.2253   82.2398 H   0  0  0  0  0  0
   46.0214   13.7634   82.7280 H   0  0  0  0  0  0
   45.8508   15.2872   83.6638 H   0  0  0  0  0  0
   38.2253   13.4018   86.2914 H   0  0  0  0  0  0
   39.4493   16.2345   83.3155 H   0  0  0  0  0  0
   38.0114   17.9820   84.3463 H   0  0  0  0  0  0
   40.8235   12.7549   81.8776 H   0  0  0  0  0  0
   43.7833   16.0877   83.9944 H   0  0  0  0  0  0
   41.7164   15.4408   85.1056 H   0  0  0  0  0  0
   39.4003   13.0344   83.2223 H   0  0  0  0  0  0
   39.0130   12.0896   85.5101 H   0  0  0  0  0  0
  1 19  1  0  0  0
  1 18  2  0  0  0
  1  2  1  0  0  0
  2  7  2  0  0  0
  2  3  1  0  0  0
  3  4  2  0  0  0
  3 30  1  0  0  0
  4  5  1  0  0  0
  4 31  1  0  0  0
  5 20  1  0  0  0
  5  6  2  0  0  0
  6 23  1  0  0  0
  6  7  1  0  0  0
  7 32  1  0  0  0
  8 25  2  0  0  0
  8 13  1  0  0  0
  8  9  1  0  0  0
  9 15  1  0  0  0
  9 14  1  0  0  0
  9 10  1  0  0  0
 10 11  1  0  0  0
 10 33  1  0  0  0
 10 34  1  0  0  0
 11 12  1  0  0  0
 11 35  1  0  0  0
 11 36  1  0  0  0
 12 17  1  0  0  0
 12 16  1  0  0  0
 12 13  1  0  0  0
 13 26  2  0  0  0
 14 37  1  0  0  0
 14 38  1  0  0  0
 14 39  1  0  0  0
 15 40  1  0  0  0
 15 41  1  0  0  0
 15 42  1  0  0  0
 16 43  1  0  0  0
 16 44  1  0  0  0
 16 45  1  0  0  0
 17 46  1  0  0  0
 17 47  1  0  0  0
 17 48  1  0  0  0
 20 21  2  0  0  0
 20 49  1  0  0  0
 21 22  1  0  0  0
 21 28  1  0  0  0
 22 23  2  0  0  0
 22 50  1  0  0  0
 23 51  1  0  0  0
 24 28  1  0  0  0
 24 27  2  0  0  0
 24 25  1  0  0  0
 25 52  1  0  0  0
 26 27  1  0  0  0
 26 53  1  0  0  0
 27 54  1  0  0  0
 28 29  1  0  0  0
 28 55  1  0  0  0
 29 56  1  0  0  0
M  CHG  1  19  -1
M  END
> <s_m_source_file>
../1fcx_ligand.sdf

> <i_m_source_file_index>
1

> <s_epik_input>
W2NIXTFbY0hdYyhDKD1PKVtPSF0pW2NIXWMoYzEyKVtjSF1bY0hdYyhbY0hdMilbQ0BIXShbT0hdKWMoW2NIXTMpW2NIXVtjSF1jKGMzNClDKFtDSDNdKShbQ0gzXSlbQ0gyXVtDSDJdQzQoW0NIM10pW0NIM10=

> <s_epik_cmdline>
J2VwaWtfYXBwJywgJy1pbWFlJywgJ2xpZ2FuZF9wcm8ubWFlJywgJy1vbWFlJywgJ2xpZ2FuZF9wcmVwLm1hZScsICctbXMnLCAnMScsICctcGgnLCAnNycsICctcGh0JywgJzAuNScsICctbnQn

> <r_lp_tautomer_probability>
1

> <r_epik_Ionization_Penalty>
  0.0008

> <r_epik_Ionization_Penalty_Charging>
  0.0008

> <r_epik_Ionization_Penalty_Neutral>
  0.0000

> <r_epik_State_Penalty>
 -0.0000

> <r_epik_Charging_Adjusted_Penalty>
0.000784771479247858

> <i_epik_Tot_Q>
-1

> <i_epik_Tot_abs_Q>
1

$$$$
