1fcz_ligand
                    3D
 Schrodinger Suite 2020-3.
 52 54  0  0  1  0            999 V2000
   34.7480   18.1560   88.4120 C   0  0  0  0  0  0
   35.7910   17.5340   87.6320 C   0  0  0  0  0  0
   36.7020   18.0550   86.7590 C   0  0  0  0  0  0
   37.6590   17.3780   86.0560 C   0  0  0  0  0  0
   37.7900   16.0100   86.2830 C   0  0  0  0  0  0
   38.6810   15.1990   85.5140 C   0  0  0  0  0  0
   38.9030   13.9020   85.5560 C   0  0  0  0  0  0
   36.9940   15.4510   87.2620 C   0  0  0  0  0  0
   36.0880   16.1610   88.0620 C   0  0  0  0  0  0
   39.8460   13.1440   84.6980 C   0  0  0  0  0  0
   41.0460   13.7290   84.0750 C   0  0  0  0  0  0
   41.5000   13.2540   82.8490 C   0  0  0  0  0  0
   42.6370   13.7640   82.1980 C   0  0  0  0  0  0
   43.0510   13.1680   80.8440 C   0  0  0  0  0  0
   44.5010   13.6010   80.5050 C   0  0  0  0  0  0
   44.7060   15.0800   80.7250 C   0  0  0  0  0  0
   44.5920   15.4510   82.2180 C   0  0  0  0  0  0
   43.3480   14.8110   82.8230 C   0  0  0  0  0  0
   42.8760   15.2680   84.0460 C   0  0  0  0  0  0
   41.7720   14.7590   84.6630 C   0  0  0  0  0  0
   42.0810   13.6990   79.8090 C   0  0  0  0  0  0
   43.0100   11.6560   80.8730 C   0  0  0  0  0  0
   44.4830   16.9790   82.2380 C   0  0  0  0  0  0
   45.8510   15.0530   82.9860 C   0  0  0  0  0  0
   34.4060   19.3090   87.8470 O   0  5  0  0  0  0
   34.2180   17.7630   89.4120 O   0  0  0  0  0  0
   39.5140   11.9680   84.4180 O   0  0  0  0  0  0
   36.6617   19.1333   86.6050 H   0  0  0  0  0  0
   38.2997   17.8927   85.3400 H   0  0  0  0  0  0
   39.2307   15.8282   84.7985 H   0  0  0  0  0  0
   38.3622   13.2746   86.2798 H   0  0  0  0  0  0
   37.0760   14.3765   87.4255 H   0  0  0  0  0  0
   35.6318   15.7213   88.9489 H   0  0  0  0  0  0
   40.9469   12.4465   82.3693 H   0  0  0  0  0  0
   45.2067   13.0537   81.1473 H   0  0  0  0  0  0
   44.7141   13.3745   79.4499 H   0  0  0  0  0  0
   45.7065   15.3682   80.3702 H   0  0  0  0  0  0
   43.9430   15.6429   80.1673 H   0  0  0  0  0  0
   43.4165   16.0762   84.5388 H   0  0  0  0  0  0
   41.4559   15.1626   85.6249 H   0  0  0  0  0  0
   41.0598   13.3817   80.0667 H   0  0  0  0  0  0
   42.3489   13.3032   78.8183 H   0  0  0  0  0  0
   42.1299   14.7978   79.7904 H   0  0  0  0  0  0
   41.9897   11.3214   81.1119 H   0  0  0  0  0  0
   43.7065   11.2850   81.6393 H   0  0  0  0  0  0
   43.3040   11.2623   79.8888 H   0  0  0  0  0  0
   45.3906   17.4171   81.7972 H   0  0  0  0  0  0
   44.3758   17.3254   83.2765 H   0  0  0  0  0  0
   43.6044   17.2916   81.6546 H   0  0  0  0  0  0
   46.7281   15.5305   82.5248 H   0  0  0  0  0  0
   45.9696   13.9599   82.9544 H   0  0  0  0  0  0
   45.7619   15.3821   84.0318 H   0  0  0  0  0  0
  1 26  2  0  0  0
  1 25  1  0  0  0
  1  2  1  0  0  0
  2  9  2  0  0  0
  2  3  1  0  0  0
  3  4  2  0  0  0
  3 28  1  0  0  0
  4  5  1  0  0  0
  4 29  1  0  0  0
  5  8  2  0  0  0
  5  6  1  0  0  0
  6  7  2  0  0  0
  6 30  1  0  0  0
  7 10  1  0  0  0
  7 31  1  0  0  0
  8  9  1  0  0  0
  8 32  1  0  0  0
  9 33  1  0  0  0
 10 27  2  0  0  0
 10 11  1  0  0  0
 11 20  2  0  0  0
 11 12  1  0  0  0
 12 13  2  0  0  0
 12 34  1  0  0  0
 13 18  1  0  0  0
 13 14  1  0  0  0
 14 22  1  0  0  0
 14 21  1  0  0  0
 14 15  1  0  0  0
 15 16  1  0  0  0
 15 35  1  0  0  0
 15 36  1  0  0  0
 16 17  1  0  0  0
 16 37  1  0  0  0
 16 38  1  0  0  0
 17 24  1  0  0  0
 17 23  1  0  0  0
 17 18  1  0  0  0
 18 19  2  0  0  0
 19 20  1  0  0  0
 19 39  1  0  0  0
 20 40  1  0  0  0
 21 41  1  0  0  0
 21 42  1  0  0  0
 21 43  1  0  0  0
 22 44  1  0  0  0
 22 45  1  0  0  0
 22 46  1  0  0  0
 23 47  1  0  0  0
 23 48  1  0  0  0
 23 49  1  0  0  0
 24 50  1  0  0  0
 24 51  1  0  0  0
 24 52  1  0  0  0
M  CHG  1  25  -1
M  END
> <s_m_source_file>
../1fcz_ligand.sdf

> <i_m_source_file_index>
1

> <s_epik_input>
W09IXUMoPU8pYzFbY0hdW2NIXWMoW2NIXVtjSF0xKS9bQ0hdPVtDSF0vQyg9TyljKFtjSF0yKVtjSF1bY0hdYyhjMjMpQyhbQ0gzXSkoW0NIM10pW0NIMl1bQ0gyXUMzKFtDSDNdKVtDSDNd

> <s_epik_cmdline>
J2VwaWtfYXBwJywgJy1pbWFlJywgJ2xpZ2FuZF9wcm8ubWFlJywgJy1vbWFlJywgJ2xpZ2FuZF9wcmVwLm1hZScsICctbXMnLCAnMScsICctcGgnLCAnNycsICctcGh0JywgJzAuNScsICctbnQn

> <r_lp_tautomer_probability>
1

> <r_epik_Ionization_Penalty>
  0.0007

> <r_epik_Ionization_Penalty_Charging>
  0.0007

> <r_epik_Ionization_Penalty_Neutral>
  0.0000

> <r_epik_State_Penalty>
 -0.0000

> <r_epik_Charging_Adjusted_Penalty>
0.000745426268546752

> <i_epik_Tot_Q>
-1

> <i_epik_Tot_abs_Q>
1

$$$$
