1fd0_ligand
                    3D
 Schrodinger Suite 2020-3.
 56 59  0  0  1  0            999 V2000
   34.5290   18.2070   88.4740 C   0  0  0  0  0  0
   35.5050   17.2840   87.8740 C   0  0  0  0  0  0
   35.5970   15.9690   88.4400 C   0  0  0  0  0  0
   36.5130   15.0790   87.8920 C   0  0  0  0  0  0
   37.3450   15.4230   86.8080 C   0  0  0  0  0  0
   37.2450   16.7270   86.2600 C   0  0  0  0  0  0
   36.3270   17.6400   86.8010 C   0  0  0  0  0  0
   42.8340   14.1030   82.0500 C   0  0  0  0  0  0
   43.2380   13.3710   80.7710 C   0  0  0  0  0  0
   44.6680   13.7450   80.3470 C   0  0  0  0  0  0
   44.9870   15.1890   80.4830 C   0  0  0  0  0  0
   44.8750   15.6980   81.9340 C   0  0  0  0  0  0
   43.6020   15.1700   82.5710 C   0  0  0  0  0  0
   42.2530   13.7000   79.6710 C   0  0  0  0  0  0
   43.2180   11.8570   81.0480 C   0  0  0  0  0  0
   44.7610   17.2230   81.7530 C   0  0  0  0  0  0
   46.0920   15.3970   82.8230 C   0  0  0  0  0  0
   33.9460   17.8990   89.4960 O   0  0  0  0  0  0
   34.3440   19.3010   87.8490 O   0  5  0  0  0  0
   38.2610   14.4850   86.2710 C   0  0  0  0  0  0
   39.0980   14.7970   85.2080 C   0  0  0  0  0  0
   38.9400   16.1130   84.7060 C   0  0  0  0  0  0
   38.0800   17.0570   85.1760 C   0  0  0  0  0  0
   41.3030   14.3980   83.9430 C   0  0  0  0  0  0
   41.6950   13.7340   82.7510 C   0  0  0  0  0  0
   43.1920   15.8040   83.7470 C   0  0  0  0  0  0
   42.0870   15.4270   84.4090 C   0  0  0  0  0  0
   40.0980   13.8980   84.5460 C   0  0  0  0  0  0
   39.9290   12.5750   84.4770 N   0  0  0  0  0  0
   38.8160   12.0060   85.0150 O   0  0  0  0  0  0
   34.9649   15.6755   89.2781 H   0  0  0  0  0  0
   36.5907   14.0780   88.3163 H   0  0  0  0  0  0
   36.2538   18.6420   86.3781 H   0  0  0  0  0  0
   45.3903   13.1957   80.9688 H   0  0  0  0  0  0
   44.8181   13.4802   79.2900 H   0  0  0  0  0  0
   46.0178   15.3702   80.1446 H   0  0  0  0  0  0
   44.2904   15.7779   79.8682 H   0  0  0  0  0  0
   41.2379   13.4254   79.9936 H   0  0  0  0  0  0
   42.5146   13.1357   78.7637 H   0  0  0  0  0  0
   42.2903   14.7781   79.4558 H   0  0  0  0  0  0
   42.2062   11.5538   81.3550 H   0  0  0  0  0  0
   43.9310   11.6219   81.8520 H   0  0  0  0  0  0
   43.5026   11.3134   80.1350 H   0  0  0  0  0  0
   45.6826   17.6074   81.2915 H   0  0  0  0  0  0
   44.6161   17.6989   82.7341 H   0  0  0  0  0  0
   43.9028   17.4521   81.1041 H   0  0  0  0  0  0
   47.0018   15.7874   82.3435 H   0  0  0  0  0  0
   46.1868   14.3095   82.9588 H   0  0  0  0  0  0
   45.9584   15.8787   83.8029 H   0  0  0  0  0  0
   38.3102   13.4868   86.7061 H   0  0  0  0  0  0
   39.5683   16.3964   83.8616 H   0  0  0  0  0  0
   38.0386   18.0474   84.7228 H   0  0  0  0  0  0
   41.0847   12.9122   82.3765 H   0  0  0  0  0  0
   43.7872   16.6291   84.1382 H   0  0  0  0  0  0
   41.8076   15.9430   85.3276 H   0  0  0  0  0  0
   38.6738   10.9166   84.9599 H   0  0  0  0  0  0
  1 19  1  0  0  0
  1 18  2  0  0  0
  1  2  1  0  0  0
  2  7  2  0  0  0
  2  3  1  0  0  0
  3  4  2  0  0  0
  3 31  1  0  0  0
  4  5  1  0  0  0
  4 32  1  0  0  0
  5 20  1  0  0  0
  5  6  2  0  0  0
  6 23  1  0  0  0
  6  7  1  0  0  0
  7 33  1  0  0  0
  8 25  2  0  0  0
  8 13  1  0  0  0
  8  9  1  0  0  0
  9 15  1  0  0  0
  9 14  1  0  0  0
  9 10  1  0  0  0
 10 11  1  0  0  0
 10 34  1  0  0  0
 10 35  1  0  0  0
 11 12  1  0  0  0
 11 36  1  0  0  0
 11 37  1  0  0  0
 12 17  1  0  0  0
 12 16  1  0  0  0
 12 13  1  0  0  0
 13 26  2  0  0  0
 14 38  1  0  0  0
 14 39  1  0  0  0
 14 40  1  0  0  0
 15 41  1  0  0  0
 15 42  1  0  0  0
 15 43  1  0  0  0
 16 44  1  0  0  0
 16 45  1  0  0  0
 16 46  1  0  0  0
 17 47  1  0  0  0
 17 48  1  0  0  0
 17 49  1  0  0  0
 20 21  2  0  0  0
 20 50  1  0  0  0
 21 22  1  0  0  0
 21 28  1  0  0  0
 22 23  2  0  0  0
 22 51  1  0  0  0
 23 52  1  0  0  0
 24 28  1  0  0  0
 24 27  2  0  0  0
 24 25  1  0  0  0
 25 53  1  0  0  0
 26 27  1  0  0  0
 26 54  1  0  0  0
 27 55  1  0  0  0
 28 29  2  0  0  0
 29 30  1  0  0  0
 30 56  1  0  0  0
M  CHG  1  19  -1
M  END
> <s_m_source_file>
../1fd0_ligand.sdf

> <i_m_source_file_index>
1

> <s_epik_input>
W2NIXTFbY0hdYyhDKD1PKVtPSF0pW2NIXWMoYzEyKVtjSF1bY0hdYyhbY0hdMikvQyg9TlxbT0hdKWMoW2NIXTMpW2NIXVtjSF1jKGMzNClDKFtDSDNdKShbQ0gzXSlbQ0gyXVtDSDJdQzQoW0NIM10pW0NIM10=

> <s_epik_cmdline>
J2VwaWtfYXBwJywgJy1pbWFlJywgJ2xpZ2FuZF9wcm8ubWFlJywgJy1vbWFlJywgJ2xpZ2FuZF9wcmVwLm1hZScsICctbXMnLCAnMScsICctcGgnLCAnNycsICctcGh0JywgJzAuNScsICctbnQn

> <r_lp_tautomer_probability>
1

> <r_epik_Ionization_Penalty>
  0.0007

> <r_epik_Ionization_Penalty_Charging>
  0.0007

> <r_epik_Ionization_Penalty_Neutral>
  0.0001

> <r_epik_State_Penalty>
 -0.0000

> <r_epik_Charging_Adjusted_Penalty>
0.000667350626771049

> <i_epik_Tot_Q>
-1

> <i_epik_Tot_abs_Q>
1

> <s_epik_Chemistry_Notes>
This compound has an imine and may undergo hydrolysis.

$$$$
