1fd7_ligand
                    3D
 Schrodinger Suite 2020-3.
 51 53  0  0  1  0            999 V2000
  -12.9710    9.7470    4.2680 C   0  0  2  0  0  0
  -14.1080    8.8690    4.4820 O   0  0  0  0  0  0
  -12.0860    9.5260    3.0070 C   0  0  2  0  0  0
  -12.8610    9.3430    1.8140 O   0  0  0  0  0  0
  -11.4180    8.1240    3.1480 C   0  0  1  0  0  0
  -10.4600    8.1150    2.0930 O   0  0  0  0  0  0
  -10.5950    8.1520    4.4700 C   0  0  1  0  0  0
   -9.4480    8.9710    4.3330 O   0  0  0  0  0  0
  -11.4830    8.4770    5.6770 C   0  0  2  0  0  0
  -12.1790    9.7350    5.4680 O   0  0  0  0  0  0
  -10.6190    8.6010    6.9700 C   0  0  0  0  0  0
  -11.4150    8.6940    8.1190 O   0  0  0  0  0  0
  -15.0200    9.1870    5.5610 C   0  0  0  0  0  0
  -14.8370   10.2530    6.4510 C   0  0  0  0  0  0
  -15.8140   10.4480    7.4500 C   0  0  0  0  0  0
  -16.9280    9.5440    7.4990 C   0  0  0  0  0  0
  -17.1210    8.4620    6.5990 C   0  0  0  0  0  0
  -16.1040    8.3160    5.6230 C   0  0  0  0  0  0
  -18.2020    7.5270    6.5850 C   0  0  0  0  0  0
  -18.5250    6.9610    5.4550 O   0  0  0  0  0  0
  -18.8720    7.2320    7.6080 N   0  0  0  0  0  0
  -20.0120    6.3050    7.7700 C   0  0  0  0  0  0
  -20.2700    6.0290    9.2390 C   0  0  0  0  0  0
  -20.1420    4.7790    9.8080 C   0  0  0  0  0  0
  -20.3590    4.5470   11.1680 C   0  0  0  0  0  0
  -20.7340    5.6240   11.9500 C   0  0  0  0  0  0
  -20.8890    6.9010   11.3940 C   0  0  0  0  0  0
  -20.6460    7.0860   10.0540 C   0  0  0  0  0  0
  -13.4482   10.7288    4.1328 H   0  0  0  0  0  0
  -11.4439   10.4089    2.8717 H   0  0  0  0  0  0
  -13.4733   10.1693    1.4238 H   0  0  0  0  0  0
  -12.0946    7.2601    3.0714 H   0  0  0  0  0  0
  -10.7955    8.0954    1.0456 H   0  0  0  0  0  0
  -10.1086    7.1896    4.6873 H   0  0  0  0  0  0
   -8.7536    8.8093    3.4953 H   0  0  0  0  0  0
  -12.2578    7.7014    5.7672 H   0  0  0  0  0  0
   -9.9744    7.7149    7.0666 H   0  0  0  0  0  0
   -9.9940    9.5041    6.9082 H   0  0  0  0  0  0
  -10.9437    8.7868    9.1086 H   0  0  0  0  0  0
  -13.9699   10.9091    6.3744 H   0  0  0  0  0  0
  -15.7251   11.2645    8.1666 H   0  0  0  0  0  0
  -17.6748    9.6979    8.2779 H   0  0  0  0  0  0
  -16.1723    7.5009    4.9025 H   0  0  0  0  0  0
  -18.4900    7.7908    8.4751 H   0  0  0  0  0  0
  -20.9142    6.7524    7.3274 H   0  0  0  0  0  0
  -19.7872    5.3552    7.2628 H   0  0  0  0  0  0
  -19.8606    3.9399    9.1717 H   0  0  0  0  0  0
  -20.2371    3.5527   11.5976 H   0  0  0  0  0  0
  -20.9118    5.4774   13.0154 H   0  0  0  0  0  0
  -21.1992    7.7391   12.0180 H   0  0  0  0  0  0
  -20.7508    8.0821    9.6239 H   0  0  0  0  0  0
  1 10  1  0  0  0
  1  3  1  0  0  0
  1  2  1  0  0  0
  1 29  1  0  0  0
  2 13  1  0  0  0
  3  5  1  0  0  0
  3  4  1  0  0  0
  3 30  1  0  0  0
  4 31  1  0  0  0
  5  7  1  0  0  0
  5  6  1  0  0  0
  5 32  1  0  0  0
  6 33  1  0  0  0
  7  9  1  0  0  0
  7  8  1  0  0  0
  7 34  1  0  0  0
  8 35  1  0  0  0
  9 11  1  0  0  0
  9 10  1  0  0  0
  9 36  1  0  0  0
 11 12  1  0  0  0
 11 37  1  0  0  0
 11 38  1  0  0  0
 12 39  1  0  0  0
 13 18  2  0  0  0
 13 14  1  0  0  0
 14 15  2  0  0  0
 14 40  1  0  0  0
 15 16  1  0  0  0
 15 41  1  0  0  0
 16 17  2  0  0  0
 16 42  1  0  0  0
 17 19  1  0  0  0
 17 18  1  0  0  0
 18 43  1  0  0  0
 19 21  1  0  0  0
 19 20  2  0  0  0
 21 22  1  0  0  0
 21 44  1  0  0  0
 22 23  1  0  0  0
 22 45  1  0  0  0
 22 46  1  0  0  0
 23 28  2  0  0  0
 23 24  1  0  0  0
 24 25  2  0  0  0
 24 47  1  0  0  0
 25 26  1  0  0  0
 25 48  1  0  0  0
 26 27  2  0  0  0
 26 49  1  0  0  0
 27 28  1  0  0  0
 27 50  1  0  0  0
 28 51  1  0  0  0
M  END
> <s_m_source_file>
../1fd7_ligand.sdf

> <i_m_source_file_index>
1

> <s_epik_input>
W09IXVtDSDJdW0NAQEhdKE8xKVtDQEhdKFtPSF0pW0NASF0oW09IXSlbQ0BASF0oW09IXSlbQ0BIXTFPYzJbY0hdW2NIXVtjSF1jKFtjSF0yKUMoPU8pW05IXVtDSDJdYzNbY0hdW2NIXVtjSF1bY0hdW2NIXTM=

> <s_epik_cmdline>
J2VwaWtfYXBwJywgJy1pbWFlJywgJ2xpZ2FuZF9wcm8ubWFlJywgJy1vbWFlJywgJ2xpZ2FuZF9wcmVwLm1hZScsICctbXMnLCAnMScsICctcGgnLCAnNycsICctcGh0JywgJzAuNScsICctbnQn

> <r_lp_tautomer_probability>
1

> <r_epik_Ionization_Penalty>
  0.0000

> <r_epik_Ionization_Penalty_Charging>
  0.0000

> <r_epik_Ionization_Penalty_Neutral>
  0.0000

> <r_epik_State_Penalty>
 -0.0000

> <r_epik_Charging_Adjusted_Penalty>
0

> <i_epik_Tot_Q>
0

> <i_epik_Tot_abs_Q>
0

> <s_epik_Chemistry_Notes>
This compound contains an acetal/aminal-like group ( X-CH(R)-Y where X, Y are N, S, or O) that may be acid/base labile, releasing an aldehyde.

$$$$
