1fdq_ligand
                    3D
 Schrodinger Suite 2020-3.
 55 54  0  0  1  0            999 V2000
    7.0540   13.4820   -0.1610 C   0  0  0  0  0  0
    8.2420   13.4820   -0.4650 O   0  0  0  0  0  0
    6.4390   14.5480    0.4130 O   0  5  0  0  0  0
    6.0960   12.3080   -0.3900 C   0  0  0  0  0  0
    6.7060   10.9930    0.1580 C   0  0  0  0  0  0
    7.0460    9.9960   -0.9350 C   0  0  0  0  0  0
    6.5630    8.7570   -1.0950 C   0  0  0  0  0  0
    5.5490    8.0660   -0.2000 C   0  0  0  0  0  0
    5.2110    6.6420   -0.6090 C   0  0  0  0  0  0
    4.2290    5.8940   -0.0870 C   0  0  0  0  0  0
    3.2340    6.2990    0.9860 C   0  0  0  0  0  0
    1.9680    6.8880    0.3890 C   0  0  0  0  0  0
    1.1480    7.7930    0.9360 C   0  0  0  0  0  0
    1.2540    8.4760    2.2870 C   0  0  0  0  0  0
    1.2220    9.9850    2.1460 C   0  0  0  0  0  0
    2.2310   10.8480    2.3310 C   0  0  0  0  0  0
    3.6570   10.5270    2.7260 C   0  0  0  0  0  0
    3.8380   10.3100    4.2170 C   0  0  0  0  0  0
    4.9550    9.8920    4.8260 C   0  0  0  0  0  0
    6.2810    9.5280    4.1870 C   0  0  0  0  0  0
    6.3280    8.0740    3.7530 C   0  0  0  0  0  0
    7.3790    7.2460    3.7920 C   0  0  0  0  0  0
    8.7660    7.5750    4.3090 C   0  0  0  0  0  0
    9.6350    6.3170    4.4370 C   0  0  0  0  0  0
    5.1458   12.5037    0.1284 H   0  0  0  0  0  0
    5.9087   12.1924   -1.4678 H   0  0  0  0  0  0
    7.6336   11.2189    0.7043 H   0  0  0  0  0  0
    5.9880   10.5112    0.8380 H   0  0  0  0  0  0
    7.7807   10.3964   -1.6491 H   0  0  0  0  0  0
    6.9014    8.1396   -1.9402 H   0  0  0  0  0  0
    5.9390    8.0186    0.8275 H   0  0  0  0  0  0
    4.6062    8.6325   -0.2085 H   0  0  0  0  0  0
    5.8520    6.2317   -1.4032 H   0  0  0  0  0  0
    4.0787    4.8619   -0.4365 H   0  0  0  0  0  0
    2.9566    5.4162    1.5808 H   0  0  0  0  0  0
    3.6899    7.0549    1.6424 H   0  0  0  0  0  0
    1.7527    6.4843   -0.6113 H   0  0  0  0  0  0
    0.2577    8.1320    0.3860 H   0  0  0  0  0  0
    0.4107    8.1662    2.9217 H   0  0  0  0  0  0
    2.2003    8.1899    2.7693 H   0  0  0  0  0  0
    0.2276   10.3554    1.8563 H   0  0  0  0  0  0
    2.0642   11.9267    2.1945 H   0  0  0  0  0  0
    3.9799    9.6064    2.2178 H   0  0  0  0  0  0
    4.3149   11.3581    2.4320 H   0  0  0  0  0  0
    2.9380   10.5306    4.8097 H   0  0  0  0  0  0
    4.9757    9.7792    5.9200 H   0  0  0  0  0  0
    6.4442   10.1554    3.2983 H   0  0  0  0  0  0
    7.0941    9.6957    4.9086 H   0  0  0  0  0  0
    5.3599    7.7163    3.3725 H   0  0  0  0  0  0
    7.2799    6.2138    3.4248 H   0  0  0  0  0  0
    9.2611    8.2694    3.6142 H   0  0  0  0  0  0
    8.6860    8.0437    5.3009 H   0  0  0  0  0  0
   10.6302    6.5956    4.8137 H   0  0  0  0  0  0
    9.7365    5.8396    3.4512 H   0  0  0  0  0  0
    9.1613    5.6139    5.1379 H   0  0  0  0  0  0
  1  4  1  0  0  0
  1  3  1  0  0  0
  1  2  2  0  0  0
  4  5  1  0  0  0
  4 25  1  0  0  0
  4 26  1  0  0  0
  5  6  1  0  0  0
  5 27  1  0  0  0
  5 28  1  0  0  0
  6  7  2  0  0  0
  6 29  1  0  0  0
  7  8  1  0  0  0
  7 30  1  0  0  0
  8  9  1  0  0  0
  8 31  1  0  0  0
  8 32  1  0  0  0
  9 10  2  0  0  0
  9 33  1  0  0  0
 10 11  1  0  0  0
 10 34  1  0  0  0
 11 12  1  0  0  0
 11 35  1  0  0  0
 11 36  1  0  0  0
 12 13  2  0  0  0
 12 37  1  0  0  0
 13 14  1  0  0  0
 13 38  1  0  0  0
 14 15  1  0  0  0
 14 39  1  0  0  0
 14 40  1  0  0  0
 15 16  2  0  0  0
 15 41  1  0  0  0
 16 17  1  0  0  0
 16 42  1  0  0  0
 17 18  1  0  0  0
 17 43  1  0  0  0
 17 44  1  0  0  0
 18 19  2  0  0  0
 18 45  1  0  0  0
 19 20  1  0  0  0
 19 46  1  0  0  0
 20 21  1  0  0  0
 20 47  1  0  0  0
 20 48  1  0  0  0
 21 22  2  0  0  0
 21 49  1  0  0  0
 22 23  1  0  0  0
 22 50  1  0  0  0
 23 24  1  0  0  0
 23 51  1  0  0  0
 23 52  1  0  0  0
 24 53  1  0  0  0
 24 54  1  0  0  0
 24 55  1  0  0  0
M  CHG  1   3  -1
M  END
> <s_m_source_file>
../1fdq_ligand.sdf

> <i_m_source_file_index>
1

> <s_epik_input>
Tz1DKFtPSF0pW0NIMl1bQ0gyXS9bQ0hdPVtDSF1cW0NIMl0vW0NIXT1bQ0hdXFtDSDJdL1tDSF09W0NIXVxbQ0gyXS9bQ0hdPVtDSF1cW0NIMl0vW0NIXT1bQ0hdXFtDSDJdL1tDSF09W0NIXVxbQ0gyXVtDSDNd

> <s_epik_cmdline>
J2VwaWtfYXBwJywgJy1pbWFlJywgJ2xpZ2FuZF9wcm8ubWFlJywgJy1vbWFlJywgJ2xpZ2FuZF9wcmVwLm1hZScsICctbXMnLCAnMScsICctcGgnLCAnNycsICctcGh0JywgJzAuNScsICctbnQn

> <r_lp_tautomer_probability>
1

> <r_epik_Ionization_Penalty>
  0.0035

> <r_epik_Ionization_Penalty_Charging>
  0.0035

> <r_epik_Ionization_Penalty_Neutral>
  0.0000

> <r_epik_State_Penalty>
 -0.0000

> <r_epik_Charging_Adjusted_Penalty>
0.00348628587541727

> <i_epik_Tot_Q>
-1

> <i_epik_Tot_abs_Q>
1

$$$$
