1fe3_ligand
                    3D
 Schrodinger Suite 2020-3.
 55 54  0  0  1  0            999 V2000
   94.3250   71.7690  -40.2280 C   0  0  0  0  0  0
   94.7080   70.6330  -40.5840 O   0  5  0  0  0  0
   93.1710   72.1910  -40.4460 O   0  0  0  0  0  0
   95.2990   72.6770  -39.4950 C   0  0  0  0  0  0
   96.7040   72.6320  -40.0770 C   0  0  0  0  0  0
   97.6550   73.5410  -39.3140 C   0  0  0  0  0  0
   99.0660   73.4470  -39.8780 C   0  0  0  0  0  0
  100.0440   74.3620  -39.1450 C   0  0  0  0  0  0
   99.7260   75.8380  -39.3600 C   0  0  0  0  0  0
   99.7580   76.2030  -40.8360 C   0  0  0  0  0  0
   99.5260   77.5540  -41.5150 C   0  0  0  0  0  0
   99.3520   77.6130  -42.8400 C   0  0  0  0  0  0
   98.0020   77.3300  -43.5010 C   0  0  0  0  0  0
   96.6510   77.3740  -42.8010 C   0  0  0  0  0  0
   95.6040   76.5650  -43.5480 C   0  0  0  0  0  0
   95.8170   75.0710  -43.3430 C   0  0  0  0  0  0
   94.7930   74.2430  -44.1080 C   0  0  0  0  0  0
   95.0230   74.3040  -45.6130 C   0  0  0  0  0  0
   96.3440   73.6530  -46.0110 C   0  0  0  0  0  0
   96.3630   72.1670  -45.6790 C   0  0  0  0  0  0
   94.9456   73.7170  -39.5535 H   0  0  0  0  0  0
   95.3635   72.3704  -38.4406 H   0  0  0  0  0  0
   97.0898   71.6032  -40.0245 H   0  0  0  0  0  0
   96.6768   72.9603  -41.1265 H   0  0  0  0  0  0
   97.3106   74.5826  -39.3948 H   0  0  0  0  0  0
   97.6768   73.2431  -38.2553 H   0  0  0  0  0  0
   99.4303   72.4133  -39.7840 H   0  0  0  0  0  0
   99.0570   73.7375  -40.9389 H   0  0  0  0  0  0
   99.9987   74.1571  -38.0652 H   0  0  0  0  0  0
  101.0646   74.1762  -39.5110 H   0  0  0  0  0  0
   98.7221   76.0577  -38.9677 H   0  0  0  0  0  0
  100.4688   76.4539  -38.8319 H   0  0  0  0  0  0
  100.7541   75.9817  -41.2469 H   0  0  0  0  0  0
   99.0001   75.6159  -41.3754 H   0  0  0  0  0  0
   98.6170   78.0189  -41.1055 H   0  0  0  0  0  0
  100.3889   78.2105  -41.3297 H   0  0  0  0  0  0
   99.5882   78.6266  -43.1960 H   0  0  0  0  0  0
  100.0183   76.8878  -43.3300 H   0  0  0  0  0  0
   97.8378   78.0454  -44.3203 H   0  0  0  0  0  0
   97.9977   76.3058  -43.9022 H   0  0  0  0  0  0
   96.7499   76.9596  -41.7869 H   0  0  0  0  0  0
   96.3039   78.4160  -42.7390 H   0  0  0  0  0  0
   94.6026   76.8316  -43.1790 H   0  0  0  0  0  0
   95.6690   76.7854  -44.6237 H   0  0  0  0  0  0
   96.8204   74.7918  -43.6968 H   0  0  0  0  0  0
   95.7254   74.8309  -42.2734 H   0  0  0  0  0  0
   94.8613   73.1917  -43.7915 H   0  0  0  0  0  0
   93.7827   74.6242  -43.8982 H   0  0  0  0  0  0
   94.2082   73.7761  -46.1301 H   0  0  0  0  0  0
   95.0439   75.3545  -45.9385 H   0  0  0  0  0  0
   96.4974   73.7674  -47.0942 H   0  0  0  0  0  0
   97.1697   74.1388  -45.4704 H   0  0  0  0  0  0
   97.3292   71.7363  -45.9805 H   0  0  0  0  0  0
   95.5506   71.6600  -46.2203 H   0  0  0  0  0  0
   96.2229   72.0314  -44.5964 H   0  0  0  0  0  0
  1  2  1  0  0  0
  1  3  2  0  0  0
  1  4  1  0  0  0
  4  5  1  0  0  0
  4 21  1  0  0  0
  4 22  1  0  0  0
  5  6  1  0  0  0
  5 23  1  0  0  0
  5 24  1  0  0  0
  6  7  1  0  0  0
  6 25  1  0  0  0
  6 26  1  0  0  0
  7  8  1  0  0  0
  7 27  1  0  0  0
  7 28  1  0  0  0
  8  9  1  0  0  0
  8 29  1  0  0  0
  8 30  1  0  0  0
  9 10  1  0  0  0
  9 31  1  0  0  0
  9 32  1  0  0  0
 10 11  1  0  0  0
 10 33  1  0  0  0
 10 34  1  0  0  0
 11 12  1  0  0  0
 11 35  1  0  0  0
 11 36  1  0  0  0
 12 13  1  0  0  0
 12 37  1  0  0  0
 12 38  1  0  0  0
 13 14  1  0  0  0
 13 39  1  0  0  0
 13 40  1  0  0  0
 14 15  1  0  0  0
 14 41  1  0  0  0
 14 42  1  0  0  0
 15 16  1  0  0  0
 15 43  1  0  0  0
 15 44  1  0  0  0
 16 17  1  0  0  0
 16 45  1  0  0  0
 16 46  1  0  0  0
 17 18  1  0  0  0
 17 47  1  0  0  0
 17 48  1  0  0  0
 18 19  1  0  0  0
 18 49  1  0  0  0
 18 50  1  0  0  0
 19 20  1  0  0  0
 19 51  1  0  0  0
 19 52  1  0  0  0
 20 53  1  0  0  0
 20 54  1  0  0  0
 20 55  1  0  0  0
M  CHG  1   2  -1
M  END
> <s_m_source_file>
../1fe3_ligand.sdf

> <i_m_source_file_index>
1

> <s_epik_input>
W09IXUMoPU8pW0NIMl1bQ0gyXVtDSDJdW0NIMl1bQ0gyXVtDSDJdW0NIMl1bQ0gyXVtDSDJdW0NIMl1bQ0gyXVtDSDJdW0NIMl1bQ0gyXVtDSDJdW0NIMl1bQ0gzXQ==

> <s_epik_cmdline>
J2VwaWtfYXBwJywgJy1pbWFlJywgJ2xpZ2FuZF9wcm8ubWFlJywgJy1vbWFlJywgJ2xpZ2FuZF9wcmVwLm1hZScsICctbXMnLCAnMScsICctcGgnLCAnNycsICctcGh0JywgJzAuNScsICctbnQn

> <r_lp_tautomer_probability>
1

> <r_epik_Ionization_Penalty>
  0.0049

> <r_epik_Ionization_Penalty_Charging>
  0.0049

> <r_epik_Ionization_Penalty_Neutral>
  0.0000

> <r_epik_State_Penalty>
 -0.0000

> <r_epik_Charging_Adjusted_Penalty>
0.00486649495677768

> <i_epik_Tot_Q>
-1

> <i_epik_Tot_abs_Q>
1

$$$$
