1ff1_ligand
                    3D
 Schrodinger Suite 2020-3.
 95 96  0  0  1  0            999 V2000
    4.7460    7.0830    8.2030 N   0  3  0  0  0  0
    3.2920    7.1450    7.8670 C   0  0  2  0  0  0
    3.1040    7.3120    6.3550 C   0  0  0  0  0  0
    3.2120    8.3990    5.8240 O   0  0  0  0  0  0
    2.7630    8.3750    8.6060 C   0  0  0  0  0  0
    1.3440    8.3970    8.5230 O   0  0  0  0  0  0
    2.8190    6.2450    5.6580 N   0  0  0  0  0  0
    2.6230    6.3560    4.1830 C   0  0  2  0  0  0
    2.3230    4.9830    3.5750 C   0  0  0  0  0  0
    1.6330    4.8740    2.5810 O   0  0  0  0  0  0
    3.9460    6.9040    3.6420 C   0  0  2  0  0  0
    3.9450    6.8190    2.2240 O   0  0  0  0  0  0
    5.1110    6.0850    4.2030 C   0  0  0  0  0  0
    2.8370    3.9350    4.1590 N   0  0  0  0  0  0
    2.5810    2.5740    3.6030 C   0  0  2  0  0  0
    1.9030    1.6840    4.6500 C   0  0  0  0  0  0
    2.4400    1.4620    5.7170 O   0  0  0  0  0  0
    3.9630    2.0290    3.2500 C   0  0  0  0  0  0
    3.8130    0.6940    2.5200 C   0  0  0  0  0  0
    2.8610   -0.0280    2.7390 O   0  0  0  0  0  0
    4.7190    0.3350    1.6530 N   0  0  0  0  0  0
    0.7350    1.2050    4.3070 N   0  0  0  0  0  0
   -0.0310    0.3330    5.2300 C   0  0  2  0  0  0
    0.5280   -1.0970    5.2320 C   0  0  0  0  0  0
   -0.0350   -1.9880    5.8360 O   0  0  0  0  0  0
   -1.4420    0.3600    4.6530 C   0  0  0  0  0  0
   -1.2710    0.6750    3.1990 C   0  0  0  0  0  0
    0.0240    1.4320    3.0440 C   0  0  0  0  0  0
    1.6290   -1.3270    4.5640 N   0  0  0  0  0  0
    2.2100   -2.7060    4.5400 C   0  0  2  0  0  0
    3.6910   -2.6670    4.9340 C   0  0  0  0  0  0
    4.4450   -3.5720    4.6370 O   0  0  0  0  0  0
    2.0490   -3.1860    3.0930 C   0  0  0  0  0  0
    0.5840   -3.3450    2.7830 C   0  0  0  0  0  0
   -0.1660   -4.3260    3.4400 C   0  0  0  0  0  0
   -0.0230   -2.5110    1.8390 C   0  0  0  0  0  0
   -1.5260   -4.4740    3.1510 C   0  0  0  0  0  0
   -1.3820   -2.6590    1.5490 C   0  0  0  0  0  0
   -2.1330   -3.6410    2.2050 C   0  0  0  0  0  0
    4.1120   -1.6280    5.6030 N   0  0  0  0  0  0
    5.5430   -1.5350    6.0150 C   0  0  2  0  0  0
    5.6440   -1.3620    7.5340 C   0  0  0  0  0  0
    4.7140   -0.8240    8.1110 O   0  5  0  0  0  0
    6.0850   -0.3000    5.2930 C   0  0  0  0  0  0
    7.2960   -0.6960    4.4460 C   0  0  0  0  0  0
    6.8540   -1.6500    3.3360 C   0  0  0  0  0  0
    7.9170    0.5590    3.8250 C   0  0  0  0  0  0
    6.6480   -1.7720    8.0910 O   0  0  0  0  0  0
    5.2012    6.2153    7.7031 H   0  0  0  0  0  0
    4.8668    6.9839    9.2918 H   0  0  0  0  0  0
    5.2408    8.0042    7.8615 H   0  0  0  0  0  0
    2.7809    6.2193    8.1700 H   0  0  0  0  0  0
    3.0700    8.3289    9.6613 H   0  0  0  0  0  0
    3.1736    9.2850    8.1441 H   0  0  0  0  0  0
    0.7779    9.2119    8.9979 H   0  0  0  0  0  0
    2.7233    5.2676    6.1535 H   0  0  0  0  0  0
    1.7695    7.0113    3.9548 H   0  0  0  0  0  0
    4.0630    7.9727    3.8746 H   0  0  0  0  0  0
    3.1755    7.3472    1.6419 H   0  0  0  0  0  0
    5.1108    6.1516    5.3010 H   0  0  0  0  0  0
    6.0597    6.4813    3.8118 H   0  0  0  0  0  0
    4.9998    5.0336    3.8993 H   0  0  0  0  0  0
    3.4578    4.0535    5.0593 H   0  0  0  0  0  0
    1.9117    2.6256    2.7316 H   0  0  0  0  0  0
    4.4847    2.7462    2.5993 H   0  0  0  0  0  0
    4.5447    1.8797    4.1716 H   0  0  0  0  0  0
    5.5808    0.9893    1.4552 H   0  0  0  0  0  0
    4.6212   -0.6221    1.1197 H   0  0  0  0  0  0
    0.0284    0.7000    6.2653 H   0  0  0  0  0  0
   -1.9167   -0.6215    4.7992 H   0  0  0  0  0  0
   -2.0331    1.1332    5.1656 H   0  0  0  0  0  0
   -1.2386   -0.2612    2.6224 H   0  0  0  0  0  0
   -2.1166    1.2885    2.8548 H   0  0  0  0  0  0
   -0.1448    2.5103    2.9070 H   0  0  0  0  0  0
    0.6274    1.0463    2.2091 H   0  0  0  0  0  0
    2.1276   -0.5106    4.0210 H   0  0  0  0  0  0
    1.6943   -3.3606    5.2581 H   0  0  0  0  0  0
    2.4923   -2.4465    2.4099 H   0  0  0  0  0  0
    2.5593   -4.1525    2.9683 H   0  0  0  0  0  0
    0.3091   -4.9742    4.1763 H   0  0  0  0  0  0
    0.5633   -1.7461    1.3298 H   0  0  0  0  0  0
   -2.1125   -5.2374    3.6621 H   0  0  0  0  0  0
   -1.8566   -2.0103    0.8127 H   0  0  0  0  0  0
   -3.1929   -3.7570    1.9784 H   0  0  0  0  0  0
    3.4113   -0.8209    5.8629 H   0  0  0  0  0  0
    6.0914   -2.4501    5.7471 H   0  0  0  0  0  0
    5.3025    0.1171    4.6421 H   0  0  0  0  0  0
    6.3865    0.4551    6.0339 H   0  0  0  0  0  0
    8.0393   -1.1980    5.0827 H   0  0  0  0  0  0
    6.4082   -2.5509    3.7828 H   0  0  0  0  0  0
    7.7258   -1.9349    2.7287 H   0  0  0  0  0  0
    6.1100   -1.1506    2.6980 H   0  0  0  0  0  0
    8.2347    1.2448    4.6242 H   0  0  0  0  0  0
    7.1732    1.0589    3.1871 H   0  0  0  0  0  0
    8.7890    0.2746    3.2178 H   0  0  0  0  0  0
  1  2  1  0  0  0
  1 49  1  0  0  0
  1 50  1  0  0  0
  1 51  1  0  0  0
  2  3  1  0  0  0
  2  5  1  0  0  0
  2 52  1  0  0  0
  3  4  2  0  0  0
  3  7  1  0  0  0
  5  6  1  0  0  0
  5 53  1  0  0  0
  5 54  1  0  0  0
  6 55  1  0  0  0
  7  8  1  0  0  0
  7 56  1  0  0  0
  8  9  1  0  0  0
  8 11  1  0  0  0
  8 57  1  0  0  0
  9 10  2  0  0  0
  9 14  1  0  0  0
 11 12  1  0  0  0
 11 13  1  0  0  0
 11 58  1  0  0  0
 12 59  1  0  0  0
 13 60  1  0  0  0
 13 61  1  0  0  0
 13 62  1  0  0  0
 14 15  1  0  0  0
 14 63  1  0  0  0
 15 16  1  0  0  0
 15 18  1  0  0  0
 15 64  1  0  0  0
 16 17  2  0  0  0
 16 22  1  0  0  0
 18 19  1  0  0  0
 18 65  1  0  0  0
 18 66  1  0  0  0
 19 20  2  0  0  0
 19 21  1  0  0  0
 21 67  1  0  0  0
 21 68  1  0  0  0
 22 23  1  0  0  0
 22 28  1  0  0  0
 23 24  1  0  0  0
 23 26  1  0  0  0
 23 69  1  0  0  0
 24 25  2  0  0  0
 24 29  1  0  0  0
 26 27  1  0  0  0
 26 70  1  0  0  0
 26 71  1  0  0  0
 27 28  1  0  0  0
 27 72  1  0  0  0
 27 73  1  0  0  0
 28 74  1  0  0  0
 28 75  1  0  0  0
 29 30  1  0  0  0
 29 76  1  0  0  0
 30 31  1  0  0  0
 30 33  1  0  0  0
 30 77  1  0  0  0
 31 32  2  0  0  0
 31 40  1  0  0  0
 33 34  1  0  0  0
 33 78  1  0  0  0
 33 79  1  0  0  0
 34 35  2  0  0  0
 34 36  1  0  0  0
 35 37  1  0  0  0
 35 80  1  0  0  0
 36 38  2  0  0  0
 36 81  1  0  0  0
 37 39  2  0  0  0
 37 82  1  0  0  0
 38 39  1  0  0  0
 38 83  1  0  0  0
 39 84  1  0  0  0
 40 41  1  0  0  0
 40 85  1  0  0  0
 41 42  1  0  0  0
 41 44  1  0  0  0
 41 86  1  0  0  0
 42 43  1  0  0  0
 42 48  2  0  0  0
 44 45  1  0  0  0
 44 87  1  0  0  0
 44 88  1  0  0  0
 45 46  1  0  0  0
 45 47  1  0  0  0
 45 89  1  0  0  0
 46 90  1  0  0  0
 46 91  1  0  0  0
 46 92  1  0  0  0
 47 93  1  0  0  0
 47 94  1  0  0  0
 47 95  1  0  0  0
M  CHG  2   1   1  43  -1
M  END
> <s_m_source_file>
../1ff1_ligand.sdf

> <i_m_source_file_index>
1

> <s_epik_input>
W09IXVtDSDJdW0NASF0oW05IMytdKUMoPU8pW05IXVtDQEBIXShbQ0BIXShbT0hdKVtDSDNdKUMoPU8pW05IXVtDQEBIXShbQ0gyXUMoPU8pW05IMl0pQyg9TylOMVtDQEBIXShbQ0gyXVtDSDJdW0NIMl0xKUMoPU8pW05IXVtDQEhdKEMoPU8pW05IXVtDQEhdKEMoPU8pW09IXSlbQ0gyXVtDSF0oW0NIM10pW0NIM10pW0NIMl1jMltjSF1bY0hdW2NIXVtjSF1bY0hdMg==

> <s_epik_cmdline>
J2VwaWtfYXBwJywgJy1pbWFlJywgJ2xpZ2FuZF9wcm8ubWFlJywgJy1vbWFlJywgJ2xpZ2FuZF9wcmVwLm1hZScsICctbXMnLCAnMScsICctcGgnLCAnNycsICctcGh0JywgJzAuNScsICctbnQn

> <r_epik_Ionization_Penalty>
  0.1535

> <r_epik_Ionization_Penalty_Charging>
  0.1535

> <r_epik_Ionization_Penalty_Neutral>
  0.0000

> <r_epik_State_Penalty>
  0.1426

> <r_epik_Charging_Adjusted_Penalty>
0.296134235017009

> <i_epik_Tot_Q>
0

> <i_epik_Tot_abs_Q>
2

$$$$
