1fgi_ligand
                    3D
 Schrodinger Suite 2020-3.
 36 38  0  0  1  0            999 V2000
    5.7320    2.1500   20.4400 N   0  0  0  0  0  0
    6.5130    2.4730   21.5170 C   0  0  0  0  0  0
    6.4480    1.8200   22.5560 O   0  0  0  0  0  0
    7.3090    3.5360   21.2270 C   0  0  0  0  0  0
    7.4410    4.9330   19.0220 C   0  0  0  0  0  0
    6.8970    5.0140   17.7340 C   0  0  0  0  0  0
    5.9110    4.0990   17.3010 C   0  0  0  0  0  0
    5.4480    3.1030   18.1220 C   0  0  0  0  0  0
    5.9940    3.0250   19.4180 C   0  0  0  0  0  0
    6.9850    3.9220   19.8820 C   0  0  0  0  0  0
    8.3610    4.1930   22.1030 C   0  0  0  0  0  0
    8.4470    2.6740   24.1080 N   0  0  0  0  0  0
    8.9240    3.7030   23.4050 C   0  0  0  0  0  0
    9.9880    4.2570   24.0490 C   0  0  0  0  0  0
   10.1990    3.5000   25.1750 C   0  0  0  0  0  0
    9.2110    2.5460   25.1870 C   0  0  0  0  0  0
   11.2890    3.7210   26.2330 C   0  0  0  0  0  0
   10.8120    5.4240   23.5350 C   0  0  0  0  0  0
   11.7120    4.9870   22.4300 C   0  0  0  0  0  0
   12.4730    6.1130   21.7160 C   0  0  0  0  0  0
   11.9370    7.2490   21.5710 O   0  5  0  0  0  0
   13.6100    5.8150   21.2600 O   0  0  0  0  0  0
    4.9888    1.3507   20.3028 H   0  0  0  0  0  0
    8.2027    5.6405   19.3497 H   0  0  0  0  0  0
    7.2395    5.7949   17.0550 H   0  0  0  0  0  0
    5.5094    4.1869   16.2915 H   0  0  0  0  0  0
    4.6871    2.3991   17.7848 H   0  0  0  0  0  0
    8.8073    5.1520   21.8011 H   0  0  0  0  0  0
    9.0743    1.7958   25.9658 H   0  0  0  0  0  0
   11.9269    4.5649   25.9315 H   0  0  0  0  0  0
   11.9019    2.8121   26.3234 H   0  0  0  0  0  0
   10.8193    3.9444   27.2023 H   0  0  0  0  0  0
   10.1403    6.2089   23.1572 H   0  0  0  0  0  0
   11.4249    5.8289   24.3538 H   0  0  0  0  0  0
   12.4737    4.3001   22.8274 H   0  0  0  0  0  0
   11.1214    4.4724   21.6578 H   0  0  0  0  0  0
  1  9  1  0  0  0
  1  2  1  0  0  0
  1 23  1  0  0  0
  2  4  1  0  0  0
  2  3  2  0  0  0
  4 11  2  0  0  0
  4 10  1  0  0  0
  5 10  1  0  0  0
  5  6  2  0  0  0
  5 24  1  0  0  0
  6  7  1  0  0  0
  6 25  1  0  0  0
  7  8  2  0  0  0
  7 26  1  0  0  0
  8  9  1  0  0  0
  8 27  1  0  0  0
  9 10  2  0  0  0
 11 13  1  0  0  0
 11 28  1  0  0  0
 12 13  2  0  0  0
 12 16  1  0  0  0
 13 14  1  0  0  0
 14 18  1  0  0  0
 14 15  2  0  0  0
 15 17  1  0  0  0
 15 16  1  0  0  0
 16 29  1  0  0  0
 17 30  1  0  0  0
 17 31  1  0  0  0
 17 32  1  0  0  0
 18 19  1  0  0  0
 18 33  1  0  0  0
 18 34  1  0  0  0
 19 20  1  0  0  0
 19 35  1  0  0  0
 19 36  1  0  0  0
 20 22  2  0  0  0
 20 21  1  0  0  0
M  CHG  1  21  -1
M  END
> <s_m_source_file>
../1fgi_ligand.sdf

> <i_m_source_file_index>
1

> <s_epik_input>
W2NIXTFbY0hdW2NIXVtjSF1jKGMxMilDKFxDKD1PKVtOSF0yKT1bQ0hdXEMzPU5bQ0gyXUMoW0NIM10pPUMzW0NIMl1bQ0gyXUMoPU8pW09IXQ==

> <s_epik_cmdline>
J2VwaWtfYXBwJywgJy1pbWFlJywgJ2xpZ2FuZF9wcm8ubWFlJywgJy1vbWFlJywgJ2xpZ2FuZF9wcmVwLm1hZScsICctbXMnLCAnMScsICctcGgnLCAnNycsICctcGh0JywgJzAuNScsICctbnQn

> <r_lp_tautomer_probability>
1

> <r_epik_Ionization_Penalty>
  0.0005

> <r_epik_Ionization_Penalty_Charging>
  0.0005

> <r_epik_Ionization_Penalty_Neutral>
  0.0000

> <r_epik_State_Penalty>
 -0.0000

> <r_epik_Charging_Adjusted_Penalty>
0.000535012715494322

> <i_epik_Tot_Q>
-1

> <i_epik_Tot_abs_Q>
1

> <s_epik_Chemistry_Notes>
This compound has an imine and may undergo hydrolysis.

$$$$
