1fh7_ligand
                    3D
 Schrodinger Suite 2020-3.
 38 39  0  0  1  0            999 V2000
   17.1220   65.3790   38.5060 C   0  0  1  0  0  0
   16.8660   64.3700   39.6420 C   0  0  1  0  0  0
   15.4110   63.8560   39.6120 C   0  0  2  0  0  0
   14.4530   65.0350   39.5620 C   0  0  1  0  0  0
   14.7990   65.9160   38.3550 C   0  0  0  0  0  0
   17.7440   63.2640   39.4700 O   0  0  0  0  0  0
   15.1520   63.0910   40.7840 O   0  0  0  0  0  0
   13.1100   64.5590   39.4820 O   0  0  0  0  0  0
   16.1330   66.4110   38.5210 O   0  0  0  0  0  0
   20.5600   68.0800   35.7980 C   0  0  0  0  0  0
   20.2130   68.8110   37.0190 C   0  0  2  0  0  0
   21.1550   69.7400   37.4210 O   0  0  0  0  0  0
   19.7320   67.9200   38.1950 C   0  0  1  0  0  0
   19.1130   68.7080   39.2010 O   0  0  0  0  0  0
   18.7040   66.9000   37.6700 C   0  0  2  0  0  0
   18.4290   65.9560   38.6960 O   0  0  0  0  0  0
   19.3030   66.1600   36.4410 C   0  0  0  0  0  0
   19.6740   67.1090   35.4040 N   0  3  0  0  0  0
   17.0756   64.9301   37.5028 H   0  0  0  0  0  0
   17.1005   64.8164   40.6196 H   0  0  0  0  0  0
   15.2363   63.1747   38.7662 H   0  0  0  0  0  0
   14.4824   65.6183   40.4942 H   0  0  0  0  0  0
   14.7322   65.3185   37.4338 H   0  0  0  0  0  0
   14.0911   66.7561   38.2993 H   0  0  0  0  0  0
   18.8326   63.4220   39.4620 H   0  0  0  0  0  0
   15.7483   62.1914   40.9965 H   0  0  0  0  0  0
   12.7078   63.9116   40.2752 H   0  0  0  0  0  0
   21.5438   67.6247   35.9847 H   0  0  0  0  0  0
   20.6509   68.8370   35.0051 H   0  0  0  0  0  0
   19.4214   69.4900   36.6692 H   0  0  0  0  0  0
   21.5846   70.4398   36.6890 H   0  0  0  0  0  0
   20.5820   67.4396   38.7017 H   0  0  0  0  0  0
   19.6831   69.5012   39.7067 H   0  0  0  0  0  0
   17.7385   67.3742   37.4400 H   0  0  0  0  0  0
   20.1987   65.6014   36.7501 H   0  0  0  0  0  0
   18.5572   65.4611   36.0345 H   0  0  0  0  0  0
   18.7418   67.5810   35.0601 H   0  0  0  0  0  0
   20.1130   66.5234   34.5829 H   0  0  0  0  0  0
  1  9  1  0  0  0
  1  2  1  0  0  0
  1 16  1  0  0  0
  1 19  1  0  0  0
  2  6  1  0  0  0
  2  3  1  0  0  0
  2 20  1  0  0  0
  3  7  1  0  0  0
  3  4  1  0  0  0
  3 21  1  0  0  0
  4  8  1  0  0  0
  4  5  1  0  0  0
  4 22  1  0  0  0
  5  9  1  0  0  0
  5 23  1  0  0  0
  5 24  1  0  0  0
  6 25  1  0  0  0
  7 26  1  0  0  0
  8 27  1  0  0  0
 10 18  1  0  0  0
 10 11  1  0  0  0
 10 28  1  0  0  0
 10 29  1  0  0  0
 11 13  1  0  0  0
 11 12  1  0  0  0
 11 30  1  0  0  0
 12 31  1  0  0  0
 13 15  1  0  0  0
 13 14  1  0  0  0
 13 32  1  0  0  0
 14 33  1  0  0  0
 15 17  1  0  0  0
 15 16  1  0  0  0
 15 34  1  0  0  0
 17 18  1  0  0  0
 17 35  1  0  0  0
 17 36  1  0  0  0
 18 37  1  0  0  0
 18 38  1  0  0  0
M  CHG  1  18   1
M  END
> <s_m_source_file>
../1fh7_ligand.sdf

> <i_m_source_file_index>
1

> <s_epik_input>
TzFbQ0gyXVtDQEBIXShbT0hdKVtDQEhdKFtPSF0pW0NAQEhdKFtPSF0pW0NAQEhdMU9bQ0BASF0oW0NAQEhdMltPSF0pW0NIMl1bTkgyK11bQ0gyXVtDQEBIXTJbT0hd

> <s_epik_cmdline>
J2VwaWtfYXBwJywgJy1pbWFlJywgJ2xpZ2FuZF9wcm8ubWFlJywgJy1vbWFlJywgJ2xpZ2FuZF9wcmVwLm1hZScsICctbXMnLCAnMScsICctcGgnLCAnNycsICctcGh0JywgJzAuNScsICctbnQn

> <r_lp_tautomer_probability>
1

> <r_epik_Ionization_Penalty>
  0.0052

> <r_epik_Ionization_Penalty_Charging>
  0.0051

> <r_epik_Ionization_Penalty_Neutral>
  0.0000

> <r_epik_State_Penalty>
 -0.0000

> <r_epik_Charging_Adjusted_Penalty>
0.00514212605680371

> <i_epik_Tot_Q>
1

> <i_epik_Tot_abs_Q>
1

> <s_epik_Chemistry_Notes>
This compound contains an acetal/aminal-like group ( X-CH(R)-Y where X, Y are N, S, or O) that may be acid/base labile, releasing an aldehyde.

$$$$
