1fh8_ligand
                    3D
 Schrodinger Suite 2020-3.
 37 38  0  0  1  0            999 V2000
  -62.5840   16.9810   57.3620 C   0  0  1  0  0  0
  -61.5230   16.8090   58.4660 C   0  0  1  0  0  0
  -60.9540   15.3920   58.4700 C   0  0  2  0  0  0
  -62.0830   14.3440   58.4220 C   0  0  1  0  0  0
  -63.0670   14.6550   57.2980 C   0  0  0  0  0  0
  -60.4710   17.7510   58.2810 O   0  0  0  0  0  0
  -60.1920   15.1950   59.6520 O   0  0  0  0  0  0
  -61.5430   13.0350   58.2460 O   0  0  0  0  0  0
  -63.6040   15.9790   57.4720 O   0  0  0  0  0  0
  -65.0070   20.4660   54.4730 N   0  3  0  0  0  0
  -65.9520   19.9430   55.5110 C   0  0  0  0  0  0
  -65.0790   19.5820   56.7600 C   0  0  1  0  0  0
  -65.8800   19.0610   57.8140 O   0  0  0  0  0  0
  -63.9760   18.5830   56.3350 C   0  0  2  0  0  0
  -63.2060   18.2750   57.4890 O   0  0  0  0  0  0
  -63.1180   19.1780   55.2020 C   0  0  0  0  0  0
  -64.0450   19.4720   54.0610 C   0  0  0  0  0  0
  -62.1482   16.8910   56.3560 H   0  0  0  0  0  0
  -61.9525   17.0414   59.4516 H   0  0  0  0  0  0
  -60.2571   15.2639   57.6286 H   0  0  0  0  0  0
  -62.6107   14.3055   59.3864 H   0  0  0  0  0  0
  -62.5479   14.5976   56.3299 H   0  0  0  0  0  0
  -63.8887   13.9240   57.3173 H   0  0  0  0  0  0
  -60.6955   18.8274   58.2515 H   0  0  0  0  0  0
  -59.3345   15.8490   59.8690 H   0  0  0  0  0  0
  -60.8120   12.6401   58.9669 H   0  0  0  0  0  0
  -64.4795   21.3331   54.8972 H   0  0  0  0  0  0
  -65.5987   20.7865   53.6028 H   0  0  0  0  0  0
  -66.6916   20.7189   55.7577 H   0  0  0  0  0  0
  -66.4694   19.0540   55.1212 H   0  0  0  0  0  0
  -64.6407   20.4716   57.2359 H   0  0  0  0  0  0
  -66.7074   19.6592   58.2232 H   0  0  0  0  0  0
  -64.3719   17.6134   55.9987 H   0  0  0  0  0  0
  -62.6314   20.0990   55.5556 H   0  0  0  0  0  0
  -62.3503   18.4495   54.9022 H   0  0  0  0  0  0
  -64.5714   18.5519   53.7673 H   0  0  0  0  0  0
  -63.4675   19.8529   53.2057 H   0  0  0  0  0  0
  1  9  1  0  0  0
  1  2  1  0  0  0
  1 15  1  0  0  0
  1 18  1  0  0  0
  2  6  1  0  0  0
  2  3  1  0  0  0
  2 19  1  0  0  0
  3  7  1  0  0  0
  3  4  1  0  0  0
  3 20  1  0  0  0
  4  8  1  0  0  0
  4  5  1  0  0  0
  4 21  1  0  0  0
  5  9  1  0  0  0
  5 22  1  0  0  0
  5 23  1  0  0  0
  6 24  1  0  0  0
  7 25  1  0  0  0
  8 26  1  0  0  0
 10 17  1  0  0  0
 10 11  1  0  0  0
 10 27  1  0  0  0
 10 28  1  0  0  0
 11 12  1  0  0  0
 11 29  1  0  0  0
 11 30  1  0  0  0
 12 14  1  0  0  0
 12 13  1  0  0  0
 12 31  1  0  0  0
 13 32  1  0  0  0
 14 16  1  0  0  0
 14 15  1  0  0  0
 14 33  1  0  0  0
 16 17  1  0  0  0
 16 34  1  0  0  0
 16 35  1  0  0  0
 17 36  1  0  0  0
 17 37  1  0  0  0
M  CHG  1  10   1
M  END
> <s_m_source_file>
../1fh8_ligand.sdf

> <i_m_source_file_index>
1

> <s_epik_input>
TzFbQ0gyXVtDQEBIXShbT0hdKVtDQEhdKFtPSF0pW0NAQEhdKFtPSF0pW0NAQEhdMU9bQ0BASF0yW0NIMl1bQ0gyXVtOSDIrXVtDSDJdW0NASF0yW09IXQ==

> <s_epik_cmdline>
J2VwaWtfYXBwJywgJy1pbWFlJywgJ2xpZ2FuZF9wcm8ubWFlJywgJy1vbWFlJywgJ2xpZ2FuZF9wcmVwLm1hZScsICctbXMnLCAnMScsICctcGgnLCAnNycsICctcGh0JywgJzAuNScsICctbnQn

> <r_lp_tautomer_probability>
1

> <r_epik_Ionization_Penalty>
  0.0068

> <r_epik_Ionization_Penalty_Charging>
  0.0068

> <r_epik_Ionization_Penalty_Neutral>
  0.0000

> <r_epik_State_Penalty>
 -0.0000

> <r_epik_Charging_Adjusted_Penalty>
0.00676565991405059

> <i_epik_Tot_Q>
1

> <i_epik_Tot_abs_Q>
1

> <s_epik_Chemistry_Notes>
This compound contains an acetal/aminal-like group ( X-CH(R)-Y where X, Y are N, S, or O) that may be acid/base labile, releasing an aldehyde.

$$$$
