1fhd_ligand
                    3D
 Schrodinger Suite 2020-3.
 40 42  0  0  1  0            999 V2000
  -62.3400   16.9760   57.1640 C   0  0  1  0  0  0
  -61.3240   16.7960   58.2880 C   0  0  1  0  0  0
  -60.7700   15.3610   58.2970 C   0  0  2  0  0  0
  -61.9050   14.3280   58.2450 C   0  0  1  0  0  0
  -62.8660   14.6490   57.0970 C   0  0  0  0  0  0
  -60.2620   17.7200   58.0980 O   0  0  0  0  0  0
  -60.0170   15.1620   59.4830 O   0  0  0  0  0  0
  -61.3730   13.0200   58.0770 O   0  0  0  0  0  0
  -63.3760   15.9880   57.2570 O   0  0  0  0  0  0
  -64.9770   19.6790   53.8930 C   0  0  0  0  0  0
  -65.7950   19.7300   55.2360 C   0  0  1  0  0  0
  -64.8270   19.5360   56.4280 C   0  0  2  0  0  0
  -63.7190   18.5240   56.0950 C   0  0  1  0  0  0
  -62.7790   19.0510   54.9930 C   0  0  0  0  0  0
  -63.6240   19.3650   53.8800 N   0  0  0  0  0  0
  -63.3290   19.4260   52.5390 C   0  0  0  0  0  0
  -64.4290   19.7520   51.8260 C   0  0  0  0  0  0
  -65.4620   19.9120   52.6610 N   0  3  0  0  0  0
  -66.5530   20.9040   55.4460 O   0  0  0  0  0  0
  -65.5560   19.0870   57.5520 O   0  0  0  0  0  0
  -62.9370   18.2880   57.2480 O   0  0  0  0  0  0
  -61.8710   16.8665   56.1750 H   0  0  0  0  0  0
  -61.7718   17.0430   59.2619 H   0  0  0  0  0  0
  -60.0731   15.2099   57.4594 H   0  0  0  0  0  0
  -62.4411   14.2931   59.2049 H   0  0  0  0  0  0
  -62.3311   14.5725   56.1388 H   0  0  0  0  0  0
  -63.7022   13.9345   57.1081 H   0  0  0  0  0  0
  -60.4715   18.7993   58.0643 H   0  0  0  0  0  0
  -59.1547   15.8089   59.7021 H   0  0  0  0  0  0
  -60.6601   12.6176   58.8118 H   0  0  0  0  0  0
  -66.6104   18.9931   55.1892 H   0  0  0  0  0  0
  -64.3813   20.4948   56.7314 H   0  0  0  0  0  0
  -64.1721   17.5625   55.8116 H   0  0  0  0  0  0
  -62.2503   19.9438   55.3581 H   0  0  0  0  0  0
  -62.0470   18.2725   54.7322 H   0  0  0  0  0  0
  -62.3446   19.2376   52.1106 H   0  0  0  0  0  0
  -64.4687   19.8665   50.7428 H   0  0  0  0  0  0
  -67.3024   21.2151   54.7032 H   0  0  0  0  0  0
  -66.3938   19.6855   57.9391 H   0  0  0  0  0  0
  -66.5223   20.1725   52.5275 H   0  0  0  0  0  0
  1  9  1  0  0  0
  1  2  1  0  0  0
  1 21  1  0  0  0
  1 22  1  0  0  0
  2  6  1  0  0  0
  2  3  1  0  0  0
  2 23  1  0  0  0
  3  7  1  0  0  0
  3  4  1  0  0  0
  3 24  1  0  0  0
  4  8  1  0  0  0
  4  5  1  0  0  0
  4 25  1  0  0  0
  5  9  1  0  0  0
  5 26  1  0  0  0
  5 27  1  0  0  0
  6 28  1  0  0  0
  7 29  1  0  0  0
  8 30  1  0  0  0
 10 18  2  0  0  0
 10 15  1  0  0  0
 10 11  1  0  0  0
 11 19  1  0  0  0
 11 12  1  0  0  0
 11 31  1  0  0  0
 12 20  1  0  0  0
 12 13  1  0  0  0
 12 32  1  0  0  0
 13 21  1  0  0  0
 13 14  1  0  0  0
 13 33  1  0  0  0
 14 15  1  0  0  0
 14 34  1  0  0  0
 14 35  1  0  0  0
 15 16  1  0  0  0
 16 17  2  0  0  0
 16 36  1  0  0  0
 17 18  1  0  0  0
 17 37  1  0  0  0
 18 40  1  0  0  0
 19 38  1  0  0  0
 20 39  1  0  0  0
M  CHG  1  18   1
M  END
> <s_m_source_file>
../1fhd_ligand.sdf

> <i_m_source_file_index>
1

> <s_epik_input>
TzFbQ0gyXVtDQEBIXShbT0hdKVtDQEhdKFtPSF0pW0NAQEhdKFtPSF0pW0NAQEhdMU9bQ0BASF0oW0NASF0oW09IXSlbQ0BIXTJbT0hdKVtDSDJdbihjMjMpW2NIXVtjSF1uMw==

> <s_epik_cmdline>
J2VwaWtfYXBwJywgJy1pbWFlJywgJ2xpZ2FuZF9wcm8ubWFlJywgJy1vbWFlJywgJ2xpZ2FuZF9wcmVwLm1hZScsICctbXMnLCAnMScsICctcGgnLCAnNycsICctcGh0JywgJzAuNScsICctbnQn

> <r_lp_tautomer_probability>
1

> <r_epik_Ionization_Penalty>
  0.2668

> <r_epik_Ionization_Penalty_Charging>
  0.0000

> <r_epik_Ionization_Penalty_Neutral>
  0.2668

> <r_epik_State_Penalty>
  0.2583

> <r_epik_Charging_Adjusted_Penalty>
0.258333081650819

> <i_epik_Tot_Q>
1

> <i_epik_Tot_abs_Q>
1

> <s_epik_Chemistry_Notes>
This compound contains an acetal/aminal-like group ( X-CH(R)-Y where X, Y are N, S, or O) that may be acid/base labile, releasing an aldehyde.

$$$$
