1fhr_ligand
                    3D
 Schrodinger Suite 2020-3.
125126  0  0  1  0            999 V2000
    2.7950  -17.6990   -8.4190 N   0  3  0  0  0  0
    3.6110  -18.4780   -9.3860 C   0  0  2  0  0  0
    4.6060  -17.5810  -10.1150 C   0  0  0  0  0  0
    4.5050  -17.3780  -11.3250 O   0  0  0  0  0  0
    2.6680  -19.1490  -10.3880 C   0  0  0  0  0  0
    1.9850  -20.3920   -9.8430 C   0  0  0  0  0  0
    0.7910  -20.0650   -8.9660 C   0  0  0  0  0  0
    0.3120  -18.9130   -9.0220 O   0  5  0  0  0  0
    0.3340  -20.9600   -8.2260 O   0  0  0  0  0  0
    5.5690  -17.0480   -9.3710 N   0  0  0  0  0  0
    6.5840  -16.1730   -9.9460 C   0  0  2  0  0  0
    7.8740  -16.9430  -10.2140 C   0  0  0  0  0  0
    8.9710  -16.4450   -9.9600 O   0  0  0  0  0  0
    6.8570  -14.9910   -9.0110 C   0  0  0  0  0  0
    6.7790  -13.6580   -9.7280 C   0  0  0  0  0  0
    7.6140  -12.7770   -9.4350 O   0  0  0  0  0  0
    5.8840  -13.4960  -10.5840 O   0  5  0  0  0  0
    7.7340  -18.1590  -10.7290 N   0  0  0  0  0  0
    8.8880  -19.0010  -11.0350 C   0  0  2  0  0  0
    9.0020  -19.2380  -12.5380 C   0  0  0  0  0  0
    9.4400  -20.3000  -12.9790 O   0  0  0  0  0  0
    8.8190  -20.3680  -10.3090 C   0  0  2  0  0  0
    7.5860  -20.4530   -9.4020 C   0  0  0  0  0  0
   10.0870  -20.6030   -9.5000 C   0  0  0  0  0  0
    7.6240  -19.4910   -8.2320 C   0  0  0  0  0  0
    8.6030  -18.2400  -13.3180 N   0  0  0  0  0  0
    8.6540  -18.3360  -14.7730 C   0  0  2  0  0  0
   10.0500  -18.0160  -15.2960 C   0  0  0  0  0  0
   10.8570  -17.3950  -14.6040 O   0  0  0  0  0  0
    7.6310  -17.3880  -15.3990 C   0  0  0  0  0  0
    6.2210  -17.6120  -14.9010 C   0  0  0  0  0  0
    5.6930  -18.8950  -14.8080 C   0  0  0  0  0  0
    5.4190  -16.5440  -14.5210 C   0  0  0  0  0  0
    4.4070  -19.1050  -14.3500 C   0  0  0  0  0  0
    4.1310  -16.7460  -14.0630 C   0  0  0  0  0  0
    3.6310  -18.0290  -13.9790 C   0  0  0  0  0  0
    2.3270  -18.2380  -13.5140 O   0  0  0  0  0  0
    1.1670  -18.2350  -14.5570 P   0  0  0  0  0  0
    1.6960  -19.0960  -15.7340 O   0  5  0  0  0  0
    0.0070  -18.9890  -13.8580 O   0  5  0  0  0  0
    0.7810  -16.8490  -14.9840 O   0  0  0  0  0  0
   10.3270  -18.4440  -16.5240 N   0  0  0  0  0  0
   11.6240  -18.2040  -17.1450 C   0  0  2  0  0  0
   11.5440  -18.3890  -18.6580 C   0  0  0  0  0  0
   10.9850  -19.3730  -19.1430 O   0  0  0  0  0  0
   12.6760  -19.1480  -16.5580 C   0  0  0  0  0  0
   12.4280  -20.6060  -16.8720 C   0  0  0  0  0  0
   11.6480  -21.3940  -16.0350 C   0  0  0  0  0  0
   12.9730  -21.1940  -18.0070 C   0  0  0  0  0  0
   11.4190  -22.7270  -16.3200 C   0  0  0  0  0  0
   12.7480  -22.5260  -18.2980 C   0  0  0  0  0  0
   11.9710  -23.2870  -17.4510 C   0  0  0  0  0  0
   11.7440  -24.6140  -17.7390 O   0  0  0  0  0  0
   12.1070  -17.4390  -19.3970 N   0  0  0  0  0  0
   12.0990  -17.4990  -20.8550 C   0  0  2  0  0  0
   13.5180  -17.4410  -21.4110 C   0  0  0  0  0  0
   14.4120  -16.8580  -20.7980 O   0  0  0  0  0  0
   11.2660  -16.3510  -21.4300 C   0  0  0  0  0  0
    9.7920  -16.3540  -21.0220 C   0  0  0  0  0  0
    9.1360  -15.0310  -21.3840 C   0  0  0  0  0  0
    9.0590  -17.5120  -21.6820 C   0  0  0  0  0  0
   13.7170  -18.0520  -22.5750 N   0  0  0  0  0  0
   15.0280  -18.0710  -23.2140 C   0  0  2  0  0  0
   15.3700  -16.7020  -23.7930 C   0  0  0  0  0  0
   16.3630  -16.0980  -23.3340 O   0  5  0  0  0  0
   15.0640  -19.1270  -24.3190 C   0  0  0  0  0  0
   14.8530  -20.5300  -23.7850 C   0  0  0  0  0  0
   15.6160  -20.9460  -22.8890 O   0  0  0  0  0  0
   13.9230  -21.2130  -24.2630 O   0  5  0  0  0  0
   14.6450  -16.2450  -24.7000 O   0  0  0  0  0  0
    3.4580  -17.2094   -7.6905 H   0  0  0  0  0  0
    2.1066  -18.3756   -7.8914 H   0  0  0  0  0  0
    2.2163  -16.9353   -8.9592 H   0  0  0  0  0  0
    4.1805  -19.2272   -8.8165 H   0  0  0  0  0  0
    1.8778  -18.4411  -10.6786 H   0  0  0  0  0  0
    3.2359  -19.4511  -11.2803 H   0  0  0  0  0  0
    1.6297  -21.0117  -10.6795 H   0  0  0  0  0  0
    2.7005  -20.9681   -9.2379 H   0  0  0  0  0  0
    5.5888  -17.2812   -8.2962 H   0  0  0  0  0  0
    6.1637  -15.8179  -10.8985 H   0  0  0  0  0  0
    6.1131  -14.9851   -8.2007 H   0  0  0  0  0  0
    7.8654  -15.0878   -8.5823 H   0  0  0  0  0  0
    6.7165  -18.5282  -10.9248 H   0  0  0  0  0  0
    9.7437  -18.4130  -10.6716 H   0  0  0  0  0  0
    8.7398  -21.1652  -11.0628 H   0  0  0  0  0  0
    6.6837  -20.2218   -9.9872 H   0  0  0  0  0  0
    7.5044  -21.4690   -8.9884 H   0  0  0  0  0  0
   10.9622  -20.5391  -10.1633 H   0  0  0  0  0  0
   10.0482  -21.6011   -9.0392 H   0  0  0  0  0  0
   10.1667  -19.8386   -8.7130 H   0  0  0  0  0  0
    6.7110  -19.6096   -7.6300 H   0  0  0  0  0  0
    7.6839  -18.4589   -8.6077 H   0  0  0  0  0  0
    8.5046  -19.7061   -7.6089 H   0  0  0  0  0  0
    8.2267  -17.3235  -12.8401 H   0  0  0  0  0  0
    8.4071  -19.3819  -15.0076 H   0  0  0  0  0  0
    7.9029  -16.3483  -15.1642 H   0  0  0  0  0  0
    7.6218  -17.5271  -16.4901 H   0  0  0  0  0  0
    6.3039  -19.7488  -15.1013 H   0  0  0  0  0  0
    5.8120  -15.5293  -14.5851 H   0  0  0  0  0  0
    4.0081  -20.1171  -14.2825 H   0  0  0  0  0  0
    3.5138  -15.8967  -13.7699 H   0  0  0  0  0  0
    9.5472  -18.9920  -17.0732 H   0  0  0  0  0  0
   11.8723  -17.1580  -16.9120 H   0  0  0  0  0  0
   13.6661  -18.8902  -16.9619 H   0  0  0  0  0  0
   12.6891  -19.0468  -15.4627 H   0  0  0  0  0  0
   11.2096  -20.9541  -15.1392 H   0  0  0  0  0  0
   13.5879  -20.5949  -18.6786 H   0  0  0  0  0  0
   10.8047  -23.3320  -15.6531 H   0  0  0  0  0  0
   13.1825  -22.9725  -19.1924 H   0  0  0  0  0  0
   11.1246  -25.2248  -17.0657 H   0  0  0  0  0  0
   12.5871  -16.5927  -18.8840 H   0  0  0  0  0  0
   11.6440  -18.4687  -21.1055 H   0  0  0  0  0  0
   11.6838  -15.3906  -21.0938 H   0  0  0  0  0  0
   11.2886  -16.3961  -22.5288 H   0  0  0  0  0  0
    9.7272  -16.4821  -19.9314 H   0  0  0  0  0  0
    9.6794  -14.2072  -20.8981 H   0  0  0  0  0  0
    8.0910  -15.0338  -21.0406 H   0  0  0  0  0  0
    9.1630  -14.8948  -22.4752 H   0  0  0  0  0  0
    9.5477  -18.4588  -21.4086 H   0  0  0  0  0  0
    9.0857  -17.3878  -22.7746 H   0  0  0  0  0  0
    8.0136  -17.5268  -21.3400 H   0  0  0  0  0  0
   12.8632  -18.5512  -23.0565 H   0  0  0  0  0  0
   15.7409  -18.3247  -22.4156 H   0  0  0  0  0  0
   14.2695  -18.9192  -25.0508 H   0  0  0  0  0  0
   16.0420  -19.0985  -24.8217 H   0  0  0  0  0  0
  1  2  1  0  0  0
  1 71  1  0  0  0
  1 72  1  0  0  0
  1 73  1  0  0  0
  2  3  1  0  0  0
  2  5  1  0  0  0
  2 74  1  0  0  0
  3  4  2  0  0  0
  3 10  1  0  0  0
  5  6  1  0  0  0
  5 75  1  0  0  0
  5 76  1  0  0  0
  6  7  1  0  0  0
  6 77  1  0  0  0
  6 78  1  0  0  0
  7  8  1  0  0  0
  7  9  2  0  0  0
 10 11  1  0  0  0
 10 79  1  0  0  0
 11 12  1  0  0  0
 11 14  1  0  0  0
 11 80  1  0  0  0
 12 13  2  0  0  0
 12 18  1  0  0  0
 14 15  1  0  0  0
 14 81  1  0  0  0
 14 82  1  0  0  0
 15 16  2  0  0  0
 15 17  1  0  0  0
 18 19  1  0  0  0
 18 83  1  0  0  0
 19 20  1  0  0  0
 19 22  1  0  0  0
 19 84  1  0  0  0
 20 21  2  0  0  0
 20 26  1  0  0  0
 22 23  1  0  0  0
 22 24  1  0  0  0
 22 85  1  0  0  0
 23 25  1  0  0  0
 23 86  1  0  0  0
 23 87  1  0  0  0
 24 88  1  0  0  0
 24 89  1  0  0  0
 24 90  1  0  0  0
 25 91  1  0  0  0
 25 92  1  0  0  0
 25 93  1  0  0  0
 26 27  1  0  0  0
 26 94  1  0  0  0
 27 28  1  0  0  0
 27 30  1  0  0  0
 27 95  1  0  0  0
 28 29  2  0  0  0
 28 42  1  0  0  0
 30 31  1  0  0  0
 30 96  1  0  0  0
 30 97  1  0  0  0
 31 32  2  0  0  0
 31 33  1  0  0  0
 32 34  1  0  0  0
 32 98  1  0  0  0
 33 35  2  0  0  0
 33 99  1  0  0  0
 34 36  2  0  0  0
 34100  1  0  0  0
 35 36  1  0  0  0
 35101  1  0  0  0
 36 37  1  0  0  0
 37 38  1  0  0  0
 38 39  1  0  0  0
 38 40  1  0  0  0
 38 41  2  0  0  0
 42 43  1  0  0  0
 42102  1  0  0  0
 43 44  1  0  0  0
 43 46  1  0  0  0
 43103  1  0  0  0
 44 45  2  0  0  0
 44 54  1  0  0  0
 46 47  1  0  0  0
 46104  1  0  0  0
 46105  1  0  0  0
 47 48  2  0  0  0
 47 49  1  0  0  0
 48 50  1  0  0  0
 48106  1  0  0  0
 49 51  2  0  0  0
 49107  1  0  0  0
 50 52  2  0  0  0
 50108  1  0  0  0
 51 52  1  0  0  0
 51109  1  0  0  0
 52 53  1  0  0  0
 53110  1  0  0  0
 54 55  1  0  0  0
 54111  1  0  0  0
 55 56  1  0  0  0
 55 58  1  0  0  0
 55112  1  0  0  0
 56 57  2  0  0  0
 56 62  1  0  0  0
 58 59  1  0  0  0
 58113  1  0  0  0
 58114  1  0  0  0
 59 60  1  0  0  0
 59 61  1  0  0  0
 59115  1  0  0  0
 60116  1  0  0  0
 60117  1  0  0  0
 60118  1  0  0  0
 61119  1  0  0  0
 61120  1  0  0  0
 61121  1  0  0  0
 62 63  1  0  0  0
 62122  1  0  0  0
 63 64  1  0  0  0
 63 66  1  0  0  0
 63123  1  0  0  0
 64 65  1  0  0  0
 64 70  2  0  0  0
 66 67  1  0  0  0
 66124  1  0  0  0
 66125  1  0  0  0
 67 68  2  0  0  0
 67 69  1  0  0  0
M  CHG  7   1   1   8  -1  17  -1  39  -1  40  -1  65  -1  69  -1
M  END
> <s_m_source_file>
../1fhr_ligand.sdf

> <i_m_source_file_index>
1

> <s_epik_input>
W09IXUMoPU8pW0NIMl1bQ0gyXVtDQEhdKFtOSDMrXSlDKD1PKVtOSF1bQ0BASF0oW0NIMl1DKD1PKVtPSF0pQyg9TylbTkhdW0NAQEhdKFtDQEBIXShbQ0gzXSlbQ0gyXVtDSDNdKUMoPU8pW05IXVtDQEBIXShbQ0gyXWMxW2NIXVtjSF1jKFtjSF1bY0hdMSlPUCg9TykoW09IXSlbT0hdKUMoPU8pW05IXVtDQEBIXShbQ0gyXWMyW2NIXVtjSF1jKFtPSF0pW2NIXVtjSF0yKUMoPU8pW05IXVtDQEBIXShbQ0gyXVtDSF0oW0NIM10pW0NIM10pQyg9TylbTkhdW0NASF0oQyg9TylbT0hdKVtDSDJdQyg9TylbT0hd

> <s_epik_cmdline>
J2VwaWtfYXBwJywgJy1pbWFlJywgJ2xpZ2FuZF9wcm8ubWFlJywgJy1vbWFlJywgJ2xpZ2FuZF9wcmVwLm1hZScsICctbXMnLCAnMScsICctcGgnLCAnNycsICctcGh0JywgJzAuNScsICctbnQn

> <r_lp_tautomer_probability>
0.999999999997365

> <r_epik_Ionization_Penalty>
  0.1664

> <r_epik_Ionization_Penalty_Charging>
  0.1655

> <r_epik_Ionization_Penalty_Neutral>
  0.0009

> <r_epik_State_Penalty>
  0.0832

> <r_epik_Charging_Adjusted_Penalty>
0.248696399543703

> <i_epik_Tot_Q>
-5

> <i_epik_Tot_abs_Q>
7

$$$$
