1fj4_ligand
                    3D
 Schrodinger Suite 2020-3.
 27 27  0  0  1  0            999 V2000
    6.2170  -19.4860   -0.4880 S   0  0  0  0  0  0
    7.0270  -18.5720    0.7860 C   0  0  0  0  0  0
    6.6290  -19.0160    2.0970 C   0  0  0  0  0  0
    5.7900  -20.0690    2.0550 C   0  0  0  0  0  0
    5.3860  -20.6510    0.7160 C   0  0  1  0  0  0
    3.8840  -20.6960    0.4040 C   0  0  0  0  0  0
    3.1800  -20.8520   -0.7410 C   0  0  0  0  0  0
    1.6930  -20.7190   -0.6320 C   0  0  0  0  0  0
    0.7810  -20.8290   -1.6020 C   0  0  0  0  0  0
    7.8230  -17.6860    0.5180 O   0  0  0  0  0  0
    7.1190  -18.3340    3.3280 C   0  0  0  0  0  0
    5.2870  -20.6170    3.1700 O   0  5  0  0  0  0
    6.0340  -22.0480    0.5840 C   0  0  0  0  0  0
    3.7580  -21.1460   -2.0940 C   0  0  0  0  0  0
    3.3566  -20.5678    1.3608 H   0  0  0  0  0  0
    1.3760  -20.5044    0.3992 H   0  0  0  0  0  0
    1.0980  -21.0436   -2.6332 H   0  0  0  0  0  0
   -0.2870  -20.7050   -1.3695 H   0  0  0  0  0  0
    7.7903  -17.5089    3.0475 H   0  0  0  0  0  0
    7.6656  -19.0549    3.9537 H   0  0  0  0  0  0
    6.2628  -17.9347    3.8914 H   0  0  0  0  0  0
    7.1073  -21.9775    0.8142 H   0  0  0  0  0  0
    5.9029  -22.4174   -0.4438 H   0  0  0  0  0  0
    5.5530  -22.7433    1.2877 H   0  0  0  0  0  0
    4.8532  -21.2150   -2.0177 H   0  0  0  0  0  0
    3.4891  -20.3385   -2.7909 H   0  0  0  0  0  0
    3.3554  -22.1000   -2.4653 H   0  0  0  0  0  0
  1  2  1  0  0  0
  1  5  1  0  0  0
  2  3  1  0  0  0
  2 10  2  0  0  0
  3  4  2  0  0  0
  3 11  1  0  0  0
  4  5  1  0  0  0
  4 12  1  0  0  0
  5  6  1  0  0  0
  5 13  1  0  0  0
  6  7  2  0  0  0
  6 15  1  0  0  0
  7  8  1  0  0  0
  7 14  1  0  0  0
  8  9  2  0  0  0
  8 16  1  0  0  0
  9 17  1  0  0  0
  9 18  1  0  0  0
 11 19  1  0  0  0
 11 20  1  0  0  0
 11 21  1  0  0  0
 13 22  1  0  0  0
 13 23  1  0  0  0
 13 24  1  0  0  0
 14 25  1  0  0  0
 14 26  1  0  0  0
 14 27  1  0  0  0
M  CHG  1  12  -1
M  END
> <s_m_source_file>
../1fj4_ligand.sdf

> <i_m_source_file_index>
1

> <s_epik_input>
W09IXUMxPUMoW0NIM10pQyg9TylTW0NAXTEoW0NIM10pL1tDSF09QyhbQ0gzXSkvW0NIXT1bQ0gyXQ==

> <s_epik_cmdline>
J2VwaWtfYXBwJywgJy1pbWFlJywgJ2xpZ2FuZF9wcm8ubWFlJywgJy1vbWFlJywgJ2xpZ2FuZF9wcmVwLm1hZScsICctbXMnLCAnMScsICctcGgnLCAnNycsICctcGh0JywgJzAuNScsICctbnQn

> <r_lp_tautomer_probability>
1

> <r_epik_Ionization_Penalty>
  0.0001

> <r_epik_Ionization_Penalty_Charging>
  0.0001

> <r_epik_Ionization_Penalty_Neutral>
  0.0000

> <r_epik_State_Penalty>
 -0.0000

> <r_epik_Charging_Adjusted_Penalty>
0.000134540928536152

> <i_epik_Tot_Q>
-1

> <i_epik_Tot_abs_Q>
1

$$$$
