1fkb_ligand
                    3D
 Schrodinger Suite 2020-3.
144147  0  0  1  0            999 V2000
    4.6330    8.5000   12.8470 C   0  0  0  0  0  0
    4.2640    9.5930   13.6790 O   0  0  0  0  0  0
    5.3670    8.7260   11.8880 O   0  0  0  0  0  0
    4.1770    7.0700   13.1350 C   0  0  2  0  0  0
    3.7200    6.3740   11.8620 C   0  0  0  0  0  0
    2.3540    6.8320   11.3720 C   0  0  0  0  0  0
    1.3600    6.6530   12.5050 C   0  0  0  0  0  0
    1.7830    7.4300   13.7130 C   0  0  0  0  0  0
    3.1050    6.9340   14.1270 N   0  0  0  0  0  0
    3.3850    6.5490   15.3820 C   0  0  0  0  0  0
    4.5520    6.2370   15.6540 O   0  0  0  0  0  0
    2.3970    6.4090   16.3810 C   0  0  0  0  0  0
    1.7830    5.3390   16.4740 O   0  0  0  0  0  0
    2.0560    7.5410   17.3680 C   0  0  1  0  0  0
    1.2800    8.4570   16.6310 O   0  0  0  0  0  0
    1.3100    6.9920   18.4580 O   0  0  0  0  0  0
    3.3320    8.2820   17.9400 C   0  0  1  0  0  0
    2.9420    9.5910   18.6640 C   0  0  0  0  0  0
    2.0100   10.4230   17.7950 C   0  0  0  0  0  0
    0.8420    9.6280   17.2210 C   0  0  1  0  0  0
    0.1930   10.4130   16.0940 C   0  0  0  0  0  0
   -0.5820   11.6640   16.4900 C   0  0  2  0  0  0
   -1.6270   11.2720   17.3240 O   0  0  0  0  0  0
   -1.1450   12.3710   15.2760 C   0  0  0  0  0  0
   -0.6720   13.5710   14.9670 C   0  0  0  0  0  0
   -1.0960   14.3670   13.8070 C   0  0  0  0  0  0
   -0.5860   15.5780   13.6340 C   0  0  0  0  0  0
   -0.9000   16.3770   12.4350 C   0  0  0  0  0  0
   -0.2480   17.4880   12.1490 C   0  0  0  0  0  0
   -0.4500   18.2890   10.8810 C   0  0  2  0  0  0
    0.9110   18.4010   10.2160 C   0  0  0  0  0  0
    1.6740   17.1120    9.9750 C   0  0  2  0  0  0
    3.1570   17.3910    9.7710 C   0  0  0  0  0  0
    3.6110   17.6690    8.6630 O   0  0  0  0  0  0
    4.0480   17.2970   11.0050 C   0  0  2  0  0  0
    5.2100   18.0500   10.7780 O   0  0  0  0  0  0
    4.5130   15.8410   11.3290 C   0  0  2  0  0  0
    4.8240   15.2000   10.0840 O   0  0  0  0  0  0
    3.4620   15.0140   12.0940 C   0  0  0  0  0  0
    2.8080   13.9890   11.5490 C   0  0  0  0  0  0
    1.7730   13.0420   12.1750 C   0  0  2  0  0  0
    2.4330   11.7010   12.4950 C   0  0  0  0  0  0
    2.2640   10.7010   11.7910 O   0  0  0  0  0  0
    3.3580   11.6930   13.7070 C   0  0  0  0  0  0
    4.6300   10.9090   13.4550 C   0  0  1  0  0  0
    5.8460   11.1690   14.3670 C   0  0  1  0  0  0
    6.5510   12.4800   14.0270 C   0  0  0  0  0  0
    7.2100   12.5860   12.6500 C   0  0  1  0  0  0
    7.8120   13.9830   12.4610 C   0  0  0  0  0  0
    8.3860   14.2020   11.0590 C   0  0  1  0  0  0
    9.0410   15.4440   11.0860 O   0  0  0  0  0  0
    9.3990   13.0570   10.7110 C   0  0  2  0  0  0
    9.8030   13.1890    9.3490 O   0  0  0  0  0  0
    8.8190   11.6450   10.9300 C   0  0  0  0  0  0
    8.2430   11.5050   12.3320 C   0  0  0  0  0  0
    4.2580    7.4120   18.8400 C   0  0  0  0  0  0
   -2.2570   11.6210   14.5220 C   0  0  0  0  0  0
   -1.0140   19.6680   11.1900 C   0  0  0  0  0  0
    1.0990   16.3270    8.7930 C   0  0  0  0  0  0
    3.2220   15.4750   13.5190 C   0  0  0  0  0  0
    0.6250   12.8300   11.1750 C   0  0  0  0  0  0
    5.4820   11.1300   15.8240 C   0  0  0  0  0  0
   -2.1230   12.2430   18.1890 C   0  0  0  0  0  0
    5.1340   19.3870   11.1300 C   0  0  0  0  0  0
    8.3520   16.5240   10.5560 C   0  0  0  0  0  0
    5.0489    6.5841   13.5973 H   0  0  0  0  0  0
    4.4412    6.5737   11.0558 H   0  0  0  0  0  0
    3.6583    5.2900   12.0386 H   0  0  0  0  0  0
    2.4059    7.8907   11.0781 H   0  0  0  0  0  0
    2.0530    6.2252   10.5053 H   0  0  0  0  0  0
    0.3700    7.0090   12.1839 H   0  0  0  0  0  0
    1.2974    5.5880   12.7731 H   0  0  0  0  0  0
    1.8386    8.4991   13.4603 H   0  0  0  0  0  0
    1.0500    7.2815   14.5197 H   0  0  0  0  0  0
    1.7782    6.2582   19.1306 H   0  0  0  0  0  0
    3.9481    8.5334   17.0641 H   0  0  0  0  0  0
    2.4305    9.3498   19.6075 H   0  0  0  0  0  0
    3.8487   10.1760   18.8776 H   0  0  0  0  0  0
    1.5873   11.2442   18.3925 H   0  0  0  0  0  0
    2.5735   10.8390   16.9468 H   0  0  0  0  0  0
    0.1610    9.3370   18.0344 H   0  0  0  0  0  0
    0.9672   10.7514   15.3897 H   0  0  0  0  0  0
   -0.5268    9.7700   15.5664 H   0  0  0  0  0  0
    0.0397   12.3626   17.0692 H   0  0  0  0  0  0
    0.0954   14.0396   15.6006 H   0  0  0  0  0  0
   -1.8268   13.9700   13.0870 H   0  0  0  0  0  0
    0.0857   16.0055   14.3930 H   0  0  0  0  0  0
   -1.7025   16.0237   11.7708 H   0  0  0  0  0  0
    0.4966   17.8858   12.8542 H   0  0  0  0  0  0
   -1.1737   17.7892   10.2203 H   0  0  0  0  0  0
    0.7978   18.8645    9.2249 H   0  0  0  0  0  0
    1.5729   19.0218   10.8377 H   0  0  0  0  0  0
    1.5596   16.4944   10.8781 H   0  0  0  0  0  0
    3.5028   17.7481   11.8472 H   0  0  0  0  0  0
    5.4280   15.8501   11.9395 H   0  0  0  0  0  0
    5.5596   15.6511    9.4018 H   0  0  0  0  0  0
    2.9841   13.7212   10.4967 H   0  0  0  0  0  0
    1.3823   13.4748   13.1078 H   0  0  0  0  0  0
    3.6392   12.7258   13.9604 H   0  0  0  0  0  0
    2.8389   11.2342   14.5614 H   0  0  0  0  0  0
    4.9445   11.1117   12.4206 H   0  0  0  0  0  0
    6.5572   10.3465   14.2004 H   0  0  0  0  0  0
    5.8272   13.3072   14.0695 H   0  0  0  0  0  0
    7.3579   12.6612   14.7523 H   0  0  0  0  0  0
    6.3993   12.4116   11.9273 H   0  0  0  0  0  0
    7.0340   14.7429   12.6260 H   0  0  0  0  0  0
    8.6283   14.1313   13.1832 H   0  0  0  0  0  0
    7.6060   14.2890   10.2883 H   0  0  0  0  0  0
   10.3094   13.1604   11.3197 H   0  0  0  0  0  0
   10.2446   14.1323    8.9952 H   0  0  0  0  0  0
    8.0181   11.4601   10.1989 H   0  0  0  0  0  0
    9.6150   10.8972   10.7988 H   0  0  0  0  0  0
    9.0751   11.5709   13.0485 H   0  0  0  0  0  0
    7.7717   10.5139   12.4075 H   0  0  0  0  0  0
    4.5233    6.4870   18.3071 H   0  0  0  0  0  0
    3.7315    7.1599   19.7723 H   0  0  0  0  0  0
    5.1733    7.9745   19.0763 H   0  0  0  0  0  0
   -2.4378   10.6500   15.0063 H   0  0  0  0  0  0
   -1.9476   11.4586   13.4790 H   0  0  0  0  0  0
   -3.1805   12.2182   14.5417 H   0  0  0  0  0  0
   -1.9980   19.5625   11.6702 H   0  0  0  0  0  0
   -1.1213   20.2381   10.2554 H   0  0  0  0  0  0
   -0.3304   20.2003   11.8678 H   0  0  0  0  0  0
    0.0289   16.1384    8.9639 H   0  0  0  0  0  0
    1.6295   15.3682    8.6968 H   0  0  0  0  0  0
    1.2255   16.9104    7.8691 H   0  0  0  0  0  0
    3.8744   16.3322   13.7418 H   0  0  0  0  0  0
    3.4475   14.6523   14.2134 H   0  0  0  0  0  0
    2.1700   15.7749   13.6351 H   0  0  0  0  0  0
    0.1533   13.7974   10.9479 H   0  0  0  0  0  0
   -0.1220   12.1516   11.6128 H   0  0  0  0  0  0
    1.0223   12.3893   10.2488 H   0  0  0  0  0  0
    4.9759   10.1799   16.0502 H   0  0  0  0  0  0
    4.8089   11.9684   16.0563 H   0  0  0  0  0  0
    6.3947   11.2131   16.4323 H   0  0  0  0  0  0
   -2.9387   11.8158   18.7908 H   0  0  0  0  0  0
   -2.5047   13.0936   17.6052 H   0  0  0  0  0  0
   -1.3176   12.5870   18.8546 H   0  0  0  0  0  0
    6.0932   19.8789   10.9111 H   0  0  0  0  0  0
    4.9156   19.4713   12.2048 H   0  0  0  0  0  0
    4.3328   19.8729   10.5538 H   0  0  0  0  0  0
    8.9709   17.4297   10.6378 H   0  0  0  0  0  0
    7.4142   16.6693   11.1122 H   0  0  0  0  0  0
    8.1243   16.3299    9.4975 H   0  0  0  0  0  0
  1  3  2  0  0  0
  1  4  1  0  0  0
  1  2  1  0  0  0
  2 45  1  0  0  0
  4  5  1  0  0  0
  4  9  1  0  0  0
  4 66  1  0  0  0
  5  6  1  0  0  0
  5 67  1  0  0  0
  5 68  1  0  0  0
  6  7  1  0  0  0
  6 69  1  0  0  0
  6 70  1  0  0  0
  7  8  1  0  0  0
  7 71  1  0  0  0
  7 72  1  0  0  0
  8  9  1  0  0  0
  8 73  1  0  0  0
  8 74  1  0  0  0
  9 10  1  0  0  0
 10 11  2  0  0  0
 10 12  1  0  0  0
 12 13  2  0  0  0
 12 14  1  0  0  0
 14 16  1  0  0  0
 14 17  1  0  0  0
 14 15  1  0  0  0
 15 20  1  0  0  0
 16 75  1  0  0  0
 17 18  1  0  0  0
 17 56  1  0  0  0
 17 76  1  0  0  0
 18 19  1  0  0  0
 18 77  1  0  0  0
 18 78  1  0  0  0
 19 20  1  0  0  0
 19 79  1  0  0  0
 19 80  1  0  0  0
 20 21  1  0  0  0
 20 81  1  0  0  0
 21 22  1  0  0  0
 21 82  1  0  0  0
 21 83  1  0  0  0
 22 23  1  0  0  0
 22 24  1  0  0  0
 22 84  1  0  0  0
 23 63  1  0  0  0
 24 57  1  0  0  0
 24 25  2  0  0  0
 25 26  1  0  0  0
 25 85  1  0  0  0
 26 27  2  0  0  0
 26 86  1  0  0  0
 27 28  1  0  0  0
 27 87  1  0  0  0
 28 29  2  0  0  0
 28 88  1  0  0  0
 29 30  1  0  0  0
 29 89  1  0  0  0
 30 31  1  0  0  0
 30 58  1  0  0  0
 30 90  1  0  0  0
 31 32  1  0  0  0
 31 91  1  0  0  0
 31 92  1  0  0  0
 32 33  1  0  0  0
 32 59  1  0  0  0
 32 93  1  0  0  0
 33 34  2  0  0  0
 33 35  1  0  0  0
 35 36  1  0  0  0
 35 37  1  0  0  0
 35 94  1  0  0  0
 36 64  1  0  0  0
 37 38  1  0  0  0
 37 39  1  0  0  0
 37 95  1  0  0  0
 38 96  1  0  0  0
 39 60  1  0  0  0
 39 40  2  0  0  0
 40 41  1  0  0  0
 40 97  1  0  0  0
 41 42  1  0  0  0
 41 61  1  0  0  0
 41 98  1  0  0  0
 42 43  2  0  0  0
 42 44  1  0  0  0
 44 45  1  0  0  0
 44 99  1  0  0  0
 44100  1  0  0  0
 45 46  1  0  0  0
 45101  1  0  0  0
 46 47  1  0  0  0
 46 62  1  0  0  0
 46102  1  0  0  0
 47 48  1  0  0  0
 47103  1  0  0  0
 47104  1  0  0  0
 48 49  1  0  0  0
 48 55  1  0  0  0
 48105  1  0  0  0
 49 50  1  0  0  0
 49106  1  0  0  0
 49107  1  0  0  0
 50 51  1  0  0  0
 50 52  1  0  0  0
 50108  1  0  0  0
 51 65  1  0  0  0
 52 53  1  0  0  0
 52 54  1  0  0  0
 52109  1  0  0  0
 53110  1  0  0  0
 54 55  1  0  0  0
 54111  1  0  0  0
 54112  1  0  0  0
 55113  1  0  0  0
 55114  1  0  0  0
 56115  1  0  0  0
 56116  1  0  0  0
 56117  1  0  0  0
 57118  1  0  0  0
 57119  1  0  0  0
 57120  1  0  0  0
 58121  1  0  0  0
 58122  1  0  0  0
 58123  1  0  0  0
 59124  1  0  0  0
 59125  1  0  0  0
 59126  1  0  0  0
 60127  1  0  0  0
 60128  1  0  0  0
 60129  1  0  0  0
 61130  1  0  0  0
 61131  1  0  0  0
 61132  1  0  0  0
 62133  1  0  0  0
 62134  1  0  0  0
 62135  1  0  0  0
 63136  1  0  0  0
 63137  1  0  0  0
 63138  1  0  0  0
 64139  1  0  0  0
 64140  1  0  0  0
 64141  1  0  0  0
 65142  1  0  0  0
 65143  1  0  0  0
 65144  1  0  0  0
M  END
> <s_m_source_file>
../1fkb_ligand.sdf

> <i_m_source_file_index>
1

> <s_epik_input>
W09IXVtDQEBdMTJDKD1PKUMoPU8pTjNbQ0BASF0oW0NIMl1bQ0gyXVtDSDJdW0NIMl0zKUMoPU8pT1tDQEhdKFtDQEhdKFtDSDNdKVtDSDJdW0NASF00W0NIMl1bQ0BASF0oT1tDSDNdKVtDQEhdKFtPSF0pW0NIMl1bQ0gyXTQpW0NIMl1DKD1PKVtDQEhdKFtDSDNdKVxbQ0hdPUMoW0NIM10pXFtDQEBIXShbT0hdKVtDQEBIXShPW0NIM10pQyg9TylbQ0BIXShbQ0gzXSlbQ0gyXVtDQEhdKFtDSDNdKVxbQ0hdPVtDSF1cW0NIXT1bQ0hdXFtDSF09QyhbQ0gzXSlcW0NAQEhdKE9bQ0gzXSlbQ0gyXVtDQEBIXShPMSlbQ0gyXVtDSDJdW0NASF0yW0NIM10=

> <s_epik_cmdline>
J2VwaWtfYXBwJywgJy1pbWFlJywgJ2xpZ2FuZF9wcm8ubWFlJywgJy1vbWFlJywgJ2xpZ2FuZF9wcmVwLm1hZScsICctbXMnLCAnMScsICctcGgnLCAnNycsICctcGh0JywgJzAuNScsICctbnQn

> <r_lp_tautomer_probability>
1

> <r_epik_Ionization_Penalty>
  0.0021

> <r_epik_Ionization_Penalty_Charging>
  0.0000

> <r_epik_Ionization_Penalty_Neutral>
  0.0021

> <r_epik_State_Penalty>
 -0.0000

> <r_epik_Charging_Adjusted_Penalty>
0

> <i_epik_Tot_Q>
0

> <i_epik_Tot_abs_Q>
0

> <s_epik_Chemistry_Notes>
This compound has an ester and may undergo hydrolysis at high or low pH.

$$$$
