1fkf_ligand
                    3D
 Schrodinger Suite 2020-3.
126129  0  0  1  0            999 V2000
   19.9640   28.6220   21.7930 C   0  0  0  0  0  0
   18.5910   29.2420   21.9360 C   0  0  2  0  0  0
   17.9380   29.3520   20.5600 C   0  0  0  0  0  0
   18.5160   30.5100   19.7600 C   0  0  0  0  0  0
   18.2610   31.8130   20.4910 C   0  0  0  0  0  0
   18.9790   31.7220   21.8230 C   0  0  0  0  0  0
   17.8950   30.6410   23.7950 C   0  0  0  0  0  0
   17.7270   31.9530   24.5080 C   0  0  0  0  0  0
   18.8060   32.4190   25.5090 C   0  0  1  0  0  0
   19.4320   31.2870   26.3300 C   0  0  1  0  0  0
   20.7730   31.7490   26.9050 C   0  0  0  0  0  0
   21.7070   32.4720   25.8960 C   0  0  1  0  0  0
   20.8790   33.6410   25.2510 C   0  0  1  0  0  0
   21.5660   34.5170   24.1940 C   0  0  2  0  0  0
   22.4060   33.6820   23.2140 C   0  0  0  0  0  0
   22.9260   34.3970   21.9400 C   0  0  2  0  0  0
   24.3210   34.9710   22.2430 C   0  0  0  0  0  0
   25.4080   33.9470   22.0600 C   0  0  0  0  0  0
   25.8990   33.3360   23.1300 C   0  0  0  0  0  0
   26.9510   32.2370   23.1200 C   0  0  2  0  0  0
   26.2180   30.9100   23.2540 C   0  0  0  0  0  0
   25.8400   30.2250   21.9470 C   0  0  0  0  0  0
   24.7690   29.1740   22.0980 C   0  0  1  0  0  0
   23.3240   29.8180   22.1860 C   0  0  2  0  0  0
   22.2610   28.6870   22.3830 C   0  0  1  0  0  0
   22.5700   27.8480   23.6200 C   0  0  0  0  0  0
   22.8810   26.5760   23.4040 C   0  0  0  0  0  0
   23.3210   25.6110   24.4740 C   0  0  1  0  0  0
   22.4380   24.3560   24.4770 C   0  0  0  0  0  0
   22.9750   23.1330   25.2060 C   0  0  2  0  0  0
   24.4100   22.9100   24.7880 C   0  0  1  0  0  0
   25.2350   24.1580   25.0320 C   0  0  0  0  0  0
   24.7350   25.2290   24.0860 C   0  0  0  0  0  0
   18.5230   30.8230   27.4590 C   0  0  0  0  0  0
   21.9960   35.5410   21.5020 C   0  0  0  0  0  0
   25.8170   33.7330   20.5880 C   0  0  0  0  0  0
   27.9510   32.4400   24.3030 C   0  0  0  0  0  0
   29.0060   31.3510   24.5630 C   0  0  0  0  0  0
   29.7520   30.7690   23.6420 C   0  0  0  0  0  0
   22.9720   30.6050   20.8880 C   0  0  0  0  0  0
   22.4990   28.5170   25.0010 C   0  0  0  0  0  0
   24.0480   32.0940   26.5080 C   0  0  0  0  0  0
   21.6490   36.6540   25.3160 C   0  0  0  0  0  0
   21.1770   21.6790   25.9230 C   0  0  0  0  0  0
   18.4770   30.5550   22.5810 N   0  0  0  0  0  0
   20.9240   29.2730   22.4600 O   0  0  0  0  0  0
   20.1220   27.6470   21.0710 O   0  0  0  0  0  0
   17.4580   29.6280   24.3760 O   0  0  0  0  0  0
   16.7190   32.6250   24.2810 O   0  0  0  0  0  0
   19.7730   33.0000   24.6040 O   0  0  0  0  0  0
   18.3300   33.4250   26.3710 O   0  0  0  0  0  0
   22.9130   32.9900   26.5240 O   0  0  0  0  0  0
   22.3750   35.4860   24.8800 O   0  0  0  0  0  0
   25.9310   30.4410   24.3640 O   0  0  0  0  0  0
   24.8450   28.2870   20.9730 O   0  0  0  0  0  0
   22.2310   21.9230   24.9790 O   0  0  0  0  0  0
   24.8980   21.8360   25.5700 O   0  0  0  0  0  0
   18.0908   28.5792   22.6574 H   0  0  0  0  0  0
   18.1076   28.4216   19.9982 H   0  0  0  0  0  0
   16.8569   29.5164   20.6792 H   0  0  0  0  0  0
   19.5997   30.3664   19.6377 H   0  0  0  0  0  0
   18.0371   30.5472   18.7704 H   0  0  0  0  0  0
   18.6525   32.6505   19.8949 H   0  0  0  0  0  0
   17.1791   31.9438   20.6408 H   0  0  0  0  0  0
   20.0593   31.6074   21.6501 H   0  0  0  0  0  0
   18.7956   32.6392   22.4018 H   0  0  0  0  0  0
   19.5795   30.4281   25.6588 H   0  0  0  0  0  0
   20.5947   32.4545   27.7299 H   0  0  0  0  0  0
   21.3301   30.8783   27.2812 H   0  0  0  0  0  0
   22.1172   31.7607   25.1640 H   0  0  0  0  0  0
   20.5730   34.3399   26.0434 H   0  0  0  0  0  0
   20.8284   35.0859   23.6090 H   0  0  0  0  0  0
   23.3035   33.3070   23.7277 H   0  0  0  0  0  0
   21.8091   32.8322   22.8513 H   0  0  0  0  0  0
   22.9658   33.6705   21.1150 H   0  0  0  0  0  0
   24.5264   35.8126   21.5651 H   0  0  0  0  0  0
   24.3544   35.3228   23.2847 H   0  0  0  0  0  0
   25.5449   33.6147   24.1334 H   0  0  0  0  0  0
   27.5110   32.2548   22.1734 H   0  0  0  0  0  0
   25.4635   30.9748   21.2356 H   0  0  0  0  0  0
   26.7259   29.7297   21.5230 H   0  0  0  0  0  0
   24.9924   28.5683   22.9886 H   0  0  0  0  0  0
   23.3027   30.5209   23.0319 H   0  0  0  0  0  0
   22.2339   28.0074   21.5184 H   0  0  0  0  0  0
   22.8258   26.1614   22.3866 H   0  0  0  0  0  0
   23.2586   26.0715   25.4710 H   0  0  0  0  0  0
   21.4753   24.5862   24.9569 H   0  0  0  0  0  0
   22.2626   24.0286   23.4416 H   0  0  0  0  0  0
   22.8539   23.2982   26.2868 H   0  0  0  0  0  0
   24.4993   22.6194   23.7309 H   0  0  0  0  0  0
   25.1116   24.4807   26.0763 H   0  0  0  0  0  0
   26.2957   23.9400   24.8385 H   0  0  0  0  0  0
   24.7413   24.8450   23.0552 H   0  0  0  0  0  0
   25.3850   26.1140   24.1516 H   0  0  0  0  0  0
   17.5604   30.4918   27.0421 H   0  0  0  0  0  0
   18.3529   31.6549   28.1582 H   0  0  0  0  0  0
   18.9986   29.9869   27.9926 H   0  0  0  0  0  0
   20.9962   35.1376   21.2836 H   0  0  0  0  0  0
   22.4035   36.0196   20.5993 H   0  0  0  0  0  0
   21.9232   36.2840   22.3099 H   0  0  0  0  0  0
   25.2204   34.3938   19.9419 H   0  0  0  0  0  0
   25.6375   32.6850   20.3062 H   0  0  0  0  0  0
   26.8848   33.9677   20.4663 H   0  0  0  0  0  0
   27.9141   33.3340   24.9429 H   0  0  0  0  0  0
   29.1886   30.9957   25.5879 H   0  0  0  0  0  0
   30.4145   30.0317   24.1189 H   0  0  0  0  0  0
   30.3589   31.5288   23.1278 H   0  0  0  0  0  0
   29.1040   30.2617   22.9121 H   0  0  0  0  0  0
   23.7101   31.4057   20.7332 H   0  0  0  0  0  0
   21.9688   31.0452   20.9868 H   0  0  0  0  0  0
   22.9886   29.9196   20.0278 H   0  0  0  0  0  0
   22.2188   29.5741   24.8824 H   0  0  0  0  0  0
   23.4814   28.4509   25.4914 H   0  0  0  0  0  0
   21.7460   28.0051   25.6181 H   0  0  0  0  0  0
   24.9031   32.5766   27.0039 H   0  0  0  0  0  0
   24.3135   31.8572   25.4671 H   0  0  0  0  0  0
   23.7906   31.1667   27.0408 H   0  0  0  0  0  0
   22.3364   37.3425   25.8293 H   0  0  0  0  0  0
   20.8489   36.3514   26.0075 H   0  0  0  0  0  0
   21.2082   37.1586   24.4436 H   0  0  0  0  0  0
   20.6683   20.7373   25.6693 H   0  0  0  0  0  0
   20.4541   22.5073   25.8876 H   0  0  0  0  0  0
   21.6012   21.6055   26.9353 H   0  0  0  0  0  0
   17.5808   33.1821   27.1390 H   0  0  0  0  0  0
   25.7806   27.7499   20.7583 H   0  0  0  0  0  0
   24.4126   20.8505   25.5148 H   0  0  0  0  0  0
  1  2  1  0  0  0
  1 46  1  0  0  0
  1 47  2  0  0  0
  2  3  1  0  0  0
  2 45  1  0  0  0
  2 58  1  0  0  0
  3  4  1  0  0  0
  3 59  1  0  0  0
  3 60  1  0  0  0
  4  5  1  0  0  0
  4 61  1  0  0  0
  4 62  1  0  0  0
  5  6  1  0  0  0
  5 63  1  0  0  0
  5 64  1  0  0  0
  6 45  1  0  0  0
  6 65  1  0  0  0
  6 66  1  0  0  0
  7  8  1  0  0  0
  7 45  1  0  0  0
  7 48  2  0  0  0
  8  9  1  0  0  0
  8 49  2  0  0  0
  9 10  1  0  0  0
  9 50  1  0  0  0
  9 51  1  0  0  0
 10 11  1  0  0  0
 10 34  1  0  0  0
 10 67  1  0  0  0
 11 12  1  0  0  0
 11 68  1  0  0  0
 11 69  1  0  0  0
 12 13  1  0  0  0
 12 52  1  0  0  0
 12 70  1  0  0  0
 13 50  1  0  0  0
 13 14  1  0  0  0
 13 71  1  0  0  0
 14 15  1  0  0  0
 14 53  1  0  0  0
 14 72  1  0  0  0
 15 16  1  0  0  0
 15 73  1  0  0  0
 15 74  1  0  0  0
 16 17  1  0  0  0
 16 35  1  0  0  0
 16 75  1  0  0  0
 17 18  1  0  0  0
 17 76  1  0  0  0
 17 77  1  0  0  0
 18 19  2  0  0  0
 18 36  1  0  0  0
 19 20  1  0  0  0
 19 78  1  0  0  0
 20 21  1  0  0  0
 20 37  1  0  0  0
 20 79  1  0  0  0
 21 22  1  0  0  0
 21 54  2  0  0  0
 22 23  1  0  0  0
 22 80  1  0  0  0
 22 81  1  0  0  0
 23 55  1  0  0  0
 23 24  1  0  0  0
 23 82  1  0  0  0
 24 40  1  0  0  0
 24 25  1  0  0  0
 24 83  1  0  0  0
 25 26  1  0  0  0
 25 46  1  0  0  0
 25 84  1  0  0  0
 26 27  2  0  0  0
 26 41  1  0  0  0
 27 28  1  0  0  0
 27 85  1  0  0  0
 28 29  1  0  0  0
 28 33  1  0  0  0
 28 86  1  0  0  0
 29 30  1  0  0  0
 29 87  1  0  0  0
 29 88  1  0  0  0
 30 31  1  0  0  0
 30 56  1  0  0  0
 30 89  1  0  0  0
 31 32  1  0  0  0
 31 57  1  0  0  0
 31 90  1  0  0  0
 32 33  1  0  0  0
 32 91  1  0  0  0
 32 92  1  0  0  0
 33 93  1  0  0  0
 33 94  1  0  0  0
 34 95  1  0  0  0
 34 96  1  0  0  0
 34 97  1  0  0  0
 35 98  1  0  0  0
 35 99  1  0  0  0
 35100  1  0  0  0
 36101  1  0  0  0
 36102  1  0  0  0
 36103  1  0  0  0
 37 38  2  0  0  0
 37104  1  0  0  0
 38 39  1  0  0  0
 38105  1  0  0  0
 39106  1  0  0  0
 39107  1  0  0  0
 39108  1  0  0  0
 40109  1  0  0  0
 40110  1  0  0  0
 40111  1  0  0  0
 41112  1  0  0  0
 41113  1  0  0  0
 41114  1  0  0  0
 42 52  1  0  0  0
 42115  1  0  0  0
 42116  1  0  0  0
 42117  1  0  0  0
 43 53  1  0  0  0
 43118  1  0  0  0
 43119  1  0  0  0
 43120  1  0  0  0
 44 56  1  0  0  0
 44121  1  0  0  0
 44122  1  0  0  0
 44123  1  0  0  0
 51124  1  0  0  0
 55125  1  0  0  0
 57126  1  0  0  0
M  END
> <s_m_source_file>
../1fkf_ligand.sdf

> <i_m_source_file_index>
1

> <s_epik_input>
W0NIMl0xW0NIMl1bQ0BASF0oW09IXSlbQ0BIXShPW0NIM10pW0NIMl1bQ0BASF0xXFtDSF09QyhbQ0gzXSlcW0NAQEhdKE9DKD1PKVtDQEhdKFtDSDJdW0NIMl1bQ0gyXVtDSDJdMilOMkMoPU8pQyg9TylbQ0BAXTM0W09IXSlbQ0BIXShbQ0gzXSlbQ0BASF0oW09IXSlbQ0gyXUMoPU8pW0NASF0oL1tDSF09W0NIXVxbQ0gzXSlcW0NIXT1DKFtDSDNdKVxbQ0gyXVtDQEhdKFtDSDNdKVtDSDJdW0NASF0oT1tDSDNdKVtDQEBIXShPNClbQ0BASF0oT1tDSDNdKVtDSDJdW0NASF0zW0NIM10=

> <s_epik_cmdline>
J2VwaWtfYXBwJywgJy1pbWFlJywgJ2xpZ2FuZF9wcm8ubWFlJywgJy1vbWFlJywgJ2xpZ2FuZF9wcmVwLm1hZScsICctbXMnLCAnMScsICctcGgnLCAnNycsICctcGh0JywgJzAuNScsICctbnQn

> <r_lp_tautomer_probability>
1

> <r_epik_Ionization_Penalty>
  0.0045

> <r_epik_Ionization_Penalty_Charging>
  0.0000

> <r_epik_Ionization_Penalty_Neutral>
  0.0045

> <r_epik_State_Penalty>
 -0.0000

> <r_epik_Charging_Adjusted_Penalty>
0

> <i_epik_Tot_Q>
0

> <i_epik_Tot_abs_Q>
0

> <s_epik_Chemistry_Notes>
This compound has an ester and may undergo hydrolysis at high or low pH.

$$$$
