1fkh_ligand
                    3D
 Schrodinger Suite 2020-3.
 74 76  0  0  1  0            999 V2000
  -24.9340   27.2020   42.8060 C   0  0  0  0  0  0
  -25.5560   28.2700   43.2910 O   0  0  0  0  0  0
  -23.7450   27.1250   42.5220 O   0  0  0  0  0  0
  -25.8490   25.9980   42.6170 C   0  0  2  0  0  0
  -25.4910   25.2720   41.3250 C   0  0  0  0  0  0
  -25.9240   26.0310   40.0820 C   0  0  0  0  0  0
  -27.4350   26.1960   40.2140 C   0  0  0  0  0  0
  -27.7860   26.9930   41.4600 C   0  0  0  0  0  0
  -27.3020   26.1860   42.5850 N   0  0  0  0  0  0
  -28.0550   25.7940   43.6310 C   0  0  0  0  0  0
  -27.4850   25.3040   44.6070 O   0  0  0  0  0  0
  -29.5750   25.8160   43.6950 C   0  0  0  0  0  0
  -30.1390   24.8210   43.2360 O   0  0  0  0  0  0
  -30.3880   26.9080   44.3810 C   0  0  0  0  0  0
  -29.5400   27.9890   45.0370 C   0  0  0  0  0  0
  -28.8970   27.5870   46.3970 C   0  0  0  0  0  0
  -31.2800   26.2970   45.4140 C   0  0  0  0  0  0
  -31.3790   27.5520   43.4570 C   0  0  0  0  0  0
  -24.9120   29.5760   43.3480 C   0  0  2  0  0  0
  -24.3810   29.8820   44.7400 C   0  0  0  0  0  0
  -23.0100   30.5460   44.7480 C   0  0  0  0  0  0
  -22.0150   30.2050   45.8310 C   0  0  0  0  0  0
  -22.3100   30.4470   47.1010 C   0  0  0  0  0  0
  -21.5290   30.0090   48.0710 C   0  0  0  0  0  0
  -20.4390   29.3310   47.7650 C   0  0  0  0  0  0
  -20.1320   29.1030   46.5020 C   0  0  0  0  0  0
  -20.9170   29.5410   45.5370 C   0  0  0  0  0  0
  -25.9190   30.6340   42.9670 C   0  0  0  0  0  0
  -26.1710   30.8150   41.4870 C   0  0  0  0  0  0
  -26.9240   32.1030   41.3520 C   0  0  0  0  0  0
  -28.2300   32.0540   42.1330 C   0  0  0  0  0  0
  -28.0190   31.8070   43.6120 C   0  0  0  0  0  0
  -27.2150   30.5180   43.7580 C   0  0  0  0  0  0
  -25.6999   25.4464   43.5570 H   0  0  0  0  0  0
  -24.4009   25.1348   41.2715 H   0  0  0  0  0  0
  -25.9855   24.2896   41.3073 H   0  0  0  0  0  0
  -25.4138   27.0050   40.0509 H   0  0  0  0  0  0
  -25.6592   25.4496   39.1865 H   0  0  0  0  0  0
  -27.8242   26.7271   39.3329 H   0  0  0  0  0  0
  -27.9074   25.2050   40.2830 H   0  0  0  0  0  0
  -27.2864   27.9723   41.4217 H   0  0  0  0  0  0
  -28.8753   27.1387   41.5073 H   0  0  0  0  0  0
  -28.7123   28.2631   44.3663 H   0  0  0  0  0  0
  -30.1622   28.8748   45.2326 H   0  0  0  0  0  0
  -28.3080   28.4300   46.7875 H   0  0  0  0  0  0
  -28.2394   26.7177   46.2489 H   0  0  0  0  0  0
  -29.6893   27.3294   47.1152 H   0  0  0  0  0  0
  -31.8971   25.5141   44.9489 H   0  0  0  0  0  0
  -31.9325   27.0732   45.8404 H   0  0  0  0  0  0
  -30.6666   25.8543   46.2126 H   0  0  0  0  0  0
  -31.9945   26.7749   42.9802 H   0  0  0  0  0  0
  -30.8428   28.1211   42.6833 H   0  0  0  0  0  0
  -32.0263   28.2322   44.0300 H   0  0  0  0  0  0
  -24.0753   29.5327   42.6353 H   0  0  0  0  0  0
  -25.0744   30.5628   45.2555 H   0  0  0  0  0  0
  -24.2921   28.9468   45.3123 H   0  0  0  0  0  0
  -22.4807   30.3056   43.8142 H   0  0  0  0  0  0
  -23.1310   31.6362   44.8306 H   0  0  0  0  0  0
  -23.2078   31.0142   47.3468 H   0  0  0  0  0  0
  -21.7816   30.2052   49.1130 H   0  0  0  0  0  0
  -19.7904   28.9582   48.5578 H   0  0  0  0  0  0
  -19.2256   28.5502   46.2552 H   0  0  0  0  0  0
  -20.6565   29.3531   44.4954 H   0  0  0  0  0  0
  -25.4112   31.5660   43.2561 H   0  0  0  0  0  0
  -25.2097   30.8585   40.9540 H   0  0  0  0  0  0
  -26.7617   29.9674   41.1093 H   0  0  0  0  0  0
  -26.3104   32.9289   41.7411 H   0  0  0  0  0  0
  -27.1531   32.2844   40.2915 H   0  0  0  0  0  0
  -28.7585   33.0125   42.0241 H   0  0  0  0  0  0
  -28.8603   31.2413   41.7428 H   0  0  0  0  0  0
  -27.4684   32.6526   44.0501 H   0  0  0  0  0  0
  -28.9947   31.7074   44.1100 H   0  0  0  0  0  0
  -27.8049   29.6730   43.3734 H   0  0  0  0  0  0
  -26.9826   30.3497   44.8199 H   0  0  0  0  0  0
  1  4  1  0  0  0
  1  3  2  0  0  0
  1  2  1  0  0  0
  2 19  1  0  0  0
  4  9  1  0  0  0
  4  5  1  0  0  0
  4 34  1  0  0  0
  5  6  1  0  0  0
  5 35  1  0  0  0
  5 36  1  0  0  0
  6  7  1  0  0  0
  6 37  1  0  0  0
  6 38  1  0  0  0
  7  8  1  0  0  0
  7 39  1  0  0  0
  7 40  1  0  0  0
  8  9  1  0  0  0
  8 41  1  0  0  0
  8 42  1  0  0  0
  9 10  1  0  0  0
 10 12  1  0  0  0
 10 11  2  0  0  0
 12 14  1  0  0  0
 12 13  2  0  0  0
 14 18  1  0  0  0
 14 17  1  0  0  0
 14 15  1  0  0  0
 15 16  1  0  0  0
 15 43  1  0  0  0
 15 44  1  0  0  0
 16 45  1  0  0  0
 16 46  1  0  0  0
 16 47  1  0  0  0
 17 48  1  0  0  0
 17 49  1  0  0  0
 17 50  1  0  0  0
 18 51  1  0  0  0
 18 52  1  0  0  0
 18 53  1  0  0  0
 19 28  1  0  0  0
 19 20  1  0  0  0
 19 54  1  0  0  0
 20 21  1  0  0  0
 20 55  1  0  0  0
 20 56  1  0  0  0
 21 22  1  0  0  0
 21 57  1  0  0  0
 21 58  1  0  0  0
 22 27  2  0  0  0
 22 23  1  0  0  0
 23 24  2  0  0  0
 23 59  1  0  0  0
 24 25  1  0  0  0
 24 60  1  0  0  0
 25 26  2  0  0  0
 25 61  1  0  0  0
 26 27  1  0  0  0
 26 62  1  0  0  0
 27 63  1  0  0  0
 28 33  1  0  0  0
 28 29  1  0  0  0
 28 64  1  0  0  0
 29 30  1  0  0  0
 29 65  1  0  0  0
 29 66  1  0  0  0
 30 31  1  0  0  0
 30 67  1  0  0  0
 30 68  1  0  0  0
 31 32  1  0  0  0
 31 69  1  0  0  0
 31 70  1  0  0  0
 32 33  1  0  0  0
 32 71  1  0  0  0
 32 72  1  0  0  0
 33 73  1  0  0  0
 33 74  1  0  0  0
M  END
> <s_m_source_file>
../1fkh_ligand.sdf

> <i_m_source_file_index>
1

> <s_epik_input>
W2NIXTFbY0hdW2NIXVtjSF1bY0hdYzFbQ0gyXVtDSDJdW0NASF0oW0NIXTJbQ0gyXVtDSDJdW0NIMl1bQ0gyXVtDSDJdMilPQyg9TylbQ0BASF0zW0NIMl1bQ0gyXVtDSDJdW0NIMl1OM0MoPU8pQyg9TylDKFtDSDNdKShbQ0gzXSlbQ0gyXVtDSDNd

> <s_epik_cmdline>
J2VwaWtfYXBwJywgJy1pbWFlJywgJ2xpZ2FuZF9wcm8ubWFlJywgJy1vbWFlJywgJ2xpZ2FuZF9wcmVwLm1hZScsICctbXMnLCAnMScsICctcGgnLCAnNycsICctcGh0JywgJzAuNScsICctbnQn

> <r_lp_tautomer_probability>
1

> <r_epik_Ionization_Penalty>
  0.0000

> <r_epik_Ionization_Penalty_Charging>
  0.0000

> <r_epik_Ionization_Penalty_Neutral>
  0.0000

> <r_epik_State_Penalty>
 -0.0000

> <r_epik_Charging_Adjusted_Penalty>
0

> <i_epik_Tot_Q>
0

> <i_epik_Tot_abs_Q>
0

> <s_epik_Chemistry_Notes>
This compound has an ester and may undergo hydrolysis at high or low pH.

$$$$
