1fkw_ligand
                    3D
 Schrodinger Suite 2020-3.
 30 32  0  0  1  0            999 V2000
    1.4170   20.5820   39.0430 N   0  0  0  0  0  0
    2.4140   20.2810   39.8730 C   0  0  0  0  0  0
    3.5980   19.8370   39.4450 N   0  0  0  0  0  0
    3.8150   19.6690   38.1140 C   0  0  0  0  0  0
    2.8430   19.9510   37.2150 C   0  0  0  0  0  0
    1.5720   20.4330   37.6710 C   0  0  0  0  0  0
    3.3330   19.6990   35.9880 N   0  0  0  0  0  0
    4.5840   19.2630   36.1240 C   0  0  0  0  0  0
    4.8960   19.2380   37.4140 N   0  0  0  0  0  0
    6.1190   18.7400   37.9560 C   0  0  1  0  0  0
    6.5240   17.5220   37.1330 C   0  0  2  0  0  0
    6.7250   16.4000   37.9960 O   0  0  0  0  0  0
    7.7910   17.8350   36.2810 C   0  0  2  0  0  0
    8.7170   16.7430   36.3000 O   0  0  0  0  0  0
    8.2370   19.0170   37.2670 C   0  0  2  0  0  0
    7.1410   19.6880   37.7680 O   0  0  0  0  0  0
    9.2070   20.0290   36.5950 C   0  0  0  0  0  0
    8.6900   20.5750   35.3590 O   0  0  0  0  0  0
    2.2570   20.4020   40.9448 H   0  0  0  0  0  0
    0.7673   20.6707   36.9753 H   0  0  0  0  0  0
    5.2453   18.9733   35.3074 H   0  0  0  0  0  0
    5.9772   18.5816   39.0353 H   0  0  0  0  0  0
    5.6957   17.2033   36.4831 H   0  0  0  0  0  0
    5.9137   16.0630   38.6579 H   0  0  0  0  0  0
    7.7293   17.9659   35.1906 H   0  0  0  0  0  0
    8.5381   15.8591   35.6701 H   0  0  0  0  0  0
    8.6915   18.6190   38.1863 H   0  0  0  0  0  0
    9.3914   20.8701   37.2796 H   0  0  0  0  0  0
   10.1588   19.5276   36.3655 H   0  0  0  0  0  0
    9.2846   21.3035   34.7883 H   0  0  0  0  0  0
  1  6  2  0  0  0
  1  2  1  0  0  0
  2  3  2  0  0  0
  2 19  1  0  0  0
  3  4  1  0  0  0
  4  9  1  0  0  0
  4  5  2  0  0  0
  5  7  1  0  0  0
  5  6  1  0  0  0
  6 20  1  0  0  0
  7  8  2  0  0  0
  8  9  1  0  0  0
  8 21  1  0  0  0
  9 10  1  0  0  0
 10 16  1  0  0  0
 10 11  1  0  0  0
 10 22  1  0  0  0
 11 13  1  0  0  0
 11 12  1  0  0  0
 11 23  1  0  0  0
 12 24  1  0  0  0
 13 15  1  0  0  0
 13 14  1  0  0  0
 13 25  1  0  0  0
 14 26  1  0  0  0
 15 17  1  0  0  0
 15 16  1  0  0  0
 15 27  1  0  0  0
 17 18  1  0  0  0
 17 28  1  0  0  0
 17 29  1  0  0  0
 18 30  1  0  0  0
M  END
> <s_m_source_file>
../1fkw_ligand.sdf

> <i_m_source_file_index>
1

> <s_epik_input>
bjFbY0hdbltjSF1jKGMxMiluW2NIXW4yW0NASF0zW0NASF0oW09IXSlbQ0BIXShbT0hdKVtDQEhdKE8zKVtDSDJdW09IXQ==

> <s_epik_cmdline>
J2VwaWtfYXBwJywgJy1pbWFlJywgJ2xpZ2FuZF9wcm8ubWFlJywgJy1vbWFlJywgJ2xpZ2FuZF9wcmVwLm1hZScsICctbXMnLCAnMScsICctcGgnLCAnNycsICctcGh0JywgJzAuNScsICctbnQn

> <r_lp_tautomer_probability>
1

> <r_epik_Ionization_Penalty>
  0.0000

> <r_epik_Ionization_Penalty_Charging>
  0.0000

> <r_epik_Ionization_Penalty_Neutral>
  0.0000

> <r_epik_State_Penalty>
 -0.0000

> <r_epik_Charging_Adjusted_Penalty>
0

> <i_epik_Tot_Q>
0

> <i_epik_Tot_abs_Q>
0

> <s_epik_Chemistry_Notes>
This compound contains an acetal/aminal-like group ( X-CH(R)-Y where X, Y are N, S, or O) that may be acid/base labile, releasing an aldehyde.

$$$$
