1fl6_ligand
                    3D
 Schrodinger Suite 2020-3.
 40 40  0  0  1  0            999 V2000
   62.1250   47.5180   15.1330 C   0  0  0  0  0  0
   61.6420   46.3060   15.7070 C   0  0  0  0  0  0
   62.1630   45.0280   15.2370 C   0  0  0  0  0  0
   63.1330   45.0160   14.2200 C   0  0  0  0  0  0
   63.6180   46.2360   13.6430 C   0  0  0  0  0  0
   63.1180   47.4840   14.0970 C   0  0  0  0  0  0
   63.6290   48.7780   13.4910 N   0  3  0  0  0  0
   63.2180   49.8210   13.8600 O   0  0  0  0  0  0
   64.4690   48.7810   12.6380 O   0  5  0  0  0  0
   61.6410   43.7050   15.8550 C   0  0  0  0  0  0
   62.0660   43.3290   17.2510 N   0  3  2  0  0  0
   61.2030   43.9370   18.3460 C   0  0  0  0  0  0
   60.0800   42.8610   19.3580 P   0  0  0  0  0  0
   59.0170   42.1310   18.4900 O   0  5  0  0  0  0
   60.8800   41.6990   20.1600 O   0  5  0  0  0  0
   59.4190   43.7510   20.3010 O   0  0  0  0  0  0
   63.5690   43.6050   17.5810 C   0  0  0  0  0  0
   64.3640   42.3190   17.8340 C   0  0  0  0  0  0
   65.1310   41.9160   16.5680 C   0  0  0  0  0  0
   64.5970   40.5720   16.0600 C   0  0  0  0  0  0
   65.6590   39.5020   16.2510 C   0  0  0  0  0  0
   65.7570   38.8050   17.4400 O   0  5  0  0  0  0
   66.4360   39.2680   15.3320 O   0  0  0  0  0  0
   61.7384   48.4754   15.4825 H   0  0  0  0  0  0
   60.8873   46.3345   16.4930 H   0  0  0  0  0  0
   63.5235   44.0628   13.8636 H   0  0  0  0  0  0
   64.3709   46.2046   12.8555 H   0  0  0  0  0  0
   60.5422   43.7299   15.9002 H   0  0  0  0  0  0
   61.9633   42.8573   15.2325 H   0  0  0  0  0  0
   61.8810   42.2450   17.2261 H   0  0  0  0  0  0
   61.8475   44.4215   19.0942 H   0  0  0  0  0  0
   60.5257   44.6841   17.9067 H   0  0  0  0  0  0
   64.0389   44.1315   16.7372 H   0  0  0  0  0  0
   63.6376   44.2273   18.4855 H   0  0  0  0  0  0
   65.0800   42.4856   18.6523 H   0  0  0  0  0  0
   63.6729   41.5091   18.1107 H   0  0  0  0  0  0
   64.9906   42.6848   15.7939 H   0  0  0  0  0  0
   66.2017   41.8226   16.8021 H   0  0  0  0  0  0
   63.6942   40.2986   16.6259 H   0  0  0  0  0  0
   64.3485   40.6563   14.9917 H   0  0  0  0  0  0
  1  2  2  0  0  0
  1  6  1  0  0  0
  1 24  1  0  0  0
  2  3  1  0  0  0
  2 25  1  0  0  0
  3  4  2  0  0  0
  3 10  1  0  0  0
  4  5  1  0  0  0
  4 26  1  0  0  0
  5  6  2  0  0  0
  5 27  1  0  0  0
  6  7  1  0  0  0
  7  8  2  0  0  0
  7  9  1  0  0  0
 10 11  1  0  0  0
 10 28  1  0  0  0
 10 29  1  0  0  0
 11 12  1  0  0  0
 11 17  1  0  0  0
 11 30  1  0  0  0
 12 13  1  0  0  0
 12 31  1  0  0  0
 12 32  1  0  0  0
 13 14  1  0  0  0
 13 15  1  0  0  0
 13 16  2  0  0  0
 17 18  1  0  0  0
 17 33  1  0  0  0
 17 34  1  0  0  0
 18 19  1  0  0  0
 18 35  1  0  0  0
 18 36  1  0  0  0
 19 20  1  0  0  0
 19 37  1  0  0  0
 19 38  1  0  0  0
 20 21  1  0  0  0
 20 39  1  0  0  0
 20 40  1  0  0  0
 21 22  1  0  0  0
 21 23  2  0  0  0
M  CHG  6   7   1   9  -1  11   1  14  -1  15  -1  22  -1
M  END
> <s_m_source_file>
../1fl6_ligand.sdf

> <i_m_source_file_index>
1

> <s_epik_input>
W2NIXTFbY0hdYyhbTitdKD1PKVtPLV0pW2NIXVtjSF1jMVtDSDJdW05ASCtdKFtDSDJdUCg9TykoW09IXSlbT0hdKVtDSDJdW0NIMl1bQ0gyXVtDSDJdQyg9TylbT0hd

> <s_epik_cmdline>
J2VwaWtfYXBwJywgJy1pbWFlJywgJ2xpZ2FuZF9wcm8ubWFlJywgJy1vbWFlJywgJ2xpZ2FuZF9wcmVwLm1hZScsICctbXMnLCAnMScsICctcGgnLCAnNycsICctcGh0JywgJzAuNScsICctbnQn

> <r_lp_tautomer_probability>
1

> <r_epik_Ionization_Penalty>
  0.0188

> <r_epik_Ionization_Penalty_Charging>
  0.0188

> <r_epik_Ionization_Penalty_Neutral>
  0.0000

> <r_epik_State_Penalty>
 -0.0000

> <r_epik_Charging_Adjusted_Penalty>
0.0188234573365007

> <i_epik_Tot_Q>
-2

> <i_epik_Tot_abs_Q>
6

$$$$
