1flm_ligand
                    3D
 Schrodinger Suite 2020-3.
 50 52  0  0  1  0            999 V2000
   23.2470   26.2320   26.9460 N   0  0  0  0  0  0
   24.0320   27.1060   27.6050 C   0  0  0  0  0  0
   24.0320   27.2660   28.7810 O   0  0  0  0  0  0
   25.0800   27.7840   26.9080 N   0  0  0  0  0  0
   25.3200   27.6760   25.5850 C   0  0  0  0  0  0
   26.2670   28.2890   25.0370 O   0  0  0  0  0  0
   24.4170   26.8250   24.8430 C   0  0  0  0  0  0
   24.5920   26.6480   23.5720 N   0  0  0  0  0  0
   23.8440   25.7070   22.9450 C   0  0  0  0  0  0
   24.1030   25.4270   21.5640 C   0  0  0  0  0  0
   23.4120   24.4630   20.9000 C   0  0  0  0  0  0
   23.6280   24.0830   19.4270 C   0  0  0  0  0  0
   22.2680   23.8380   21.5200 C   0  0  0  0  0  0
   21.4650   22.8020   20.7590 C   0  0  0  0  0  0
   22.0230   24.0410   22.8590 C   0  0  0  0  0  0
   22.7960   24.9480   23.5890 C   0  0  0  0  0  0
   22.6290   25.1970   24.9530 N   0  0  0  0  0  0
   23.3950   26.0980   25.6210 C   0  0  0  0  0  0
   21.5940   24.4710   25.7450 C   0  0  0  0  0  0
   22.3380   23.3510   26.4730 C   0  0  2  0  0  0
   22.7340   22.3610   25.5190 O   0  0  0  0  0  0
   21.4680   22.6670   27.5550 C   0  0  2  0  0  0
   20.2720   22.1120   26.8650 O   0  0  0  0  0  0
   20.9270   23.6320   28.5700 C   0  0  2  0  0  0
   21.9530   24.5310   29.0410 O   0  0  0  0  0  0
   20.4090   22.9140   29.8140 C   0  0  0  0  0  0
   21.5000   22.2020   30.4500 O   0  0  0  0  0  0
   21.2680   21.0560   31.5140 P   0  0  0  0  0  0
   20.5500   19.9260   30.8130 O   0  0  0  0  0  0
   20.3810   21.6690   32.6260 O   0  5  0  0  0  0
   22.6700   20.6720   31.9990 O   0  5  0  0  0  0
   25.7620   28.4516   27.4549 H   0  0  0  0  0  0
   24.8677   25.9971   21.0364 H   0  0  0  0  0  0
   24.5167   24.6035   19.0406 H   0  0  0  0  0  0
   22.7461   24.3775   18.8392 H   0  0  0  0  0  0
   23.7759   22.9959   19.3467 H   0  0  0  0  0  0
   21.7962   22.7792   19.7103 H   0  0  0  0  0  0
   20.3971   23.0627   20.8007 H   0  0  0  0  0  0
   21.6189   21.8123   21.2138 H   0  0  0  0  0  0
   21.2217   23.4913   23.3528 H   0  0  0  0  0  0
   21.1226   25.1654   26.4561 H   0  0  0  0  0  0
   20.8292   24.0667   25.0656 H   0  0  0  0  0  0
   23.2516   23.7666   26.9231 H   0  0  0  0  0  0
   23.3628   22.6436   24.6619 H   0  0  0  0  0  0
   22.0686   21.9092   28.0794 H   0  0  0  0  0  0
   20.3950   21.3692   26.0630 H   0  0  0  0  0  0
   20.1499   24.2128   28.0515 H   0  0  0  0  0  0
   22.4909   25.1734   28.3283 H   0  0  0  0  0  0
   19.9932   23.6513   30.5165 H   0  0  0  0  0  0
   19.6239   22.1998   29.5249 H   0  0  0  0  0  0
  1  2  1  0  0  0
  1 18  2  0  0  0
  2  3  2  0  0  0
  2  4  1  0  0  0
  4  5  1  0  0  0
  4 32  1  0  0  0
  5  6  2  0  0  0
  5  7  1  0  0  0
  7  8  2  0  0  0
  7 18  1  0  0  0
  8  9  1  0  0  0
  9 10  2  0  0  0
  9 16  1  0  0  0
 10 11  1  0  0  0
 10 33  1  0  0  0
 11 12  1  0  0  0
 11 13  2  0  0  0
 12 34  1  0  0  0
 12 35  1  0  0  0
 12 36  1  0  0  0
 13 14  1  0  0  0
 13 15  1  0  0  0
 14 37  1  0  0  0
 14 38  1  0  0  0
 14 39  1  0  0  0
 15 16  2  0  0  0
 15 40  1  0  0  0
 16 17  1  0  0  0
 17 18  1  0  0  0
 17 19  1  0  0  0
 19 20  1  0  0  0
 19 41  1  0  0  0
 19 42  1  0  0  0
 20 21  1  0  0  0
 20 22  1  0  0  0
 20 43  1  0  0  0
 21 44  1  0  0  0
 22 23  1  0  0  0
 22 24  1  0  0  0
 22 45  1  0  0  0
 23 46  1  0  0  0
 24 25  1  0  0  0
 24 26  1  0  0  0
 24 47  1  0  0  0
 25 48  1  0  0  0
 26 27  1  0  0  0
 26 49  1  0  0  0
 26 50  1  0  0  0
 27 28  1  0  0  0
 28 29  2  0  0  0
 28 30  1  0  0  0
 28 31  1  0  0  0
M  CHG  2  30  -1  31  -1
M  END
> <s_m_source_file>
../1flm_ligand.sdf

> <i_m_source_file_index>
1

> <s_epik_input>
Tz1jMVtuSF1jKD1PKW5jKGMxMiluKGMzYyhuMilbY0hdYyhbQ0gzXSljKFtDSDNdKVtjSF0zKVtDSDJdW0NASF0oW09IXSlbQ0BIXShbT0hdKVtDQEhdKFtPSF0pW0NIMl1PUCg9TykoW09IXSlbT0hd

> <s_epik_cmdline>
J2VwaWtfYXBwJywgJy1pbWFlJywgJ2xpZ2FuZF9wcm8ubWFlJywgJy1vbWFlJywgJ2xpZ2FuZF9wcmVwLm1hZScsICctbXMnLCAnMScsICctcGgnLCAnNycsICctcGh0JywgJzAuNScsICctbnQn

> <r_epik_Ionization_Penalty>
  0.1164

> <r_epik_Ionization_Penalty_Charging>
  0.1164

> <r_epik_Ionization_Penalty_Neutral>
  0.0000

> <r_epik_State_Penalty>
  0.1054

> <r_epik_Charging_Adjusted_Penalty>
0.2218027979184

> <i_epik_Tot_Q>
-2

> <i_epik_Tot_abs_Q>
2

$$$$
