1flr_ligand
                    3D
 Schrodinger Suite 2020-3.
 36 39  0  0  1  0            999 V2000
   28.8520   22.3110   42.3360 C   0  0  0  0  0  0
   29.9320   21.9760   42.8260 O   0  0  0  0  0  0
   28.1010   21.2550   41.7650 C   0  0  0  0  0  0
   26.8930   21.6920   41.2150 C   0  0  0  0  0  0
   26.1410   20.5740   40.5740 O   0  0  0  0  0  0
   25.1010   21.0270   40.1180 C   0  0  0  0  0  0
   24.4280   19.9240   39.5570 C   0  0  0  0  0  0
   23.2250   20.2720   38.9490 C   0  0  0  0  0  0
   22.5710   19.3660   38.4320 O   0  0  0  0  0  0
   22.7230   21.5430   38.9370 C   0  0  0  0  0  0
   23.4320   22.6160   39.5330 C   0  0  0  0  0  0
   24.6420   22.2740   40.1320 C   0  0  0  0  0  0
   25.2870   23.4290   40.7560 C   0  0  0  0  0  0
   26.4210   22.9380   41.2590 C   0  0  0  0  0  0
   27.1540   23.9820   41.9020 C   0  0  0  0  0  0
   28.4020   23.5650   42.4050 C   0  0  0  0  0  0
   24.7860   24.6530   40.7450 C   0  0  0  0  0  0
   24.6170   25.4250   39.6050 C   0  0  0  0  0  0
   24.0090   26.6640   39.5340 C   0  0  0  0  0  0
   23.5240   27.2540   40.7490 C   0  0  0  0  0  0
   23.7450   26.4400   41.8670 C   0  0  0  0  0  0
   24.3020   25.1910   41.9690 C   0  0  0  0  0  0
   24.3340   24.6720   43.2830 C   0  0  0  0  0  0
   23.7640   23.4100   43.2770 O   0  5  0  0  0  0
   24.8540   25.1510   44.4230 O   0  0  0  0  0  0
   30.5823   22.7309   43.2920 H   0  0  0  0  0  0
   28.4291   20.2156   41.7555 H   0  0  0  0  0  0
   24.8096   18.9037   39.5950 H   0  0  0  0  0  0
   21.7613   21.7349   38.4612 H   0  0  0  0  0  0
   23.0559   23.6390   39.5232 H   0  0  0  0  0  0
   26.7834   25.0029   41.9945 H   0  0  0  0  0  0
   29.0385   24.3121   42.8792 H   0  0  0  0  0  0
   25.0022   25.0133   38.6721 H   0  0  0  0  0  0
   23.9006   27.1798   38.5799 H   0  0  0  0  0  0
   23.0373   28.2282   40.7964 H   0  0  0  0  0  0
   23.4201   26.8711   42.8140 H   0  0  0  0  0  0
  1 16  2  0  0  0
  1  3  1  0  0  0
  1  2  1  0  0  0
  2 26  1  0  0  0
  3  4  2  0  0  0
  3 27  1  0  0  0
  4 14  1  0  0  0
  4  5  1  0  0  0
  5  6  1  0  0  0
  6 12  1  0  0  0
  6  7  2  0  0  0
  7  8  1  0  0  0
  7 28  1  0  0  0
  8 10  1  0  0  0
  8  9  2  0  0  0
 10 11  2  0  0  0
 10 29  1  0  0  0
 11 12  1  0  0  0
 11 30  1  0  0  0
 12 13  2  0  0  0
 13 17  1  0  0  0
 13 14  1  0  0  0
 14 15  2  0  0  0
 15 16  1  0  0  0
 15 31  1  0  0  0
 16 32  1  0  0  0
 17 22  2  0  0  0
 17 18  1  0  0  0
 18 19  2  0  0  0
 18 33  1  0  0  0
 19 20  1  0  0  0
 19 34  1  0  0  0
 20 21  2  0  0  0
 20 35  1  0  0  0
 21 22  1  0  0  0
 21 36  1  0  0  0
 22 23  1  0  0  0
 23 25  2  0  0  0
 23 24  1  0  0  0
M  CHG  1  24  -1
M  END
> <s_m_source_file>
../1flr_ligand.sdf

> <i_m_source_file_index>
1

> <s_epik_input>
W2NIXTFbY0hdYyg9TylbY0hdYyhvMiljMWMoYyhjMjMpW2NIXVtjSF1jKFtPSF0pW2NIXTMpLWM0W2NIXVtjSF1bY0hdW2NIXWM0Qyg9TylbT0hd

> <s_epik_cmdline>
J2VwaWtfYXBwJywgJy1pbWFlJywgJ2xpZ2FuZF9wcm8ubWFlJywgJy1vbWFlJywgJ2xpZ2FuZF9wcmVwLm1hZScsICctbXMnLCAnMScsICctcGgnLCAnNycsICctcGh0JywgJzAuNScsICctbnQn

> <r_epik_Ionization_Penalty>
  0.0443

> <r_epik_Ionization_Penalty_Charging>
  0.0008

> <r_epik_Ionization_Penalty_Neutral>
  0.0435

> <r_epik_State_Penalty>
  0.0368

> <r_epik_Charging_Adjusted_Penalty>
0.0375995253482337

> <i_epik_Tot_Q>
-1

> <i_epik_Tot_abs_Q>
1

$$$$
