1fls_ligand
                    3D
 Schrodinger Suite 2020-3.
 51 53  0  0  1  0            999 V2000
    2.1390   -4.3260    1.5530 C   0  0  0  0  0  0
    0.7740   -4.5220    1.2400 C   0  0  0  0  0  0
   -0.1770   -4.3200    2.2390 C   0  0  0  0  0  0
    0.1870   -3.9360    3.5180 C   0  0  0  0  0  0
    1.5230   -3.7460    3.8190 C   0  0  0  0  0  0
    2.5040   -3.9350    2.8550 C   0  0  0  0  0  0
    0.2170   -4.9310   -0.0740 C   0  0  0  0  0  0
    0.0890   -6.1120   -0.3870 O   0  0  0  0  0  0
   -0.1050   -4.0060   -0.9910 N   0  0  0  0  0  0
   -0.5610   -4.4770   -2.2300 O   0  0  0  0  0  0
    3.9430   -3.7100    3.2560 C   0  0  0  0  0  0
    3.1430   -4.5010    0.6370 N   0  0  0  0  0  0
    3.8010   -3.1590   -0.0450 S   0  0  0  0  0  0
    3.8010   -5.8060    0.5330 C   0  0  0  0  0  0
    7.2490   -6.0910    2.0710 C   0  0  0  0  0  0
    6.8830   -6.4270    3.3670 C   0  0  0  0  0  0
    5.6080   -6.5620    3.7530 N   0  0  0  0  0  0
    4.6600   -6.3570    2.8280 C   0  0  0  0  0  0
    4.9260   -6.0170    1.5070 C   0  0  0  0  0  0
    6.2550   -5.8830    1.1280 C   0  0  0  0  0  0
    4.2230   -3.5160   -1.7270 C   0  0  0  0  0  0
    3.4360   -3.0190   -2.7540 C   0  0  0  0  0  0
    3.7680   -3.3010   -4.0730 C   0  0  0  0  0  0
    4.8860   -4.0780   -4.3710 C   0  0  0  0  0  0
    5.6680   -4.5700   -3.3270 C   0  0  0  0  0  0
    5.3380   -4.2910   -2.0070 C   0  0  0  0  0  0
    5.2180   -4.3600   -5.6970 O   0  0  0  0  0  0
    6.3700   -5.1560   -5.9010 C   0  0  0  0  0  0
    5.0220   -2.8860    0.6440 O   0  0  0  0  0  0
    2.7850   -2.1530   -0.0720 O   0  0  0  0  0  0
   -1.2318   -4.4679    2.0075 H   0  0  0  0  0  0
   -0.5746   -3.7844    4.2829 H   0  0  0  0  0  0
    1.8098   -3.4439    4.8263 H   0  0  0  0  0  0
   -0.0258   -2.9240   -0.8092 H   0  0  0  0  0  0
   -0.8396   -3.7646   -3.0205 H   0  0  0  0  0  0
    4.5979   -3.8971    2.3922 H   0  0  0  0  0  0
    4.2078   -4.3976    4.0727 H   0  0  0  0  0  0
    4.0710   -2.6714    3.5951 H   0  0  0  0  0  0
    3.0656   -6.6031    0.7167 H   0  0  0  0  0  0
    4.2250   -5.9236   -0.4752 H   0  0  0  0  0  0
    8.3001   -5.9924    1.7996 H   0  0  0  0  0  0
    7.6695   -6.5883    4.1043 H   0  0  0  0  0  0
    3.6180   -6.4633    3.1299 H   0  0  0  0  0  0
    6.5130   -5.6178    0.1027 H   0  0  0  0  0  0
    2.5609   -2.4099   -2.5277 H   0  0  0  0  0  0
    3.1492   -2.9115   -4.8814 H   0  0  0  0  0  0
    6.5450   -5.1782   -3.5483 H   0  0  0  0  0  0
    5.9527   -4.6795   -1.1950 H   0  0  0  0  0  0
    6.5252   -5.3068   -6.9795 H   0  0  0  0  0  0
    6.2336   -6.1310   -5.4103 H   0  0  0  0  0  0
    7.2467   -4.6489   -5.4718 H   0  0  0  0  0  0
  1  2  2  0  0  0
  1  6  1  0  0  0
  1 12  1  0  0  0
  2  3  1  0  0  0
  2  7  1  0  0  0
  3  4  2  0  0  0
  3 31  1  0  0  0
  4  5  1  0  0  0
  4 32  1  0  0  0
  5  6  2  0  0  0
  5 33  1  0  0  0
  6 11  1  0  0  0
  7  8  2  0  0  0
  7  9  1  0  0  0
  9 10  1  0  0  0
  9 34  1  0  0  0
 10 35  1  0  0  0
 11 36  1  0  0  0
 11 37  1  0  0  0
 11 38  1  0  0  0
 12 13  1  0  0  0
 12 14  1  0  0  0
 13 21  1  0  0  0
 13 29  2  0  0  0
 13 30  2  0  0  0
 14 19  1  0  0  0
 14 39  1  0  0  0
 14 40  1  0  0  0
 15 16  2  0  0  0
 15 20  1  0  0  0
 15 41  1  0  0  0
 16 17  1  0  0  0
 16 42  1  0  0  0
 17 18  2  0  0  0
 18 19  1  0  0  0
 18 43  1  0  0  0
 19 20  2  0  0  0
 20 44  1  0  0  0
 21 22  2  0  0  0
 21 26  1  0  0  0
 22 23  1  0  0  0
 22 45  1  0  0  0
 23 24  2  0  0  0
 23 46  1  0  0  0
 24 25  1  0  0  0
 24 27  1  0  0  0
 25 26  2  0  0  0
 25 47  1  0  0  0
 26 48  1  0  0  0
 27 28  1  0  0  0
 28 49  1  0  0  0
 28 50  1  0  0  0
 28 51  1  0  0  0
M  END
> <s_m_source_file>
../1fls_ligand.sdf

> <i_m_source_file_index>
1

> <s_epik_input>
W0NIM11jMVtjSF1bY0hdW2NIXWMoQyg9TylbTkhdW09IXSljMU4oUyg9TykoPU8pYzJbY0hdW2NIXWMoW2NIXVtjSF0yKU9bQ0gzXSlbQ0gyXWMzW2NIXW5bY0hdW2NIXVtjSF0z

> <s_epik_cmdline>
J2VwaWtfYXBwJywgJy1pbWFlJywgJ2xpZ2FuZF9wcm8ubWFlJywgJy1vbWFlJywgJ2xpZ2FuZF9wcmVwLm1hZScsICctbXMnLCAnMScsICctcGgnLCAnNycsICctcGh0JywgJzAuNScsICctbnQn

> <r_lp_tautomer_probability>
1

> <r_epik_Ionization_Penalty>
  0.0587

> <r_epik_Ionization_Penalty_Charging>
  0.0000

> <r_epik_Ionization_Penalty_Neutral>
  0.0587

> <r_epik_State_Penalty>
  0.0503

> <r_epik_Charging_Adjusted_Penalty>
0.0503227987655763

> <i_epik_Tot_Q>
0

> <i_epik_Tot_abs_Q>
0

> <s_epik_Chemistry_Notes>
This compound has a N-S or N-O group and may undergo hydrolysis at high or low pH.

$$$$
