1fm9_ligand
                    3D
 Schrodinger Suite 2020-3.
 70 74  0  0  1  0            999 V2000
   14.6300   -6.6230   12.2970 N   0  0  0  0  0  0
   15.1750   -5.2870   12.7430 C   0  0  1  0  0  0
   14.0590   -4.2800   13.1630 C   0  0  0  0  0  0
   13.0210   -3.9940   12.0720 C   0  0  0  0  0  0
   11.7640   -4.6810   12.1280 C   0  0  0  0  0  0
   13.2850   -3.0650   11.0120 C   0  0  0  0  0  0
   10.7800   -4.4500   11.1480 C   0  0  0  0  0  0
   12.3040   -2.8260   10.0230 C   0  0  0  0  0  0
   11.0160   -3.5280   10.0790 C   0  0  0  0  0  0
    9.9370   -3.3850    9.1550 O   0  0  0  0  0  0
   15.2240   -7.7670   11.6100 C   0  0  0  0  0  0
   14.3950   -8.8860   11.1480 C   0  0  0  0  0  0
   15.0700   -9.9720   10.4770 C   0  0  0  0  0  0
   16.4700   -9.9630   10.2740 C   0  0  0  0  0  0
   17.2490   -8.8820   10.7250 C   0  0  0  0  0  0
   16.6460   -7.8050   11.3780 C   0  0  0  0  0  0
   11.8910  -10.1700   10.9450 C   0  0  0  0  0  0
   10.5890   -9.8870   10.3830 C   0  0  0  0  0  0
    9.7040  -10.9480   10.0350 C   0  0  0  0  0  0
   10.1070  -12.3000   10.2430 C   0  0  0  0  0  0
   11.3870  -12.5880   10.7970 C   0  0  0  0  0  0
   12.2690  -11.5350   11.1440 C   0  0  0  0  0  0
   12.8220   -9.0230   11.3070 C   0  0  0  0  0  0
   12.2120   -8.0260   11.7450 O   0  0  0  0  0  0
    8.6790   -6.3110    5.5150 O   0  0  0  0  0  0
    9.4630   -5.6750    4.5590 C   0  0  0  0  0  0
    9.6210   -4.3510    5.0320 N   0  0  0  0  0  0
    8.9300   -4.2570    6.2210 C   0  0  0  0  0  0
    8.3000   -5.5050    6.5670 C   0  0  0  0  0  0
    7.4350   -5.8570    7.7840 C   0  0  0  0  0  0
    9.9910   -6.1960    3.3780 C   0  0  0  0  0  0
   10.7850   -5.4040    2.4690 C   0  0  0  0  0  0
   11.2940   -5.9840    1.2780 C   0  0  0  0  0  0
   11.0230   -7.3440    0.9760 C   0  0  0  0  0  0
   10.2440   -8.1370    1.8620 C   0  0  0  0  0  0
    9.7290   -7.5690    3.0540 C   0  0  0  0  0  0
   10.1330   -2.6860    7.9020 C   0  0  0  0  0  0
    8.8860   -2.9130    7.0260 C   0  0  0  0  0  0
   17.2590   -4.8030   13.7310 O   0  0  0  0  0  0
   15.9520   -6.2630   14.7920 O   0  5  0  0  0  0
   16.1870   -5.4460   13.8430 C   0  0  0  0  0  0
   13.5766   -6.8778   12.4851 H   0  0  0  0  0  0
   15.7052   -4.8883   11.8656 H   0  0  0  0  0  0
   13.5118   -4.6796   14.0296 H   0  0  0  0  0  0
   14.5166   -3.3163   13.4309 H   0  0  0  0  0  0
   11.5687   -5.3872   12.9350 H   0  0  0  0  0  0
   14.2413   -2.5437   10.9690 H   0  0  0  0  0  0
    9.8285   -4.9788   11.2039 H   0  0  0  0  0  0
   12.5041   -2.1194    9.2175 H   0  0  0  0  0  0
   14.4863  -10.8197   10.1180 H   0  0  0  0  0  0
   16.9484  -10.7995    9.7646 H   0  0  0  0  0  0
   18.3271   -8.8851   10.5642 H   0  0  0  0  0  0
   17.2642   -6.9749   11.7197 H   0  0  0  0  0  0
   10.2820   -8.8532   10.2243 H   0  0  0  0  0  0
    8.7240  -10.7274    9.6120 H   0  0  0  0  0  0
    9.4337  -13.1150    9.9773 H   0  0  0  0  0  0
   11.6894  -13.6233   10.9547 H   0  0  0  0  0  0
   13.2462  -11.7676   11.5672 H   0  0  0  0  0  0
    7.1224   -6.9097    7.7195 H   0  0  0  0  0  0
    6.5451   -5.2106    7.8006 H   0  0  0  0  0  0
    8.0172   -5.7031    8.7045 H   0  0  0  0  0  0
   10.9939   -4.3589    2.6978 H   0  0  0  0  0  0
   11.8941   -5.3839    0.5940 H   0  0  0  0  0  0
   11.4148   -7.7833    0.0586 H   0  0  0  0  0  0
   10.0428   -9.1817    1.6247 H   0  0  0  0  0  0
    9.1296   -8.1795    3.7294 H   0  0  0  0  0  0
   10.2674   -1.6120    8.0984 H   0  0  0  0  0  0
   11.0271   -3.0812    7.3976 H   0  0  0  0  0  0
    8.8153   -2.0680    6.3252 H   0  0  0  0  0  0
    8.0097   -2.9123    7.6908 H   0  0  0  0  0  0
  1 11  1  0  0  0
  1  2  1  0  0  0
  1 42  1  0  0  0
  2 41  1  0  0  0
  2  3  1  0  0  0
  2 43  1  0  0  0
  3  4  1  0  0  0
  3 44  1  0  0  0
  3 45  1  0  0  0
  4  6  2  0  0  0
  4  5  1  0  0  0
  5  7  2  0  0  0
  5 46  1  0  0  0
  6  8  1  0  0  0
  6 47  1  0  0  0
  7  9  1  0  0  0
  7 48  1  0  0  0
  8  9  2  0  0  0
  8 49  1  0  0  0
  9 10  1  0  0  0
 10 37  1  0  0  0
 11 16  2  0  0  0
 11 12  1  0  0  0
 12 23  1  0  0  0
 12 13  2  0  0  0
 13 14  1  0  0  0
 13 50  1  0  0  0
 14 15  2  0  0  0
 14 51  1  0  0  0
 15 16  1  0  0  0
 15 52  1  0  0  0
 16 53  1  0  0  0
 17 23  1  0  0  0
 17 22  2  0  0  0
 17 18  1  0  0  0
 18 19  2  0  0  0
 18 54  1  0  0  0
 19 20  1  0  0  0
 19 55  1  0  0  0
 20 21  2  0  0  0
 20 56  1  0  0  0
 21 22  1  0  0  0
 21 57  1  0  0  0
 22 58  1  0  0  0
 23 24  2  0  0  0
 25 26  1  0  0  0
 25 29  1  0  0  0
 26 27  2  0  0  0
 26 31  1  0  0  0
 27 28  1  0  0  0
 28 38  1  0  0  0
 28 29  2  0  0  0
 29 30  1  0  0  0
 30 59  1  0  0  0
 30 60  1  0  0  0
 30 61  1  0  0  0
 31 36  2  0  0  0
 31 32  1  0  0  0
 32 33  2  0  0  0
 32 62  1  0  0  0
 33 34  1  0  0  0
 33 63  1  0  0  0
 34 35  2  0  0  0
 34 64  1  0  0  0
 35 36  1  0  0  0
 35 65  1  0  0  0
 36 66  1  0  0  0
 37 38  1  0  0  0
 37 67  1  0  0  0
 37 68  1  0  0  0
 38 69  1  0  0  0
 38 70  1  0  0  0
 39 41  2  0  0  0
 40 41  1  0  0  0
M  CHG  1  40  -1
M  END
> <s_m_source_file>
../1fm9_ligand.sdf

> <i_m_source_file_index>
1

> <s_epik_input>
W2NIXTFbY0hdW2NIXVtjSF1bY0hdYzFDKD1PKWMoW2NIXVtjSF1bY0hdW2NIXTIpYzJbTkhdW0NASF0oQyg9TylbT0hdKVtDSDJdYzNbY0hdW2NIXWMoW2NIXVtjSF0zKU9bQ0gyXVtDSDJdYyhuNCljKFtDSDNdKW9jNC1jNVtjSF1bY0hdW2NIXVtjSF1bY0hdNQ==

> <s_epik_cmdline>
J2VwaWtfYXBwJywgJy1pbWFlJywgJ2xpZ2FuZF9wcm8ubWFlJywgJy1vbWFlJywgJ2xpZ2FuZF9wcmVwLm1hZScsICctbXMnLCAnMScsICctcGgnLCAnNycsICctcGh0JywgJzAuNScsICctbnQn

> <r_lp_tautomer_probability>
1

> <r_epik_Ionization_Penalty>
  0.0005

> <r_epik_Ionization_Penalty_Charging>
  0.0005

> <r_epik_Ionization_Penalty_Neutral>
  0.0000

> <r_epik_State_Penalty>
 -0.0000

> <r_epik_Charging_Adjusted_Penalty>
0.000501812067336246

> <i_epik_Tot_Q>
-1

> <i_epik_Tot_abs_Q>
1

$$$$
