1fmb_ligand
                    3D
 Schrodinger Suite 2020-3.
 82 84  0  0  1  0            999 V2000
    6.4880   21.1190    6.5200 S   0  0  0  0  0  0
    6.9640   22.3740    6.0080 O   0  0  0  0  0  0
    5.1110   21.0070    6.8760 O   0  0  0  0  0  0
    9.6950   22.1480    0.9520 C   0  0  0  0  0  0
    8.7560   22.6570    1.7970 C   0  0  0  0  0  0
    7.7930   21.7770    2.4330 C   0  0  0  0  0  0
    7.8250   20.4490    2.1930 C   0  0  0  0  0  0
    8.8370   19.8570    1.2590 C   0  0  0  0  0  0
    9.7530   20.7400    0.6730 C   0  0  0  0  0  0
   10.7630   20.2350   -0.2150 C   0  0  0  0  0  0
   10.8110   18.8940   -0.4930 C   0  0  0  0  0  0
    9.8750   17.9990    0.0950 C   0  0  0  0  0  0
    8.9000   18.4890    0.9680 C   0  0  0  0  0  0
    2.1590   16.6320   -0.4430 O   0  0  0  0  0  0
    1.1910   17.7140   -0.7010 C   0  0  0  0  0  0
    2.2440   18.8780    1.1540 N   0  0  0  0  0  0
    1.9270   19.0160   -0.2780 C   0  0  1  0  0  0
    3.2600   19.1980   -1.0430 C   0  0  0  0  0  0
    3.9850   20.5270   -0.9940 C   0  0  0  0  0  0
    5.0320   20.8010   -0.1070 C   0  0  0  0  0  0
    5.7340   22.0130   -0.1100 C   0  0  0  0  0  0
    5.3690   22.9990   -1.0340 C   0  0  0  0  0  0
    4.3470   22.7430   -1.9450 C   0  0  0  0  0  0
    3.6590   21.5260   -1.9270 C   0  0  0  0  0  0
    3.6960   19.9570    3.6110 N   0  0  0  0  0  0
    2.3190   19.4000    3.5590 C   0  0  2  0  0  0
    1.8300   19.7870    2.1110 C   0  0  0  0  0  0
    1.1100   20.7340    1.8380 O   0  0  0  0  0  0
    1.3810   19.9220    4.6750 C   0  0  0  0  0  0
   -0.0900   19.5970    4.3670 C   0  0  0  0  0  0
    1.8700   19.2880    5.9980 C   0  0  0  0  0  0
    4.7730   19.2870    4.1060 C   0  0  0  0  0  0
    4.7100   18.1280    4.5340 O   0  0  0  0  0  0
    6.1180   20.0380    4.0130 C   0  0  2  0  0  0
    6.8410   19.4250    2.7860 C   0  0  0  0  0  0
    6.9770   19.9000    5.3110 C   0  0  0  0  0  0
    6.9310   19.4080    8.6970 C   0  0  0  0  0  0
    7.4420   20.7170    8.0430 C   0  0  0  0  0  0
    7.1320   21.8660    9.0330 C   0  0  0  0  0  0
    8.9560   20.6600    7.7230 C   0  0  0  0  0  0
   10.4131   22.8189    0.4804 H   0  0  0  0  0  0
    8.7277   23.7283    1.9962 H   0  0  0  0  0  0
    7.0417   22.1896    3.1064 H   0  0  0  0  0  0
   11.4869   20.9144   -0.6650 H   0  0  0  0  0  0
   11.5733   18.5098   -1.1708 H   0  0  0  0  0  0
    9.9180   16.9343   -0.1346 H   0  0  0  0  0  0
    8.1858   17.8035    1.4241 H   0  0  0  0  0  0
    1.8876   15.5881   -0.6592 H   0  0  0  0  0  0
    0.9278   17.7235   -1.7690 H   0  0  0  0  0  0
    0.2843   17.5455   -0.1014 H   0  0  0  0  0  0
    2.8366   18.0207    1.5060 H   0  0  0  0  0  0
    1.2882   19.8952   -0.4485 H   0  0  0  0  0  0
    4.0004   18.4769   -0.6663 H   0  0  0  0  0  0
    3.0933   19.0252   -2.1165 H   0  0  0  0  0  0
    5.3137   20.0376    0.6182 H   0  0  0  0  0  0
    6.5486   22.1850    0.5935 H   0  0  0  0  0  0
    5.8813   23.9611   -1.0406 H   0  0  0  0  0  0
    4.0802   23.5011   -2.6813 H   0  0  0  0  0  0
    2.8591   21.3497   -2.6462 H   0  0  0  0  0  0
    3.8935   20.9715    3.2344 H   0  0  0  0  0  0
    2.3558   18.3201    3.7652 H   0  0  0  0  0  0
    1.4136   21.0190    4.7498 H   0  0  0  0  0  0
   -0.3798   20.0727    3.4185 H   0  0  0  0  0  0
   -0.7274   19.9785    5.1783 H   0  0  0  0  0  0
   -0.2151   18.5073    4.2839 H   0  0  0  0  0  0
    2.9243   19.5540    6.1643 H   0  0  0  0  0  0
    1.7729   18.1939    5.9382 H   0  0  0  0  0  0
    1.2606   19.6651    6.8325 H   0  0  0  0  0  0
    5.9475   21.1183    3.8950 H   0  0  0  0  0  0
    6.0954   19.1499    2.0254 H   0  0  0  0  0  0
    7.3922   18.5266    3.1009 H   0  0  0  0  0  0
    8.0369   20.0432    5.0539 H   0  0  0  0  0  0
    6.8337   18.8922    5.7278 H   0  0  0  0  0  0
    5.8544   19.4977    8.9043 H   0  0  0  0  0  0
    7.4724   19.2329    9.6384 H   0  0  0  0  0  0
    7.1035   18.5645    8.0124 H   0  0  0  0  0  0
    6.0528   21.8864    9.2447 H   0  0  0  0  0  0
    7.4367   22.8250    8.5887 H   0  0  0  0  0  0
    7.6862   21.7030    9.9691 H   0  0  0  0  0  0
    9.1513   19.8375    7.0192 H   0  0  0  0  0  0
    9.5208   20.4900    8.6515 H   0  0  0  0  0  0
    9.2713   21.6120    7.2711 H   0  0  0  0  0  0
  1  2  2  0  0  0
  1  3  2  0  0  0
  1 36  1  0  0  0
  1 38  1  0  0  0
  4  5  2  0  0  0
  4  9  1  0  0  0
  4 41  1  0  0  0
  5  6  1  0  0  0
  5 42  1  0  0  0
  6  7  2  0  0  0
  6 43  1  0  0  0
  7  8  1  0  0  0
  7 35  1  0  0  0
  8  9  2  0  0  0
  8 13  1  0  0  0
  9 10  1  0  0  0
 10 11  2  0  0  0
 10 44  1  0  0  0
 11 12  1  0  0  0
 11 45  1  0  0  0
 12 13  2  0  0  0
 12 46  1  0  0  0
 13 47  1  0  0  0
 14 15  1  0  0  0
 14 48  1  0  0  0
 15 17  1  0  0  0
 15 49  1  0  0  0
 15 50  1  0  0  0
 16 27  1  0  0  0
 16 17  1  0  0  0
 16 51  1  0  0  0
 17 18  1  0  0  0
 17 52  1  0  0  0
 18 19  1  0  0  0
 18 53  1  0  0  0
 18 54  1  0  0  0
 19 20  2  0  0  0
 19 24  1  0  0  0
 20 21  1  0  0  0
 20 55  1  0  0  0
 21 22  2  0  0  0
 21 56  1  0  0  0
 22 23  1  0  0  0
 22 57  1  0  0  0
 23 24  2  0  0  0
 23 58  1  0  0  0
 24 59  1  0  0  0
 25 26  1  0  0  0
 25 32  1  0  0  0
 25 60  1  0  0  0
 26 27  1  0  0  0
 26 29  1  0  0  0
 26 61  1  0  0  0
 27 28  2  0  0  0
 29 30  1  0  0  0
 29 31  1  0  0  0
 29 62  1  0  0  0
 30 63  1  0  0  0
 30 64  1  0  0  0
 30 65  1  0  0  0
 31 66  1  0  0  0
 31 67  1  0  0  0
 31 68  1  0  0  0
 32 33  2  0  0  0
 32 34  1  0  0  0
 34 35  1  0  0  0
 34 36  1  0  0  0
 34 69  1  0  0  0
 35 70  1  0  0  0
 35 71  1  0  0  0
 36 72  1  0  0  0
 36 73  1  0  0  0
 37 38  1  0  0  0
 37 74  1  0  0  0
 37 75  1  0  0  0
 37 76  1  0  0  0
 38 39  1  0  0  0
 38 40  1  0  0  0
 39 77  1  0  0  0
 39 78  1  0  0  0
 39 79  1  0  0  0
 40 80  1  0  0  0
 40 81  1  0  0  0
 40 82  1  0  0  0
M  END
> <s_m_source_file>
../1fmb_ligand.sdf

> <i_m_source_file_index>
1

> <s_epik_input>
W2NIXTFbY0hdW2NIXVtjSF1jKGMxMilbY0hdW2NIXVtjSF1jMltDSDJdW0NASF0oW0NIMl1TKD1PKSg9TylDKFtDSDNdKShbQ0gzXSlbQ0gzXSlDKD1PKVtOSF1bQ0BASF0oW0NIXShbQ0gzXSlbQ0gzXSlDKD1PKVtOSF1bQ0BIXShbQ0gyXVtPSF0pW0NIMl1jM1tjSF1bY0hdW2NIXVtjSF1bY0hdMw==

> <s_epik_cmdline>
J2VwaWtfYXBwJywgJy1pbWFlJywgJ2xpZ2FuZF9wcm8ubWFlJywgJy1vbWFlJywgJ2xpZ2FuZF9wcmVwLm1hZScsICctbXMnLCAnMScsICctcGgnLCAnNycsICctcGh0JywgJzAuNScsICctbnQn

> <r_lp_tautomer_probability>
1

> <r_epik_Ionization_Penalty>
  0.0000

> <r_epik_Ionization_Penalty_Charging>
  0.0000

> <r_epik_Ionization_Penalty_Neutral>
  0.0000

> <r_epik_State_Penalty>
 -0.0000

> <r_epik_Charging_Adjusted_Penalty>
0

> <i_epik_Tot_Q>
0

> <i_epik_Tot_abs_Q>
0

$$$$
