1fo0_ligand
                    3D
 Schrodinger Suite 2020-3.
135136  0  0  1  0            999 V2000
   26.6090   42.0530   46.0620 N   0  3  0  0  0  0
   26.3900   40.6410   46.4320 C   0  0  2  0  0  0
   24.9150   40.3210   46.6720 C   0  0  0  0  0  0
   24.1470   41.1170   47.1870 O   0  0  0  0  0  0
   27.1940   40.2640   47.6880 C   0  0  2  0  0  0
   26.7320   41.1110   48.8660 C   0  0  0  0  0  0
   28.6480   40.5650   47.3730 C   0  0  0  0  0  0
   27.4910   40.8010   50.1280 C   0  0  0  0  0  0
   24.5470   39.1220   46.2520 N   0  0  0  0  0  0
   23.2090   38.5980   46.3130 C   0  0  2  0  0  0
   22.7560   38.3920   47.7400 C   0  0  0  0  0  0
   23.4640   38.5930   48.7080 O   0  0  0  0  0  0
   23.1280   37.2960   45.5000 C   0  0  0  0  0  0
   21.7500   36.9800   44.9770 C   0  0  0  0  0  0
   20.7520   37.6250   45.3150 O   0  0  0  0  0  0
   21.5940   35.9800   44.1290 N   0  0  0  0  0  0
   21.5160   37.9820   47.8940 N   0  0  0  0  0  0
   20.9270   37.7010   49.2180 C   0  0  2  0  0  0
   20.8690   36.2110   49.4980 C   0  0  0  0  0  0
   21.0020   35.3470   48.6110 O   0  0  0  0  0  0
   19.5320   38.2860   49.1190 C   0  0  0  0  0  0
   18.5490   38.0700   50.1990 C   0  0  0  0  0  0
   18.5890   38.7000   51.4260 C   0  0  0  0  0  0
   17.4760   37.2240   49.9150 C   0  0  0  0  0  0
   17.6060   38.4910   52.3810 C   0  0  0  0  0  0
   16.4950   37.0260   50.8500 C   0  0  0  0  0  0
   16.5580   37.6470   52.0750 C   0  0  0  0  0  0
   20.6770   35.8650   50.7500 N   0  0  0  0  0  0
   20.5230   34.5070   51.2770 C   0  0  2  0  0  0
   19.0130   34.2040   51.3840 C   0  0  0  0  0  0
   18.3460   34.6060   52.3490 O   0  0  0  0  0  0
   21.0060   34.4810   52.7520 C   0  0  0  0  0  0
   22.5300   34.4940   52.7060 C   0  0  0  0  0  0
   23.1100   35.4850   53.1840 O   0  0  0  0  0  0
   23.0620   33.5170   52.1310 O   0  5  0  0  0  0
   18.5620   33.5270   50.3400 N   0  0  0  0  0  0
   17.1940   33.1490   50.1560 C   0  0  2  0  0  0
   16.7390   31.9970   51.0390 C   0  0  0  0  0  0
   17.3310   30.9160   51.0680 O   0  0  0  0  0  0
   16.9030   32.7220   48.6960 C   0  0  0  0  0  0
   17.0350   33.8660   47.7330 C   0  0  0  0  0  0
   15.9770   34.7580   47.5170 C   0  0  0  0  0  0
   18.2300   34.0940   47.0730 C   0  0  0  0  0  0
   16.1010   35.8180   46.6680 C   0  0  0  0  0  0
   18.3640   35.1770   46.2250 C   0  0  0  0  0  0
   17.3000   36.0280   46.0050 C   0  0  0  0  0  0
   15.6360   32.2320   51.7320 N   0  0  0  0  0  0
   15.0050   31.2030   52.5320 C   0  0  2  0  0  0
   14.0900   30.4340   51.5950 C   0  0  0  0  0  0
   14.2190   30.5940   50.3620 O   0  0  0  0  0  0
   14.2430   31.8510   53.6740 C   0  0  0  0  0  0
   15.0170   31.6430   54.9730 C   0  0  0  0  0  0
   15.6930   30.6110   55.0810 O   0  0  0  0  0  0
   14.9040   32.6060   55.8720 N   0  0  0  0  0  0
   13.1720   29.6070   52.0800 N   0  0  0  0  0  0
   12.3740   28.8710   51.0920 C   0  0  2  0  0  0
   10.9470   29.3340   51.1720 C   0  0  0  0  0  0
   10.5520   30.0140   52.1020 O   0  0  0  0  0  0
   12.4300   27.3630   51.4010 C   0  0  2  0  0  0
   11.9520   27.1150   52.7340 O   0  0  0  0  0  0
   13.8590   26.8490   51.3130 C   0  0  0  0  0  0
   10.1320   28.8830   50.2510 N   0  0  0  0  0  0
    8.7150   29.2240   50.2880 C   0  0  2  0  0  0
    7.9020   28.0610   50.9070 C   0  0  0  0  0  0
    6.6350   28.2370   50.9000 O   0  5  0  0  0  0
    8.2020   29.3430   48.8380 C   0  0  2  0  0  0
    8.4090   27.9650   48.1820 C   0  0  0  0  0  0
    8.8490   30.4480   48.0920 C   0  0  0  0  0  0
    7.8290   27.9670   46.8190 C   0  0  0  0  0  0
    8.5440   27.0430   51.3010 O   0  0  0  0  0  0
   27.6831   42.2276   45.9015 H   0  0  0  0  0  0
   26.2486   42.7044   46.8718 H   0  0  0  0  0  0
   26.0585   42.2792   45.1369 H   0  0  0  0  0  0
   26.7430   40.0825   45.5525 H   0  0  0  0  0  0
   27.0636   39.2063   47.9606 H   0  0  0  0  0  0
   26.8810   42.1756   48.6329 H   0  0  0  0  0  0
   25.6650   40.9232   49.0565 H   0  0  0  0  0  0
   28.9737   39.9495   46.5215 H   0  0  0  0  0  0
   29.2688   40.3340   48.2512 H   0  0  0  0  0  0
   28.7551   41.6297   47.1181 H   0  0  0  0  0  0
   27.1199   41.4375   50.9448 H   0  0  0  0  0  0
   28.5619   40.9957   49.9690 H   0  0  0  0  0  0
   27.3459   39.7432   50.3926 H   0  0  0  0  0  0
   25.3584   38.5106   45.8303 H   0  0  0  0  0  0
   22.5708   39.3791   45.8741 H   0  0  0  0  0  0
   23.7961   37.3655   44.6289 H   0  0  0  0  0  0
   23.4358   36.4496   46.1315 H   0  0  0  0  0  0
   22.4647   35.3882   43.8103 H   0  0  0  0  0  0
   20.5933   35.7387   43.7412 H   0  0  0  0  0  0
   20.9120   37.8502   46.9842 H   0  0  0  0  0  0
   21.5351   38.1402   50.0225 H   0  0  0  0  0  0
   19.5983   39.3814   49.0430 H   0  0  0  0  0  0
   19.0293   37.8862   48.2260 H   0  0  0  0  0  0
   19.4128   39.3779   51.6496 H   0  0  0  0  0  0
   17.4187   36.7211   48.9496 H   0  0  0  0  0  0
   17.6598   38.9826   53.3524 H   0  0  0  0  0  0
   15.6558   36.3694   50.6206 H   0  0  0  0  0  0
   15.7733   37.4712   52.8109 H   0  0  0  0  0  0
   20.6359   36.7274   51.4316 H   0  0  0  0  0  0
   21.0836   33.8462   50.5995 H   0  0  0  0  0  0
   20.6202   35.3656   53.2798 H   0  0  0  0  0  0
   20.6344   33.5698   53.2435 H   0  0  0  0  0  0
   19.3143   33.2541   49.5853 H   0  0  0  0  0  0
   16.7082   34.0870   50.4629 H   0  0  0  0  0  0
   17.6136   31.9383   48.3946 H   0  0  0  0  0  0
   15.8765   32.3330   48.6254 H   0  0  0  0  0  0
   15.0332   34.6014   48.0393 H   0  0  0  0  0  0
   19.0700   33.4157   47.2229 H   0  0  0  0  0  0
   15.2621   36.4962   46.5117 H   0  0  0  0  0  0
   19.3160   35.3602   45.7268 H   0  0  0  0  0  0
   17.4022   36.8629   45.3118 H   0  0  0  0  0  0
   15.1990   33.2406   51.6890 H   0  0  0  0  0  0
   15.7682   30.5405   52.9662 H   0  0  0  0  0  0
   14.1332   32.9277   53.4772 H   0  0  0  0  0  0
   13.2477   31.3904   53.7587 H   0  0  0  0  0  0
   14.2706   33.4810   55.6641 H   0  0  0  0  0  0
   15.4434   32.5322   56.8278 H   0  0  0  0  0  0
   12.9919   29.4566   53.1547 H   0  0  0  0  0  0
   12.7878   29.0942   50.0975 H   0  0  0  0  0  0
   11.7713   26.8139   50.7121 H   0  0  0  0  0  0
   10.9310   27.4116   53.0162 H   0  0  0  0  0  0
   14.2508   27.0265   50.3006 H   0  0  0  0  0  0
   13.8746   25.7704   51.5284 H   0  0  0  0  0  0
   14.4849   27.3785   52.0464 H   0  0  0  0  0  0
   10.5229   28.2432   49.4461 H   0  0  0  0  0  0
    8.6539   30.1546   50.8712 H   0  0  0  0  0  0
    7.1452   29.6460   48.8009 H   0  0  0  0  0  0
    9.4853   27.7467   48.1193 H   0  0  0  0  0  0
    7.9129   27.1923   48.7876 H   0  0  0  0  0  0
    8.6633   31.3994   48.6119 H   0  0  0  0  0  0
    8.4315   30.4980   47.0755 H   0  0  0  0  0  0
    9.9325   30.2668   48.0349 H   0  0  0  0  0  0
    7.9794   26.9810   46.3551 H   0  0  0  0  0  0
    8.3247   28.7379   46.2107 H   0  0  0  0  0  0
    6.7522   28.1835   46.8791 H   0  0  0  0  0  0
  1  2  1  0  0  0
  1 71  1  0  0  0
  1 72  1  0  0  0
  1 73  1  0  0  0
  2  5  1  0  0  0
  2  3  1  0  0  0
  2 74  1  0  0  0
  3  4  2  0  0  0
  3  9  1  0  0  0
  5  7  1  0  0  0
  5  6  1  0  0  0
  5 75  1  0  0  0
  6  8  1  0  0  0
  6 76  1  0  0  0
  6 77  1  0  0  0
  7 78  1  0  0  0
  7 79  1  0  0  0
  7 80  1  0  0  0
  8 81  1  0  0  0
  8 82  1  0  0  0
  8 83  1  0  0  0
  9 10  1  0  0  0
  9 84  1  0  0  0
 10 13  1  0  0  0
 10 11  1  0  0  0
 10 85  1  0  0  0
 11 12  2  0  0  0
 11 17  1  0  0  0
 13 14  1  0  0  0
 13 86  1  0  0  0
 13 87  1  0  0  0
 14 16  1  0  0  0
 14 15  2  0  0  0
 16 88  1  0  0  0
 16 89  1  0  0  0
 17 18  1  0  0  0
 17 90  1  0  0  0
 18 21  1  0  0  0
 18 19  1  0  0  0
 18 91  1  0  0  0
 19 20  2  0  0  0
 19 28  1  0  0  0
 21 22  1  0  0  0
 21 92  1  0  0  0
 21 93  1  0  0  0
 22 23  2  0  0  0
 22 24  1  0  0  0
 23 25  1  0  0  0
 23 94  1  0  0  0
 24 26  2  0  0  0
 24 95  1  0  0  0
 25 27  2  0  0  0
 25 96  1  0  0  0
 26 27  1  0  0  0
 26 97  1  0  0  0
 27 98  1  0  0  0
 28 29  1  0  0  0
 28 99  1  0  0  0
 29 32  1  0  0  0
 29 30  1  0  0  0
 29100  1  0  0  0
 30 31  2  0  0  0
 30 36  1  0  0  0
 32 33  1  0  0  0
 32101  1  0  0  0
 32102  1  0  0  0
 33 34  2  0  0  0
 33 35  1  0  0  0
 36 37  1  0  0  0
 36103  1  0  0  0
 37 40  1  0  0  0
 37 38  1  0  0  0
 37104  1  0  0  0
 38 39  2  0  0  0
 38 47  1  0  0  0
 40 41  1  0  0  0
 40105  1  0  0  0
 40106  1  0  0  0
 41 42  2  0  0  0
 41 43  1  0  0  0
 42 44  1  0  0  0
 42107  1  0  0  0
 43 45  2  0  0  0
 43108  1  0  0  0
 44 46  2  0  0  0
 44109  1  0  0  0
 45 46  1  0  0  0
 45110  1  0  0  0
 46111  1  0  0  0
 47 48  1  0  0  0
 47112  1  0  0  0
 48 51  1  0  0  0
 48 49  1  0  0  0
 48113  1  0  0  0
 49 50  2  0  0  0
 49 55  1  0  0  0
 51 52  1  0  0  0
 51114  1  0  0  0
 51115  1  0  0  0
 52 54  1  0  0  0
 52 53  2  0  0  0
 54116  1  0  0  0
 54117  1  0  0  0
 55 56  1  0  0  0
 55118  1  0  0  0
 56 59  1  0  0  0
 56 57  1  0  0  0
 56119  1  0  0  0
 57 58  2  0  0  0
 57 62  1  0  0  0
 59 61  1  0  0  0
 59 60  1  0  0  0
 59120  1  0  0  0
 60121  1  0  0  0
 61122  1  0  0  0
 61123  1  0  0  0
 61124  1  0  0  0
 62 63  1  0  0  0
 62125  1  0  0  0
 63 66  1  0  0  0
 63 64  1  0  0  0
 63126  1  0  0  0
 64 65  1  0  0  0
 64 70  2  0  0  0
 66 68  1  0  0  0
 66 67  1  0  0  0
 66127  1  0  0  0
 67 69  1  0  0  0
 67128  1  0  0  0
 67129  1  0  0  0
 68130  1  0  0  0
 68131  1  0  0  0
 68132  1  0  0  0
 69133  1  0  0  0
 69134  1  0  0  0
 69135  1  0  0  0
M  CHG  3   1   1  35  -1  65  -1
M  END
> <s_m_source_file>
../1fo0_ligand.sdf

> <i_m_source_file_index>
1

> <s_epik_input>
W0NIM11bQ0gyXVtDQEhdKFtDSDNdKVtDQEhdKFtOSDMrXSlDKD1PKVtOSF1bQ0BASF0oW0NIMl1DKD1PKVtOSDJdKUMoPU8pW05IXVtDQEBIXShbQ0gyXWMxW2NIXVtjSF1bY0hdW2NIXVtjSF0xKUMoPU8pW05IXVtDQEBIXShbQ0gyXUMoPU8pW09IXSlDKD1PKVtOSF1bQ0BASF0oW0NIMl1jMltjSF1bY0hdW2NIXVtjSF1bY0hdMilDKD1PKVtOSF1bQ0BASF0oW0NIMl1DKD1PKVtOSDJdKUMoPU8pW05IXVtDQEBIXShbQ0BIXShbT0hdKVtDSDNdKUMoPU8pW05IXVtDQEhdKEMoPU8pW09IXSlbQ0BASF0oW0NIM10pW0NIMl1bQ0gzXQ==

> <s_epik_cmdline>
J2VwaWtfYXBwJywgJy1pbWFlJywgJ2xpZ2FuZF9wcm8ubWFlJywgJy1vbWFlJywgJ2xpZ2FuZF9wcmVwLm1hZScsICctbXMnLCAnMScsICctcGgnLCAnNycsICctcGh0JywgJzAuNScsICctbnQn

> <r_epik_Ionization_Penalty>
  0.0957

> <r_epik_Ionization_Penalty_Charging>
  0.0957

> <r_epik_Ionization_Penalty_Neutral>
  0.0000

> <r_epik_State_Penalty>
  0.0845

> <r_epik_Charging_Adjusted_Penalty>
0.18018354612699

> <i_epik_Tot_Q>
-1

> <i_epik_Tot_abs_Q>
3

$$$$
