1fo2_ligand
                    3D
 Schrodinger Suite 2020-3.
 25 25  0  0  1  0            999 V2000
   39.0090   40.2680   25.5130 C   0  0  1  0  0  0
   39.2170   40.5810   26.8980 O   0  0  0  0  0  0
   37.8240   39.1900   25.5270 C   0  0  2  0  0  0
   37.4510   38.7100   24.2400 O   0  0  0  0  0  0
   36.5330   39.8070   26.2310 C   0  0  2  0  0  0
   35.4780   38.8590   26.2210 O   0  0  0  0  0  0
   36.1110   41.1420   25.4880 C   0  0  0  0  0  0
   37.2720   42.0180   25.5830 N   0  3  0  0  0  0
   38.5930   41.6400   24.8470 C   0  0  2  0  0  0
   38.3690   41.5450   23.3070 C   0  0  0  0  0  0
   38.1770   42.3670   22.1460 O   0  0  0  0  0  0
   39.9173   39.8722   25.0351 H   0  0  0  0  0  0
   39.9886   41.3096   27.1873 H   0  0  0  0  0  0
   38.1909   38.2593   25.9843 H   0  0  0  0  0  0
   38.2038   38.2434   23.5876 H   0  0  0  0  0  0
   36.6706   39.9772   27.3090 H   0  0  0  0  0  0
   35.6158   37.8778   26.6987 H   0  0  0  0  0  0
   35.8609   40.9156   24.4410 H   0  0  0  0  0  0
   35.2340   41.5786   25.9883 H   0  0  0  0  0  0
   37.0170   43.0096   25.1809 H   0  0  0  0  0  0
   37.5723   42.1158   26.6367 H   0  0  0  0  0  0
   39.3817   42.4007   24.9434 H   0  0  0  0  0  0
   39.2223   41.0282   22.8436 H   0  0  0  0  0  0
   37.4457   40.9822   23.1048 H   0  0  0  0  0  0
   38.0438   41.9014   21.1583 H   0  0  0  0  0  0
  1  9  1  0  0  0
  1  3  1  0  0  0
  1  2  1  0  0  0
  1 12  1  0  0  0
  2 13  1  0  0  0
  3  5  1  0  0  0
  3  4  1  0  0  0
  3 14  1  0  0  0
  4 15  1  0  0  0
  5  7  1  0  0  0
  5  6  1  0  0  0
  5 16  1  0  0  0
  6 17  1  0  0  0
  7  8  1  0  0  0
  7 18  1  0  0  0
  7 19  1  0  0  0
  8  9  1  0  0  0
  8 20  1  0  0  0
  8 21  1  0  0  0
  9 10  1  0  0  0
  9 22  1  0  0  0
 10 11  1  0  0  0
 10 23  1  0  0  0
 10 24  1  0  0  0
 11 25  1  0  0  0
M  CHG  1   8   1
M  END
> <s_m_source_file>
../1fo2_ligand.sdf

> <i_m_source_file_index>
1

> <s_epik_input>
W09IXVtDQEhdMVtDQEhdKFtPSF0pW0NASF0oW09IXSlbQ0gyXVtOSDIrXVtDQEBIXTFbQ0gyXVtPSF0=

> <s_epik_cmdline>
J2VwaWtfYXBwJywgJy1pbWFlJywgJ2xpZ2FuZF9wcm8ubWFlJywgJy1vbWFlJywgJ2xpZ2FuZF9wcmVwLm1hZScsICctbXMnLCAnMScsICctcGgnLCAnNycsICctcGh0JywgJzAuNScsICctbnQn

> <r_lp_tautomer_probability>
1

> <r_epik_Ionization_Penalty>
  0.0034

> <r_epik_Ionization_Penalty_Charging>
  0.0034

> <r_epik_Ionization_Penalty_Neutral>
  0.0000

> <r_epik_State_Penalty>
 -0.0000

> <r_epik_Charging_Adjusted_Penalty>
0.00338677877254832

> <i_epik_Tot_Q>
1

> <i_epik_Tot_abs_Q>
1

$$$$
