1fo3_ligand
                    3D
 Schrodinger Suite 2020-3.
 28 29  0  0  1  0            999 V2000
   38.5320   40.2520   25.6920 C   0  0  1  0  0  0
   38.7330   40.4580   27.1030 O   0  0  0  0  0  0
   37.2750   39.2810   25.5610 C   0  0  2  0  0  0
   36.9690   38.8970   24.2210 O   0  0  0  0  0  0
   35.9920   39.9660   26.1760 C   0  0  2  0  0  0
   34.8570   39.1200   26.0040 O   0  0  0  0  0  0
   35.7780   41.3480   25.4640 C   0  0  1  0  0  0
   34.6510   42.0700   26.0750 N   0  0  0  0  0  0
   35.1260   43.3360   26.1780 C   0  0  0  0  0  0
   34.4420   44.3180   26.4090 O   0  0  0  0  0  0
   36.6030   43.3560   25.9670 C   0  0  0  0  0  0
   37.3260   44.3350   26.0040 O   0  0  0  0  0  0
   36.9520   42.1040   25.7920 N   0  0  0  0  0  0
   38.2610   41.6890   25.1200 C   0  0  2  0  0  0
   38.2190   41.7310   23.5610 C   0  0  0  0  0  0
   37.8300   42.5590   22.4540 O   0  0  0  0  0  0
   39.4181   39.8033   25.2192 H   0  0  0  0  0  0
   39.5534   41.1014   27.4535 H   0  0  0  0  0  0
   37.5282   38.3111   26.0139 H   0  0  0  0  0  0
   37.7308   38.3977   23.6044 H   0  0  0  0  0  0
   36.0401   40.0747   27.2696 H   0  0  0  0  0  0
   34.8503   38.1123   26.4450 H   0  0  0  0  0  0
   35.6065   41.2849   24.3793 H   0  0  0  0  0  0
   33.7219   41.5340   26.3190 H   0  0  0  0  0  0
   39.0573   42.4115   25.3522 H   0  0  0  0  0  0
   39.2405   41.6367   23.1640 H   0  0  0  0  0  0
   37.6026   40.8997   23.1883 H   0  0  0  0  0  0
   37.9749   42.2030   21.4233 H   0  0  0  0  0  0
  1 14  1  0  0  0
  1  3  1  0  0  0
  1  2  1  0  0  0
  1 17  1  0  0  0
  2 18  1  0  0  0
  3  5  1  0  0  0
  3  4  1  0  0  0
  3 19  1  0  0  0
  4 20  1  0  0  0
  5  7  1  0  0  0
  5  6  1  0  0  0
  5 21  1  0  0  0
  6 22  1  0  0  0
  7 13  1  0  0  0
  7  8  1  0  0  0
  7 23  1  0  0  0
  8  9  1  0  0  0
  8 24  1  0  0  0
  9 11  1  0  0  0
  9 10  2  0  0  0
 11 13  1  0  0  0
 11 12  2  0  0  0
 13 14  1  0  0  0
 14 15  1  0  0  0
 14 25  1  0  0  0
 15 16  1  0  0  0
 15 26  1  0  0  0
 15 27  1  0  0  0
 16 28  1  0  0  0
M  END
> <s_m_source_file>
../1fo3_ligand.sdf

> <i_m_source_file_index>
1

> <s_epik_input>
W09IXVtDQEhdMVtDQEBIXShbT0hdKVtDQEhdKFtPSF0pW0NAQEhdKFtDSDJdW09IXSlOKFtDQEBIXTEyKUMoPU8pQyg9TylbTkhdMg==

> <s_epik_cmdline>
J2VwaWtfYXBwJywgJy1pbWFlJywgJ2xpZ2FuZF9wcm8ubWFlJywgJy1vbWFlJywgJ2xpZ2FuZF9wcmVwLm1hZScsICctbXMnLCAnMScsICctcGgnLCAnNycsICctcGh0JywgJzAuNScsICctbnQn

> <r_lp_tautomer_probability>
1

> <r_epik_Ionization_Penalty>
  0.0003

> <r_epik_Ionization_Penalty_Charging>
  0.0000

> <r_epik_Ionization_Penalty_Neutral>
  0.0003

> <r_epik_State_Penalty>
 -0.0000

> <r_epik_Charging_Adjusted_Penalty>
0

> <i_epik_Tot_Q>
0

> <i_epik_Tot_abs_Q>
0

> <s_epik_Chemistry_Notes>
This compound contains an acetal/aminal-like group ( X-CH(R)-Y where X, Y are N, S, or O) that may be acid/base labile, releasing an aldehyde.

$$$$
