1fpc_ligand
                    3D
 Schrodinger Suite 2020-3.
 74 76  0  0  1  0            999 V2000
   17.5650  -17.0930   22.3550 C   0  0  0  0  0  0
   18.3640  -17.0780   21.1800 C   0  0  0  0  0  0
   19.6660  -16.6580   21.2390 C   0  0  0  0  0  0
   20.2110  -16.2220   22.4590 C   0  0  0  0  0  0
   19.4500  -16.2300   23.6240 C   0  0  0  0  0  0
   19.9740  -15.8220   24.8170 C   0  0  0  0  0  0
   19.2000  -15.7920   25.9650 C   0  0  0  0  0  0
   17.8740  -16.2710   25.8910 C   0  0  0  0  0  0
   17.3140  -16.6790   24.6970 C   0  0  0  0  0  0
   18.0840  -16.6810   23.5630 C   0  0  0  0  0  0
   21.2910  -15.3480   24.8670 N   0  0  0  0  0  0
   21.6710  -13.9230   24.9480 C   0  0  0  0  0  0
   22.2730  -16.2210   25.8110 C   0  0  0  0  0  0
   15.7800  -17.6380   22.1970 S   0  0  0  0  0  0
   15.6560  -18.0790   20.7840 O   0  0  0  0  0  0
   15.0610  -18.5890   23.1260 O   0  0  0  0  0  0
   14.6980  -16.2450   22.3190 N   0  0  3  0  0  0
   14.7870  -15.1650   21.3470 C   0  0  2  0  0  0
   15.8750  -14.1850   21.7940 C   0  0  0  0  0  0
   16.1180  -13.9270   22.9870 O   0  0  0  0  0  0
   13.4540  -14.4560   21.2730 C   0  0  0  0  0  0
   11.9190  -14.5210   21.3030 C   0  0  0  0  0  0
   11.4410  -13.1890   21.2000 C   0  0  0  0  0  0
   10.9800  -12.7740   22.5580 N   0  0  0  0  0  0
   11.1730  -11.7290   23.3130 C   0  0  0  0  0  0
   11.8990  -10.7000   22.7900 N   0  0  0  0  0  0
   10.6820  -11.7010   24.4910 N   0  3  0  0  0  0
   16.8870  -13.8810   20.8120 N   0  0  0  0  0  0
   17.8720  -12.8090   21.3660 C   0  0  0  0  0  0
   19.1770  -12.8640   20.5860 C   0  0  0  0  0  0
   18.8650  -12.9240   19.0080 C   0  0  0  0  0  0
   17.7980  -14.0640   18.5390 C   0  0  0  0  0  0
   16.4600  -13.9480   19.3070 C   0  0  0  0  0  0
   20.1770  -13.1700   18.4840 C   0  0  0  0  0  0
   20.3190  -13.0360   16.9390 C   0  0  0  0  0  0
   17.9395  -17.4015   20.2296 H   0  0  0  0  0  0
   20.2805  -16.6618   20.3387 H   0  0  0  0  0  0
   21.2431  -15.8731   22.4930 H   0  0  0  0  0  0
   19.6042  -15.4084   26.9018 H   0  0  0  0  0  0
   17.2763  -16.3200   26.8012 H   0  0  0  0  0  0
   16.2718  -16.9958   24.6565 H   0  0  0  0  0  0
   21.0038  -13.3286   24.3065 H   0  0  0  0  0  0
   22.7103  -13.8009   24.6091 H   0  0  0  0  0  0
   21.5818  -13.5783   25.9888 H   0  0  0  0  0  0
   21.9908  -17.2825   25.7513 H   0  0  0  0  0  0
   22.1837  -15.8758   26.8516 H   0  0  0  0  0  0
   23.3122  -16.0983   25.4719 H   0  0  0  0  0  0
   14.0781  -16.1246   23.2197 H   0  0  0  0  0  0
   15.0297  -15.6075   20.3696 H   0  0  0  0  0  0
   13.3876  -13.7146   22.0829 H   0  0  0  0  0  0
   13.3626  -13.9474   20.3019 H   0  0  0  0  0  0
   11.5611  -15.1272   20.4577 H   0  0  0  0  0  0
   11.5897  -14.9785   22.2476 H   0  0  0  0  0  0
   12.2532  -12.5339   20.8520 H   0  0  0  0  0  0
   10.6079  -13.1528   20.4826 H   0  0  0  0  0  0
   10.3201  -13.4339   23.1403 H   0  0  0  0  0  0
   12.3006  -10.7737   21.7686 H   0  0  0  0  0  0
   12.0830   -9.7963   23.3895 H   0  0  0  0  0  0
   10.1033  -12.5579   24.8662 H   0  0  0  0  0  0
   17.4243  -11.8099   21.2596 H   0  0  0  0  0  0
   18.0725  -13.0097   22.4288 H   0  0  0  0  0  0
   19.7735  -11.9662   20.8055 H   0  0  0  0  0  0
   19.7423  -13.7607   20.8799 H   0  0  0  0  0  0
   18.4704  -11.9846   18.5936 H   0  0  0  0  0  0
   17.5906  -13.9522   17.4645 H   0  0  0  0  0  0
   18.2202  -15.0618   18.7290 H   0  0  0  0  0  0
   15.8148  -14.8245   19.1476 H   0  0  0  0  0  0
   15.9089  -13.0339   19.0411 H   0  0  0  0  0  0
   20.8875  -12.4545   18.9236 H   0  0  0  0  0  0
   20.4861  -14.1952   18.7357 H   0  0  0  0  0  0
   21.3589  -13.2443   16.6469 H   0  0  0  0  0  0
   20.0499  -12.0142   16.6333 H   0  0  0  0  0  0
   19.6485  -13.7549   16.4455 H   0  0  0  0  0  0
   10.8376  -10.8199   25.1309 H   0  0  0  0  0  0
  1 14  1  0  0  0
  1 10  2  0  0  0
  1  2  1  0  0  0
  2  3  2  0  0  0
  2 36  1  0  0  0
  3  4  1  0  0  0
  3 37  1  0  0  0
  4  5  2  0  0  0
  4 38  1  0  0  0
  5 10  1  0  0  0
  5  6  1  0  0  0
  6 11  1  0  0  0
  6  7  2  0  0  0
  7  8  1  0  0  0
  7 39  1  0  0  0
  8  9  2  0  0  0
  8 40  1  0  0  0
  9 10  1  0  0  0
  9 41  1  0  0  0
 11 13  1  0  0  0
 11 12  1  0  0  0
 12 42  1  0  0  0
 12 43  1  0  0  0
 12 44  1  0  0  0
 13 45  1  0  0  0
 13 46  1  0  0  0
 13 47  1  0  0  0
 14 16  2  0  0  0
 14 15  2  0  0  0
 14 17  1  0  0  0
 17 18  1  0  0  0
 17 48  1  0  0  0
 18 19  1  0  0  0
 18 21  1  0  0  0
 18 49  1  0  0  0
 19 20  2  0  0  0
 19 28  1  0  0  0
 21 22  1  0  0  0
 21 50  1  0  0  0
 21 51  1  0  0  0
 22 23  1  0  0  0
 22 52  1  0  0  0
 22 53  1  0  0  0
 23 24  1  0  0  0
 23 54  1  0  0  0
 23 55  1  0  0  0
 24 25  1  0  0  0
 24 56  1  0  0  0
 25 26  1  0  0  0
 25 27  2  0  0  0
 26 57  1  0  0  0
 26 58  1  0  0  0
 27 59  1  0  0  0
 27 74  1  0  0  0
 28 33  1  0  0  0
 28 29  1  0  0  0
 29 30  1  0  0  0
 29 60  1  0  0  0
 29 61  1  0  0  0
 30 31  1  0  0  0
 30 62  1  0  0  0
 30 63  1  0  0  0
 31 34  1  0  0  0
 31 32  1  0  0  0
 31 64  1  0  0  0
 32 33  1  0  0  0
 32 65  1  0  0  0
 32 66  1  0  0  0
 33 67  1  0  0  0
 33 68  1  0  0  0
 34 35  1  0  0  0
 34 69  1  0  0  0
 34 70  1  0  0  0
 35 71  1  0  0  0
 35 72  1  0  0  0
 35 73  1  0  0  0
M  CHG  1  27   1
M  END
> <s_m_source_file>
../1fpc_ligand.sdf

> <i_m_source_file_index>
1

> <s_epik_input>
W0NIM11OKFtDSDNdKWMxW2NIXVtjSF1bY0hdYyhjMTIpYyhbY0hdW2NIXVtjSF0yKVMoPU8pKD1PKVtOSF1bQ0BASF0oW0NIMl1bQ0gyXVtDSDJdW05IXS9DKFtOSDJdKT1OXFtIXSlDKD1PKU4zW0NIMl1bQ0gyXVtDSF0oW0NIMl1bQ0gyXTMpW0NIMl1bQ0gzXQ==

> <s_epik_cmdline>
J2VwaWtfYXBwJywgJy1pbWFlJywgJ2xpZ2FuZF9wcm8ubWFlJywgJy1vbWFlJywgJ2xpZ2FuZF9wcmVwLm1hZScsICctbXMnLCAnMScsICctcGgnLCAnNycsICctcGh0JywgJzAuNScsICctbnQn

> <r_lp_tautomer_probability>
1

> <r_epik_Ionization_Penalty>
  0.0012

> <r_epik_Ionization_Penalty_Charging>
  0.0000

> <r_epik_Ionization_Penalty_Neutral>
  0.0012

> <r_epik_State_Penalty>
 -0.0000

> <r_epik_Charging_Adjusted_Penalty>
2.83349819601663e-06

> <i_epik_Tot_Q>
1

> <i_epik_Tot_abs_Q>
1

> <s_epik_Chemistry_Notes>
This compound has an imine and may undergo hydrolysis.

$$$$
