1fpi_ligand
                    3D
 Schrodinger Suite 2020-3.
 35 37  0  0  1  0            999 V2000
   35.8620   90.9570  -13.2880 P   0  0  0  0  0  0
   37.2300   91.4580  -12.9470 O   0  0  0  0  0  0
   35.4040   90.0870  -12.1570 O   0  5  0  0  0  0
   35.7590   90.1360  -14.5640 O   0  5  0  0  0  0
   34.8360   92.0820  -13.3630 O   0  0  0  0  0  0
   35.1210   93.1190  -14.3520 C   0  0  0  0  0  0
   34.1070   94.2450  -14.1290 C   0  0  1  0  0  0
   32.7750   93.7380  -13.9490 O   0  0  0  0  0  0
   34.3330   94.9390  -12.7520 C   0  0  1  0  0  0
   35.3700   95.7070  -12.6890 O   0  0  0  0  0  0
   32.9970   95.6370  -12.4890 C   0  0  1  0  0  0
   32.7110   96.4410  -13.5020 O   0  0  0  0  0  0
   32.3050   94.2790  -12.6900 C   0  0  2  0  0  0
   32.0870   93.3330  -11.5740 N   0  0  0  0  0  0
   32.8110   92.1950  -11.3600 C   0  0  0  0  0  0
   32.3230   91.6590  -10.2120 N   0  0  0  0  0  0
   31.3060   92.4090   -9.6820 C   0  0  0  0  0  0
   30.4990   92.3560   -8.5820 C   0  0  0  0  0  0
   30.6100   91.4200   -7.6070 N   0  0  0  0  0  0
   29.6160   93.3260   -8.4080 N   0  0  0  0  0  0
   29.4600   94.3560   -9.2230 C   0  0  0  0  0  0
   30.2330   94.4750  -10.3220 N   0  0  0  0  0  0
   31.1440   93.4870  -10.5370 C   0  0  0  0  0  0
   36.1476   93.4881  -14.2109 H   0  0  0  0  0  0
   35.0181   92.6992  -15.3635 H   0  0  0  0  0  0
   34.1689   94.8772  -15.0271 H   0  0  0  0  0  0
   34.7438   94.3349  -11.9296 H   0  0  0  0  0  0
   36.3734   95.2917  -12.8643 H   0  0  0  0  0  0
   32.7970   96.3364  -11.6639 H   0  0  0  0  0  0
   33.1222   97.4609  -13.5277 H   0  0  0  0  0  0
   31.2171   94.4277  -12.7568 H   0  0  0  0  0  0
   33.6140   91.7992  -11.9818 H   0  0  0  0  0  0
   31.3325   90.5974   -7.7139 H   0  0  0  0  0  0
   29.9776   91.4833   -6.7092 H   0  0  0  0  0  0
   28.7044   95.1110   -9.0059 H   0  0  0  0  0  0
  1  2  2  0  0  0
  1  3  1  0  0  0
  1  4  1  0  0  0
  1  5  1  0  0  0
  5  6  1  0  0  0
  6  7  1  0  0  0
  6 24  1  0  0  0
  6 25  1  0  0  0
  7  8  1  0  0  0
  7  9  1  0  0  0
  7 26  1  0  0  0
  8 13  1  0  0  0
  9 10  1  0  0  0
  9 11  1  0  0  0
  9 27  1  0  0  0
 10 28  1  0  0  0
 11 12  1  0  0  0
 11 13  1  0  0  0
 11 29  1  0  0  0
 12 30  1  0  0  0
 13 14  1  0  0  0
 13 31  1  0  0  0
 14 15  1  0  0  0
 14 23  1  0  0  0
 15 16  2  0  0  0
 15 32  1  0  0  0
 16 17  1  0  0  0
 17 18  2  0  0  0
 17 23  1  0  0  0
 18 19  1  0  0  0
 18 20  1  0  0  0
 19 33  1  0  0  0
 19 34  1  0  0  0
 20 21  2  0  0  0
 21 22  1  0  0  0
 21 35  1  0  0  0
 22 23  2  0  0  0
M  CHG  2   3  -1   4  -1
M  END
> <s_m_source_file>
../1fpi_ligand.sdf

> <i_m_source_file_index>
1

> <s_epik_input>
Tz1QKFtPSF0pKFtPSF0pT1tDSDJdW0NASF0xT1tDQEhdKFtDQEhdKFtPSF0pW0NAQEhdMVtPSF0pbihbY0hdbjIpYyhjMjMpbltjSF1uYzNbTkgyXQ==

> <s_epik_cmdline>
J2VwaWtfYXBwJywgJy1pbWFlJywgJ2xpZ2FuZF9wcm8ubWFlJywgJy1vbWFlJywgJ2xpZ2FuZF9wcmVwLm1hZScsICctbXMnLCAnMScsICctcGgnLCAnNycsICctcGh0JywgJzAuNScsICctbnQn

> <r_lp_tautomer_probability>
0.999997216410988

> <r_epik_Ionization_Penalty>
  0.1025

> <r_epik_Ionization_Penalty_Charging>
  0.1020

> <r_epik_Ionization_Penalty_Neutral>
  0.0004

> <r_epik_State_Penalty>
  0.0920

> <r_epik_Charging_Adjusted_Penalty>
0.194024004396068

> <i_epik_Tot_Q>
-2

> <i_epik_Tot_abs_Q>
2

> <s_epik_Chemistry_Notes>
This compound contains an acetal/aminal-like group ( X-CH(R)-Y where X, Y are N, S, or O) that may be acid/base labile, releasing an aldehyde.

$$$$
