1fpp_ligand
                    3D
 Schrodinger Suite 2020-3.
 49 48  0  0  1  0            999 V2000
  -32.5640   98.1220   23.1650 C   0  0  0  0  0  0
  -33.3690   97.4570   24.1550 O   0  0  0  0  0  0
  -32.9460   99.5490   22.8280 C   0  0  0  0  0  0
  -32.0630  100.5720   22.7390 C   0  0  0  0  0  0
  -32.5030  102.0030   22.3830 C   0  0  0  0  0  0
  -30.6130  100.2660   22.9990 C   0  0  0  0  0  0
  -29.7910  101.5270   23.3600 C   0  0  0  0  0  0
  -28.2570  101.3710   23.2860 C   0  0  0  0  0  0
  -27.4210  101.5050   22.2130 C   0  0  0  0  0  0
  -27.9560  101.8670   20.8040 C   0  0  0  0  0  0
  -25.9140  101.2860   22.4210 C   0  0  0  0  0  0
  -25.4860   99.8310   22.7340 C   0  0  0  0  0  0
  -25.4440   98.8730   21.5410 C   0  0  0  0  0  0
  -24.6830   97.7450   21.3570 C   0  0  0  0  0  0
  -24.7200   96.8610   20.1280 C   0  0  0  0  0  0
  -23.6910   97.2170   22.3710 C   0  0  0  0  0  0
  -34.1510   96.0610   23.8010 P   0  0  1  0  0  0
  -33.0910   94.8960   23.8410 O   0  5  0  0  0  0
  -35.2970   96.1520   24.8150 O   0  0  0  0  0  0
  -34.7800   95.7330   22.4430 O   0  0  0  0  0  0
  -35.1320   96.8830   21.4830 P   0  0  0  0  0  0
  -35.8160   98.1230   22.0000 O   0  5  0  0  0  0
  -35.9110   96.2950   20.3450 O   0  0  0  0  0  0
  -33.8900   97.5800   20.8440 O   0  5  0  0  0  0
  -31.5202   98.1644   23.5094 H   0  0  0  0  0  0
  -32.6151   97.5661   22.2172 H   0  0  0  0  0  0
  -34.0165   99.7294   22.6506 H   0  0  0  0  0  0
  -33.5922  102.0245   22.2308 H   0  0  0  0  0  0
  -31.9974  102.3231   21.4600 H   0  0  0  0  0  0
  -32.2339  102.6842   23.2037 H   0  0  0  0  0  0
  -30.5321   99.5598   23.8384 H   0  0  0  0  0  0
  -30.1655   99.8187   22.0991 H   0  0  0  0  0  0
  -30.0510  102.3439   22.6708 H   0  0  0  0  0  0
  -30.0202  101.8311   24.3920 H   0  0  0  0  0  0
  -27.8469  101.1155   24.2742 H   0  0  0  0  0  0
  -29.0489  101.9848   20.8459 H   0  0  0  0  0  0
  -27.7006  101.0637   20.0973 H   0  0  0  0  0  0
  -27.4982  102.8094   20.4690 H   0  0  0  0  0  0
  -25.3718  101.5785   21.5097 H   0  0  0  0  0  0
  -25.5676  101.8988   23.2663 H   0  0  0  0  0  0
  -24.4726   99.8309   23.1617 H   0  0  0  0  0  0
  -26.1887   99.3893   23.4559 H   0  0  0  0  0  0
  -26.1477   99.1953   20.7594 H   0  0  0  0  0  0
  -25.4467   97.2648   19.4077 H   0  0  0  0  0  0
  -25.0181   95.8426   20.4177 H   0  0  0  0  0  0
  -23.7221   96.8335   19.6659 H   0  0  0  0  0  0
  -23.6826   97.8748   23.2526 H   0  0  0  0  0  0
  -22.6868   97.1917   21.9227 H   0  0  0  0  0  0
  -23.9827   96.2008   22.6745 H   0  0  0  0  0  0
  1  2  1  0  0  0
  1  3  1  0  0  0
  1 25  1  0  0  0
  1 26  1  0  0  0
  2 17  1  0  0  0
  3  4  2  0  0  0
  3 27  1  0  0  0
  4  5  1  0  0  0
  4  6  1  0  0  0
  5 28  1  0  0  0
  5 29  1  0  0  0
  5 30  1  0  0  0
  6  7  1  0  0  0
  6 31  1  0  0  0
  6 32  1  0  0  0
  7  8  1  0  0  0
  7 33  1  0  0  0
  7 34  1  0  0  0
  8  9  2  0  0  0
  8 35  1  0  0  0
  9 10  1  0  0  0
  9 11  1  0  0  0
 10 36  1  0  0  0
 10 37  1  0  0  0
 10 38  1  0  0  0
 11 12  1  0  0  0
 11 39  1  0  0  0
 11 40  1  0  0  0
 12 13  1  0  0  0
 12 41  1  0  0  0
 12 42  1  0  0  0
 13 14  2  0  0  0
 13 43  1  0  0  0
 14 15  1  0  0  0
 14 16  1  0  0  0
 15 44  1  0  0  0
 15 45  1  0  0  0
 15 46  1  0  0  0
 16 47  1  0  0  0
 16 48  1  0  0  0
 16 49  1  0  0  0
 17 18  1  0  0  0
 17 19  2  0  0  0
 17 20  1  0  0  0
 20 21  1  0  0  0
 21 22  1  0  0  0
 21 23  2  0  0  0
 21 24  1  0  0  0
M  CHG  3  18  -1  22  -1  24  -1
M  END
> <s_m_source_file>
../1fpp_ligand.sdf

> <i_m_source_file_index>
1

> <s_epik_input>
W09IXVAoPU8pKFtPSF0pT1tQQEBdKD1PKShbT0hdKU9bQ0gyXS9bQ0hdPUMoL1tDSDNdKVtDSDJdW0NIMl0vW0NIXT1DKFxbQ0gzXSlbQ0gyXVtDSDJdW0NIXT1DKFtDSDNdKVtDSDNd

> <s_epik_cmdline>
J2VwaWtfYXBwJywgJy1pbWFlJywgJ2xpZ2FuZF9wcm8ubWFlJywgJy1vbWFlJywgJ2xpZ2FuZF9wcmVwLm1hZScsICctbXMnLCAnMScsICctcGgnLCAnNycsICctcGh0JywgJzAuNScsICctbnQn

> <r_epik_Ionization_Penalty>
  0.0891

> <r_epik_Ionization_Penalty_Charging>
  0.0891

> <r_epik_Ionization_Penalty_Neutral>
  0.0000

> <r_epik_State_Penalty>
  0.0782

> <r_epik_Charging_Adjusted_Penalty>
0.167378343084534

> <i_epik_Tot_Q>
-3

> <i_epik_Tot_abs_Q>
3

$$$$
