1fsw_ligand
                    3D
 Schrodinger Suite 2020-3.
 23 23  0  0  1  0            999 V2000
   26.6470    4.9870   16.4360 B   0  0  0  0  0  0
   25.4890    4.0140   16.5890 O   0  0  0  0  0  0
   26.7990    5.8050   17.6650 O   0  0  0  0  0  0
   26.4140    5.9160   15.2130 C   0  0  0  0  0  0
   25.1870    6.7370   15.3720 N   0  0  0  0  0  0
   24.5250    7.1750   14.2720 C   0  0  0  0  0  0
   24.9200    6.8790   13.1250 O   0  0  0  0  0  0
   23.2610    8.0240   14.4350 C   0  0  0  0  0  0
   22.1300    7.2390   14.6630 C   0  0  0  0  0  0
   21.8250    6.8610   15.9410 C   0  0  0  0  0  0
   20.6920    6.0780   15.9320 C   0  0  0  0  0  0
   20.1970    5.8990   14.6420 C   0  0  0  0  0  0
   21.1100    6.6930   13.3940 S   0  0  0  0  0  0
   25.4916    3.2805   17.4087 H   0  0  0  0  0  0
   26.9721    5.3145   18.6342 H   0  0  0  0  0  0
   27.2721    6.5948   15.0994 H   0  0  0  0  0  0
   26.3065    5.3057   14.3042 H   0  0  0  0  0  0
   24.8191    6.9871   16.3780 H   0  0  0  0  0  0
   23.3845    8.7050   15.2899 H   0  0  0  0  0  0
   23.0930    8.6109   13.5200 H   0  0  0  0  0  0
   22.3915    7.1369   16.8304 H   0  0  0  0  0  0
   20.2377    5.6502   16.8257 H   0  0  0  0  0  0
   19.3063    5.3070   14.4317 H   0  0  0  0  0  0
  1  2  1  0  0  0
  1  3  1  0  0  0
  1  4  1  0  0  0
  2 14  1  0  0  0
  3 15  1  0  0  0
  4  5  1  0  0  0
  4 16  1  0  0  0
  4 17  1  0  0  0
  5  6  1  0  0  0
  5 18  1  0  0  0
  6  7  2  0  0  0
  6  8  1  0  0  0
  8  9  1  0  0  0
  8 19  1  0  0  0
  8 20  1  0  0  0
  9 10  2  0  0  0
  9 13  1  0  0  0
 10 11  1  0  0  0
 10 21  1  0  0  0
 11 12  2  0  0  0
 11 22  1  0  0  0
 12 13  1  0  0  0
 12 23  1  0  0  0
M  END
> <s_m_source_file>
../1fsw_ligand.sdf

> <i_m_source_file_index>
1

> <s_epik_input>
W09IXUIoW09IXSlbQ0gyXVtOSF1DKD1PKVtDSDJdYzFbY0hdW2NIXVtjSF1zMQ==

> <s_epik_cmdline>
J2VwaWtfYXBwJywgJy1pbWFlJywgJ2xpZ2FuZF9wcm8ubWFlJywgJy1vbWFlJywgJ2xpZ2FuZF9wcmVwLm1hZScsICctbXMnLCAnMScsICctcGgnLCAnNycsICctcGh0JywgJzAuNScsICctbnQn

> <r_lp_tautomer_probability>
1

> <r_epik_Ionization_Penalty>
  0.0000

> <r_epik_Ionization_Penalty_Charging>
  0.0000

> <r_epik_Ionization_Penalty_Neutral>
  0.0000

> <r_epik_State_Penalty>
 -0.0000

> <r_epik_Charging_Adjusted_Penalty>
0

> <i_epik_Tot_Q>
0

> <i_epik_Tot_abs_Q>
0

> <s_epik_Chemistry_Notes>
This compound contains a Lewis acid (boronic acid) which adds nucleophiles to form tetrahedral complexes, lowering the experimental pKa

$$$$
