1fsy_ligand
                    3D
 Schrodinger Suite 2020-3.
 32 33  0  0  1  0            999 V2000
   26.4040    4.8710   16.2880 B   0  0  0  0  0  0
   25.2700    3.8740   16.5010 O   0  0  0  0  0  0
   26.5500    5.7400   17.4770 O   0  0  0  0  0  0
   26.1510    5.7310   15.0080 C   0  0  0  0  0  0
   24.7490    5.6030   14.5640 N   0  0  0  0  0  0
   24.3710    5.8520   13.2880 C   0  0  0  0  0  0
   25.1470    6.2190   12.4020 O   0  0  0  0  0  0
   22.9710    5.7210   12.9990 C   0  0  0  0  0  0
   20.7340    6.0800   13.3510 N   0  0  0  0  0  0
   20.9280    5.3460   12.1180 O   0  0  0  0  0  0
   22.2390    5.2140   12.0390 C   0  0  0  0  0  0
   21.9430    6.2880   13.8370 C   0  0  0  0  0  0
   22.8790    4.4890   10.8840 C   0  0  0  0  0  0
   21.9710    7.0550   15.1670 C   0  0  0  0  0  0
   22.7020    8.3110   15.2630 C   0  0  0  0  0  0
   23.4190    9.0830   13.8170 Cl  0  0  0  0  0  0
   22.8860    8.9420   16.5190 C   0  0  0  0  0  0
   22.3420    8.3460   17.6870 C   0  0  0  0  0  0
   21.6060    7.1260   17.5970 C   0  0  0  0  0  0
   21.4190    6.4810   16.3390 C   0  0  0  0  0  0
   25.2939    3.1895   17.3618 H   0  0  0  0  0  0
   26.7337    5.2935   18.4654 H   0  0  0  0  0  0
   26.3593    6.7882   15.2295 H   0  0  0  0  0  0
   26.8133    5.3885   14.1993 H   0  0  0  0  0  0
   23.9714    5.2963   15.2791 H   0  0  0  0  0  0
   23.9718    4.4921   11.0094 H   0  0  0  0  0  0
   22.6164    4.9945    9.9430 H   0  0  0  0  0  0
   22.5161    3.4510   10.8563 H   0  0  0  0  0  0
   23.4409    9.8777   16.5874 H   0  0  0  0  0  0
   22.4869    8.8220   18.6568 H   0  0  0  0  0  0
   21.1829    6.6832   18.4987 H   0  0  0  0  0  0
   20.8541    5.5507   16.2793 H   0  0  0  0  0  0
  1  2  1  0  0  0
  1  3  1  0  0  0
  1  4  1  0  0  0
  2 21  1  0  0  0
  3 22  1  0  0  0
  4  5  1  0  0  0
  4 23  1  0  0  0
  4 24  1  0  0  0
  5  6  1  0  0  0
  5 25  1  0  0  0
  6  7  2  0  0  0
  6  8  1  0  0  0
  8 11  2  0  0  0
  8 12  1  0  0  0
  9 10  1  0  0  0
  9 12  2  0  0  0
 10 11  1  0  0  0
 11 13  1  0  0  0
 12 14  1  0  0  0
 13 26  1  0  0  0
 13 27  1  0  0  0
 13 28  1  0  0  0
 14 15  2  0  0  0
 14 20  1  0  0  0
 15 16  1  0  0  0
 15 17  1  0  0  0
 17 18  2  0  0  0
 17 29  1  0  0  0
 18 19  1  0  0  0
 18 30  1  0  0  0
 19 20  2  0  0  0
 19 31  1  0  0  0
 20 32  1  0  0  0
M  END
> <s_m_source_file>
../1fsy_ligand.sdf

> <i_m_source_file_index>
1

> <s_epik_input>
W09IXUIoW09IXSlbQ0gyXVtOSF1DKD1PKWMxYyhbQ0gzXSlvbmMxLWMyYyhDbClbY0hdW2NIXVtjSF1bY0hdMg==

> <s_epik_cmdline>
J2VwaWtfYXBwJywgJy1pbWFlJywgJ2xpZ2FuZF9wcm8ubWFlJywgJy1vbWFlJywgJ2xpZ2FuZF9wcmVwLm1hZScsICctbXMnLCAnMScsICctcGgnLCAnNycsICctcGh0JywgJzAuNScsICctbnQn

> <r_lp_tautomer_probability>
1

> <r_epik_Ionization_Penalty>
  0.0000

> <r_epik_Ionization_Penalty_Charging>
  0.0000

> <r_epik_Ionization_Penalty_Neutral>
  0.0000

> <r_epik_State_Penalty>
 -0.0000

> <r_epik_Charging_Adjusted_Penalty>
0

> <i_epik_Tot_Q>
0

> <i_epik_Tot_abs_Q>
0

> <s_epik_Chemistry_Notes>
This compound contains a Lewis acid (boronic acid) which adds nucleophiles to form tetrahedral complexes, lowering the experimental pKa

$$$$
