1fta_ligand
                    3D
 Schrodinger Suite 2020-3.
 35 37  0  0  1  0            999 V2000
   14.6600   60.0770   16.7220 P   0  0  0  0  0  0
   14.1710   59.3310   15.5260 O   0  0  0  0  0  0
   13.7400   61.2400   16.9390 O   0  5  0  0  0  0
   14.5240   59.1690   17.9490 O   0  5  0  0  0  0
   16.1470   60.5340   16.5300 O   0  0  0  0  0  0
   16.4080   61.6450   15.6150 C   0  0  0  0  0  0
   17.8510   61.7280   15.5580 C   0  0  1  0  0  0
   18.3840   61.8870   16.8940 O   0  0  0  0  0  0
   18.4340   60.4150   15.0070 C   0  0  1  0  0  0
   18.7420   60.4570   13.6240 O   0  0  0  0  0  0
   19.6440   60.1380   15.9060 C   0  0  1  0  0  0
   20.8820   60.4040   15.2610 O   0  0  0  0  0  0
   19.4190   60.9940   17.1840 C   0  0  2  0  0  0
   19.0940   60.1790   18.4260 N   0  0  0  0  0  0
   17.8710   59.6220   18.7140 C   0  0  0  0  0  0
   17.9640   58.6650   19.6930 N   0  0  0  0  0  0
   19.3050   58.5690   19.9340 C   0  0  0  0  0  0
   19.9530   57.5990   20.7210 C   0  0  0  0  0  0
   19.3060   56.8340   21.5720 N   0  0  0  0  0  0
   21.3100   57.7680   20.7990 N   0  0  0  0  0  0
   21.9470   58.4600   19.7950 C   0  0  0  0  0  0
   21.3370   59.4330   19.0610 N   0  0  0  0  0  0
   19.9900   59.3740   19.0450 C   0  0  0  0  0  0
   15.9687   61.4211   14.6317 H   0  0  0  0  0  0
   15.9577   62.5646   16.0169 H   0  0  0  0  0  0
   18.0858   62.6164   14.9533 H   0  0  0  0  0  0
   17.7140   59.5849   14.9554 H   0  0  0  0  0  0
   17.9465   60.6492   12.8890 H   0  0  0  0  0  0
   19.7947   59.0676   16.1095 H   0  0  0  0  0  0
   21.1532   59.8587   14.3450 H   0  0  0  0  0  0
   20.3019   61.5992   17.4376 H   0  0  0  0  0  0
   16.9397   59.9061   18.2240 H   0  0  0  0  0  0
   18.2157   56.7158   21.4865 H   0  0  0  0  0  0
   19.8549   56.3120   22.3697 H   0  0  0  0  0  0
   22.9873   58.2191   19.5765 H   0  0  0  0  0  0
  1  2  2  0  0  0
  1  3  1  0  0  0
  1  4  1  0  0  0
  1  5  1  0  0  0
  5  6  1  0  0  0
  6  7  1  0  0  0
  6 24  1  0  0  0
  6 25  1  0  0  0
  7  8  1  0  0  0
  7  9  1  0  0  0
  7 26  1  0  0  0
  8 13  1  0  0  0
  9 10  1  0  0  0
  9 11  1  0  0  0
  9 27  1  0  0  0
 10 28  1  0  0  0
 11 12  1  0  0  0
 11 13  1  0  0  0
 11 29  1  0  0  0
 12 30  1  0  0  0
 13 14  1  0  0  0
 13 31  1  0  0  0
 14 15  1  0  0  0
 14 23  1  0  0  0
 15 16  2  0  0  0
 15 32  1  0  0  0
 16 17  1  0  0  0
 17 18  2  0  0  0
 17 23  1  0  0  0
 18 19  1  0  0  0
 18 20  1  0  0  0
 19 33  1  0  0  0
 19 34  1  0  0  0
 20 21  2  0  0  0
 21 22  1  0  0  0
 21 35  1  0  0  0
 22 23  2  0  0  0
M  CHG  2   3  -1   4  -1
M  END
> <s_m_source_file>
../1fta_ligand.sdf

> <i_m_source_file_index>
1

> <s_epik_input>
Tz1QKFtPSF0pKFtPSF0pT1tDSDJdW0NASF0xT1tDQEhdKFtDQEhdKFtPSF0pW0NAQEhdMVtPSF0pbihbY0hdbjIpYyhjMjMpbltjSF1uYzNbTkgyXQ==

> <s_epik_cmdline>
J2VwaWtfYXBwJywgJy1pbWFlJywgJ2xpZ2FuZF9wcm8ubWFlJywgJy1vbWFlJywgJ2xpZ2FuZF9wcmVwLm1hZScsICctbXMnLCAnMScsICctcGgnLCAnNycsICctcGh0JywgJzAuNScsICctbnQn

> <r_lp_tautomer_probability>
0.999997216410988

> <r_epik_Ionization_Penalty>
  0.1025

> <r_epik_Ionization_Penalty_Charging>
  0.1020

> <r_epik_Ionization_Penalty_Neutral>
  0.0004

> <r_epik_State_Penalty>
  0.0920

> <r_epik_Charging_Adjusted_Penalty>
0.194024004396068

> <i_epik_Tot_Q>
-2

> <i_epik_Tot_abs_Q>
2

> <s_epik_Chemistry_Notes>
This compound contains an acetal/aminal-like group ( X-CH(R)-Y where X, Y are N, S, or O) that may be acid/base labile, releasing an aldehyde.

$$$$
