1ftk_ligand
                    3D
 Schrodinger Suite 2020-3.
 31 31  0  0  1  0            999 V2000
   -8.5750    9.5990    8.3570 N   0  3  0  0  0  0
   -9.7500   10.1070    9.1550 C   0  0  0  0  0  0
  -12.3640   11.2250    9.4980 C   0  0  0  0  0  0
  -12.3090   12.8460    7.6680 C   0  0  0  0  0  0
   -8.6910   10.1310    7.0230 C   0  0  1  0  0  0
  -10.0910   10.6490    6.7990 C   0  0  1  0  0  0
  -11.2300    9.5660    6.5310 C   0  0  0  0  0  0
  -10.3860   11.1850    8.1640 C   0  0  1  0  0  0
  -11.2260    9.1240    5.0600 C   0  0  0  0  0  0
  -11.7560   11.7700    8.5180 C   0  0  0  0  0  0
   -7.5940   11.1850    6.7100 C   0  0  0  0  0  0
   -6.6660   11.2560    7.5430 O   0  0  0  0  0  0
  -11.9440    8.1440    4.8060 O   0  0  0  0  0  0
  -10.5560    9.7770    4.2320 O   0  5  0  0  0  0
   -7.7520   11.8560    5.6600 O   0  5  0  0  0  0
   -7.6394    9.9389    8.8251 H   0  0  0  0  0  0
   -8.5951    8.4994    8.3342 H   0  0  0  0  0  0
  -10.4309    9.2721    9.3770 H   0  0  0  0  0  0
   -9.3907   10.5475   10.0968 H   0  0  0  0  0  0
  -13.3298   11.7274    9.6555 H   0  0  0  0  0  0
  -11.7507   11.3164   10.4066 H   0  0  0  0  0  0
  -12.5358   10.1612    9.2770 H   0  0  0  0  0  0
  -13.2916   13.1517    8.0565 H   0  0  0  0  0  0
  -12.4205   12.4783    6.6373 H   0  0  0  0  0  0
  -11.6263   13.7085    7.6778 H   0  0  0  0  0  0
   -8.5356    9.2667    6.3606 H   0  0  0  0  0  0
  -10.0690   11.3393    5.9428 H   0  0  0  0  0  0
  -11.0554    8.6854    7.1666 H   0  0  0  0  0  0
  -12.2123   10.0005    6.7683 H   0  0  0  0  0  0
   -9.9544   12.1966    8.1837 H   0  0  0  0  0  0
  -12.4950   11.9609    9.3101 H   0  0  0  0  0  0
  1  2  1  0  0  0
  1  5  1  0  0  0
  1 16  1  0  0  0
  1 17  1  0  0  0
  2  8  1  0  0  0
  2 18  1  0  0  0
  2 19  1  0  0  0
  3 10  1  0  0  0
  3 20  1  0  0  0
  3 21  1  0  0  0
  3 22  1  0  0  0
  4 10  1  0  0  0
  4 23  1  0  0  0
  4 24  1  0  0  0
  4 25  1  0  0  0
  5  6  1  0  0  0
  5 11  1  0  0  0
  5 26  1  0  0  0
  6  7  1  0  0  0
  6  8  1  0  0  0
  6 27  1  0  0  0
  7  9  1  0  0  0
  7 28  1  0  0  0
  7 29  1  0  0  0
  8 10  1  0  0  0
  8 30  1  0  0  0
  9 13  2  0  0  0
  9 14  1  0  0  0
 10 31  1  0  0  0
 11 12  2  0  0  0
 11 15  1  0  0  0
M  CHG  3   1   1  14  -1  15  -1
M  END
> <s_m_source_file>
../1ftk_ligand.sdf

> <i_m_source_file_index>
1

> <s_epik_input>
Tz1DKFtPSF0pW0NASF0xW05IMitdW0NIMl1bQ0BIXShbQ0hdKFtDSDNdKVtDSDNdKVtDQEBIXTFbQ0gyXUMoPU8pW09IXQ==

> <s_epik_cmdline>
J2VwaWtfYXBwJywgJy1pbWFlJywgJ2xpZ2FuZF9wcm8ubWFlJywgJy1vbWFlJywgJ2xpZ2FuZF9wcmVwLm1hZScsICctbXMnLCAnMScsICctcGgnLCAnNycsICctcGh0JywgJzAuNScsICctbnQn

> <r_lp_tautomer_probability>
1

> <r_epik_Ionization_Penalty>
  0.0033

> <r_epik_Ionization_Penalty_Charging>
  0.0033

> <r_epik_Ionization_Penalty_Neutral>
  0.0000

> <r_epik_State_Penalty>
 -0.0000

> <r_epik_Charging_Adjusted_Penalty>
0.00333179081107451

> <i_epik_Tot_Q>
-1

> <i_epik_Tot_abs_Q>
3

$$$$
