1fv9_ligand
                    3D
 Schrodinger Suite 2020-3.
 18 19  0  0  1  0            999 V2000
   21.0210   16.0610   33.5870 C   0  0  0  0  0  0
   21.0130   17.3660   34.0060 C   0  0  0  0  0  0
   19.8440   18.0310   33.9110 C   0  0  0  0  0  0
   18.7770   17.5240   33.4730 C   0  0  0  0  0  0
   18.6710   16.2560   33.0310 C   0  0  0  0  0  0
   19.8380   15.4740   33.0780 C   0  0  0  0  0  0
   19.7560   19.3420   34.2640 N   0  0  0  0  0  0
   18.4010   19.5750   33.9580 C   0  0  0  0  0  0
   17.7440   18.4180   33.4490 N   0  3  0  0  0  0
   17.7880   20.7780   34.1480 N   0  0  0  0  0  0
   22.1710   15.3420   33.6520 O   0  0  0  0  0  0
   21.9106   17.8443   34.3980 H   0  0  0  0  0  0
   17.7285   15.8568   32.6561 H   0  0  0  0  0  0
   19.8321   14.4407   32.7309 H   0  0  0  0  0  0
   16.7221   20.8968   33.9036 H   0  0  0  0  0  0
   23.0870   15.8042   34.0487 H   0  0  0  0  0  0
   20.6393   19.8660   34.6580 H   0  0  0  0  0  0
   16.7527   18.1036   33.0905 H   0  0  0  0  0  0
  1  2  2  0  0  0
  1  6  1  0  0  0
  1 11  1  0  0  0
  2  3  1  0  0  0
  2 12  1  0  0  0
  3  4  2  0  0  0
  3  7  1  0  0  0
  4  5  1  0  0  0
  4  9  1  0  0  0
  5  6  2  0  0  0
  5 13  1  0  0  0
  6 14  1  0  0  0
  7  8  1  0  0  0
  7 17  1  0  0  0
  8  9  1  0  0  0
  8 10  2  0  0  0
  9 18  1  0  0  0
 10 15  1  0  0  0
 11 16  1  0  0  0
M  CHG  1   9   1
M  END
> <s_m_source_file>
../1fv9_ligand.sdf

> <i_m_source_file_index>
1

> <s_epik_input>
W2NIXTFjKFtPSF0pW2NIXVtjSF1jKGMxMilbbkhdYyhuMilbTkgyXQ==

> <s_epik_cmdline>
J2VwaWtfYXBwJywgJy1pbWFlJywgJ2xpZ2FuZF9wcm8ubWFlJywgJy1vbWFlJywgJ2xpZ2FuZF9wcmVwLm1hZScsICctbXMnLCAnMScsICctcGgnLCAnNycsICctcGh0JywgJzAuNScsICctbnQn

> <r_epik_Ionization_Penalty>
  0.0013

> <r_epik_Ionization_Penalty_Charging>
  0.0000

> <r_epik_Ionization_Penalty_Neutral>
  0.0013

> <r_epik_State_Penalty>
  0.4107

> <r_epik_Charging_Adjusted_Penalty>
0.410679838952604

> <i_epik_Tot_Q>
1

> <i_epik_Tot_abs_Q>
1

> <s_epik_Chemistry_Notes>
This compound has an imine and may undergo hydrolysis.

$$$$
