1fvv_ligand
                    3D
 Schrodinger Suite 2020-3.
 46 50  0  0  1  0            999 V2000
  -11.2220  207.9760  109.2120 O   0  0  0  0  0  0
  -12.1710  207.5020  109.8420 C   0  0  0  0  0  0
  -13.3600  207.1380  109.3200 N   0  0  0  0  0  0
  -14.2170  206.7500  110.3000 C   0  0  0  0  0  0
  -15.6380  206.3600  110.1900 C   0  0  0  0  0  0
  -16.3860  205.9670  111.3900 C   0  0  0  0  0  0
  -15.7410  206.0270  112.6900 C   0  0  0  0  0  0
  -16.2320  205.7140  113.9500 N   0  0  0  0  0  0
  -15.3040  205.8370  114.9320 C   0  0  0  0  0  0
  -13.8140  206.4530  114.4280 S   0  0  0  0  0  0
  -14.2920  206.4680  112.8160 C   0  0  0  0  0  0
  -13.5570  206.8060  111.5860 C   0  0  0  0  0  0
  -12.2030  207.2550  111.3270 C   0  0  0  0  0  0
  -11.1760  207.4750  112.1700 C   0  0  0  0  0  0
  -10.1070  208.4390  111.7920 N   0  0  0  0  0  0
   -9.0990  208.8850  112.5560 C   0  0  0  0  0  0
   -9.2420  209.2080  114.0130 C   0  0  0  0  0  0
   -8.0670  209.5940  114.7840 C   0  0  0  0  0  0
   -6.7650  209.7680  114.0980 C   0  0  0  0  0  0
   -6.6070  209.4480  112.6660 C   0  0  0  0  0  0
   -7.7830  209.0220  111.8860 C   0  0  0  0  0  0
   -5.4220  210.3800  115.0540 S   0  0  0  0  0  0
   -4.2100  210.2890  114.2980 O   0  0  0  0  0  0
   -5.8540  211.6490  115.5540 O   0  0  0  0  0  0
   -5.2170  209.3650  116.3500 N   0  0  0  0  0  0
   -3.5620  206.0480  115.3440 C   0  0  0  0  0  0
   -3.8620  205.2520  116.5560 C   0  0  0  0  0  0
   -4.7090  205.8750  117.5970 C   0  0  0  0  0  0
   -5.1930  207.2180  117.4430 N   0  0  0  0  0  0
   -4.8230  208.0270  116.3130 C   0  0  0  0  0  0
   -4.0220  207.4320  115.1920 C   0  0  0  0  0  0
  -16.1352  206.3642  109.2088 H   0  0  0  0  0  0
  -17.4292  205.6293  111.3018 H   0  0  0  0  0  0
  -15.5045  205.5596  115.9669 H   0  0  0  0  0  0
  -11.5618  207.8614  113.1249 H   0  0  0  0  0  0
  -10.6381  206.5319  112.3466 H   0  0  0  0  0  0
  -10.0885  208.8710  110.7805 H   0  0  0  0  0  0
  -10.2192  209.1545  114.4929 H   0  0  0  0  0  0
   -8.1455  209.7538  115.8594 H   0  0  0  0  0  0
   -5.6298  209.5259  112.1895 H   0  0  0  0  0  0
   -7.6858  208.8086  110.8215 H   0  0  0  0  0  0
   -5.3971  209.7331  117.3708 H   0  0  0  0  0  0
   -2.9824  205.5919  114.5415 H   0  0  0  0  0  0
   -3.4721  204.2414  116.6772 H   0  0  0  0  0  0
   -4.9685  205.3080  118.4910 H   0  0  0  0  0  0
   -3.7903  208.0084  114.2963 H   0  0  0  0  0  0
  1  2  2  0  0  0
  2  3  1  0  0  0
  2 13  1  0  0  0
  3  4  2  0  0  0
  4  5  1  0  0  0
  4 12  1  0  0  0
  5  6  2  0  0  0
  5 32  1  0  0  0
  6  7  1  0  0  0
  6 33  1  0  0  0
  7  8  1  0  0  0
  7 11  2  0  0  0
  8  9  2  0  0  0
  9 10  1  0  0  0
  9 34  1  0  0  0
 10 11  1  0  0  0
 11 12  1  0  0  0
 12 13  2  0  0  0
 13 14  1  0  0  0
 14 15  1  0  0  0
 14 35  1  0  0  0
 14 36  1  0  0  0
 15 16  1  0  0  0
 15 37  1  0  0  0
 16 17  2  0  0  0
 16 21  1  0  0  0
 17 18  1  0  0  0
 17 38  1  0  0  0
 18 19  2  0  0  0
 18 39  1  0  0  0
 19 20  1  0  0  0
 19 22  1  0  0  0
 20 21  2  0  0  0
 20 40  1  0  0  0
 21 41  1  0  0  0
 22 23  2  0  0  0
 22 24  2  0  0  0
 22 25  1  0  0  0
 25 30  1  0  0  0
 25 42  1  0  0  0
 26 27  2  0  0  0
 26 31  1  0  0  0
 26 43  1  0  0  0
 27 28  1  0  0  0
 27 44  1  0  0  0
 28 29  2  0  0  0
 28 45  1  0  0  0
 29 30  1  0  0  0
 30 31  2  0  0  0
 31 46  1  0  0  0
M  END
> <s_m_source_file>
../1fvv_ligand.sdf

> <i_m_source_file_index>
1

> <s_epik_input>
czFbY0hdbmMoW2NIXVtjSF0yKWMxYyhjMjMpPUMoQyg9TylOPTMpW0NIMl1bTkhdYzRbY0hdW2NIXWMoW2NIXVtjSF00KVMoPU8pKD1PKVtOSF1jNW5bY0hdW2NIXVtjSF1bY0hdNQ==

> <s_epik_cmdline>
J2VwaWtfYXBwJywgJy1pbWFlJywgJ2xpZ2FuZF9wcm8ubWFlJywgJy1vbWFlJywgJ2xpZ2FuZF9wcmVwLm1hZScsICctbXMnLCAnMScsICctcGgnLCAnNycsICctcGh0JywgJzAuNScsICctbnQn

> <r_epik_Ionization_Penalty>
  0.0539

> <r_epik_Ionization_Penalty_Charging>
  0.0000

> <r_epik_Ionization_Penalty_Neutral>
  0.0539

> <r_epik_State_Penalty>
  0.1485

> <r_epik_Charging_Adjusted_Penalty>
0.148528817972128

> <i_epik_Tot_Q>
0

> <i_epik_Tot_abs_Q>
0

> <s_epik_Chemistry_Notes>
This compound has an imine and may undergo hydrolysis.

$$$$
