1fw0_ligand
                    3D
 Schrodinger Suite 2020-3.
 29 29  0  0  1  0            999 V2000
   14.3510   -1.8980   16.0370 N   0  3  0  0  0  0
   15.6050   -1.2130   15.5700 C   0  0  0  0  0  0
   18.2910   -1.0880   14.4340 C   0  0  0  0  0  0
   19.1920   -3.1290   15.5420 C   0  0  0  0  0  0
   14.6010   -3.3280   16.0990 C   0  0  1  0  0  0
   15.9500   -3.6860   15.4710 C   0  0  1  0  0  0
   16.0730   -3.9080   13.8710 C   0  0  0  0  0  0
   16.6900   -2.3860   15.7120 C   0  0  1  0  0  0
   15.7190   -5.3410   13.4220 C   0  0  0  0  0  0
   18.1350   -2.1320   15.1890 C   0  0  0  0  0  0
   14.5070   -3.8180   17.5860 C   0  0  0  0  0  0
   14.1850   -2.9580   18.4350 O   0  0  0  0  0  0
   15.3840   -5.4570   12.2380 O   0  0  0  0  0  0
   15.8400   -6.2770   14.2380 O   0  5  0  0  0  0
   14.7720   -5.0250   17.8170 O   0  5  0  0  0  0
   14.0771   -1.5217   17.0337 H   0  0  0  0  0  0
   13.5346   -1.6904   15.3296 H   0  0  0  0  0  0
   15.4712   -0.8700   14.5334 H   0  0  0  0  0  0
   15.8139   -0.3490   16.2180 H   0  0  0  0  0  0
   19.2844   -0.8462   14.0283 H   0  0  0  0  0  0
   17.4298   -0.4450   14.1998 H   0  0  0  0  0  0
   20.1517   -2.8161   15.1050 H   0  0  0  0  0  0
   18.9125   -4.1159   15.1446 H   0  0  0  0  0  0
   19.2893   -3.1884   16.6361 H   0  0  0  0  0  0
   13.8161   -3.7825   15.4766 H   0  0  0  0  0  0
   16.2676   -4.6245   15.9488 H   0  0  0  0  0  0
   15.3888   -3.2208   13.3518 H   0  0  0  0  0  0
   17.1063   -3.7076   13.5514 H   0  0  0  0  0  0
   17.1120   -2.5270   16.7180 H   0  0  0  0  0  0
  1  2  1  0  0  0
  1  5  1  0  0  0
  1 16  1  0  0  0
  1 17  1  0  0  0
  2  8  1  0  0  0
  2 18  1  0  0  0
  2 19  1  0  0  0
  3 10  2  0  0  0
  3 20  1  0  0  0
  3 21  1  0  0  0
  4 10  1  0  0  0
  4 22  1  0  0  0
  4 23  1  0  0  0
  4 24  1  0  0  0
  5  6  1  0  0  0
  5 11  1  0  0  0
  5 25  1  0  0  0
  6  7  1  0  0  0
  6  8  1  0  0  0
  6 26  1  0  0  0
  7  9  1  0  0  0
  7 27  1  0  0  0
  7 28  1  0  0  0
  8 10  1  0  0  0
  8 29  1  0  0  0
  9 13  2  0  0  0
  9 14  1  0  0  0
 11 12  2  0  0  0
 11 15  1  0  0  0
M  CHG  3   1   1  14  -1  15  -1
M  END
> <s_m_source_file>
../1fw0_ligand.sdf

> <i_m_source_file_index>
1

> <s_epik_input>
Tz1DKFtPSF0pW0NASF0xW05IMitdW0NIMl1bQ0BIXShDKD1bQ0gyXSlbQ0gzXSlbQ0BASF0xW0NIMl1DKD1PKVtPSF0=

> <s_epik_cmdline>
J2VwaWtfYXBwJywgJy1pbWFlJywgJ2xpZ2FuZF9wcm8ubWFlJywgJy1vbWFlJywgJ2xpZ2FuZF9wcmVwLm1hZScsICctbXMnLCAnMScsICctcGgnLCAnNycsICctcGh0JywgJzAuNScsICctbnQn

> <r_lp_tautomer_probability>
1

> <r_epik_Ionization_Penalty>
  0.0030

> <r_epik_Ionization_Penalty_Charging>
  0.0030

> <r_epik_Ionization_Penalty_Neutral>
  0.0000

> <r_epik_State_Penalty>
 -0.0000

> <r_epik_Charging_Adjusted_Penalty>
0.00304691195441348

> <i_epik_Tot_Q>
-1

> <i_epik_Tot_abs_Q>
3

$$$$
