1fwu_ligand
                    3D
 Schrodinger Suite 2020-3.
 74 76  0  0  1  0            999 V2000
    0.0740    6.0250   10.0480 C   0  0  2  0  0  0
   -0.0700    7.5190    9.8370 C   0  0  1  0  0  0
    0.7640    8.2970   10.8820 C   0  0  2  0  0  0
    0.2420    7.9120   12.2990 C   0  0  2  0  0  0
    0.4020    6.3540   12.4730 C   0  0  1  0  0  0
   -0.1070    5.8080   13.8320 C   0  0  0  0  0  0
   -0.7060    5.2910    9.0700 O   0  0  0  0  0  0
    0.3700    7.8340    8.5160 O   0  0  0  0  0  0
    0.6210    9.7100   10.6740 O   0  0  0  0  0  0
   -1.1390    8.2480   12.4380 O   0  0  0  0  0  0
   -0.3500    5.6240   11.4090 O   0  0  0  0  0  0
   -0.0460    4.3840   13.8350 O   0  0  0  0  0  0
    1.8070   10.6300   10.9440 S   0  0  0  0  0  0
    2.9600   10.2560   10.0910 O   0  5  0  0  0  0
    1.4220   12.0140   10.6430 O   0  0  0  0  0  0
    2.1870   10.5720   12.3450 O   0  0  0  0  0  0
   -1.3110    1.4150    7.4750 C   0  0  2  0  0  0
   -1.8380    1.8570    8.8690 C   0  0  1  0  0  0
   -1.8480    3.4050    8.9600 C   0  0  2  0  0  0
   -0.3550    3.8850    8.7740 C   0  0  1  0  0  0
    0.1320    3.4030    7.3480 C   0  0  1  0  0  0
    1.5780    3.7970    7.0740 C   0  0  0  0  0  0
   -3.1530    0.2000    8.3020 C   0  0  0  0  0  0
   -3.9690    0.2460    7.0460 C   0  0  0  0  0  0
   -3.1860    1.3250    9.0670 N   0  0  0  0  0  0
   -1.2810    0.0650    7.3590 O   0  0  0  0  0  0
    0.0510    1.9570    7.2490 O   0  0  0  0  0  0
    2.0250    3.3630    5.7800 O   0  0  0  0  0  0
   -2.4950   -0.8420    8.5840 O   0  0  0  0  0  0
   -3.9390    3.7160   10.2190 C   0  0  2  0  0  0
   -4.5110    3.4570   11.6430 C   0  0  2  0  0  0
   -3.9210    4.4810   12.6440 C   0  0  1  0  0  0
   -4.2970    5.9140   12.1830 C   0  0  1  0  0  0
   -3.7250    6.1820   10.8070 C   0  0  2  0  0  0
   -4.0380    7.5390   10.2300 C   0  0  0  0  0  0
   -2.5320    3.4010   10.2320 O   0  0  0  0  0  0
   -4.2270    2.0940   11.9950 O   0  0  0  0  0  0
   -4.4700    4.2280   13.9340 O   0  0  0  0  0  0
   -5.7450    6.0430   12.1570 O   0  0  0  0  0  0
   -4.1780    5.1260    9.8270 O   0  0  0  0  0  0
    1.1290    5.7440    9.9134 H   0  0  0  0  0  0
   -1.1275    7.8180    9.8855 H   0  0  0  0  0  0
    1.8428    8.1171   10.7640 H   0  0  0  0  0  0
    0.7375    8.5053   13.0816 H   0  0  0  0  0  0
    1.4772    6.1406   12.3814 H   0  0  0  0  0  0
    0.5231    6.2002   14.6439 H   0  0  0  0  0  0
   -1.1479    6.1273   13.9888 H   0  0  0  0  0  0
   -0.1173    7.3663    7.6478 H   0  0  0  0  0  0
   -1.4617    9.2958   12.3492 H   0  0  0  0  0  0
   -0.3697    3.8215   14.7232 H   0  0  0  0  0  0
   -1.9857    1.7005    6.6545 H   0  0  0  0  0  0
   -1.2274    1.4352    9.6809 H   0  0  0  0  0  0
   -2.3854    4.1085    8.3071 H   0  0  0  0  0  0
    0.5171    3.5997    9.3807 H   0  0  0  0  0  0
   -0.5185    3.8253    6.5679 H   0  0  0  0  0  0
    1.6744    4.8919    7.1182 H   0  0  0  0  0  0
    2.2323    3.3404    7.8313 H   0  0  0  0  0  0
   -4.4678    1.2233    6.9685 H   0  0  0  0  0  0
   -4.7264   -0.5513    7.0714 H   0  0  0  0  0  0
   -3.3117    0.0998    6.1762 H   0  0  0  0  0  0
   -3.8978    1.8575    9.7149 H   0  0  0  0  0  0
   -0.9299   -0.3992    6.4256 H   0  0  0  0  0  0
    3.0518    3.5810    5.4511 H   0  0  0  0  0  0
   -4.3865    3.0883    9.4343 H   0  0  0  0  0  0
   -5.6080    3.5177   11.6969 H   0  0  0  0  0  0
   -2.8337    4.3690   12.7674 H   0  0  0  0  0  0
   -3.9269    6.6808   12.8795 H   0  0  0  0  0  0
   -2.6353    6.1551   10.9544 H   0  0  0  0  0  0
   -3.7135    8.3201   10.9332 H   0  0  0  0  0  0
   -5.1216    7.6246   10.0613 H   0  0  0  0  0  0
   -3.5073    7.6624    9.2744 H   0  0  0  0  0  0
   -4.5937    1.2741   11.3600 H   0  0  0  0  0  0
   -4.3039    3.2560   14.4214 H   0  0  0  0  0  0
   -6.3282    5.8812   13.0755 H   0  0  0  0  0  0
  1 11  1  0  0  0
  1  7  1  0  0  0
  1  2  1  0  0  0
  1 41  1  0  0  0
  2  8  1  0  0  0
  2  3  1  0  0  0
  2 42  1  0  0  0
  3  9  1  0  0  0
  3  4  1  0  0  0
  3 43  1  0  0  0
  4 10  1  0  0  0
  4  5  1  0  0  0
  4 44  1  0  0  0
  5 11  1  0  0  0
  5  6  1  0  0  0
  5 45  1  0  0  0
  6 12  1  0  0  0
  6 46  1  0  0  0
  6 47  1  0  0  0
  7 20  1  0  0  0
  8 48  1  0  0  0
  9 13  1  0  0  0
 10 49  1  0  0  0
 12 50  1  0  0  0
 13 16  2  0  0  0
 13 15  2  0  0  0
 13 14  1  0  0  0
 17 27  1  0  0  0
 17 26  1  0  0  0
 17 18  1  0  0  0
 17 51  1  0  0  0
 18 25  1  0  0  0
 18 19  1  0  0  0
 18 52  1  0  0  0
 19 20  1  0  0  0
 19 36  1  0  0  0
 19 53  1  0  0  0
 20 21  1  0  0  0
 20 54  1  0  0  0
 21 27  1  0  0  0
 21 22  1  0  0  0
 21 55  1  0  0  0
 22 28  1  0  0  0
 22 56  1  0  0  0
 22 57  1  0  0  0
 23 25  1  0  0  0
 23 29  2  0  0  0
 23 24  1  0  0  0
 24 58  1  0  0  0
 24 59  1  0  0  0
 24 60  1  0  0  0
 25 61  1  0  0  0
 26 62  1  0  0  0
 28 63  1  0  0  0
 30 40  1  0  0  0
 30 36  1  0  0  0
 30 31  1  0  0  0
 30 64  1  0  0  0
 31 37  1  0  0  0
 31 32  1  0  0  0
 31 65  1  0  0  0
 32 38  1  0  0  0
 32 33  1  0  0  0
 32 66  1  0  0  0
 33 39  1  0  0  0
 33 34  1  0  0  0
 33 67  1  0  0  0
 34 40  1  0  0  0
 34 35  1  0  0  0
 34 68  1  0  0  0
 35 69  1  0  0  0
 35 70  1  0  0  0
 35 71  1  0  0  0
 37 72  1  0  0  0
 38 73  1  0  0  0
 39 74  1  0  0  0
M  CHG  1  14  -1
M  END
> <s_m_source_file>
../1fwu_ligand.sdf

> <i_m_source_file_index>
1

> <s_epik_input>
W09IXVtDSDJdW0NAQEhdKE8xKVtDQEhdKFtPSF0pW0NASF0oT1MoPU8pKD1PKVtPSF0pW0NAQEhdKFtPSF0pW0NAQEhdMU9bQ0BIXShbQ0BIXShPMilbQ0gyXVtPSF0pW0NAQEhdKFtDQEhdKFtDQEBIXTJbT0hdKVtOSF1DKD1PKVtDSDNdKU9bQ0BIXTNbQ0BASF0oW09IXSlbQ0BIXShbT0hdKVtDQEhdKFtPSF0pW0NAQEhdKE8zKVtDSDNd

> <s_epik_cmdline>
J2VwaWtfYXBwJywgJy1pbWFlJywgJ2xpZ2FuZF9wcm8ubWFlJywgJy1vbWFlJywgJ2xpZ2FuZF9wcmVwLm1hZScsICctbXMnLCAnMScsICctcGgnLCAnNycsICctcGh0JywgJzAuNScsICctbnQn

> <r_lp_tautomer_probability>
1

> <r_epik_Ionization_Penalty>
  0.0001

> <r_epik_Ionization_Penalty_Charging>
  0.0000

> <r_epik_Ionization_Penalty_Neutral>
  0.0001

> <r_epik_State_Penalty>
 -0.0000

> <r_epik_Charging_Adjusted_Penalty>
8.08870224170692e-11

> <i_epik_Tot_Q>
-1

> <i_epik_Tot_abs_Q>
1

> <s_epik_Chemistry_Notes>
This compound contains an acetal/aminal-like group ( X-CH(R)-Y where X, Y are N, S, or O) that may be acid/base labile, releasing an aldehyde.

$$$$
