1fwv_ligand
                    3D
 Schrodinger Suite 2020-3.
 74 76  0  0  1  0            999 V2000
   -0.8320    6.5040   10.2130 C   0  0  2  0  0  0
   -0.7520    8.0050    9.9990 C   0  0  1  0  0  0
    0.2330    8.6370   10.9840 C   0  0  2  0  0  0
   -0.2420    8.3060   12.4150 C   0  0  2  0  0  0
   -0.3140    6.7670   12.5720 C   0  0  1  0  0  0
   -0.8260    6.2880   13.9470 C   0  0  0  0  0  0
   -1.8060    5.9140    9.3310 O   0  0  0  0  0  0
   -0.3400    8.2850    8.6440 O   0  0  0  0  0  0
    0.3010   10.0500   10.8040 O   0  0  0  0  0  0
   -1.5400    8.8430   12.6340 O   0  0  0  0  0  0
   -1.2240    6.1750   11.5830 O   0  0  0  0  0  0
    0.0120    6.8160   14.9990 O   0  0  0  0  0  0
    1.5960   10.7420   11.1330 S   0  0  0  0  0  0
    2.7460   10.0460   10.4870 O   0  5  0  0  0  0
    1.5640   12.1270   10.6300 O   0  0  0  0  0  0
    1.8010   10.7780   12.5840 O   0  0  0  0  0  0
   -1.3970    2.4970    7.7660 C   0  0  2  0  0  0
   -1.3760    4.0320    7.8480 C   0  0  1  0  0  0
   -1.8300    4.5070    9.2300 C   0  0  2  0  0  0
   -3.2860    3.9820    9.4410 C   0  0  1  0  0  0
   -3.2600    2.4230    9.3270 C   0  0  1  0  0  0
   -4.6350    1.8040    9.4690 C   0  0  0  0  0  0
    0.2110    5.3750    6.5710 C   0  0  0  0  0  0
    1.6370    5.7390    6.3820 C   0  0  0  0  0  0
   -0.0320    4.4960    7.5530 N   0  0  0  0  0  0
   -1.0150    2.0500    6.5440 O   0  0  0  0  0  0
   -2.7440    2.0110    8.0580 O   0  0  0  0  0  0
   -4.5760    0.3730    9.3510 O   0  0  0  0  0  0
   -0.6800    5.8810    5.8260 O   0  0  0  0  0  0
   -5.1140    4.9920   10.7810 C   0  0  2  0  0  0
   -5.5030    5.1670   12.2620 C   0  0  2  0  0  0
   -4.6690    6.2790   12.9120 C   0  0  1  0  0  0
   -4.8630    7.5910   12.1270 C   0  0  1  0  0  0
   -4.4720    7.4110   10.6880 C   0  0  2  0  0  0
   -4.6550    8.6200    9.8100 C   0  0  0  0  0  0
   -3.7930    4.4090   10.7560 O   0  0  0  0  0  0
   -5.3860    3.9090   12.9320 O   0  0  0  0  0  0
   -5.1330    6.4550   14.2480 O   0  0  0  0  0  0
   -6.2500    8.0070   12.2250 O   0  0  0  0  0  0
   -5.1940    6.2720   10.0690 O   0  0  0  0  0  0
    0.1518    6.0588   10.0034 H   0  0  0  0  0  0
   -1.7503    8.4515   10.1173 H   0  0  0  0  0  0
    1.2628    8.3041   10.7872 H   0  0  0  0  0  0
    0.3983    8.7860   13.1697 H   0  0  0  0  0  0
    0.7122    6.4112   12.3979 H   0  0  0  0  0  0
   -1.8578    6.6387   14.0965 H   0  0  0  0  0  0
   -0.8033    5.1889   13.9842 H   0  0  0  0  0  0
   -0.9339    7.9062    7.7991 H   0  0  0  0  0  0
   -1.7044    9.9286   12.5678 H   0  0  0  0  0  0
   -0.2070    6.5752   16.0497 H   0  0  0  0  0  0
   -0.6577    2.0255    8.4301 H   0  0  0  0  0  0
   -2.0325    4.4822    7.0888 H   0  0  0  0  0  0
   -1.1155    4.2097   10.0117 H   0  0  0  0  0  0
   -3.9933    4.4223    8.7228 H   0  0  0  0  0  0
   -2.5863    2.0211   10.0981 H   0  0  0  0  0  0
   -5.0512    2.0577   10.4551 H   0  0  0  0  0  0
   -5.2958    2.1939    8.6808 H   0  0  0  0  0  0
    2.2532    5.2016    7.1178 H   0  0  0  0  0  0
    1.7604    6.8230    6.5222 H   0  0  0  0  0  0
    1.9545    5.4622    5.3658 H   0  0  0  0  0  0
    0.8196    4.1253    8.1424 H   0  0  0  0  0  0
   -0.9821    0.9698    6.3391 H   0  0  0  0  0  0
   -5.4964   -0.2240    9.4320 H   0  0  0  0  0  0
   -5.7702    4.3204   10.2080 H   0  0  0  0  0  0
   -6.5655    5.4215   12.3897 H   0  0  0  0  0  0
   -3.6046    6.0107   12.9826 H   0  0  0  0  0  0
   -4.2557    8.4058   12.5480 H   0  0  0  0  0  0
   -3.3930    7.2029   10.7363 H   0  0  0  0  0  0
   -4.1264    9.4775   10.2519 H   0  0  0  0  0  0
   -5.7267    8.8535    9.7262 H   0  0  0  0  0  0
   -4.2457    8.4125    8.8103 H   0  0  0  0  0  0
   -5.9379    3.0337   12.5589 H   0  0  0  0  0  0
   -5.0760    5.6221   14.9642 H   0  0  0  0  0  0
   -6.7024    8.1851   13.2117 H   0  0  0  0  0  0
  1 11  1  0  0  0
  1  7  1  0  0  0
  1  2  1  0  0  0
  1 41  1  0  0  0
  2  8  1  0  0  0
  2  3  1  0  0  0
  2 42  1  0  0  0
  3  9  1  0  0  0
  3  4  1  0  0  0
  3 43  1  0  0  0
  4 10  1  0  0  0
  4  5  1  0  0  0
  4 44  1  0  0  0
  5 11  1  0  0  0
  5  6  1  0  0  0
  5 45  1  0  0  0
  6 12  1  0  0  0
  6 46  1  0  0  0
  6 47  1  0  0  0
  7 19  1  0  0  0
  8 48  1  0  0  0
  9 13  1  0  0  0
 10 49  1  0  0  0
 12 50  1  0  0  0
 13 16  2  0  0  0
 13 15  2  0  0  0
 13 14  1  0  0  0
 17 27  1  0  0  0
 17 26  1  0  0  0
 17 18  1  0  0  0
 17 51  1  0  0  0
 18 25  1  0  0  0
 18 19  1  0  0  0
 18 52  1  0  0  0
 19 20  1  0  0  0
 19 53  1  0  0  0
 20 21  1  0  0  0
 20 36  1  0  0  0
 20 54  1  0  0  0
 21 27  1  0  0  0
 21 22  1  0  0  0
 21 55  1  0  0  0
 22 28  1  0  0  0
 22 56  1  0  0  0
 22 57  1  0  0  0
 23 25  1  0  0  0
 23 29  2  0  0  0
 23 24  1  0  0  0
 24 58  1  0  0  0
 24 59  1  0  0  0
 24 60  1  0  0  0
 25 61  1  0  0  0
 26 62  1  0  0  0
 28 63  1  0  0  0
 30 40  1  0  0  0
 30 36  1  0  0  0
 30 31  1  0  0  0
 30 64  1  0  0  0
 31 37  1  0  0  0
 31 32  1  0  0  0
 31 65  1  0  0  0
 32 38  1  0  0  0
 32 33  1  0  0  0
 32 66  1  0  0  0
 33 39  1  0  0  0
 33 34  1  0  0  0
 33 67  1  0  0  0
 34 40  1  0  0  0
 34 35  1  0  0  0
 34 68  1  0  0  0
 35 69  1  0  0  0
 35 70  1  0  0  0
 35 71  1  0  0  0
 37 72  1  0  0  0
 38 73  1  0  0  0
 39 74  1  0  0  0
M  CHG  1  14  -1
M  END
> <s_m_source_file>
../1fwv_ligand.sdf

> <i_m_source_file_index>
1

> <s_epik_input>
W09IXVtDSDJdW0NAQEhdKE8xKVtDQEhdKFtPSF0pW0NASF0oT1MoPU8pKD1PKVtPSF0pW0NAQEhdKFtPSF0pW0NAQEhdMU9bQ0BIXShbQ0BIXShbQ0BASF0yW09IXSlbTkhdQyg9TylbQ0gzXSlbQ0BASF0oW0NASF0oTzIpW0NIMl1bT0hdKU9bQ0BIXTNbQ0BASF0oW09IXSlbQ0BIXShbT0hdKVtDQEhdKFtPSF0pW0NAQEhdKE8zKVtDSDNd

> <s_epik_cmdline>
J2VwaWtfYXBwJywgJy1pbWFlJywgJ2xpZ2FuZF9wcm8ubWFlJywgJy1vbWFlJywgJ2xpZ2FuZF9wcmVwLm1hZScsICctbXMnLCAnMScsICctcGgnLCAnNycsICctcGh0JywgJzAuNScsICctbnQn

> <r_lp_tautomer_probability>
1

> <r_epik_Ionization_Penalty>
  0.0001

> <r_epik_Ionization_Penalty_Charging>
  0.0000

> <r_epik_Ionization_Penalty_Neutral>
  0.0001

> <r_epik_State_Penalty>
 -0.0000

> <r_epik_Charging_Adjusted_Penalty>
8.06191697833186e-11

> <i_epik_Tot_Q>
-1

> <i_epik_Tot_abs_Q>
1

> <s_epik_Chemistry_Notes>
This compound contains an acetal/aminal-like group ( X-CH(R)-Y where X, Y are N, S, or O) that may be acid/base labile, releasing an aldehyde.

$$$$
