1fyr_ligand
                    3D
 Schrodinger Suite 2020-3.
 77 77  0  0  1  0            999 V2000
   26.3740    9.4890   67.0550 C   0  0  0  0  0  0
   27.4970   10.0050   67.1970 O   0  0  0  0  0  0
   25.6600    9.5590   65.6910 C   0  0  0  0  0  0
   25.7980    8.7920   68.0250 N   0  0  0  0  0  0
   26.4000    8.7150   69.3490 C   0  0  2  0  0  0
   26.6290    7.2670   69.7130 C   0  0  0  0  0  0
   25.7600    6.4090   69.4950 O   0  0  0  0  0  0
   25.4780    9.3980   70.3450 C   0  0  0  0  0  0
   25.1670   10.8210   69.9540 C   0  0  0  0  0  0
   24.0230   11.1220   69.2490 C   0  0  0  0  0  0
   26.0180   11.8650   70.2970 C   0  0  0  0  0  0
   23.7200   12.4270   68.8930 C   0  0  0  0  0  0
   25.7350   13.1770   69.9460 C   0  0  0  0  0  0
   24.5740   13.4560   69.2410 C   0  0  0  0  0  0
   24.2370   14.7660   68.8980 O   0  0  0  0  0  0
   25.1940   15.7870   68.2270 P   0  0  0  0  0  0
   25.4080   16.8970   69.1890 O   0  5  0  0  0  0
   26.4760   15.1530   67.8590 O   0  0  0  0  0  0
   24.5070   16.3760   67.0310 O   0  5  0  0  0  0
   27.8170    6.8830   70.1660 N   0  0  0  0  0  0
   28.2240    5.5240   70.5980 C   0  0  2  0  0  0
   27.2290    4.9030   71.5850 C   0  0  0  0  0  0
   26.9840    3.7000   71.5610 O   0  0  0  0  0  0
   29.6160    5.5830   71.2510 C   0  0  0  0  0  0
   30.0080    4.2120   71.7890 C   0  0  0  0  0  0
   30.6430    6.0680   70.2270 C   0  0  0  0  0  0
   26.6380    5.7360   72.4320 N   0  0  0  0  0  0
   25.7170    5.2670   73.4600 C   0  0  2  0  0  0
   24.2240    5.4420   73.1810 C   0  0  0  0  0  0
   23.4270    5.4560   74.1160 O   0  0  0  0  0  0
   26.0610    5.9570   74.7750 C   0  0  0  0  0  0
   25.7590    7.4420   74.7390 C   0  0  0  0  0  0
   25.8870    8.0810   73.6940 O   0  0  0  0  0  0
   25.3650    8.0000   75.8760 N   0  0  0  0  0  0
   23.8380    5.5800   71.9160 N   0  0  0  0  0  0
   22.4220    5.7370   71.5830 C   0  0  2  0  0  0
   21.9790    4.7900   70.4750 C   0  0  0  0  0  0
   22.5120    4.8930   69.3500 O   0  0  0  0  0  0
   22.0880    7.1820   71.1540 C   0  0  0  0  0  0
   20.6190    7.2770   70.7650 C   0  0  0  0  0  0
   22.3940    8.1530   72.3000 C   0  0  0  0  0  0
   21.1010    3.9430   70.7560 O   0  5  0  0  0  0
   26.2564   10.1682   64.9958 H   0  0  0  0  0  0
   24.6675   10.0154   65.8197 H   0  0  0  0  0  0
   25.5466    8.5434   65.2840 H   0  0  0  0  0  0
   24.8531    8.2678   67.8191 H   0  0  0  0  0  0
   27.3711    9.2309   69.3220 H   0  0  0  0  0  0
   24.5286    8.8457   70.4042 H   0  0  0  0  0  0
   25.9555    9.4135   71.3358 H   0  0  0  0  0  0
   23.3428   10.3188   68.9655 H   0  0  0  0  0  0
   26.9290   11.6479   70.8548 H   0  0  0  0  0  0
   22.8069   12.6417   68.3378 H   0  0  0  0  0  0
   26.4183   13.9803   70.2216 H   0  0  0  0  0  0
   28.5400    7.7112   70.2022 H   0  0  0  0  0  0
   28.2316    4.9182   69.6799 H   0  0  0  0  0  0
   29.5959    6.2853   72.0974 H   0  0  0  0  0  0
   29.2598    3.8786   72.5232 H   0  0  0  0  0  0
   30.9936    4.2763   72.2732 H   0  0  0  0  0  0
   30.0536    3.4917   70.9589 H   0  0  0  0  0  0
   30.3452    7.0573   69.8494 H   0  0  0  0  0  0
   30.6912    5.3555   69.3903 H   0  0  0  0  0  0
   31.6312    6.1400   70.7047 H   0  0  0  0  0  0
   26.8610    6.8094   72.3416 H   0  0  0  0  0  0
   25.9023    4.1827   73.4535 H   0  0  0  0  0  0
   25.4728    5.5085   75.5892 H   0  0  0  0  0  0
   27.1334    5.8316   74.9853 H   0  0  0  0  0  0
   25.2655    7.3871   76.7840 H   0  0  0  0  0  0
   25.1377    9.0757   75.9110 H   0  0  0  0  0  0
   24.5937    5.5754   71.1167 H   0  0  0  0  0  0
   21.9217    5.4700   72.5256 H   0  0  0  0  0  0
   22.6976    7.4607   70.2818 H   0  0  0  0  0  0
   20.4114    6.5765   69.9427 H   0  0  0  0  0  0
   20.3916    8.3027   70.4392 H   0  0  0  0  0  0
   19.9928    7.0204   71.6322 H   0  0  0  0  0  0
   23.4570    8.0756   72.5722 H   0  0  0  0  0  0
   21.7729    7.8989   73.1716 H   0  0  0  0  0  0
   22.1717    9.1812   71.9786 H   0  0  0  0  0  0
  1  2  2  0  0  0
  1  3  1  0  0  0
  1  4  1  0  0  0
  3 43  1  0  0  0
  3 44  1  0  0  0
  3 45  1  0  0  0
  4  5  1  0  0  0
  4 46  1  0  0  0
  5  6  1  0  0  0
  5  8  1  0  0  0
  5 47  1  0  0  0
  6  7  2  0  0  0
  6 20  1  0  0  0
  8  9  1  0  0  0
  8 48  1  0  0  0
  8 49  1  0  0  0
  9 10  2  0  0  0
  9 11  1  0  0  0
 10 12  1  0  0  0
 10 50  1  0  0  0
 11 13  2  0  0  0
 11 51  1  0  0  0
 12 14  2  0  0  0
 12 52  1  0  0  0
 13 14  1  0  0  0
 13 53  1  0  0  0
 14 15  1  0  0  0
 15 16  1  0  0  0
 16 17  1  0  0  0
 16 18  2  0  0  0
 16 19  1  0  0  0
 20 21  1  0  0  0
 20 54  1  0  0  0
 21 24  1  0  0  0
 21 22  1  0  0  0
 21 55  1  0  0  0
 22 23  2  0  0  0
 22 27  1  0  0  0
 24 26  1  0  0  0
 24 25  1  0  0  0
 24 56  1  0  0  0
 25 57  1  0  0  0
 25 58  1  0  0  0
 25 59  1  0  0  0
 26 60  1  0  0  0
 26 61  1  0  0  0
 26 62  1  0  0  0
 27 28  1  0  0  0
 27 63  1  0  0  0
 28 31  1  0  0  0
 28 29  1  0  0  0
 28 64  1  0  0  0
 29 30  2  0  0  0
 29 35  1  0  0  0
 31 32  1  0  0  0
 31 65  1  0  0  0
 31 66  1  0  0  0
 32 34  1  0  0  0
 32 33  2  0  0  0
 34 67  1  0  0  0
 34 68  1  0  0  0
 35 36  1  0  0  0
 35 69  1  0  0  0
 36 39  1  0  0  0
 36 37  1  0  0  0
 36 70  1  0  0  0
 37 38  2  0  0  0
 37 42  1  0  0  0
 39 41  1  0  0  0
 39 40  1  0  0  0
 39 71  1  0  0  0
 40 72  1  0  0  0
 40 73  1  0  0  0
 40 74  1  0  0  0
 41 75  1  0  0  0
 41 76  1  0  0  0
 41 77  1  0  0  0
M  CHG  3  17  -1  19  -1  42  -1
M  END
> <s_m_source_file>
../1fyr_ligand.sdf

> <i_m_source_file_index>
1

> <s_epik_input>
W09IXVAoPU8pKFtPSF0pT2MoW2NIXVtjSF0xKVtjSF1bY0hdYzFbQ0gyXVtDQEhdKFtOSF1DKD1PKVtDSDNdKUMoPU8pW05IXVtDQEBIXShbQ0hdKFtDSDNdKVtDSDNdKUMoPU8pW05IXVtDQEBIXShbQ0gyXUMoPU8pW05IMl0pQyg9TylbTkhdW0NASF0oQyg9TylbT0hdKVtDSF0oW0NIM10pW0NIM10=

> <s_epik_cmdline>
J2VwaWtfYXBwJywgJy1pbWFlJywgJ2xpZ2FuZF9wcm8ubWFlJywgJy1vbWFlJywgJ2xpZ2FuZF9wcmVwLm1hZScsICctbXMnLCAnMScsICctcGgnLCAnNycsICctcGh0JywgJzAuNScsICctbnQn

> <r_epik_Ionization_Penalty>
  0.0844

> <r_epik_Ionization_Penalty_Charging>
  0.0844

> <r_epik_Ionization_Penalty_Neutral>
  0.0000

> <r_epik_State_Penalty>
  0.0749

> <r_epik_Charging_Adjusted_Penalty>
0.159274790642447

> <i_epik_Tot_Q>
-3

> <i_epik_Tot_abs_Q>
3

$$$$
