1fzj_ligand
                    3D
 Schrodinger Suite 2020-3.
135136  0  0  1  0            999 V2000
   49.2160   56.7600    4.6750 N   0  3  0  0  0  0
   47.9330   57.4080    4.2530 C   0  0  2  0  0  0
   47.6710   57.1250    2.7910 C   0  0  0  0  0  0
   48.5920   57.0920    1.9780 O   0  0  0  0  0  0
   47.9960   58.9360    4.4610 C   0  0  0  0  0  0
   48.2580   59.3730    5.9010 C   0  0  0  0  0  0
   47.9460   60.8660    6.0850 C   0  0  0  0  0  0
   46.5090   61.1130    5.9680 N   0  0  0  0  0  0
   45.9430   62.3170    5.9140 C   0  0  0  0  0  0
   46.6920   63.4130    5.9680 N   0  3  0  0  0  0
   44.6240   62.4200    5.7890 N   0  0  0  0  0  0
   46.4030   56.9490    2.4590 N   0  0  0  0  0  0
   46.0280   56.6550    1.0930 C   0  0  0  0  0  0
   45.8950   57.8530    0.1790 C   0  0  0  0  0  0
   45.9150   59.0130    0.6140 O   0  0  0  0  0  0
   45.7650   57.5500   -1.1010 N   0  0  0  0  0  0
   45.6370   58.5540   -2.1360 C   0  0  2  0  0  0
   44.1740   58.9050   -2.3360 C   0  0  0  0  0  0
   43.2970   58.1450   -1.9430 O   0  0  0  0  0  0
   46.2230   57.9890   -3.4250 C   0  0  0  0  0  0
   46.1860   58.9120   -4.6140 C   0  0  0  0  0  0
   46.8760   60.1260   -4.6030 C   0  0  0  0  0  0
   45.5200   58.5410   -5.7780 C   0  0  0  0  0  0
   46.9150   60.9390   -5.7280 C   0  0  0  0  0  0
   45.5490   59.3500   -6.9140 C   0  0  0  0  0  0
   46.2550   60.5490   -6.8800 C   0  0  0  0  0  0
   46.3170   61.3300   -8.0170 O   0  0  0  0  0  0
   43.9110   60.0800   -2.9070 N   0  0  0  0  0  0
   42.5430   60.4940   -3.2150 C   0  0  2  0  0  0
   42.4010   60.1090   -4.6920 C   0  0  0  0  0  0
   42.9400   60.7740   -5.5850 O   0  0  0  0  0  0
   42.3450   62.0230   -3.0410 C   0  0  0  0  0  0
   40.9530   62.4230   -3.5370 C   0  0  0  0  0  0
   42.5130   62.4060   -1.5690 C   0  0  0  0  0  0
   41.6920   59.0130   -4.9500 N   0  0  0  0  0  0
   41.5540   58.5130   -6.3100 C   0  0  2  0  0  0
   40.8050   59.4060   -7.2880 C   0  0  0  0  0  0
   39.8140   60.0450   -6.9380 O   0  0  0  0  0  0
   40.9250   57.1050   -6.2890 C   0  0  0  0  0  0
   41.6890   56.1590   -5.3810 C   0  0  0  0  0  0
   41.2710   55.9290   -4.0770 C   0  0  0  0  0  0
   42.8750   55.5610   -5.8070 C   0  0  0  0  0  0
   42.0200   55.1250   -3.2090 C   0  0  0  0  0  0
   43.6320   54.7560   -4.9470 C   0  0  0  0  0  0
   43.2000   54.5450   -3.6560 C   0  0  0  0  0  0
   43.9390   53.7620   -2.7920 O   0  0  0  0  0  0
   41.2920   59.4040   -8.5220 N   0  0  0  0  0  0
   40.7270   60.1850   -9.6170 C   0  0  2  0  0  0
   39.6660   59.3900  -10.3760 C   0  0  0  0  0  0
   39.8220   58.1790  -10.5920 O   0  0  0  0  0  0
   41.8500   60.5910  -10.5710 C   0  0  0  0  0  0
   42.9270   61.4120   -9.8910 C   0  0  0  0  0  0
   42.3770   62.7110   -9.3350 C   0  0  0  0  0  0
   41.8310   63.5300  -10.0790 O   0  0  0  0  0  0
   42.5080   62.9050   -8.0230 N   0  0  0  0  0  0
   38.6040   60.0840  -10.7810 N   0  0  0  0  0  0
   37.5130   59.4720  -11.5190 C   0  0  0  0  0  0
   37.9160   58.8360  -12.8380 C   0  0  0  0  0  0
   38.8180   59.3220  -13.5200 O   0  0  0  0  0  0
   37.2340   57.7490  -13.2020 N   0  0  0  0  0  0
   37.5200   57.0260  -14.4450 C   0  0  2  0  0  0
   36.7880   57.5990  -15.6640 C   0  0  0  0  0  0
   35.7830   58.3160  -15.4700 O   0  0  0  0  0  0
   37.1300   55.5430  -14.2820 C   0  0  0  0  0  0
   37.8010   54.7720  -13.1380 C   0  0  0  0  0  0
   37.2700   53.3210  -13.1230 C   0  0  0  0  0  0
   39.3090   54.7770  -13.3260 C   0  0  0  0  0  0
   37.2020   57.2920  -16.8070 O   0  5  0  0  0  0
   49.1471   55.6735    4.5177 H   0  0  0  0  0  0
   49.3975   56.9655    5.7403 H   0  0  0  0  0  0
   50.0455   57.1652    4.0769 H   0  0  0  0  0  0
   47.1334   56.9676    4.8667 H   0  0  0  0  0  0
   48.8071   59.3563    3.8483 H   0  0  0  0  0  0
   47.0385   59.3867    4.1609 H   0  0  0  0  0  0
   47.6198   58.7914    6.5825 H   0  0  0  0  0  0
   49.3151   59.1989    6.1505 H   0  0  0  0  0  0
   48.2823   61.1908    7.0807 H   0  0  0  0  0  0
   48.4704   61.4481    5.3129 H   0  0  0  0  0  0
   45.8078   60.2669    5.9178 H   0  0  0  0  0  0
   47.7839   63.3285    6.0715 H   0  0  0  0  0  0
   44.0033   61.5130    5.7442 H   0  0  0  0  0  0
   44.1529   63.4123    5.7303 H   0  0  0  0  0  0
   45.6292   57.0287    3.2368 H   0  0  0  0  0  0
   46.7862   56.0012    0.6373 H   0  0  0  0  0  0
   45.0520   56.1478    1.0817 H   0  0  0  0  0  0
   45.7565   56.4825   -1.3662 H   0  0  0  0  0  0
   46.1862   59.4471   -1.8031 H   0  0  0  0  0  0
   47.2805   57.7318   -3.2652 H   0  0  0  0  0  0
   45.6661   57.0862   -3.7161 H   0  0  0  0  0  0
   47.3926   60.4406   -3.6962 H   0  0  0  0  0  0
   44.9663   57.6024   -5.8026 H   0  0  0  0  0  0
   47.4634   61.8807   -5.7038 H   0  0  0  0  0  0
   45.0239   59.0461   -7.8195 H   0  0  0  0  0  0
   46.8720   62.2796   -8.0024 H   0  0  0  0  0  0
   44.7540   60.7447   -3.1469 H   0  0  0  0  0  0
   41.8390   59.9940   -2.5336 H   0  0  0  0  0  0
   43.0970   62.5698   -3.6288 H   0  0  0  0  0  0
   40.8461   62.1422   -4.5952 H   0  0  0  0  0  0
   40.8246   63.5104   -3.4314 H   0  0  0  0  0  0
   40.1881   61.9039   -2.9408 H   0  0  0  0  0  0
   43.5164   62.1132   -1.2262 H   0  0  0  0  0  0
   41.7535   61.8868   -0.9661 H   0  0  0  0  0  0
   42.3899   63.4933   -1.4567 H   0  0  0  0  0  0
   41.2063   58.4832   -4.1173 H   0  0  0  0  0  0
   42.6001   58.5257   -6.6500 H   0  0  0  0  0  0
   39.8892   57.1716   -5.9247 H   0  0  0  0  0  0
   40.9298   56.6861   -7.3061 H   0  0  0  0  0  0
   40.3447   56.3817   -3.7232 H   0  0  0  0  0  0
   43.2189   55.7234   -6.8285 H   0  0  0  0  0  0
   41.6786   54.9553   -2.1878 H   0  0  0  0  0  0
   44.5576   54.2990   -5.2969 H   0  0  0  0  0  0
   43.5884   53.5975   -1.7624 H   0  0  0  0  0  0
   42.1718   58.7674   -8.6973 H   0  0  0  0  0  0
   40.2560   61.0640   -9.1527 H   0  0  0  0  0  0
   42.3246   59.6886  -10.9838 H   0  0  0  0  0  0
   41.4341   61.1944  -11.3913 H   0  0  0  0  0  0
   43.3576   60.8350   -9.0594 H   0  0  0  0  0  0
   43.7170   61.6539  -10.6172 H   0  0  0  0  0  0
   43.0029   62.1444   -7.4013 H   0  0  0  0  0  0
   42.1212   63.8257   -7.5618 H   0  0  0  0  0  0
   38.5706   61.1564  -10.5385 H   0  0  0  0  0  0
   37.0581   58.6775  -10.9092 H   0  0  0  0  0  0
   36.7551   60.2343  -11.7525 H   0  0  0  0  0  0
   36.4336   57.3987  -12.5337 H   0  0  0  0  0  0
   38.6011   57.1696  -14.5886 H   0  0  0  0  0  0
   36.0483   55.4665  -14.0975 H   0  0  0  0  0  0
   37.3851   54.9937  -15.2003 H   0  0  0  0  0  0
   37.5783   55.2633  -12.1794 H   0  0  0  0  0  0
   36.1786   53.3314  -12.9864 H   0  0  0  0  0  0
   37.7379   52.7679  -12.2952 H   0  0  0  0  0  0
   37.5156   52.8308  -14.0766 H   0  0  0  0  0  0
   39.6739   55.8147  -13.3349 H   0  0  0  0  0  0
   39.5611   54.2914  -14.2803 H   0  0  0  0  0  0
   39.7834   54.2285  -12.4989 H   0  0  0  0  0  0
   46.2203   64.4050    5.9092 H   0  0  0  0  0  0
  1  2  1  0  0  0
  1 69  1  0  0  0
  1 70  1  0  0  0
  1 71  1  0  0  0
  2  3  1  0  0  0
  2  5  1  0  0  0
  2 72  1  0  0  0
  3  4  2  0  0  0
  3 12  1  0  0  0
  5  6  1  0  0  0
  5 73  1  0  0  0
  5 74  1  0  0  0
  6  7  1  0  0  0
  6 75  1  0  0  0
  6 76  1  0  0  0
  7  8  1  0  0  0
  7 77  1  0  0  0
  7 78  1  0  0  0
  8  9  1  0  0  0
  8 79  1  0  0  0
  9 10  2  0  0  0
  9 11  1  0  0  0
 10 80  1  0  0  0
 10135  1  0  0  0
 11 81  1  0  0  0
 11 82  1  0  0  0
 12 13  1  0  0  0
 12 83  1  0  0  0
 13 14  1  0  0  0
 13 84  1  0  0  0
 13 85  1  0  0  0
 14 15  2  0  0  0
 14 16  1  0  0  0
 16 17  1  0  0  0
 16 86  1  0  0  0
 17 18  1  0  0  0
 17 20  1  0  0  0
 17 87  1  0  0  0
 18 19  2  0  0  0
 18 28  1  0  0  0
 20 21  1  0  0  0
 20 88  1  0  0  0
 20 89  1  0  0  0
 21 23  2  0  0  0
 21 22  1  0  0  0
 22 24  2  0  0  0
 22 90  1  0  0  0
 23 25  1  0  0  0
 23 91  1  0  0  0
 24 26  1  0  0  0
 24 92  1  0  0  0
 25 26  2  0  0  0
 25 93  1  0  0  0
 26 27  1  0  0  0
 27 94  1  0  0  0
 28 29  1  0  0  0
 28 95  1  0  0  0
 29 30  1  0  0  0
 29 32  1  0  0  0
 29 96  1  0  0  0
 30 31  2  0  0  0
 30 35  1  0  0  0
 32 33  1  0  0  0
 32 34  1  0  0  0
 32 97  1  0  0  0
 33 98  1  0  0  0
 33 99  1  0  0  0
 33100  1  0  0  0
 34101  1  0  0  0
 34102  1  0  0  0
 34103  1  0  0  0
 35 36  1  0  0  0
 35104  1  0  0  0
 36 37  1  0  0  0
 36 39  1  0  0  0
 36105  1  0  0  0
 37 38  2  0  0  0
 37 47  1  0  0  0
 39 40  1  0  0  0
 39106  1  0  0  0
 39107  1  0  0  0
 40 42  2  0  0  0
 40 41  1  0  0  0
 41 43  2  0  0  0
 41108  1  0  0  0
 42 44  1  0  0  0
 42109  1  0  0  0
 43 45  1  0  0  0
 43110  1  0  0  0
 44 45  2  0  0  0
 44111  1  0  0  0
 45 46  1  0  0  0
 46112  1  0  0  0
 47 48  1  0  0  0
 47113  1  0  0  0
 48 49  1  0  0  0
 48 51  1  0  0  0
 48114  1  0  0  0
 49 50  2  0  0  0
 49 56  1  0  0  0
 51 52  1  0  0  0
 51115  1  0  0  0
 51116  1  0  0  0
 52 53  1  0  0  0
 52117  1  0  0  0
 52118  1  0  0  0
 53 54  2  0  0  0
 53 55  1  0  0  0
 55119  1  0  0  0
 55120  1  0  0  0
 56 57  1  0  0  0
 56121  1  0  0  0
 57 58  1  0  0  0
 57122  1  0  0  0
 57123  1  0  0  0
 58 59  2  0  0  0
 58 60  1  0  0  0
 60 61  1  0  0  0
 60124  1  0  0  0
 61 62  1  0  0  0
 61 64  1  0  0  0
 61125  1  0  0  0
 62 68  1  0  0  0
 62 63  2  0  0  0
 64 65  1  0  0  0
 64126  1  0  0  0
 64127  1  0  0  0
 65 67  1  0  0  0
 65 66  1  0  0  0
 65128  1  0  0  0
 66129  1  0  0  0
 66130  1  0  0  0
 66131  1  0  0  0
 67132  1  0  0  0
 67133  1  0  0  0
 67134  1  0  0  0
M  CHG  3   1   1  10   1  68  -1
M  END
> <s_m_source_file>
../1fzj_ligand.sdf

> <i_m_source_file_index>
1

> <s_epik_input>
W0hdL049QyhbTkgyXSlcW05IXVtDSDJdW0NIMl1bQ0gyXVtDQEhdKFtOSDMrXSlDKD1PKVtOSF1bQ0gyXUMoPU8pW05IXVtDQEBIXShbQ0gyXWMxW2NIXVtjSF1jKFtPSF0pW2NIXVtjSF0xKUMoPU8pW05IXVtDQEBIXShbQ0hdKFtDSDNdKVtDSDNdKUMoPU8pW05IXVtDQEBIXShbQ0gyXWMyW2NIXVtjSF1jKFtPSF0pW2NIXVtjSF0yKUMoPU8pW05IXVtDQEBIXShbQ0gyXVtDSDJdQyg9TylbTkgyXSlDKD1PKVtOSF1bQ0gyXUMoPU8pW05IXVtDQEhdKEMoPU8pW09IXSlbQ0gyXVtDSF0oW0NIM10pW0NIM10=

> <s_epik_cmdline>
J2VwaWtfYXBwJywgJy1pbWFlJywgJ2xpZ2FuZF9wcm8ubWFlJywgJy1vbWFlJywgJ2xpZ2FuZF9wcmVwLm1hZScsICctbXMnLCAnMScsICctcGgnLCAnNycsICctcGh0JywgJzAuNScsICctbnQn

> <r_lp_tautomer_probability>
0.99999999999473

> <r_epik_Ionization_Penalty>
  0.1374

> <r_epik_Ionization_Penalty_Charging>
  0.1356

> <r_epik_Ionization_Penalty_Neutral>
  0.0017

> <r_epik_State_Penalty>
  0.1248

> <r_epik_Charging_Adjusted_Penalty>
0.260422707356365

> <i_epik_Tot_Q>
1

> <i_epik_Tot_abs_Q>
3

> <s_epik_Chemistry_Notes>
This compound has an imine and may undergo hydrolysis.

$$$$
