1fzk_ligand
                    3D
 Schrodinger Suite 2020-3.
132135  0  0  1  0            999 V2000
   49.8640   56.5120    4.9650 N   0  3  0  0  0  0
   49.0430   57.6520    4.4610 C   0  0  2  0  0  0
   48.5200   57.2540    3.0820 C   0  0  0  0  0  0
   49.2850   57.1580    2.1260 O   0  0  0  0  0  0
   49.9230   58.8970    4.3590 C   0  0  0  0  0  0
   49.1640   60.1900    4.3470 C   0  0  0  0  0  0
   48.6860   60.7400    5.5280 C   0  0  0  0  0  0
   48.9660   60.8820    3.1590 C   0  0  0  0  0  0
   48.0300   61.9710    5.5270 C   0  0  0  0  0  0
   48.3130   62.1120    3.1460 C   0  0  0  0  0  0
   47.8440   62.6550    4.3340 C   0  0  0  0  0  0
   47.2140   57.0330    2.9870 N   0  0  0  0  0  0
   46.5830   56.5950    1.7430 C   0  0  2  0  0  0
   46.4910   57.6250    0.6180 C   0  0  0  0  0  0
   46.4970   58.8320    0.8630 O   0  0  0  0  0  0
   45.1850   56.0640    2.0570 C   0  0  0  0  0  0
   46.4260   57.1520   -0.6420 N   0  0  0  0  0  0
   46.3180   58.0500   -1.7960 C   0  0  2  0  0  0
   45.0710   58.9120   -1.5810 C   0  0  0  0  0  0
   44.0420   58.4140   -1.1100 O   0  0  0  0  0  0
   46.1570   57.0850   -2.9650 C   0  0  0  0  0  0
   46.9830   55.9180   -2.5420 C   0  0  0  0  0  0
   46.6120   55.7550   -1.0790 C   0  0  0  0  0  0
   45.1620   60.1890   -1.9420 N   0  0  0  0  0  0
   44.0520   61.1020   -1.7290 C   0  0  0  0  0  0
   42.9710   61.3220   -2.7730 C   0  0  0  0  0  0
   41.8270   61.5740   -2.3950 O   0  0  0  0  0  0
   43.2910   61.2540   -4.0610 N   0  0  0  0  0  0
   42.2590   61.4860   -5.0750 C   0  0  2  0  0  0
   42.4150   60.6310   -6.3310 C   0  0  0  0  0  0
   43.1650   60.9700   -7.2490 O   0  0  0  0  0  0
   42.2070   62.9830   -5.4480 C   0  0  0  0  0  0
   43.3020   63.4020   -6.4200 C   0  0  0  0  0  0
   43.1790   63.2130   -7.6320 O   0  0  0  0  0  0
   44.3790   63.9740   -5.8910 N   0  0  0  0  0  0
   41.7050   59.5090   -6.3680 N   0  0  0  0  0  0
   41.7780   58.6360   -7.5300 C   0  0  2  0  0  0
   40.9910   59.2830   -8.6630 C   0  0  0  0  0  0
   39.7750   59.4520   -8.5610 O   0  0  0  0  0  0
   41.1860   57.2580   -7.2230 C   0  0  0  0  0  0
   41.9370   56.4560   -6.1770 C   0  0  0  0  0  0
   41.6350   56.5810   -4.8210 C   0  0  0  0  0  0
   42.9270   55.5420   -6.5500 C   0  0  0  0  0  0
   42.2940   55.8060   -3.8630 C   0  0  0  0  0  0
   43.5930   54.7690   -5.6010 C   0  0  0  0  0  0
   43.2690   54.9040   -4.2580 C   0  0  0  0  0  0
   43.9110   54.1310   -3.3070 O   0  0  0  0  0  0
   41.6760   59.6550   -9.7580 N   0  0  0  0  0  0
   41.0060   60.2870  -10.9000 C   0  0  2  0  0  0
   39.9180   59.3760  -11.4560 C   0  0  0  0  0  0
   40.0930   58.1600  -11.5020 O   0  0  0  0  0  0
   42.1480   60.5040  -11.8880 C   0  0  0  0  0  0
   43.0640   59.3450  -11.5890 C   0  0  0  0  0  0
   43.0800   59.3500  -10.0810 C   0  0  0  0  0  0
   38.8000   59.9600  -11.8780 N   0  0  0  0  0  0
   37.6950   59.1750  -12.4190 C   0  0  2  0  0  0
   38.1050   58.5230  -13.7350 C   0  0  0  0  0  0
   38.8430   59.1160  -14.5200 O   0  0  0  0  0  0
   36.4720   60.0710  -12.6350 C   0  0  0  0  0  0
   37.6300   57.3030  -13.9720 N   0  0  0  0  0  0
   37.9570   56.5930  -15.2060 C   0  0  2  0  0  0
   37.2290   57.1890  -16.4110 C   0  0  0  0  0  0
   36.2890   57.9920  -16.1990 O   0  0  0  0  0  0
   37.5870   55.1100  -15.0800 C   0  0  0  0  0  0
   38.2890   54.3190  -13.9780 C   0  0  0  0  0  0
   37.8050   52.8700  -14.0090 C   0  0  0  0  0  0
   39.7870   54.3730  -14.1780 C   0  0  0  0  0  0
   37.5970   56.8290  -17.5560 O   0  5  0  0  0  0
   49.2353   55.6125    5.0405 H   0  0  0  0  0  0
   50.2678   56.7615    5.9573 H   0  0  0  0  0  0
   50.6940   56.3218    4.2686 H   0  0  0  0  0  0
   48.2114   57.8588    5.1507 H   0  0  0  0  0  0
   50.6074   58.9337    5.2194 H   0  0  0  0  0  0
   50.5068   58.8581    3.4275 H   0  0  0  0  0  0
   48.8247   60.2041    6.4669 H   0  0  0  0  0  0
   49.3271   60.4560    2.2229 H   0  0  0  0  0  0
   47.6640   62.3951    6.4620 H   0  0  0  0  0  0
   48.1708   62.6461    2.2065 H   0  0  0  0  0  0
   47.3307   63.6166    4.3300 H   0  0  0  0  0  0
   46.6028   57.1909    3.8878 H   0  0  0  0  0  0
   47.2866   55.8275    1.3883 H   0  0  0  0  0  0
   45.2479   55.3221    2.8667 H   0  0  0  0  0  0
   44.7620   55.5911    1.1584 H   0  0  0  0  0  0
   44.5387   56.8966    2.3719 H   0  0  0  0  0  0
   47.1832   58.7162   -1.9291 H   0  0  0  0  0  0
   45.0936   56.8316   -3.0874 H   0  0  0  0  0  0
   46.5294   57.5586   -3.8854 H   0  0  0  0  0  0
   46.7148   55.0400   -3.1480 H   0  0  0  0  0  0
   48.0483   56.1513   -2.6860 H   0  0  0  0  0  0
   47.4111   55.2882   -0.4845 H   0  0  0  0  0  0
   45.6746   55.1978   -0.9349 H   0  0  0  0  0  0
   46.0909   60.5514   -2.4065 H   0  0  0  0  0  0
   43.4768   60.7807   -0.8481 H   0  0  0  0  0  0
   44.4395   62.1180   -1.5632 H   0  0  0  0  0  0
   44.3222   61.0254   -4.3681 H   0  0  0  0  0  0
   41.3370   61.1532   -4.5758 H   0  0  0  0  0  0
   41.2403   63.2095   -5.9215 H   0  0  0  0  0  0
   42.3215   63.5916   -4.5389 H   0  0  0  0  0  0
   44.4447   64.1223   -4.8030 H   0  0  0  0  0  0
   45.2046   64.2991   -6.5412 H   0  0  0  0  0  0
   41.0608   59.2403   -5.5178 H   0  0  0  0  0  0
   42.8448   58.5317   -7.7769 H   0  0  0  0  0  0
   40.1574   57.3754   -6.8513 H   0  0  0  0  0  0
   41.1774   56.6501   -8.1397 H   0  0  0  0  0  0
   40.8737   57.2937   -4.5039 H   0  0  0  0  0  0
   43.1829   55.4319   -7.6038 H   0  0  0  0  0  0
   42.0418   55.9107   -2.8078 H   0  0  0  0  0  0
   44.3633   54.0630   -5.9112 H   0  0  0  0  0  0
   43.6522   54.2401   -2.2435 H   0  0  0  0  0  0
   40.4966   61.2200  -10.6171 H   0  0  0  0  0  0
   41.7537   60.4823  -12.9147 H   0  0  0  0  0  0
   42.6182   61.4798  -11.6964 H   0  0  0  0  0  0
   42.6405   58.4236  -12.0152 H   0  0  0  0  0  0
   44.0521   59.5343  -12.0338 H   0  0  0  0  0  0
   43.7309   60.1307   -9.6604 H   0  0  0  0  0  0
   43.3518   58.3749   -9.6506 H   0  0  0  0  0  0
   38.7170   61.0550  -11.8137 H   0  0  0  0  0  0
   37.4747   58.3987  -11.6714 H   0  0  0  0  0  0
   36.1849   60.5359  -11.6803 H   0  0  0  0  0  0
   35.6358   59.4650  -13.0138 H   0  0  0  0  0  0
   36.7169   60.8556  -13.3660 H   0  0  0  0  0  0
   36.9812   56.8295  -13.2204 H   0  0  0  0  0  0
   39.0423   56.7278  -15.3241 H   0  0  0  0  0  0
   36.5103   55.0169  -14.8748 H   0  0  0  0  0  0
   37.8274   54.5910  -16.0196 H   0  0  0  0  0  0
   38.0596   54.7630  -12.9981 H   0  0  0  0  0  0
   36.7151   52.8443  -13.8626 H   0  0  0  0  0  0
   38.2965   52.3020  -13.2053 H   0  0  0  0  0  0
   38.0551   52.4206  -14.9814 H   0  0  0  0  0  0
   40.1226   55.4203  -14.1537 H   0  0  0  0  0  0
   40.0433   53.9283  -15.1509 H   0  0  0  0  0  0
   40.2847   53.8097  -13.3749 H   0  0  0  0  0  0
  1  2  1  0  0  0
  1 69  1  0  0  0
  1 70  1  0  0  0
  1 71  1  0  0  0
  2  3  1  0  0  0
  2  5  1  0  0  0
  2 72  1  0  0  0
  3  4  2  0  0  0
  3 12  1  0  0  0
  5  6  1  0  0  0
  5 73  1  0  0  0
  5 74  1  0  0  0
  6  8  2  0  0  0
  6  7  1  0  0  0
  7  9  2  0  0  0
  7 75  1  0  0  0
  8 10  1  0  0  0
  8 76  1  0  0  0
  9 11  1  0  0  0
  9 77  1  0  0  0
 10 11  2  0  0  0
 10 78  1  0  0  0
 11 79  1  0  0  0
 12 13  1  0  0  0
 12 80  1  0  0  0
 13 14  1  0  0  0
 13 16  1  0  0  0
 13 81  1  0  0  0
 14 15  2  0  0  0
 14 17  1  0  0  0
 16 82  1  0  0  0
 16 83  1  0  0  0
 16 84  1  0  0  0
 17 18  1  0  0  0
 17 23  1  0  0  0
 18 21  1  0  0  0
 18 19  1  0  0  0
 18 85  1  0  0  0
 19 20  2  0  0  0
 19 24  1  0  0  0
 21 22  1  0  0  0
 21 86  1  0  0  0
 21 87  1  0  0  0
 22 23  1  0  0  0
 22 88  1  0  0  0
 22 89  1  0  0  0
 23 90  1  0  0  0
 23 91  1  0  0  0
 24 25  1  0  0  0
 24 92  1  0  0  0
 25 26  1  0  0  0
 25 93  1  0  0  0
 25 94  1  0  0  0
 26 27  2  0  0  0
 26 28  1  0  0  0
 28 29  1  0  0  0
 28 95  1  0  0  0
 29 30  1  0  0  0
 29 32  1  0  0  0
 29 96  1  0  0  0
 30 31  2  0  0  0
 30 36  1  0  0  0
 32 33  1  0  0  0
 32 97  1  0  0  0
 32 98  1  0  0  0
 33 34  2  0  0  0
 33 35  1  0  0  0
 35 99  1  0  0  0
 35100  1  0  0  0
 36 37  1  0  0  0
 36101  1  0  0  0
 37 38  1  0  0  0
 37 40  1  0  0  0
 37102  1  0  0  0
 38 39  2  0  0  0
 38 48  1  0  0  0
 40 41  1  0  0  0
 40103  1  0  0  0
 40104  1  0  0  0
 41 43  2  0  0  0
 41 42  1  0  0  0
 42 44  2  0  0  0
 42105  1  0  0  0
 43 45  1  0  0  0
 43106  1  0  0  0
 44 46  1  0  0  0
 44107  1  0  0  0
 45 46  2  0  0  0
 45108  1  0  0  0
 46 47  1  0  0  0
 47109  1  0  0  0
 48 49  1  0  0  0
 48 54  1  0  0  0
 49 52  1  0  0  0
 49 50  1  0  0  0
 49110  1  0  0  0
 50 51  2  0  0  0
 50 55  1  0  0  0
 52 53  1  0  0  0
 52111  1  0  0  0
 52112  1  0  0  0
 53 54  1  0  0  0
 53113  1  0  0  0
 53114  1  0  0  0
 54115  1  0  0  0
 54116  1  0  0  0
 55 56  1  0  0  0
 55117  1  0  0  0
 56 57  1  0  0  0
 56 59  1  0  0  0
 56118  1  0  0  0
 57 58  2  0  0  0
 57 60  1  0  0  0
 59119  1  0  0  0
 59120  1  0  0  0
 59121  1  0  0  0
 60 61  1  0  0  0
 60122  1  0  0  0
 61 62  1  0  0  0
 61 64  1  0  0  0
 61123  1  0  0  0
 62 68  1  0  0  0
 62 63  2  0  0  0
 64 65  1  0  0  0
 64124  1  0  0  0
 64125  1  0  0  0
 65 67  1  0  0  0
 65 66  1  0  0  0
 65126  1  0  0  0
 66127  1  0  0  0
 66128  1  0  0  0
 66129  1  0  0  0
 67130  1  0  0  0
 67131  1  0  0  0
 67132  1  0  0  0
M  CHG  2   1   1  68  -1
M  END
> <s_m_source_file>
../1fzk_ligand.sdf

> <i_m_source_file_index>
1

> <s_epik_input>
W2NIXTFbY0hdW2NIXVtjSF1bY0hdYzFbQ0gyXVtDQEhdKFtOSDMrXSlDKD1PKVtOSF1bQ0BASF0oW0NIM10pQyg9TylOMltDQEBIXShbQ0gyXVtDSDJdW0NIMl0yKUMoPU8pW05IXVtDSDJdQyg9TylbTkhdW0NAQEhdKFtDSDJdQyg9TylbTkgyXSlDKD1PKVtOSF1bQ0BASF0oW0NIMl1jM1tjSF1bY0hdYyhbT0hdKVtjSF1bY0hdMylDKD1PKU40W0NAQEhdKFtDSDJdW0NIMl1bQ0gyXTQpQyg9TylbTkhdW0NAQEhdKFtDSDNdKUMoPU8pW05IXVtDQEhdKEMoPU8pW09IXSlbQ0gyXVtDSF0oW0NIM10pW0NIM10=

> <s_epik_cmdline>
J2VwaWtfYXBwJywgJy1pbWFlJywgJ2xpZ2FuZF9wcm8ubWFlJywgJy1vbWFlJywgJ2xpZ2FuZF9wcmVwLm1hZScsICctbXMnLCAnMScsICctcGgnLCAnNycsICctcGh0JywgJzAuNScsICctbnQn

> <r_lp_tautomer_probability>
0.999999999997365

> <r_epik_Ionization_Penalty>
  0.1943

> <r_epik_Ionization_Penalty_Charging>
  0.1932

> <r_epik_Ionization_Penalty_Neutral>
  0.0011

> <r_epik_State_Penalty>
  0.1827

> <r_epik_Charging_Adjusted_Penalty>
0.375966859526837

> <i_epik_Tot_Q>
0

> <i_epik_Tot_abs_Q>
2

$$$$
