1fzm_ligand
                    3D
 Schrodinger Suite 2020-3.
135136  0  0  1  0            999 V2000
   50.4940   57.5700    4.4450 N   0  3  0  0  0  0
   49.1170   58.1030    4.2320 C   0  0  2  0  0  0
   48.6510   57.9380    2.7910 C   0  0  0  0  0  0
   49.4540   57.9230    1.8570 O   0  0  0  0  0  0
   49.0360   59.5750    4.6570 C   0  0  0  0  0  0
   49.9950   60.5080    3.9670 C   0  0  0  0  0  0
   49.6730   61.9510    4.3400 C   0  0  0  0  0  0
   49.3790   62.0890    5.7660 N   0  0  0  0  0  0
   48.9820   63.2210    6.3450 C   0  0  0  0  0  0
   48.8290   64.3240    5.6230 N   0  3  0  0  0  0
   48.7310   63.2510    7.6480 N   0  0  0  0  0  0
   47.3350   57.8330    2.6220 N   0  0  0  0  0  0
   46.7590   57.6070    1.3120 C   0  0  0  0  0  0
   46.6870   58.7250    0.2950 C   0  0  0  0  0  0
   46.9080   59.8920    0.5970 O   0  0  0  0  0  0
   46.3340   58.3390   -0.9240 N   0  0  0  0  0  0
   46.2180   59.2450   -2.0550 C   0  0  2  0  0  0
   44.7570   59.6140   -2.2900 C   0  0  0  0  0  0
   43.8500   58.9310   -1.8160 O   0  0  0  0  0  0
   46.7610   58.5480   -3.3070 C   0  0  0  0  0  0
   46.9150   59.4030   -4.5420 C   0  0  0  0  0  0
   47.8130   60.4790   -4.5620 C   0  0  0  0  0  0
   46.2140   59.1090   -5.7130 C   0  0  0  0  0  0
   48.0110   61.2270   -5.7080 C   0  0  0  0  0  0
   46.4040   59.8580   -6.8740 C   0  0  0  0  0  0
   47.3130   60.9210   -6.8590 C   0  0  0  0  0  0
   47.5280   61.6670   -7.9930 O   0  0  0  0  0  0
   44.5410   60.7150   -2.9990 N   0  0  0  0  0  0
   43.1920   61.1390   -3.3690 C   0  0  2  0  0  0
   43.1760   60.8270   -4.8600 C   0  0  0  0  0  0
   43.8280   61.5040   -5.6570 O   0  0  0  0  0  0
   42.9630   62.6550   -3.1320 C   0  0  0  0  0  0
   41.6090   63.0660   -3.6950 C   0  0  0  0  0  0
   43.0140   62.9600   -1.6420 C   0  0  0  0  0  0
   42.4530   59.7710   -5.2350 N   0  0  0  0  0  0
   42.3960   59.3320   -6.6230 C   0  0  2  0  0  0
   41.6610   60.2220   -7.6180 C   0  0  0  0  0  0
   40.7240   60.9360   -7.2670 O   0  0  0  0  0  0
   41.8360   57.9020   -6.6920 C   0  0  0  0  0  0
   42.6530   56.9240   -5.8710 C   0  0  0  0  0  0
   42.4300   56.7770   -4.5090 C   0  0  0  0  0  0
   43.6990   56.2020   -6.4480 C   0  0  0  0  0  0
   43.2320   55.9390   -3.7290 C   0  0  0  0  0  0
   44.5090   55.3600   -5.6760 C   0  0  0  0  0  0
   44.2710   55.2400   -4.3260 C   0  0  0  0  0  0
   45.0800   54.4470   -3.5450 O   0  0  0  0  0  0
   42.1170   60.1610   -8.8640 N   0  0  0  0  0  0
   41.5600   60.9320   -9.9750 C   0  0  2  0  0  0
   40.4710   60.1370  -10.7000 C   0  0  0  0  0  0
   40.6090   58.9290  -10.8980 O   0  0  0  0  0  0
   42.6810   61.2750  -10.9620 C   0  0  0  0  0  0
   42.2720   62.1910  -12.1010 C   0  0  0  0  0  0
   41.8830   63.5670  -11.6050 C   0  0  0  0  0  0
   40.7090   63.9470  -11.6300 O   0  0  0  0  0  0
   42.8690   64.3180  -11.1300 N   0  0  0  0  0  0
   39.3980   60.8120  -11.1050 N   0  0  0  0  0  0
   38.3220   60.1280  -11.8130 C   0  0  0  0  0  0
   38.6950   59.5160  -13.1590 C   0  0  0  0  0  0
   39.5040   60.0710  -13.9040 O   0  0  0  0  0  0
   38.0950   58.3680  -13.4800 N   0  0  0  0  0  0
   38.3660   57.6730  -14.7430 C   0  0  2  0  0  0
   37.6520   58.2980  -15.9450 C   0  0  0  0  0  0
   36.7000   59.0840  -15.7280 O   0  0  0  0  0  0
   37.9480   56.2010  -14.6330 C   0  0  0  0  0  0
   38.5740   55.3810  -13.5120 C   0  0  0  0  0  0
   38.0060   53.9610  -13.5490 C   0  0  0  0  0  0
   40.0940   55.3700  -13.6800 C   0  0  0  0  0  0
   38.0400   57.9840  -17.0960 O   0  5  0  0  0  0
   50.5310   56.5153    4.1348 H   0  0  0  0  0  0
   50.7567   57.6483    5.5103 H   0  0  0  0  0  0
   51.2096   58.1534    3.8470 H   0  0  0  0  0  0
   48.4603   57.4906    4.8674 H   0  0  0  0  0  0
   48.0272   59.9615    4.4496 H   0  0  0  0  0  0
   49.2463   59.6580    5.7335 H   0  0  0  0  0  0
   51.0234   60.2732    4.2789 H   0  0  0  0  0  0
   49.9054   60.3860    2.8775 H   0  0  0  0  0  0
   50.5340   62.5924    4.1006 H   0  0  0  0  0  0
   48.7943   62.2894    3.7713 H   0  0  0  0  0  0
   49.4815   61.2219    6.4351 H   0  0  0  0  0  0
   49.0350   64.3071    4.5426 H   0  0  0  0  0  0
   48.8555   62.3409    8.2532 H   0  0  0  0  0  0
   48.3985   64.1859    8.1227 H   0  0  0  0  0  0
   46.6815   57.9213    3.5024 H   0  0  0  0  0  0
   47.3271   56.8215    0.7922 H   0  0  0  0  0  0
   45.7114   57.2901    1.4218 H   0  0  0  0  0  0
   46.1239   57.2671   -1.0541 H   0  0  0  0  0  0
   46.8006   60.1415   -1.7964 H   0  0  0  0  0  0
   47.7615   58.1425   -3.0961 H   0  0  0  0  0  0
   46.0857   57.7279   -3.5921 H   0  0  0  0  0  0
   48.3658   60.7309   -3.6570 H   0  0  0  0  0  0
   45.5062   58.2801   -5.7200 H   0  0  0  0  0  0
   48.7173   62.0572   -5.7025 H   0  0  0  0  0  0
   45.8509   59.6179   -7.7820 H   0  0  0  0  0  0
   48.2442   62.5017   -7.9747 H   0  0  0  0  0  0
   45.4101   61.3137   -3.3090 H   0  0  0  0  0  0
   42.4401   60.6078   -2.7669 H   0  0  0  0  0  0
   43.7472   63.2391   -3.6358 H   0  0  0  0  0  0
   41.5769   62.8437   -4.7718 H   0  0  0  0  0  0
   41.4589   64.1444   -3.5386 H   0  0  0  0  0  0
   40.8132   62.5067   -3.1812 H   0  0  0  0  0  0
   43.9934   62.6616   -1.2400 H   0  0  0  0  0  0
   42.2199   62.4006   -1.1259 H   0  0  0  0  0  0
   42.8656   64.0383   -1.4832 H   0  0  0  0  0  0
   41.8897   59.2270   -4.4625 H   0  0  0  0  0  0
   43.4569   59.4185   -6.9006 H   0  0  0  0  0  0
   40.8057   57.8927   -6.3067 H   0  0  0  0  0  0
   41.8400   57.5566   -7.7364 H   0  0  0  0  0  0
   41.6139   57.3255   -4.0386 H   0  0  0  0  0  0
   43.8885   56.2951   -7.5174 H   0  0  0  0  0  0
   43.0426   55.8356   -2.6606 H   0  0  0  0  0  0
   45.3225   54.8034   -6.1413 H   0  0  0  0  0  0
   44.8844   54.3553   -2.4664 H   0  0  0  0  0  0
   42.9642   59.4810   -9.0366 H   0  0  0  0  0  0
   41.1236   61.8382   -9.5297 H   0  0  0  0  0  0
   43.4981   61.7814  -10.4273 H   0  0  0  0  0  0
   43.0609   60.3504  -11.4211 H   0  0  0  0  0  0
   43.1123   62.3019  -12.8021 H   0  0  0  0  0  0
   41.4093   61.7578  -12.6283 H   0  0  0  0  0  0
   43.9003   63.9353  -11.1288 H   0  0  0  0  0  0
   42.6548   65.3231  -10.7376 H   0  0  0  0  0  0
   39.3250   61.8909  -10.9034 H   0  0  0  0  0  0
   37.9438   59.3008  -11.1943 H   0  0  0  0  0  0
   37.5063   60.8379  -12.0144 H   0  0  0  0  0  0
   37.3772   57.9444  -12.7621 H   0  0  0  0  0  0
   39.4517   57.7906  -14.8753 H   0  0  0  0  0  0
   36.8618   56.1395  -14.4704 H   0  0  0  0  0  0
   38.2099   55.6750  -15.5629 H   0  0  0  0  0  0
   38.3343   55.8303  -12.5370 H   0  0  0  0  0  0
   36.9136   53.9998  -13.4261 H   0  0  0  0  0  0
   38.4460   53.3687  -12.7331 H   0  0  0  0  0  0
   38.2500   53.4935  -14.5144 H   0  0  0  0  0  0
   40.4737   56.4019  -13.6495 H   0  0  0  0  0  0
   40.3528   54.9125  -14.6463 H   0  0  0  0  0  0
   40.5487   54.7877  -12.8651 H   0  0  0  0  0  0
   48.4962   65.2551    6.1050 H   0  0  0  0  0  0
  1  2  1  0  0  0
  1 69  1  0  0  0
  1 70  1  0  0  0
  1 71  1  0  0  0
  2  3  1  0  0  0
  2  5  1  0  0  0
  2 72  1  0  0  0
  3  4  2  0  0  0
  3 12  1  0  0  0
  5  6  1  0  0  0
  5 73  1  0  0  0
  5 74  1  0  0  0
  6  7  1  0  0  0
  6 75  1  0  0  0
  6 76  1  0  0  0
  7  8  1  0  0  0
  7 77  1  0  0  0
  7 78  1  0  0  0
  8  9  1  0  0  0
  8 79  1  0  0  0
  9 10  2  0  0  0
  9 11  1  0  0  0
 10 80  1  0  0  0
 10135  1  0  0  0
 11 81  1  0  0  0
 11 82  1  0  0  0
 12 13  1  0  0  0
 12 83  1  0  0  0
 13 14  1  0  0  0
 13 84  1  0  0  0
 13 85  1  0  0  0
 14 15  2  0  0  0
 14 16  1  0  0  0
 16 17  1  0  0  0
 16 86  1  0  0  0
 17 18  1  0  0  0
 17 20  1  0  0  0
 17 87  1  0  0  0
 18 19  2  0  0  0
 18 28  1  0  0  0
 20 21  1  0  0  0
 20 88  1  0  0  0
 20 89  1  0  0  0
 21 23  2  0  0  0
 21 22  1  0  0  0
 22 24  2  0  0  0
 22 90  1  0  0  0
 23 25  1  0  0  0
 23 91  1  0  0  0
 24 26  1  0  0  0
 24 92  1  0  0  0
 25 26  2  0  0  0
 25 93  1  0  0  0
 26 27  1  0  0  0
 27 94  1  0  0  0
 28 29  1  0  0  0
 28 95  1  0  0  0
 29 30  1  0  0  0
 29 32  1  0  0  0
 29 96  1  0  0  0
 30 31  2  0  0  0
 30 35  1  0  0  0
 32 33  1  0  0  0
 32 34  1  0  0  0
 32 97  1  0  0  0
 33 98  1  0  0  0
 33 99  1  0  0  0
 33100  1  0  0  0
 34101  1  0  0  0
 34102  1  0  0  0
 34103  1  0  0  0
 35 36  1  0  0  0
 35104  1  0  0  0
 36 37  1  0  0  0
 36 39  1  0  0  0
 36105  1  0  0  0
 37 38  2  0  0  0
 37 47  1  0  0  0
 39 40  1  0  0  0
 39106  1  0  0  0
 39107  1  0  0  0
 40 42  2  0  0  0
 40 41  1  0  0  0
 41 43  2  0  0  0
 41108  1  0  0  0
 42 44  1  0  0  0
 42109  1  0  0  0
 43 45  1  0  0  0
 43110  1  0  0  0
 44 45  2  0  0  0
 44111  1  0  0  0
 45 46  1  0  0  0
 46112  1  0  0  0
 47 48  1  0  0  0
 47113  1  0  0  0
 48 49  1  0  0  0
 48 51  1  0  0  0
 48114  1  0  0  0
 49 50  2  0  0  0
 49 56  1  0  0  0
 51 52  1  0  0  0
 51115  1  0  0  0
 51116  1  0  0  0
 52 53  1  0  0  0
 52117  1  0  0  0
 52118  1  0  0  0
 53 54  2  0  0  0
 53 55  1  0  0  0
 55119  1  0  0  0
 55120  1  0  0  0
 56 57  1  0  0  0
 56121  1  0  0  0
 57 58  1  0  0  0
 57122  1  0  0  0
 57123  1  0  0  0
 58 59  2  0  0  0
 58 60  1  0  0  0
 60 61  1  0  0  0
 60124  1  0  0  0
 61 62  1  0  0  0
 61 64  1  0  0  0
 61125  1  0  0  0
 62 68  1  0  0  0
 62 63  2  0  0  0
 64 65  1  0  0  0
 64126  1  0  0  0
 64127  1  0  0  0
 65 67  1  0  0  0
 65 66  1  0  0  0
 65128  1  0  0  0
 66129  1  0  0  0
 66130  1  0  0  0
 66131  1  0  0  0
 67132  1  0  0  0
 67133  1  0  0  0
 67134  1  0  0  0
M  CHG  3   1   1  10   1  68  -1
M  END
> <s_m_source_file>
../1fzm_ligand.sdf

> <i_m_source_file_index>
1

> <s_epik_input>
W0hdL049QyhbTkgyXSlcW05IXVtDSDJdW0NIMl1bQ0gyXVtDQEhdKFtOSDMrXSlDKD1PKVtOSF1bQ0gyXUMoPU8pW05IXVtDQEBIXShbQ0gyXWMxW2NIXVtjSF1jKFtPSF0pW2NIXVtjSF0xKUMoPU8pW05IXVtDQEBIXShbQ0hdKFtDSDNdKVtDSDNdKUMoPU8pW05IXVtDQEBIXShbQ0gyXWMyW2NIXVtjSF1jKFtPSF0pW2NIXVtjSF0yKUMoPU8pW05IXVtDQEBIXShbQ0gyXVtDSDJdQyg9TylbTkgyXSlDKD1PKVtOSF1bQ0gyXUMoPU8pW05IXVtDQEhdKEMoPU8pW09IXSlbQ0gyXVtDSF0oW0NIM10pW0NIM10=

> <s_epik_cmdline>
J2VwaWtfYXBwJywgJy1pbWFlJywgJ2xpZ2FuZF9wcm8ubWFlJywgJy1vbWFlJywgJ2xpZ2FuZF9wcmVwLm1hZScsICctbXMnLCAnMScsICctcGgnLCAnNycsICctcGh0JywgJzAuNScsICctbnQn

> <r_lp_tautomer_probability>
0.99999999999473

> <r_epik_Ionization_Penalty>
  0.1374

> <r_epik_Ionization_Penalty_Charging>
  0.1356

> <r_epik_Ionization_Penalty_Neutral>
  0.0017

> <r_epik_State_Penalty>
  0.1248

> <r_epik_Charging_Adjusted_Penalty>
0.260422707356365

> <i_epik_Tot_Q>
1

> <i_epik_Tot_abs_Q>
3

> <s_epik_Chemistry_Notes>
This compound has an imine and may undergo hydrolysis.

$$$$
