1fzo_ligand
                    3D
 Schrodinger Suite 2020-3.
132135  0  0  1  0            999 V2000
   49.9980   56.8390    4.5850 N   0  3  0  0  0  0
   48.9250   57.8010    4.2470 C   0  0  2  0  0  0
   48.4850   57.5110    2.8140 C   0  0  0  0  0  0
   49.3070   57.4230    1.9050 O   0  0  0  0  0  0
   49.4570   59.2330    4.3770 C   0  0  0  0  0  0
   48.4180   60.2280    4.7980 C   0  0  0  0  0  0
   47.6680   60.0220    5.9540 C   0  0  0  0  0  0
   48.1960   61.3800    4.0510 C   0  0  0  0  0  0
   46.6970   60.9580    6.3700 C   0  0  0  0  0  0
   47.2350   62.3190    4.4490 C   0  0  0  0  0  0
   46.4810   62.1060    5.6170 C   0  0  0  0  0  0
   47.1810   57.3640    2.6330 N   0  0  0  0  0  0
   46.6010   57.0200    1.3440 C   0  0  2  0  0  0
   46.6570   58.0950    0.2830 C   0  0  0  0  0  0
   46.8280   59.2740    0.5800 O   0  0  0  0  0  0
   45.1430   56.5920    1.5520 C   0  0  0  0  0  0
   46.5210   57.6920   -0.9920 N   0  0  0  0  0  0
   46.5420   58.6680   -2.0840 C   0  0  2  0  0  0
   45.5140   59.7600   -1.7620 C   0  0  0  0  0  0
   44.4650   59.4680   -1.2110 O   0  0  0  0  0  0
   46.1150   57.8360   -3.2910 C   0  0  0  0  0  0
   46.7460   56.4700   -2.9920 C   0  0  0  0  0  0
   46.4670   56.3000   -1.4990 C   0  0  0  0  0  0
   45.8070   61.0120   -2.1120 N   0  0  0  0  0  0
   44.8650   62.0900   -1.8380 C   0  0  0  0  0  0
   43.4710   61.8100   -2.3730 C   0  0  0  0  0  0
   42.4610   62.1420   -1.7420 O   0  0  0  0  0  0
   43.4120   61.2090   -3.5560 N   0  0  0  0  0  0
   42.1460   60.8620   -4.1650 C   0  0  2  0  0  0
   42.4240   59.9640   -5.3660 C   0  0  0  0  0  0
   43.5810   59.7360   -5.7380 O   0  0  0  0  0  0
   41.3850   62.1140   -4.6290 C   0  0  0  0  0  0
   41.9470   62.7050   -5.9160 C   0  0  0  0  0  0
   41.2020   62.9810   -6.8610 O   0  0  0  0  0  0
   43.2540   62.9160   -5.9540 N   0  0  0  0  0  0
   41.3550   59.4480   -5.9500 N   0  0  0  0  0  0
   41.4730   58.5890   -7.1110 C   0  0  2  0  0  0
   40.6230   59.2360   -8.1920 C   0  0  0  0  0  0
   39.3930   59.1330   -8.1870 O   0  0  0  0  0  0
   40.9690   57.1720   -6.8020 C   0  0  0  0  0  0
   41.7980   56.4070   -5.7760 C   0  0  0  0  0  0
   41.5060   56.4850   -4.4190 C   0  0  0  0  0  0
   42.8650   55.5800   -6.1780 C   0  0  0  0  0  0
   42.2500   55.7600   -3.4850 C   0  0  0  0  0  0
   43.6160   54.8550   -5.2550 C   0  0  0  0  0  0
   43.3020   54.9510   -3.9090 C   0  0  0  0  0  0
   44.0390   54.2570   -2.9800 O   0  0  0  0  0  0
   41.2700   59.9470   -9.1200 N   0  0  0  0  0  0
   40.5490   60.6180  -10.2130 C   0  0  2  0  0  0
   39.5750   59.6530  -10.8850 C   0  0  0  0  0  0
   39.9070   58.4900  -11.1000 O   0  0  0  0  0  0
   41.6730   61.0400  -11.1590 C   0  0  0  0  0  0
   42.8400   61.2490  -10.2330 C   0  0  0  0  0  0
   42.7300   60.0840   -9.2760 C   0  0  0  0  0  0
   38.3820   60.1330  -11.2210 N   0  0  0  0  0  0
   37.3880   59.2820  -11.8620 C   0  0  2  0  0  0
   37.8930   58.7890  -13.2090 C   0  0  0  0  0  0
   38.6540   59.4710  -13.8850 O   0  0  0  0  0  0
   36.0800   60.0320  -12.0420 C   0  0  0  0  0  0
   37.4750   57.5800  -13.5670 N   0  0  0  0  0  0
   37.8540   56.9430  -14.8270 C   0  0  2  0  0  0
   37.1400   57.5810  -16.0360 C   0  0  0  0  0  0
   36.2100   58.3950  -15.8230 O   0  0  0  0  0  0
   37.5030   55.4460  -14.7620 C   0  0  0  0  0  0
   38.1520   54.6360  -13.6420 C   0  0  0  0  0  0
   37.6350   53.2080  -13.6940 C   0  0  0  0  0  0
   39.6620   54.6480  -13.7860 C   0  0  0  0  0  0
   37.5070   57.2420  -17.1890 O   0  5  0  0  0  0
   49.6134   55.8128    4.4908 H   0  0  0  0  0  0
   50.3330   57.0116    5.6184 H   0  0  0  0  0  0
   50.8449   56.9778    3.8969 H   0  0  0  0  0  0
   48.0838   57.6710    4.9438 H   0  0  0  0  0  0
   50.2586   59.2594    5.1299 H   0  0  0  0  0  0
   49.8541   59.5661    3.4068 H   0  0  0  0  0  0
   47.8340   59.1227    6.5472 H   0  0  0  0  0  0
   48.7765   61.5545    3.1451 H   0  0  0  0  0  0
   46.1194   60.7814    7.2773 H   0  0  0  0  0  0
   47.0715   63.2163    3.8522 H   0  0  0  0  0  0
   45.7334   62.8353    5.9291 H   0  0  0  0  0  0
   46.5298   57.5129    3.5070 H   0  0  0  0  0  0
   47.2662   56.2181    0.9912 H   0  0  0  0  0  0
   45.0971   55.8094    2.3236 H   0  0  0  0  0  0
   44.7377   56.1999    0.6075 H   0  0  0  0  0  0
   44.5485   57.4597    1.8740 H   0  0  0  0  0  0
   47.5239   59.1443   -2.2217 H   0  0  0  0  0  0
   45.0168   57.7976   -3.3398 H   0  0  0  0  0  0
   46.5071   58.2955   -4.2103 H   0  0  0  0  0  0
   46.2606   55.6991   -3.6085 H   0  0  0  0  0  0
   47.8204   56.5034   -3.2255 H   0  0  0  0  0  0
   47.2324   55.6949   -0.9911 H   0  0  0  0  0  0
   45.4720   55.8754   -1.2995 H   0  0  0  0  0  0
   46.7635   61.2306   -2.6093 H   0  0  0  0  0  0
   44.7824   62.2373   -0.7510 H   0  0  0  0  0  0
   45.2230   63.0180   -2.3076 H   0  0  0  0  0  0
   44.3539   60.9753   -4.0739 H   0  0  0  0  0  0
   41.5679   60.3444   -3.3853 H   0  0  0  0  0  0
   40.3311   61.8563   -4.8104 H   0  0  0  0  0  0
   41.4442   62.8887   -3.8503 H   0  0  0  0  0  0
   43.8788   62.6542   -5.0874 H   0  0  0  0  0  0
   43.7147   63.3531   -6.8522 H   0  0  0  0  0  0
   40.3624   59.6823   -5.5378 H   0  0  0  0  0  0
   42.5347   58.5248   -7.3916 H   0  0  0  0  0  0
   39.9446   57.2257   -6.4048 H   0  0  0  0  0  0
   40.9738   56.5719   -7.7239 H   0  0  0  0  0  0
   40.6870   57.1193   -4.0799 H   0  0  0  0  0  0
   43.1093   55.5053   -7.2376 H   0  0  0  0  0  0
   42.0074   55.8273   -2.4245 H   0  0  0  0  0  0
   44.4385   54.2216   -5.5871 H   0  0  0  0  0  0
   43.7894   54.3335   -1.9114 H   0  0  0  0  0  0
   39.9440   61.4612   -9.8483 H   0  0  0  0  0  0
   41.8548   60.2403  -11.8921 H   0  0  0  0  0  0
   41.3827   61.9611  -11.6856 H   0  0  0  0  0  0
   43.7751   61.2328  -10.8121 H   0  0  0  0  0  0
   42.7381   62.2211   -9.7283 H   0  0  0  0  0  0
   43.1859   60.2884   -8.2960 H   0  0  0  0  0  0
   43.1442   59.1509   -9.6856 H   0  0  0  0  0  0
   38.1493   61.1871  -11.0093 H   0  0  0  0  0  0
   37.2412   58.4306  -11.1812 H   0  0  0  0  0  0
   35.7220   60.3849  -11.0636 H   0  0  0  0  0  0
   35.3305   59.3606  -12.4863 H   0  0  0  0  0  0
   36.2400   60.8939  -12.7065 H   0  0  0  0  0  0
   36.8127   57.0552  -12.8628 H   0  0  0  0  0  0
   38.9378   57.1096  -14.9141 H   0  0  0  0  0  0
   36.4179   55.3295  -14.6239 H   0  0  0  0  0  0
   37.8080   54.9568  -15.6989 H   0  0  0  0  0  0
   37.8979   55.0837  -12.6699 H   0  0  0  0  0  0
   36.5400   53.2104  -13.5888 H   0  0  0  0  0  0
   38.0809   52.6265  -12.8736 H   0  0  0  0  0  0
   37.9098   52.7534  -14.6572 H   0  0  0  0  0  0
   40.0258   55.6854  -13.7471 H   0  0  0  0  0  0
   39.9420   54.1971  -14.7495 H   0  0  0  0  0  0
   40.1131   54.0702  -12.9658 H   0  0  0  0  0  0
  1  2  1  0  0  0
  1 69  1  0  0  0
  1 70  1  0  0  0
  1 71  1  0  0  0
  2  3  1  0  0  0
  2  5  1  0  0  0
  2 72  1  0  0  0
  3  4  2  0  0  0
  3 12  1  0  0  0
  5  6  1  0  0  0
  5 73  1  0  0  0
  5 74  1  0  0  0
  6  8  2  0  0  0
  6  7  1  0  0  0
  7  9  2  0  0  0
  7 75  1  0  0  0
  8 10  1  0  0  0
  8 76  1  0  0  0
  9 11  1  0  0  0
  9 77  1  0  0  0
 10 11  2  0  0  0
 10 78  1  0  0  0
 11 79  1  0  0  0
 12 13  1  0  0  0
 12 80  1  0  0  0
 13 14  1  0  0  0
 13 16  1  0  0  0
 13 81  1  0  0  0
 14 15  2  0  0  0
 14 17  1  0  0  0
 16 82  1  0  0  0
 16 83  1  0  0  0
 16 84  1  0  0  0
 17 18  1  0  0  0
 17 23  1  0  0  0
 18 21  1  0  0  0
 18 19  1  0  0  0
 18 85  1  0  0  0
 19 20  2  0  0  0
 19 24  1  0  0  0
 21 22  1  0  0  0
 21 86  1  0  0  0
 21 87  1  0  0  0
 22 23  1  0  0  0
 22 88  1  0  0  0
 22 89  1  0  0  0
 23 90  1  0  0  0
 23 91  1  0  0  0
 24 25  1  0  0  0
 24 92  1  0  0  0
 25 26  1  0  0  0
 25 93  1  0  0  0
 25 94  1  0  0  0
 26 27  2  0  0  0
 26 28  1  0  0  0
 28 29  1  0  0  0
 28 95  1  0  0  0
 29 30  1  0  0  0
 29 32  1  0  0  0
 29 96  1  0  0  0
 30 31  2  0  0  0
 30 36  1  0  0  0
 32 33  1  0  0  0
 32 97  1  0  0  0
 32 98  1  0  0  0
 33 34  2  0  0  0
 33 35  1  0  0  0
 35 99  1  0  0  0
 35100  1  0  0  0
 36 37  1  0  0  0
 36101  1  0  0  0
 37 38  1  0  0  0
 37 40  1  0  0  0
 37102  1  0  0  0
 38 39  2  0  0  0
 38 48  1  0  0  0
 40 41  1  0  0  0
 40103  1  0  0  0
 40104  1  0  0  0
 41 43  2  0  0  0
 41 42  1  0  0  0
 42 44  2  0  0  0
 42105  1  0  0  0
 43 45  1  0  0  0
 43106  1  0  0  0
 44 46  1  0  0  0
 44107  1  0  0  0
 45 46  2  0  0  0
 45108  1  0  0  0
 46 47  1  0  0  0
 47109  1  0  0  0
 48 49  1  0  0  0
 48 54  1  0  0  0
 49 52  1  0  0  0
 49 50  1  0  0  0
 49110  1  0  0  0
 50 51  2  0  0  0
 50 55  1  0  0  0
 52 53  1  0  0  0
 52111  1  0  0  0
 52112  1  0  0  0
 53 54  1  0  0  0
 53113  1  0  0  0
 53114  1  0  0  0
 54115  1  0  0  0
 54116  1  0  0  0
 55 56  1  0  0  0
 55117  1  0  0  0
 56 57  1  0  0  0
 56 59  1  0  0  0
 56118  1  0  0  0
 57 58  2  0  0  0
 57 60  1  0  0  0
 59119  1  0  0  0
 59120  1  0  0  0
 59121  1  0  0  0
 60 61  1  0  0  0
 60122  1  0  0  0
 61 62  1  0  0  0
 61 64  1  0  0  0
 61123  1  0  0  0
 62 68  1  0  0  0
 62 63  2  0  0  0
 64 65  1  0  0  0
 64124  1  0  0  0
 64125  1  0  0  0
 65 67  1  0  0  0
 65 66  1  0  0  0
 65126  1  0  0  0
 66127  1  0  0  0
 66128  1  0  0  0
 66129  1  0  0  0
 67130  1  0  0  0
 67131  1  0  0  0
 67132  1  0  0  0
M  CHG  2   1   1  68  -1
M  END
> <s_m_source_file>
../1fzo_ligand.sdf

> <i_m_source_file_index>
1

> <s_epik_input>
W2NIXTFbY0hdW2NIXVtjSF1bY0hdYzFbQ0gyXVtDQEhdKFtOSDMrXSlDKD1PKVtOSF1bQ0BASF0oW0NIM10pQyg9TylOMltDQEBIXShbQ0gyXVtDSDJdW0NIMl0yKUMoPU8pW05IXVtDSDJdQyg9TylbTkhdW0NAQEhdKFtDSDJdQyg9TylbTkgyXSlDKD1PKVtOSF1bQ0BASF0oW0NIMl1jM1tjSF1bY0hdYyhbT0hdKVtjSF1bY0hdMylDKD1PKU40W0NAQEhdKFtDSDJdW0NIMl1bQ0gyXTQpQyg9TylbTkhdW0NAQEhdKFtDSDNdKUMoPU8pW05IXVtDQEhdKEMoPU8pW09IXSlbQ0gyXVtDSF0oW0NIM10pW0NIM10=

> <s_epik_cmdline>
J2VwaWtfYXBwJywgJy1pbWFlJywgJ2xpZ2FuZF9wcm8ubWFlJywgJy1vbWFlJywgJ2xpZ2FuZF9wcmVwLm1hZScsICctbXMnLCAnMScsICctcGgnLCAnNycsICctcGh0JywgJzAuNScsICctbnQn

> <r_lp_tautomer_probability>
0.999999999997365

> <r_epik_Ionization_Penalty>
  0.1943

> <r_epik_Ionization_Penalty_Charging>
  0.1932

> <r_epik_Ionization_Penalty_Neutral>
  0.0011

> <r_epik_State_Penalty>
  0.1827

> <r_epik_Charging_Adjusted_Penalty>
0.375966859526837

> <i_epik_Tot_Q>
0

> <i_epik_Tot_abs_Q>
2

$$$$
