1g05_ligand
                    3D
 Schrodinger Suite 2020-3.
 50 52  0  0  1  0            999 V2000
    3.1000   48.3590   54.7670 C   0  0  0  0  0  0
    3.6250   48.8490   55.9940 C   0  0  0  0  0  0
    3.0830   48.4380   57.2390 C   0  0  0  0  0  0
    2.0330   47.5170   57.2080 C   0  0  0  0  0  0
    1.5240   47.0430   55.9930 C   0  0  0  0  0  0
    2.0350   47.4540   54.7570 C   0  0  0  0  0  0
    1.5140   47.0890   58.2610 O   0  0  0  0  0  0
    2.0440   47.4360   59.5530 C   0  0  0  0  0  0
    3.7060   48.7960   53.2200 S   0  0  0  0  0  0
    3.2850   47.7490   52.2610 O   0  0  0  0  0  0
    5.1370   48.9360   53.3960 O   0  0  0  0  0  0
    2.9710   50.1530   52.6980 N   0  0  3  0  0  0
    1.7680   49.9490   51.8600 C   0  0  2  0  0  0
    1.7270   50.8640   50.6150 C   0  0  0  0  0  0
    2.4360   52.2120   50.7840 C   0  0  0  0  0  0
    3.5150   52.3660   51.7400 N   0  0  0  0  0  0
    3.5270   51.5110   52.9580 C   0  0  0  0  0  0
    2.0950   53.2940   50.0590 O   0  0  0  0  0  0
    0.5180   50.0920   52.7010 C   0  0  0  0  0  0
   -0.3340   49.0630   52.7690 N   0  0  0  0  0  0
   -1.5390   49.2140   53.4630 O   0  0  0  0  0  0
    0.2620   51.2210   53.3510 O   0  0  0  0  0  0
    4.5440   53.4070   51.4590 C   0  0  0  0  0  0
    7.6170   51.2560   50.7680 C   0  0  0  0  0  0
    6.3560   51.8210   50.6750 C   0  0  0  0  0  0
    5.9420   52.8030   51.5780 C   0  0  0  0  0  0
    6.8110   53.2180   52.5950 C   0  0  0  0  0  0
    8.0870   52.6480   52.7270 C   0  0  0  0  0  0
    8.4780   51.6760   51.7940 C   0  0  0  0  0  0
    4.4577   49.5521   55.9779 H   0  0  0  0  0  0
    3.4701   48.8251   58.1815 H   0  0  0  0  0  0
    0.7008   46.3288   56.0105 H   0  0  0  0  0  0
    1.6180   47.0822   53.8211 H   0  0  0  0  0  0
    1.4412   46.9555   60.3377 H   0  0  0  0  0  0
    2.0105   48.5279   59.6818 H   0  0  0  0  0  0
    3.0855   47.0898   59.6271 H   0  0  0  0  0  0
    1.8404   48.9110   51.5030 H   0  0  0  0  0  0
    2.2123   50.3546   49.7694 H   0  0  0  0  0  0
    0.6809   51.0863   50.3576 H   0  0  0  0  0  0
    2.9266   52.0109   53.7323 H   0  0  0  0  0  0
    4.5679   51.4213   53.3022 H   0  0  0  0  0  0
   -0.0942   48.1046   52.2854 H   0  0  0  0  0  0
   -2.2469   48.3743   53.5252 H   0  0  0  0  0  0
    4.4029   53.7963   50.4399 H   0  0  0  0  0  0
    4.4414   54.2288   52.1829 H   0  0  0  0  0  0
    7.9363   50.4961   50.0548 H   0  0  0  0  0  0
    5.6775   51.4950   49.8866 H   0  0  0  0  0  0
    6.4927   53.9929   53.2924 H   0  0  0  0  0  0
    8.7556   52.9522   53.5323 H   0  0  0  0  0  0
    9.4730   51.2370   51.8675 H   0  0  0  0  0  0
  1  2  2  0  0  0
  1  6  1  0  0  0
  1  9  1  0  0  0
  2  3  1  0  0  0
  2 30  1  0  0  0
  3  4  2  0  0  0
  3 31  1  0  0  0
  4  5  1  0  0  0
  4  7  1  0  0  0
  5  6  2  0  0  0
  5 32  1  0  0  0
  6 33  1  0  0  0
  7  8  1  0  0  0
  8 34  1  0  0  0
  8 35  1  0  0  0
  8 36  1  0  0  0
  9 10  2  0  0  0
  9 11  2  0  0  0
  9 12  1  0  0  0
 12 13  1  0  0  0
 12 17  1  0  0  0
 13 14  1  0  0  0
 13 19  1  0  0  0
 13 37  1  0  0  0
 14 15  1  0  0  0
 14 38  1  0  0  0
 14 39  1  0  0  0
 15 16  1  0  0  0
 15 18  2  0  0  0
 16 17  1  0  0  0
 16 23  1  0  0  0
 17 40  1  0  0  0
 17 41  1  0  0  0
 19 20  1  0  0  0
 19 22  2  0  0  0
 20 21  1  0  0  0
 20 42  1  0  0  0
 21 43  1  0  0  0
 23 26  1  0  0  0
 23 44  1  0  0  0
 23 45  1  0  0  0
 24 25  2  0  0  0
 24 29  1  0  0  0
 24 46  1  0  0  0
 25 26  1  0  0  0
 25 47  1  0  0  0
 26 27  2  0  0  0
 27 28  1  0  0  0
 27 48  1  0  0  0
 28 29  2  0  0  0
 28 49  1  0  0  0
 29 50  1  0  0  0
M  END
> <s_m_source_file>
../1g05_ligand.sdf

> <i_m_source_file_index>
1

> <s_epik_input>
W2NIXTFbY0hdYyhPW0NIM10pW2NIXVtjSF1jMVMoPU8pKD1PKU4yW0NAQEhdKEMoPU8pW05IXVtPSF0pW0NIMl1DKD1PKU4oW0NIMl0yKVtDSDJdYzNbY0hdW2NIXVtjSF1bY0hdW2NIXTM=

> <s_epik_cmdline>
J2VwaWtfYXBwJywgJy1pbWFlJywgJ2xpZ2FuZF9wcm8ubWFlJywgJy1vbWFlJywgJ2xpZ2FuZF9wcmVwLm1hZScsICctbXMnLCAnMScsICctcGgnLCAnNycsICctcGh0JywgJzAuNScsICctbnQn

> <r_lp_tautomer_probability>
1

> <r_epik_Ionization_Penalty>
  0.0226

> <r_epik_Ionization_Penalty_Charging>
  0.0000

> <r_epik_Ionization_Penalty_Neutral>
  0.0226

> <r_epik_State_Penalty>
  0.0182

> <r_epik_Charging_Adjusted_Penalty>
0.0182447185875591

> <i_epik_Tot_Q>
0

> <i_epik_Tot_abs_Q>
0

> <s_epik_Chemistry_Notes>
This compound contains an acetal/aminal-like group ( X-CH(R)-Y where X, Y are N, S, or O) that may be acid/base labile, releasing an aldehyde. This compound has a N-S or N-O group and may undergo hydrolysis at high or low pH.

$$$$
