1g1e_ligand
                    3D
 Schrodinger Suite 2020-3.
277277  0  0  1  0            999 V2000
   -0.9340   12.2250   -2.6890 N   0  3  0  0  0  0
    0.3490   11.4720   -2.8080 C   0  0  2  0  0  0
    0.1830   10.2230   -3.6770 C   0  0  0  0  0  0
   -0.8980    9.6340   -3.7290 O   0  0  0  0  0  0
    0.8410   11.0760   -1.4070 C   0  0  0  0  0  0
    1.2710   12.2470   -0.5300 C   0  0  0  0  0  0
    0.0790   13.0170    0.0260 C   0  0  0  0  0  0
    0.4880   14.0750    0.9520 N   0  0  0  0  0  0
    0.9960   13.8570    2.1700 C   0  0  0  0  0  0
    1.1210   12.6190    2.6430 N   0  0  0  0  0  0
    1.3670   14.8860    2.9250 N   0  0  0  0  0  0
    1.2610    9.8280   -4.3580 N   0  0  0  0  0  0
    1.2320    8.6510   -5.2290 C   0  0  2  0  0  0
    1.5250    7.3680   -4.4450 C   0  0  0  0  0  0
    0.7240    6.4440   -4.4670 O   0  0  0  0  0  0
    2.2120    8.8200   -6.4030 C   0  0  0  0  0  0
    3.6630    9.0410   -5.9910 C   0  0  0  0  0  0
    4.7100    9.5470   -7.3710 S   0  0  0  0  0  0
    4.4700    8.1870   -8.5110 C   0  0  0  0  0  0
    2.6630    7.3440   -3.7340 N   0  0  0  0  0  0
    3.1010    6.2040   -2.9010 C   0  0  2  0  0  0
    2.0620    5.0650   -2.7550 C   0  0  0  0  0  0
    1.9840    4.1870   -3.6140 O   0  0  0  0  0  0
    3.5560    6.7210   -1.5220 C   0  0  0  0  0  0
    2.6160    7.7500   -0.8810 C   0  0  0  0  0  0
    2.9790    8.3830    0.1090 O   0  0  0  0  0  0
    1.3970    7.9090   -1.4100 N   0  0  0  0  0  0
    1.2990    5.0600   -1.6520 N   0  0  0  0  0  0
    0.3040    4.0130   -1.3860 C   0  0  2  0  0  0
   -0.6110    3.7180   -2.5620 C   0  0  0  0  0  0
   -0.7100    2.5710   -2.9940 O   0  0  0  0  0  0
   -0.6020    4.3330   -0.1800 C   0  0  2  0  0  0
   -0.9990    5.8100   -0.1270 C   0  0  0  0  0  0
    0.0680    3.9200    1.1040 C   0  0  0  0  0  0
   -2.1900    6.0600    0.7630 C   0  0  0  0  0  0
   -1.3060    4.7390   -3.0540 N   0  0  0  0  0  0
   -2.2370    4.5490   -4.1520 C   0  0  2  0  0  0
   -1.5150    3.9850   -5.3750 C   0  0  0  0  0  0
   -2.0590    3.1630   -6.1120 O   0  0  0  0  0  0
   -2.9390    5.8660   -4.5000 C   0  0  0  0  0  0
   -3.7200    6.4670   -3.3380 C   0  0  0  0  0  0
   -4.3610    7.7990   -3.6860 C   0  0  0  0  0  0
   -3.6740    8.7540   -4.0470 O   0  0  0  0  0  0
   -5.6830    7.8720   -3.5730 N   0  0  0  0  0  0
   -0.2740    4.4290   -5.5540 N   0  0  0  0  0  0
    0.5790    3.9870   -6.6470 C   0  0  2  0  0  0
    0.8350    2.4800   -6.5480 C   0  0  0  0  0  0
    0.8560    1.7720   -7.5560 O   0  0  0  0  0  0
    1.9060    4.7580   -6.5860 C   0  0  0  0  0  0
    2.8870    4.3880   -7.6890 C   0  0  0  0  0  0
    4.4920    5.1900   -7.5040 S   0  0  0  0  0  0
    5.1040    4.4040   -6.0150 C   0  0  0  0  0  0
    1.0220    2.0070   -5.3150 N   0  0  0  0  0  0
    1.2720    0.6010   -5.0370 C   0  0  2  0  0  0
   -0.0340   -0.2060   -5.0220 C   0  0  0  0  0  0
   -0.0850   -1.3110   -5.5600 O   0  0  0  0  0  0
    2.0330    0.5030   -3.7130 C   0  0  0  0  0  0
    1.8820   -0.7960   -2.9290 C   0  0  0  0  0  0
    2.7070   -1.8990   -3.5610 C   0  0  0  0  0  0
    2.2880   -0.5920   -1.4770 C   0  0  0  0  0  0
   -1.0920    0.3570   -4.4270 N   0  0  0  0  0  0
   -2.4030   -0.3120   -4.3810 C   0  0  2  0  0  0
   -2.8860   -0.6570   -5.7860 C   0  0  0  0  0  0
   -3.2100   -1.8120   -6.0680 O   0  0  0  0  0  0
   -3.4400    0.5930   -3.7100 C   0  0  0  0  0  0
   -3.3040    0.7460   -2.2000 C   0  0  0  0  0  0
   -4.0430    1.9880   -1.7200 C   0  0  0  0  0  0
   -3.8420   -0.4940   -1.5060 C   0  0  0  0  0  0
   -2.9240    0.3520   -6.6640 N   0  0  0  0  0  0
   -3.3550    0.1550   -8.0490 C   0  0  2  0  0  0
   -2.6380   -1.0430   -8.6660 C   0  0  0  0  0  0
   -3.2040   -1.7520   -9.5010 O   0  0  0  0  0  0
   -3.0900    1.4130   -8.8800 C   0  0  0  0  0  0
   -3.9810    2.5890   -8.5060 C   0  0  0  0  0  0
   -3.6110    3.8620   -9.2440 C   0  0  0  0  0  0
   -2.4830    4.3610   -9.0410 O   0  0  0  0  0  0
   -4.4480    4.3600  -10.0260 O   0  0  0  0  0  0
   -1.3950   -1.2740   -8.2280 N   0  0  0  0  0  0
   -0.6020   -2.3980   -8.7090 C   0  0  2  0  0  0
   -1.3690   -3.6970   -8.5620 C   0  0  0  0  0  0
   -1.5860   -4.4040   -9.5410 O   0  0  0  0  0  0
    0.7040   -2.5010   -7.9440 C   0  0  0  0  0  0
   -1.7720   -4.0050   -7.3250 N   0  0  0  0  0  0
   -2.5100   -5.2270   -7.0400 C   0  0  2  0  0  0
   -3.6070   -5.4680   -8.0680 C   0  0  0  0  0  0
   -3.6350   -6.5110   -8.7120 O   0  0  0  0  0  0
   -3.1170   -5.1920   -5.6500 C   0  0  0  0  0  0
   -4.5030   -4.4890   -8.2210 N   0  0  0  0  0  0
   -5.6040   -4.5890   -9.1820 C   0  0  2  0  0  0
   -5.0940   -5.0300  -10.5540 C   0  0  0  0  0  0
   -5.7820   -5.7500  -11.2780 O   0  0  0  0  0  0
   -6.3350   -3.2460   -9.3070 C   0  0  0  0  0  0
   -6.9600   -2.7910   -7.9990 C   0  0  0  0  0  0
   -6.2060   -2.5240   -7.0380 O   0  0  0  0  0  0
   -8.2040   -2.7030   -7.9370 O   0  0  0  0  0  0
   -3.8810   -4.5960  -10.8970 N   0  0  0  0  0  0
   -3.2650   -4.9430  -12.1720 C   0  0  2  0  0  0
   -2.6530   -6.3400  -12.1270 C   0  0  0  0  0  0
   -2.9130   -7.1590  -13.0110 O   0  0  0  0  0  0
   -2.2090   -3.8900  -12.5440 C   0  0  0  0  0  0
   -1.4950   -4.1360  -13.8590 C   0  0  0  0  0  0
   -0.6310   -5.2130  -14.0200 C   0  0  0  0  0  0
   -1.6820   -3.2800  -14.9380 C   0  0  0  0  0  0
    0.0260   -5.4290  -15.2170 C   0  0  0  0  0  0
   -1.0310   -3.4910  -16.1380 C   0  0  0  0  0  0
   -0.1780   -4.5660  -16.2720 C   0  0  0  0  0  0
    0.4760   -4.7780  -17.4650 O   0  0  0  0  0  0
   -1.8520   -6.6170  -11.0980 N   0  0  0  0  0  0
   -1.2280   -7.9350  -10.9660 C   0  0  2  0  0  0
   -2.2940   -9.0120  -10.7560 C   0  0  0  0  0  0
   -2.0890  -10.1700  -11.1240 O   0  0  0  0  0  0
   -0.2260   -8.0010   -9.8010 C   0  0  0  0  0  0
    0.2430   -6.6730   -9.2020 C   0  0  0  0  0  0
    1.1320   -6.9440   -8.0060 C   0  0  0  0  0  0
    0.9820   -5.8170  -10.2280 C   0  0  0  0  0  0
   -3.4310   -8.6260  -10.1550 N   0  0  0  0  0  0
   -4.5220   -9.5710   -9.8940 C   0  0  2  0  0  0
   -4.9310  -10.3270  -11.1590 C   0  0  0  0  0  0
   -5.0790  -11.5500  -11.1330 O   0  0  0  0  0  0
   -5.7330   -8.8510   -9.2920 C   0  0  0  0  0  0
   -5.5770   -8.5370   -7.8100 C   0  0  0  0  0  0
   -6.7110   -7.6890   -7.2640 C   0  0  0  0  0  0
   -7.8750   -8.1380   -7.3250 O   0  0  0  0  0  0
   -6.4320   -6.5760   -6.7690 O   0  0  0  0  0  0
   -5.1030   -9.6000  -12.2630 N   0  0  0  0  0  0
   -5.4840  -10.2170  -13.5340 C   0  0  2  0  0  0
   -4.3170  -11.0050  -14.1300 C   0  0  0  0  0  0
   -4.5560  -12.1240  -14.6310 O   0  0  0  0  0  0
   -5.9680   -9.1610  -14.5370 C   0  0  0  0  0  0
   -7.3190   -8.5440  -14.1930 C   0  0  0  0  0  0
   -7.2690   -7.7490  -12.8970 C   0  0  0  0  0  0
   -8.5460   -7.1020  -12.5920 N   0  0  0  0  0  0
   -9.6580   -7.7560  -12.2380 C   0  0  0  0  0  0
   -9.6510   -9.0790  -12.0970 N   0  0  0  0  0  0
  -10.7770   -7.0790  -12.0110 N   0  0  0  0  0  0
   -3.1740  -10.4970  -14.0920 O   0  0  0  0  0  0
   -1.2869   12.5088   -3.6915 H   0  0  0  0  0  0
   -0.7727   13.1313   -2.0868 H   0  0  0  0  0  0
   -1.6880   11.5899   -2.2011 H   0  0  0  0  0  0
    1.0694   12.1435   -3.2981 H   0  0  0  0  0  0
    0.0355   10.5543   -0.8694 H   0  0  0  0  0  0
    1.7117   10.4101   -1.4988 H   0  0  0  0  0  0
    1.8618   11.8719    0.3187 H   0  0  0  0  0  0
    1.8820   12.9439   -1.1225 H   0  0  0  0  0  0
   -0.4751   13.4829   -0.8022 H   0  0  0  0  0  0
   -0.5836   12.3259    0.5676 H   0  0  0  0  0  0
    0.3852   15.1308    0.6608 H   0  0  0  0  0  0
    0.8167   11.7610    2.0256 H   0  0  0  0  0  0
    1.5286   12.4540    3.6513 H   0  0  0  0  0  0
    1.2675   15.9127    2.5428 H   0  0  0  0  0  0
    2.1876   10.4113   -4.2523 H   0  0  0  0  0  0
    0.2012    8.6011   -5.6098 H   0  0  0  0  0  0
    2.1924    7.9163   -7.0299 H   0  0  0  0  0  0
    1.9153    9.6910   -7.0058 H   0  0  0  0  0  0
    3.7107    9.8294   -5.2254 H   0  0  0  0  0  0
    4.0742    8.1066   -5.5813 H   0  0  0  0  0  0
    5.0623    8.3626   -9.4211 H   0  0  0  0  0  0
    3.4047    8.1137   -8.7752 H   0  0  0  0  0  0
    4.7956    7.2493   -8.0369 H   0  0  0  0  0  0
    3.2853    8.2487   -3.7992 H   0  0  0  0  0  0
    3.9409    5.7783   -3.4697 H   0  0  0  0  0  0
    3.6297    5.8772   -0.8201 H   0  0  0  0  0  0
    4.5391    7.2050   -1.6180 H   0  0  0  0  0  0
    1.1019    7.3279   -2.2962 H   0  0  0  0  0  0
    0.6901    8.6208   -0.9586 H   0  0  0  0  0  0
    1.4400    5.8802   -0.9327 H   0  0  0  0  0  0
    0.9654    3.1546   -1.1970 H   0  0  0  0  0  0
   -1.5282    3.7485   -0.2829 H   0  0  0  0  0  0
   -0.1574    6.4021    0.2617 H   0  0  0  0  0  0
   -1.2553    6.1573   -1.1388 H   0  0  0  0  0  0
    0.3457    2.8571    1.0473 H   0  0  0  0  0  0
   -0.6244    4.0737    1.9448 H   0  0  0  0  0  0
    0.9721    4.5275    1.2577 H   0  0  0  0  0  0
   -2.4290    7.1337    0.7627 H   0  0  0  0  0  0
   -1.9560    5.7368    1.7881 H   0  0  0  0  0  0
   -3.0539    5.4919    0.3876 H   0  0  0  0  0  0
   -1.1676    5.7389   -2.6170 H   0  0  0  0  0  0
   -2.9735    3.8187   -3.7857 H   0  0  0  0  0  0
   -2.1904    6.6093   -4.8117 H   0  0  0  0  0  0
   -3.6510    5.6962   -5.3211 H   0  0  0  0  0  0
   -4.5221    5.7761   -3.0390 H   0  0  0  0  0  0
   -3.0425    6.6323   -2.4873 H   0  0  0  0  0  0
   -6.2565    6.9920   -3.2464 H   0  0  0  0  0  0
   -6.2038    8.8124   -3.8060 H   0  0  0  0  0  0
    0.1005    5.1646   -4.8270 H   0  0  0  0  0  0
    0.0363    4.2056   -7.5785 H   0  0  0  0  0  0
    1.7080    5.8363   -6.6755 H   0  0  0  0  0  0
    2.4042    4.5551   -5.6265 H   0  0  0  0  0  0
    3.0542    3.3008   -7.6814 H   0  0  0  0  0  0
    2.4739    4.6886   -8.6632 H   0  0  0  0  0  0
    6.0999    4.8033   -5.7724 H   0  0  0  0  0  0
    5.1735    3.3180   -6.1757 H   0  0  0  0  0  0
    4.4144    4.6081   -5.1827 H   0  0  0  0  0  0
    0.9806    2.7321   -4.4889 H   0  0  0  0  0  0
    1.8890    0.2122   -5.8605 H   0  0  0  0  0  0
    3.1112    0.6141   -3.9007 H   0  0  0  0  0  0
    1.6946    1.3009   -3.0356 H   0  0  0  0  0  0
    0.8257   -1.1017   -2.9565 H   0  0  0  0  0  0
    2.4000   -2.0320   -4.6089 H   0  0  0  0  0  0
    2.5475   -2.8377   -3.0102 H   0  0  0  0  0  0
    3.7724   -1.6279   -3.5227 H   0  0  0  0  0  0
    1.6796    0.2110   -1.0355 H   0  0  0  0  0  0
    3.3514   -0.3149   -1.4291 H   0  0  0  0  0  0
    2.1265   -1.5247   -0.9166 H   0  0  0  0  0  0
   -0.9630    1.3466   -3.9643 H   0  0  0  0  0  0
   -2.2467   -1.2313   -3.7975 H   0  0  0  0  0  0
   -3.3686    1.6069   -4.1306 H   0  0  0  0  0  0
   -4.4482    0.1916   -3.8899 H   0  0  0  0  0  0
   -2.2396    0.8597   -1.9469 H   0  0  0  0  0  0
   -3.6410    2.8747   -2.2321 H   0  0  0  0  0  0
   -3.9071    2.0987   -0.6341 H   0  0  0  0  0  0
   -5.1146    1.8877   -1.9471 H   0  0  0  0  0  0
   -3.2975   -1.3801   -1.8643 H   0  0  0  0  0  0
   -4.9127   -0.6053   -1.7322 H   0  0  0  0  0  0
   -3.7052   -0.3943   -0.4191 H   0  0  0  0  0  0
   -2.6197    1.3514   -6.3196 H   0  0  0  0  0  0
   -4.4362   -0.0417   -8.0008 H   0  0  0  0  0  0
   -2.0471    1.7330   -8.7384 H   0  0  0  0  0  0
   -3.2650    1.1935   -9.9436 H   0  0  0  0  0  0
   -5.0263    2.3494   -8.7508 H   0  0  0  0  0  0
   -3.8932    2.7872   -7.4276 H   0  0  0  0  0  0
   -2.1878    5.2836   -9.5623 H   0  0  0  0  0  0
   -0.9747   -0.5838   -7.4817 H   0  0  0  0  0  0
   -0.4084   -2.1861   -9.7709 H   0  0  0  0  0  0
    1.2647   -1.5603   -8.0475 H   0  0  0  0  0  0
    1.3018   -3.3307   -8.3492 H   0  0  0  0  0  0
    0.4924   -2.6866   -6.8806 H   0  0  0  0  0  0
   -1.5314   -3.3053   -6.5111 H   0  0  0  0  0  0
   -1.7532   -6.0230   -7.1003 H   0  0  0  0  0  0
   -2.3239   -5.0179   -4.9079 H   0  0  0  0  0  0
   -3.6102   -6.1528   -5.4410 H   0  0  0  0  0  0
   -3.8569   -4.3800   -5.5934 H   0  0  0  0  0  0
   -4.3960   -3.5881   -7.5989 H   0  0  0  0  0  0
   -6.2775   -5.3559   -8.7718 H   0  0  0  0  0  0
   -5.6241   -2.4700   -9.6272 H   0  0  0  0  0  0
   -7.1404   -3.3348  -10.0509 H   0  0  0  0  0  0
   -6.6326   -2.1924   -6.0798 H   0  0  0  0  0  0
   -3.3427   -3.9564  -10.1821 H   0  0  0  0  0  0
   -4.0822   -4.9453  -12.9084 H   0  0  0  0  0  0
   -2.6880   -2.9031  -12.6252 H   0  0  0  0  0  0
   -1.4329   -3.8579  -11.7651 H   0  0  0  0  0  0
   -0.4688   -5.8988  -13.1884 H   0  0  0  0  0  0
   -2.3537   -2.4277  -14.8356 H   0  0  0  0  0  0
    0.7017   -6.2773  -15.3258 H   0  0  0  0  0  0
   -1.1909   -2.8110  -16.9748 H   0  0  0  0  0  0
    1.1570   -5.6349  -17.5742 H   0  0  0  0  0  0
   -1.6621   -5.8404  -10.3424 H   0  0  0  0  0  0
   -0.6993   -8.0695  -11.9212 H   0  0  0  0  0  0
   -0.6729   -8.5577   -8.9641 H   0  0  0  0  0  0
    0.6898   -8.5115  -10.1335 H   0  0  0  0  0  0
   -0.6411   -6.1062   -8.8747 H   0  0  0  0  0  0
    0.5870   -7.5609   -7.2763 H   0  0  0  0  0  0
    1.4185   -5.9904   -7.5386 H   0  0  0  0  0  0
    2.0361   -7.4776   -8.3346 H   0  0  0  0  0  0
    0.3249   -5.6286  -11.0898 H   0  0  0  0  0  0
    1.8855   -6.3465  -10.5646 H   0  0  0  0  0  0
    1.2680   -4.8593   -9.7686 H   0  0  0  0  0  0
   -3.5329   -7.5722   -9.8565 H   0  0  0  0  0  0
   -4.1063  -10.2852   -9.1680 H   0  0  0  0  0  0
   -5.8902   -7.8969   -9.8163 H   0  0  0  0  0  0
   -6.6272   -9.4820   -9.4029 H   0  0  0  0  0  0
   -5.5542   -9.4756   -7.2368 H   0  0  0  0  0  0
   -4.6387   -7.9860   -7.6487 H   0  0  0  0  0  0
   -7.2316   -5.9378   -6.3648 H   0  0  0  0  0  0
   -4.9518   -8.5121  -12.2032 H   0  0  0  0  0  0
   -6.3069  -10.9015  -13.2803 H   0  0  0  0  0  0
   -5.2399   -8.3377  -14.5826 H   0  0  0  0  0  0
   -6.0667   -9.6187  -15.5324 H   0  0  0  0  0  0
   -7.6282   -7.8646  -15.0010 H   0  0  0  0  0  0
   -8.0678   -9.3416  -14.0780 H   0  0  0  0  0  0
   -7.0208   -8.4222  -12.0632 H   0  0  0  0  0  0
   -6.5010   -6.9656  -12.9768 H   0  0  0  0  0  0
   -8.6348   -6.0070  -12.6471 H   0  0  0  0  0  0
   -8.7277   -9.6471  -12.2833 H   0  0  0  0  0  0
  -10.5686   -9.6047  -11.7941 H   0  0  0  0  0  0
  -10.7908   -5.9851  -12.1254 H   0  0  0  0  0  0
   -2.3159  -11.0413  -14.5132 H   0  0  0  0  0  0
  1  2  1  0  0  0
  1137  1  0  0  0
  1138  1  0  0  0
  1139  1  0  0  0
  2  3  1  0  0  0
  2  5  1  0  0  0
  2140  1  0  0  0
  3  4  2  0  0  0
  3 12  1  0  0  0
  5  6  1  0  0  0
  5141  1  0  0  0
  5142  1  0  0  0
  6  7  1  0  0  0
  6143  1  0  0  0
  6144  1  0  0  0
  7  8  1  0  0  0
  7145  1  0  0  0
  7146  1  0  0  0
  8  9  1  0  0  0
  8147  1  0  0  0
  9 10  1  0  0  0
  9 11  2  0  0  0
 10148  1  0  0  0
 10149  1  0  0  0
 11150  1  0  0  0
 12 13  1  0  0  0
 12151  1  0  0  0
 13 14  1  0  0  0
 13 16  1  0  0  0
 13152  1  0  0  0
 14 15  2  0  0  0
 14 20  1  0  0  0
 16 17  1  0  0  0
 16153  1  0  0  0
 16154  1  0  0  0
 17 18  1  0  0  0
 17155  1  0  0  0
 17156  1  0  0  0
 18 19  1  0  0  0
 19157  1  0  0  0
 19158  1  0  0  0
 19159  1  0  0  0
 20 21  1  0  0  0
 20160  1  0  0  0
 21 22  1  0  0  0
 21 24  1  0  0  0
 21161  1  0  0  0
 22 23  2  0  0  0
 22 28  1  0  0  0
 24 25  1  0  0  0
 24162  1  0  0  0
 24163  1  0  0  0
 25 26  2  0  0  0
 25 27  1  0  0  0
 27164  1  0  0  0
 27165  1  0  0  0
 28 29  1  0  0  0
 28166  1  0  0  0
 29 30  1  0  0  0
 29 32  1  0  0  0
 29167  1  0  0  0
 30 31  2  0  0  0
 30 36  1  0  0  0
 32 33  1  0  0  0
 32 34  1  0  0  0
 32168  1  0  0  0
 33 35  1  0  0  0
 33169  1  0  0  0
 33170  1  0  0  0
 34171  1  0  0  0
 34172  1  0  0  0
 34173  1  0  0  0
 35174  1  0  0  0
 35175  1  0  0  0
 35176  1  0  0  0
 36 37  1  0  0  0
 36177  1  0  0  0
 37 38  1  0  0  0
 37 40  1  0  0  0
 37178  1  0  0  0
 38 39  2  0  0  0
 38 45  1  0  0  0
 40 41  1  0  0  0
 40179  1  0  0  0
 40180  1  0  0  0
 41 42  1  0  0  0
 41181  1  0  0  0
 41182  1  0  0  0
 42 43  2  0  0  0
 42 44  1  0  0  0
 44183  1  0  0  0
 44184  1  0  0  0
 45 46  1  0  0  0
 45185  1  0  0  0
 46 47  1  0  0  0
 46 49  1  0  0  0
 46186  1  0  0  0
 47 48  2  0  0  0
 47 53  1  0  0  0
 49 50  1  0  0  0
 49187  1  0  0  0
 49188  1  0  0  0
 50 51  1  0  0  0
 50189  1  0  0  0
 50190  1  0  0  0
 51 52  1  0  0  0
 52191  1  0  0  0
 52192  1  0  0  0
 52193  1  0  0  0
 53 54  1  0  0  0
 53194  1  0  0  0
 54 55  1  0  0  0
 54 57  1  0  0  0
 54195  1  0  0  0
 55 56  2  0  0  0
 55 61  1  0  0  0
 57 58  1  0  0  0
 57196  1  0  0  0
 57197  1  0  0  0
 58 59  1  0  0  0
 58 60  1  0  0  0
 58198  1  0  0  0
 59199  1  0  0  0
 59200  1  0  0  0
 59201  1  0  0  0
 60202  1  0  0  0
 60203  1  0  0  0
 60204  1  0  0  0
 61 62  1  0  0  0
 61205  1  0  0  0
 62 63  1  0  0  0
 62 65  1  0  0  0
 62206  1  0  0  0
 63 64  2  0  0  0
 63 69  1  0  0  0
 65 66  1  0  0  0
 65207  1  0  0  0
 65208  1  0  0  0
 66 67  1  0  0  0
 66 68  1  0  0  0
 66209  1  0  0  0
 67210  1  0  0  0
 67211  1  0  0  0
 67212  1  0  0  0
 68213  1  0  0  0
 68214  1  0  0  0
 68215  1  0  0  0
 69 70  1  0  0  0
 69216  1  0  0  0
 70 71  1  0  0  0
 70 73  1  0  0  0
 70217  1  0  0  0
 71 72  2  0  0  0
 71 78  1  0  0  0
 73 74  1  0  0  0
 73218  1  0  0  0
 73219  1  0  0  0
 74 75  1  0  0  0
 74220  1  0  0  0
 74221  1  0  0  0
 75 76  1  0  0  0
 75 77  2  0  0  0
 76222  1  0  0  0
 78 79  1  0  0  0
 78223  1  0  0  0
 79 80  1  0  0  0
 79 82  1  0  0  0
 79224  1  0  0  0
 80 81  2  0  0  0
 80 83  1  0  0  0
 82225  1  0  0  0
 82226  1  0  0  0
 82227  1  0  0  0
 83 84  1  0  0  0
 83228  1  0  0  0
 84 85  1  0  0  0
 84 87  1  0  0  0
 84229  1  0  0  0
 85 86  2  0  0  0
 85 88  1  0  0  0
 87230  1  0  0  0
 87231  1  0  0  0
 87232  1  0  0  0
 88 89  1  0  0  0
 88233  1  0  0  0
 89 90  1  0  0  0
 89 92  1  0  0  0
 89234  1  0  0  0
 90 91  2  0  0  0
 90 96  1  0  0  0
 92 93  1  0  0  0
 92235  1  0  0  0
 92236  1  0  0  0
 93 94  1  0  0  0
 93 95  2  0  0  0
 94237  1  0  0  0
 96 97  1  0  0  0
 96238  1  0  0  0
 97 98  1  0  0  0
 97100  1  0  0  0
 97239  1  0  0  0
 98 99  2  0  0  0
 98108  1  0  0  0
100101  1  0  0  0
100240  1  0  0  0
100241  1  0  0  0
101102  2  0  0  0
101103  1  0  0  0
102104  1  0  0  0
102242  1  0  0  0
103105  2  0  0  0
103243  1  0  0  0
104106  2  0  0  0
104244  1  0  0  0
105106  1  0  0  0
105245  1  0  0  0
106107  1  0  0  0
107246  1  0  0  0
108109  1  0  0  0
108247  1  0  0  0
109110  1  0  0  0
109112  1  0  0  0
109248  1  0  0  0
110111  2  0  0  0
110116  1  0  0  0
112113  1  0  0  0
112249  1  0  0  0
112250  1  0  0  0
113114  1  0  0  0
113115  1  0  0  0
113251  1  0  0  0
114252  1  0  0  0
114253  1  0  0  0
114254  1  0  0  0
115255  1  0  0  0
115256  1  0  0  0
115257  1  0  0  0
116117  1  0  0  0
116258  1  0  0  0
117118  1  0  0  0
117120  1  0  0  0
117259  1  0  0  0
118119  2  0  0  0
118125  1  0  0  0
120121  1  0  0  0
120260  1  0  0  0
120261  1  0  0  0
121122  1  0  0  0
121262  1  0  0  0
121263  1  0  0  0
122123  2  0  0  0
122124  1  0  0  0
124264  1  0  0  0
125126  1  0  0  0
125265  1  0  0  0
126127  1  0  0  0
126129  1  0  0  0
126266  1  0  0  0
127128  2  0  0  0
127136  1  0  0  0
129130  1  0  0  0
129267  1  0  0  0
129268  1  0  0  0
130131  1  0  0  0
130269  1  0  0  0
130270  1  0  0  0
131132  1  0  0  0
131271  1  0  0  0
131272  1  0  0  0
132133  1  0  0  0
132273  1  0  0  0
133134  1  0  0  0
133135  2  0  0  0
134274  1  0  0  0
134275  1  0  0  0
135276  1  0  0  0
136277  1  0  0  0
M  CHG  1   1   1
M  END
> <s_m_source_file>
../1g1e_ligand.sdf

> <i_m_source_file_index>
1

> <s_epik_input>
W0hdL049QyhbTkgyXSlcW05IXVtDSDJdW0NIMl1bQ0gyXVtDQEhdKFtOSDMrXSlDKD1PKVtOSF1bQ0BASF0oW0NIMl1bQ0gyXVNbQ0gzXSlDKD1PKVtOSF1bQ0BASF0oW0NIMl1DKD1PKVtOSDJdKUMoPU8pW05IXVtDQEBIXShbQ0BASF0oW0NIM10pW0NIMl1bQ0gzXSlDKD1PKVtOSF1bQ0BASF0oW0NIMl1bQ0gyXUMoPU8pW05IMl0pQyg9TylbTkhdW0NAQEhdKFtDSDJdW0NIMl1TW0NIM10pQyg9TylbTkhdW0NAQEhdKFtDSDJdW0NIXShbQ0gzXSlbQ0gzXSlDKD1PKVtOSF1bQ0BASF0oW0NIMl1bQ0hdKFtDSDNdKVtDSDNdKUMoPU8pW05IXVtDQEBIXShbQ0gyXVtDSDJdQyg9TylbT0hdKUMoPU8pW05IXVtDQEBIXShbQ0gzXSlDKD1PKVtOSF1bQ0BASF0oW0NIM10pQyg9TylbTkhdW0NAQEhdKFtDSDJdQyg9TylbT0hdKUMoPU8pW05IXVtDQEBIXShbQ0gyXWMxW2NIXVtjSF1jKFtPSF0pW2NIXVtjSF0xKUMoPU8pW05IXVtDQEBIXShbQ0gyXVtDSF0oW0NIM10pW0NIM10pQyg9TylbTkhdW0NAQEhdKFtDSDJdW0NIMl1DKD1PKVtPSF0pQyg9TylbTkhdW0NASF0oQyg9TylbT0hdKVtDSDJdW0NIMl1bQ0gyXVtOSF0vQyhbTkgyXSk9TlxbSF0=

> <s_epik_cmdline>
J2VwaWtfYXBwJywgJy1pbWFlJywgJ2xpZ2FuZF9wcm8ubWFlJywgJy1vbWFlJywgJ2xpZ2FuZF9wcmVwLm1hZScsICctbXMnLCAnMScsICctcGgnLCAnNycsICctcGh0JywgJzAuNScsICctbnQn

> <s_epik_pKa_notes>
Molecule size exceeds maximum supported for generating protonation states

> <s_epik_Chemistry_Notes>
This compound has an imine and may undergo hydrolysis.

$$$$
