1g27_ligand
                    3D
 Schrodinger Suite 2020-3.
 54 53  0  0  1  0            999 V2000
   42.9860    4.0800   14.1010 C   0  0  0  0  0  0
   44.0920    5.1250   14.0770 C   0  0  2  0  0  0
   44.0940    5.8880   12.7890 C   0  0  0  0  0  0
   44.0530    5.2760   11.7210 O   0  0  0  0  0  0
   44.2840    7.2150   12.8890 N   0  0  0  0  0  0
   44.4560    8.0710   11.7520 C   0  0  2  0  0  0
   45.5030    4.5930   14.4520 C   0  0  0  0  0  0
   46.5220    5.7790   14.6060 C   0  0  0  0  0  0
   47.9740    5.2550   14.5220 C   0  0  0  0  0  0
   48.9550    6.2160   15.1830 C   0  0  0  0  0  0
   42.7730    3.5910   15.4500 N   0  0  0  0  0  0
   43.4050    2.5010   15.8730 C   0  0  0  0  0  0
   43.3330    2.1390   17.0500 O   0  0  0  0  0  0
   42.1440    4.2460   16.4290 O   0  0  0  0  0  0
   45.6780    8.9080   12.0840 C   0  0  0  0  0  0
   46.7860    9.0540   11.3330 N   0  0  0  0  0  0
   47.8470    9.9050   11.8650 C   0  0  0  0  0  0
   46.9300    8.4250   10.0290 C   0  0  0  0  0  0
   45.6300    9.4560   13.1870 O   0  0  0  0  0  0
   43.2340    8.8990   11.3480 C   0  0  0  0  0  0
   43.5900    9.7580   10.1250 C   0  0  0  0  0  0
   42.7770    9.8300   12.4930 C   0  0  0  0  0  0
   42.0820    7.9600   10.9920 C   0  0  0  0  0  0
   43.2737    3.2424   13.4485 H   0  0  0  0  0  0
   42.0579    4.5355   13.7253 H   0  0  0  0  0  0
   43.8205    5.8449   14.8632 H   0  0  0  0  0  0
   44.3041    7.6382   13.9041 H   0  0  0  0  0  0
   44.5963    7.4111   10.8832 H   0  0  0  0  0  0
   45.4474    4.0465   15.4050 H   0  0  0  0  0  0
   45.8618    3.9168   13.6620 H   0  0  0  0  0  0
   46.3576    6.5105   13.8011 H   0  0  0  0  0  0
   46.3726    6.2666   15.5806 H   0  0  0  0  0  0
   48.0430    4.2827   15.0317 H   0  0  0  0  0  0
   48.2607    5.1369   13.4666 H   0  0  0  0  0  0
   49.9747    5.8110   15.1038 H   0  0  0  0  0  0
   48.6903    6.3381   16.2437 H   0  0  0  0  0  0
   48.9080    7.1924   14.6786 H   0  0  0  0  0  0
   43.9997    1.9186   15.1539 H   0  0  0  0  0  0
   41.5841    5.1657   16.2041 H   0  0  0  0  0  0
   47.5517   10.2837   12.8547 H   0  0  0  0  0  0
   48.0142   10.7519   11.1833 H   0  0  0  0  0  0
   48.7741    9.3203   11.9577 H   0  0  0  0  0  0
   46.0322    7.8290    9.8083 H   0  0  0  0  0  0
   47.8133    7.7694   10.0337 H   0  0  0  0  0  0
   47.0534    9.2010    9.2592 H   0  0  0  0  0  0
   43.9173    9.1060    9.3018 H   0  0  0  0  0  0
   44.4019   10.4520   10.3882 H   0  0  0  0  0  0
   42.7056   10.3310    9.8095 H   0  0  0  0  0  0
   42.5189    9.2263   13.3756 H   0  0  0  0  0  0
   41.8952   10.4028   12.1700 H   0  0  0  0  0  0
   43.5915   10.5238   12.7487 H   0  0  0  0  0  0
   41.8267    7.3447   11.8673 H   0  0  0  0  0  0
   42.3850    7.3068   10.1604 H   0  0  0  0  0  0
   41.2052    8.5527   10.6920 H   0  0  0  0  0  0
  1 11  1  0  0  0
  1  2  1  0  0  0
  1 24  1  0  0  0
  1 25  1  0  0  0
  2  7  1  0  0  0
  2  3  1  0  0  0
  2 26  1  0  0  0
  3  5  1  0  0  0
  3  4  2  0  0  0
  5  6  1  0  0  0
  5 27  1  0  0  0
  6 20  1  0  0  0
  6 15  1  0  0  0
  6 28  1  0  0  0
  7  8  1  0  0  0
  7 29  1  0  0  0
  7 30  1  0  0  0
  8  9  1  0  0  0
  8 31  1  0  0  0
  8 32  1  0  0  0
  9 10  1  0  0  0
  9 33  1  0  0  0
  9 34  1  0  0  0
 10 35  1  0  0  0
 10 36  1  0  0  0
 10 37  1  0  0  0
 11 14  1  0  0  0
 11 12  1  0  0  0
 12 13  2  0  0  0
 12 38  1  0  0  0
 14 39  1  0  0  0
 15 19  2  0  0  0
 15 16  1  0  0  0
 16 18  1  0  0  0
 16 17  1  0  0  0
 17 40  1  0  0  0
 17 41  1  0  0  0
 17 42  1  0  0  0
 18 43  1  0  0  0
 18 44  1  0  0  0
 18 45  1  0  0  0
 20 23  1  0  0  0
 20 22  1  0  0  0
 20 21  1  0  0  0
 21 46  1  0  0  0
 21 47  1  0  0  0
 21 48  1  0  0  0
 22 49  1  0  0  0
 22 50  1  0  0  0
 22 51  1  0  0  0
 23 52  1  0  0  0
 23 53  1  0  0  0
 23 54  1  0  0  0
M  END
> <s_m_source_file>
../1g27_ligand.sdf

> <i_m_source_file_index>
1

> <s_epik_input>
W0NIM11bQ0gyXVtDSDJdW0NIMl1bQ0BIXShbQ0gyXU4oW0NIXT1PKVtPSF0pQyg9TylbTkhdW0NAQEhdKEMoW0NIM10pKFtDSDNdKVtDSDNdKUMoPU8pTihbQ0gzXSlbQ0gzXQ==

> <s_epik_cmdline>
J2VwaWtfYXBwJywgJy1pbWFlJywgJ2xpZ2FuZF9wcm8ubWFlJywgJy1vbWFlJywgJ2xpZ2FuZF9wcmVwLm1hZScsICctbXMnLCAnMScsICctcGgnLCAnNycsICctcGh0JywgJzAuNScsICctbnQn

> <r_lp_tautomer_probability>
1

> <r_epik_Ionization_Penalty>
  0.0060

> <r_epik_Ionization_Penalty_Charging>
  0.0000

> <r_epik_Ionization_Penalty_Neutral>
  0.0060

> <r_epik_State_Penalty>
 -0.0000

> <r_epik_Charging_Adjusted_Penalty>
0

> <i_epik_Tot_Q>
0

> <i_epik_Tot_abs_Q>
0

> <s_epik_Chemistry_Notes>
This compound has a N-S or N-O group and may undergo hydrolysis at high or low pH.

$$$$
