1g2a_ligand
                    3D
 Schrodinger Suite 2020-3.
 62 62  0  0  1  0            999 V2000
   42.4640    3.5630   14.5930 C   0  0  0  0  0  0
   42.2320    3.0330   16.0140 C   0  0  0  0  0  0
   41.2580    3.5170   16.6180 O   0  0  0  0  0  0
   42.8500    1.9350   16.4260 N   0  0  0  0  0  0
   42.7700    1.4900   17.5700 O   0  0  0  0  0  0
   43.3060    4.8970   14.6740 C   0  0  2  0  0  0
   43.4070    5.6930   13.3660 C   0  0  0  0  0  0
   43.2940    5.1690   12.2660 O   0  0  0  0  0  0
   44.7560    4.3510   14.9070 C   0  0  0  0  0  0
   45.7250    5.5210   15.1510 C   0  0  0  0  0  0
   47.1440    5.0270   15.4050 C   0  0  0  0  0  0
   48.0630    6.1120   15.9640 C   0  0  0  0  0  0
   48.2490    7.2670   15.0410 C   0  0  0  0  0  0
   43.3670    7.0010   13.5050 N   0  0  0  0  0  0
   43.6770    7.9330   12.4360 C   0  0  1  0  0  0
   42.4910    8.8180   12.0470 C   0  0  0  0  0  0
   41.8520    9.4370   13.2720 C   0  0  0  0  0  0
   41.4970    7.9190   11.3110 C   0  0  0  0  0  0
   44.8490    8.7940   12.9120 C   0  0  0  0  0  0
   44.9400    9.1160   14.0910 O   0  0  0  0  0  0
   45.7120    9.1780   11.9970 N   0  0  0  0  0  0
   46.8910    9.9700   12.3090 C   0  0  1  0  0  0
   45.6620    8.7700   10.5660 C   0  0  0  0  0  0
   46.8650    9.4690    9.9800 C   0  0  0  0  0  0
   47.8080    9.6480   11.1280 C   0  0  0  0  0  0
   46.6350   11.4650   12.4260 C   0  0  0  0  0  0
   47.5670   12.1760   12.9050 O   0  0  0  0  0  0
   41.4969    3.7686   14.1109 H   0  0  0  0  0  0
   43.0161    2.8161   14.0036 H   0  0  0  0  0  0
   43.4628    1.4148   15.6751 H   0  0  0  0  0  0
   43.3113    0.5719   17.8421 H   0  0  0  0  0  0
   42.8568    5.5838   15.4064 H   0  0  0  0  0  0
   44.7613    3.6873   15.7842 H   0  0  0  0  0  0
   45.0831    3.7888   14.0199 H   0  0  0  0  0  0
   45.7375    6.1769   14.2681 H   0  0  0  0  0  0
   45.3936    6.0946   16.0292 H   0  0  0  0  0  0
   47.1204    4.2020   16.1323 H   0  0  0  0  0  0
   47.5829    4.6713   14.4612 H   0  0  0  0  0  0
   47.6400    6.5039   16.9008 H   0  0  0  0  0  0
   49.0572    5.6847   16.1612 H   0  0  0  0  0  0
   48.9187    8.0047   15.5071 H   0  0  0  0  0  0
   47.2742    7.7341   14.8371 H   0  0  0  0  0  0
   48.6914    6.9148   14.0975 H   0  0  0  0  0  0
   43.0795    7.3783   14.4975 H   0  0  0  0  0  0
   43.9227    7.3157   11.5593 H   0  0  0  0  0  0
   42.8133    9.6579   11.4140 H   0  0  0  0  0  0
   42.5850   10.0780   13.7836 H   0  0  0  0  0  0
   41.5214    8.6407   13.9551 H   0  0  0  0  0  0
   40.9853   10.0420   12.9673 H   0  0  0  0  0  0
   41.9834    7.4817   10.4266 H   0  0  0  0  0  0
   40.6283    8.5150   10.9946 H   0  0  0  0  0  0
   41.1643    7.1136   11.9823 H   0  0  0  0  0  0
   47.2662    9.6941   13.3056 H   0  0  0  0  0  0
   45.7298    7.6744   10.4945 H   0  0  0  0  0  0
   44.7147    9.1085   10.1211 H   0  0  0  0  0  0
   47.3035    8.8430    9.1889 H   0  0  0  0  0  0
   46.5564   10.4352    9.5543 H   0  0  0  0  0  0
   48.5052   10.4834   10.9667 H   0  0  0  0  0  0
   48.3773    8.7321   11.3448 H   0  0  0  0  0  0
   46.4311   11.8813   11.4284 H   0  0  0  0  0  0
   45.7676   11.6384   13.0799 H   0  0  0  0  0  0
   47.4313   13.2625   13.0103 H   0  0  0  0  0  0
  1  6  1  0  0  0
  1  2  1  0  0  0
  1 28  1  0  0  0
  1 29  1  0  0  0
  2  4  1  0  0  0
  2  3  2  0  0  0
  4  5  1  0  0  0
  4 30  1  0  0  0
  5 31  1  0  0  0
  6  9  1  0  0  0
  6  7  1  0  0  0
  6 32  1  0  0  0
  7 14  1  0  0  0
  7  8  2  0  0  0
  9 10  1  0  0  0
  9 33  1  0  0  0
  9 34  1  0  0  0
 10 11  1  0  0  0
 10 35  1  0  0  0
 10 36  1  0  0  0
 11 12  1  0  0  0
 11 37  1  0  0  0
 11 38  1  0  0  0
 12 13  1  0  0  0
 12 39  1  0  0  0
 12 40  1  0  0  0
 13 41  1  0  0  0
 13 42  1  0  0  0
 13 43  1  0  0  0
 14 15  1  0  0  0
 14 44  1  0  0  0
 15 19  1  0  0  0
 15 16  1  0  0  0
 15 45  1  0  0  0
 16 18  1  0  0  0
 16 17  1  0  0  0
 16 46  1  0  0  0
 17 47  1  0  0  0
 17 48  1  0  0  0
 17 49  1  0  0  0
 18 50  1  0  0  0
 18 51  1  0  0  0
 18 52  1  0  0  0
 19 21  1  0  0  0
 19 20  2  0  0  0
 21 23  1  0  0  0
 21 22  1  0  0  0
 22 26  1  0  0  0
 22 25  1  0  0  0
 22 53  1  0  0  0
 23 24  1  0  0  0
 23 54  1  0  0  0
 23 55  1  0  0  0
 24 25  1  0  0  0
 24 56  1  0  0  0
 24 57  1  0  0  0
 25 58  1  0  0  0
 25 59  1  0  0  0
 26 27  1  0  0  0
 26 60  1  0  0  0
 26 61  1  0  0  0
 27 62  1  0  0  0
M  END
> <s_m_source_file>
../1g2a_ligand.sdf

> <i_m_source_file_index>
1

> <s_epik_input>
W0NIM11bQ0gyXVtDSDJdW0NIMl1bQ0gyXVtDQEhdKFtDSDJdQyg9TylbTkhdW09IXSlDKD1PKVtOSF1bQ0BASF0oW0NIXShbQ0gzXSlbQ0gzXSlDKD1PKU4xW0NASF0oW0NIMl1bT0hdKVtDSDJdW0NIMl1bQ0gyXTE=

> <s_epik_cmdline>
J2VwaWtfYXBwJywgJy1pbWFlJywgJ2xpZ2FuZF9wcm8ubWFlJywgJy1vbWFlJywgJ2xpZ2FuZF9wcmVwLm1hZScsICctbXMnLCAnMScsICctcGgnLCAnNycsICctcGh0JywgJzAuNScsICctbnQn

> <r_lp_tautomer_probability>
1

> <r_epik_Ionization_Penalty>
  0.0055

> <r_epik_Ionization_Penalty_Charging>
  0.0000

> <r_epik_Ionization_Penalty_Neutral>
  0.0055

> <r_epik_State_Penalty>
 -0.0000

> <r_epik_Charging_Adjusted_Penalty>
0

> <i_epik_Tot_Q>
0

> <i_epik_Tot_abs_Q>
0

> <s_epik_Chemistry_Notes>
This compound has a N-S or N-O group and may undergo hydrolysis at high or low pH.

$$$$
