1g2k_ligand
                    3D
 Schrodinger Suite 2020-3.
 82 86  0  0  1  0            999 V2000
   11.3490   23.7090    5.9420 N   0  0  1  0  0  0
   11.8060   22.2030    6.4460 S   0  0  0  0  0  0
   13.4310   22.2920    6.2150 N   0  0  1  0  0  0
   13.8510   22.2230    4.7960 C   0  0  1  0  0  0
   14.0220   23.6050    4.1440 C   0  0  1  0  0  0
   13.0480   24.6790    4.6150 C   0  0  2  0  0  0
   11.5560   24.3030    4.6100 C   0  0  1  0  0  0
   10.1700   24.1890    6.5190 C   0  0  0  0  0  0
    9.8920   25.4570    7.2180 C   0  0  0  0  0  0
    8.8250   26.2930    6.8150 C   0  0  0  0  0  0
    8.6000   27.5210    7.4900 C   0  0  0  0  0  0
    9.4560   27.9140    8.5820 C   0  0  0  0  0  0
   10.5270   27.0760    8.9870 C   0  0  0  0  0  0
   10.7450   25.8490    8.3020 C   0  0  0  0  0  0
   11.2360   21.1560    5.5990 O   0  0  0  0  0  0
   14.8540   20.3500    3.5600 O   0  0  0  0  0  0
   15.8640   19.4590    3.2220 C   0  0  0  0  0  0
   16.8400   19.0170    4.1900 C   0  0  0  0  0  0
   17.8750   18.0980    3.8300 C   0  0  0  0  0  0
   17.9430   17.6050    2.4890 C   0  0  0  0  0  0
   16.9850   18.0300    1.5170 C   0  0  0  0  0  0
   15.9540   18.9530    1.8850 C   0  0  0  0  0  0
   14.2710   22.8980    7.3060 C   0  0  0  0  0  0
   15.2130   22.0330    8.1100 C   0  0  0  0  0  0
   14.6980   21.1220    9.0830 C   0  0  0  0  0  0
   15.5880   20.2940    9.8420 C   0  0  0  0  0  0
   17.0050   20.3790    9.6260 C   0  0  0  0  0  0
   17.5310   21.2940    8.6530 C   0  0  0  0  0  0
   16.6340   22.1150    7.9010 C   0  0  0  0  0  0
   15.3200   24.1020    4.3950 O   0  0  0  0  0  0
   13.2740   25.8320    3.8140 O   0  0  0  0  0  0
   10.9130   23.4660    3.4700 C   0  0  0  0  0  0
    9.4720   23.5050    3.6580 O   0  0  0  0  0  0
    8.6610   24.4010    3.0030 C   0  0  0  0  0  0
    9.1160   25.7120    2.6050 C   0  0  0  0  0  0
    8.2440   26.6180    1.9330 C   0  0  0  0  0  0
    6.9000   26.2300    1.6530 C   0  0  0  0  0  0
    6.4320   24.9430    2.0370 C   0  0  0  0  0  0
    7.3130   24.0330    2.7070 C   0  0  0  0  0  0
   11.5840   22.1020    7.8880 O   0  0  0  0  0  0
   15.0820   21.3320    4.6000 C   0  0  0  0  0  0
    7.4870   28.4170    7.0500 C   0  0  0  0  0  0
    7.6600   29.6620    7.0840 O   0  0  0  0  0  0
    6.2900   27.8680    6.6330 N   0  0  0  0  0  0
    5.2360   28.7840    6.2470 C   0  0  0  0  0  0
   12.9981   21.7366    4.3001 H   0  0  0  0  0  0
   13.9014   23.4560    3.0608 H   0  0  0  0  0  0
   13.2871   24.9222    5.6608 H   0  0  0  0  0  0
   10.9913   25.2310    4.4367 H   0  0  0  0  0  0
    9.3878   24.2611    5.7489 H   0  0  0  0  0  0
    9.8423   23.4996    7.3110 H   0  0  0  0  0  0
    8.1782   25.9956    5.9896 H   0  0  0  0  0  0
    9.2797   28.8578    9.0979 H   0  0  0  0  0  0
   11.1748   27.3692    9.8131 H   0  0  0  0  0  0
   11.5677   25.2008    8.6036 H   0  0  0  0  0  0
   16.7870   19.3902    5.2127 H   0  0  0  0  0  0
   18.6061   17.7759    4.5715 H   0  0  0  0  0  0
   18.7279   16.9030    2.2074 H   0  0  0  0  0  0
   17.0393   17.6517    0.4962 H   0  0  0  0  0  0
   15.2283   19.2747    1.1381 H   0  0  0  0  0  0
   14.9248   23.6723    6.8781 H   0  0  0  0  0  0
   13.6157   23.3500    8.0651 H   0  0  0  0  0  0
   13.6227   21.0565    9.2488 H   0  0  0  0  0  0
   15.1897   19.6004   10.5825 H   0  0  0  0  0  0
   17.6821   19.7479   10.2016 H   0  0  0  0  0  0
   18.6064   21.3624    8.4887 H   0  0  0  0  0  0
   17.0310   22.8104    7.1615 H   0  0  0  0  0  0
   16.2006   23.4961    4.1355 H   0  0  0  0  0  0
   14.2910   26.2375    3.7083 H   0  0  0  0  0  0
   11.1854   23.9012    2.4972 H   0  0  0  0  0  0
   11.2796   22.4303    3.5239 H   0  0  0  0  0  0
   10.1409   26.0135    2.8213 H   0  0  0  0  0  0
    8.6027   27.6030    1.6344 H   0  0  0  0  0  0
    6.2297   26.9220    1.1432 H   0  0  0  0  0  0
    5.4046   24.6493    1.8219 H   0  0  0  0  0  0
    6.9495   23.0465    2.9947 H   0  0  0  0  0  0
   15.9430   21.9540    4.3141 H   0  0  0  0  0  0
   15.3062   20.8047    5.5390 H   0  0  0  0  0  0
    6.1193   26.7823    6.5871 H   0  0  0  0  0  0
    4.3478   28.2124    5.9398 H   0  0  0  0  0  0
    5.5801   29.4061    5.4076 H   0  0  0  0  0  0
    4.9799   29.4289    7.1005 H   0  0  0  0  0  0
  1  8  1  0  0  0
  1  7  1  0  0  0
  1  2  1  0  0  0
  2 40  2  0  0  0
  2 15  2  0  0  0
  2  3  1  0  0  0
  3 23  1  0  0  0
  3  4  1  0  0  0
  4 41  1  0  0  0
  4  5  1  0  0  0
  4 46  1  0  0  0
  5 30  1  0  0  0
  5  6  1  0  0  0
  5 47  1  0  0  0
  6 31  1  0  0  0
  6  7  1  0  0  0
  6 48  1  0  0  0
  7 32  1  0  0  0
  7 49  1  0  0  0
  8  9  1  0  0  0
  8 50  1  0  0  0
  8 51  1  0  0  0
  9 14  2  0  0  0
  9 10  1  0  0  0
 10 11  2  0  0  0
 10 52  1  0  0  0
 11 42  1  0  0  0
 11 12  1  0  0  0
 12 13  2  0  0  0
 12 53  1  0  0  0
 13 14  1  0  0  0
 13 54  1  0  0  0
 14 55  1  0  0  0
 16 41  1  0  0  0
 16 17  1  0  0  0
 17 22  2  0  0  0
 17 18  1  0  0  0
 18 19  2  0  0  0
 18 56  1  0  0  0
 19 20  1  0  0  0
 19 57  1  0  0  0
 20 21  2  0  0  0
 20 58  1  0  0  0
 21 22  1  0  0  0
 21 59  1  0  0  0
 22 60  1  0  0  0
 23 24  1  0  0  0
 23 61  1  0  0  0
 23 62  1  0  0  0
 24 29  2  0  0  0
 24 25  1  0  0  0
 25 26  2  0  0  0
 25 63  1  0  0  0
 26 27  1  0  0  0
 26 64  1  0  0  0
 27 28  2  0  0  0
 27 65  1  0  0  0
 28 29  1  0  0  0
 28 66  1  0  0  0
 29 67  1  0  0  0
 30 68  1  0  0  0
 31 69  1  0  0  0
 32 33  1  0  0  0
 32 70  1  0  0  0
 32 71  1  0  0  0
 33 34  1  0  0  0
 34 39  2  0  0  0
 34 35  1  0  0  0
 35 36  2  0  0  0
 35 72  1  0  0  0
 36 37  1  0  0  0
 36 73  1  0  0  0
 37 38  2  0  0  0
 37 74  1  0  0  0
 38 39  1  0  0  0
 38 75  1  0  0  0
 39 76  1  0  0  0
 41 77  1  0  0  0
 41 78  1  0  0  0
 42 44  1  0  0  0
 42 43  2  0  0  0
 44 45  1  0  0  0
 44 79  1  0  0  0
 45 80  1  0  0  0
 45 81  1  0  0  0
 45 82  1  0  0  0
M  END
> <s_m_source_file>
../1g2k_ligand.sdf

> <i_m_source_file_index>
1

> <s_epik_input>
W2NIXTFbY0hdW2NIXWMoQyg9TylbTkhdW0NIM10pW2NIXWMxW0NIMl1OKFMyKD1PKT1PKVtDQEhdKFtDSDJdT2MzW2NIXVtjSF1bY0hdW2NIXVtjSF0zKVtDQEhdKFtPSF0pW0NAQEhdKFtPSF0pW0NASF0oTjJbQ0gyXWM0W2NIXVtjSF1bY0hdW2NIXVtjSF00KVtDSDJdT2M1W2NIXVtjSF1bY0hdW2NIXVtjSF01

> <s_epik_cmdline>
J2VwaWtfYXBwJywgJy1pbWFlJywgJ2xpZ2FuZF9wcm8ubWFlJywgJy1vbWFlJywgJ2xpZ2FuZF9wcmVwLm1hZScsICctbXMnLCAnMScsICctcGgnLCAnNycsICctcGh0JywgJzAuNScsICctbnQn

> <r_lp_tautomer_probability>
1

> <r_epik_Ionization_Penalty>
  0.0000

> <r_epik_Ionization_Penalty_Charging>
  0.0000

> <r_epik_Ionization_Penalty_Neutral>
  0.0000

> <r_epik_State_Penalty>
 -0.0000

> <r_epik_Charging_Adjusted_Penalty>
0

> <i_epik_Tot_Q>
0

> <i_epik_Tot_abs_Q>
0

$$$$
