1g2l_ligand
                    3D
 Schrodinger Suite 2020-3.
 71 75  0  0  1  0            999 V2000
    9.8050    6.1680   27.8830 N   0  0  0  0  0  0
   11.8030    6.9570   27.5440 N   0  3  0  0  0  0
   10.5600    6.9200   27.0920 C   0  0  0  0  0  0
   10.0700    7.6550   25.9890 C   0  0  0  0  0  0
    8.6340    7.6730   25.6770 C   0  0  0  0  0  0
    8.1090    8.4200   24.5770 C   0  0  0  0  0  0
    8.9980    9.1980   23.7180 C   0  0  0  0  0  0
   10.4200    9.2060   23.9840 C   0  0  0  0  0  0
   10.9520    8.4510   25.0980 C   0  0  0  0  0  0
    8.5040    9.9850   22.5870 N   0  0  0  0  0  0
    7.2940    9.7650   21.7210 C   0  0  0  0  0  0
    6.5370    7.3620   21.6010 N   0  0  0  0  0  0
    7.2580    8.3960   20.9890 C   0  0  0  0  0  0
    7.9360    8.1760   19.7600 N   0  0  0  0  0  0
    7.5930    6.8280   19.5870 C   0  0  0  0  0  0
    6.7510    6.3530   20.7000 C   0  0  0  0  0  0
    7.9540    5.9060   18.5060 C   0  0  0  0  0  0
    7.4880    4.5630   18.5500 C   0  0  0  0  0  0
    6.6460    4.0400   19.6450 C   0  0  0  0  0  0
    6.2730    4.9700   20.7330 C   0  0  0  0  0  0
    8.7750    9.0870   18.9000 C   0  0  0  0  0  0
    5.1230    1.9340   20.5190 C   0  0  0  0  0  0
    6.5230    1.7830   21.0980 C   0  0  0  0  0  0
    6.3350    2.4540   19.7270 C   0  0  0  0  0  0
    6.2810    1.8540   18.2440 C   0  0  0  0  0  0
    5.2320    2.0200   17.4660 N   0  0  0  0  0  0
    7.3590    0.4090   16.3680 N   0  0  0  0  0  0
    7.5180    1.1090   17.6200 C   0  0  0  0  0  0
    8.8280    1.1140   18.2460 C   0  0  0  0  0  0
    9.9220    0.4210   17.6060 C   0  0  0  0  0  0
    9.7490   -0.2790   16.3560 C   0  0  0  0  0  0
    8.4590   -0.2850   15.7310 C   0  0  0  0  0  0
    4.0020    2.7470   17.8900 O   0  0  0  0  0  0
    3.3470    3.3120   16.7420 C   0  0  0  0  0  0
    3.9830    4.6760   16.3910 C   0  0  0  0  0  0
    4.4680    4.8320   15.2560 O   0  0  0  0  0  0
    3.9950    5.6840   17.3550 O   0  0  0  0  0  0
    4.3250    8.0300   17.9380 C   0  0  0  0  0  0
    4.6150    6.9140   16.9160 C   0  0  0  0  0  0
   10.2606    5.6244   28.7238 H   0  0  0  0  0  0
    8.7236    6.0883   27.6978 H   0  0  0  0  0  0
   12.0908    6.3464   28.4125 H   0  0  0  0  0  0
    7.9494    7.1002   26.3025 H   0  0  0  0  0  0
    7.0374    8.4089   24.3778 H   0  0  0  0  0  0
   11.0907    9.7807   23.3453 H   0  0  0  0  0  0
   12.0253    8.4669   25.2876 H   0  0  0  0  0  0
    9.1635   10.8457   22.4021 H   0  0  0  0  0  0
    6.3859    9.8180   22.3395 H   0  0  0  0  0  0
    7.2536   10.5418   20.9432 H   0  0  0  0  0  0
    8.5737    6.2465   17.6764 H   0  0  0  0  0  0
    7.7647    3.8893   17.7390 H   0  0  0  0  0  0
    5.6452    4.6271   21.5554 H   0  0  0  0  0  0
    8.8223   10.0849   19.3604 H   0  0  0  0  0  0
    8.3235    9.1656   17.9000 H   0  0  0  0  0  0
    9.7912    8.6751   18.8122 H   0  0  0  0  0  0
    4.6675    0.9402   20.3971 H   0  0  0  0  0  0
    4.5072    2.5384   21.2013 H   0  0  0  0  0  0
    6.5816    2.3147   22.0592 H   0  0  0  0  0  0
    6.7418    0.7165   21.2550 H   0  0  0  0  0  0
    8.9845    1.6358   19.1901 H   0  0  0  0  0  0
   10.9037    0.4270   18.0796 H   0  0  0  0  0  0
   10.5889   -0.7968   15.8928 H   0  0  0  0  0  0
    8.3075   -0.8066   14.7860 H   0  0  0  0  0  0
    3.4554    2.6303   15.8855 H   0  0  0  0  0  0
    2.2791    3.4560   16.9631 H   0  0  0  0  0  0
    4.7971    8.9655   17.6032 H   0  0  0  0  0  0
    4.7328    7.7440   18.9188 H   0  0  0  0  0  0
    3.2381    8.1772   18.0216 H   0  0  0  0  0  0
    5.7020    6.7672   16.8325 H   0  0  0  0  0  0
    4.2073    7.2005   15.9353 H   0  0  0  0  0  0
   12.5486    7.5983   27.0512 H   0  0  0  0  0  0
  1  3  1  0  0  0
  1 40  1  0  0  0
  1 41  1  0  0  0
  2  3  2  0  0  0
  2 42  1  0  0  0
  2 71  1  0  0  0
  3  4  1  0  0  0
  4  5  2  0  0  0
  4  9  1  0  0  0
  5  6  1  0  0  0
  5 43  1  0  0  0
  6  7  2  0  0  0
  6 44  1  0  0  0
  7  8  1  0  0  0
  7 10  1  0  0  0
  8  9  2  0  0  0
  8 45  1  0  0  0
  9 46  1  0  0  0
 10 11  1  0  0  0
 10 47  1  0  0  0
 11 13  1  0  0  0
 11 48  1  0  0  0
 11 49  1  0  0  0
 12 16  1  0  0  0
 12 13  2  0  0  0
 13 14  1  0  0  0
 14 15  1  0  0  0
 14 21  1  0  0  0
 15 16  2  0  0  0
 15 17  1  0  0  0
 16 20  1  0  0  0
 17 18  2  0  0  0
 17 50  1  0  0  0
 18 19  1  0  0  0
 18 51  1  0  0  0
 19 20  2  0  0  0
 19 24  1  0  0  0
 20 52  1  0  0  0
 21 53  1  0  0  0
 21 54  1  0  0  0
 21 55  1  0  0  0
 22 23  1  0  0  0
 22 24  1  0  0  0
 22 56  1  0  0  0
 22 57  1  0  0  0
 23 24  1  0  0  0
 23 58  1  0  0  0
 23 59  1  0  0  0
 24 25  1  0  0  0
 25 26  2  0  0  0
 25 28  1  0  0  0
 26 33  1  0  0  0
 27 32  2  0  0  0
 27 28  1  0  0  0
 28 29  2  0  0  0
 29 30  1  0  0  0
 29 60  1  0  0  0
 30 31  2  0  0  0
 30 61  1  0  0  0
 31 32  1  0  0  0
 31 62  1  0  0  0
 32 63  1  0  0  0
 33 34  1  0  0  0
 34 35  1  0  0  0
 34 64  1  0  0  0
 34 65  1  0  0  0
 35 36  2  0  0  0
 35 37  1  0  0  0
 37 39  1  0  0  0
 38 39  1  0  0  0
 38 66  1  0  0  0
 38 67  1  0  0  0
 38 68  1  0  0  0
 39 69  1  0  0  0
 39 70  1  0  0  0
M  CHG  1   2   1
M  END
> <s_m_source_file>
../1g2l_ligand.sdf

> <i_m_source_file_index>
1

> <s_epik_input>
W0hdL049QygvW05IMl0pYzFbY0hdW2NIXWMoW2NIXVtjSF0xKVtOSF1bQ0gyXWMobjJbQ0gzXSluYyhjMjMpW2NIXWMoW2NIXVtjSF0zKUM0KFtDSDJdW0NIMl00KS9DKGM1bltjSF1bY0hdW2NIXVtjSF01KT1OXE9bQ0gyXUMoPU8pT1tDSDJdW0NIM10=

> <s_epik_cmdline>
J2VwaWtfYXBwJywgJy1pbWFlJywgJ2xpZ2FuZF9wcm8ubWFlJywgJy1vbWFlJywgJ2xpZ2FuZF9wcmVwLm1hZScsICctbXMnLCAnMScsICctcGgnLCAnNycsICctcGh0JywgJzAuNScsICctbnQn

> <r_epik_Ionization_Penalty>
  0.3880

> <r_epik_Ionization_Penalty_Charging>
  0.0003

> <r_epik_Ionization_Penalty_Neutral>
  0.3877

> <r_epik_State_Penalty>
  0.3759

> <r_epik_Charging_Adjusted_Penalty>
0.376251928829234

> <i_epik_Tot_Q>
1

> <i_epik_Tot_abs_Q>
1

> <s_epik_Chemistry_Notes>
This compound has an ester and may undergo hydrolysis at high or low pH. This compound has an imine and may undergo hydrolysis.

$$$$
