1g2o_ligand
                    3D
 Schrodinger Suite 2020-3.
 32 34  0  0  1  0            999 V2000
   55.2480   13.9450   43.5030 O   0  0  0  0  0  0
   55.0140   15.2780   43.9290 C   0  0  0  0  0  0
   56.3320   15.9040   44.2220 C   0  0  1  0  0  0
   57.1430   15.8500   43.0570 N   0  0  1  0  0  0
   56.1460   17.3380   44.6070 C   0  0  1  0  0  0
   57.0730   17.6270   45.6570 O   0  0  0  0  0  0
   56.4520   18.0500   43.3310 C   0  0  1  0  0  0
   57.2500   19.1990   43.5950 O   0  0  0  0  0  0
   57.2120   17.0970   42.3780 C   0  0  2  0  0  0
   56.4490   16.8610   41.0640 C   0  0  0  0  0  0
   56.6880   15.8060   40.1790 C   0  0  0  0  0  0
   55.9180   15.7880   39.1160 N   0  0  0  0  0  0
   55.0820   16.8970   39.2600 C   0  0  3  0  0  0
   54.0310   17.3800   38.3940 C   0  0  0  0  0  0
   53.6630   16.8910   37.3270 O   0  0  0  0  0  0
   53.4000   18.5420   38.8760 N   0  0  0  0  0  0
   53.7340   19.1900   40.0770 C   0  0  0  0  0  0
   54.7270   18.7390   40.9030 N   0  0  0  0  0  0
   55.3770   17.5810   40.4460 C   0  0  0  0  0  0
   54.4010   13.2971   43.2334 H   0  0  0  0  0  0
   54.4985   15.8327   43.1312 H   0  0  0  0  0  0
   54.3877   15.2694   44.8332 H   0  0  0  0  0  0
   56.8459   15.3448   45.0177 H   0  0  0  0  0  0
   58.1671   15.5615   43.3362 H   0  0  0  0  0  0
   55.1732   17.6349   45.0259 H   0  0  0  0  0  0
   56.9485   17.1592   46.6448 H   0  0  0  0  0  0
   55.5189   18.4346   42.8935 H   0  0  0  0  0  0
   56.8710   19.9916   44.2569 H   0  0  0  0  0  0
   58.2374   17.4384   42.1732 H   0  0  0  0  0  0
   57.4511   15.0261   40.3186 H   0  0  0  0  0  0
   52.5845   19.0041   38.3003 H   0  0  0  0  0  0
   53.1635   20.0917   40.3442 H   0  0  0  0  0  0
  1  2  1  0  0  0
  1 20  1  0  0  0
  2  3  1  0  0  0
  2 21  1  0  0  0
  2 22  1  0  0  0
  3  5  1  0  0  0
  3  4  1  0  0  0
  3 23  1  0  0  0
  4  9  1  0  0  0
  4 24  1  0  0  0
  5  7  1  0  0  0
  5  6  1  0  0  0
  5 25  1  0  0  0
  6 26  1  0  0  0
  7  9  1  0  0  0
  7  8  1  0  0  0
  7 27  1  0  0  0
  8 28  1  0  0  0
  9 10  1  0  0  0
  9 29  1  0  0  0
 10 19  2  0  0  0
 10 11  1  0  0  0
 11 12  2  0  0  0
 11 30  1  0  0  0
 12 13  1  0  0  0
 13 19  1  0  0  0
 13 14  1  0  0  0
 14 16  1  0  0  0
 14 15  2  0  0  0
 16 17  1  0  0  0
 16 31  1  0  0  0
 17 18  2  0  0  0
 17 32  1  0  0  0
 18 19  1  0  0  0
M  END
> <s_m_source_file>
../1g2o_ligand.sdf

> <i_m_source_file_index>
1

> <s_epik_input>
W09IXVtDSDJdW0NASF0xW05IMitdW0NASF0oW0NASF0oW09IXSlbQ0BASF0xW09IXSlDKFtDSF09TjIpPUMoW0NIXTIzKU49W0NIXVtOSF1DMz1P

> <s_epik_cmdline>
J2VwaWtfYXBwJywgJy1pbWFlJywgJ2xpZ2FuZF9wcm8ubWFlJywgJy1vbWFlJywgJ2xpZ2FuZF9wcmVwLm1hZScsICctbXMnLCAnMScsICctcGgnLCAnNycsICctcGh0JywgJzAuNScsICctbnQn

> <r_lp_tautomer_probability>
1

> <r_epik_Ionization_Penalty>
  0.0001

> <r_epik_Ionization_Penalty_Charging>
  0.0000

> <r_epik_Ionization_Penalty_Neutral>
  0.0001

> <r_epik_State_Penalty>
 -0.0000

> <r_epik_Charging_Adjusted_Penalty>
0

> <i_epik_Tot_Q>
0

> <i_epik_Tot_abs_Q>
0

> <s_epik_Chemistry_Notes>
This compound has an imine and may undergo hydrolysis.

$$$$
