1g30_ligand
                    3D
 Schrodinger Suite 2020-3.
 71 75  0  0  1  0            999 V2000
   10.2730  -12.6880   23.9230 N   0  0  0  0  0  0
   10.8730  -10.6680   24.4990 N   0  3  0  0  0  0
   11.0970  -11.6780   23.6710 C   0  0  0  0  0  0
   12.0790  -11.6850   22.6660 C   0  0  0  0  0  0
   12.0990  -12.6910   21.6450 C   0  0  0  0  0  0
   13.0860  -12.7030   20.6420 C   0  0  0  0  0  0
   14.0860  -11.7100   20.6240 C   0  0  0  0  0  0
   14.0990  -10.7020   21.6110 C   0  0  0  0  0  0
   13.1130  -10.6920   22.6100 C   0  0  0  0  0  0
   15.1220  -11.6910   19.6280 N   0  0  0  0  0  0
   16.5750  -11.4160   19.8050 C   0  0  0  0  0  0
   16.7180  -13.2600   21.5130 N   0  0  0  0  0  0
   17.4080  -12.3860   20.6790 C   0  0  0  0  0  0
   18.8210  -12.4030   20.6440 N   0  0  0  0  0  0
   19.0210  -13.4180   21.5730 C   0  0  0  0  0  0
   17.7690  -13.9140   22.0830 C   0  0  0  0  0  0
   20.2520  -13.9740   22.0450 C   0  0  0  0  0  0
   20.2060  -15.0050   23.0010 C   0  0  0  0  0  0
   18.9710  -15.5090   23.5300 C   0  0  0  0  0  0
   17.7400  -14.9590   23.0520 C   0  0  0  0  0  0
   19.8120  -11.6010   19.8600 C   0  0  0  0  0  0
   18.0980  -17.6840   24.9640 C   0  0  0  0  0  0
   17.7220  -16.3400   25.6270 C   0  0  0  0  0  0
   18.9830  -16.4650   24.8040 C   0  0  0  0  0  0
   20.4640  -16.6310   25.2470 C   0  0  0  0  0  0
   21.1550  -17.6570   24.8780 N   0  0  0  0  0  0
   22.4130  -15.7230   26.6390 N   0  0  0  0  0  0
   21.1190  -15.5360   26.1000 C   0  0  0  0  0  0
   20.4370  -14.3180   26.3370 C   0  0  0  0  0  0
   21.0510  -13.3150   27.1050 C   0  0  0  0  0  0
   22.3350  -13.4960   27.6460 C   0  0  0  0  0  0
   23.0250  -14.7120   27.4120 C   0  0  0  0  0  0
   20.5310  -18.6970   24.0270 O   0  0  0  0  0  0
   21.1310  -19.9690   24.2640 C   0  0  0  0  0  0
   20.4590  -21.0230   23.3480 C   0  0  0  0  0  0
   20.6110  -22.2250   23.6010 O   0  0  0  0  0  0
   19.7090  -20.6100   22.2700 O   0  0  0  0  0  0
   18.1330  -21.2130   20.5100 C   0  0  0  0  0  0
   19.1640  -21.7220   21.5370 C   0  0  0  0  0  0
    9.5299  -12.6035   24.7296 H   0  0  0  0  0  0
   10.3334  -13.6094   23.3252 H   0  0  0  0  0  0
   10.0819  -10.7452   25.2594 H   0  0  0  0  0  0
   11.3315  -13.4650   21.6455 H   0  0  0  0  0  0
   13.0771  -13.4808   19.8785 H   0  0  0  0  0  0
   14.8720   -9.9336   21.5978 H   0  0  0  0  0  0
   13.1335   -9.9066   23.3655 H   0  0  0  0  0  0
   14.7227  -11.9167   18.6282 H   0  0  0  0  0  0
   17.0719  -11.4242   18.8237 H   0  0  0  0  0  0
   16.7071  -10.4301   20.2747 H   0  0  0  0  0  0
   21.2073  -13.6057   21.6709 H   0  0  0  0  0  0
   21.1429  -15.4369   23.3528 H   0  0  0  0  0  0
   16.7879  -15.3358   23.4256 H   0  0  0  0  0  0
   19.2783  -10.8830   19.2199 H   0  0  0  0  0  0
   20.4143  -12.2744   19.2326 H   0  0  0  0  0  0
   20.4717  -11.0561   20.5513 H   0  0  0  0  0  0
   18.2164  -18.4550   25.7396 H   0  0  0  0  0  0
   17.3019  -17.9844   24.2669 H   0  0  0  0  0  0
   16.7474  -16.0025   25.2446 H   0  0  0  0  0  0
   17.6619  -16.4731   26.7173 H   0  0  0  0  0  0
   19.4402  -14.1595   25.9254 H   0  0  0  0  0  0
   20.5217  -12.3792   27.2846 H   0  0  0  0  0  0
   22.7968  -12.7079   28.2408 H   0  0  0  0  0  0
   24.0215  -14.8657   27.8261 H   0  0  0  0  0  0
   22.2065  -19.9146   24.0396 H   0  0  0  0  0  0
   20.9902  -20.2502   25.3181 H   0  0  0  0  0  0
   17.7192  -22.0660   19.9522 H   0  0  0  0  0  0
   18.6237  -20.5206   19.8102 H   0  0  0  0  0  0
   17.3205  -20.6892   21.0349 H   0  0  0  0  0  0
   19.9747  -22.2465   21.0102 H   0  0  0  0  0  0
   18.6715  -22.4152   22.2348 H   0  0  0  0  0  0
   11.4781   -9.7523   24.4259 H   0  0  0  0  0  0
  1  3  1  0  0  0
  1 40  1  0  0  0
  1 41  1  0  0  0
  2  3  2  0  0  0
  2 42  1  0  0  0
  2 71  1  0  0  0
  3  4  1  0  0  0
  4  5  2  0  0  0
  4  9  1  0  0  0
  5  6  1  0  0  0
  5 43  1  0  0  0
  6  7  2  0  0  0
  6 44  1  0  0  0
  7  8  1  0  0  0
  7 10  1  0  0  0
  8  9  2  0  0  0
  8 45  1  0  0  0
  9 46  1  0  0  0
 10 11  1  0  0  0
 10 47  1  0  0  0
 11 13  1  0  0  0
 11 48  1  0  0  0
 11 49  1  0  0  0
 12 16  1  0  0  0
 12 13  2  0  0  0
 13 14  1  0  0  0
 14 15  1  0  0  0
 14 21  1  0  0  0
 15 16  2  0  0  0
 15 17  1  0  0  0
 16 20  1  0  0  0
 17 18  2  0  0  0
 17 50  1  0  0  0
 18 19  1  0  0  0
 18 51  1  0  0  0
 19 20  2  0  0  0
 19 24  1  0  0  0
 20 52  1  0  0  0
 21 53  1  0  0  0
 21 54  1  0  0  0
 21 55  1  0  0  0
 22 23  1  0  0  0
 22 24  1  0  0  0
 22 56  1  0  0  0
 22 57  1  0  0  0
 23 24  1  0  0  0
 23 58  1  0  0  0
 23 59  1  0  0  0
 24 25  1  0  0  0
 25 26  2  0  0  0
 25 28  1  0  0  0
 26 33  1  0  0  0
 27 32  2  0  0  0
 27 28  1  0  0  0
 28 29  2  0  0  0
 29 30  1  0  0  0
 29 60  1  0  0  0
 30 31  2  0  0  0
 30 61  1  0  0  0
 31 32  1  0  0  0
 31 62  1  0  0  0
 32 63  1  0  0  0
 33 34  1  0  0  0
 34 35  1  0  0  0
 34 64  1  0  0  0
 34 65  1  0  0  0
 35 36  2  0  0  0
 35 37  1  0  0  0
 37 39  1  0  0  0
 38 39  1  0  0  0
 38 66  1  0  0  0
 38 67  1  0  0  0
 38 68  1  0  0  0
 39 69  1  0  0  0
 39 70  1  0  0  0
M  CHG  1   2   1
M  END
> <s_m_source_file>
../1g30_ligand.sdf

> <i_m_source_file_index>
1

> <s_epik_input>
W0hdL049QygvW05IMl0pYzFbY0hdW2NIXWMoW2NIXVtjSF0xKVtOSF1bQ0gyXWMobjJbQ0gzXSluYyhjMjMpW2NIXWMoW2NIXVtjSF0zKUM0KFtDSDJdW0NIMl00KS9DKGM1bltjSF1bY0hdW2NIXVtjSF01KT1OXE9bQ0gyXUMoPU8pT1tDSDJdW0NIM10=

> <s_epik_cmdline>
J2VwaWtfYXBwJywgJy1pbWFlJywgJ2xpZ2FuZF9wcm8ubWFlJywgJy1vbWFlJywgJ2xpZ2FuZF9wcmVwLm1hZScsICctbXMnLCAnMScsICctcGgnLCAnNycsICctcGh0JywgJzAuNScsICctbnQn

> <r_epik_Ionization_Penalty>
  0.3880

> <r_epik_Ionization_Penalty_Charging>
  0.0003

> <r_epik_Ionization_Penalty_Neutral>
  0.3877

> <r_epik_State_Penalty>
  0.3759

> <r_epik_Charging_Adjusted_Penalty>
0.376251928829233

> <i_epik_Tot_Q>
1

> <i_epik_Tot_abs_Q>
1

> <s_epik_Chemistry_Notes>
This compound has an ester and may undergo hydrolysis at high or low pH. This compound has an imine and may undergo hydrolysis.

$$$$
