1g35_ligand
                    3D
 Schrodinger Suite 2020-3.
 85 89  0  0  1  0            999 V2000
   11.5940   23.9220    6.1630 N   0  0  1  0  0  0
   11.9410   22.2880    6.4770 S   0  0  0  0  0  0
   13.6100   22.4220    6.2590 N   0  0  3  0  0  0
   14.0230   22.3010    4.8410 C   0  0  1  0  0  0
   14.1580   23.7760    4.2980 C   0  0  1  0  0  0
   13.1870   24.8630    4.8690 C   0  0  2  0  0  0
   11.6810   24.6340    4.8560 C   0  0  1  0  0  0
   10.3120   24.2390    6.7270 C   0  0  0  0  0  0
    9.7360   25.4500    7.3510 C   0  0  0  0  0  0
    8.3410   25.7480    7.1780 C   0  0  0  0  0  0
    7.7670   26.9120    7.7710 C   0  0  0  0  0  0
    8.6140   27.8160    8.5670 C   0  0  0  0  0  0
   10.0490   27.5180    8.7510 C   0  0  0  0  0  0
   10.6010   26.3260    8.1350 C   0  0  0  0  0  0
   11.3080   21.4690    5.4610 O   0  0  0  0  0  0
   15.0160   20.4680    3.5760 O   0  0  0  0  0  0
   15.9550   19.4950    3.2610 C   0  0  0  0  0  0
   16.1570   19.1200    1.8770 C   0  0  0  0  0  0
   17.1490   18.0940    1.5230 C   0  0  0  0  0  0
   17.9430   17.4410    2.5640 C   0  0  0  0  0  0
   17.7530   17.8010    3.9510 C   0  0  0  0  0  0
   16.7620   18.8250    4.3050 C   0  0  0  0  0  0
   14.5080   22.8020    7.4110 C   0  0  0  0  0  0
   15.4130   21.9020    8.1780 C   0  0  0  0  0  0
   14.8810   20.9530    9.1430 C   0  0  0  0  0  0
   15.8050   20.0760    9.9020 C   0  0  0  0  0  0
   17.2700   20.1600    9.6870 C   0  0  0  0  0  0
   17.7940   21.1320    8.6980 C   0  0  0  0  0  0
   16.8630   21.9900    7.9570 C   0  0  0  0  0  0
   15.4240   24.3250    4.5120 O   0  0  0  0  0  0
   13.4210   26.0160    4.1760 O   0  0  0  0  0  0
   11.1270   23.8230    3.6070 C   0  0  0  0  0  0
    9.7070   23.7250    3.7470 O   0  0  0  0  0  0
    8.7690   24.4600    3.1760 C   0  0  0  0  0  0
    9.0910   25.5560    2.2410 C   0  0  0  0  0  0
    8.0400   26.3370    1.6340 C   0  0  0  0  0  0
    6.6590   26.0340    1.9530 C   0  0  0  0  0  0
    6.3380   24.9610    2.8700 C   0  0  0  0  0  0
    7.3950   24.1770    3.4790 C   0  0  0  0  0  0
   11.7370   22.0060    7.8330 O   0  0  0  0  0  0
   15.3360   21.4790    4.6100 C   0  0  0  0  0  0
   18.1060   19.3720   10.3740 C   0  0  0  0  0  0
   17.7020   18.8050   11.5520 O   0  0  0  0  0  0
   19.3410   19.1480    9.9160 O   0  0  0  0  0  0
   18.5400   18.0000   12.2860 C   0  0  0  0  0  0
    8.1470   28.8530    9.1110 C   0  0  0  0  0  0
    7.6480   29.6750    8.1760 O   0  0  0  0  0  0
   13.2345   21.7114    4.3504 H   0  0  0  0  0  0
   14.0274   23.6445    3.2137 H   0  0  0  0  0  0
   13.4374   24.9986    5.9315 H   0  0  0  0  0  0
   11.0703   25.5475    4.8059 H   0  0  0  0  0  0
    9.5338   24.1196    5.9588 H   0  0  0  0  0  0
   10.1038   23.5615    7.5682 H   0  0  0  0  0  0
    7.7152   25.0784    6.5880 H   0  0  0  0  0  0
    6.7078   27.1307    7.6356 H   0  0  0  0  0  0
   10.6822   28.1821    9.3393 H   0  0  0  0  0  0
   11.6571   26.0857    8.2572 H   0  0  0  0  0  0
   15.5708   19.6007    1.0938 H   0  0  0  0  0  0
   17.2937   17.8182    0.4785 H   0  0  0  0  0  0
   18.6780   16.6829    2.2936 H   0  0  0  0  0  0
   18.3417   17.3153    4.7292 H   0  0  0  0  0  0
   16.6187   19.0954    5.3512 H   0  0  0  0  0  0
   15.2294   23.5628    7.0781 H   0  0  0  0  0  0
   13.8991   23.2085    8.2320 H   0  0  0  0  0  0
   13.8056   20.8865    9.3080 H   0  0  0  0  0  0
   15.4043   19.3640   10.6236 H   0  0  0  0  0  0
   18.8670   21.2089    8.5220 H   0  0  0  0  0  0
   17.2529   22.7038    7.2313 H   0  0  0  0  0  0
   16.3230   23.7710    4.2039 H   0  0  0  0  0  0
   14.4501   26.3845    4.0530 H   0  0  0  0  0  0
   11.3840   24.3566    2.6801 H   0  0  0  0  0  0
   11.5798   22.8206    3.5906 H   0  0  0  0  0  0
   10.1323   25.7775    2.0068 H   0  0  0  0  0  0
    8.2820   27.1452    0.9438 H   0  0  0  0  0  0
    5.8576   26.6175    1.4998 H   0  0  0  0  0  0
    5.2963   24.7412    3.1040 H   0  0  0  0  0  0
    7.1454   23.3707    4.1687 H   0  0  0  0  0  0
   16.1355   22.1533    4.2692 H   0  0  0  0  0  0
   15.6384   20.9985    5.5522 H   0  0  0  0  0  0
   18.0170   17.6534   13.1895 H   0  0  0  0  0  0
   19.4348   18.5701   12.5762 H   0  0  0  0  0  0
   18.8388   17.1322   11.6797 H   0  0  0  0  0  0
    7.3462   28.5712    9.8104 H   0  0  0  0  0  0
    8.9472   29.3714    9.6595 H   0  0  0  0  0  0
    7.1966   30.6338    8.4709 H   0  0  0  0  0  0
  1  8  1  0  0  0
  1  7  1  0  0  0
  1  2  1  0  0  0
  2 40  2  0  0  0
  2 15  2  0  0  0
  2  3  1  0  0  0
  3 23  1  0  0  0
  3  4  1  0  0  0
  4 41  1  0  0  0
  4  5  1  0  0  0
  4 48  1  0  0  0
  5 30  1  0  0  0
  5  6  1  0  0  0
  5 49  1  0  0  0
  6 31  1  0  0  0
  6  7  1  0  0  0
  6 50  1  0  0  0
  7 32  1  0  0  0
  7 51  1  0  0  0
  8  9  1  0  0  0
  8 52  1  0  0  0
  8 53  1  0  0  0
  9 14  2  0  0  0
  9 10  1  0  0  0
 10 11  2  0  0  0
 10 54  1  0  0  0
 11 12  1  0  0  0
 11 55  1  0  0  0
 12 46  1  0  0  0
 12 13  2  0  0  0
 13 14  1  0  0  0
 13 56  1  0  0  0
 14 57  1  0  0  0
 16 41  1  0  0  0
 16 17  1  0  0  0
 17 22  2  0  0  0
 17 18  1  0  0  0
 18 19  2  0  0  0
 18 58  1  0  0  0
 19 20  1  0  0  0
 19 59  1  0  0  0
 20 21  2  0  0  0
 20 60  1  0  0  0
 21 22  1  0  0  0
 21 61  1  0  0  0
 22 62  1  0  0  0
 23 24  1  0  0  0
 23 63  1  0  0  0
 23 64  1  0  0  0
 24 29  2  0  0  0
 24 25  1  0  0  0
 25 26  2  0  0  0
 25 65  1  0  0  0
 26 27  1  0  0  0
 26 66  1  0  0  0
 27 42  1  0  0  0
 27 28  2  0  0  0
 28 29  1  0  0  0
 28 67  1  0  0  0
 29 68  1  0  0  0
 30 69  1  0  0  0
 31 70  1  0  0  0
 32 33  1  0  0  0
 32 71  1  0  0  0
 32 72  1  0  0  0
 33 34  1  0  0  0
 34 39  2  0  0  0
 34 35  1  0  0  0
 35 36  2  0  0  0
 35 73  1  0  0  0
 36 37  1  0  0  0
 36 74  1  0  0  0
 37 38  2  0  0  0
 37 75  1  0  0  0
 38 39  1  0  0  0
 38 76  1  0  0  0
 39 77  1  0  0  0
 41 78  1  0  0  0
 41 79  1  0  0  0
 42 44  2  0  0  0
 42 43  1  0  0  0
 43 45  1  0  0  0
 45 80  1  0  0  0
 45 81  1  0  0  0
 45 82  1  0  0  0
 46 47  1  0  0  0
 46 83  1  0  0  0
 46 84  1  0  0  0
 47 85  1  0  0  0
M  END
> <s_m_source_file>
../1g35_ligand.sdf

> <i_m_source_file_index>
1

> <s_epik_input>
W2NIXTFbY0hdYyhbQ0gyXVtPSF0pW2NIXVtjSF1jMVtDSDJdTihTMig9Tyk9TylbQ0BIXShbQ0gyXU9jM1tjSF1bY0hdW2NIXVtjSF1bY0hdMylbQ0BIXShbT0hdKVtDQEBIXShbT0hdKVtDQEBIXShbQ0gyXU9jNFtjSF1bY0hdW2NIXVtjSF1bY0hdNClOMltDSDJdYzVbY0hdW2NIXWMoW2NIXVtjSF01KUMoPU8pT1tDSDNd

> <s_epik_cmdline>
J2VwaWtfYXBwJywgJy1pbWFlJywgJ2xpZ2FuZF9wcm8ubWFlJywgJy1vbWFlJywgJ2xpZ2FuZF9wcmVwLm1hZScsICctbXMnLCAnMScsICctcGgnLCAnNycsICctcGh0JywgJzAuNScsICctbnQn

> <r_lp_tautomer_probability>
1

> <r_epik_Ionization_Penalty>
  0.0000

> <r_epik_Ionization_Penalty_Charging>
  0.0000

> <r_epik_Ionization_Penalty_Neutral>
  0.0000

> <r_epik_State_Penalty>
 -0.0000

> <r_epik_Charging_Adjusted_Penalty>
0

> <i_epik_Tot_Q>
0

> <i_epik_Tot_abs_Q>
0

> <s_epik_Chemistry_Notes>
This compound has an ester and may undergo hydrolysis at high or low pH.

$$$$
