1g36_ligand
                    3D
 Schrodinger Suite 2020-3.
 58 62  0  0  1  0            999 V2000
   -4.9860   10.0710   19.7450 N   0  0  0  0  0  0
   -3.0700   10.7130   18.9520 N   0  3  0  0  0  0
   -3.7400    9.7130   19.4910 C   0  0  0  0  0  0
   -3.2070    8.4440   19.7760 C   0  0  0  0  0  0
   -3.9640    7.4750   20.5100 C   0  0  0  0  0  0
   -3.4470    6.2010   20.7980 C   0  0  0  0  0  0
   -2.1490    5.8380   20.3660 C   0  0  0  0  0  0
   -1.3710    6.7640   19.6430 C   0  0  0  0  0  0
   -1.8850    8.0480   19.3490 C   0  0  0  0  0  0
   -1.5970    4.5330   20.6480 N   0  0  0  0  0  0
   -2.1230    3.5250   21.6060 C   0  0  0  0  0  0
   -3.4270    4.3970   23.5810 N   0  0  0  0  0  0
   -2.1870    3.9840   23.0760 C   0  0  0  0  0  0
   -1.0320    3.9980   23.8960 N   0  0  0  0  0  0
   -1.6310    4.4960   25.0630 C   0  0  0  0  0  0
   -3.0500    4.7310   24.8590 C   0  0  0  0  0  0
   -1.0430    4.7800   26.3400 C   0  0  0  0  0  0
   -1.8560    5.2960   27.3730 C   0  0  0  0  0  0
   -3.2480    5.5260   27.1690 C   0  0  0  0  0  0
   -3.8570    5.2470   25.9170 C   0  0  0  0  0  0
    0.3830    3.6160   23.5990 C   0  0  0  0  0  0
   -4.0940    6.0890   28.3030 C   0  0  0  0  0  0
   -3.5880    5.7900   29.6780 N   0  0  0  0  0  0
   -3.7200    4.6490   30.5010 C   0  0  0  0  0  0
   -3.1510    4.5890   31.7810 N   0  0  0  0  0  0
   -2.5770    5.8610   31.7920 C   0  0  0  0  0  0
   -2.8350    6.5760   30.5580 C   0  0  0  0  0  0
   -1.8290    6.4820   32.8450 C   0  0  0  0  0  0
   -1.3370    7.7950   32.6450 C   0  0  0  0  0  0
   -1.5780    8.4960   31.4380 C   0  0  0  0  0  0
   -2.3250    7.9050   30.3870 C   0  0  0  0  0  0
   -4.4810    3.4100   30.0230 C   0  0  0  0  0  0
   -5.3294   11.0850   19.4921 H   0  0  0  0  0  0
   -5.6801    9.3551   20.2094 H   0  0  0  0  0  0
   -3.5720   11.6737   18.7646 H   0  0  0  0  0  0
   -4.9659    7.7323   20.8536 H   0  0  0  0  0  0
   -4.0500    5.4866   21.3584 H   0  0  0  0  0  0
   -0.3702    6.4897   19.3094 H   0  0  0  0  0  0
   -1.2712    8.7534   18.7888 H   0  0  0  0  0  0
   -0.6914    4.3154   20.0627 H   0  0  0  0  0  0
   -3.1486    3.2481   21.3205 H   0  0  0  0  0  0
   -1.4827    2.6308   21.5858 H   0  0  0  0  0  0
    0.0183    4.5998   26.5111 H   0  0  0  0  0  0
   -1.4118    5.5222   28.3424 H   0  0  0  0  0  0
   -4.9220    5.4238   25.7666 H   0  0  0  0  0  0
    0.4575    3.2651   22.5591 H   0  0  0  0  0  0
    0.6964    2.8117   24.2808 H   0  0  0  0  0  0
    1.0358    4.4903   23.7386 H   0  0  0  0  0  0
   -4.1412    7.1846   28.2162 H   0  0  0  0  0  0
   -5.1103    5.6724   28.2440 H   0  0  0  0  0  0
   -1.6426    5.9547   33.7806 H   0  0  0  0  0  0
   -0.7613    8.2757   33.4359 H   0  0  0  0  0  0
   -1.1835    9.5046   31.3150 H   0  0  0  0  0  0
   -2.5086    8.4532   29.4629 H   0  0  0  0  0  0
   -4.8737    3.5887   29.0112 H   0  0  0  0  0  0
   -5.3157    3.2049   30.7094 H   0  0  0  0  0  0
   -3.8004    2.5460   30.0049 H   0  0  0  0  0  0
   -2.0092   10.5863   18.6898 H   0  0  0  0  0  0
  1  3  1  0  0  0
  1 33  1  0  0  0
  1 34  1  0  0  0
  2  3  2  0  0  0
  2 35  1  0  0  0
  2 58  1  0  0  0
  3  4  1  0  0  0
  4  5  2  0  0  0
  4  9  1  0  0  0
  5  6  1  0  0  0
  5 36  1  0  0  0
  6  7  2  0  0  0
  6 37  1  0  0  0
  7  8  1  0  0  0
  7 10  1  0  0  0
  8  9  2  0  0  0
  8 38  1  0  0  0
  9 39  1  0  0  0
 10 11  1  0  0  0
 10 40  1  0  0  0
 11 13  1  0  0  0
 11 41  1  0  0  0
 11 42  1  0  0  0
 12 16  1  0  0  0
 12 13  2  0  0  0
 13 14  1  0  0  0
 14 15  1  0  0  0
 14 21  1  0  0  0
 15 16  2  0  0  0
 15 17  1  0  0  0
 16 20  1  0  0  0
 17 18  2  0  0  0
 17 43  1  0  0  0
 18 19  1  0  0  0
 18 44  1  0  0  0
 19 20  2  0  0  0
 19 22  1  0  0  0
 20 45  1  0  0  0
 21 46  1  0  0  0
 21 47  1  0  0  0
 21 48  1  0  0  0
 22 23  1  0  0  0
 22 49  1  0  0  0
 22 50  1  0  0  0
 23 24  1  0  0  0
 23 27  1  0  0  0
 24 25  2  0  0  0
 24 32  1  0  0  0
 25 26  1  0  0  0
 26 27  2  0  0  0
 26 28  1  0  0  0
 27 31  1  0  0  0
 28 29  2  0  0  0
 28 51  1  0  0  0
 29 30  1  0  0  0
 29 52  1  0  0  0
 30 31  2  0  0  0
 30 53  1  0  0  0
 31 54  1  0  0  0
 32 55  1  0  0  0
 32 56  1  0  0  0
 32 57  1  0  0  0
M  CHG  1   2   1
M  END
> <s_m_source_file>
../1g36_ligand.sdf

> <i_m_source_file_index>
1

> <s_epik_input>
W0hdL049QygvW05IMl0pYzFbY0hdW2NIXWMoW2NIXVtjSF0xKVtOSF1bQ0gyXWMobjJbQ0gzXSluYyhjMjMpW2NIXWMoW2NIXVtjSF0zKVtDSDJdbihjKG40KVtDSDNdKWMoYzQ1KVtjSF1bY0hdW2NIXVtjSF01

> <s_epik_cmdline>
J2VwaWtfYXBwJywgJy1pbWFlJywgJ2xpZ2FuZF9wcm8ubWFlJywgJy1vbWFlJywgJ2xpZ2FuZF9wcmVwLm1hZScsICctbXMnLCAnMScsICctcGgnLCAnNycsICctcGh0JywgJzAuNScsICctbnQn

> <r_epik_Ionization_Penalty>
  0.4011

> <r_epik_Ionization_Penalty_Charging>
  0.0003

> <r_epik_Ionization_Penalty_Neutral>
  0.4008

> <r_epik_State_Penalty>
  0.3053

> <r_epik_Charging_Adjusted_Penalty>
0.305577786106945

> <i_epik_Tot_Q>
1

> <i_epik_Tot_abs_Q>
1

> <s_epik_Chemistry_Notes>
This compound has an imine and may undergo hydrolysis.

$$$$
