1g37_ligand
                    3D
 Schrodinger Suite 2020-3.
 83 86  0  0  1  0            999 V2000
   16.0210   18.4310   20.0150 N   0  0  0  0  0  0
   14.7580   18.3600   19.2090 C   0  0  1  0  0  0
   15.1760   18.4440   16.0870 O   0  0  0  0  0  0
   14.4860   19.0730   14.9610 C   0  0  0  0  0  0
   14.1900   18.1930   13.7360 C   0  0  0  0  0  0
   15.5880   19.2470   17.1070 C   0  0  0  0  0  0
   16.7200   19.6940   17.2110 O   0  0  0  0  0  0
   16.8810   17.3630   20.1200 C   0  0  0  0  0  0
   16.7540   16.3050   19.5070 O   0  0  0  0  0  0
   20.2980   16.5300   21.0110 C   0  0  0  0  0  0
   19.3970   15.4820   21.6280 C   0  0  2  0  0  0
   18.1720   16.2910   21.8980 N   0  0  0  0  0  0
   18.0410   17.5100   21.0870 C   0  0  1  0  0  0
   19.3980   17.5540   20.3790 C   0  0  0  0  0  0
   17.3820   14.7160   23.6320 C   0  0  0  0  0  0
   17.2250   15.9600   22.7880 C   0  0  0  0  0  0
   19.0400   12.6850   24.2360 S   0  0  0  0  0  0
   17.8020   11.9510   24.3410 O   0  0  0  0  0  0
   20.1800   12.1080   23.5450 O   0  0  0  0  0  0
   21.8750   13.8860   25.6030 C   0  0  0  0  0  0
   20.5830   14.1980   26.0280 C   0  0  0  0  0  0
   19.4980   13.1740   25.9540 C   0  0  0  0  0  0
   20.2990   15.4910   26.4360 C   0  0  0  0  0  0
   21.2850   16.4620   26.4110 C   0  0  0  0  0  0
   22.5640   16.1410   25.9790 C   0  0  0  0  0  0
   22.8570   14.8490   25.5780 C   0  0  0  0  0  0
   16.2280   16.6520   22.9480 O   0  0  0  0  0  0
   19.8110   14.9910   22.9910 C   0  0  0  0  0  0
   18.7180   14.1570   23.4830 N   0  0  3  0  0  0
   13.5250   18.9730   12.5980 C   0  0  0  0  0  0
   12.3370   18.2540   11.9660 C   0  0  0  0  0  0
   13.4960   18.2500   20.0950 C   0  0  1  0  0  0
   13.3300   16.7980   20.6550 C   0  0  0  0  0  0
   11.9690   16.6810   21.3770 C   0  0  0  0  0  0
   11.9170   17.7220   22.5360 C   0  0  2  0  0  0
   10.6560   17.5970   23.2900 N   0  3  0  0  0  0
   12.1120   19.1710   21.9750 C   0  0  0  0  0  0
   13.4740   19.2800   21.2530 C   0  0  0  0  0  0
   14.6250   19.5520   18.2000 C   0  0  1  0  0  0
   13.3100   19.6690   17.5310 O   0  0  0  0  0  0
   16.2836   19.3582   20.5454 H   0  0  0  0  0  0
   14.8658   17.4181   18.6511 H   0  0  0  0  0  0
   13.5077   19.4495   15.2945 H   0  0  0  0  0  0
   15.0909   19.9097   14.5814 H   0  0  0  0  0  0
   15.1304   17.7709   13.3519 H   0  0  0  0  0  0
   13.5130   17.3760   14.0263 H   0  0  0  0  0  0
   20.9203   16.9861   21.7950 H   0  0  0  0  0  0
   20.9455   16.0589   20.2568 H   0  0  0  0  0  0
   19.3389   14.6006   20.9724 H   0  0  0  0  0  0
   17.8173   18.4116   21.6762 H   0  0  0  0  0  0
   19.8461   18.5527   20.4873 H   0  0  0  0  0  0
   19.2723   17.3224   19.3110 H   0  0  0  0  0  0
   17.2185   14.9678   24.6902 H   0  0  0  0  0  0
   16.6448   13.9631   23.3161 H   0  0  0  0  0  0
   22.1084   12.8691   25.2877 H   0  0  0  0  0  0
   18.6186   13.5971   26.4616 H   0  0  0  0  0  0
   19.8495   12.2896   26.5056 H   0  0  0  0  0  0
   19.2956   15.7446   26.7779 H   0  0  0  0  0  0
   21.0568   17.4788   26.7306 H   0  0  0  0  0  0
   23.3389   16.9072   25.9554 H   0  0  0  0  0  0
   23.8629   14.5954   25.2434 H   0  0  0  0  0  0
   20.7404   14.4090   22.9044 H   0  0  0  0  0  0
   19.9779   15.8515   23.6556 H   0  0  0  0  0  0
   13.1562   19.9362   12.9803 H   0  0  0  0  0  0
   14.2590   19.1526   11.7987 H   0  0  0  0  0  0
   11.9174   18.8762   11.1617 H   0  0  0  0  0  0
   11.5671   18.0756   12.7311 H   0  0  0  0  0  0
   12.6700   17.2919   11.5495 H   0  0  0  0  0  0
   12.6485   18.4962   19.4384 H   0  0  0  0  0  0
   13.3690   16.0780   19.8243 H   0  0  0  0  0  0
   14.1427   16.5835   21.3646 H   0  0  0  0  0  0
   11.1567   16.8808   20.6627 H   0  0  0  0  0  0
   11.8566   15.6658   21.7854 H   0  0  0  0  0  0
   12.6977   17.5041   23.2797 H   0  0  0  0  0  0
   10.5547   16.5686   23.6671 H   0  0  0  0  0  0
    9.8086   17.8301   22.6285 H   0  0  0  0  0  0
   10.6640   18.2990   24.1368 H   0  0  0  0  0  0
   11.3057   19.4000   21.2627 H   0  0  0  0  0  0
   12.0838   19.8924   22.8049 H   0  0  0  0  0  0
   14.2915   19.0596   21.9553 H   0  0  0  0  0  0
   13.6042   20.2932   20.8451 H   0  0  0  0  0  0
   14.7768   20.5084   18.7218 H   0  0  0  0  0  0
   12.4102   19.8944   18.1223 H   0  0  0  0  0  0
  1  2  1  0  0  0
  1  8  1  0  0  0
  1 41  1  0  0  0
  2 32  1  0  0  0
  2 39  1  0  0  0
  2 42  1  0  0  0
  3  4  1  0  0  0
  3  6  1  0  0  0
  4  5  1  0  0  0
  4 43  1  0  0  0
  4 44  1  0  0  0
  5 30  1  0  0  0
  5 45  1  0  0  0
  5 46  1  0  0  0
  6  7  2  0  0  0
  6 39  1  0  0  0
  8  9  2  0  0  0
  8 13  1  0  0  0
 10 11  1  0  0  0
 10 14  1  0  0  0
 10 47  1  0  0  0
 10 48  1  0  0  0
 11 12  1  0  0  0
 11 28  1  0  0  0
 11 49  1  0  0  0
 12 13  1  0  0  0
 12 16  1  0  0  0
 13 14  1  0  0  0
 13 50  1  0  0  0
 14 51  1  0  0  0
 14 52  1  0  0  0
 15 16  1  0  0  0
 15 29  1  0  0  0
 15 53  1  0  0  0
 15 54  1  0  0  0
 16 27  2  0  0  0
 17 18  2  0  0  0
 17 19  2  0  0  0
 17 22  1  0  0  0
 17 29  1  0  0  0
 20 21  2  0  0  0
 20 26  1  0  0  0
 20 55  1  0  0  0
 21 22  1  0  0  0
 21 23  1  0  0  0
 22 56  1  0  0  0
 22 57  1  0  0  0
 23 24  2  0  0  0
 23 58  1  0  0  0
 24 25  1  0  0  0
 24 59  1  0  0  0
 25 26  2  0  0  0
 25 60  1  0  0  0
 26 61  1  0  0  0
 28 29  1  0  0  0
 28 62  1  0  0  0
 28 63  1  0  0  0
 30 31  1  0  0  0
 30 64  1  0  0  0
 30 65  1  0  0  0
 31 66  1  0  0  0
 31 67  1  0  0  0
 31 68  1  0  0  0
 32 33  1  0  0  0
 32 38  1  0  0  0
 32 69  1  0  0  0
 33 34  1  0  0  0
 33 70  1  0  0  0
 33 71  1  0  0  0
 34 35  1  0  0  0
 34 72  1  0  0  0
 34 73  1  0  0  0
 35 36  1  0  0  0
 35 37  1  0  0  0
 35 74  1  0  0  0
 36 75  1  0  0  0
 36 76  1  0  0  0
 36 77  1  0  0  0
 37 38  1  0  0  0
 37 78  1  0  0  0
 37 79  1  0  0  0
 38 80  1  0  0  0
 38 81  1  0  0  0
 39 40  1  0  0  0
 39 82  1  0  0  0
 40 83  1  0  0  0
M  CHG  1  36   1
M  END
> <s_m_source_file>
../1g37_ligand.sdf

> <i_m_source_file_index>
1

> <s_epik_input>
W0NIM11bQ0gyXVtDSDJdW0NIMl1PQyg9TylbQ0BASF0oW09IXSlbQ0BIXShbQ0BIXTFbQ0gyXVtDSDJdW0NASF0oW05IMytdKVtDSDJdW0NIMl0xKVtOSF1DKD1PKVtDQEhdKFtDSDJdW0NIMl0yKU4oW0NAQEhdMjMpQyg9TylbQ0gyXU4oW0NIMl0zKVMoPU8pKD1PKVtDSDJdYzRbY0hdW2NIXVtjSF1bY0hdW2NIXTQ=

> <s_epik_cmdline>
J2VwaWtfYXBwJywgJy1pbWFlJywgJ2xpZ2FuZF9wcm8ubWFlJywgJy1vbWFlJywgJ2xpZ2FuZF9wcmVwLm1hZScsICctbXMnLCAnMScsICctcGgnLCAnNycsICctcGh0JywgJzAuNScsICctbnQn

> <r_lp_tautomer_probability>
1

> <r_epik_Ionization_Penalty>
  0.0004

> <r_epik_Ionization_Penalty_Charging>
  0.0002

> <r_epik_Ionization_Penalty_Neutral>
  0.0002

> <r_epik_State_Penalty>
 -0.0000

> <r_epik_Charging_Adjusted_Penalty>
0.000211161262627475

> <i_epik_Tot_Q>
1

> <i_epik_Tot_abs_Q>
1

> <s_epik_Chemistry_Notes>
This compound has an ester and may undergo hydrolysis at high or low pH.

$$$$
