1g3b_ligand
                    3D
 Schrodinger Suite 2020-3.
 31 31  0  0  1  0            999 V2000
   44.1090   -2.9930   26.0760 C   0  0  0  0  0  0
   43.2660   -3.5420   27.0310 C   0  0  0  0  0  0
   43.0600   -2.9090   28.2600 C   0  0  0  0  0  0
   43.7190   -1.7020   28.5170 C   0  0  0  0  0  0
   44.5590   -1.1660   27.5490 C   0  0  0  0  0  0
   44.7500   -1.8000   26.3490 C   0  0  0  0  0  0
   42.1620   -3.5280   29.2170 C   0  0  0  0  0  0
   44.3430   -3.6710   24.8260 C   0  0  0  0  0  0
   43.6110   -0.9890   29.6540 O   0  0  0  0  0  0
   44.8000   -2.9900   23.7840 N   0  0  0  0  0  0
   44.1020   -4.9700   24.7200 N   0  3  0  0  0  0
   41.8780   -3.0520   30.3930 N   0  3  0  0  0  0
   40.9480   -3.8090   31.2190 C   0  0  1  0  0  0
   41.6450   -5.0310   31.8120 C   0  0  0  0  0  0
   40.3980   -2.9300   32.3310 C   0  0  0  0  0  0
   39.3270   -3.2390   32.8580 O   0  0  0  0  0  0
   41.1050   -1.9020   32.6520 O   0  5  0  0  0  0
   42.7561   -4.4819   26.8197 H   0  0  0  0  0  0
   45.0744   -0.2262   27.7470 H   0  0  0  0  0  0
   45.4128   -1.3595   25.6042 H   0  0  0  0  0  0
   41.7077   -4.4719   28.8813 H   0  0  0  0  0  0
   42.9647   -1.3475   30.4687 H   0  0  0  0  0  0
   44.9988   -1.9120   23.8758 H   0  0  0  0  0  0
   44.9803   -3.5031   22.8278 H   0  0  0  0  0  0
   43.7229   -5.5316   25.5866 H   0  0  0  0  0  0
   40.1313   -4.1230   30.5524 H   0  0  0  0  0  0
   42.0385   -5.6590   30.9992 H   0  0  0  0  0  0
   40.9246   -5.6110   32.4075 H   0  0  0  0  0  0
   42.4740   -4.7034   32.4565 H   0  0  0  0  0  0
   42.3355   -2.1103   30.7303 H   0  0  0  0  0  0
   44.2810   -5.4865   23.7655 H   0  0  0  0  0  0
  1  8  1  0  0  0
  1  6  2  0  0  0
  1  2  1  0  0  0
  2  3  2  0  0  0
  2 18  1  0  0  0
  3  7  1  0  0  0
  3  4  1  0  0  0
  4  9  1  0  0  0
  4  5  2  0  0  0
  5  6  1  0  0  0
  5 19  1  0  0  0
  6 20  1  0  0  0
  7 12  2  0  0  0
  7 21  1  0  0  0
  8 11  2  0  0  0
  8 10  1  0  0  0
  9 22  1  0  0  0
 10 23  1  0  0  0
 10 24  1  0  0  0
 11 25  1  0  0  0
 11 31  1  0  0  0
 12 13  1  0  0  0
 12 30  1  0  0  0
 13 15  1  0  0  0
 13 14  1  0  0  0
 13 26  1  0  0  0
 14 27  1  0  0  0
 14 28  1  0  0  0
 14 29  1  0  0  0
 15 17  1  0  0  0
 15 16  2  0  0  0
M  CHG  3  11   1  12   1  17  -1
M  END
> <s_m_source_file>
../1g3b_ligand.sdf

> <i_m_source_file_index>
1

> <s_epik_input>
W0hdXE49QyhbTkgyXSlcYzFbY0hdYyhjKFtPSF0pW2NIXVtjSF0xKS9bQ0hdPU4vW0NAQEhdKFtDSDNdKUMoPU8pW09IXQ==

> <s_epik_cmdline>
J2VwaWtfYXBwJywgJy1pbWFlJywgJ2xpZ2FuZF9wcm8ubWFlJywgJy1vbWFlJywgJ2xpZ2FuZF9wcmVwLm1hZScsICctbXMnLCAnMScsICctcGgnLCAnNycsICctcGh0JywgJzAuNScsICctbnQn

> <r_lp_tautomer_probability>
1

> <r_epik_Ionization_Penalty>
  0.1623

> <r_epik_Ionization_Penalty_Charging>
  0.0098

> <r_epik_Ionization_Penalty_Neutral>
  0.1525

> <r_epik_State_Penalty>
 -0.0000

> <r_epik_Charging_Adjusted_Penalty>
0.00979234395818687

> <i_epik_Tot_Q>
1

> <i_epik_Tot_abs_Q>
3

> <s_epik_Chemistry_Notes>
This compound has an imine and may undergo hydrolysis.

$$$$
