1g3c_ligand
                    3D
 Schrodinger Suite 2020-3.
 31 31  0  0  1  0            999 V2000
   43.7760   -2.9840   26.3340 C   0  0  0  0  0  0
   42.6870   -3.4910   27.0250 C   0  0  0  0  0  0
   42.1470   -2.8120   28.1190 C   0  0  0  0  0  0
   42.7050   -1.5930   28.5210 C   0  0  0  0  0  0
   43.8020   -1.0980   27.8230 C   0  0  0  0  0  0
   44.3300   -1.7810   26.7420 C   0  0  0  0  0  0
   42.1720   -0.8230   29.6300 C   0  0  0  0  0  0
   44.3230   -3.6950   25.1950 C   0  0  0  0  0  0
   41.0910   -3.4080   28.7090 O   0  0  0  0  0  0
   44.3660   -5.0210   25.1850 N   0  3  0  0  0  0
   44.7760   -3.0120   24.1510 N   0  0  0  0  0  0
   41.1490   -1.1790   30.3540 N   0  3  0  0  0  0
   40.7150   -0.2720   31.4140 C   0  0  1  0  0  0
   39.8550    0.8360   30.8140 C   0  0  0  0  0  0
   39.9250   -1.0200   32.4830 C   0  0  0  0  0  0
   39.9130   -0.5670   33.6350 O   0  0  0  0  0  0
   39.3100   -2.0870   32.1030 O   0  5  0  0  0  0
   42.2446   -4.4358   26.7091 H   0  0  0  0  0  0
   44.2533   -0.1556   28.1333 H   0  0  0  0  0  0
   45.1869   -1.3705   26.2079 H   0  0  0  0  0  0
   42.6950    0.1209   29.8434 H   0  0  0  0  0  0
   40.7170   -4.3689   28.3260 H   0  0  0  0  0  0
   43.9914   -5.5900   26.0487 H   0  0  0  0  0  0
   44.7418   -1.9125   24.1562 H   0  0  0  0  0  0
   45.1857   -3.5454   23.2806 H   0  0  0  0  0  0
   41.6321    0.1406   31.8597 H   0  0  0  0  0  0
   40.4307    1.3709   30.0443 H   0  0  0  0  0  0
   39.5590    1.5399   31.6058 H   0  0  0  0  0  0
   38.9552    0.3961   30.3593 H   0  0  0  0  0  0
   40.6423   -2.1354   30.1575 H   0  0  0  0  0  0
   44.7763   -5.5514   24.3130 H   0  0  0  0  0  0
  1  2  2  0  0  0
  1  6  1  0  0  0
  1  8  1  0  0  0
  2  3  1  0  0  0
  2 18  1  0  0  0
  3  4  2  0  0  0
  3  9  1  0  0  0
  4  5  1  0  0  0
  4  7  1  0  0  0
  5  6  2  0  0  0
  5 19  1  0  0  0
  6 20  1  0  0  0
  7 12  2  0  0  0
  7 21  1  0  0  0
  8 10  2  0  0  0
  8 11  1  0  0  0
  9 22  1  0  0  0
 10 23  1  0  0  0
 10 31  1  0  0  0
 11 24  1  0  0  0
 11 25  1  0  0  0
 12 13  1  0  0  0
 12 30  1  0  0  0
 13 14  1  0  0  0
 13 15  1  0  0  0
 13 26  1  0  0  0
 14 27  1  0  0  0
 14 28  1  0  0  0
 14 29  1  0  0  0
 15 16  2  0  0  0
 15 17  1  0  0  0
M  CHG  3  10   1  12   1  17  -1
M  END
> <s_m_source_file>
../1g3c_ligand.sdf

> <i_m_source_file_index>
1

> <s_epik_input>
W0hdXE49QyhbTkgyXSlcYzFbY0hdYyhbT0hdKWMoW2NIXVtjSF0xKS9bQ0hdPU4vW0NAQEhdKFtDSDNdKUMoPU8pW09IXQ==

> <s_epik_cmdline>
J2VwaWtfYXBwJywgJy1pbWFlJywgJ2xpZ2FuZF9wcm8ubWFlJywgJy1vbWFlJywgJ2xpZ2FuZF9wcmVwLm1hZScsICctbXMnLCAnMScsICctcGgnLCAnNycsICctcGh0JywgJzAuNScsICctbnQn

> <r_epik_Ionization_Penalty>
  0.1773

> <r_epik_Ionization_Penalty_Charging>
  0.0004

> <r_epik_Ionization_Penalty_Neutral>
  0.1769

> <r_epik_State_Penalty>
  0.1664

> <r_epik_Charging_Adjusted_Penalty>
0.166789649034502

> <i_epik_Tot_Q>
1

> <i_epik_Tot_abs_Q>
3

> <s_epik_Chemistry_Notes>
This compound has an imine and may undergo hydrolysis.

$$$$
