1g3d_ligand
                    3D
 Schrodinger Suite 2020-3.
 31 31  0  0  1  0            999 V2000
   43.9870   -2.6970   26.3260 C   0  0  0  0  0  0
   43.3470   -3.2410   27.4360 C   0  0  0  0  0  0
   43.1980   -2.5080   28.6200 C   0  0  0  0  0  0
   43.7030   -1.2100   28.6780 C   0  0  0  0  0  0
   44.3390   -0.6740   27.5640 C   0  0  0  0  0  0
   44.4800   -1.4050   26.4040 C   0  0  0  0  0  0
   42.5220   -3.1200   29.7500 C   0  0  0  0  0  0
   44.2130   -3.4920   25.1320 C   0  0  0  0  0  0
   43.6210   -0.4010   29.7540 O   0  0  0  0  0  0
   44.6130   -2.9060   24.0120 N   0  0  0  0  0  0
   44.0270   -4.8040   25.1560 N   0  3  0  0  0  0
   42.3180   -2.5430   30.9020 N   0  3  0  0  0  0
   41.6190   -3.3180   31.9250 C   0  0  1  0  0  0
   42.5800   -4.2920   32.5890 C   0  0  0  0  0  0
   40.9930   -2.4060   32.9730 C   0  0  0  0  0  0
   40.2610   -2.9110   33.8330 O   0  0  0  0  0  0
   41.2740   -1.1530   32.8900 O   0  5  0  0  0  0
   42.9545   -4.2565   27.3827 H   0  0  0  0  0  0
   44.7328    0.3414   27.6087 H   0  0  0  0  0  0
   44.9823   -0.9638   25.5431 H   0  0  0  0  0  0
   42.1709   -4.1485   29.5802 H   0  0  0  0  0  0
   43.1314   -0.7559   30.6729 H   0  0  0  0  0  0
   44.7690   -1.8174   23.9862 H   0  0  0  0  0  0
   44.7889   -3.5084   23.1086 H   0  0  0  0  0  0
   43.6952   -5.2956   26.0824 H   0  0  0  0  0  0
   40.8250   -3.8655   31.3959 H   0  0  0  0  0  0
   43.0262   -4.9453   31.8247 H   0  0  0  0  0  0
   42.0335   -4.9045   33.3213 H   0  0  0  0  0  0
   43.3753   -3.7306   33.1012 H   0  0  0  0  0  0
   42.6678   -1.5139   31.0713 H   0  0  0  0  0  0
   44.2044   -5.4013   24.2495 H   0  0  0  0  0  0
  1  8  1  0  0  0
  1  6  2  0  0  0
  1  2  1  0  0  0
  2  3  2  0  0  0
  2 18  1  0  0  0
  3  7  1  0  0  0
  3  4  1  0  0  0
  4  9  1  0  0  0
  4  5  2  0  0  0
  5  6  1  0  0  0
  5 19  1  0  0  0
  6 20  1  0  0  0
  7 12  2  0  0  0
  7 21  1  0  0  0
  8 11  2  0  0  0
  8 10  1  0  0  0
  9 22  1  0  0  0
 10 23  1  0  0  0
 10 24  1  0  0  0
 11 25  1  0  0  0
 11 31  1  0  0  0
 12 13  1  0  0  0
 12 30  1  0  0  0
 13 15  1  0  0  0
 13 14  1  0  0  0
 13 26  1  0  0  0
 14 27  1  0  0  0
 14 28  1  0  0  0
 14 29  1  0  0  0
 15 17  1  0  0  0
 15 16  2  0  0  0
M  CHG  3  11   1  12   1  17  -1
M  END
> <s_m_source_file>
../1g3d_ligand.sdf

> <i_m_source_file_index>
1

> <s_epik_input>
W0hdXE49QyhbTkgyXSlcYzFbY0hdYyhjKFtPSF0pW2NIXVtjSF0xKS9bQ0hdPU4vW0NAQEhdKFtDSDNdKUMoPU8pW09IXQ==

> <s_epik_cmdline>
J2VwaWtfYXBwJywgJy1pbWFlJywgJ2xpZ2FuZF9wcm8ubWFlJywgJy1vbWFlJywgJ2xpZ2FuZF9wcmVwLm1hZScsICctbXMnLCAnMScsICctcGgnLCAnNycsICctcGh0JywgJzAuNScsICctbnQn

> <r_lp_tautomer_probability>
1

> <r_epik_Ionization_Penalty>
  0.1623

> <r_epik_Ionization_Penalty_Charging>
  0.0098

> <r_epik_Ionization_Penalty_Neutral>
  0.1525

> <r_epik_State_Penalty>
 -0.0000

> <r_epik_Charging_Adjusted_Penalty>
0.00979234395818687

> <i_epik_Tot_Q>
1

> <i_epik_Tot_abs_Q>
3

> <s_epik_Chemistry_Notes>
This compound has an imine and may undergo hydrolysis.

$$$$
