1g3e_ligand
                    3D
 Schrodinger Suite 2020-3.
 31 31  0  0  1  0            999 V2000
   43.9090   -3.0280   26.3020 C   0  0  0  0  0  0
   43.0610   -3.6520   27.2020 C   0  0  0  0  0  0
   42.6050   -2.9890   28.3410 C   0  0  0  0  0  0
   43.0120   -1.6730   28.5850 C   0  0  0  0  0  0
   43.8640   -1.0600   27.6730 C   0  0  0  0  0  0
   44.3080   -1.7270   26.5500 C   0  0  0  0  0  0
   42.5750   -0.9240   29.7480 C   0  0  0  0  0  0
   44.2750   -3.6840   25.0640 C   0  0  0  0  0  0
   41.7830   -3.7040   29.1340 O   0  0  0  0  0  0
   44.6660   -2.9650   24.0210 N   0  0  0  0  0  0
   44.2170   -5.0050   24.9720 N   0  3  0  0  0  0
   41.7780   -1.3900   30.6640 N   0  3  0  0  0  0
   41.4160   -0.5250   31.7830 C   0  0  1  0  0  0
   40.0620    0.1260   31.5190 C   0  0  0  0  0  0
   41.3650   -1.3380   33.0730 C   0  0  0  0  0  0
   42.1840   -1.0980   33.9710 O   0  0  0  0  0  0
   40.4490   -2.2430   33.1320 O   0  5  0  0  0  0
   42.7447   -4.6786   27.0169 H   0  0  0  0  0  0
   44.1869   -0.0338   27.8486 H   0  0  0  0  0  0
   44.9785   -1.2248   25.8526 H   0  0  0  0  0  0
   42.9635    0.1021   29.8271 H   0  0  0  0  0  0
   41.5164   -4.7359   28.8618 H   0  0  0  0  0  0
   44.7146   -1.8686   24.0959 H   0  0  0  0  0  0
   44.9418   -3.4648   23.0807 H   0  0  0  0  0  0
   43.8928   -5.6028   25.8366 H   0  0  0  0  0  0
   42.1982    0.2452   31.8527 H   0  0  0  0  0  0
   40.1108    0.7089   30.5874 H   0  0  0  0  0  0
   39.8064    0.7927   32.3557 H   0  0  0  0  0  0
   39.2925   -0.6542   31.4235 H   0  0  0  0  0  0
   41.3911   -2.4168   30.5859 H   0  0  0  0  0  0
   44.4931   -5.5035   24.0311 H   0  0  0  0  0  0
  1  8  1  0  0  0
  1  6  2  0  0  0
  1  2  1  0  0  0
  2  3  2  0  0  0
  2 18  1  0  0  0
  3  9  1  0  0  0
  3  4  1  0  0  0
  4  7  1  0  0  0
  4  5  2  0  0  0
  5  6  1  0  0  0
  5 19  1  0  0  0
  6 20  1  0  0  0
  7 12  2  0  0  0
  7 21  1  0  0  0
  8 11  2  0  0  0
  8 10  1  0  0  0
  9 22  1  0  0  0
 10 23  1  0  0  0
 10 24  1  0  0  0
 11 25  1  0  0  0
 11 31  1  0  0  0
 12 13  1  0  0  0
 12 30  1  0  0  0
 13 15  1  0  0  0
 13 14  1  0  0  0
 13 26  1  0  0  0
 14 27  1  0  0  0
 14 28  1  0  0  0
 14 29  1  0  0  0
 15 17  1  0  0  0
 15 16  2  0  0  0
M  CHG  3  11   1  12   1  17  -1
M  END
> <s_m_source_file>
../1g3e_ligand.sdf

> <i_m_source_file_index>
1

> <s_epik_input>
W0hdXE49QyhbTkgyXSlcYzFbY0hdYyhbT0hdKWMoW2NIXVtjSF0xKS9bQ0hdPU4vW0NAQEhdKFtDSDNdKUMoPU8pW09IXQ==

> <s_epik_cmdline>
J2VwaWtfYXBwJywgJy1pbWFlJywgJ2xpZ2FuZF9wcm8ubWFlJywgJy1vbWFlJywgJ2xpZ2FuZF9wcmVwLm1hZScsICctbXMnLCAnMScsICctcGgnLCAnNycsICctcGh0JywgJzAuNScsICctbnQn

> <r_epik_Ionization_Penalty>
  0.1773

> <r_epik_Ionization_Penalty_Charging>
  0.0004

> <r_epik_Ionization_Penalty_Neutral>
  0.1769

> <r_epik_State_Penalty>
  0.1664

> <r_epik_Charging_Adjusted_Penalty>
0.166789649034506

> <i_epik_Tot_Q>
1

> <i_epik_Tot_abs_Q>
3

> <s_epik_Chemistry_Notes>
This compound has an imine and may undergo hydrolysis.

$$$$
