1g3f_ligand
                    3D
 Schrodinger Suite 2020-3.
137137  0  0  1  0            999 V2000
   -7.2600   -9.8710    2.0050 N   0  3  0  0  0  0
   -5.9270  -10.2820    2.5150 C   0  0  2  0  0  0
   -5.9630  -10.5090    4.0220 C   0  0  0  0  0  0
   -6.5500   -9.7210    4.7650 O   0  0  0  0  0  0
   -4.8820   -9.2340    2.1660 C   0  0  0  0  0  0
   -5.3320  -11.5900    4.4670 N   0  0  0  0  0  0
   -5.2920  -11.9200    5.8850 C   0  0  2  0  0  0
   -4.0830  -11.2820    6.5640 C   0  0  0  0  0  0
   -3.0380  -11.0920    5.9400 O   0  0  0  0  0  0
   -5.2600  -13.4470    6.1080 C   0  0  0  0  0  0
   -6.4770  -14.1010    5.4720 C   0  0  0  0  0  0
   -3.9790  -14.0580    5.5550 C   0  0  0  0  0  0
   -4.2110  -10.9400    7.8550 N   0  0  0  0  0  0
   -3.1250  -10.3180    8.6200 C   0  0  2  0  0  0
   -2.0130  -11.3040    8.9590 C   0  0  0  0  0  0
   -2.2410  -12.2980    9.6490 O   0  0  0  0  0  0
   -3.8230   -9.8400    9.8940 C   0  0  0  0  0  0
   -4.9800  -10.7640   10.0590 C   0  0  0  0  0  0
   -5.4250  -11.1310    8.6690 C   0  0  0  0  0  0
   -0.8080  -11.0220    8.4710 N   0  0  0  0  0  0
    0.3410  -11.8850    8.7240 C   0  0  2  0  0  0
    0.4420  -12.2430   10.2040 C   0  0  0  0  0  0
    0.0280  -13.3250   10.6160 O   0  0  0  0  0  0
    1.6550  -11.2190    8.2710 C   0  0  2  0  0  0
    1.7630  -11.2380    6.7450 C   0  0  0  0  0  0
    2.8490  -11.9200    8.9020 C   0  0  0  0  0  0
    3.0030  -10.5480    6.2180 C   0  0  0  0  0  0
    0.9900  -11.3250   10.9990 N   0  0  0  0  0  0
    1.1420  -11.5410   12.4350 C   0  0  2  0  0  0
    2.0140  -12.7610   12.7270 C   0  0  0  0  0  0
    3.2120  -12.6290   12.9760 O   0  0  0  0  0  0
   -0.2220  -11.6850   13.0950 C   0  0  0  0  0  0
    1.4070  -13.9460   12.6940 N   0  0  0  0  0  0
    2.1280  -15.1870   12.9550 C   0  0  2  0  0  0
    2.6910  -15.2040   14.3760 C   0  0  0  0  0  0
    2.0780  -15.7720   15.2770 O   0  0  0  0  0  0
    3.2500  -15.3810   11.9310 C   0  0  0  0  0  0
    4.1770  -16.5400   12.2570 C   0  0  0  0  0  0
    5.5910  -16.0880   12.5650 C   0  0  0  0  0  0
    6.1990  -15.3450   11.7940 O   0  0  0  0  0  0
    6.1210  -16.5350   13.6970 N   0  0  0  0  0  0
    3.8540  -14.5700   14.5620 N   0  0  0  0  0  0
    4.5170  -14.4940   15.8680 C   0  0  2  0  0  0
    4.4320  -15.8190   16.6360 C   0  0  0  0  0  0
    5.3030  -16.6760   16.4920 O   0  0  0  0  0  0
    3.9370  -13.3440   16.7020 C   0  0  0  0  0  0
    2.5650  -12.8810   16.2390 C   0  0  0  0  0  0
    2.0350  -11.7510   17.1060 C   0  0  0  0  0  0
    0.5800  -11.9770   17.4840 C   0  0  0  0  0  0
    0.4480  -12.7280   18.7620 N   0  3  0  0  0  0
    3.3870  -15.9890   17.4490 N   0  0  0  0  0  0
    3.2160  -17.2140   18.2220 C   0  0  2  0  0  0
    1.7570  -17.4030   18.6260 C   0  0  0  0  0  0
    1.3000  -16.8350   19.6180 O   0  0  0  0  0  0
    4.1030  -17.1810   19.4680 C   0  0  0  0  0  0
    5.3130  -16.4890   19.2160 O   0  0  0  0  0  0
    1.0320  -18.2040   17.8520 N   0  0  0  0  0  0
   -0.3760  -18.4670   18.1320 C   0  0  2  0  0  0
   -0.7310  -19.9180   17.8200 C   0  0  0  0  0  0
   -1.4130  -20.5510   18.6530 O   0  5  0  0  0  0
   -1.2650  -17.5260   17.3170 C   0  0  0  0  0  0
   -2.0100  -16.5080   18.1640 C   0  0  0  0  0  0
   -2.6410  -15.4080   17.3320 C   0  0  0  0  0  0
   -3.3690  -15.7340   16.3710 O   0  0  0  0  0  0
   -2.4080  -14.2210   17.6430 O   0  5  0  0  0  0
   -0.3240  -20.4080   16.7460 O   0  0  0  0  0  0
   -8.0044  -10.6380    2.2648 H   0  0  0  0  0  0
   -7.2156   -9.7586    0.9117 H   0  0  0  0  0  0
   -7.5472   -8.9120    2.4608 H   0  0  0  0  0  0
   -5.6776  -11.2302    2.0163 H   0  0  0  0  0  0
   -4.8666   -9.0801    1.0769 H   0  0  0  0  0  0
   -3.8923   -9.5770    2.5019 H   0  0  0  0  0  0
   -5.1312   -8.2868    2.6667 H   0  0  0  0  0  0
   -4.8321  -12.2426    3.7361 H   0  0  0  0  0  0
   -6.2213  -11.4875    6.2843 H   0  0  0  0  0  0
   -5.2845  -13.6476    7.1893 H   0  0  0  0  0  0
   -7.3923  -13.6489    5.8817 H   0  0  0  0  0  0
   -6.4706  -15.1789    5.6913 H   0  0  0  0  0  0
   -6.4483  -13.9481    4.3831 H   0  0  0  0  0  0
   -3.1097  -13.5745    6.0246 H   0  0  0  0  0  0
   -3.9400  -13.9050    4.4664 H   0  0  0  0  0  0
   -3.9623  -15.1357    5.7746 H   0  0  0  0  0  0
   -2.6525   -9.5235    8.0238 H   0  0  0  0  0  0
   -3.1242   -9.9043   10.7411 H   0  0  0  0  0  0
   -4.1477   -8.7970    9.7649 H   0  0  0  0  0  0
   -4.6609  -11.6544   10.6206 H   0  0  0  0  0  0
   -5.7829  -10.2516   10.6094 H   0  0  0  0  0  0
   -6.2229  -10.4711    8.2978 H   0  0  0  0  0  0
   -5.7530  -12.1786    8.5981 H   0  0  0  0  0  0
   -0.6897  -10.1126    7.8635 H   0  0  0  0  0  0
    0.1362  -12.7866    8.1281 H   0  0  0  0  0  0
    1.6641  -10.1710    8.6052 H   0  0  0  0  0  0
    1.7911  -12.2796    6.3924 H   0  0  0  0  0  0
    0.8918  -10.7268    6.3093 H   0  0  0  0  0  0
    2.7519  -11.8952    9.9974 H   0  0  0  0  0  0
    3.7751  -11.4065    8.6042 H   0  0  0  0  0  0
    2.8831  -12.9651    8.5605 H   0  0  0  0  0  0
    3.0131  -10.6009    5.1193 H   0  0  0  0  0  0
    3.8981  -11.0473    6.6174 H   0  0  0  0  0  0
    2.9988   -9.4945    6.5344 H   0  0  0  0  0  0
    1.3324  -10.3833   10.5452 H   0  0  0  0  0  0
    1.6471  -10.6406   12.8146 H   0  0  0  0  0  0
   -0.8325  -10.7975   12.8724 H   0  0  0  0  0  0
   -0.0945  -11.7788   14.1836 H   0  0  0  0  0  0
   -0.7246  -12.5828   12.7060 H   0  0  0  0  0  0
    0.3321  -13.9728   12.4621 H   0  0  0  0  0  0
    1.3798  -15.9864   12.8494 H   0  0  0  0  0  0
    2.8128  -15.5784   10.9411 H   0  0  0  0  0  0
    3.8658  -14.4707   11.8849 H   0  0  0  0  0  0
    3.7956  -17.0781   13.1373 H   0  0  0  0  0  0
    4.2217  -17.2264   11.3986 H   0  0  0  0  0  0
    5.5377  -17.1974   14.3535 H   0  0  0  0  0  0
    7.1435  -16.2430   13.9785 H   0  0  0  0  0  0
    4.3132  -14.0932   13.6835 H   0  0  0  0  0  0
    5.5728  -14.2944   15.6327 H   0  0  0  0  0  0
    3.8368  -13.6649   17.7494 H   0  0  0  0  0  0
    4.6100  -12.4757   16.6473 H   0  0  0  0  0  0
    2.6301  -12.5217   15.2014 H   0  0  0  0  0  0
    1.8571  -13.7213   16.2923 H   0  0  0  0  0  0
    2.6295  -11.6875   18.0293 H   0  0  0  0  0  0
    2.1091  -10.8012   16.5561 H   0  0  0  0  0  0
    0.0767  -11.0060   17.6019 H   0  0  0  0  0  0
    0.0809  -12.5549   16.6922 H   0  0  0  0  0  0
   -0.6175  -12.8685   18.9963 H   0  0  0  0  0  0
    0.9299  -12.1608   19.5720 H   0  0  0  0  0  0
    0.9341  -13.7097   18.6623 H   0  0  0  0  0  0
    2.6457  -15.1802   17.5289 H   0  0  0  0  0  0
    3.5224  -18.0308   17.5519 H   0  0  0  0  0  0
    3.5701  -16.6710   20.2840 H   0  0  0  0  0  0
    4.3439  -18.2098   19.7740 H   0  0  0  0  0  0
    6.0602  -16.3784   20.0157 H   0  0  0  0  0  0
    1.5170  -18.6732   16.9833 H   0  0  0  0  0  0
   -0.5015  -18.2780   19.2084 H   0  0  0  0  0  0
   -0.6464  -16.9668   16.5997 H   0  0  0  0  0  0
   -2.0181  -18.1137   16.7716 H   0  0  0  0  0  0
   -2.8127  -17.0124   18.7219 H   0  0  0  0  0  0
   -1.3111  -16.0379   18.8715 H   0  0  0  0  0  0
  1  2  1  0  0  0
  1 67  1  0  0  0
  1 68  1  0  0  0
  1 69  1  0  0  0
  2  3  1  0  0  0
  2  5  1  0  0  0
  2 70  1  0  0  0
  3  4  2  0  0  0
  3  6  1  0  0  0
  5 71  1  0  0  0
  5 72  1  0  0  0
  5 73  1  0  0  0
  6  7  1  0  0  0
  6 74  1  0  0  0
  7  8  1  0  0  0
  7 10  1  0  0  0
  7 75  1  0  0  0
  8  9  2  0  0  0
  8 13  1  0  0  0
 10 11  1  0  0  0
 10 12  1  0  0  0
 10 76  1  0  0  0
 11 77  1  0  0  0
 11 78  1  0  0  0
 11 79  1  0  0  0
 12 80  1  0  0  0
 12 81  1  0  0  0
 12 82  1  0  0  0
 13 14  1  0  0  0
 13 19  1  0  0  0
 14 15  1  0  0  0
 14 17  1  0  0  0
 14 83  1  0  0  0
 15 16  2  0  0  0
 15 20  1  0  0  0
 17 18  1  0  0  0
 17 84  1  0  0  0
 17 85  1  0  0  0
 18 19  1  0  0  0
 18 86  1  0  0  0
 18 87  1  0  0  0
 19 88  1  0  0  0
 19 89  1  0  0  0
 20 21  1  0  0  0
 20 90  1  0  0  0
 21 22  1  0  0  0
 21 24  1  0  0  0
 21 91  1  0  0  0
 22 23  2  0  0  0
 22 28  1  0  0  0
 24 25  1  0  0  0
 24 26  1  0  0  0
 24 92  1  0  0  0
 25 27  1  0  0  0
 25 93  1  0  0  0
 25 94  1  0  0  0
 26 95  1  0  0  0
 26 96  1  0  0  0
 26 97  1  0  0  0
 27 98  1  0  0  0
 27 99  1  0  0  0
 27100  1  0  0  0
 28 29  1  0  0  0
 28101  1  0  0  0
 29 30  1  0  0  0
 29 32  1  0  0  0
 29102  1  0  0  0
 30 31  2  0  0  0
 30 33  1  0  0  0
 32103  1  0  0  0
 32104  1  0  0  0
 32105  1  0  0  0
 33 34  1  0  0  0
 33106  1  0  0  0
 34 35  1  0  0  0
 34 37  1  0  0  0
 34107  1  0  0  0
 35 36  2  0  0  0
 35 42  1  0  0  0
 37 38  1  0  0  0
 37108  1  0  0  0
 37109  1  0  0  0
 38 39  1  0  0  0
 38110  1  0  0  0
 38111  1  0  0  0
 39 40  2  0  0  0
 39 41  1  0  0  0
 41112  1  0  0  0
 41113  1  0  0  0
 42 43  1  0  0  0
 42114  1  0  0  0
 43 44  1  0  0  0
 43 46  1  0  0  0
 43115  1  0  0  0
 44 45  2  0  0  0
 44 51  1  0  0  0
 46 47  1  0  0  0
 46116  1  0  0  0
 46117  1  0  0  0
 47 48  1  0  0  0
 47118  1  0  0  0
 47119  1  0  0  0
 48 49  1  0  0  0
 48120  1  0  0  0
 48121  1  0  0  0
 49 50  1  0  0  0
 49122  1  0  0  0
 49123  1  0  0  0
 50124  1  0  0  0
 50125  1  0  0  0
 50126  1  0  0  0
 51 52  1  0  0  0
 51127  1  0  0  0
 52 53  1  0  0  0
 52 55  1  0  0  0
 52128  1  0  0  0
 53 54  2  0  0  0
 53 57  1  0  0  0
 55 56  1  0  0  0
 55129  1  0  0  0
 55130  1  0  0  0
 56131  1  0  0  0
 57 58  1  0  0  0
 57132  1  0  0  0
 58 59  1  0  0  0
 58 61  1  0  0  0
 58133  1  0  0  0
 59 60  1  0  0  0
 59 66  2  0  0  0
 61 62  1  0  0  0
 61134  1  0  0  0
 61135  1  0  0  0
 62 63  1  0  0  0
 62136  1  0  0  0
 62137  1  0  0  0
 63 64  2  0  0  0
 63 65  1  0  0  0
M  CHG  4   1   1  50   1  60  -1  65  -1
M  END
> <s_m_source_file>
../1g3f_ligand.sdf

> <i_m_source_file_index>
1

> <s_epik_input>
W05IMytdW0NAQEhdKFtDSDNdKUMoPU8pW05IXVtDQEBIXShbQ0hdKFtDSDNdKVtDSDNdKUMoPU8pTjFbQ0BASF0oW0NIMl1bQ0gyXVtDSDJdMSlDKD1PKVtOSF1bQ0BASF0oW0NAQEhdKFtDSDNdKVtDSDJdW0NIM10pQyg9TylbTkhdW0NAQEhdKFtDSDNdKUMoPU8pW05IXVtDQEBIXShbQ0gyXVtDSDJdQyg9TylbTkgyXSlDKD1PKVtOSF1bQ0BASF0oW0NIMl1bQ0gyXVtDSDJdW0NIMl1bTkgzK10pQyg9TylbTkhdW0NAQEhdKFtDSDJdW09IXSlDKD1PKVtOSF1bQ0BIXShDKD1PKVtPSF0pW0NIMl1bQ0gyXUMoPU8pW09IXQ==

> <s_epik_cmdline>
J2VwaWtfYXBwJywgJy1pbWFlJywgJ2xpZ2FuZF9wcm8ubWFlJywgJy1vbWFlJywgJ2xpZ2FuZF9wcmVwLm1hZScsICctbXMnLCAnMScsICctcGgnLCAnNycsICctcGh0JywgJzAuNScsICctbnQn

> <r_epik_Ionization_Penalty>
  0.1226

> <r_epik_Ionization_Penalty_Charging>
  0.1226

> <r_epik_Ionization_Penalty_Neutral>
  0.0000

> <r_epik_State_Penalty>
  0.1080

> <r_epik_Charging_Adjusted_Penalty>
0.230613107408084

> <i_epik_Tot_Q>
0

> <i_epik_Tot_abs_Q>
4

$$$$
