1g3m_ligand
                    3D
 Schrodinger Suite 2020-3.
 23 24  0  0  1  0            999 V2000
   31.8240    2.9030    8.6280 Cl  0  0  0  0  0  0
   29.6280    5.7520    4.4520 Cl  0  0  0  0  0  0
   30.9280    5.4670    7.1140 O   0  5  0  0  0  0
   30.2260    1.7540    4.9940 C   0  0  0  0  0  0
   30.8760    1.7610    6.3870 C   0  0  0  0  0  0
   31.0950    2.9840    7.0640 C   0  0  0  0  0  0
   30.7280    4.2690    6.4930 C   0  0  0  0  0  0
   30.1060    4.2530    5.1780 C   0  0  0  0  0  0
   29.8670    3.0510    4.4610 C   0  0  0  0  0  0
   27.3370   -0.8610    1.4670 Cl  0  0  0  0  0  0
   31.5230   -3.3210    3.9350 Cl  0  0  0  0  0  0
   29.2270   -3.1760    2.0640 O   0  0  0  0  0  0
   29.9760    0.4660    4.2370 C   0  0  0  0  0  0
   28.8950    0.3630    3.2850 C   0  0  0  0  0  0
   28.6500   -0.8350    2.5720 C   0  0  0  0  0  0
   29.4480   -2.0150    2.7400 C   0  0  0  0  0  0
   30.5340   -1.9300    3.6900 C   0  0  0  0  0  0
   30.8020   -0.7340    4.4230 C   0  0  0  0  0  0
   31.1691    0.8210    6.8546 H   0  0  0  0  0  0
   29.3985    3.1067    3.4784 H   0  0  0  0  0  0
   28.4010   -3.2426    1.3406 H   0  0  0  0  0  0
   28.2535    1.2270    3.1116 H   0  0  0  0  0  0
   31.6311   -0.7115    5.1303 H   0  0  0  0  0  0
  1  6  1  0  0  0
  2  8  1  0  0  0
  3  7  1  0  0  0
  4  5  2  0  0  0
  4  9  1  0  0  0
  4 13  1  0  0  0
  5  6  1  0  0  0
  5 19  1  0  0  0
  6  7  2  0  0  0
  7  8  1  0  0  0
  8  9  2  0  0  0
  9 20  1  0  0  0
 10 15  1  0  0  0
 11 17  1  0  0  0
 12 16  1  0  0  0
 12 21  1  0  0  0
 13 14  2  0  0  0
 13 18  1  0  0  0
 14 15  1  0  0  0
 14 22  1  0  0  0
 15 16  2  0  0  0
 16 17  1  0  0  0
 17 18  2  0  0  0
 18 23  1  0  0  0
M  CHG  1   3  -1
M  END
> <s_m_source_file>
../1g3m_ligand.sdf

> <i_m_source_file_index>
1

> <s_epik_input>
Q2xjKFtjSF0xKWMoW09IXSljKENsKVtjSF1jMS1jMltjSF1jKENsKWMoW09IXSljKENsKVtjSF0y

> <s_epik_cmdline>
J2VwaWtfYXBwJywgJy1pbWFlJywgJ2xpZ2FuZF9wcm8ubWFlJywgJy1vbWFlJywgJ2xpZ2FuZF9wcmVwLm1hZScsICctbXMnLCAnMScsICctcGgnLCAnNycsICctcGh0JywgJzAuNScsICctbnQn

> <r_lp_tautomer_probability>
0.999999999997365

> <r_epik_Ionization_Penalty>
  0.6153

> <r_epik_Ionization_Penalty_Charging>
  0.3422

> <r_epik_Ionization_Penalty_Neutral>
  0.2731

> <r_epik_State_Penalty>
  0.5021

> <r_epik_Charging_Adjusted_Penalty>
0.844255826136187

> <i_epik_Tot_Q>
-1

> <i_epik_Tot_abs_Q>
1

$$$$
