1g46_ligand
                    3D
 Schrodinger Suite 2020-3.
 34 35  0  0  1  0            999 V2000
   -3.7760    3.4840   14.8430 C   0  0  0  0  0  0
   -4.1720    2.3500   15.5910 C   0  0  0  0  0  0
   -5.5470    2.2440   15.9710 C   0  0  0  0  0  0
   -6.4400    3.2680   15.5950 C   0  0  0  0  0  0
   -5.9960    4.3740   14.8560 C   0  0  0  0  0  0
   -4.6820    4.4900   14.4760 C   0  0  0  0  0  0
   -4.2030    5.6770   13.6740 C   0  0  0  0  0  0
   -4.9920    6.5560   13.3470 O   0  0  0  0  0  0
   -2.8760    5.7480   13.3320 N   0  0  0  0  0  0
   -2.1590    6.7810   12.5860 C   0  0  0  0  0  0
   -6.0790    0.8210   16.8920 S   0  0  0  0  0  0
   -5.6770   -0.5870   16.0830 N   0  0  0  0  0  0
   -7.5130    1.0660   17.0180 O   0  0  0  0  0  0
   -5.4220    1.0020   18.1930 O   0  0  0  0  0  0
   -1.6020    7.8570   13.3630 C   0  0  0  0  0  0
   -1.9250    7.9340   14.7600 C   0  0  0  0  0  0
   -1.3710    9.0150   15.5610 C   0  0  0  0  0  0
   -0.5050    9.9880   14.9340 C   0  0  0  0  0  0
   -0.1790    9.9230   13.5560 C   0  0  0  0  0  0
   -0.7250    8.8540   12.7540 C   0  0  0  0  0  0
    0.3700   10.5560   13.1960 F   0  0  0  0  0  0
   -0.4600    8.8140   11.6700 F   0  0  0  0  0  0
   -2.7327    3.5789   14.5421 H   0  0  0  0  0  0
   -3.4514    1.5809   15.8691 H   0  0  0  0  0  0
   -7.4892    3.1992   15.8824 H   0  0  0  0  0  0
   -6.7054    5.1538   14.5790 H   0  0  0  0  0  0
   -2.3364    4.8658   13.7070 H   0  0  0  0  0  0
   -1.3135    6.3257   12.0496 H   0  0  0  0  0  0
   -2.8414    7.2515   11.8629 H   0  0  0  0  0  0
   -6.0142   -1.4552   16.6683 H   0  0  0  0  0  0
   -4.5860   -0.6352   15.9509 H   0  0  0  0  0  0
   -2.5786    7.1902   15.2158 H   0  0  0  0  0  0
   -1.6065    9.0904   16.6226 H   0  0  0  0  0  0
   -0.0907   10.7950   15.5383 H   0  0  0  0  0  0
  1  6  2  0  0  0
  1  2  1  0  0  0
  1 23  1  0  0  0
  2  3  2  0  0  0
  2 24  1  0  0  0
  3 11  1  0  0  0
  3  4  1  0  0  0
  4  5  2  0  0  0
  4 25  1  0  0  0
  5  6  1  0  0  0
  5 26  1  0  0  0
  6  7  1  0  0  0
  7  9  1  0  0  0
  7  8  2  0  0  0
  9 10  1  0  0  0
  9 27  1  0  0  0
 10 15  1  0  0  0
 10 28  1  0  0  0
 10 29  1  0  0  0
 11 14  2  0  0  0
 11 13  2  0  0  0
 11 12  1  0  0  0
 12 30  1  0  0  0
 12 31  1  0  0  0
 15 20  2  0  0  0
 15 16  1  0  0  0
 16 17  2  0  0  0
 16 32  1  0  0  0
 17 18  1  0  0  0
 17 33  1  0  0  0
 18 19  2  0  0  0
 18 34  1  0  0  0
 19 20  1  0  0  0
 19 21  1  0  0  0
 20 22  1  0  0  0
M  END
> <s_m_source_file>
../1g46_ligand.sdf

> <i_m_source_file_index>
1

> <s_epik_input>
W05IMl1TKD1PKSg9TyljMVtjSF1bY0hdYyhbY0hdW2NIXTEpQyg9TylbTkhdW0NIMl1jMltjSF1bY0hdW2NIXWMoRiljMkY=

> <s_epik_cmdline>
J2VwaWtfYXBwJywgJy1pbWFlJywgJ2xpZ2FuZF9wcm8ubWFlJywgJy1vbWFlJywgJ2xpZ2FuZF9wcmVwLm1hZScsICctbXMnLCAnMScsICctcGgnLCAnNycsICctcGh0JywgJzAuNScsICctbnQn

> <r_lp_tautomer_probability>
1

> <r_epik_Ionization_Penalty>
  0.0012

> <r_epik_Ionization_Penalty_Charging>
  0.0000

> <r_epik_Ionization_Penalty_Neutral>
  0.0012

> <r_epik_State_Penalty>
 -0.0000

> <r_epik_Charging_Adjusted_Penalty>
0

> <i_epik_Tot_Q>
0

> <i_epik_Tot_abs_Q>
0

$$$$
