1g49_ligand
                    3D
 Schrodinger Suite 2020-3.
 53 54  0  0  1  0            999 V2000
    4.3950   55.0840   51.5310 O   0  0  0  0  0  0
    3.1250   54.1810   51.3220 S   0  0  0  0  0  0
    2.1900   54.2180   52.5890 O   0  0  0  0  0  0
    2.1730   54.7180   49.9180 C   0  0  0  0  0  0
    3.6540   52.5500   51.1160 N   0  0  3  0  0  0
    2.9630   51.4970   51.8730 C   0  0  2  0  0  0
    3.9190   50.5830   52.6640 C   0  0  0  0  0  0
    2.1910   50.5610   50.9400 C   0  0  0  0  0  0
    2.2670   49.1970   51.6050 C   0  0  2  0  0  0
    1.1340   49.2230   52.6100 C   0  0  0  0  0  0
    0.6970   50.4080   53.0830 O   0  0  0  0  0  0
    0.5450   48.0910   52.9570 N   0  0  0  0  0  0
   -0.6960   48.3180   53.5010 O   0  0  0  0  0  0
    3.6090   49.2190   52.1920 N   0  0  2  0  0  0
    4.1840   47.8170   53.0310 S   0  0  0  0  0  0
    3.7300   46.5320   52.2670 O   0  0  0  0  0  0
    5.7440   47.8370   52.9970 O   0  0  0  0  0  0
    3.6230   47.7150   54.6720 C   0  0  0  0  0  0
    3.9820   48.7310   55.5530 C   0  0  0  0  0  0
    3.6100   48.6780   56.8910 C   0  0  0  0  0  0
    2.8600   47.6070   57.3610 C   0  0  0  0  0  0
    2.5140   46.5770   56.5020 C   0  0  0  0  0  0
    2.8890   46.6280   55.1580 C   0  0  0  0  0  0
    2.5210   47.5680   58.5570 O   0  0  0  0  0  0
    3.3230   48.2770   59.5050 C   0  0  0  0  0  0
    2.9470   47.9500   60.9270 C   0  0  0  0  0  0
    3.2370   46.4960   61.3150 C   0  0  0  0  0  0
    3.1450   45.5400   60.1490 C   0  0  0  0  0  0
    2.8053   54.7010   49.0181 H   0  0  0  0  0  0
    1.8094   55.7416   50.0914 H   0  0  0  0  0  0
    1.3157   54.0434   49.7766 H   0  0  0  0  0  0
    4.5815   52.3178   50.5720 H   0  0  0  0  0  0
    2.3154   52.0869   52.5384 H   0  0  0  0  0  0
    4.9597   50.8643   52.4455 H   0  0  0  0  0  0
    3.7270   50.6961   53.7412 H   0  0  0  0  0  0
    1.1523   50.9110   50.8469 H   0  0  0  0  0  0
    2.6670   50.5573   49.9483 H   0  0  0  0  0  0
    2.1807   48.2803   51.0032 H   0  0  0  0  0  0
    0.9232   47.0626   52.8599 H   0  0  0  0  0  0
   -1.3114   47.4714   53.8395 H   0  0  0  0  0  0
    4.5622   49.5789   55.1889 H   0  0  0  0  0  0
    3.9065   49.4763   57.5714 H   0  0  0  0  0  0
    1.9474   45.7243   56.8762 H   0  0  0  0  0  0
    2.6087   45.8177   54.4850 H   0  0  0  0  0  0
    4.3808   48.0113   59.3618 H   0  0  0  0  0  0
    3.1937   49.3594   59.3579 H   0  0  0  0  0  0
    3.5151   48.5945   61.6139 H   0  0  0  0  0  0
    1.8699   48.1212   61.0701 H   0  0  0  0  0  0
    4.2547   46.4222   61.7259 H   0  0  0  0  0  0
    2.5108   46.1669   62.0728 H   0  0  0  0  0  0
    3.3632   44.5186   60.4942 H   0  0  0  0  0  0
    3.8744   45.8303   59.3784 H   0  0  0  0  0  0
    2.1305   45.5750   59.7253 H   0  0  0  0  0  0
  1  2  2  0  0  0
  2  5  1  0  0  0
  2  4  1  0  0  0
  2  3  2  0  0  0
  4 29  1  0  0  0
  4 30  1  0  0  0
  4 31  1  0  0  0
  5  6  1  0  0  0
  5 32  1  0  0  0
  6  8  1  0  0  0
  6  7  1  0  0  0
  6 33  1  0  0  0
  7 14  1  0  0  0
  7 34  1  0  0  0
  7 35  1  0  0  0
  8  9  1  0  0  0
  8 36  1  0  0  0
  8 37  1  0  0  0
  9 14  1  0  0  0
  9 10  1  0  0  0
  9 38  1  0  0  0
 10 12  1  0  0  0
 10 11  2  0  0  0
 12 13  1  0  0  0
 12 39  1  0  0  0
 13 40  1  0  0  0
 14 15  1  0  0  0
 15 18  1  0  0  0
 15 17  2  0  0  0
 15 16  2  0  0  0
 18 23  2  0  0  0
 18 19  1  0  0  0
 19 20  2  0  0  0
 19 41  1  0  0  0
 20 21  1  0  0  0
 20 42  1  0  0  0
 21 24  1  0  0  0
 21 22  2  0  0  0
 22 23  1  0  0  0
 22 43  1  0  0  0
 23 44  1  0  0  0
 24 25  1  0  0  0
 25 26  1  0  0  0
 25 45  1  0  0  0
 25 46  1  0  0  0
 26 27  1  0  0  0
 26 47  1  0  0  0
 26 48  1  0  0  0
 27 28  1  0  0  0
 27 49  1  0  0  0
 27 50  1  0  0  0
 28 51  1  0  0  0
 28 52  1  0  0  0
 28 53  1  0  0  0
M  END
> <s_m_source_file>
../1g49_ligand.sdf

> <i_m_source_file_index>
1

> <s_epik_input>
Tz1TKD1PKShbQ0gzXSlbTkhdW0NAQEhdMVtDSDJdTihbQ0BIXShbQ0gyXTEpQyg9TylbTkhdW09IXSlTKD1PKSg9TyljMltjSF1bY0hdYyhbY0hdW2NIXTIpT1tDSDJdW0NIMl1bQ0gyXVtDSDNd

> <s_epik_cmdline>
J2VwaWtfYXBwJywgJy1pbWFlJywgJ2xpZ2FuZF9wcm8ubWFlJywgJy1vbWFlJywgJ2xpZ2FuZF9wcmVwLm1hZScsICctbXMnLCAnMScsICctcGgnLCAnNycsICctcGh0JywgJzAuNScsICctbnQn

> <r_lp_tautomer_probability>
1

> <r_epik_Ionization_Penalty>
  0.0178

> <r_epik_Ionization_Penalty_Charging>
  0.0000

> <r_epik_Ionization_Penalty_Neutral>
  0.0178

> <r_epik_State_Penalty>
  0.0141

> <r_epik_Charging_Adjusted_Penalty>
0.0141164221399192

> <i_epik_Tot_Q>
0

> <i_epik_Tot_abs_Q>
0

> <s_epik_Chemistry_Notes>
This compound has a N-S or N-O group and may undergo hydrolysis at high or low pH.

$$$$
