1g4j_ligand
                    3D
 Schrodinger Suite 2020-3.
 34 35  0  0  1  0            999 V2000
   -3.7910    3.4140   14.8570 C   0  0  0  0  0  0
   -4.2600    2.3160   15.5700 C   0  0  0  0  0  0
   -5.6410    2.2290   15.8850 C   0  0  0  0  0  0
   -6.4870    3.2450   15.4460 C   0  0  0  0  0  0
   -5.9900    4.3270   14.7320 C   0  0  0  0  0  0
   -4.6480    4.4260   14.4440 C   0  0  0  0  0  0
   -4.1170    5.6280   13.7280 C   0  0  0  0  0  0
   -4.9540    6.4720   13.4230 O   0  0  0  0  0  0
   -2.7550    5.8620   13.4360 N   0  0  0  0  0  0
   -2.3840    6.7140   12.3150 C   0  0  0  0  0  0
   -6.2020    0.8280   16.8390 S   0  0  0  0  0  0
   -5.7890   -0.5940   16.0600 N   0  0  0  0  0  0
   -7.6480    1.0770   16.9330 O   0  0  0  0  0  0
   -5.5440    1.0340   18.1350 O   0  0  0  0  0  0
   -1.3870    7.6740   12.6900 C   0  0  0  0  0  0
   -1.5660    8.3690   13.9310 C   0  0  0  0  0  0
   -0.5680    9.3310   14.3390 C   0  0  0  0  0  0
    0.5830    9.5770   13.5040 C   0  0  0  0  0  0
    0.7500    8.8730   12.2650 C   0  0  0  0  0  0
   -0.2250    7.9230   11.8510 C   0  0  0  0  0  0
   -2.6310    8.1410   14.7120 F   0  0  0  0  0  0
   -0.7120    9.9940   15.4950 F   0  0  0  0  0  0
    1.5030   10.4710   13.8910 F   0  0  0  0  0  0
    1.8200    9.1010   11.4910 F   0  0  0  0  0  0
   -0.0430    7.2770   10.6910 F   0  0  0  0  0  0
   -2.7298    3.4818   14.6175 H   0  0  0  0  0  0
   -3.5735    1.5297   15.8839 H   0  0  0  0  0  0
   -7.5531    3.1897   15.6660 H   0  0  0  0  0  0
   -6.6716    5.1081   14.3952 H   0  0  0  0  0  0
   -1.9740    5.3993   14.0572 H   0  0  0  0  0  0
   -1.9805    6.0939   11.5010 H   0  0  0  0  0  0
   -3.2716    7.2565   11.9573 H   0  0  0  0  0  0
   -6.1378   -1.4519   16.6536 H   0  0  0  0  0  0
   -4.6960   -0.6462   15.9473 H   0  0  0  0  0  0
  1  6  2  0  0  0
  1  2  1  0  0  0
  1 26  1  0  0  0
  2  3  2  0  0  0
  2 27  1  0  0  0
  3 11  1  0  0  0
  3  4  1  0  0  0
  4  5  2  0  0  0
  4 28  1  0  0  0
  5  6  1  0  0  0
  5 29  1  0  0  0
  6  7  1  0  0  0
  7  9  1  0  0  0
  7  8  2  0  0  0
  9 10  1  0  0  0
  9 30  1  0  0  0
 10 15  1  0  0  0
 10 31  1  0  0  0
 10 32  1  0  0  0
 11 14  2  0  0  0
 11 13  2  0  0  0
 11 12  1  0  0  0
 12 33  1  0  0  0
 12 34  1  0  0  0
 15 20  2  0  0  0
 15 16  1  0  0  0
 16 17  2  0  0  0
 16 21  1  0  0  0
 17 18  1  0  0  0
 17 22  1  0  0  0
 18 19  2  0  0  0
 18 23  1  0  0  0
 19 20  1  0  0  0
 19 24  1  0  0  0
 20 25  1  0  0  0
M  END
> <s_m_source_file>
../1g4j_ligand.sdf

> <i_m_source_file_index>
1

> <s_epik_input>
W05IMl1TKD1PKSg9TyljMVtjSF1bY0hdYyhbY0hdW2NIXTEpQyg9TylbTkhdW0NIMl1jMmMoRiljKEYpYyhGKWMoRiljMkY=

> <s_epik_cmdline>
J2VwaWtfYXBwJywgJy1pbWFlJywgJ2xpZ2FuZF9wcm8ubWFlJywgJy1vbWFlJywgJ2xpZ2FuZF9wcmVwLm1hZScsICctbXMnLCAnMScsICctcGgnLCAnNycsICctcGh0JywgJzAuNScsICctbnQn

> <r_lp_tautomer_probability>
1

> <r_epik_Ionization_Penalty>
  0.0012

> <r_epik_Ionization_Penalty_Charging>
  0.0000

> <r_epik_Ionization_Penalty_Neutral>
  0.0012

> <r_epik_State_Penalty>
 -0.0000

> <r_epik_Charging_Adjusted_Penalty>
0

> <i_epik_Tot_Q>
0

> <i_epik_Tot_abs_Q>
0

$$$$
