1g4k_ligand
                    3D
 Schrodinger Suite 2020-3.
 37 39  0  0  1  0            999 V2000
   18.8820   30.3150   48.1300 N   0  0  0  0  0  0
   18.6140   30.6800   49.4380 C   0  0  0  0  0  0
   18.9420   30.0180   50.4600 O   0  0  0  0  0  0
   17.7000   31.6700   49.6550 N   0  0  0  0  0  0
   17.4320   32.6420   48.7170 C   0  0  0  0  0  0
   16.4050   33.3020   48.9930 O   0  0  0  0  0  0
   17.8880   32.3950   47.2630 C   0  0  0  0  0  0
   18.3950   30.9600   47.0320 C   0  0  0  0  0  0
   18.6510   30.6210   45.8620 O   0  0  0  0  0  0
   16.7220   32.6850   46.2550 C   0  0  0  0  0  0
   19.1570   33.3550   47.2810 C   0  0  0  0  0  0
   20.5060   32.8210   47.4360 C   0  0  0  0  0  0
   21.6150   33.6940   47.4970 C   0  0  0  0  0  0
   21.4640   35.0910   47.4480 C   0  0  0  0  0  0
   20.1370   35.6460   47.3180 C   0  0  0  0  0  0
   19.0120   34.7800   47.2240 C   0  0  0  0  0  0
   22.6130   35.9220   47.4880 O   0  0  0  0  0  0
   22.4020   37.3360   47.5980 C   0  0  0  0  0  0
   23.0790   38.1890   46.6690 C   0  0  0  0  0  0
   22.8540   39.6060   46.7280 C   0  0  0  0  0  0
   21.9480   40.1060   47.7200 C   0  0  0  0  0  0
   21.2530   39.2790   48.6340 C   0  0  0  0  0  0
   21.4760   37.8700   48.5690 C   0  0  0  0  0  0
   19.5367   29.4395   48.0082 H   0  0  0  0  0  0
   17.1480   31.7102   50.6056 H   0  0  0  0  0  0
   16.3499   33.7086   46.4094 H   0  0  0  0  0  0
   15.9047   31.9684   46.4238 H   0  0  0  0  0  0
   17.0936   32.5814   45.2249 H   0  0  0  0  0  0
   20.6587   31.7440   47.5050 H   0  0  0  0  0  0
   22.6164   33.2725   47.5846 H   0  0  0  0  0  0
   19.9975   36.7267   47.2919 H   0  0  0  0  0  0
   18.0173   35.2099   47.1060 H   0  0  0  0  0  0
   23.7567   37.7683   45.9262 H   0  0  0  0  0  0
   23.3580   40.2825   46.0378 H   0  0  0  0  0  0
   21.7855   41.1825   47.7732 H   0  0  0  0  0  0
   20.5673   39.7051   49.3664 H   0  0  0  0  0  0
   20.9496   37.2005   49.2493 H   0  0  0  0  0  0
  1  8  1  0  0  0
  1  2  1  0  0  0
  1 24  1  0  0  0
  2  4  1  0  0  0
  2  3  2  0  0  0
  4  5  1  0  0  0
  4 25  1  0  0  0
  5  7  1  0  0  0
  5  6  2  0  0  0
  7 11  1  0  0  0
  7 10  1  0  0  0
  7  8  1  0  0  0
  8  9  2  0  0  0
 10 26  1  0  0  0
 10 27  1  0  0  0
 10 28  1  0  0  0
 11 16  2  0  0  0
 11 12  1  0  0  0
 12 13  2  0  0  0
 12 29  1  0  0  0
 13 14  1  0  0  0
 13 30  1  0  0  0
 14 17  1  0  0  0
 14 15  2  0  0  0
 15 16  1  0  0  0
 15 31  1  0  0  0
 16 32  1  0  0  0
 17 18  1  0  0  0
 18 23  2  0  0  0
 18 19  1  0  0  0
 19 20  2  0  0  0
 19 33  1  0  0  0
 20 21  1  0  0  0
 20 34  1  0  0  0
 21 22  2  0  0  0
 21 35  1  0  0  0
 22 23  1  0  0  0
 22 36  1  0  0  0
 23 37  1  0  0  0
M  END
> <s_m_source_file>
../1g4k_ligand.sdf

> <i_m_source_file_index>
1

> <s_epik_input>
Tz1DMVtOSF1DKD1PKVtOSF1DKD1PKUMxKFtDSDNdKWMyW2NIXVtjSF1jKFtjSF1bY0hdMilPYzNbY0hdW2NIXVtjSF1bY0hdW2NIXTM=

> <s_epik_cmdline>
J2VwaWtfYXBwJywgJy1pbWFlJywgJ2xpZ2FuZF9wcm8ubWFlJywgJy1vbWFlJywgJ2xpZ2FuZF9wcmVwLm1hZScsICctbXMnLCAnMScsICctcGgnLCAnNycsICctcGh0JywgJzAuNScsICctbnQn

> <r_lp_tautomer_probability>
0.999999998612168

> <r_epik_Ionization_Penalty>
  0.1810

> <r_epik_Ionization_Penalty_Charging>
  0.0000

> <r_epik_Ionization_Penalty_Neutral>
  0.1810

> <r_epik_State_Penalty>
  0.1705

> <r_epik_Charging_Adjusted_Penalty>
0.170504961438102

> <i_epik_Tot_Q>
0

> <i_epik_Tot_abs_Q>
0

$$$$
