1g4o_ligand
                    3D
 Schrodinger Suite 2020-3.
 34 35  0  0  1  0            999 V2000
   -3.8480    3.5450   14.6910 C   0  0  0  0  0  0
   -4.2370    2.3650   15.3650 C   0  0  0  0  0  0
   -5.5740    2.3350   15.9180 C   0  0  0  0  0  0
   -6.4120    3.4700   15.7530 C   0  0  0  0  0  0
   -5.9770    4.6190   15.0710 C   0  0  0  0  0  0
   -4.7000    4.6590   14.5450 C   0  0  0  0  0  0
   -4.1860    5.8880   13.8100 C   0  0  0  0  0  0
   -4.9130    6.8570   13.6790 O   0  0  0  0  0  0
   -2.8950    5.8980   13.3010 N   0  0  0  0  0  0
   -2.2190    6.9700   12.5800 C   0  0  0  0  0  0
   -6.0590    0.8320   16.7840 S   0  0  0  0  0  0
   -5.6290   -0.5400   16.0950 N   0  0  0  0  0  0
   -7.5390    1.0910   16.8390 O   0  0  0  0  0  0
   -5.5270    1.1290   18.0940 O   0  0  0  0  0  0
   -1.4690    7.9020   13.3820 C   0  0  0  0  0  0
   -1.8430    8.0700   14.7660 C   0  0  0  0  0  0
   -1.1590    8.9730   15.6310 C   0  0  0  0  0  0
   -0.0750    9.7300   15.1060 C   0  0  0  0  0  0
    0.3390    9.5950   13.7200 C   0  0  0  0  0  0
   -0.3680    8.6670   12.8410 C   0  0  0  0  0  0
   -2.8457    3.5960   14.2656 H   0  0  0  0  0  0
   -3.5605    1.5160   15.4638 H   0  0  0  0  0  0
   -7.4202    3.4491   16.1668 H   0  0  0  0  0  0
   -6.6434    5.4741   14.9576 H   0  0  0  0  0  0
   -2.3699    4.9519   13.4988 H   0  0  0  0  0  0
   -1.5014    6.5370   11.8676 H   0  0  0  0  0  0
   -2.9618    7.5696   12.0334 H   0  0  0  0  0  0
   -5.9769   -1.3836   16.7093 H   0  0  0  0  0  0
   -4.5332   -0.5782   16.0065 H   0  0  0  0  0  0
   -2.6750    7.4878   15.1622 H   0  0  0  0  0  0
   -1.4602    9.0813   16.6730 H   0  0  0  0  0  0
    0.4556   10.4252   15.7566 H   0  0  0  0  0  0
    1.1732   10.1834   13.3379 H   0  0  0  0  0  0
   -0.0715    8.5536   11.7983 H   0  0  0  0  0  0
  1  6  2  0  0  0
  1  2  1  0  0  0
  1 21  1  0  0  0
  2  3  2  0  0  0
  2 22  1  0  0  0
  3 11  1  0  0  0
  3  4  1  0  0  0
  4  5  2  0  0  0
  4 23  1  0  0  0
  5  6  1  0  0  0
  5 24  1  0  0  0
  6  7  1  0  0  0
  7  9  1  0  0  0
  7  8  2  0  0  0
  9 10  1  0  0  0
  9 25  1  0  0  0
 10 15  1  0  0  0
 10 26  1  0  0  0
 10 27  1  0  0  0
 11 14  2  0  0  0
 11 13  2  0  0  0
 11 12  1  0  0  0
 12 28  1  0  0  0
 12 29  1  0  0  0
 15 20  2  0  0  0
 15 16  1  0  0  0
 16 17  2  0  0  0
 16 30  1  0  0  0
 17 18  1  0  0  0
 17 31  1  0  0  0
 18 19  2  0  0  0
 18 32  1  0  0  0
 19 20  1  0  0  0
 19 33  1  0  0  0
 20 34  1  0  0  0
M  END
> <s_m_source_file>
../1g4o_ligand.sdf

> <i_m_source_file_index>
1

> <s_epik_input>
W05IMl1TKD1PKSg9TyljMVtjSF1bY0hdYyhbY0hdW2NIXTEpQyg9TylbTkhdW0NIMl1jMltjSF1bY0hdW2NIXVtjSF1bY0hdMg==

> <s_epik_cmdline>
J2VwaWtfYXBwJywgJy1pbWFlJywgJ2xpZ2FuZF9wcm8ubWFlJywgJy1vbWFlJywgJ2xpZ2FuZF9wcmVwLm1hZScsICctbXMnLCAnMScsICctcGgnLCAnNycsICctcGh0JywgJzAuNScsICctbnQn

> <r_lp_tautomer_probability>
1

> <r_epik_Ionization_Penalty>
  0.0012

> <r_epik_Ionization_Penalty_Charging>
  0.0000

> <r_epik_Ionization_Penalty_Neutral>
  0.0012

> <r_epik_State_Penalty>
 -0.0000

> <r_epik_Charging_Adjusted_Penalty>
0

> <i_epik_Tot_Q>
0

> <i_epik_Tot_abs_Q>
0

$$$$
