1g50_ligand
                    3D
 Schrodinger Suite 2020-3.
 44 47  0  0  1  0            999 V2000
  104.0100   17.3780   24.9290 C   0  0  0  0  0  0
  102.8460   17.9870   25.5110 C   0  0  0  0  0  0
  101.5290   17.4880   25.1790 C   0  0  0  0  0  0
  100.3780   18.0690   25.7290 O   0  0  0  0  0  0
  101.3860   16.3980   24.2750 C   0  0  0  0  0  0
  102.5170   15.7810   23.6850 C   0  0  0  0  0  0
  102.2810   14.6270   22.7180 C   0  0  0  0  0  0
  103.5620   13.9870   22.0720 C   0  0  0  0  0  0
  104.8120   14.0540   22.9540 C   0  0  2  0  0  0
  105.1190   15.5650   23.3380 C   0  0  1  0  0  0
  103.8780   16.2620   24.0080 C   0  0  0  0  0  0
  106.4090   15.5880   24.2050 C   0  0  0  0  0  0
  107.6470   14.9140   23.5370 C   0  0  0  0  0  0
  107.3650   13.4590   23.1300 C   0  0  1  0  0  0
  106.0610   13.4280   22.2360 C   0  0  1  0  0  0
  106.0620   11.9820   21.7250 C   0  0  0  0  0  0
  107.5710   11.7490   21.3410 C   0  0  0  0  0  0
  108.3520   12.8450   22.1120 C   0  0  2  0  0  0
  109.5470   12.2750   22.6740 O   0  0  0  0  0  0
  107.3140   12.5550   24.4260 C   0  0  0  0  0  0
  105.0007   17.7565   25.1806 H   0  0  0  0  0  0
  102.9549   18.8234   26.2014 H   0  0  0  0  0  0
  100.4686   18.9123   26.4295 H   0  0  0  0  0  0
  100.3887   16.0313   24.0322 H   0  0  0  0  0  0
  101.7658   13.8087   23.2424 H   0  0  0  0  0  0
  101.6598   14.9731   21.8787 H   0  0  0  0  0  0
  103.3738   12.9241   21.8603 H   0  0  0  0  0  0
  103.8007   14.5109   21.1347 H   0  0  0  0  0  0
  104.5872   13.4530   23.8474 H   0  0  0  0  0  0
  105.3186   16.1770   22.4460 H   0  0  0  0  0  0
  106.6881   16.6302   24.4194 H   0  0  0  0  0  0
  106.2252   15.0558   25.1500 H   0  0  0  0  0  0
  107.9260   15.4744   22.6325 H   0  0  0  0  0  0
  108.4903   14.9144   24.2433 H   0  0  0  0  0  0
  106.0156   14.0682   21.3426 H   0  0  0  0  0  0
  105.7190   11.3100   22.5255 H   0  0  0  0  0  0
  105.3863   11.8979   20.8611 H   0  0  0  0  0  0
  107.8761   10.7383   21.6499 H   0  0  0  0  0  0
  107.6925   11.8521   20.2526 H   0  0  0  0  0  0
  108.7880   13.6455   21.4964 H   0  0  0  0  0  0
  110.2335   12.9040   23.2598 H   0  0  0  0  0  0
  106.6113   12.9922   25.1506 H   0  0  0  0  0  0
  108.3168   12.5005   24.8747 H   0  0  0  0  0  0
  106.9784   11.5433   24.1544 H   0  0  0  0  0  0
  1  2  2  0  0  0
  1 11  1  0  0  0
  1 21  1  0  0  0
  2  3  1  0  0  0
  2 22  1  0  0  0
  3  4  1  0  0  0
  3  5  2  0  0  0
  4 23  1  0  0  0
  5  6  1  0  0  0
  5 24  1  0  0  0
  6  7  1  0  0  0
  6 11  2  0  0  0
  7  8  1  0  0  0
  7 25  1  0  0  0
  7 26  1  0  0  0
  8  9  1  0  0  0
  8 27  1  0  0  0
  8 28  1  0  0  0
  9 10  1  0  0  0
  9 15  1  0  0  0
  9 29  1  0  0  0
 10 11  1  0  0  0
 10 12  1  0  0  0
 10 30  1  0  0  0
 12 13  1  0  0  0
 12 31  1  0  0  0
 12 32  1  0  0  0
 13 14  1  0  0  0
 13 33  1  0  0  0
 13 34  1  0  0  0
 14 15  1  0  0  0
 14 18  1  0  0  0
 14 20  1  0  0  0
 15 16  1  0  0  0
 15 35  1  0  0  0
 16 17  1  0  0  0
 16 36  1  0  0  0
 16 37  1  0  0  0
 17 18  1  0  0  0
 17 38  1  0  0  0
 17 39  1  0  0  0
 18 19  1  0  0  0
 18 40  1  0  0  0
 19 41  1  0  0  0
 20 42  1  0  0  0
 20 43  1  0  0  0
 20 44  1  0  0  0
M  END
> <s_m_source_file>
../1g50_ligand.sdf

> <i_m_source_file_index>
1

> <s_epik_input>
W2NIXTFbY0hdYyhbT0hdKVtjSF1jKFtDSDJdW0NIMl0yKWMxW0NAQEhdKFtDSDJdW0NIMl0zKVtDQEBIXTJbQ0BASF0oW0NAXTM0W0NIM10pW0NIMl1bQ0gyXVtDQEBIXTRbT0hd

> <s_epik_cmdline>
J2VwaWtfYXBwJywgJy1pbWFlJywgJ2xpZ2FuZF9wcm8ubWFlJywgJy1vbWFlJywgJ2xpZ2FuZF9wcmVwLm1hZScsICctbXMnLCAnMScsICctcGgnLCAnNycsICctcGh0JywgJzAuNScsICctbnQn

> <r_lp_tautomer_probability>
1

> <r_epik_Ionization_Penalty>
  0.0001

> <r_epik_Ionization_Penalty_Charging>
  0.0000

> <r_epik_Ionization_Penalty_Neutral>
  0.0001

> <r_epik_State_Penalty>
 -0.0000

> <r_epik_Charging_Adjusted_Penalty>
0

> <i_epik_Tot_Q>
0

> <i_epik_Tot_abs_Q>
0

$$$$
