1g53_ligand
                    3D
 Schrodinger Suite 2020-3.
 34 35  0  0  1  0            999 V2000
   -3.7680    3.4250   14.6740 C   0  0  0  0  0  0
   -4.1570    2.3160   15.4320 C   0  0  0  0  0  0
   -5.5080    2.2120   15.8600 C   0  0  0  0  0  0
   -6.3880    3.2440   15.5080 C   0  0  0  0  0  0
   -5.9630    4.3370   14.7630 C   0  0  0  0  0  0
   -4.6610    4.4450   14.3310 C   0  0  0  0  0  0
   -4.2310    5.6510   13.4910 C   0  0  0  0  0  0
   -5.1200    6.4610   13.2620 O   0  0  0  0  0  0
   -2.9350    5.9180   12.9430 N   0  0  0  0  0  0
   -2.6530    7.3290   12.7280 C   0  0  0  0  0  0
   -6.0100    0.7770   16.8160 S   0  0  0  0  0  0
   -5.5210   -0.6150   16.0610 N   0  0  0  0  0  0
   -7.4390    1.0090   16.9510 O   0  0  0  0  0  0
   -5.3740    0.9890   18.1060 O   0  0  0  0  0  0
   -1.5610    7.9550   13.3490 C   0  0  0  0  0  0
   -0.2950    7.9540   12.6830 C   0  0  0  0  0  0
    0.8120    8.6020   13.3330 C   0  0  0  0  0  0
    0.6240    9.2310   14.6240 C   0  0  0  0  0  0
   -0.6590    9.2190   15.2750 C   0  0  0  0  0  0
   -1.7460    8.5840   14.6450 C   0  0  0  0  0  0
   -0.1380    7.3680   11.4880 F   0  0  0  0  0  0
   -2.9340    8.5820   15.2660 F   0  0  0  0  0  0
   -2.7332    3.4968   14.3391 H   0  0  0  0  0  0
   -3.4341    1.5424   15.6908 H   0  0  0  0  0  0
   -7.4292    3.1881   15.8257 H   0  0  0  0  0  0
   -6.6750    5.1245   14.5158 H   0  0  0  0  0  0
   -2.1789    5.1609   12.6879 H   0  0  0  0  0  0
   -2.4730    7.5080   11.6577 H   0  0  0  0  0  0
   -3.5125    7.9296   13.0607 H   0  0  0  0  0  0
   -5.8347   -1.4849   16.6567 H   0  0  0  0  0  0
   -4.4254   -0.6135   15.9631 H   0  0  0  0  0  0
    1.7913    8.6198   12.8547 H   0  0  0  0  0  0
    1.4676    9.7211   15.1100 H   0  0  0  0  0  0
   -0.7880    9.6968   16.2462 H   0  0  0  0  0  0
  1  6  2  0  0  0
  1  2  1  0  0  0
  1 23  1  0  0  0
  2  3  2  0  0  0
  2 24  1  0  0  0
  3 11  1  0  0  0
  3  4  1  0  0  0
  4  5  2  0  0  0
  4 25  1  0  0  0
  5  6  1  0  0  0
  5 26  1  0  0  0
  6  7  1  0  0  0
  7  9  1  0  0  0
  7  8  2  0  0  0
  9 10  1  0  0  0
  9 27  1  0  0  0
 10 15  1  0  0  0
 10 28  1  0  0  0
 10 29  1  0  0  0
 11 14  2  0  0  0
 11 13  2  0  0  0
 11 12  1  0  0  0
 12 30  1  0  0  0
 12 31  1  0  0  0
 15 20  2  0  0  0
 15 16  1  0  0  0
 16 17  2  0  0  0
 16 21  1  0  0  0
 17 18  1  0  0  0
 17 32  1  0  0  0
 18 19  2  0  0  0
 18 33  1  0  0  0
 19 20  1  0  0  0
 19 34  1  0  0  0
 20 22  1  0  0  0
M  END
> <s_m_source_file>
../1g53_ligand.sdf

> <i_m_source_file_index>
1

> <s_epik_input>
W05IMl1TKD1PKSg9TyljMVtjSF1bY0hdYyhbY0hdW2NIXTEpQyg9TylbTkhdW0NIMl1jMmMoRilbY0hdW2NIXVtjSF1jMkY=

> <s_epik_cmdline>
J2VwaWtfYXBwJywgJy1pbWFlJywgJ2xpZ2FuZF9wcm8ubWFlJywgJy1vbWFlJywgJ2xpZ2FuZF9wcmVwLm1hZScsICctbXMnLCAnMScsICctcGgnLCAnNycsICctcGh0JywgJzAuNScsICctbnQn

> <r_lp_tautomer_probability>
1

> <r_epik_Ionization_Penalty>
  0.0012

> <r_epik_Ionization_Penalty_Charging>
  0.0000

> <r_epik_Ionization_Penalty_Neutral>
  0.0012

> <r_epik_State_Penalty>
 -0.0000

> <r_epik_Charging_Adjusted_Penalty>
0

> <i_epik_Tot_Q>
0

> <i_epik_Tot_abs_Q>
0

$$$$
