1g5s_ligand
                    3D
 Schrodinger Suite 2020-3.
 62 66  0  0  1  0            999 V2000
   15.2920   -8.9720   14.5730 C   0  0  0  0  0  0
   13.9860   -9.6460   14.3440 N   0  0  0  0  0  0
   13.2900   -9.6290   13.1580 C   0  0  0  0  0  0
   13.6950   -8.9990   12.0310 N   0  0  0  0  0  0
   12.8800   -9.1210   11.0260 C   0  0  0  0  0  0
   11.2420  -10.4870   12.2370 C   0  0  0  0  0  0
   11.6760   -9.8340   11.0710 N   0  0  0  0  0  0
   12.1360  -10.3780   13.3880 C   0  0  0  0  0  0
   12.0860  -10.8500   14.6690 N   0  0  0  0  0  0
   13.2100  -10.4040   15.2430 C   0  0  0  0  0  0
   10.0010  -11.1980   12.2600 N   0  0  0  0  0  0
    9.1990  -11.2030   11.0400 C   0  0  0  0  0  0
    7.8770  -13.1410   10.9730 C   0  0  0  0  0  0
    7.4600  -14.3220   10.3330 C   0  0  0  0  0  0
    7.9940  -14.6880    9.1090 C   0  0  0  0  0  0
    8.9610  -13.8680    8.5030 C   0  0  0  0  0  0
    9.3790  -12.6730    9.1510 C   0  0  0  0  0  0
    8.8330  -12.3300   10.3740 C   0  0  0  0  0  0
   13.2260   -8.3960    9.7540 N   0  0  0  0  0  0
   14.4790   -7.4500    9.6590 C   0  0  2  0  0  0
   14.9430   -4.6260    8.8490 C   0  0  2  0  0  0
   15.1240   -5.0890   10.2750 C   0  0  0  0  0  0
   14.2460   -6.3010   10.5880 C   0  0  0  0  0  0
   14.5380   -7.0420    8.0960 C   0  0  0  0  0  0
   15.3530   -5.7490    7.9380 C   0  0  0  0  0  0
   15.8210   -3.4180    8.5840 N   0  3  0  0  0  0
   16.5920   -8.9840   13.8290 C   0  0  0  0  0  0
   17.0640   -7.6070   13.7800 C   0  0  0  0  0  0
   15.1000   -7.4710   14.8510 C   0  0  0  0  0  0
   16.5040   -6.9930   14.9450 C   0  0  0  0  0  0
   15.4920   -9.7950   15.2749 H   0  0  0  0  0  0
   13.4901  -10.6026   16.2775 H   0  0  0  0  0  0
    9.6444  -11.7292   13.1548 H   0  0  0  0  0  0
    8.2242  -10.7343   11.2401 H   0  0  0  0  0  0
    9.7228  -10.6386   10.2545 H   0  0  0  0  0  0
    7.4511  -12.8626   11.9369 H   0  0  0  0  0  0
    6.7090  -14.9554   10.8052 H   0  0  0  0  0  0
    7.6668  -15.6052    8.6193 H   0  0  0  0  0  0
    9.3890  -14.1467    7.5401 H   0  0  0  0  0  0
   10.1264  -12.0305    8.6856 H   0  0  0  0  0  0
   12.5781   -8.5404    8.8769 H   0  0  0  0  0  0
   15.4343   -7.8590   10.0198 H   0  0  0  0  0  0
   13.8919   -4.3555    8.6701 H   0  0  0  0  0  0
   16.1749   -5.3696   10.4388 H   0  0  0  0  0  0
   14.8505   -4.2749   10.9624 H   0  0  0  0  0  0
   13.1965   -5.9793   10.5172 H   0  0  0  0  0  0
   14.4649   -6.6134   11.6197 H   0  0  0  0  0  0
   15.0163   -7.8506    7.5238 H   0  0  0  0  0  0
   13.5168   -6.8814    7.7202 H   0  0  0  0  0  0
   15.2408   -5.4312    6.8909 H   0  0  0  0  0  0
   16.4034   -6.0126    8.1307 H   0  0  0  0  0  0
   15.5226   -2.5948    9.2498 H   0  0  0  0  0  0
   15.7048   -3.1030    7.5365 H   0  0  0  0  0  0
   16.8723   -3.6802    8.7736 H   0  0  0  0  0  0
   17.3122   -9.6242   14.3595 H   0  0  0  0  0  0
   16.4302   -9.3769   12.8144 H   0  0  0  0  0  0
   18.1638   -7.5955   13.7993 H   0  0  0  0  0  0
   16.7085   -7.1302   12.8546 H   0  0  0  0  0  0
   14.5430   -7.0126   14.0205 H   0  0  0  0  0  0
   14.5364   -7.3405   15.7866 H   0  0  0  0  0  0
   17.0357   -7.3502   15.8392 H   0  0  0  0  0  0
   16.6071   -5.9005   14.8692 H   0  0  0  0  0  0
  1  2  1  0  0  0
  1 27  1  0  0  0
  1 29  1  0  0  0
  1 31  1  0  0  0
  2  3  1  0  0  0
  2 10  1  0  0  0
  3  4  1  0  0  0
  3  8  2  0  0  0
  4  5  2  0  0  0
  5  7  1  0  0  0
  5 19  1  0  0  0
  6  7  2  0  0  0
  6  8  1  0  0  0
  6 11  1  0  0  0
  8  9  1  0  0  0
  9 10  2  0  0  0
 10 32  1  0  0  0
 11 12  1  0  0  0
 11 33  1  0  0  0
 12 18  1  0  0  0
 12 34  1  0  0  0
 12 35  1  0  0  0
 13 14  2  0  0  0
 13 18  1  0  0  0
 13 36  1  0  0  0
 14 15  1  0  0  0
 14 37  1  0  0  0
 15 16  2  0  0  0
 15 38  1  0  0  0
 16 17  1  0  0  0
 16 39  1  0  0  0
 17 18  2  0  0  0
 17 40  1  0  0  0
 19 20  1  0  0  0
 19 41  1  0  0  0
 20 23  1  0  0  0
 20 24  1  0  0  0
 20 42  1  0  0  0
 21 22  1  0  0  0
 21 25  1  0  0  0
 21 26  1  0  0  0
 21 43  1  0  0  0
 22 23  1  0  0  0
 22 44  1  0  0  0
 22 45  1  0  0  0
 23 46  1  0  0  0
 23 47  1  0  0  0
 24 25  1  0  0  0
 24 48  1  0  0  0
 24 49  1  0  0  0
 25 50  1  0  0  0
 25 51  1  0  0  0
 26 52  1  0  0  0
 26 53  1  0  0  0
 26 54  1  0  0  0
 27 28  1  0  0  0
 27 55  1  0  0  0
 27 56  1  0  0  0
 28 30  1  0  0  0
 28 57  1  0  0  0
 28 58  1  0  0  0
 29 30  1  0  0  0
 29 59  1  0  0  0
 29 60  1  0  0  0
 30 61  1  0  0  0
 30 62  1  0  0  0
M  CHG  1  26   1
M  END
> <s_m_source_file>
../1g5s_ligand.sdf

> <i_m_source_file_index>
1

> <s_epik_input>
W0NIMl0xW0NIMl1bQ0gyXVtDSDJdW0NIXTFuMltjSF1uYyhjMjMpYyhbTkhdW0NIMl1jNFtjSF1bY0hdW2NIXVtjSF1bY0hdNCluYyhuMylbTkhdW0NAQEhdNVtDSDJdW0NIMl1bQ0BASF0oW05IMytdKVtDSDJdW0NIMl01

> <s_epik_cmdline>
J2VwaWtfYXBwJywgJy1pbWFlJywgJ2xpZ2FuZF9wcm8ubWFlJywgJy1vbWFlJywgJ2xpZ2FuZF9wcmVwLm1hZScsICctbXMnLCAnMScsICctcGgnLCAnNycsICctcGh0JywgJzAuNScsICctbnQn

> <r_epik_Ionization_Penalty>
  0.0175

> <r_epik_Ionization_Penalty_Charging>
  0.0002

> <r_epik_Ionization_Penalty_Neutral>
  0.0173

> <r_epik_State_Penalty>
  0.0088

> <r_epik_Charging_Adjusted_Penalty>
0.00904040688596467

> <i_epik_Tot_Q>
1

> <i_epik_Tot_abs_Q>
1

$$$$
