1g6g_ligand
                    3D
 Schrodinger Suite 2020-3.
118117  0  0  1  0            999 V2000
   -4.6920   17.1330    2.5160 N   0  3  0  0  0  0
   -4.5610   17.5590    1.0860 C   0  0  2  0  0  0
   -3.1650   18.1530    0.8350 C   0  0  0  0  0  0
   -2.4720   18.4960    1.7830 O   0  0  0  0  0  0
   -5.7290   18.4790    0.6610 C   0  0  0  0  0  0
   -5.9670   19.4990    1.6150 O   0  0  0  0  0  0
   -2.7970   18.3130   -0.4330 N   0  0  0  0  0  0
   -1.3960   18.6520   -0.7680 C   0  0  2  0  0  0
   -1.1520   20.0890   -1.2450 C   0  0  0  0  0  0
   -0.1400   20.3610   -1.9030 O   0  0  0  0  0  0
   -0.9040   17.6680   -1.8150 C   0  0  0  0  0  0
   -0.9930   16.1820   -1.4380 C   0  0  0  0  0  0
   -0.5130   15.2790   -2.5860 C   0  0  0  0  0  0
   -0.2260   15.9200   -0.1660 C   0  0  0  0  0  0
   -2.0570   21.0150   -0.9420 N   0  0  0  0  0  0
   -1.9090   22.3810   -1.4310 C   0  0  2  0  0  0
   -0.6630   23.0540   -0.8490 C   0  0  0  0  0  0
   -0.1450   22.6210    0.1850 O   0  0  0  0  0  0
   -3.1660   23.2270   -1.0790 C   0  0  0  0  0  0
   -3.3810   23.4400    0.4160 C   0  0  0  0  0  0
   -4.2470   22.3780    1.0600 C   0  0  0  0  0  0
   -4.3680   21.2490    0.5350 O   0  0  0  0  0  0
   -4.9230   22.6960    2.0710 O   0  5  0  0  0  0
   -0.1990   24.0880   -1.5210 N   0  0  0  0  0  0
    0.9070   24.9090   -0.9860 C   0  0  2  0  0  0
    0.6330   25.3450    0.4380 C   0  0  0  0  0  0
   -0.5440   25.6140    0.7950 O   0  0  0  0  0  0
    1.1150   26.1500   -1.8480 C   0  0  0  0  0  0
    2.2120   27.0430   -1.2490 C   0  0  0  0  0  0
    1.4980   25.7160   -3.2500 C   0  0  0  0  0  0
    1.5700   25.2260    1.3740 N   0  0  0  0  0  0
    1.4250   25.5900    2.7740 C   0  0  1  0  0  0
    2.8310   25.3690    3.3530 C   0  0  1  0  0  0
    2.7870   25.4690    4.8660 C   0  0  0  0  0  0
    3.2210   24.0420    3.0650 O   0  0  0  0  0  0
    4.5260   23.8140    2.1250 P   0  0  0  0  0  0
    5.7570   24.3760    2.9390 O   0  0  0  0  0  0
    4.3010   24.6350    0.7710 O   0  5  0  0  0  0
    4.6370   22.2220    1.9090 O   0  5  0  0  0  0
    1.0300   27.0630    2.9420 C   0  0  0  0  0  0
    1.5510   28.0150    2.1750 O   0  0  0  0  0  0
    0.1220   27.2280    3.9120 N   0  0  0  0  0  0
   -0.2720   28.5600    4.4490 C   0  0  2  0  0  0
    0.8870   29.1230    5.2550 C   0  0  0  0  0  0
    1.2610   28.5520    6.2770 O   0  0  0  0  0  0
   -1.5350   28.4110    5.3120 C   0  0  0  0  0  0
   -2.0440   29.6970    5.9430 C   0  0  0  0  0  0
   -3.1420   29.4430    6.9690 C   0  0  0  0  0  0
   -3.7450   28.3680    6.9350 O   0  0  0  0  0  0
   -3.3770   30.3180    7.8280 O   0  5  0  0  0  0
    1.4560   30.2200    4.7670 N   0  0  0  0  0  0
    2.6180   30.8510    5.3960 C   0  0  2  0  0  0
    2.2920   31.9080    6.4330 C   0  0  0  0  0  0
    1.5550   32.8700    6.1680 O   0  0  0  0  0  0
    3.5550   31.4310    4.3480 C   0  0  0  0  0  0
    2.8950   31.7620    7.6030 N   0  0  0  0  0  0
    2.7320   32.7550    8.6560 C   0  0  2  0  0  0
    3.2960   34.1080    8.2240 C   0  0  0  0  0  0
    2.7480   35.1560    8.6230 O   0  0  0  0  0  0
    3.4250   32.2890    9.9350 C   0  0  0  0  0  0
    2.7140   31.1410   10.5980 C   0  0  0  0  0  0
    1.5110   30.8940   10.3280 O   0  5  0  0  0  0
    3.3250   30.4100   11.4000 O   0  0  0  0  0  0
    4.3613   34.1682    7.4300 O   0  5  0  0  0  0
   -5.6938   16.7103    2.6824 H   0  0  0  0  0  0
   -4.5477   18.0036    3.1726 H   0  0  0  0  0  0
   -3.9307   16.3722    2.7431 H   0  0  0  0  0  0
   -4.6414   16.6573    0.4611 H   0  0  0  0  0  0
   -5.4896   18.9546   -0.3016 H   0  0  0  0  0  0
   -6.6469   17.8818    0.5567 H   0  0  0  0  0  0
   -6.7702   20.2318    1.4479 H   0  0  0  0  0  0
   -3.5404   18.1920   -1.2347 H   0  0  0  0  0  0
   -0.8609   18.5603    0.1887 H   0  0  0  0  0  0
   -1.4955   17.7852   -2.7350 H   0  0  0  0  0  0
    0.1561   17.8643   -2.0332 H   0  0  0  0  0  0
   -2.0449   15.9293   -1.2388 H   0  0  0  0  0  0
   -1.0945   15.4993   -3.4934 H   0  0  0  0  0  0
   -0.6545   14.2245   -2.3067 H   0  0  0  0  0  0
    0.5534   15.4672   -2.7792 H   0  0  0  0  0  0
   -0.5973   16.5832    0.6292 H   0  0  0  0  0  0
    0.8433   16.1142   -0.3360 H   0  0  0  0  0  0
   -0.3647   14.8715    0.1364 H   0  0  0  0  0  0
   -2.9217   20.7448   -0.3180 H   0  0  0  0  0  0
   -1.7875   22.2641   -2.5180 H   0  0  0  0  0  0
   -3.0772   24.2235   -1.5364 H   0  0  0  0  0  0
   -4.0656   22.7253   -1.4651 H   0  0  0  0  0  0
   -2.4093   23.4290    0.9314 H   0  0  0  0  0  0
   -3.8727   24.4100    0.5812 H   0  0  0  0  0  0
   -0.6476   24.3366   -2.4941 H   0  0  0  0  0  0
    1.7951   24.2603   -1.0065 H   0  0  0  0  0  0
    0.1787   26.7256   -1.8914 H   0  0  0  0  0  0
    1.9211   27.3498   -0.2335 H   0  0  0  0  0  0
    2.3425   27.9356   -1.8785 H   0  0  0  0  0  0
    3.1578   26.4830   -1.2061 H   0  0  0  0  0  0
    0.7043   25.0780   -3.6660 H   0  0  0  0  0  0
    2.4413   25.1514   -3.2142 H   0  0  0  0  0  0
    1.6261   26.6039   -3.8865 H   0  0  0  0  0  0
    2.5212   24.8110    1.0093 H   0  0  0  0  0  0
    0.6289   24.9785    3.2237 H   0  0  0  0  0  0
    3.5608   26.0616    2.9083 H   0  0  0  0  0  0
    2.4873   26.4864    5.1576 H   0  0  0  0  0  0
    3.7831   25.2481    5.2772 H   0  0  0  0  0  0
    2.0587   24.7450    5.2603 H   0  0  0  0  0  0
   -0.3402   26.3143    4.3139 H   0  0  0  0  0  0
   -0.4867   29.2395    3.6111 H   0  0  0  0  0  0
   -2.3567   28.0189    4.6947 H   0  0  0  0  0  0
   -1.3336   27.7149    6.1395 H   0  0  0  0  0  0
   -1.2142   30.2091    6.4520 H   0  0  0  0  0  0
   -2.4542   30.3521    5.1604 H   0  0  0  0  0  0
    1.0211   30.6541    3.8546 H   0  0  0  0  0  0
    3.0794   30.0085    5.9320 H   0  0  0  0  0  0
    3.7884   30.6606    3.5983 H   0  0  0  0  0  0
    4.4845   31.7652    4.8320 H   0  0  0  0  0  0
    3.0698   32.2867    3.8557 H   0  0  0  0  0  0
    3.5254   30.8770    7.7744 H   0  0  0  0  0  0
    1.6464   32.8360    8.8135 H   0  0  0  0  0  0
    4.4476   31.9596    9.6988 H   0  0  0  0  0  0
    3.4646   33.1202   10.6544 H   0  0  0  0  0  0
  1  2  1  0  0  0
  1 65  1  0  0  0
  1 66  1  0  0  0
  1 67  1  0  0  0
  2  5  1  0  0  0
  2  3  1  0  0  0
  2 68  1  0  0  0
  3  4  2  0  0  0
  3  7  1  0  0  0
  5  6  1  0  0  0
  5 69  1  0  0  0
  5 70  1  0  0  0
  6 71  1  0  0  0
  7  8  1  0  0  0
  7 72  1  0  0  0
  8 11  1  0  0  0
  8  9  1  0  0  0
  8 73  1  0  0  0
  9 10  2  0  0  0
  9 15  1  0  0  0
 11 12  1  0  0  0
 11 74  1  0  0  0
 11 75  1  0  0  0
 12 13  1  0  0  0
 12 14  1  0  0  0
 12 76  1  0  0  0
 13 77  1  0  0  0
 13 78  1  0  0  0
 13 79  1  0  0  0
 14 80  1  0  0  0
 14 81  1  0  0  0
 14 82  1  0  0  0
 15 16  1  0  0  0
 15 83  1  0  0  0
 16 19  1  0  0  0
 16 17  1  0  0  0
 16 84  1  0  0  0
 17 18  2  0  0  0
 17 24  1  0  0  0
 19 20  1  0  0  0
 19 85  1  0  0  0
 19 86  1  0  0  0
 20 21  1  0  0  0
 20 87  1  0  0  0
 20 88  1  0  0  0
 21 23  1  0  0  0
 21 22  2  0  0  0
 24 25  1  0  0  0
 24 89  1  0  0  0
 25 28  1  0  0  0
 25 26  1  0  0  0
 25 90  1  0  0  0
 26 27  2  0  0  0
 26 31  1  0  0  0
 28 30  1  0  0  0
 28 29  1  0  0  0
 28 91  1  0  0  0
 29 92  1  0  0  0
 29 93  1  0  0  0
 29 94  1  0  0  0
 30 95  1  0  0  0
 30 96  1  0  0  0
 30 97  1  0  0  0
 31 32  1  0  0  0
 31 98  1  0  0  0
 32 33  1  0  0  0
 32 40  1  0  0  0
 32 99  1  0  0  0
 33 34  1  0  0  0
 33 35  1  0  0  0
 33100  1  0  0  0
 34101  1  0  0  0
 34102  1  0  0  0
 34103  1  0  0  0
 35 36  1  0  0  0
 36 37  2  0  0  0
 36 38  1  0  0  0
 36 39  1  0  0  0
 40 41  2  0  0  0
 40 42  1  0  0  0
 42 43  1  0  0  0
 42104  1  0  0  0
 43 46  1  0  0  0
 43 44  1  0  0  0
 43105  1  0  0  0
 44 45  2  0  0  0
 44 51  1  0  0  0
 46 47  1  0  0  0
 46106  1  0  0  0
 46107  1  0  0  0
 47 48  1  0  0  0
 47108  1  0  0  0
 47109  1  0  0  0
 48 50  1  0  0  0
 48 49  2  0  0  0
 51 52  1  0  0  0
 51110  1  0  0  0
 52 55  1  0  0  0
 52 53  1  0  0  0
 52111  1  0  0  0
 53 54  2  0  0  0
 53 56  1  0  0  0
 55112  1  0  0  0
 55113  1  0  0  0
 55114  1  0  0  0
 56 57  1  0  0  0
 56115  1  0  0  0
 57 60  1  0  0  0
 57 58  1  0  0  0
 57116  1  0  0  0
 58 59  2  0  0  0
 58 64  1  0  0  0
 60 61  1  0  0  0
 60117  1  0  0  0
 60118  1  0  0  0
 61 62  1  0  0  0
 61 63  2  0  0  0
M  CHG  7   1   1  23  -1  38  -1  39  -1  50  -1  62  -1  64  -1
M  END
> <s_m_source_file>
../1g6g_ligand.sdf

> <i_m_source_file_index>
1

> <s_epik_input>
W09IXVtDSDJdW0NASF0oW05IMytdKUMoPU8pW05IXVtDQEBIXShbQ0gyXVtDSF0oW0NIM10pW0NIM10pQyg9TylbTkhdW0NAQEhdKFtDSDJdW0NIMl1DKD1PKVtPSF0pQyg9TylbTkhdW0NAQEhdKFtDSF0oW0NIM10pW0NIM10pQyg9TylbTkhdW0NAQEhdKFtDQEBIXShbQ0gzXSlPUCg9TykoW09IXSlbT0hdKUMoPU8pW05IXVtDQEBIXShbQ0gyXVtDSDJdQyg9TylbT0hdKUMoPU8pW05IXVtDQEBIXShbQ0gzXSlDKD1PKVtOSF1bQ0BIXShDKD1PKVtPSF0pW0NIMl1DKD1PKVtPSF0=

> <s_epik_cmdline>
J2VwaWtfYXBwJywgJy1pbWFlJywgJ2xpZ2FuZF9wcm8ubWFlJywgJy1vbWFlJywgJ2xpZ2FuZF9wcmVwLm1hZScsICctbXMnLCAnMScsICctcGgnLCAnNycsICctcGh0JywgJzAuNScsICctbnQn

> <r_epik_Ionization_Penalty>
  0.2386

> <r_epik_Ionization_Penalty_Charging>
  0.2386

> <r_epik_Ionization_Penalty_Neutral>
  0.0000

> <r_epik_State_Penalty>
  0.0972

> <r_epik_Charging_Adjusted_Penalty>
0.335834983682965

> <i_epik_Tot_Q>
-5

> <i_epik_Tot_abs_Q>
7

$$$$
