1g6r_ligand
                    3D
 Schrodinger Suite 2020-3.
146148  0  0  1  0            999 V2000
   98.7140   21.4660   23.7430 N   0  3  0  0  0  0
   97.6360   22.5110   23.8420 C   0  0  2  0  0  0
   98.2340   23.8800   23.6410 C   0  0  0  0  0  0
   99.3160   24.1630   24.1360 O   0  0  0  0  0  0
   96.9610   22.4650   25.2090 C   0  0  0  0  0  0
   96.2290   21.2670   25.3700 O   0  0  0  0  0  0
   97.5300   24.7240   22.9110 N   0  0  0  0  0  0
   98.0050   26.0610   22.6270 C   0  0  2  0  0  0
   97.4550   26.9420   23.7190 C   0  0  0  0  0  0
   96.6390   26.4700   24.4850 O   0  0  0  0  0  0
   97.5280   26.5120   21.2220 C   0  0  2  0  0  0
   97.7040   28.0200   21.0310 C   0  0  0  0  0  0
   96.0810   26.1140   21.0080 C   0  0  0  0  0  0
   97.3150   28.4680   19.6220 C   0  0  0  0  0  0
   97.9150   28.1870   23.8220 N   0  0  0  0  0  0
   97.4580   29.1270   24.8520 C   0  0  2  0  0  0
   95.9600   29.4110   24.7020 C   0  0  0  0  0  0
   95.2540   28.6090   24.1100 O   0  0  0  0  0  0
   98.2670   30.4180   24.6940 C   0  0  0  0  0  0
   97.9960   31.5370   25.6900 C   0  0  0  0  0  0
   98.0050   31.3060   27.0750 C   0  0  0  0  0  0
   97.8780   32.8610   25.2540 C   0  0  0  0  0  0
   97.9220   32.3690   27.9930 C   0  0  0  0  0  0
   97.8000   33.9310   26.1720 C   0  0  0  0  0  0
   97.8310   33.6730   27.5270 C   0  0  0  0  0  0
   97.8520   34.7140   28.4190 O   0  0  0  0  0  0
   95.4710   30.5280   25.2530 N   0  0  0  0  0  0
   94.0770   30.9070   25.0720 C   0  0  2  0  0  0
   93.9500   32.4200   24.9960 C   0  0  0  0  0  0
   93.2350   33.0370   25.7470 O   0  0  0  0  0  0
   93.1830   30.3730   26.1800 C   0  0  0  0  0  0
   91.7290   30.7460   25.9230 C   0  0  0  0  0  0
   90.8030   30.2390   26.9890 C   0  0  0  0  0  0
   91.0270   30.8940   28.2750 N   0  0  0  0  0  0
   90.6030   30.4070   29.4420 C   0  0  0  0  0  0
   89.9350   29.2570   29.5100 N   0  0  0  0  0  0
   90.8230   31.0820   30.5570 N   0  3  0  0  0  0
   94.6390   32.9990   24.0370 N   0  0  0  0  0  0
   94.6950   34.4310   23.7890 C   0  0  2  0  0  0
   93.5870   35.3220   24.3370 C   0  0  0  0  0  0
   92.4410   34.9110   24.4910 O   0  0  0  0  0  0
   94.8690   34.6310   22.2870 C   0  0  0  0  0  0
   95.9010   33.6660   21.7030 C   0  0  0  0  0  0
   95.6200   32.3010   21.5940 C   0  0  0  0  0  0
   97.1640   34.1150   21.3110 C   0  0  0  0  0  0
   96.5610   31.4100   21.1110 C   0  0  0  0  0  0
   98.1150   33.2410   20.8280 C   0  0  0  0  0  0
   97.8120   31.8810   20.7230 C   0  0  0  0  0  0
   98.7520   31.0120   20.1900 O   0  0  0  0  0  0
   93.9650   36.5580   24.6410 N   0  0  0  0  0  0
   93.0750   37.5750   25.1870 C   0  0  2  0  0  0
   93.0700   38.7040   24.1800 C   0  0  0  0  0  0
   94.0790   38.9300   23.5250 O   0  0  0  0  0  0
   93.6220   38.0520   26.5460 C   0  0  0  0  0  0
   92.9540   39.2880   27.1420 C   0  0  0  0  0  0
   91.6090   39.2620   27.5390 C   0  0  0  0  0  0
   93.6580   40.4930   27.2730 C   0  0  0  0  0  0
   90.9800   40.3970   28.0330 C   0  0  0  0  0  0
   93.0370   41.6350   27.7720 C   0  0  0  0  0  0
   91.6930   41.5750   28.1440 C   0  0  0  0  0  0
   91.0430   42.6880   28.6110 O   0  0  0  0  0  0
   91.9490   39.4040   24.0690 N   0  0  0  0  0  0
   91.8040   40.4990   23.1190 C   0  0  0  0  0  0
   92.8710   41.5790   22.9890 C   0  0  0  0  0  0
   93.6780   41.8100   23.8910 O   0  0  0  0  0  0
   92.8690   42.2490   21.8410 N   0  0  0  0  0  0
   93.8150   43.3290   21.5650 C   0  0  2  0  0  0
   93.3120   44.6280   22.1740 C   0  0  0  0  0  0
   94.1300   45.2490   22.8760 O   0  0  0  0  0  0
   94.0160   43.5070   20.0420 C   0  0  0  0  0  0
   94.7430   42.4000   19.2650 C   0  0  0  0  0  0
   94.4440   42.5050   17.7860 C   0  0  0  0  0  0
   96.2400   42.5070   19.4930 C   0  0  0  0  0  0
   92.1270   44.9960   21.9500 O   0  5  0  0  0  0
   99.1854   21.5184   22.7505 H   0  0  0  0  0  0
   98.2724   20.4689   23.8870 H   0  0  0  0  0  0
   99.4723   21.6468   24.5191 H   0  0  0  0  0  0
   96.8966   22.3057   23.0539 H   0  0  0  0  0  0
   97.7258   22.5207   25.9976 H   0  0  0  0  0  0
   96.2714   23.3165   25.3063 H   0  0  0  0  0  0
   95.6813   21.0785   26.3052 H   0  0  0  0  0  0
   96.5598   24.3893   22.5151 H   0  0  0  0  0  0
   99.1048   26.0647   22.6482 H   0  0  0  0  0  0
   98.1358   26.0075   20.4565 H   0  0  0  0  0  0
   97.0682   28.5573   21.7501 H   0  0  0  0  0  0
   98.7569   28.2905   21.1990 H   0  0  0  0  0  0
   95.9746   25.0283   21.1493 H   0  0  0  0  0  0
   95.7741   26.3826   19.9864 H   0  0  0  0  0  0
   95.4444   26.6423   21.7330 H   0  0  0  0  0  0
   97.4570   29.5550   19.5306 H   0  0  0  0  0  0
   96.2597   28.2191   19.4364 H   0  0  0  0  0  0
   97.9484   27.9522   18.8853 H   0  0  0  0  0  0
   98.6724   28.5004   23.0884 H   0  0  0  0  0  0
   97.6282   28.6611   25.8338 H   0  0  0  0  0  0
   99.3394   30.1929   24.7908 H   0  0  0  0  0  0
   98.0719   30.8540   23.7031 H   0  0  0  0  0  0
   98.0777   30.2837   27.4460 H   0  0  0  0  0  0
   97.8456   33.0707   24.1849 H   0  0  0  0  0  0
   97.9291   32.1694   29.0645 H   0  0  0  0  0  0
   97.7157   34.9563   25.8118 H   0  0  0  0  0  0
   97.8767   34.5117   29.4999 H   0  0  0  0  0  0
   96.1407   31.1638   25.8507 H   0  0  0  0  0  0
   93.7847   30.4368   24.1215 H   0  0  0  0  0  0
   93.2672   29.2771   26.2230 H   0  0  0  0  0  0
   93.4960   30.8028   27.1429 H   0  0  0  0  0  0
   91.6324   31.8411   25.8864 H   0  0  0  0  0  0
   91.4045   30.3170   24.9635 H   0  0  0  0  0  0
   89.7613   30.4252   26.6887 H   0  0  0  0  0  0
   90.9576   29.1585   27.1255 H   0  0  0  0  0  0
   91.5745   31.8471   28.3188 H   0  0  0  0  0  0
   89.7407   28.6789   28.5946 H   0  0  0  0  0  0
   89.5775   28.8852   30.4816 H   0  0  0  0  0  0
   91.3727   32.0343   30.5241 H   0  0  0  0  0  0
   95.2034   32.3071   23.3946 H   0  0  0  0  0  0
   95.5573   34.7280   24.4040 H   0  0  0  0  0  0
   93.9081   34.4579   21.7803 H   0  0  0  0  0  0
   95.2070   35.6592   22.0907 H   0  0  0  0  0  0
   94.6399   31.9316   21.8956 H   0  0  0  0  0  0
   97.4024   35.1758   21.3883 H   0  0  0  0  0  0
   96.3251   30.3486   21.0349 H   0  0  0  0  0  0
   99.0969   33.6087   20.5300 H   0  0  0  0  0  0
   98.5228   29.9397   20.1032 H   0  0  0  0  0  0
   95.0232   36.7949   24.4564 H   0  0  0  0  0  0
   92.0656   37.1598   25.3238 H   0  0  0  0  0  0
   93.5015   37.2517   27.2910 H   0  0  0  0  0  0
   94.6886   38.3013   26.4449 H   0  0  0  0  0  0
   91.0462   38.3320   27.4581 H   0  0  0  0  0  0
   94.7070   40.5367   26.9799 H   0  0  0  0  0  0
   89.9322   40.3588   28.3308 H   0  0  0  0  0  0
   93.5947   42.5663   27.8711 H   0  0  0  0  0  0
   89.9836   42.6253   28.9004 H   0  0  0  0  0  0
   91.1105   39.1321   24.7270 H   0  0  0  0  0  0
   91.7296   40.0925   22.0996 H   0  0  0  0  0  0
   90.8933   41.0697   23.3535 H   0  0  0  0  0  0
   92.1217   41.9659   21.0851 H   0  0  0  0  0  0
   94.7574   43.0292   22.0468 H   0  0  0  0  0  0
   93.0359   43.5977   19.5509 H   0  0  0  0  0  0
   94.6059   44.4162   19.8538 H   0  0  0  0  0  0
   94.3926   41.4187   19.6176 H   0  0  0  0  0  0
   93.3587   42.4271   17.6249 H   0  0  0  0  0  0
   94.9536   41.6907   17.2502 H   0  0  0  0  0  0
   94.8023   43.4737   17.4074 H   0  0  0  0  0  0
   96.4533   42.4302   20.5694 H   0  0  0  0  0  0
   96.6000   43.4757   19.1160 H   0  0  0  0  0  0
   96.7514   41.6927   18.9588 H   0  0  0  0  0  0
   90.4564   30.6915   31.5178 H   0  0  0  0  0  0
  1  2  1  0  0  0
  1 75  1  0  0  0
  1 76  1  0  0  0
  1 77  1  0  0  0
  2  3  1  0  0  0
  2  5  1  0  0  0
  2 78  1  0  0  0
  3  4  2  0  0  0
  3  7  1  0  0  0
  5  6  1  0  0  0
  5 79  1  0  0  0
  5 80  1  0  0  0
  6 81  1  0  0  0
  7  8  1  0  0  0
  7 82  1  0  0  0
  8  9  1  0  0  0
  8 11  1  0  0  0
  8 83  1  0  0  0
  9 10  2  0  0  0
  9 15  1  0  0  0
 11 12  1  0  0  0
 11 13  1  0  0  0
 11 84  1  0  0  0
 12 14  1  0  0  0
 12 85  1  0  0  0
 12 86  1  0  0  0
 13 87  1  0  0  0
 13 88  1  0  0  0
 13 89  1  0  0  0
 14 90  1  0  0  0
 14 91  1  0  0  0
 14 92  1  0  0  0
 15 16  1  0  0  0
 15 93  1  0  0  0
 16 17  1  0  0  0
 16 19  1  0  0  0
 16 94  1  0  0  0
 17 18  2  0  0  0
 17 27  1  0  0  0
 19 20  1  0  0  0
 19 95  1  0  0  0
 19 96  1  0  0  0
 20 21  2  0  0  0
 20 22  1  0  0  0
 21 23  1  0  0  0
 21 97  1  0  0  0
 22 24  2  0  0  0
 22 98  1  0  0  0
 23 25  2  0  0  0
 23 99  1  0  0  0
 24 25  1  0  0  0
 24100  1  0  0  0
 25 26  1  0  0  0
 26101  1  0  0  0
 27 28  1  0  0  0
 27102  1  0  0  0
 28 29  1  0  0  0
 28 31  1  0  0  0
 28103  1  0  0  0
 29 30  2  0  0  0
 29 38  1  0  0  0
 31 32  1  0  0  0
 31104  1  0  0  0
 31105  1  0  0  0
 32 33  1  0  0  0
 32106  1  0  0  0
 32107  1  0  0  0
 33 34  1  0  0  0
 33108  1  0  0  0
 33109  1  0  0  0
 34 35  1  0  0  0
 34110  1  0  0  0
 35 36  1  0  0  0
 35 37  2  0  0  0
 36111  1  0  0  0
 36112  1  0  0  0
 37113  1  0  0  0
 37146  1  0  0  0
 38 39  1  0  0  0
 38114  1  0  0  0
 39 40  1  0  0  0
 39 42  1  0  0  0
 39115  1  0  0  0
 40 41  2  0  0  0
 40 50  1  0  0  0
 42 43  1  0  0  0
 42116  1  0  0  0
 42117  1  0  0  0
 43 44  2  0  0  0
 43 45  1  0  0  0
 44 46  1  0  0  0
 44118  1  0  0  0
 45 47  2  0  0  0
 45119  1  0  0  0
 46 48  2  0  0  0
 46120  1  0  0  0
 47 48  1  0  0  0
 47121  1  0  0  0
 48 49  1  0  0  0
 49122  1  0  0  0
 50 51  1  0  0  0
 50123  1  0  0  0
 51 52  1  0  0  0
 51 54  1  0  0  0
 51124  1  0  0  0
 52 53  2  0  0  0
 52 62  1  0  0  0
 54 55  1  0  0  0
 54125  1  0  0  0
 54126  1  0  0  0
 55 56  2  0  0  0
 55 57  1  0  0  0
 56 58  1  0  0  0
 56127  1  0  0  0
 57 59  2  0  0  0
 57128  1  0  0  0
 58 60  2  0  0  0
 58129  1  0  0  0
 59 60  1  0  0  0
 59130  1  0  0  0
 60 61  1  0  0  0
 61131  1  0  0  0
 62 63  1  0  0  0
 62132  1  0  0  0
 63 64  1  0  0  0
 63133  1  0  0  0
 63134  1  0  0  0
 64 65  2  0  0  0
 64 66  1  0  0  0
 66 67  1  0  0  0
 66135  1  0  0  0
 67 68  1  0  0  0
 67 70  1  0  0  0
 67136  1  0  0  0
 68 69  2  0  0  0
 68 74  1  0  0  0
 70 71  1  0  0  0
 70137  1  0  0  0
 70138  1  0  0  0
 71 72  1  0  0  0
 71 73  1  0  0  0
 71139  1  0  0  0
 72140  1  0  0  0
 72141  1  0  0  0
 72142  1  0  0  0
 73143  1  0  0  0
 73144  1  0  0  0
 73145  1  0  0  0
M  CHG  3   1   1  37   1  74  -1
M  END
> <s_m_source_file>
../1g6r_ligand.sdf

> <i_m_source_file_index>
1

> <s_epik_input>
W09IXVtDSDJdW0NASF0oW05IMytdKUMoPU8pW05IXVtDQEBIXShbQ0BASF0oW0NIM10pW0NIMl1bQ0gzXSlDKD1PKVtOSF1bQ0BASF0oW0NIMl1jMVtjSF1bY0hdYyhbT0hdKVtjSF1bY0hdMSlDKD1PKVtOSF1bQ0BASF0oW0NIMl1bQ0gyXVtDSDJdW05IXS9DKFtOSDJdKT1OXFtIXSlDKD1PKVtOSF1bQ0BASF0oW0NIMl1jMltjSF1bY0hdYyhbT0hdKVtjSF1bY0hdMilDKD1PKVtOSF1bQ0BASF0oW0NIMl1jM1tjSF1bY0hdYyhbT0hdKVtjSF1bY0hdMylDKD1PKVtOSF1bQ0gyXUMoPU8pW05IXVtDQEhdKEMoPU8pW09IXSlbQ0gyXVtDSF0oW0NIM10pW0NIM10=

> <s_epik_cmdline>
J2VwaWtfYXBwJywgJy1pbWFlJywgJ2xpZ2FuZF9wcm8ubWFlJywgJy1vbWFlJywgJ2xpZ2FuZF9wcmVwLm1hZScsICctbXMnLCAnMScsICctcGgnLCAnNycsICctcGh0JywgJzAuNScsICctbnQn

> <r_lp_tautomer_probability>
0.999999999992094

> <r_epik_Ionization_Penalty>
  0.1484

> <r_epik_Ionization_Penalty_Charging>
  0.1456

> <r_epik_Ionization_Penalty_Neutral>
  0.0028

> <r_epik_State_Penalty>
  0.1348

> <r_epik_Charging_Adjusted_Penalty>
0.280403316198683

> <i_epik_Tot_Q>
1

> <i_epik_Tot_abs_Q>
3

> <s_epik_Chemistry_Notes>
This compound has an imine and may undergo hydrolysis.

$$$$
