1g6s_ligand
                    3D
 Schrodinger Suite 2020-3.
 24 24  0  0  1  0            999 V2000
   55.9200   12.3110   28.0800 C   0  0  0  0  0  0
   54.8520   11.4170   28.1900 C   0  0  0  0  0  0
   54.9570   10.1530   29.0090 C   0  0  2  0  0  0
   56.1720   10.1590   29.9640 C   0  0  2  0  0  0
   57.4210   10.6520   29.2270 C   0  0  1  0  0  0
   57.1640   12.1000   28.7920 C   0  0  0  0  0  0
   55.7340   13.5390   27.2470 C   0  0  0  0  0  0
   54.9510    8.9680   28.1100 O   0  0  0  0  0  0
   56.3380    8.8390   30.4950 O   0  0  0  0  0  0
   58.5520   10.6080   30.1070 O   0  0  0  0  0  0
   54.8180   13.5330   26.3810 O   0  5  0  0  0  0
   56.4720   14.4900   27.4930 O   0  0  0  0  0  0
   53.5890    8.0280   27.8830 P   0  0  0  0  0  0
   52.5400    8.8970   27.3000 O   0  0  0  0  0  0
   53.2750    7.5200   29.2850 O   0  5  0  0  0  0
   54.0720    6.9740   26.9310 O   0  5  0  0  0  0
   53.9042   11.6260   27.6723 H   0  0  0  0  0  0
   54.0539   10.0835   29.6332 H   0  0  0  0  0  0
   56.0195   10.7941   30.8491 H   0  0  0  0  0  0
   57.6891   10.0007   28.3820 H   0  0  0  0  0  0
   58.0081   12.3917   28.1498 H   0  0  0  0  0  0
   57.1711   12.7109   29.7068 H   0  0  0  0  0  0
   55.5164    8.3618   31.0492 H   0  0  0  0  0  0
   58.8879    9.6468   30.5233 H   0  0  0  0  0  0
  1  2  2  0  0  0
  1  6  1  0  0  0
  1  7  1  0  0  0
  2  3  1  0  0  0
  2 17  1  0  0  0
  3  4  1  0  0  0
  3  8  1  0  0  0
  3 18  1  0  0  0
  4  5  1  0  0  0
  4  9  1  0  0  0
  4 19  1  0  0  0
  5  6  1  0  0  0
  5 10  1  0  0  0
  5 20  1  0  0  0
  6 21  1  0  0  0
  6 22  1  0  0  0
  7 11  1  0  0  0
  7 12  2  0  0  0
  8 13  1  0  0  0
  9 23  1  0  0  0
 10 24  1  0  0  0
 13 14  2  0  0  0
 13 15  1  0  0  0
 13 16  1  0  0  0
M  CHG  3  11  -1  15  -1  16  -1
M  END
> <s_m_source_file>
../1g6s_ligand.sdf

> <i_m_source_file_index>
1

> <s_epik_input>
W09IXUMoPU8pQzE9W0NIXVtDQEhdKFtDQEBIXShbT0hdKVtDQEBIXShbQ0gyXTEpW09IXSlPUCg9TykoW09IXSlbT0hd

> <s_epik_cmdline>
J2VwaWtfYXBwJywgJy1pbWFlJywgJ2xpZ2FuZF9wcm8ubWFlJywgJy1vbWFlJywgJ2xpZ2FuZF9wcmVwLm1hZScsICctbXMnLCAnMScsICctcGgnLCAnNycsICctcGh0JywgJzAuNScsICctbnQn

> <r_epik_Ionization_Penalty>
  0.1392

> <r_epik_Ionization_Penalty_Charging>
  0.1392

> <r_epik_Ionization_Penalty_Neutral>
  0.0000

> <r_epik_State_Penalty>
  0.1275

> <r_epik_Charging_Adjusted_Penalty>
0.266672829637261

> <i_epik_Tot_Q>
-3

> <i_epik_Tot_abs_Q>
3

$$$$
