1g74_ligand
                    3D
 Schrodinger Suite 2020-3.
 53 52  0  0  1  0            999 V2000
  -49.3100   66.7060  -12.0240 C   0  0  0  0  0  0
  -49.8630   67.5500  -12.7240 O   0  5  0  0  0  0
  -49.2590   65.5400  -12.3780 O   0  0  0  0  0  0
  -48.6860   67.0870  -10.7120 C   0  0  0  0  0  0
  -47.2540   67.5360  -10.9030 C   0  0  0  0  0  0
  -46.5990   67.9150   -9.6010 C   0  0  0  0  0  0
  -45.4230   66.9660   -9.3680 C   0  0  0  0  0  0
  -45.8350   65.7410   -8.5460 C   0  0  0  0  0  0
  -45.9060   66.0990   -7.0750 C   0  0  0  0  0  0
  -44.5580   66.2530   -6.4030 C   0  0  0  0  0  0
  -44.8620   66.6500   -5.0530 C   0  0  0  0  0  0
  -44.9200   67.9780   -4.5750 C   0  0  0  0  0  0
  -44.6790   69.2080   -5.3240 C   0  0  0  0  0  0
  -45.9140   69.6490   -6.0680 C   0  0  0  0  0  0
  -45.6410   70.9150   -6.8340 C   0  0  0  0  0  0
  -46.8790   71.3370   -7.6050 C   0  0  0  0  0  0
  -47.7610   72.3150   -6.8270 C   0  0  0  0  0  0
  -48.9990   72.6670   -7.6460 C   0  0  0  0  0  0
  -50.0060   71.5170   -7.7850 C   0  0  0  0  0  0
  -51.1880   71.9810   -8.6310 C   0  0  0  0  0  0
  -49.2570   67.9115  -10.2602 H   0  0  0  0  0  0
  -48.6965   66.2198  -10.0354 H   0  0  0  0  0  0
  -46.6709   66.7197  -11.3542 H   0  0  0  0  0  0
  -47.2302   68.4135  -11.5659 H   0  0  0  0  0  0
  -46.2423   68.9540   -9.6588 H   0  0  0  0  0  0
  -47.3286   67.8228   -8.7830 H   0  0  0  0  0  0
  -45.0356   66.6175  -10.3367 H   0  0  0  0  0  0
  -44.6270   67.4953   -8.8238 H   0  0  0  0  0  0
  -46.8229   65.3908   -8.8798 H   0  0  0  0  0  0
  -45.0950   64.9393   -8.6866 H   0  0  0  0  0  0
  -46.4351   67.0560   -6.9557 H   0  0  0  0  0  0
  -46.4472   65.3106   -6.5314 H   0  0  0  0  0  0
  -44.0210   65.2935   -6.4342 H   0  0  0  0  0  0
  -43.9708   67.0192   -6.9304 H   0  0  0  0  0  0
  -45.0593   65.8105   -4.3701 H   0  0  0  0  0  0
  -45.1716   68.1731   -3.5221 H   0  0  0  0  0  0
  -44.3851   70.0087   -4.6293 H   0  0  0  0  0  0
  -43.8727   69.0411   -6.0534 H   0  0  0  0  0  0
  -46.2176   68.8618   -6.7738 H   0  0  0  0  0  0
  -46.7279   69.8325   -5.3512 H   0  0  0  0  0  0
  -45.3630   71.7153   -6.1324 H   0  0  0  0  0  0
  -44.8162   70.7448   -7.5416 H   0  0  0  0  0  0
  -46.5777   71.8299   -8.5411 H   0  0  0  0  0  0
  -47.4867   70.4499   -7.8369 H   0  0  0  0  0  0
  -48.0738   71.8524   -5.8793 H   0  0  0  0  0  0
  -47.1932   73.2334   -6.6169 H   0  0  0  0  0  0
  -49.5283   73.5049   -7.1687 H   0  0  0  0  0  0
  -48.6958   72.9565   -8.6630 H   0  0  0  0  0  0
  -49.5185   70.6597   -8.2722 H   0  0  0  0  0  0
  -50.3616   71.2185   -6.7878 H   0  0  0  0  0  0
  -51.9115   71.1587   -8.7324 H   0  0  0  0  0  0
  -50.8307   72.2800   -9.6275 H   0  0  0  0  0  0
  -51.6738   72.8388   -8.1430 H   0  0  0  0  0  0
  1  2  1  0  0  0
  1  3  2  0  0  0
  1  4  1  0  0  0
  4  5  1  0  0  0
  4 21  1  0  0  0
  4 22  1  0  0  0
  5  6  1  0  0  0
  5 23  1  0  0  0
  5 24  1  0  0  0
  6  7  1  0  0  0
  6 25  1  0  0  0
  6 26  1  0  0  0
  7  8  1  0  0  0
  7 27  1  0  0  0
  7 28  1  0  0  0
  8  9  1  0  0  0
  8 29  1  0  0  0
  8 30  1  0  0  0
  9 10  1  0  0  0
  9 31  1  0  0  0
  9 32  1  0  0  0
 10 11  1  0  0  0
 10 33  1  0  0  0
 10 34  1  0  0  0
 11 12  2  0  0  0
 11 35  1  0  0  0
 12 13  1  0  0  0
 12 36  1  0  0  0
 13 14  1  0  0  0
 13 37  1  0  0  0
 13 38  1  0  0  0
 14 15  1  0  0  0
 14 39  1  0  0  0
 14 40  1  0  0  0
 15 16  1  0  0  0
 15 41  1  0  0  0
 15 42  1  0  0  0
 16 17  1  0  0  0
 16 43  1  0  0  0
 16 44  1  0  0  0
 17 18  1  0  0  0
 17 45  1  0  0  0
 17 46  1  0  0  0
 18 19  1  0  0  0
 18 47  1  0  0  0
 18 48  1  0  0  0
 19 20  1  0  0  0
 19 49  1  0  0  0
 19 50  1  0  0  0
 20 51  1  0  0  0
 20 52  1  0  0  0
 20 53  1  0  0  0
M  CHG  1   2  -1
M  END
> <s_m_source_file>
../1g74_ligand.sdf

> <i_m_source_file_index>
1

> <s_epik_input>
W09IXUMoPU8pW0NIMl1bQ0gyXVtDSDJdW0NIMl1bQ0gyXVtDSDJdW0NIMl0vW0NIXT1bQ0hdXFtDSDJdW0NIMl1bQ0gyXVtDSDJdW0NIMl1bQ0gyXVtDSDJdW0NIM10=

> <s_epik_cmdline>
J2VwaWtfYXBwJywgJy1pbWFlJywgJ2xpZ2FuZF9wcm8ubWFlJywgJy1vbWFlJywgJ2xpZ2FuZF9wcmVwLm1hZScsICctbXMnLCAnMScsICctcGgnLCAnNycsICctcGh0JywgJzAuNScsICctbnQn

> <r_lp_tautomer_probability>
1

> <r_epik_Ionization_Penalty>
  0.0049

> <r_epik_Ionization_Penalty_Charging>
  0.0049

> <r_epik_Ionization_Penalty_Neutral>
  0.0000

> <r_epik_State_Penalty>
 -0.0000

> <r_epik_Charging_Adjusted_Penalty>
0.00485124679394524

> <i_epik_Tot_Q>
-1

> <i_epik_Tot_abs_Q>
1

$$$$
