1g7f_ligand
                    3D
 Schrodinger Suite 2020-3.
 69 70  0  0  1  0            999 V2000
   16.6310   16.9120   13.4640 C   0  0  0  0  0  0
   17.1120   17.6660   14.4430 O   0  5  0  0  0  0
   17.2430   16.1470   12.7730 O   0  0  0  0  0  0
   13.6200   16.8450   11.3700 C   0  0  0  0  0  0
   13.5290   16.6220    9.9840 C   0  0  0  0  0  0
   12.3420   16.7780    9.2870 C   0  0  0  0  0  0
   11.1940   17.1850    9.9980 C   0  0  0  0  0  0
   11.2680   17.4300   11.3780 C   0  0  0  0  0  0
   12.4780   17.2570   12.0860 C   0  0  0  0  0  0
   15.1150   17.1000   13.2920 C   0  0  0  0  0  0
    9.9130   17.3420    9.2260 C   0  0  0  0  0  0
    9.2290   18.7380    9.4000 C   0  0  2  0  0  0
   14.8490   16.6270   11.9350 O   0  0  0  0  0  0
   14.4610   16.2480   14.3920 C   0  0  0  0  0  0
   14.3100   16.6620   15.5300 O   0  0  0  0  0  0
   14.1010   15.0110   14.0240 O   0  5  0  0  0  0
    7.9790   18.6660    8.6490 N   0  0  0  0  0  0
   10.0600   19.8290    8.6770 C   0  0  0  0  0  0
    6.9170   19.3130    9.1300 C   0  0  0  0  0  0
   10.0390   19.7240    7.3360 N   0  0  0  0  0  0
   10.8760   20.4850    9.3260 O   0  0  0  0  0  0
   10.9840   20.3800    6.4460 C   0  0  0  0  0  0
   11.3500   19.4360    5.2790 C   0  0  0  0  0  0
   11.5130   17.9500    5.7330 C   0  0  0  0  0  0
   11.7960   17.0300    4.5220 C   0  0  0  0  0  0
   13.2900   16.7550    4.4290 C   0  0  0  0  0  0
    7.0490   20.2070   10.0260 O   0  0  0  0  0  0
    5.7550   19.0040    8.5570 N   0  0  0  0  0  0
    4.5540   19.7560    8.9600 C   0  0  1  0  0  0
    4.4420   21.0060    8.0080 C   0  0  0  0  0  0
    3.3390   18.8360    8.8500 C   0  0  0  0  0  0
    3.6810   17.5840    8.5010 O   0  5  0  0  0  0
    2.2300   19.1760    9.1390 O   0  0  0  0  0  0
    4.1860   20.5930    6.5620 C   0  0  0  0  0  0
    5.2330   20.1830    5.7240 C   0  0  0  0  0  0
    4.9830   19.7950    4.3870 C   0  0  0  0  0  0
    3.6800   19.8200    3.8940 C   0  0  0  0  0  0
    2.6250   20.2300    4.7190 C   0  0  0  0  0  0
    2.8770   20.6170    6.0510 C   0  0  0  0  0  0
   14.4227   16.3161    9.4401 H   0  0  0  0  0  0
   12.2964   16.5906    8.2142 H   0  0  0  0  0  0
   10.3768   17.7593   11.9123 H   0  0  0  0  0  0
   12.5273   17.4377   13.1598 H   0  0  0  0  0  0
   14.7124   18.1221   13.3494 H   0  0  0  0  0  0
   10.1136   17.2116    8.1523 H   0  0  0  0  0  0
    9.1892   16.5834    9.5585 H   0  0  0  0  0  0
    9.0587   18.9803   10.4594 H   0  0  0  0  0  0
    7.9318   18.0892    7.7135 H   0  0  0  0  0  0
    9.2402   19.0919    6.9208 H   0  0  0  0  0  0
   10.5310   21.2974    6.0420 H   0  0  0  0  0  0
   11.8962   20.6368    7.0046 H   0  0  0  0  0  0
   10.5572   19.4702    4.5173 H   0  0  0  0  0  0
   12.3021   19.7577    4.8319 H   0  0  0  0  0  0
   12.3526   17.8725    6.4395 H   0  0  0  0  0  0
   10.5882   17.6131    6.2242 H   0  0  0  0  0  0
   11.2564   16.0799    4.6493 H   0  0  0  0  0  0
   11.4567   17.5236    3.5993 H   0  0  0  0  0  0
   13.4894   16.1008    3.5675 H   0  0  0  0  0  0
   13.6300   16.2609    5.3511 H   0  0  0  0  0  0
   13.8303   17.7046    4.3012 H   0  0  0  0  0  0
    5.6782   18.2095    7.8001 H   0  0  0  0  0  0
    4.6446   20.0594   10.0134 H   0  0  0  0  0  0
    3.6095   21.6448    8.3380 H   0  0  0  0  0  0
    5.3803   21.5791    8.0433 H   0  0  0  0  0  0
    6.2529   20.1631    6.1080 H   0  0  0  0  0  0
    5.8054   19.4781    3.7456 H   0  0  0  0  0  0
    3.4815   19.5201    2.8650 H   0  0  0  0  0  0
    1.6069   20.2499    4.3303 H   0  0  0  0  0  0
    2.0522   20.9365    6.6879 H   0  0  0  0  0  0
  1 10  1  0  0  0
  1  3  2  0  0  0
  1  2  1  0  0  0
  4 13  1  0  0  0
  4  9  2  0  0  0
  4  5  1  0  0  0
  5  6  2  0  0  0
  5 40  1  0  0  0
  6  7  1  0  0  0
  6 41  1  0  0  0
  7 11  1  0  0  0
  7  8  2  0  0  0
  8  9  1  0  0  0
  8 42  1  0  0  0
  9 43  1  0  0  0
 10 14  1  0  0  0
 10 13  1  0  0  0
 10 44  1  0  0  0
 11 12  1  0  0  0
 11 45  1  0  0  0
 11 46  1  0  0  0
 12 17  1  0  0  0
 12 18  1  0  0  0
 12 47  1  0  0  0
 14 16  1  0  0  0
 14 15  2  0  0  0
 17 19  1  0  0  0
 17 48  1  0  0  0
 18 20  1  0  0  0
 18 21  2  0  0  0
 19 28  1  0  0  0
 19 27  2  0  0  0
 20 22  1  0  0  0
 20 49  1  0  0  0
 22 23  1  0  0  0
 22 50  1  0  0  0
 22 51  1  0  0  0
 23 24  1  0  0  0
 23 52  1  0  0  0
 23 53  1  0  0  0
 24 25  1  0  0  0
 24 54  1  0  0  0
 24 55  1  0  0  0
 25 26  1  0  0  0
 25 56  1  0  0  0
 25 57  1  0  0  0
 26 58  1  0  0  0
 26 59  1  0  0  0
 26 60  1  0  0  0
 28 29  1  0  0  0
 28 61  1  0  0  0
 29 31  1  0  0  0
 29 30  1  0  0  0
 29 62  1  0  0  0
 30 34  1  0  0  0
 30 63  1  0  0  0
 30 64  1  0  0  0
 31 33  2  0  0  0
 31 32  1  0  0  0
 34 39  2  0  0  0
 34 35  1  0  0  0
 35 36  2  0  0  0
 35 65  1  0  0  0
 36 37  1  0  0  0
 36 66  1  0  0  0
 37 38  2  0  0  0
 37 67  1  0  0  0
 38 39  1  0  0  0
 38 68  1  0  0  0
 39 69  1  0  0  0
M  CHG  3   2  -1  16  -1  32  -1
M  END
> <s_m_source_file>
../1g7f_ligand.sdf

> <i_m_source_file_index>
1

> <s_epik_input>
W09IXUMoPU8pW0NIXShDKD1PKVtPSF0pT2MxW2NIXVtjSF1jKFtjSF1bY0hdMSlbQ0gyXVtDQEBIXShDKD1PKVtOSF1bQ0gyXVtDSDJdW0NIMl1bQ0gyXVtDSDNdKVtOSF1DKD1PKVtOSF1bQ0BIXShDKD1PKVtPSF0pW0NIMl1jMltjSF1bY0hdW2NIXVtjSF1bY0hdMg==

> <s_epik_cmdline>
J2VwaWtfYXBwJywgJy1pbWFlJywgJ2xpZ2FuZF9wcm8ubWFlJywgJy1vbWFlJywgJ2xpZ2FuZF9wcmVwLm1hZScsICctbXMnLCAnMScsICctcGgnLCAnNycsICctcGh0JywgJzAuNScsICctbnQn

> <r_lp_tautomer_probability>
1

> <r_epik_Ionization_Penalty>
  0.0018

> <r_epik_Ionization_Penalty_Charging>
  0.0017

> <r_epik_Ionization_Penalty_Neutral>
  0.0000

> <r_epik_State_Penalty>
 -0.0000

> <r_epik_Charging_Adjusted_Penalty>
0.00173695589502087

> <i_epik_Tot_Q>
-3

> <i_epik_Tot_abs_Q>
3

$$$$
