1g7g_ligand
                    3D
 Schrodinger Suite 2020-3.
 77 78  0  0  1  0            999 V2000
   13.5790   16.7950   11.8960 C   0  0  0  0  0  0
   13.6090   16.5240   10.4880 C   0  0  0  0  0  0
   12.4450   16.6400    9.6870 C   0  0  0  0  0  0
   11.2090   17.0440   10.2960 C   0  0  0  0  0  0
   11.1840   17.3230   11.6890 C   0  0  0  0  0  0
   12.3130   17.2150   12.5150 C   0  0  0  0  0  0
    9.9530   17.1490    9.5060 C   0  0  0  0  0  0
    9.2370   18.4730    9.5770 C   0  0  2  0  0  0
   14.7560   16.6440   12.5560 O   0  0  0  0  0  0
    7.9200   18.3490    8.8930 N   0  0  0  0  0  0
   10.0320   19.6340    8.9380 C   0  0  0  0  0  0
    7.0620   19.3870    9.0460 C   0  0  0  0  0  0
    9.9580   19.5790    7.6060 N   0  0  0  0  0  0
   10.7940   20.3350    9.6680 O   0  0  0  0  0  0
   10.7290   20.2850    6.6170 C   0  0  0  0  0  0
   11.8830   19.3290    6.1690 C   0  0  0  0  0  0
   11.2720   17.9250    5.9110 C   0  0  0  0  0  0
   11.5520   17.3940    4.5020 C   0  0  0  0  0  0
   12.5180   16.2080    4.5230 C   0  0  0  0  0  0
    7.2300   20.3300    9.8120 O   0  0  0  0  0  0
    5.6930   19.2860    8.4050 C   0  0  1  0  0  0
    4.6980   19.5130    9.4830 N   0  0  0  0  0  0
   15.8550   17.5160   12.6150 C   0  0  0  0  0  0
   17.0120   16.7230   13.2630 C   0  0  0  0  0  0
   18.1040   17.4340   13.1640 O   0  5  0  0  0  0
   16.9160   15.6390   13.7600 O   0  0  0  0  0  0
   12.2000   17.5440   13.9700 C   0  0  0  0  0  0
   12.8050   17.0000   14.8380 O   0  0  0  0  0  0
   11.4270   18.5500   14.2120 O   0  5  0  0  0  0
    5.6450   20.4210    7.3610 C   0  0  0  0  0  0
    4.3310   20.2240    6.6120 C   0  0  0  0  0  0
    4.3460   19.4330    5.4000 C   0  0  0  0  0  0
    3.1080   19.2460    4.7040 C   0  0  0  0  0  0
    1.9280   19.8490    5.2140 C   0  0  0  0  0  0
    1.9270   20.6200    6.4150 C   0  0  0  0  0  0
    3.1560   20.8170    7.1510 C   0  0  0  0  0  0
    3.9130   18.5020    9.9000 C   0  0  0  0  0  0
    2.8130   18.7700   10.9250 C   0  0  0  0  0  0
    2.0150   17.4970   11.2970 C   0  0  0  0  0  0
    0.6860   17.3290   10.5150 C   0  0  0  0  0  0
   -0.0370   18.2250   10.1140 O   0  0  0  0  0  0
    0.3730   16.0180   10.2890 O   0  5  0  0  0  0
    4.0010   17.3730    9.3520 O   0  0  0  0  0  0
   14.5477   16.2221   10.0234 H   0  0  0  0  0  0
   12.4879   16.4246    8.6194 H   0  0  0  0  0  0
   10.2415   17.6363   12.1380 H   0  0  0  0  0  0
   10.1737   16.9778    8.4421 H   0  0  0  0  0  0
    9.2345   16.3939    9.8576 H   0  0  0  0  0  0
    9.0884   18.6928   10.6445 H   0  0  0  0  0  0
    7.6890   17.4496    8.3034 H   0  0  0  0  0  0
    9.1746   18.8735    7.2920 H   0  0  0  0  0  0
   10.0838   20.5420    5.7639 H   0  0  0  0  0  0
   11.1367   21.2061    7.0589 H   0  0  0  0  0  0
   12.3441   19.7170    5.2488 H   0  0  0  0  0  0
   12.6416   19.2724    6.9636 H   0  0  0  0  0  0
   11.6937   17.2044    6.6271 H   0  0  0  0  0  0
   10.1803   17.9713    6.0373 H   0  0  0  0  0  0
   10.6097   17.0635    4.0408 H   0  0  0  0  0  0
   11.9989   18.1924    3.8913 H   0  0  0  0  0  0
   12.6916   15.8583    3.4946 H   0  0  0  0  0  0
   12.0839   15.3920    5.1194 H   0  0  0  0  0  0
   13.4731   16.5209    4.9701 H   0  0  0  0  0  0
    5.4749   18.3070    7.9533 H   0  0  0  0  0  0
    4.6016   20.5081    9.9419 H   0  0  0  0  0  0
   16.1218   17.8390   11.5979 H   0  0  0  0  0  0
   15.5933   18.3952   13.2221 H   0  0  0  0  0  0
    5.6746   21.3932    7.8747 H   0  0  0  0  0  0
    6.5101   20.3360    6.6870 H   0  0  0  0  0  0
    5.2713   18.9929    5.0281 H   0  0  0  0  0  0
    3.0722   18.6478    3.7935 H   0  0  0  0  0  0
    0.9922   19.7188    4.6704 H   0  0  0  0  0  0
    0.9986   21.0609    6.7779 H   0  0  0  0  0  0
    3.1808   21.3932    8.0759 H   0  0  0  0  0  0
    3.2607   19.1670   11.8480 H   0  0  0  0  0  0
    2.1025   19.5040   10.5170 H   0  0  0  0  0  0
    2.6268   16.6069   11.0888 H   0  0  0  0  0  0
    1.7591   17.5241   12.3665 H   0  0  0  0  0  0
  1  9  1  0  0  0
  1  6  2  0  0  0
  1  2  1  0  0  0
  2  3  2  0  0  0
  2 44  1  0  0  0
  3  4  1  0  0  0
  3 45  1  0  0  0
  4  7  1  0  0  0
  4  5  2  0  0  0
  5  6  1  0  0  0
  5 46  1  0  0  0
  6 27  1  0  0  0
  7  8  1  0  0  0
  7 47  1  0  0  0
  7 48  1  0  0  0
  8 11  1  0  0  0
  8 10  1  0  0  0
  8 49  1  0  0  0
  9 23  1  0  0  0
 10 12  1  0  0  0
 10 50  1  0  0  0
 11 14  2  0  0  0
 11 13  1  0  0  0
 12 21  1  0  0  0
 12 20  2  0  0  0
 13 15  1  0  0  0
 13 51  1  0  0  0
 15 16  1  0  0  0
 15 52  1  0  0  0
 15 53  1  0  0  0
 16 17  1  0  0  0
 16 54  1  0  0  0
 16 55  1  0  0  0
 17 18  1  0  0  0
 17 56  1  0  0  0
 17 57  1  0  0  0
 18 19  1  0  0  0
 18 58  1  0  0  0
 18 59  1  0  0  0
 19 60  1  0  0  0
 19 61  1  0  0  0
 19 62  1  0  0  0
 21 30  1  0  0  0
 21 22  1  0  0  0
 21 63  1  0  0  0
 22 37  1  0  0  0
 22 64  1  0  0  0
 23 24  1  0  0  0
 23 65  1  0  0  0
 23 66  1  0  0  0
 24 26  2  0  0  0
 24 25  1  0  0  0
 27 29  1  0  0  0
 27 28  2  0  0  0
 30 31  1  0  0  0
 30 67  1  0  0  0
 30 68  1  0  0  0
 31 36  2  0  0  0
 31 32  1  0  0  0
 32 33  2  0  0  0
 32 69  1  0  0  0
 33 34  1  0  0  0
 33 70  1  0  0  0
 34 35  2  0  0  0
 34 71  1  0  0  0
 35 36  1  0  0  0
 35 72  1  0  0  0
 36 73  1  0  0  0
 37 43  2  0  0  0
 37 38  1  0  0  0
 38 39  1  0  0  0
 38 74  1  0  0  0
 38 75  1  0  0  0
 39 40  1  0  0  0
 39 76  1  0  0  0
 39 77  1  0  0  0
 40 42  1  0  0  0
 40 41  2  0  0  0
M  CHG  3  25  -1  29  -1  42  -1
M  END
> <s_m_source_file>
../1g7g_ligand.sdf

> <i_m_source_file_index>
1

> <s_epik_input>
W09IXUMoPU8pW0NIMl1PYzFbY0hdW2NIXWMoW2NIXWMxQyg9TylbT0hdKVtDSDJdW0NAQEhdKEMoPU8pW05IXVtDSDJdW0NIMl1bQ0gyXVtDSDJdW0NIM10pW05IXUMoPU8pW0NAQEhdKFtOSF1DKD1PKVtDSDJdW0NIMl1DKD1PKVtPSF0pW0NIMl1jMltjSF1bY0hdW2NIXVtjSF1bY0hdMg==

> <s_epik_cmdline>
J2VwaWtfYXBwJywgJy1pbWFlJywgJ2xpZ2FuZF9wcm8ubWFlJywgJy1vbWFlJywgJ2xpZ2FuZF9wcmVwLm1hZScsICctbXMnLCAnMScsICctcGgnLCAnNycsICctcGh0JywgJzAuNScsICctbnQn

> <r_lp_tautomer_probability>
1

> <r_epik_Ionization_Penalty>
  0.0050

> <r_epik_Ionization_Penalty_Charging>
  0.0050

> <r_epik_Ionization_Penalty_Neutral>
  0.0000

> <r_epik_State_Penalty>
 -0.0000

> <r_epik_Charging_Adjusted_Penalty>
0.00503090752969397

> <i_epik_Tot_Q>
-3

> <i_epik_Tot_abs_Q>
3

$$$$
