1g7v_ligand
                    3D
 Schrodinger Suite 2020-3.
 42 41  0  0  1  0            999 V2000
    7.5020  101.7470   79.8450 P   0  0  0  0  0  0
    6.3700  101.5580   81.0220 O   0  5  0  0  0  0
    7.5090  100.4130   78.9330 O   0  0  0  0  0  0
    7.1910  103.1300   78.8710 O   0  0  0  0  0  0
    8.9520  101.9100   80.5560 O   0  5  0  0  0  0
    7.1240  104.5570   79.3780 C   0  0  0  0  0  0
    6.5590  105.7140   78.3910 C   0  0  1  0  0  0
    6.7970  106.9620   79.0640 O   0  0  0  0  0  0
    7.2140  105.7910   76.9190 C   0  0  1  0  0  0
    6.9200  104.5030   76.3320 O   0  0  0  0  0  0
    6.7040  106.9460   75.8260 C   0  0  2  0  0  0
    7.0740  106.3710   74.5370 O   0  0  0  0  0  0
    7.4580  108.3790   75.8270 C   0  0  2  0  0  0
    7.1800  109.1160   77.0050 O   0  0  0  0  0  0
    7.1410  109.4070   74.6570 C   0  0  0  0  0  0
    5.7140  109.7020   74.2780 N   0  3  2  0  0  0
    5.4600  110.1480   72.8380 C   0  0  0  0  0  0
    5.1740  109.0060   71.8210 C   0  0  0  0  0  0
    4.1300  108.2600   71.9520 O   0  5  0  0  0  0
    5.9590  108.8750   70.8640 O   0  0  0  0  0  0
    5.0530  110.6530   75.2690 C   0  0  0  0  0  0
    5.5890  112.3360   75.0920 P   0  0  0  0  0  0
    4.5340  112.9810   74.0490 O   0  5  0  0  0  0
    5.5880  113.1960   76.4670 O   0  5  0  0  0  0
    7.0600  112.2980   74.4760 O   0  0  0  0  0  0
    6.4692  104.6021   80.2607 H   0  0  0  0  0  0
    8.1336  104.8963   79.6527 H   0  0  0  0  0  0
    5.4751  105.5891   78.2512 H   0  0  0  0  0  0
    6.4270  107.1136   80.0887 H   0  0  0  0  0  0
    8.2921  105.9462   77.0727 H   0  0  0  0  0  0
    7.1703  103.5805   76.8763 H   0  0  0  0  0  0
    5.6291  107.1414   75.9543 H   0  0  0  0  0  0
    6.7001  105.3769   74.2505 H   0  0  0  0  0  0
    8.5261  108.1161   75.8215 H   0  0  0  0  0  0
    7.3131  108.6474   77.9912 H   0  0  0  0  0  0
    7.5566  110.3929   74.9126 H   0  0  0  0  0  0
    7.5952  109.0490   73.7213 H   0  0  0  0  0  0
    5.2513  108.7061   74.3413 H   0  0  0  0  0  0
    4.5849  110.8139   72.8094 H   0  0  0  0  0  0
    6.3421  110.6853   72.4595 H   0  0  0  0  0  0
    3.9629  110.6355   75.1226 H   0  0  0  0  0  0
    5.2902  110.3361   76.2953 H   0  0  0  0  0  0
  1  5  1  0  0  0
  1  4  1  0  0  0
  1  3  2  0  0  0
  1  2  1  0  0  0
  4  6  1  0  0  0
  6  7  1  0  0  0
  6 26  1  0  0  0
  6 27  1  0  0  0
  7  9  1  0  0  0
  7  8  1  0  0  0
  7 28  1  0  0  0
  8 29  1  0  0  0
  9 11  1  0  0  0
  9 10  1  0  0  0
  9 30  1  0  0  0
 10 31  1  0  0  0
 11 13  1  0  0  0
 11 12  1  0  0  0
 11 32  1  0  0  0
 12 33  1  0  0  0
 13 15  1  0  0  0
 13 14  1  0  0  0
 13 34  1  0  0  0
 14 35  1  0  0  0
 15 16  1  0  0  0
 15 36  1  0  0  0
 15 37  1  0  0  0
 16 21  1  0  0  0
 16 17  1  0  0  0
 16 38  1  0  0  0
 17 18  1  0  0  0
 17 39  1  0  0  0
 17 40  1  0  0  0
 18 20  2  0  0  0
 18 19  1  0  0  0
 21 22  1  0  0  0
 21 41  1  0  0  0
 21 42  1  0  0  0
 22 25  2  0  0  0
 22 24  1  0  0  0
 22 23  1  0  0  0
M  CHG  6   2  -1   5  -1  16   1  19  -1  23  -1  24  -1
M  END
> <s_m_source_file>
../1g7v_ligand.sdf

> <i_m_source_file_index>
1

> <s_epik_input>
W09IXVAoPU8pKFtPSF0pT1tDSDJdW0NAQEhdKFtPSF0pW0NAQEhdKFtPSF0pW0NASF0oW09IXSlbQ0BIXShbT0hdKVtDSDJdW05ASCtdKFtDSDJdQyg9TylbT0hdKVtDSDJdUCg9TykoW09IXSlbT0hd

> <s_epik_cmdline>
J2VwaWtfYXBwJywgJy1pbWFlJywgJ2xpZ2FuZF9wcm8ubWFlJywgJy1vbWFlJywgJ2xpZ2FuZF9wcmVwLm1hZScsICctbXMnLCAnMScsICctcGgnLCAnNycsICctcGh0JywgJzAuNScsICctbnQn

> <r_epik_Ionization_Penalty>
  0.1317

> <r_epik_Ionization_Penalty_Charging>
  0.1317

> <r_epik_Ionization_Penalty_Neutral>
  0.0000

> <r_epik_State_Penalty>
  0.1446

> <r_epik_Charging_Adjusted_Penalty>
0.276259916343789

> <i_epik_Tot_Q>
-4

> <i_epik_Tot_abs_Q>
6

$$$$
