1g85_ligand
                    3D
 Schrodinger Suite 2020-3.
 27 26  0  0  1  0            999 V2000
   -2.0130   -1.2270    3.9210 C   0  0  0  0  0  0
   -1.2750    0.0060    3.7440 C   0  0  0  0  0  0
    0.2220    0.1050    3.9100 C   0  0  1  0  0  0
    0.6870    1.3980    3.3500 O   0  0  0  0  0  0
    0.4690    0.0270    5.3980 C   0  0  0  0  0  0
    0.8580   -1.3840    5.8140 C   0  0  0  0  0  0
    1.2060   -1.3970    7.3140 C   0  0  0  0  0  0
    0.0140   -1.7440    8.1800 C   0  0  0  0  0  0
    0.2660   -3.0670    8.9470 C   0  0  0  0  0  0
   -3.0832   -1.0420    3.7464 H   0  0  0  0  0  0
   -1.8674   -1.5975    4.9465 H   0  0  0  0  0  0
   -1.6491   -1.9782    3.2046 H   0  0  0  0  0  0
   -1.4206    0.3765    2.7185 H   0  0  0  0  0  0
   -1.6389    0.7572    4.4604 H   0  0  0  0  0  0
    0.7745   -0.6805    3.3737 H   0  0  0  0  0  0
    0.5747    1.6041    2.2753 H   0  0  0  0  0  0
    1.2851    0.7123    5.6706 H   0  0  0  0  0  0
   -0.4460    0.3136    5.9371 H   0  0  0  0  0  0
    0.0163   -2.0668    5.6261 H   0  0  0  0  0  0
    1.7320   -1.7103    5.2312 H   0  0  0  0  0  0
    1.9912   -2.1442    7.5018 H   0  0  0  0  0  0
    1.5667   -0.4025    7.6154 H   0  0  0  0  0  0
   -0.1581   -0.9369    8.9073 H   0  0  0  0  0  0
   -0.8773   -1.8629    7.5464 H   0  0  0  0  0  0
   -0.6097   -3.3022    9.5698 H   0  0  0  0  0  0
    1.1528   -2.9559    9.5882 H   0  0  0  0  0  0
    0.4337   -3.8818    8.2273 H   0  0  0  0  0  0
  1  2  1  0  0  0
  1 10  1  0  0  0
  1 11  1  0  0  0
  1 12  1  0  0  0
  2  3  1  0  0  0
  2 13  1  0  0  0
  2 14  1  0  0  0
  3  4  1  0  0  0
  3  5  1  0  0  0
  3 15  1  0  0  0
  4 16  1  0  0  0
  5  6  1  0  0  0
  5 17  1  0  0  0
  5 18  1  0  0  0
  6  7  1  0  0  0
  6 19  1  0  0  0
  6 20  1  0  0  0
  7  8  1  0  0  0
  7 21  1  0  0  0
  7 22  1  0  0  0
  8  9  1  0  0  0
  8 23  1  0  0  0
  8 24  1  0  0  0
  9 25  1  0  0  0
  9 26  1  0  0  0
  9 27  1  0  0  0
M  END
> <s_m_source_file>
../1g85_ligand.sdf

> <i_m_source_file_index>
1

> <s_epik_input>
W0NIM11bQ0gyXVtDQEBIXShbT0hdKVtDSDJdW0NIMl1bQ0gyXVtDSDJdW0NIM10=

> <s_epik_cmdline>
J2VwaWtfYXBwJywgJy1pbWFlJywgJ2xpZ2FuZF9wcm8ubWFlJywgJy1vbWFlJywgJ2xpZ2FuZF9wcmVwLm1hZScsICctbXMnLCAnMScsICctcGgnLCAnNycsICctcGh0JywgJzAuNScsICctbnQn

> <r_lp_tautomer_probability>
1

> <r_epik_Ionization_Penalty>
  0.0000

> <r_epik_Ionization_Penalty_Charging>
  0.0000

> <r_epik_Ionization_Penalty_Neutral>
  0.0000

> <r_epik_State_Penalty>
 -0.0000

> <r_epik_Charging_Adjusted_Penalty>
0

> <i_epik_Tot_Q>
0

> <i_epik_Tot_abs_Q>
0

$$$$
