1g9a_ligand
                    3D
 Schrodinger Suite 2020-3.
 43 46  0  0  1  0            999 V2000
   25.0410   -2.7530   29.3910 C   0  0  0  0  0  0
   25.6400   -3.8640   28.7560 C   0  0  0  0  0  0
   26.5940   -3.6620   27.7320 C   0  0  0  0  0  0
   26.9040   -2.3560   27.3920 C   0  0  0  0  0  0
   26.3290   -1.2940   28.0100 C   0  0  0  0  0  0
   25.4000   -1.4490   29.0090 C   0  0  0  0  0  0
   24.0000   -2.9640   30.4710 C   0  0  0  0  0  0
   27.8070   -0.4010   26.3910 C   0  0  0  0  0  0
   28.5880    0.5380   25.4950 C   0  0  0  0  0  0
   24.0280   -2.1620   31.7450 N   0  0  0  0  0  0
   22.8860   -3.9480   30.2370 N   0  3  0  0  0  0
   27.8510   -1.8870   26.3510 N   0  0  0  0  0  0
   26.8440   -0.0180   27.4460 N   0  3  0  0  0  0
   28.6900   -1.6570   19.7250 C   0  0  0  0  0  0
   27.3120   -1.9590   19.9400 C   0  0  0  0  0  0
   26.7250   -1.6280   21.1780 C   0  0  0  0  0  0
   27.5350   -1.0170   22.1250 C   0  0  0  0  0  0
   28.8420   -0.7410   21.8900 C   0  0  0  0  0  0
   29.4440   -1.0360   20.7150 C   0  0  0  0  0  0
   29.3680   -1.9990   18.4710 C   0  0  0  0  0  0
   28.4210   -0.0180   24.0840 C   0  0  0  0  0  0
   30.2510   -1.0180   17.8170 N   0  3  0  0  0  0
   29.2900   -3.3730   17.9260 N   0  0  0  0  0  0
   27.1790   -0.5960   23.4960 N   0  0  0  0  0  0
   29.4630   -0.1050   23.0610 N   0  3  0  0  0  0
   25.3669   -4.8759   29.0552 H   0  0  0  0  0  0
   27.0684   -4.5042   27.2283 H   0  0  0  0  0  0
   24.9518   -0.5818   29.4940 H   0  0  0  0  0  0
   28.1746    1.5539   25.5794 H   0  0  0  0  0  0
   29.6440    0.5451   25.8030 H   0  0  0  0  0  0
   24.8392   -1.4407   31.9231 H   0  0  0  0  0  0
   23.2373   -2.2974   32.4976 H   0  0  0  0  0  0
   22.8588   -4.5375   29.3087 H   0  0  0  0  0  0
   26.7223   -2.4384   19.1587 H   0  0  0  0  0  0
   25.6764   -1.8434   21.3835 H   0  0  0  0  0  0
   30.4935   -0.7931   20.5484 H   0  0  0  0  0  0
   30.3203    0.0072   18.2096 H   0  0  0  0  0  0
   28.6354   -4.1175   18.4028 H   0  0  0  0  0  0
   29.8866   -3.6496   17.0442 H   0  0  0  0  0  0
   26.4834    0.9432   27.8411 H   0  0  0  0  0  0
   30.5208    0.1950   23.0276 H   0  0  0  0  0  0
   22.0988   -4.0779   30.9942 H   0  0  0  0  0  0
   30.8411   -1.3106   16.9360 H   0  0  0  0  0  0
  1  2  2  0  0  0
  1  6  1  0  0  0
  1  7  1  0  0  0
  2  3  1  0  0  0
  2 26  1  0  0  0
  3  4  2  0  0  0
  3 27  1  0  0  0
  4  5  1  0  0  0
  4 12  1  0  0  0
  5  6  2  0  0  0
  5 13  1  0  0  0
  6 28  1  0  0  0
  7 10  1  0  0  0
  7 11  2  0  0  0
  8  9  1  0  0  0
  8 12  2  0  0  0
  8 13  1  0  0  0
  9 21  1  0  0  0
  9 29  1  0  0  0
  9 30  1  0  0  0
 10 31  1  0  0  0
 10 32  1  0  0  0
 11 33  1  0  0  0
 11 42  1  0  0  0
 13 40  1  0  0  0
 14 15  2  0  0  0
 14 19  1  0  0  0
 14 20  1  0  0  0
 15 16  1  0  0  0
 15 34  1  0  0  0
 16 17  2  0  0  0
 16 35  1  0  0  0
 17 18  1  0  0  0
 17 24  1  0  0  0
 18 19  2  0  0  0
 18 25  1  0  0  0
 19 36  1  0  0  0
 20 22  2  0  0  0
 20 23  1  0  0  0
 21 24  2  0  0  0
 21 25  1  0  0  0
 22 37  1  0  0  0
 22 43  1  0  0  0
 23 38  1  0  0  0
 23 39  1  0  0  0
 25 41  1  0  0  0
M  CHG  4  11   1  13   1  22   1  25   1
M  END
> <s_m_source_file>
../1g9a_ligand.sdf

> <i_m_source_file_index>
1

> <s_epik_input>
W0hdXE49QyhbTkgyXSlcYyhbY0hdW2NIXTEpW2NIXWMoYzEyKVtuSF1jKG4yKVtDSDJdYyhuMylbbkhdYyhjMzQpW2NIXWMoW2NIXVtjSF00KS9DKD1OXFtIXSlbTkgyXQ==

> <s_epik_cmdline>
J2VwaWtfYXBwJywgJy1pbWFlJywgJ2xpZ2FuZF9wcm8ubWFlJywgJy1vbWFlJywgJ2xpZ2FuZF9wcmVwLm1hZScsICctbXMnLCAnMScsICctcGgnLCAnNycsICctcGh0JywgJzAuNScsICctbnQn

> <r_epik_Ionization_Penalty>
  0.0006

> <r_epik_Ionization_Penalty_Charging>
  0.0006

> <r_epik_Ionization_Penalty_Neutral>
  0.0000

> <r_epik_State_Penalty>
  0.0009

> <r_epik_Charging_Adjusted_Penalty>
0.0014870894149278

> <i_epik_Tot_Q>
4

> <i_epik_Tot_abs_Q>
4

> <s_epik_Chemistry_Notes>
This compound has an imine and may undergo hydrolysis.

$$$$
