1g9b_ligand
                    3D
 Schrodinger Suite 2020-3.
 43 46  0  0  1  0            999 V2000
   12.8410    1.3410   29.5740 C   0  0  0  0  0  0
   12.2500    2.4840   28.9790 C   0  0  0  0  0  0
   11.3140    2.3410   27.9310 C   0  0  0  0  0  0
   11.0030    1.0590   27.5180 C   0  0  0  0  0  0
   11.5710   -0.0410   28.0940 C   0  0  0  0  0  0
   12.4880    0.0580   29.1200 C   0  0  0  0  0  0
   13.8560    1.4900   30.6950 C   0  0  0  0  0  0
   10.1100   -0.8360   26.4150 C   0  0  0  0  0  0
    9.3320   -1.7390   25.4770 C   0  0  0  0  0  0
   13.6800    0.7300   31.9790 N   0  0  0  0  0  0
   15.0560    2.3680   30.5070 N   0  3  0  0  0  0
   10.0650    0.6450   26.4440 N   0  0  0  0  0  0
   11.0590   -1.2770   27.4570 N   0  3  0  0  0  0
    9.1900    0.3380   19.6430 C   0  0  0  0  0  0
   10.5760    0.5930   19.8470 C   0  0  0  0  0  0
   11.1740    0.2750   21.0890 C   0  0  0  0  0  0
   10.3660   -0.2770   22.0660 C   0  0  0  0  0  0
    9.0420   -0.5170   21.8530 C   0  0  0  0  0  0
    8.4280   -0.2260   20.6680 C   0  0  0  0  0  0
    8.5060    0.6840   18.3450 C   0  0  0  0  0  0
    9.4920   -1.2060   24.0610 C   0  0  0  0  0  0
    7.5130   -0.2280   17.7270 N   0  0  0  0  0  0
    8.7150    2.0060   17.7170 N   0  3  0  0  0  0
   10.7350   -0.6860   23.4410 N   0  0  0  0  0  0
    8.4230   -1.1020   23.0540 N   0  3  0  0  0  0
   12.5196    3.4792   29.3325 H   0  0  0  0  0  0
   10.8529    3.2113   27.4641 H   0  0  0  0  0  0
   12.9269   -0.8342   29.5665 H   0  0  0  0  0  0
    9.7277   -2.7633   25.5420 H   0  0  0  0  0  0
    8.2699   -1.7374   25.7634 H   0  0  0  0  0  0
   12.8004    0.0848   32.1201 H   0  0  0  0  0  0
   14.4308    0.8188   32.7780 H   0  0  0  0  0  0
   15.1877    2.9257   29.5681 H   0  0  0  0  0  0
   11.1744    1.0319   19.0486 H   0  0  0  0  0  0
   12.2332    0.4584   21.2693 H   0  0  0  0  0  0
    7.3667   -0.4296   20.5258 H   0  0  0  0  0  0
    7.3297   -1.2200   18.1655 H   0  0  0  0  0  0
    6.9598    0.0876   16.8301 H   0  0  0  0  0  0
    9.4430    2.7100   18.1464 H   0  0  0  0  0  0
    7.3540   -1.3611   23.0511 H   0  0  0  0  0  0
   11.4113   -2.2602   27.8022 H   0  0  0  0  0  0
   15.8050    2.4547   31.3079 H   0  0  0  0  0  0
    8.1425    2.2856   16.8203 H   0  0  0  0  0  0
  1  2  2  0  0  0
  1  6  1  0  0  0
  1  7  1  0  0  0
  2  3  1  0  0  0
  2 26  1  0  0  0
  3  4  2  0  0  0
  3 27  1  0  0  0
  4  5  1  0  0  0
  4 12  1  0  0  0
  5  6  2  0  0  0
  5 13  1  0  0  0
  6 28  1  0  0  0
  7 10  1  0  0  0
  7 11  2  0  0  0
  8  9  1  0  0  0
  8 12  2  0  0  0
  8 13  1  0  0  0
  9 21  1  0  0  0
  9 29  1  0  0  0
  9 30  1  0  0  0
 10 31  1  0  0  0
 10 32  1  0  0  0
 11 33  1  0  0  0
 11 42  1  0  0  0
 13 41  1  0  0  0
 14 15  2  0  0  0
 14 19  1  0  0  0
 14 20  1  0  0  0
 15 16  1  0  0  0
 15 34  1  0  0  0
 16 17  2  0  0  0
 16 35  1  0  0  0
 17 18  1  0  0  0
 17 24  1  0  0  0
 18 19  2  0  0  0
 18 25  1  0  0  0
 19 36  1  0  0  0
 20 22  1  0  0  0
 20 23  2  0  0  0
 21 24  2  0  0  0
 21 25  1  0  0  0
 22 37  1  0  0  0
 22 38  1  0  0  0
 23 39  1  0  0  0
 23 43  1  0  0  0
 25 40  1  0  0  0
M  CHG  4  11   1  13   1  23   1  25   1
M  END
> <s_m_source_file>
../1g9b_ligand.sdf

> <i_m_source_file_index>
1

> <s_epik_input>
W0hdXE49QyhbTkgyXSlcYyhbY0hdW2NIXTEpW2NIXWMoYzEyKVtuSF1jKG4yKVtDSDJdYyhuMylbbkhdYyhjMzQpW2NIXWMoW2NIXVtjSF00KS9DKFtOSDJdKT1OXFtIXQ==

> <s_epik_cmdline>
J2VwaWtfYXBwJywgJy1pbWFlJywgJ2xpZ2FuZF9wcm8ubWFlJywgJy1vbWFlJywgJ2xpZ2FuZF9wcmVwLm1hZScsICctbXMnLCAnMScsICctcGgnLCAnNycsICctcGh0JywgJzAuNScsICctbnQn

> <r_epik_Ionization_Penalty>
  0.0006

> <r_epik_Ionization_Penalty_Charging>
  0.0006

> <r_epik_Ionization_Penalty_Neutral>
  0.0000

> <r_epik_State_Penalty>
  0.0009

> <r_epik_Charging_Adjusted_Penalty>
0.0014870894149278

> <i_epik_Tot_Q>
4

> <i_epik_Tot_abs_Q>
4

> <s_epik_Chemistry_Notes>
This compound has an imine and may undergo hydrolysis.

$$$$
