1g9c_ligand
                    3D
 Schrodinger Suite 2020-3.
 43 46  0  0  1  0            999 V2000
   12.0200    1.4170   29.7820 C   0  0  0  0  0  0
   11.3870    2.5150   29.1390 C   0  0  0  0  0  0
   10.5820    2.2990   28.0030 C   0  0  0  0  0  0
   10.4430    0.9980   27.5570 C   0  0  0  0  0  0
   11.0560   -0.0560   28.1860 C   0  0  0  0  0  0
   11.8460    0.1140   29.2930 C   0  0  0  0  0  0
   12.8900    1.6380   30.9990 C   0  0  0  0  0  0
    9.8540   -0.9640   26.3700 C   0  0  0  0  0  0
    9.2670   -1.9180   25.3660 C   0  0  0  0  0  0
   12.2610    1.8600   32.3390 N   0  3  0  0  0  0
   14.3860    1.6250   30.8600 N   0  0  0  0  0  0
    9.6610    0.5070   26.3940 N   0  0  0  0  0  0
   10.7320   -1.3300   27.4960 N   0  3  0  0  0  0
    9.4270    0.2550   19.5910 C   0  0  0  0  0  0
   10.7520    0.6470   19.9300 C   0  0  0  0  0  0
   11.2540    0.3690   21.2070 C   0  0  0  0  0  0
   10.4270   -0.2820   22.0920 C   0  0  0  0  0  0
    9.1580   -0.6550   21.7560 C   0  0  0  0  0  0
    8.6230   -0.4050   20.5190 C   0  0  0  0  0  0
    8.8840    0.5520   18.2400 C   0  0  0  0  0  0
    9.4890   -1.3390   23.9830 C   0  0  0  0  0  0
    8.4020   -0.5450   17.3800 N   0  3  0  0  0  0
    8.8580    1.9460   17.7280 N   0  0  0  0  0  0
   10.7200   -0.6800   23.4880 N   0  0  0  0  0  0
    8.5050   -1.3250   22.8870 N   0  3  0  0  0  0
   11.5244    3.5251   29.5250 H   0  0  0  0  0  0
   10.0874    3.1268   27.4949 H   0  0  0  0  0  0
   12.3242   -0.7369   29.7782 H   0  0  0  0  0  0
    9.7656   -2.8946   25.4531 H   0  0  0  0  0  0
    8.1907   -2.0373   25.5592 H   0  0  0  0  0  0
   11.1655    1.8690   32.4376 H   0  0  0  0  0  0
   14.8454    1.4616   29.8739 H   0  0  0  0  0  0
   15.0219    1.7789   31.7443 H   0  0  0  0  0  0
   11.3741    1.1620   19.1980 H   0  0  0  0  0  0
   12.2659    0.6587   21.4901 H   0  0  0  0  0  0
    7.6068   -0.7109   20.2702 H   0  0  0  0  0  0
    8.4170   -1.5809   17.7497 H   0  0  0  0  0  0
    9.2152    2.7713   18.3614 H   0  0  0  0  0  0
    8.4815    2.1531   16.7154 H   0  0  0  0  0  0
   11.1429   -2.2788   27.8715 H   0  0  0  0  0  0
    7.4735   -1.6937   22.7868 H   0  0  0  0  0  0
   12.8943    2.0142   33.2251 H   0  0  0  0  0  0
    8.0275   -0.3273   16.3689 H   0  0  0  0  0  0
  1  2  2  0  0  0
  1  6  1  0  0  0
  1  7  1  0  0  0
  2  3  1  0  0  0
  2 26  1  0  0  0
  3  4  2  0  0  0
  3 27  1  0  0  0
  4  5  1  0  0  0
  4 12  1  0  0  0
  5  6  2  0  0  0
  5 13  1  0  0  0
  6 28  1  0  0  0
  7 10  2  0  0  0
  7 11  1  0  0  0
  8  9  1  0  0  0
  8 12  2  0  0  0
  8 13  1  0  0  0
  9 21  1  0  0  0
  9 29  1  0  0  0
  9 30  1  0  0  0
 10 31  1  0  0  0
 10 42  1  0  0  0
 11 32  1  0  0  0
 11 33  1  0  0  0
 13 40  1  0  0  0
 14 15  2  0  0  0
 14 19  1  0  0  0
 14 20  1  0  0  0
 15 16  1  0  0  0
 15 34  1  0  0  0
 16 17  2  0  0  0
 16 35  1  0  0  0
 17 18  1  0  0  0
 17 24  1  0  0  0
 18 19  2  0  0  0
 18 25  1  0  0  0
 19 36  1  0  0  0
 20 22  2  0  0  0
 20 23  1  0  0  0
 21 24  2  0  0  0
 21 25  1  0  0  0
 22 37  1  0  0  0
 22 43  1  0  0  0
 23 38  1  0  0  0
 23 39  1  0  0  0
 25 41  1  0  0  0
M  CHG  4  10   1  13   1  22   1  25   1
M  END
> <s_m_source_file>
../1g9c_ligand.sdf

> <i_m_source_file_index>
1

> <s_epik_input>
W0hdXE49QyhbTkgyXSlcYyhbY0hdW2NIXTEpW2NIXWMoYzEyKVtuSF1jKG4yKVtDSDJdYyhuMylbbkhdYyhjMzQpW2NIXWMoW2NIXVtjSF00KS9DKD1OXFtIXSlbTkgyXQ==

> <s_epik_cmdline>
J2VwaWtfYXBwJywgJy1pbWFlJywgJ2xpZ2FuZF9wcm8ubWFlJywgJy1vbWFlJywgJ2xpZ2FuZF9wcmVwLm1hZScsICctbXMnLCAnMScsICctcGgnLCAnNycsICctcGh0JywgJzAuNScsICctbnQn

> <r_epik_Ionization_Penalty>
  0.0006

> <r_epik_Ionization_Penalty_Charging>
  0.0006

> <r_epik_Ionization_Penalty_Neutral>
  0.0000

> <r_epik_State_Penalty>
  0.0009

> <r_epik_Charging_Adjusted_Penalty>
0.0014870894149278

> <i_epik_Tot_Q>
4

> <i_epik_Tot_abs_Q>
4

> <s_epik_Chemistry_Notes>
This compound has an imine and may undergo hydrolysis.

$$$$
