1g9d_ligand
                    3D
 Schrodinger Suite 2020-3.
 43 46  0  0  1  0            999 V2000
   10.7300   -9.4620   23.6580 C   0  0  0  0  0  0
    9.8430   -8.8330   24.5780 C   0  0  0  0  0  0
    8.7250   -8.1070   24.1030 C   0  0  0  0  0  0
    8.5430   -8.0410   22.7360 C   0  0  0  0  0  0
    9.3990   -8.6510   21.8570 C   0  0  0  0  0  0
   10.4960   -9.3630   22.2770 C   0  0  0  0  0  0
   11.9330  -10.2410   24.1410 C   0  0  0  0  0  0
    7.7300   -7.6130   20.5580 C   0  0  0  0  0  0
    6.8770   -7.1460   19.4090 C   0  0  0  0  0  0
   11.7500  -11.5360   24.8800 N   0  0  0  0  0  0
   13.3110   -9.7160   23.8620 N   0  3  0  0  0  0
    7.4620   -7.3610   21.9900 N   0  0  0  0  0  0
    8.9520   -8.4250   20.4650 N   0  3  0  0  0  0
    1.6580  -10.3520   20.7200 C   0  0  0  0  0  0
    1.0620   -9.2840   20.0330 C   0  0  0  0  0  0
    1.8470   -8.2510   19.5110 C   0  0  0  0  0  0
    3.1990   -8.2940   19.6790 C   0  0  0  0  0  0
    3.8070   -9.3240   20.3450 C   0  0  0  0  0  0
    3.0750  -10.3840   20.8910 C   0  0  0  0  0  0
    0.7540  -11.4460   21.2600 C   0  0  0  0  0  0
    5.5190   -7.8070   19.6370 C   0  0  0  0  0  0
    0.9390  -12.8650   20.7990 N   0  3  0  0  0  0
   -0.3590  -11.0920   22.2190 N   0  0  0  0  0  0
    4.2040   -7.2950   19.1980 N   0  0  0  0  0  0
    5.2760   -9.0980   20.3670 N   0  3  0  0  0  0
   10.0257   -8.9110   25.6498 H   0  0  0  0  0  0
    8.0340   -7.6186   24.7901 H   0  0  0  0  0  0
   11.1653   -9.8373   21.5593 H   0  0  0  0  0  0
    6.8046   -6.0486   19.4285 H   0  0  0  0  0  0
    7.3322   -7.4666   18.4603 H   0  0  0  0  0  0
   10.7376  -11.9159   25.0816 H   0  0  0  0  0  0
   12.6284  -12.1044   25.2195 H   0  0  0  0  0  0
   13.4388   -8.7671   23.3204 H   0  0  0  0  0  0
   -0.0202   -9.2591   19.9052 H   0  0  0  0  0  0
    1.3835   -7.4218   18.9765 H   0  0  0  0  0  0
    3.5653  -11.1988   21.4238 H   0  0  0  0  0  0
    1.7514  -13.1150   20.1008 H   0  0  0  0  0  0
   -0.4881  -10.0515   22.5518 H   0  0  0  0  0  0
   -1.0401  -11.8748   22.5842 H   0  0  0  0  0  0
    9.5270   -8.8466   19.6274 H   0  0  0  0  0  0
    5.9369   -9.8249   20.8618 H   0  0  0  0  0  0
   14.1932  -10.2801   24.1991 H   0  0  0  0  0  0
    0.2619  -13.6532   21.1599 H   0  0  0  0  0  0
  1  2  2  0  0  0
  1  6  1  0  0  0
  1  7  1  0  0  0
  2  3  1  0  0  0
  2 26  1  0  0  0
  3  4  2  0  0  0
  3 27  1  0  0  0
  4  5  1  0  0  0
  4 12  1  0  0  0
  5  6  2  0  0  0
  5 13  1  0  0  0
  6 28  1  0  0  0
  7 10  1  0  0  0
  7 11  2  0  0  0
  8  9  1  0  0  0
  8 12  2  0  0  0
  8 13  1  0  0  0
  9 21  1  0  0  0
  9 29  1  0  0  0
  9 30  1  0  0  0
 10 31  1  0  0  0
 10 32  1  0  0  0
 11 33  1  0  0  0
 11 42  1  0  0  0
 13 40  1  0  0  0
 14 15  2  0  0  0
 14 19  1  0  0  0
 14 20  1  0  0  0
 15 16  1  0  0  0
 15 34  1  0  0  0
 16 17  2  0  0  0
 16 35  1  0  0  0
 17 18  1  0  0  0
 17 24  1  0  0  0
 18 19  2  0  0  0
 18 25  1  0  0  0
 19 36  1  0  0  0
 20 22  2  0  0  0
 20 23  1  0  0  0
 21 24  2  0  0  0
 21 25  1  0  0  0
 22 37  1  0  0  0
 22 43  1  0  0  0
 23 38  1  0  0  0
 23 39  1  0  0  0
 25 41  1  0  0  0
M  CHG  4  11   1  13   1  22   1  25   1
M  END
> <s_m_source_file>
../1g9d_ligand.sdf

> <i_m_source_file_index>
1

> <s_epik_input>
W0hdXE49QyhbTkgyXSlcYyhbY0hdW2NIXTEpW2NIXWMoYzEyKVtuSF1jKG4yKVtDSDJdYyhuMylbbkhdYyhjMzQpW2NIXWMoW2NIXVtjSF00KS9DKD1OXFtIXSlbTkgyXQ==

> <s_epik_cmdline>
J2VwaWtfYXBwJywgJy1pbWFlJywgJ2xpZ2FuZF9wcm8ubWFlJywgJy1vbWFlJywgJ2xpZ2FuZF9wcmVwLm1hZScsICctbXMnLCAnMScsICctcGgnLCAnNycsICctcGh0JywgJzAuNScsICctbnQn

> <r_epik_Ionization_Penalty>
  0.0006

> <r_epik_Ionization_Penalty_Charging>
  0.0006

> <r_epik_Ionization_Penalty_Neutral>
  0.0000

> <r_epik_State_Penalty>
  0.0009

> <r_epik_Charging_Adjusted_Penalty>
0.0014870894149278

> <i_epik_Tot_Q>
4

> <i_epik_Tot_abs_Q>
4

> <s_epik_Chemistry_Notes>
This compound has an imine and may undergo hydrolysis.

$$$$
