1g9s_ligand
                    3D
 Schrodinger Suite 2020-3.
 34 36  0  0  1  0            999 V2000
  -12.5130   60.0120   68.3460 P   0  0  0  0  0  0
  -13.1720   59.2860   69.4480 O   0  5  0  0  0  0
  -11.0570   59.9200   68.4150 O   0  0  0  0  0  0
  -13.0830   59.6210   67.0510 O   0  5  0  0  0  0
  -13.0160   61.5120   68.4380 O   0  0  0  0  0  0
  -12.4970   62.5320   69.3080 C   0  0  0  0  0  0
  -12.8210   63.8950   68.7740 C   0  0  1  0  0  0
  -14.2440   64.1630   68.7120 O   0  0  0  0  0  0
  -12.2660   64.9390   69.6840 C   0  0  1  0  0  0
  -10.9650   65.3270   69.2350 O   0  0  0  0  0  0
  -13.2150   66.0740   69.5600 C   0  0  1  0  0  0
  -12.7610   67.0150   68.6010 O   0  0  0  0  0  0
  -14.5840   65.4960   69.1700 C   0  0  2  0  0  0
  -15.5280   65.4610   70.3990 N   0  0  0  0  0  0
  -15.7950   64.3630   71.2310 C   0  0  0  0  0  0
  -16.6410   64.6000   72.2210 N   0  0  0  0  0  0
  -16.9870   65.9490   72.0820 C   0  0  0  0  0  0
  -17.8820   66.7720   72.8830 C   0  0  0  0  0  0
  -18.5230   66.4290   73.8780 O   0  0  0  0  0  0
  -17.9770   68.1040   72.4250 N   0  0  0  0  0  0
  -17.2920   68.6180   71.3020 C   0  0  0  0  0  0
  -16.4430   67.8450   70.5360 N   0  0  0  0  0  0
  -16.3240   66.5120   70.9710 C   0  0  0  0  0  0
  -12.9449   62.4246   70.3069 H   0  0  0  0  0  0
  -11.4044   62.4289   69.3831 H   0  0  0  0  0  0
  -12.4183   63.9327   67.7510 H   0  0  0  0  0  0
  -12.1239   64.6037   70.7220 H   0  0  0  0  0  0
  -10.1367   64.6035   69.2582 H   0  0  0  0  0  0
  -13.2408   66.6603   70.4904 H   0  0  0  0  0  0
  -11.7927   67.5182   68.7398 H   0  0  0  0  0  0
  -15.1102   66.0394   68.3714 H   0  0  0  0  0  0
  -15.3388   63.3857   71.0734 H   0  0  0  0  0  0
  -18.6201   68.8229   72.9538 H   0  0  0  0  0  0
  -17.4392   69.6633   71.0303 H   0  0  0  0  0  0
  1  2  1  0  0  0
  1  3  2  0  0  0
  1  4  1  0  0  0
  1  5  1  0  0  0
  5  6  1  0  0  0
  6  7  1  0  0  0
  6 24  1  0  0  0
  6 25  1  0  0  0
  7  8  1  0  0  0
  7  9  1  0  0  0
  7 26  1  0  0  0
  8 13  1  0  0  0
  9 10  1  0  0  0
  9 11  1  0  0  0
  9 27  1  0  0  0
 10 28  1  0  0  0
 11 12  1  0  0  0
 11 13  1  0  0  0
 11 29  1  0  0  0
 12 30  1  0  0  0
 13 14  1  0  0  0
 13 31  1  0  0  0
 14 15  1  0  0  0
 14 23  1  0  0  0
 15 16  2  0  0  0
 15 32  1  0  0  0
 16 17  1  0  0  0
 17 18  1  0  0  0
 17 23  2  0  0  0
 18 19  2  0  0  0
 18 20  1  0  0  0
 20 21  1  0  0  0
 20 33  1  0  0  0
 21 22  2  0  0  0
 21 34  1  0  0  0
 22 23  1  0  0  0
M  CHG  2   2  -1   4  -1
M  END
> <s_m_source_file>
../1g9s_ligand.sdf

> <i_m_source_file_index>
1

> <s_epik_input>
W09IXVAoPU8pKFtPSF0pT1tDSDJdW0NASF0xT1tDQEhdKFtDQEhdKFtPSF0pW0NAQEhdMVtPSF0pbihbY0hdbjIpYyhjMjMpbltjSF1bbkhdYzM9Tw==

> <s_epik_cmdline>
J2VwaWtfYXBwJywgJy1pbWFlJywgJ2xpZ2FuZF9wcm8ubWFlJywgJy1vbWFlJywgJ2xpZ2FuZF9wcmVwLm1hZScsICctbXMnLCAnMScsICctcGgnLCAnNycsICctcGh0JywgJzAuNScsICctbnQn

> <r_lp_tautomer_probability>
1

> <r_epik_Ionization_Penalty>
  0.1134

> <r_epik_Ionization_Penalty_Charging>
  0.1134

> <r_epik_Ionization_Penalty_Neutral>
  0.0000

> <r_epik_State_Penalty>
 -0.0000

> <r_epik_Charging_Adjusted_Penalty>
0.113364628518096

> <i_epik_Tot_Q>
-2

> <i_epik_Tot_abs_Q>
2

> <s_epik_Chemistry_Notes>
This compound contains an acetal/aminal-like group ( X-CH(R)-Y where X, Y are N, S, or O) that may be acid/base labile, releasing an aldehyde.

$$$$
