1g9t_ligand
                    3D
 Schrodinger Suite 2020-3.
 36 38  0  0  1  0            999 V2000
  -12.6100   60.0160   68.2760 P   0  0  0  0  0  0
  -13.4690   59.4640   69.3430 O   0  5  0  0  0  0
  -11.1820   59.7300   68.4920 O   0  5  0  0  0  0
  -13.1170   59.6270   66.9510 O   0  0  0  0  0  0
  -12.9030   61.5710   68.2460 O   0  0  0  0  0  0
  -12.3610   62.5600   69.1390 C   0  0  0  0  0  0
  -12.6760   63.9310   68.6280 C   0  0  1  0  0  0
  -14.0930   64.1910   68.5590 O   0  0  0  0  0  0
  -12.1110   64.9600   69.5520 C   0  0  1  0  0  0
  -10.8520   65.4190   69.0440 O   0  0  0  0  0  0
  -13.0980   66.0650   69.5290 C   0  0  1  0  0  0
  -12.6680   67.1090   68.6670 O   0  0  0  0  0  0
  -14.4500   65.4860   69.0770 C   0  0  2  0  0  0
  -15.4130   65.3710   70.2790 N   0  0  0  0  0  0
  -15.9280   64.1980   70.8480 C   0  0  0  0  0  0
  -16.7380   64.3870   71.8790 N   0  0  0  0  0  0
  -16.7880   65.7810   72.0470 C   0  0  0  0  0  0
  -17.5210   66.5890   73.0160 C   0  0  0  0  0  0
  -18.2530   66.1900   73.9270 O   0  0  0  0  0  0
  -17.3170   67.9800   72.8550 N   0  0  0  0  0  0
  -16.5010   68.5570   71.8550 C   0  0  0  0  0  0
  -16.4110   69.8930   71.8240 N   0  0  0  0  0  0
  -15.8060   67.8020   70.9340 N   0  0  0  0  0  0
  -15.9940   66.4150   71.0690 C   0  0  0  0  0  0
  -12.8034   62.4336   70.1381 H   0  0  0  0  0  0
  -11.2697   62.4375   69.2031 H   0  0  0  0  0  0
  -12.2742   63.9924   67.6059 H   0  0  0  0  0  0
  -11.9067   64.5870   70.5665 H   0  0  0  0  0  0
   -9.9973   64.7289   68.9872 H   0  0  0  0  0  0
  -13.1476   66.5531   70.5135 H   0  0  0  0  0  0
  -11.7155   67.6243   68.8599 H   0  0  0  0  0  0
  -14.9651   66.0598   68.2926 H   0  0  0  0  0  0
  -15.6807   63.2057   70.4708 H   0  0  0  0  0  0
  -17.8100   68.6905   73.5348 H   0  0  0  0  0  0
  -16.9640   70.4987   72.5571 H   0  0  0  0  0  0
  -15.7841   70.3846   71.0655 H   0  0  0  0  0  0
  1  2  1  0  0  0
  1  3  1  0  0  0
  1  4  2  0  0  0
  1  5  1  0  0  0
  5  6  1  0  0  0
  6  7  1  0  0  0
  6 25  1  0  0  0
  6 26  1  0  0  0
  7  8  1  0  0  0
  7  9  1  0  0  0
  7 27  1  0  0  0
  8 13  1  0  0  0
  9 10  1  0  0  0
  9 11  1  0  0  0
  9 28  1  0  0  0
 10 29  1  0  0  0
 11 12  1  0  0  0
 11 13  1  0  0  0
 11 30  1  0  0  0
 12 31  1  0  0  0
 13 14  1  0  0  0
 13 32  1  0  0  0
 14 15  1  0  0  0
 14 24  1  0  0  0
 15 16  2  0  0  0
 15 33  1  0  0  0
 16 17  1  0  0  0
 17 18  1  0  0  0
 17 24  2  0  0  0
 18 19  2  0  0  0
 18 20  1  0  0  0
 20 21  1  0  0  0
 20 34  1  0  0  0
 21 22  1  0  0  0
 21 23  2  0  0  0
 22 35  1  0  0  0
 22 36  1  0  0  0
 23 24  1  0  0  0
M  CHG  2   2  -1   3  -1
M  END
> <s_m_source_file>
../1g9t_ligand.sdf

> <i_m_source_file_index>
1

> <s_epik_input>
W09IXVAoPU8pKFtPSF0pT1tDSDJdW0NASF0xT1tDQEhdKFtDQEhdKFtPSF0pW0NAQEhdMVtPSF0pbihbY0hdbjIpYyhjMjMpbmMoW05IMl0pW25IXWMzPU8=

> <s_epik_cmdline>
J2VwaWtfYXBwJywgJy1pbWFlJywgJ2xpZ2FuZF9wcm8ubWFlJywgJy1vbWFlJywgJ2xpZ2FuZF9wcmVwLm1hZScsICctbXMnLCAnMScsICctcGgnLCAnNycsICctcGh0JywgJzAuNScsICctbnQn

> <r_lp_tautomer_probability>
0.999940409345307

> <r_epik_Ionization_Penalty>
  0.1039

> <r_epik_Ionization_Penalty_Charging>
  0.1039

> <r_epik_Ionization_Penalty_Neutral>
  0.0001

> <r_epik_State_Penalty>
  0.0920

> <r_epik_Charging_Adjusted_Penalty>
0.19587073098791

> <i_epik_Tot_Q>
-2

> <i_epik_Tot_abs_Q>
2

> <s_epik_Chemistry_Notes>
This compound contains an acetal/aminal-like group ( X-CH(R)-Y where X, Y are N, S, or O) that may be acid/base labile, releasing an aldehyde.

$$$$
