1ga8_ligand
                    3D
 Schrodinger Suite 2020-3.
 44 45  0  0  1  0            999 V2000
   22.0250   53.8210   65.7730 C   0  0  2  0  0  0
   22.2850   52.4600   65.2110 C   0  0  1  0  0  0
   22.3020   51.4870   66.3830 C   0  0  2  0  0  0
   23.4690   51.8960   67.3350 C   0  0  0  0  0  0
   23.3490   53.1940   67.9100 C   0  0  1  0  0  0
   24.3150   53.6290   68.7050 C   0  0  0  0  0  0
   21.7810   55.0960   65.1450 O   0  0  0  0  0  0
   21.2400   52.1370   64.3110 O   0  0  0  0  0  0
   22.5470   50.2100   65.8510 O   0  0  0  0  0  0
   23.0970   54.1580   66.7490 O   0  0  0  0  0  0
   24.6960   52.8350   69.8700 O   0  0  0  0  0  0
   21.0220   59.1670   65.1150 C   0  0  2  0  0  0
   22.2330   58.7350   66.0030 C   0  0  1  0  0  0
   22.7010   57.3390   65.5460 C   0  0  2  0  0  0
   21.5020   56.4040   65.7220 C   0  0  1  0  0  0
   20.2600   56.8190   64.8730 C   0  0  1  0  0  0
   19.0260   55.9150   65.0600 C   0  0  0  0  0  0
   20.5870   60.4390   65.5360 O   0  0  0  0  0  0
   23.2910   59.6660   65.8500 O   0  0  0  0  0  0
   23.8170   56.9390   66.3790 O   0  0  0  0  0  0
   19.9380   58.1860   65.2550 O   0  0  0  0  0  0
   18.1150   56.1080   63.9880 O   0  0  0  0  0  0
   20.9723   53.5781   65.9801 H   0  0  0  0  0  0
   23.2075   52.4134   64.6137 H   0  0  0  0  0  0
   21.3358   51.4143   66.9038 H   0  0  0  0  0  0
   23.5260   51.1844   68.1719 H   0  0  0  0  0  0
   24.4177   51.8841   66.7783 H   0  0  0  0  0  0
   22.6217   53.1059   68.7306 H   0  0  0  0  0  0
   25.2464   53.7306   68.1286 H   0  0  0  0  0  0
   24.0337   54.6070   69.1225 H   0  0  0  0  0  0
   21.0867   52.7430   63.4059 H   0  0  0  0  0  0
   21.8259   49.7565   65.1550 H   0  0  0  0  0  0
   25.4969   53.1865   70.5371 H   0  0  0  0  0  0
   21.2497   59.2712   64.0439 H   0  0  0  0  0  0
   22.0067   58.7587   67.0792 H   0  0  0  0  0  0
   23.0877   57.2962   64.5171 H   0  0  0  0  0  0
   21.3417   56.3755   66.8099 H   0  0  0  0  0  0
   20.4977   56.7827   63.7996 H   0  0  0  0  0  0
   19.3427   54.8618   65.0803 H   0  0  0  0  0  0
   18.5276   56.1663   66.0079 H   0  0  0  0  0  0
   21.2755   61.2960   65.4983 H   0  0  0  0  0  0
   23.1407   60.7198   66.1272 H   0  0  0  0  0  0
   24.7524   57.5175   66.3602 H   0  0  0  0  0  0
   17.1730   55.5408   63.9579 H   0  0  0  0  0  0
  1  2  1  0  0  0
  1  7  1  0  0  0
  1 10  1  0  0  0
  1 23  1  0  0  0
  2  3  1  0  0  0
  2  8  1  0  0  0
  2 24  1  0  0  0
  3  4  1  0  0  0
  3  9  1  0  0  0
  3 25  1  0  0  0
  4  5  1  0  0  0
  4 26  1  0  0  0
  4 27  1  0  0  0
  5  6  1  0  0  0
  5 10  1  0  0  0
  5 28  1  0  0  0
  6 11  1  0  0  0
  6 29  1  0  0  0
  6 30  1  0  0  0
  7 15  1  0  0  0
  8 31  1  0  0  0
  9 32  1  0  0  0
 11 33  1  0  0  0
 12 13  1  0  0  0
 12 18  1  0  0  0
 12 21  1  0  0  0
 12 34  1  0  0  0
 13 14  1  0  0  0
 13 19  1  0  0  0
 13 35  1  0  0  0
 14 15  1  0  0  0
 14 20  1  0  0  0
 14 36  1  0  0  0
 15 16  1  0  0  0
 15 37  1  0  0  0
 16 17  1  0  0  0
 16 21  1  0  0  0
 16 38  1  0  0  0
 17 22  1  0  0  0
 17 39  1  0  0  0
 17 40  1  0  0  0
 18 41  1  0  0  0
 19 42  1  0  0  0
 20 43  1  0  0  0
 22 44  1  0  0  0
M  END
> <s_m_source_file>
../1ga8_ligand.sdf

> <i_m_source_file_index>
1

> <s_epik_input>
W09IXVtDQEhdMVtDQEhdKFtPSF0pW0NAQEhdKFtPSF0pW0NAQEhdKFtDQEhdKE8xKVtDSDJdW09IXSlPW0NASF0yW0NASF0oW09IXSlbQ0BASF0oW09IXSlbQ0gyXVtDQEhdKE8yKVtDSDJdW09IXQ==

> <s_epik_cmdline>
J2VwaWtfYXBwJywgJy1pbWFlJywgJ2xpZ2FuZF9wcm8ubWFlJywgJy1vbWFlJywgJ2xpZ2FuZF9wcmVwLm1hZScsICctbXMnLCAnMScsICctcGgnLCAnNycsICctcGh0JywgJzAuNScsICctbnQn

> <r_lp_tautomer_probability>
1

> <r_epik_Ionization_Penalty>
  0.0000

> <r_epik_Ionization_Penalty_Charging>
  0.0000

> <r_epik_Ionization_Penalty_Neutral>
  0.0000

> <r_epik_State_Penalty>
 -0.0000

> <r_epik_Charging_Adjusted_Penalty>
0

> <i_epik_Tot_Q>
0

> <i_epik_Tot_abs_Q>
0

> <s_epik_Chemistry_Notes>
This compound contains an acetal/aminal-like group ( X-CH(R)-Y where X, Y are N, S, or O) that may be acid/base labile, releasing an aldehyde.

$$$$
