1ga9_ligand
                    3D
 Schrodinger Suite 2020-3.
 40 42  0  0  1  0            999 V2000
   26.7620    4.8970   16.3880 B   0  0  0  0  0  0
   25.7110    3.8660   16.7220 O   0  0  0  0  0  0
   27.0100    5.7500   17.5590 O   0  0  0  0  0  0
   26.2640    5.8100   15.1730 C   0  0  0  0  0  0
   25.9200    5.2430   13.9180 C   0  0  0  0  0  0
   25.3620    6.0620   12.8890 C   0  0  0  0  0  0
   24.9320    5.4810   11.5860 N   0  5  0  0  0  0
   25.1620    7.4400   13.1240 C   0  0  0  0  0  0
   25.5040    8.0130   14.3480 C   0  0  0  0  0  0
   26.0570    7.2030   15.3740 C   0  0  0  0  0  0
   23.5540    4.4990   11.4300 S   0  0  0  0  0  0
   23.6900    3.3850   12.3890 O   0  0  0  0  0  0
   23.0900    4.3340   10.1060 O   0  0  0  0  0  0
   21.1630    6.4410   11.1290 S   0  0  0  0  0  0
   20.3820    7.0000   12.6240 C   0  0  0  0  0  0
   20.9390    6.4850   13.7420 C   0  0  0  0  0  0
   22.0490    5.5730   13.4700 C   0  0  0  0  0  0
   22.2730    5.4670   12.1420 C   0  0  0  0  0  0
   20.4500    6.9110   15.3600 S   0  0  0  0  0  0
   19.0880    7.2290   15.4500 O   0  0  0  0  0  0
   21.1590    6.0370   16.3140 O   0  0  0  0  0  0
   21.2220    8.4710   15.6220 C   0  0  0  0  0  0
   22.2980    8.5920   16.5420 C   0  0  0  0  0  0
   22.9550    9.8310   16.7090 C   0  0  0  0  0  0
   22.5410   10.9640   15.9570 C   0  0  0  0  0  0
   21.4730   10.8590   15.0440 C   0  0  0  0  0  0
   20.8100    9.6210   14.8740 C   0  0  0  0  0  0
   25.8844    3.1480   17.5371 H   0  0  0  0  0  0
   27.3611    5.3029   18.5007 H   0  0  0  0  0  0
   26.0820    4.1801   13.7389 H   0  0  0  0  0  0
   24.7349    8.0635   12.3385 H   0  0  0  0  0  0
   25.3474    9.0785   14.5164 H   0  0  0  0  0  0
   26.3267    7.6544   16.3288 H   0  0  0  0  0  0
   19.5379    7.6895   12.6377 H   0  0  0  0  0  0
   22.6196    5.0486   14.2365 H   0  0  0  0  0  0
   22.6175    7.7255   17.1210 H   0  0  0  0  0  0
   23.7805    9.9185   17.4154 H   0  0  0  0  0  0
   23.0519   11.9180   16.0872 H   0  0  0  0  0  0
   21.1582   11.7303   14.4696 H   0  0  0  0  0  0
   19.9814    9.5418   14.1702 H   0  0  0  0  0  0
  1  2  1  0  0  0
  1  3  1  0  0  0
  1  4  1  0  0  0
  2 28  1  0  0  0
  3 29  1  0  0  0
  4  5  2  0  0  0
  4 10  1  0  0  0
  5  6  1  0  0  0
  5 30  1  0  0  0
  6  7  1  0  0  0
  6  8  2  0  0  0
  7 11  1  0  0  0
  8  9  1  0  0  0
  8 31  1  0  0  0
  9 10  2  0  0  0
  9 32  1  0  0  0
 10 33  1  0  0  0
 11 12  2  0  0  0
 11 13  2  0  0  0
 11 18  1  0  0  0
 14 15  1  0  0  0
 14 18  1  0  0  0
 15 16  2  0  0  0
 15 34  1  0  0  0
 16 17  1  0  0  0
 16 19  1  0  0  0
 17 18  2  0  0  0
 17 35  1  0  0  0
 19 20  2  0  0  0
 19 21  2  0  0  0
 19 22  1  0  0  0
 22 23  2  0  0  0
 22 27  1  0  0  0
 23 24  1  0  0  0
 23 36  1  0  0  0
 24 25  2  0  0  0
 24 37  1  0  0  0
 25 26  1  0  0  0
 25 38  1  0  0  0
 26 27  2  0  0  0
 26 39  1  0  0  0
 27 40  1  0  0  0
M  CHG  1   7  -1
M  END
> <s_m_source_file>
../1ga9_ligand.sdf

> <i_m_source_file_index>
1

> <s_epik_input>
W09IXUIoW09IXSljMVtjSF1jKFtjSF1bY0hdW2NIXTEpW05IXVMoPU8pKD1PKWMoW2NIXTIpc1tjSF1jMlMoPU8pKD1PKWMzW2NIXVtjSF1bY0hdW2NIXVtjSF0z

> <s_epik_cmdline>
J2VwaWtfYXBwJywgJy1pbWFlJywgJ2xpZ2FuZF9wcm8ubWFlJywgJy1vbWFlJywgJ2xpZ2FuZF9wcmVwLm1hZScsICctbXMnLCAnMScsICctcGgnLCAnNycsICctcGh0JywgJzAuNScsICctbnQn

> <r_epik_Ionization_Penalty>
  0.1384

> <r_epik_Ionization_Penalty_Charging>
  0.1384

> <r_epik_Ionization_Penalty_Neutral>
  0.0000

> <r_epik_State_Penalty>
  0.1277

> <r_epik_Charging_Adjusted_Penalty>
0.266035536952882

> <i_epik_Tot_Q>
-1

> <i_epik_Tot_abs_Q>
1

> <s_epik_Chemistry_Notes>
This compound contains a Lewis acid (boronic acid) which adds nucleophiles to form tetrahedral complexes, lowering the experimental pKa

$$$$
