1gaf_ligand
                    3D
 Schrodinger Suite 2020-3.
 32 32  0  0  1  0            999 V2000
   56.6270   -8.8760   14.9510 C   0  0  0  0  0  0
   55.8220   -9.0340   16.1330 N   0  3  0  0  0  0
   54.7280   -8.1710   16.2520 O   0  5  0  0  0  0
   56.2280  -10.0260   17.0340 O   0  0  0  0  0  0
   57.7690   -9.7050   14.7610 C   0  0  0  0  0  0
   58.5610   -9.5750   13.6020 C   0  0  0  0  0  0
   58.2200   -8.6220   12.6230 C   0  0  0  0  0  0
   57.0880   -7.7900   12.7920 C   0  0  0  0  0  0
   56.2940   -7.9110   13.9500 C   0  0  0  0  0  0
   58.9990   -8.5680   11.4520 O   0  0  0  0  0  0
   60.1210   -7.6010   11.1200 P   0  0  1  0  0  0
   60.0150   -7.3190    9.7280 O   0  0  0  0  0  0
   59.9220   -6.3840   11.8450 O   0  5  0  0  0  0
   61.6850   -8.3030   11.6030 C   0  0  0  0  0  0
   61.8180   -9.7050   11.0300 C   0  0  0  0  0  0
   63.2580  -10.1960   11.2010 C   0  0  0  0  0  0
   63.2590  -11.6660   11.6240 C   0  0  0  0  0  0
   64.7000  -12.0870   11.9020 C   0  0  0  0  0  0
   65.1660  -12.2230   12.9960 O   0  0  0  0  0  0
   65.3340  -12.2730   10.7200 O   0  5  0  0  0  0
   58.0326  -10.4450   15.5167 H   0  0  0  0  0  0
   59.4355  -10.2108   13.4640 H   0  0  0  0  0  0
   56.8305   -7.0567   12.0278 H   0  0  0  0  0  0
   55.4242   -7.2676   14.0828 H   0  0  0  0  0  0
   62.5027   -7.6744   11.2207 H   0  0  0  0  0  0
   61.7420   -8.3513   12.7005 H   0  0  0  0  0  0
   61.1350  -10.3844   11.5609 H   0  0  0  0  0  0
   61.5619   -9.6898    9.9603 H   0  0  0  0  0  0
   63.7965  -10.0921   10.2474 H   0  0  0  0  0  0
   63.7609   -9.5955   11.9733 H   0  0  0  0  0  0
   62.6500  -11.7866   12.5321 H   0  0  0  0  0  0
   62.8370  -12.2806   10.8152 H   0  0  0  0  0  0
  1  9  2  0  0  0
  1  5  1  0  0  0
  1  2  1  0  0  0
  2  4  2  0  0  0
  2  3  1  0  0  0
  5  6  2  0  0  0
  5 21  1  0  0  0
  6  7  1  0  0  0
  6 22  1  0  0  0
  7 10  1  0  0  0
  7  8  2  0  0  0
  8  9  1  0  0  0
  8 23  1  0  0  0
  9 24  1  0  0  0
 10 11  1  0  0  0
 11 14  1  0  0  0
 11 13  1  0  0  0
 11 12  2  0  0  0
 14 15  1  0  0  0
 14 25  1  0  0  0
 14 26  1  0  0  0
 15 16  1  0  0  0
 15 27  1  0  0  0
 15 28  1  0  0  0
 16 17  1  0  0  0
 16 29  1  0  0  0
 16 30  1  0  0  0
 17 18  1  0  0  0
 17 31  1  0  0  0
 17 32  1  0  0  0
 18 20  1  0  0  0
 18 19  2  0  0  0
M  CHG  4   2   1   3  -1  13  -1  20  -1
M  END
> <s_m_source_file>
../1gaf_ligand.sdf

> <i_m_source_file_index>
1

> <s_epik_input>
W08tXVtOK10oPU8pYzFbY0hdW2NIXWMoW2NIXVtjSF0xKU9bUEBAXSg9TykoW09IXSlbQ0gyXVtDSDJdW0NIMl1bQ0gyXUMoPU8pW09IXQ==

> <s_epik_cmdline>
J2VwaWtfYXBwJywgJy1pbWFlJywgJ2xpZ2FuZF9wcm8ubWFlJywgJy1vbWFlJywgJ2xpZ2FuZF9wcmVwLm1hZScsICctbXMnLCAnMScsICctcGgnLCAnNycsICctcGh0JywgJzAuNScsICctbnQn

> <r_lp_tautomer_probability>
1

> <r_epik_Ionization_Penalty>
  0.0043

> <r_epik_Ionization_Penalty_Charging>
  0.0043

> <r_epik_Ionization_Penalty_Neutral>
  0.0000

> <r_epik_State_Penalty>
 -0.0000

> <r_epik_Charging_Adjusted_Penalty>
0.00432324663932157

> <i_epik_Tot_Q>
-2

> <i_epik_Tot_abs_Q>
4

$$$$
