1gag_ligand
                    3D
 Schrodinger Suite 2020-3.
177179  0  0  1  0            999 V2000
  -20.0510   23.1870   11.5930 N   0  3  0  0  0  0
  -21.1770   23.6860   12.3960 C   0  0  2  0  0  0
  -20.7600   23.8930   13.8550 C   0  0  0  0  0  0
  -20.7800   22.9510   14.6490 O   0  0  0  0  0  0
  -22.2270   22.5810   12.2490 C   0  0  0  0  0  0
  -21.9060   21.9800   10.9260 C   0  0  0  0  0  0
  -20.3980   21.9190   10.9360 C   0  0  0  0  0  0
  -20.3880   25.1260   14.1950 N   0  0  0  0  0  0
  -19.9330   25.4760   15.5450 C   0  0  2  0  0  0
  -20.9230   25.1790   16.6770 C   0  0  0  0  0  0
  -21.4120   26.0880   17.3490 O   0  0  0  0  0  0
  -19.5200   26.9490   15.5850 C   0  0  0  0  0  0
  -21.2050   23.8970   16.8820 N   0  0  0  0  0  0
  -22.1210   23.4520   17.9230 C   0  0  2  0  0  0
  -21.6460   23.8890   19.3050 C   0  0  0  0  0  0
  -22.4540   24.3170   20.1350 O   0  0  0  0  0  0
  -22.2630   21.9090   17.9030 C   0  0  2  0  0  0
  -23.0600   21.5220   16.7800 O   0  0  0  0  0  0
  -22.9130   21.3990   19.1780 C   0  0  0  0  0  0
  -20.3380   23.7790   19.5390 N   0  0  0  0  0  0
  -19.7640   24.1450   20.8250 C   0  0  0  0  0  0
  -19.9950   25.5850   21.2320 C   0  0  0  0  0  0
  -19.8320   25.9450   22.4040 O   0  0  0  0  0  0
  -20.3830   26.4140   20.2660 N   0  0  0  0  0  0
  -20.6400   27.8250   20.5230 C   0  0  2  0  0  0
  -21.9430   28.0460   21.3030 C   0  0  0  0  0  0
  -22.2290   29.1600   21.7460 O   0  0  0  0  0  0
  -20.6850   28.5910   19.1970 C   0  0  0  0  0  0
  -19.3330   28.6300   18.4900 C   0  0  0  0  0  0
  -18.4090   27.8910   18.9050 O   0  0  0  0  0  0
  -19.1960   29.3980   17.5080 O   0  0  0  0  0  0
  -22.7340   26.9880   21.4730 N   0  0  0  0  0  0
  -23.9990   27.1170   22.1930 C   0  0  2  0  0  0
  -24.1120   26.2180   23.4100 C   0  0  0  0  0  0
  -23.5980   25.1020   23.4340 O   0  0  0  0  0  0
  -25.1880   26.8350   21.2740 C   0  0  0  0  0  0
  -25.1680   27.6380   20.0040 C   0  0  0  0  0  0
  -24.2110   27.3870   19.0240 C   0  0  0  0  0  0
  -26.1070   28.6450   19.7720 C   0  0  0  0  0  0
  -24.1850   28.1080   17.8440 C   0  0  0  0  0  0
  -26.0920   29.3780   18.5830 C   0  0  0  0  0  0
  -25.1250   29.0890   17.6340 C   0  0  0  0  0  0
  -24.7910   26.7290   24.4270 N   0  0  0  0  0  0
  -25.0080   25.9870   25.6560 C   0  0  2  0  0  0
  -26.4980   26.0330   25.9470 C   0  0  0  0  0  0
  -27.1430   27.0800   25.7850 O   0  0  0  0  0  0
  -24.2490   26.6220   26.8180 C   0  0  0  0  0  0
  -24.4050   25.8610   28.1140 C   0  0  0  0  0  0
  -23.5210   26.6250   29.4580 S   0  0  0  0  0  0
  -24.8650   27.4590   30.3180 C   0  0  0  0  0  0
  -27.0520   24.9020   26.3680 N   0  0  0  0  0  0
  -28.4670   24.8680   26.6800 C   0  0  2  0  0  0
  -28.5710   25.5910   28.0090 C   0  0  0  0  0  0
  -27.8120   25.3010   28.9330 O   0  0  0  0  0  0
  -28.9600   23.4280   26.8140 C   0  0  0  0  0  0
  -30.4540   23.3130   26.6210 C   0  0  0  0  0  0
  -31.0560   22.2800   26.9200 O   0  0  0  0  0  0
  -31.0660   24.3770   26.1080 N   0  0  0  0  0  0
  -29.4950   26.5370   28.1210 N   0  0  0  0  0  0
  -29.6050   27.2540   29.3790 C   0  0  2  0  0  0
  -30.8510   28.0960   29.5830 C   0  0  0  0  0  0
  -31.6460   28.3270   28.6650 O   0  0  0  0  0  0
  -28.3770   28.1460   29.5740 C   0  0  0  0  0  0
  -28.3320   29.3410   28.6500 C   0  0  0  0  0  0
  -26.8950   30.3580   28.9750 S   0  0  0  0  0  0
  -27.3010   31.0340   30.5800 C   0  0  0  0  0  0
  -30.9900   28.5470   30.8240 N   0  0  0  0  0  0
  -32.0910   29.3880   31.2630 C   0  0  2  0  0  0
  -31.4150   30.5160   32.0620 C   0  0  0  0  0  0
  -30.3820   30.2930   32.7040 O   0  0  0  0  0  0
  -33.0340   28.5680   32.1520 C   0  0  0  0  0  0
  -34.3640   29.0430   32.0750 O   0  0  0  0  0  0
  -31.9680   31.7430   32.0180 N   0  0  0  0  0  0
  -31.3500   32.8500   32.7650 C   0  0  2  0  0  0
  -31.0340   32.5480   34.2410 C   0  0  0  0  0  0
  -31.9200   32.2110   35.0310 O   0  0  0  0  0  0
  -32.3510   34.0000   32.5840 C   0  0  0  0  0  0
  -33.6490   33.3040   32.2500 C   0  0  0  0  0  0
  -33.2080   32.1790   31.3550 C   0  0  0  0  0  0
  -29.7540   32.6760   34.5900 N   0  0  0  0  0  0
  -29.2630   32.4150   35.9440 C   0  0  2  0  0  0
  -29.8970   33.3220   37.0040 C   0  0  0  0  0  0
  -30.4180   32.8370   38.0100 O   0  0  0  0  0  0
  -27.7190   32.5680   36.0020 C   0  0  0  0  0  0
  -27.1990   32.1610   37.3760 C   0  0  0  0  0  0
  -27.0730   31.7160   34.9130 C   0  0  0  0  0  0
  -29.8420   34.6330   36.7730 N   0  0  0  0  0  0
  -30.4200   35.5970   37.6950 C   0  0  0  0  0  0
  -30.4530   35.1710   39.1490 C   0  0  0  0  0  0
  -29.5210   35.4440   39.9070 O   0  0  0  0  0  0
  -19.7949   23.9273   10.8208 H   0  0  0  0  0  0
  -19.1807   23.0213   12.2450 H   0  0  0  0  0  0
  -21.5232   24.6670   12.0386 H   0  0  0  0  0  0
  -22.1208   21.8621   13.0748 H   0  0  0  0  0  0
  -23.2330   23.0251   12.2766 H   0  0  0  0  0  0
  -22.3684   20.9846   10.8536 H   0  0  0  0  0  0
  -22.2972   22.6251   10.1255 H   0  0  0  0  0  0
  -19.9590   21.8964    9.9276 H   0  0  0  0  0  0
  -20.0027   21.0796   11.5269 H   0  0  0  0  0  0
  -20.4327   25.8977   13.4123 H   0  0  0  0  0  0
  -19.0819   24.7948   15.6918 H   0  0  0  0  0  0
  -18.8101   27.1530   14.7699 H   0  0  0  0  0  0
  -19.0424   27.1698   16.5510 H   0  0  0  0  0  0
  -20.4106   27.5829   15.4629 H   0  0  0  0  0  0
  -20.7159   23.1601   16.2279 H   0  0  0  0  0  0
  -23.0691   23.9538   17.6793 H   0  0  0  0  0  0
  -21.2840   21.4244   17.7740 H   0  0  0  0  0  0
  -22.7494   21.8019   15.7626 H   0  0  0  0  0  0
  -22.3029   21.6947   20.0442 H   0  0  0  0  0  0
  -22.9866   20.3022   19.1386 H   0  0  0  0  0  0
  -23.9201   21.8309   19.2742 H   0  0  0  0  0  0
  -19.6894   23.4022   18.7344 H   0  0  0  0  0  0
  -20.2022   23.5165   21.6143 H   0  0  0  0  0  0
  -18.6750   23.9925   20.7972 H   0  0  0  0  0  0
  -20.5086   26.0080   19.2514 H   0  0  0  0  0  0
  -19.7945   28.1536   21.1453 H   0  0  0  0  0  0
  -21.4047   28.1087   18.5192 H   0  0  0  0  0  0
  -20.9964   29.6293   19.3837 H   0  0  0  0  0  0
  -18.2330   29.4475   16.9786 H   0  0  0  0  0  0
  -22.4292   26.0121   21.0670 H   0  0  0  0  0  0
  -23.9694   28.1636   22.5302 H   0  0  0  0  0  0
  -25.1889   25.7719   20.9913 H   0  0  0  0  0  0
  -26.1235   27.0751   21.8005 H   0  0  0  0  0  0
  -23.4679   26.6071   19.1901 H   0  0  0  0  0  0
  -26.8613   28.8619   20.5283 H   0  0  0  0  0  0
  -23.4272   27.9006   17.0885 H   0  0  0  0  0  0
  -26.8274   30.1627   18.4052 H   0  0  0  0  0  0
  -25.1091   29.6516   16.7006 H   0  0  0  0  0  0
  -25.1952   27.7465   24.3202 H   0  0  0  0  0  0
  -24.6383   24.9636   25.4949 H   0  0  0  0  0  0
  -23.1758   26.6572   26.5793 H   0  0  0  0  0  0
  -24.6213   27.6436   26.9845 H   0  0  0  0  0  0
  -25.4695   25.8176   28.3879 H   0  0  0  0  0  0
  -24.0168   24.8395   27.9884 H   0  0  0  0  0  0
  -24.4657   27.9896   31.1950 H   0  0  0  0  0  0
  -25.6075   26.7164   30.6454 H   0  0  0  0  0  0
  -25.3429   28.1806   29.6390 H   0  0  0  0  0  0
  -26.4420   23.9935   26.4803 H   0  0  0  0  0  0
  -29.0406   25.3470   25.8728 H   0  0  0  0  0  0
  -28.4693   22.8004   26.0555 H   0  0  0  0  0  0
  -28.7160   23.0488   27.8173 H   0  0  0  0  0  0
  -30.4859   25.2772   25.8567 H   0  0  0  0  0  0
  -32.1521   24.3566   25.9351 H   0  0  0  0  0  0
  -30.1691   26.7826   27.2872 H   0  0  0  0  0  0
  -29.6808   26.4156   30.0871 H   0  0  0  0  0  0
  -28.3638   28.5316   30.6041 H   0  0  0  0  0  0
  -27.4648   27.5594   29.3904 H   0  0  0  0  0  0
  -28.2886   28.9961   27.6064 H   0  0  0  0  0  0
  -29.2346   29.9523   28.7969 H   0  0  0  0  0  0
  -26.4885   31.6952   30.9155 H   0  0  0  0  0  0
  -27.4280   30.2138   31.3018 H   0  0  0  0  0  0
  -28.2362   31.6088   30.5098 H   0  0  0  0  0  0
  -30.2080   28.2479   31.5374 H   0  0  0  0  0  0
  -32.6667   29.7559   30.4009 H   0  0  0  0  0  0
  -33.0209   27.5167   31.8286 H   0  0  0  0  0  0
  -32.7012   28.6339   33.1984 H   0  0  0  0  0  0
  -35.1574   28.5539   32.6592 H   0  0  0  0  0  0
  -30.3526   33.0482   32.3455 H   0  0  0  0  0  0
  -32.4184   34.5778   33.5176 H   0  0  0  0  0  0
  -32.0113   34.6571   31.7699 H   0  0  0  0  0  0
  -34.1225   32.9469   33.1764 H   0  0  0  0  0  0
  -34.3231   34.0093   31.7420 H   0  0  0  0  0  0
  -32.9805   32.5037   30.3289 H   0  0  0  0  0  0
  -33.9215   31.3423   31.3251 H   0  0  0  0  0  0
  -29.0544   32.9944   33.8031 H   0  0  0  0  0  0
  -29.5909   31.3814   36.1287 H   0  0  0  0  0  0
  -27.4379   33.6180   35.8332 H   0  0  0  0  0  0
  -27.6746   32.7845   38.1474 H   0  0  0  0  0  0
  -26.1086   32.3015   37.4117 H   0  0  0  0  0  0
  -27.4386   31.1033   37.5602 H   0  0  0  0  0  0
  -27.4593   32.0230   33.9299 H   0  0  0  0  0  0
  -27.3121   30.6564   35.0864 H   0  0  0  0  0  0
  -25.9820   31.8546   34.9379 H   0  0  0  0  0  0
  -29.3428   34.9798   35.8562 H   0  0  0  0  0  0
  -29.8411   36.5316   37.6588 H   0  0  0  0  0  0
  -31.4622   35.7999   37.4076 H   0  0  0  0  0  0
  -31.3223   34.6118   39.5253 H   0  0  0  0  0  0
  1  2  1  0  0  0
  1  7  1  0  0  0
  1 91  1  0  0  0
  1 92  1  0  0  0
  2  3  1  0  0  0
  2  5  1  0  0  0
  2 93  1  0  0  0
  3  4  2  0  0  0
  3  8  1  0  0  0
  5  6  1  0  0  0
  5 94  1  0  0  0
  5 95  1  0  0  0
  6  7  1  0  0  0
  6 96  1  0  0  0
  6 97  1  0  0  0
  7 98  1  0  0  0
  7 99  1  0  0  0
  8  9  1  0  0  0
  8100  1  0  0  0
  9 12  1  0  0  0
  9 10  1  0  0  0
  9101  1  0  0  0
 10 11  2  0  0  0
 10 13  1  0  0  0
 12102  1  0  0  0
 12103  1  0  0  0
 12104  1  0  0  0
 13 14  1  0  0  0
 13105  1  0  0  0
 14 17  1  0  0  0
 14 15  1  0  0  0
 14106  1  0  0  0
 15 16  2  0  0  0
 15 20  1  0  0  0
 17 19  1  0  0  0
 17 18  1  0  0  0
 17107  1  0  0  0
 18108  1  0  0  0
 19109  1  0  0  0
 19110  1  0  0  0
 19111  1  0  0  0
 20 21  1  0  0  0
 20112  1  0  0  0
 21 22  1  0  0  0
 21113  1  0  0  0
 21114  1  0  0  0
 22 23  2  0  0  0
 22 24  1  0  0  0
 24 25  1  0  0  0
 24115  1  0  0  0
 25 28  1  0  0  0
 25 26  1  0  0  0
 25116  1  0  0  0
 26 27  2  0  0  0
 26 32  1  0  0  0
 28 29  1  0  0  0
 28117  1  0  0  0
 28118  1  0  0  0
 29 30  2  0  0  0
 29 31  1  0  0  0
 31119  1  0  0  0
 32 33  1  0  0  0
 32120  1  0  0  0
 33 36  1  0  0  0
 33 34  1  0  0  0
 33121  1  0  0  0
 34 35  2  0  0  0
 34 43  1  0  0  0
 36 37  1  0  0  0
 36122  1  0  0  0
 36123  1  0  0  0
 37 38  2  0  0  0
 37 39  1  0  0  0
 38 40  1  0  0  0
 38124  1  0  0  0
 39 41  2  0  0  0
 39125  1  0  0  0
 40 42  2  0  0  0
 40126  1  0  0  0
 41 42  1  0  0  0
 41127  1  0  0  0
 42128  1  0  0  0
 43 44  1  0  0  0
 43129  1  0  0  0
 44 47  1  0  0  0
 44 45  1  0  0  0
 44130  1  0  0  0
 45 46  2  0  0  0
 45 51  1  0  0  0
 47 48  1  0  0  0
 47131  1  0  0  0
 47132  1  0  0  0
 48 49  1  0  0  0
 48133  1  0  0  0
 48134  1  0  0  0
 49 50  1  0  0  0
 50135  1  0  0  0
 50136  1  0  0  0
 50137  1  0  0  0
 51 52  1  0  0  0
 51138  1  0  0  0
 52 55  1  0  0  0
 52 53  1  0  0  0
 52139  1  0  0  0
 53 54  2  0  0  0
 53 59  1  0  0  0
 55 56  1  0  0  0
 55140  1  0  0  0
 55141  1  0  0  0
 56 58  1  0  0  0
 56 57  2  0  0  0
 58142  1  0  0  0
 58143  1  0  0  0
 59 60  1  0  0  0
 59144  1  0  0  0
 60 63  1  0  0  0
 60 61  1  0  0  0
 60145  1  0  0  0
 61 62  2  0  0  0
 61 67  1  0  0  0
 63 64  1  0  0  0
 63146  1  0  0  0
 63147  1  0  0  0
 64 65  1  0  0  0
 64148  1  0  0  0
 64149  1  0  0  0
 65 66  1  0  0  0
 66150  1  0  0  0
 66151  1  0  0  0
 66152  1  0  0  0
 67 68  1  0  0  0
 67153  1  0  0  0
 68 71  1  0  0  0
 68 69  1  0  0  0
 68154  1  0  0  0
 69 70  2  0  0  0
 69 73  1  0  0  0
 71 72  1  0  0  0
 71155  1  0  0  0
 71156  1  0  0  0
 72157  1  0  0  0
 73 74  1  0  0  0
 73 79  1  0  0  0
 74 75  1  0  0  0
 74 77  1  0  0  0
 74158  1  0  0  0
 75 76  2  0  0  0
 75 80  1  0  0  0
 77 78  1  0  0  0
 77159  1  0  0  0
 77160  1  0  0  0
 78 79  1  0  0  0
 78161  1  0  0  0
 78162  1  0  0  0
 79163  1  0  0  0
 79164  1  0  0  0
 80 81  1  0  0  0
 80165  1  0  0  0
 81 84  1  0  0  0
 81 82  1  0  0  0
 81166  1  0  0  0
 82 83  2  0  0  0
 82 87  1  0  0  0
 84 86  1  0  0  0
 84 85  1  0  0  0
 84167  1  0  0  0
 85168  1  0  0  0
 85169  1  0  0  0
 85170  1  0  0  0
 86171  1  0  0  0
 86172  1  0  0  0
 86173  1  0  0  0
 87 88  1  0  0  0
 87174  1  0  0  0
 88 89  1  0  0  0
 88175  1  0  0  0
 88176  1  0  0  0
 89 90  2  0  0  0
 89177  1  0  0  0
M  CHG  1   1   1
M  END
> <s_m_source_file>
../1gag_ligand.sdf

> <i_m_source_file_index>
1

> <s_epik_input>
W0NIMl0xW0NIMl1bQ0gyXVtOSDIrXVtDQEBIXTFDKD1PKVtOSF1bQ0BASF0oW0NIM10pQyg9TylbTkhdW0NAQEhdKFtDQEhdKFtPSF0pW0NIM10pQyg9TylbTkhdW0NIMl1DKD1PKVtOSF1bQ0BASF0oW0NIMl1DKD1PKVtPSF0pQyg9TylbTkhdW0NAQEhdKFtDSDJdYzJbY0hdW2NIXVtjSF1bY0hdW2NIXTIpQyg9TylbTkhdW0NAQEhdKFtDSDJdW0NIMl1TW0NIM10pQyg9TylbTkhdW0NAQEhdKFtDSDJdQyg9TylbTkgyXSlDKD1PKVtOSF1bQ0BASF0oW0NIMl1bQ0gyXVNbQ0gzXSlDKD1PKVtOSF1bQ0BASF0oW0NIMl1bT0hdKUMoPU8pTjNbQ0BASF0oW0NIMl1bQ0gyXVtDSDJdMylDKD1PKVtOSF1bQ0BASF0oW0NIXShbQ0gzXSlbQ0gzXSlDKD1PKVtOSF1bQ0gyXVtDSF09Tw==

> <s_epik_cmdline>
J2VwaWtfYXBwJywgJy1pbWFlJywgJ2xpZ2FuZF9wcm8ubWFlJywgJy1vbWFlJywgJ2xpZ2FuZF9wcmVwLm1hZScsICctbXMnLCAnMScsICctcGgnLCAnNycsICctcGh0JywgJzAuNScsICctbnQn

> <s_epik_pKa_notes>
Molecule size exceeds maximum supported for generating protonation states

$$$$
