1gah_ligand
                    3D
 Schrodinger Suite 2020-3.
 88 91  0  0  1  0            999 V2000
   33.0630   20.4520    8.1670 C   0  0  2  0  0  0
   34.2960   20.3430    9.0830 C   0  0  1  0  0  0
   33.9480   19.5450   10.3510 C   0  0  2  0  0  0
   32.8780   20.2740   11.1810 C   0  0  1  0  0  0
   31.7390   20.7860   10.3120 C   0  0  0  0  0  0
   30.5680   21.4600   10.9940 C   0  0  0  0  0  0
   31.8250   20.8160    8.9520 C   0  0  0  0  0  0
   35.3420   19.7650    8.3320 O   0  0  0  0  0  0
   35.0740   19.3410   11.1710 O   0  0  0  0  0  0
   32.4660   19.3390   12.1790 O   0  0  0  0  0  0
   30.9890   22.7330   11.4850 O   0  0  0  0  0  0
   31.7070   18.1400    3.5020 C   0  0  2  0  0  0
   33.1840   18.4940    3.7690 C   0  0  1  0  0  0
   33.5050   18.3060    5.2630 C   0  0  2  0  0  0
   32.5750   19.2330    6.0590 C   0  0  1  0  0  0
   31.1300   18.8000    5.7710 C   0  0  1  0  0  0
   30.1060   19.6670    6.4660 C   0  0  0  0  0  0
   32.8420   19.1530    7.5040 N   0  3  0  0  0  0
   34.0300   17.6490    2.9980 O   0  0  0  0  0  0
   34.8840   18.5960    5.5130 O   0  0  0  0  0  0
   30.8370   18.8700    4.3560 O   0  0  0  0  0  0
   30.6290   13.4840    1.4320 C   0  0  2  0  0  0
   30.3230   14.8020    0.7490 C   0  0  1  0  0  0
   30.9830   15.9610    1.5120 C   0  0  2  0  0  0
   30.6730   15.9180    3.0250 C   0  0  1  0  0  0
   30.8440   14.5010    3.5800 C   0  0  1  0  0  0
   30.3570   14.3390    5.0070 C   0  0  0  0  0  0
   30.8330   14.7670   -0.5780 O   0  0  0  0  0  0
   30.5150   17.1840    0.9660 O   0  0  0  0  0  0
   31.6000   16.7590    3.7470 O   0  0  0  0  0  0
   30.1470   13.5390    2.7610 O   0  0  0  0  0  0
   30.8940   13.1660    5.5960 O   0  0  0  0  0  0
   34.8330   10.3670    0.5220 C   0  0  1  0  0  0
   34.1130   10.9720   -0.6850 C   0  0  1  0  0  0
   33.4490   12.2790   -0.2610 C   0  0  2  0  0  0
   32.5170   12.0350    0.9230 C   0  0  1  0  0  0
   33.2740   11.3490    2.0590 C   0  0  1  0  0  0
   32.3350   10.9590    3.1810 C   0  0  0  0  0  0
   35.7960   11.2580    0.9730 O   0  0  0  0  0  0
   35.0540   11.2290   -1.7170 O   0  0  0  0  0  0
   32.7190   12.8350   -1.3460 O   0  0  0  0  0  0
   32.0180   13.2990    1.3960 O   0  0  0  0  0  0
   33.9000   10.1340    1.5890 O   0  0  0  0  0  0
   31.3970    9.9880    2.7370 O   0  0  0  0  0  0
   33.2299   21.2230    7.4004 H   0  0  0  0  0  0
   34.7070   21.3162    9.3895 H   0  0  0  0  0  0
   33.6383   18.5309   10.0582 H   0  0  0  0  0  0
   33.2476   21.1591   11.7196 H   0  0  0  0  0  0
   29.7494   21.5924   10.2713 H   0  0  0  0  0  0
   30.2213   20.8350   11.8302 H   0  0  0  0  0  0
   30.9545   21.1207    8.3524 H   0  0  0  0  0  0
   35.6816   20.2446    7.4021 H   0  0  0  0  0  0
   35.9621   18.8314   10.7690 H   0  0  0  0  0  0
   33.2080   18.9036   12.8645 H   0  0  0  0  0  0
   30.2760   23.3810   12.0157 H   0  0  0  0  0  0
   31.3365   18.3601    2.4899 H   0  0  0  0  0  0
   33.4125   19.5162    3.4329 H   0  0  0  0  0  0
   33.4099   17.2619    5.5959 H   0  0  0  0  0  0
   32.7562   20.2854    5.7952 H   0  0  0  0  0  0
   31.0324   17.7551    6.1005 H   0  0  0  0  0  0
   30.2855   19.6482    7.5511 H   0  0  0  0  0  0
   29.0969   19.2836    6.2546 H   0  0  0  0  0  0
   30.1902   20.7003    6.0983 H   0  0  0  0  0  0
   33.7350   18.5224    7.6261 H   0  0  0  0  0  0
   31.9745   18.6522    7.9586 H   0  0  0  0  0  0
   33.9491   17.6429    1.9010 H   0  0  0  0  0  0
   35.6688   18.0112    5.0109 H   0  0  0  0  0  0
   30.1776   12.5917    0.9738 H   0  0  0  0  0  0
   29.2358   14.9449    0.6613 H   0  0  0  0  0  0
   32.0720   15.9451    1.3575 H   0  0  0  0  0  0
   29.6567   16.3027    3.1954 H   0  0  0  0  0  0
   31.9184   14.2687    3.5380 H   0  0  0  0  0  0
   30.6711   15.2088    5.6026 H   0  0  0  0  0  0
   29.2594   14.2670    5.0139 H   0  0  0  0  0  0
   30.4785   14.0010   -1.2834 H   0  0  0  0  0  0
   30.6480   17.3946   -0.1054 H   0  0  0  0  0  0
   30.6366   12.9038    6.6328 H   0  0  0  0  0  0
   35.3485    9.4234    0.2897 H   0  0  0  0  0  0
   33.3855   10.2722   -1.1221 H   0  0  0  0  0  0
   34.2081   13.0358   -0.0138 H   0  0  0  0  0  0
   31.6486   11.4352    0.6129 H   0  0  0  0  0  0
   34.0633   12.0269    2.4160 H   0  0  0  0  0  0
   32.9153   10.5372    4.0148 H   0  0  0  0  0  0
   31.7885   11.8485    3.5277 H   0  0  0  0  0  0
   36.6110   11.5719    0.3043 H   0  0  0  0  0  0
   35.6338   10.4012   -2.1513 H   0  0  0  0  0  0
   33.2328   13.0769   -2.2881 H   0  0  0  0  0  0
   30.6402    9.5961    3.4324 H   0  0  0  0  0  0
  1  2  1  0  0  0
  1  7  1  0  0  0
  1 18  1  0  0  0
  1 45  1  0  0  0
  2  3  1  0  0  0
  2  8  1  0  0  0
  2 46  1  0  0  0
  3  4  1  0  0  0
  3  9  1  0  0  0
  3 47  1  0  0  0
  4  5  1  0  0  0
  4 10  1  0  0  0
  4 48  1  0  0  0
  5  6  1  0  0  0
  5  7  2  0  0  0
  6 11  1  0  0  0
  6 49  1  0  0  0
  6 50  1  0  0  0
  7 51  1  0  0  0
  8 52  1  0  0  0
  9 53  1  0  0  0
 10 54  1  0  0  0
 11 55  1  0  0  0
 12 13  1  0  0  0
 12 21  1  0  0  0
 12 30  1  0  0  0
 12 56  1  0  0  0
 13 14  1  0  0  0
 13 19  1  0  0  0
 13 57  1  0  0  0
 14 15  1  0  0  0
 14 20  1  0  0  0
 14 58  1  0  0  0
 15 16  1  0  0  0
 15 18  1  0  0  0
 15 59  1  0  0  0
 16 17  1  0  0  0
 16 21  1  0  0  0
 16 60  1  0  0  0
 17 61  1  0  0  0
 17 62  1  0  0  0
 17 63  1  0  0  0
 18 64  1  0  0  0
 18 65  1  0  0  0
 19 66  1  0  0  0
 20 67  1  0  0  0
 22 23  1  0  0  0
 22 31  1  0  0  0
 22 42  1  0  0  0
 22 68  1  0  0  0
 23 24  1  0  0  0
 23 28  1  0  0  0
 23 69  1  0  0  0
 24 25  1  0  0  0
 24 29  1  0  0  0
 24 70  1  0  0  0
 25 26  1  0  0  0
 25 30  1  0  0  0
 25 71  1  0  0  0
 26 27  1  0  0  0
 26 31  1  0  0  0
 26 72  1  0  0  0
 27 32  1  0  0  0
 27 73  1  0  0  0
 27 74  1  0  0  0
 28 75  1  0  0  0
 29 76  1  0  0  0
 32 77  1  0  0  0
 33 34  1  0  0  0
 33 39  1  0  0  0
 33 43  1  0  0  0
 33 78  1  0  0  0
 34 35  1  0  0  0
 34 40  1  0  0  0
 34 79  1  0  0  0
 35 36  1  0  0  0
 35 41  1  0  0  0
 35 80  1  0  0  0
 36 37  1  0  0  0
 36 42  1  0  0  0
 36 81  1  0  0  0
 37 38  1  0  0  0
 37 43  1  0  0  0
 37 82  1  0  0  0
 38 44  1  0  0  0
 38 83  1  0  0  0
 38 84  1  0  0  0
 39 85  1  0  0  0
 40 86  1  0  0  0
 41 87  1  0  0  0
 44 88  1  0  0  0
M  CHG  1  18   1
M  END
> <s_m_source_file>
../1gah_ligand.sdf

> <i_m_source_file_index>
1

> <s_epik_input>
W09IXVtDSDJdQyg9W0NIXTEpW0NAQEhdKFtPSF0pW0NASF0oW09IXSlbQ0BASF0oW09IXSlbQ0BIXTFbTkgyK11bQ0BIXShbQ0BIXShPMilbQ0gzXSlbQ0BIXShbT0hdKVtDQEBIXShbT0hdKVtDQEhdMk9bQ0BIXShbQ0BIXShPMylbQ0gyXVtPSF0pW0NASF0oW09IXSlbQ0BASF0oW09IXSlbQ0BIXTNPW0NASF0oW0NASF0oTzQpW0NIMl1bT0hdKVtDQEhdKFtPSF0pW0NAQEhdKFtPSF0pW0NASF00W09IXQ==

> <s_epik_cmdline>
J2VwaWtfYXBwJywgJy1pbWFlJywgJ2xpZ2FuZF9wcm8ubWFlJywgJy1vbWFlJywgJ2xpZ2FuZF9wcmVwLm1hZScsICctbXMnLCAnMScsICctcGgnLCAnNycsICctcGh0JywgJzAuNScsICctbnQn

> <r_epik_Ionization_Penalty>
  0.1167

> <r_epik_Ionization_Penalty_Charging>
  0.1167

> <r_epik_Ionization_Penalty_Neutral>
  0.0001

> <r_epik_State_Penalty>
  0.1063

> <r_epik_Charging_Adjusted_Penalty>
0.222957502643002

> <i_epik_Tot_Q>
1

> <i_epik_Tot_abs_Q>
1

> <s_epik_Chemistry_Notes>
This compound contains an acetal/aminal-like group ( X-CH(R)-Y where X, Y are N, S, or O) that may be acid/base labile, releasing an aldehyde.

$$$$
