1gai_ligand
                    3D
 Schrodinger Suite 2020-3.
 90 93  0  0  1  0            999 V2000
   33.1700   20.6220    8.1810 C   0  0  2  0  0  0
   34.3700   20.4820    9.1210 C   0  0  1  0  0  0
   33.9980   19.6160   10.3230 C   0  0  2  0  0  0
   32.9010   20.2890   11.1430 C   0  0  1  0  0  0
   31.6300   20.5140   10.3000 C   0  0  1  0  0  0
   30.6120   21.3490   11.0820 C   0  0  0  0  0  0
   31.9480   21.1840    8.9340 C   0  0  0  0  0  0
   35.4530   19.8790    8.4310 O   0  0  0  0  0  0
   35.1440   19.4270   11.1420 O   0  0  0  0  0  0
   32.5940   19.4740   12.2730 O   0  0  0  0  0  0
   31.1270   22.6420   11.4010 O   0  0  0  0  0  0
   31.7060   18.2700    3.5220 C   0  0  2  0  0  0
   33.1790   18.6150    3.7860 C   0  0  1  0  0  0
   33.4940   18.4450    5.2860 C   0  0  2  0  0  0
   32.5730   19.3810    6.0870 C   0  0  1  0  0  0
   31.1270   18.9380    5.7900 C   0  0  1  0  0  0
   30.0660   19.7720    6.4830 C   0  0  0  0  0  0
   32.8760   19.3180    7.5360 N   0  3  0  0  0  0
   34.0020   17.7370    3.0250 O   0  0  0  0  0  0
   34.8640   18.7400    5.5420 O   0  0  0  0  0  0
   30.8630   19.0490    4.3710 O   0  0  0  0  0  0
   30.7030   13.6000    1.4850 C   0  0  2  0  0  0
   30.3340   14.9210    0.8370 C   0  0  1  0  0  0
   30.9970   16.0810    1.5810 C   0  0  2  0  0  0
   30.7060   16.0130    3.0940 C   0  0  1  0  0  0
   30.9680   14.6110    3.6400 C   0  0  1  0  0  0
   30.5130   14.4420    5.0790 C   0  0  0  0  0  0
   30.7780   14.9220   -0.5120 O   0  0  0  0  0  0
   30.4880   17.2900    1.0410 O   0  0  0  0  0  0
   31.5750   16.9070    3.8240 O   0  0  0  0  0  0
   30.2990   13.6120    2.8470 O   0  0  0  0  0  0
   30.9640   13.2120    5.6190 O   0  0  0  0  0  0
   34.8350   10.4330    0.5560 C   0  0  1  0  0  0
   34.1310   11.0140   -0.6720 C   0  0  1  0  0  0
   33.4850   12.3410   -0.2900 C   0  0  2  0  0  0
   32.5580   12.1440    0.9120 C   0  0  1  0  0  0
   33.3030   11.4710    2.0630 C   0  0  1  0  0  0
   32.3800   11.1360    3.2170 C   0  0  0  0  0  0
   35.7920   11.3290    1.0000 O   0  0  0  0  0  0
   35.0700   11.2220   -1.7230 O   0  0  0  0  0  0
   32.7480   12.8540   -1.3930 O   0  0  0  0  0  0
   32.0860   13.4280    1.3530 O   0  0  0  0  0  0
   33.8920   10.2340    1.6170 O   0  0  0  0  0  0
   31.3310   10.2700    2.8020 O   0  0  0  0  0  0
   33.4173   21.3122    7.3609 H   0  0  0  0  0  0
   34.7336   21.4702    9.4392 H   0  0  0  0  0  0
   33.6851   18.6127    9.9982 H   0  0  0  0  0  0
   33.2652   21.2453   11.5466 H   0  0  0  0  0  0
   31.1893   19.5261   10.1001 H   0  0  0  0  0  0
   29.7016   21.4772   10.4780 H   0  0  0  0  0  0
   30.3596   20.8345   12.0209 H   0  0  0  0  0  0
   32.1063   22.2520    9.1444 H   0  0  0  0  0  0
   31.0474   21.0620    8.3142 H   0  0  0  0  0  0
   35.8662   20.3573    7.5307 H   0  0  0  0  0  0
   36.0453   18.9531   10.7259 H   0  0  0  0  0  0
   33.3844   19.2082   12.9904 H   0  0  0  0  0  0
   30.5083   23.3572   11.9628 H   0  0  0  0  0  0
   31.3447   18.4430    2.4975 H   0  0  0  0  0  0
   33.4231   19.6302    3.4398 H   0  0  0  0  0  0
   33.3941   17.4005    5.6163 H   0  0  0  0  0  0
   32.7357   20.4380    5.8297 H   0  0  0  0  0  0
   31.0357   17.8907    6.1137 H   0  0  0  0  0  0
   30.2165   19.7257    7.5717 H   0  0  0  0  0  0
   29.0695   19.3786    6.2335 H   0  0  0  0  0  0
   30.1428   20.8164    6.1463 H   0  0  0  0  0  0
   33.7443   18.6514    7.6441 H   0  0  0  0  0  0
   31.9998   18.8598    8.0180 H   0  0  0  0  0  0
   33.9185   17.7173    1.9284 H   0  0  0  0  0  0
   35.6541   18.1583    5.0447 H   0  0  0  0  0  0
   30.2354   12.7099    1.0388 H   0  0  0  0  0  0
   29.2409   15.0395    0.8052 H   0  0  0  0  0  0
   32.0837   16.0951    1.4109 H   0  0  0  0  0  0
   29.6682   16.3341    3.2670 H   0  0  0  0  0  0
   32.0499   14.4283    3.5619 H   0  0  0  0  0  0
   30.9174   15.2623    5.6902 H   0  0  0  0  0  0
   29.4140   14.4611    5.1207 H   0  0  0  0  0  0
   30.4104   14.1578   -1.2126 H   0  0  0  0  0  0
   30.6070   17.5067   -0.0309 H   0  0  0  0  0  0
   30.7150   12.9423    6.6559 H   0  0  0  0  0  0
   35.3483    9.4822    0.3499 H   0  0  0  0  0  0
   33.3944   10.3092   -1.0850 H   0  0  0  0  0  0
   34.2507   13.1015   -0.0771 H   0  0  0  0  0  0
   31.6770   11.5508    0.6257 H   0  0  0  0  0  0
   34.1090   12.1425    2.3939 H   0  0  0  0  0  0
   32.9533   10.6367    4.0120 H   0  0  0  0  0  0
   31.9354   12.0616    3.6116 H   0  0  0  0  0  0
   36.6182   11.6249    0.3367 H   0  0  0  0  0  0
   35.6365   10.3718   -2.1307 H   0  0  0  0  0  0
   33.2563   13.0579   -2.3470 H   0  0  0  0  0  0
   30.5755    9.9342    3.5276 H   0  0  0  0  0  0
  1  2  1  0  0  0
  1  7  1  0  0  0
  1 18  1  0  0  0
  1 45  1  0  0  0
  2  3  1  0  0  0
  2  8  1  0  0  0
  2 46  1  0  0  0
  3  4  1  0  0  0
  3  9  1  0  0  0
  3 47  1  0  0  0
  4  5  1  0  0  0
  4 10  1  0  0  0
  4 48  1  0  0  0
  5  6  1  0  0  0
  5  7  1  0  0  0
  5 49  1  0  0  0
  6 11  1  0  0  0
  6 50  1  0  0  0
  6 51  1  0  0  0
  7 52  1  0  0  0
  7 53  1  0  0  0
  8 54  1  0  0  0
  9 55  1  0  0  0
 10 56  1  0  0  0
 11 57  1  0  0  0
 12 13  1  0  0  0
 12 21  1  0  0  0
 12 30  1  0  0  0
 12 58  1  0  0  0
 13 14  1  0  0  0
 13 19  1  0  0  0
 13 59  1  0  0  0
 14 15  1  0  0  0
 14 20  1  0  0  0
 14 60  1  0  0  0
 15 16  1  0  0  0
 15 18  1  0  0  0
 15 61  1  0  0  0
 16 17  1  0  0  0
 16 21  1  0  0  0
 16 62  1  0  0  0
 17 63  1  0  0  0
 17 64  1  0  0  0
 17 65  1  0  0  0
 18 66  1  0  0  0
 18 67  1  0  0  0
 19 68  1  0  0  0
 20 69  1  0  0  0
 22 23  1  0  0  0
 22 31  1  0  0  0
 22 42  1  0  0  0
 22 70  1  0  0  0
 23 24  1  0  0  0
 23 28  1  0  0  0
 23 71  1  0  0  0
 24 25  1  0  0  0
 24 29  1  0  0  0
 24 72  1  0  0  0
 25 26  1  0  0  0
 25 30  1  0  0  0
 25 73  1  0  0  0
 26 27  1  0  0  0
 26 31  1  0  0  0
 26 74  1  0  0  0
 27 32  1  0  0  0
 27 75  1  0  0  0
 27 76  1  0  0  0
 28 77  1  0  0  0
 29 78  1  0  0  0
 32 79  1  0  0  0
 33 34  1  0  0  0
 33 39  1  0  0  0
 33 43  1  0  0  0
 33 80  1  0  0  0
 34 35  1  0  0  0
 34 40  1  0  0  0
 34 81  1  0  0  0
 35 36  1  0  0  0
 35 41  1  0  0  0
 35 82  1  0  0  0
 36 37  1  0  0  0
 36 42  1  0  0  0
 36 83  1  0  0  0
 37 38  1  0  0  0
 37 43  1  0  0  0
 37 84  1  0  0  0
 38 44  1  0  0  0
 38 85  1  0  0  0
 38 86  1  0  0  0
 39 87  1  0  0  0
 40 88  1  0  0  0
 41 89  1  0  0  0
 44 90  1  0  0  0
M  CHG  1  18   1
M  END
> <s_m_source_file>
../1gai_ligand.sdf

> <i_m_source_file_index>
1

> <s_epik_input>
W09IXVtDSDJdW0NAQEhdKFtDSDJdMSlbQ0BASF0oW09IXSlbQ0BIXShbT0hdKVtDQEBIXShbT0hdKVtDQEhdMVtOSDIrXVtDQEhdKFtDQEhdKE8yKVtDSDNdKVtDQEhdKFtPSF0pW0NAQEhdKFtPSF0pW0NASF0yT1tDQEhdKFtDQEhdKE8zKVtDSDJdW09IXSlbQ0BIXShbT0hdKVtDQEBIXShbT0hdKVtDQEhdM09bQ0BIXShbQ0BIXShPNClbQ0gyXVtPSF0pW0NASF0oW09IXSlbQ0BASF0oW09IXSlbQ0BIXTRbT0hd

> <s_epik_cmdline>
J2VwaWtfYXBwJywgJy1pbWFlJywgJ2xpZ2FuZF9wcm8ubWFlJywgJy1vbWFlJywgJ2xpZ2FuZF9wcmVwLm1hZScsICctbXMnLCAnMScsICctcGgnLCAnNycsICctcGh0JywgJzAuNScsICctbnQn

> <r_epik_Ionization_Penalty>
  0.0178

> <r_epik_Ionization_Penalty_Charging>
  0.0177

> <r_epik_Ionization_Penalty_Neutral>
  0.0000

> <r_epik_State_Penalty>
  0.0141

> <r_epik_Charging_Adjusted_Penalty>
0.0318220296493959

> <i_epik_Tot_Q>
1

> <i_epik_Tot_abs_Q>
1

> <s_epik_Chemistry_Notes>
This compound contains an acetal/aminal-like group ( X-CH(R)-Y where X, Y are N, S, or O) that may be acid/base labile, releasing an aldehyde.

$$$$
