1gbq_ligand
                    3D
 Schrodinger Suite 2020-3.
180184  0  0  1  0            999 V2000
   -7.2450  -14.6360   -9.7430 C   0  0  0  0  0  0
   -7.8150  -13.8270  -10.4640 O   0  0  0  0  0  0
   -5.9170  -15.2760  -10.1470 C   0  0  0  0  0  0
   -7.6770  -15.0450   -8.5310 N   0  0  0  0  0  0
   -8.8560  -14.4720   -7.8820 C   0  0  2  0  0  0
   -8.3990  -13.8020   -6.5690 C   0  0  0  0  0  0
   -8.2310  -14.4720   -5.5560 O   0  0  0  0  0  0
   -9.8960  -15.5740   -7.5970 C   0  0  0  0  0  0
  -11.1400  -15.0200   -6.8780 C   0  0  0  0  0  0
  -10.3240  -16.2760   -8.8940 C   0  0  0  0  0  0
   -8.1940  -12.4530   -6.6110 N   0  0  0  0  0  0
   -7.7680  -11.7110   -5.4280 C   0  0  2  0  0  0
   -8.6890  -11.8660   -4.1760 C   0  0  0  0  0  0
   -9.8840  -12.1090   -4.2960 O   0  0  0  0  0  0
   -7.7250  -10.2590   -5.9060 C   0  0  0  0  0  0
   -7.5550  -10.3200   -7.4180 C   0  0  0  0  0  0
   -8.2510  -11.6180   -7.8170 C   0  0  0  0  0  0
   -8.0590  -11.7200   -2.9720 N   0  0  0  0  0  0
   -8.7090  -11.8160   -1.6590 C   0  0  2  0  0  0
   -9.9960  -10.9920   -1.4230 C   0  0  0  0  0  0
  -10.2860  -10.0380   -2.1280 O   0  0  0  0  0  0
   -7.6430  -11.1990   -0.7280 C   0  0  0  0  0  0
   -6.2990  -11.5090   -1.3750 C   0  0  0  0  0  0
   -6.6100  -11.5380   -2.8640 C   0  0  0  0  0  0
  -10.7610  -11.3920   -0.3640 N   0  0  0  0  0  0
  -11.9490  -10.6540    0.0670 C   0  0  2  0  0  0
  -11.4350   -9.4910    0.9210 C   0  0  0  0  0  0
  -10.7100   -9.6530    1.8960 O   0  0  0  0  0  0
  -12.7220  -11.6660    0.9150 C   0  0  0  0  0  0
  -11.6450  -12.6060    1.4690 C   0  0  0  0  0  0
  -10.5460  -12.6180    0.4030 C   0  0  0  0  0  0
  -11.8380   -8.3100    0.4440 N   0  0  0  0  0  0
  -11.4140   -7.0670    1.0490 C   0  0  2  0  0  0
  -12.0320   -6.8580    2.4550 C   0  0  0  0  0  0
  -13.2020   -7.1530    2.6620 O   0  0  0  0  0  0
  -11.7480   -5.9130    0.1270 C   0  0  0  0  0  0
  -10.8210   -4.7230    0.3860 C   0  0  0  0  0  0
  -11.6620   -6.2090   -1.3580 C   0  0  0  0  0  0
  -11.2150   -6.3370    3.4140 N   0  0  0  0  0  0
  -11.7100   -6.0750    4.7690 C   0  0  2  0  0  0
  -12.8360   -5.0120    4.8430 C   0  0  0  0  0  0
  -12.9780   -4.1750    3.9620 O   0  0  0  0  0  0
  -10.4850   -5.5110    5.5120 C   0  0  0  0  0  0
   -9.2570   -5.8670    4.6760 C   0  0  0  0  0  0
   -9.7780   -6.0750    3.2550 C   0  0  0  0  0  0
  -13.6430   -5.0650    5.9390 N   0  0  0  0  0  0
  -14.6900   -4.0650    6.1580 C   0  0  2  0  0  0
  -14.0000   -2.7750    6.6570 C   0  0  0  0  0  0
  -13.4280   -2.7480    7.7410 O   0  0  0  0  0  0
  -15.5560   -4.6900    7.2580 C   0  0  0  0  0  0
  -14.6150   -5.6400    8.0110 C   0  0  0  0  0  0
  -13.6100   -6.1100    6.9580 C   0  0  0  0  0  0
  -14.0840   -1.7240    5.8100 N   0  0  0  0  0  0
  -13.4230   -0.4500    6.1130 C   0  0  2  0  0  0
  -14.3060    0.5250    6.9150 C   0  0  0  0  0  0
  -14.7280    1.5810    6.4640 O   0  0  0  0  0  0
  -12.7700    0.0880    4.8280 C   0  0  0  0  0  0
  -13.5880    0.9590    3.8640 C   0  0  0  0  0  0
  -13.2320    2.4470    3.9710 C   0  0  0  0  0  0
  -14.0470    3.2580    3.0750 N   0  0  0  0  0  0
  -15.2720    3.7190    3.4040 C   0  0  0  0  0  0
  -15.8500    3.3820    4.5500 N   0  0  0  0  0  0
  -15.9060    4.5290    2.5690 N   0  0  0  0  0  0
  -14.5380    0.0630    8.1580 N   0  0  0  0  0  0
  -15.3140    0.7880    9.1560 C   0  0  2  0  0  0
  -14.9330    0.2110   10.5290 C   0  0  0  0  0  0
  -15.2940   -0.9060   10.8760 O   0  0  0  0  0  0
  -16.8350    0.6660    8.9400 C   0  0  0  0  0  0
  -17.3870    1.5380    7.7980 C   0  0  0  0  0  0
  -18.9130    1.6720    7.8590 C   0  0  0  0  0  0
  -19.2770    2.4610    9.0290 N   0  0  0  0  0  0
  -20.5070    2.4620    9.5790 C   0  0  0  0  0  0
  -21.5040    1.7790    9.0330 N   0  0  0  0  0  0
  -20.7120    3.1590   10.6880 N   0  0  0  0  0  0
  -14.1890    1.0510   11.2750 N   0  0  0  0  0  0
  -13.7370    0.6830   12.6140 C   0  0  2  0  0  0
  -14.8390    0.9790   13.6600 C   0  0  0  0  0  0
  -15.0270    0.2050   14.5880 O   0  0  0  0  0  0
  -12.4450    1.4450   12.9490 C   0  0  0  0  0  0
  -11.2810    1.1230   11.9960 C   0  0  0  0  0  0
  -10.9040   -0.3710   11.9380 C   0  0  0  0  0  0
  -10.7740   -0.9340   13.2800 N   0  0  0  0  0  0
   -9.7340   -0.6400   14.0870 C   0  0  0  0  0  0
   -8.7530    0.1440   13.6730 N   0  0  0  0  0  0
   -9.6900   -1.1400   15.3130 N   0  0  0  0  0  0
  -15.5770    2.0950   13.4620 N   0  0  0  0  0  0
   -5.6181  -14.9055  -11.1387 H   0  0  0  0  0  0
   -6.0330  -16.3693  -10.1836 H   0  0  0  0  0  0
   -5.1442  -15.0138   -9.4094 H   0  0  0  0  0  0
   -7.1057  -15.8406   -8.0303 H   0  0  0  0  0  0
   -9.2915  -13.7376   -8.5755 H   0  0  0  0  0  0
   -9.4110  -16.3062   -6.9347 H   0  0  0  0  0  0
  -10.8330  -14.5172   -5.9490 H   0  0  0  0  0  0
  -11.8239  -15.8476   -6.6383 H   0  0  0  0  0  0
  -11.6516  -14.2995   -7.5331 H   0  0  0  0  0  0
   -9.4352  -16.6716   -9.4073 H   0  0  0  0  0  0
  -10.8356  -15.5556   -9.5492 H   0  0  0  0  0  0
  -11.0078  -17.1036   -8.6545 H   0  0  0  0  0  0
   -6.7955  -12.1249   -5.1230 H   0  0  0  0  0  0
   -8.6633   -9.7547   -5.6315 H   0  0  0  0  0  0
   -6.8782   -9.7416   -5.4314 H   0  0  0  0  0  0
   -8.0281   -9.4388   -7.8760 H   0  0  0  0  0  0
   -6.4835  -10.3315   -7.6664 H   0  0  0  0  0  0
   -7.7283  -12.1269   -8.6403 H   0  0  0  0  0  0
   -9.3013  -11.4503   -8.0976 H   0  0  0  0  0  0
   -9.0035  -12.8711   -1.5588 H   0  0  0  0  0  0
   -7.8080  -10.1143   -0.6499 H   0  0  0  0  0  0
   -7.7202  -11.6544    0.2703 H   0  0  0  0  0  0
   -5.5770  -10.7205   -1.1163 H   0  0  0  0  0  0
   -5.9304  -12.4783   -1.0083 H   0  0  0  0  0  0
   -6.0973  -12.3752   -3.3602 H   0  0  0  0  0  0
   -6.3220  -10.5931   -3.3480 H   0  0  0  0  0  0
  -12.5572  -10.2697   -0.7651 H   0  0  0  0  0  0
  -13.2579  -11.1383    1.7177 H   0  0  0  0  0  0
  -13.4450  -12.1997    0.2806 H   0  0  0  0  0  0
  -11.2762  -12.2156    2.4290 H   0  0  0  0  0  0
  -12.0749  -13.6070    1.6211 H   0  0  0  0  0  0
  -10.6332  -13.4881   -0.2644 H   0  0  0  0  0  0
   -9.5416  -12.5988    0.8511 H   0  0  0  0  0  0
  -12.5072   -8.2967   -0.4289 H   0  0  0  0  0  0
  -10.3223   -7.1622    1.1450 H   0  0  0  0  0  0
  -12.8025   -5.7095    0.3650 H   0  0  0  0  0  0
  -10.8457   -4.4649    1.4550 H   0  0  0  0  0  0
  -11.1576   -3.8601   -0.2074 H   0  0  0  0  0  0
   -9.7936   -4.9888    0.0965 H   0  0  0  0  0  0
  -12.3135   -7.0616   -1.6003 H   0  0  0  0  0  0
  -10.6231   -6.4544   -1.6234 H   0  0  0  0  0  0
  -11.9870   -5.3257   -1.9273 H   0  0  0  0  0  0
  -12.1228   -7.0236    5.1429 H   0  0  0  0  0  0
  -10.5864   -4.4202    5.6110 H   0  0  0  0  0  0
  -10.4212   -5.9655    6.5117 H   0  0  0  0  0  0
   -8.5309   -5.0419    4.7212 H   0  0  0  0  0  0
   -8.7960   -6.7833    5.0733 H   0  0  0  0  0  0
   -9.2996   -6.9378    2.7685 H   0  0  0  0  0  0
   -9.6353   -5.1783    2.6340 H   0  0  0  0  0  0
  -15.2651   -3.8438    5.2468 H   0  0  0  0  0  0
  -15.9435   -3.8970    7.9145 H   0  0  0  0  0  0
  -16.3974   -5.2303    6.7997 H   0  0  0  0  0  0
  -14.1227   -5.0953    8.8301 H   0  0  0  0  0  0
  -15.1945   -6.4786    8.4245 H   0  0  0  0  0  0
  -13.9025   -7.0702    6.5081 H   0  0  0  0  0  0
  -12.5920   -6.1916    7.3667 H   0  0  0  0  0  0
  -14.6606   -1.8369    4.8801 H   0  0  0  0  0  0
  -12.6143   -0.6669    6.8264 H   0  0  0  0  0  0
  -11.9070    0.7173    5.0910 H   0  0  0  0  0  0
  -12.4332   -0.7552    4.2071 H   0  0  0  0  0  0
  -13.3974    0.6388    2.8290 H   0  0  0  0  0  0
  -14.6589    0.8499    4.0902 H   0  0  0  0  0  0
  -13.4010    2.7912    5.0020 H   0  0  0  0  0  0
  -12.1744    2.5910    3.7051 H   0  0  0  0  0  0
  -13.6697    3.5220    2.0760 H   0  0  0  0  0  0
  -15.3323    2.7101    5.2504 H   0  0  0  0  0  0
  -16.8468    3.7745    4.7995 H   0  0  0  0  0  0
  -15.4359    4.8146    1.6164 H   0  0  0  0  0  0
  -14.1053   -0.9179    8.4040 H   0  0  0  0  0  0
  -15.0432    1.8476    9.0377 H   0  0  0  0  0  0
  -17.0886   -0.3768    8.6987 H   0  0  0  0  0  0
  -17.3611    0.9683    9.8575 H   0  0  0  0  0  0
  -16.9522    2.5463    7.8635 H   0  0  0  0  0  0
  -17.1216    1.0864    6.8307 H   0  0  0  0  0  0
  -19.2738    2.1729    6.9485 H   0  0  0  0  0  0
  -19.3663    0.6724    7.9316 H   0  0  0  0  0  0
  -18.5272    3.1030    9.5144 H   0  0  0  0  0  0
  -21.3352    1.2003    8.1129 H   0  0  0  0  0  0
  -22.4998    1.7912    9.5002 H   0  0  0  0  0  0
  -19.8858    3.7260   11.1419 H   0  0  0  0  0  0
  -13.9230    2.0323   10.8550 H   0  0  0  0  0  0
  -13.5383   -0.3984   12.5821 H   0  0  0  0  0  0
  -12.6315    2.5274   12.8885 H   0  0  0  0  0  0
  -12.1197    1.1853   13.9672 H   0  0  0  0  0  0
  -11.5493    1.4273   10.9736 H   0  0  0  0  0  0
  -10.3821    1.6697   12.3172 H   0  0  0  0  0  0
  -11.6857   -0.9257   11.3983 H   0  0  0  0  0  0
   -9.9439   -0.4868   11.4137 H   0  0  0  0  0  0
  -11.5404   -1.6235   13.6638 H   0  0  0  0  0  0
   -8.7773    0.5657   12.6573 H   0  0  0  0  0  0
  -10.4996   -1.7936   15.6698 H   0  0  0  0  0  0
   -8.8438   -0.9016   15.9742 H   0  0  0  0  0  0
  -15.3600    2.7535   12.6080 H   0  0  0  0  0  0
  -16.3942    2.3441   14.1549 H   0  0  0  0  0  0
  1  2  2  0  0  0
  1  3  1  0  0  0
  1  4  1  0  0  0
  3 87  1  0  0  0
  3 88  1  0  0  0
  3 89  1  0  0  0
  4  5  1  0  0  0
  4 90  1  0  0  0
  5  6  1  0  0  0
  5  8  1  0  0  0
  5 91  1  0  0  0
  6  7  2  0  0  0
  6 11  1  0  0  0
  8  9  1  0  0  0
  8 10  1  0  0  0
  8 92  1  0  0  0
  9 93  1  0  0  0
  9 94  1  0  0  0
  9 95  1  0  0  0
 10 96  1  0  0  0
 10 97  1  0  0  0
 10 98  1  0  0  0
 11 12  1  0  0  0
 11 17  1  0  0  0
 12 13  1  0  0  0
 12 15  1  0  0  0
 12 99  1  0  0  0
 13 14  2  0  0  0
 13 18  1  0  0  0
 15 16  1  0  0  0
 15100  1  0  0  0
 15101  1  0  0  0
 16 17  1  0  0  0
 16102  1  0  0  0
 16103  1  0  0  0
 17104  1  0  0  0
 17105  1  0  0  0
 18 19  1  0  0  0
 18 24  1  0  0  0
 19 20  1  0  0  0
 19 22  1  0  0  0
 19106  1  0  0  0
 20 21  2  0  0  0
 20 25  1  0  0  0
 22 23  1  0  0  0
 22107  1  0  0  0
 22108  1  0  0  0
 23 24  1  0  0  0
 23109  1  0  0  0
 23110  1  0  0  0
 24111  1  0  0  0
 24112  1  0  0  0
 25 26  1  0  0  0
 25 31  1  0  0  0
 26 27  1  0  0  0
 26 29  1  0  0  0
 26113  1  0  0  0
 27 28  2  0  0  0
 27 32  1  0  0  0
 29 30  1  0  0  0
 29114  1  0  0  0
 29115  1  0  0  0
 30 31  1  0  0  0
 30116  1  0  0  0
 30117  1  0  0  0
 31118  1  0  0  0
 31119  1  0  0  0
 32 33  1  0  0  0
 32120  1  0  0  0
 33 34  1  0  0  0
 33 36  1  0  0  0
 33121  1  0  0  0
 34 35  2  0  0  0
 34 39  1  0  0  0
 36 37  1  0  0  0
 36 38  1  0  0  0
 36122  1  0  0  0
 37123  1  0  0  0
 37124  1  0  0  0
 37125  1  0  0  0
 38126  1  0  0  0
 38127  1  0  0  0
 38128  1  0  0  0
 39 40  1  0  0  0
 39 45  1  0  0  0
 40 41  1  0  0  0
 40 43  1  0  0  0
 40129  1  0  0  0
 41 42  2  0  0  0
 41 46  1  0  0  0
 43 44  1  0  0  0
 43130  1  0  0  0
 43131  1  0  0  0
 44 45  1  0  0  0
 44132  1  0  0  0
 44133  1  0  0  0
 45134  1  0  0  0
 45135  1  0  0  0
 46 47  1  0  0  0
 46 52  1  0  0  0
 47 48  1  0  0  0
 47 50  1  0  0  0
 47136  1  0  0  0
 48 49  2  0  0  0
 48 53  1  0  0  0
 50 51  1  0  0  0
 50137  1  0  0  0
 50138  1  0  0  0
 51 52  1  0  0  0
 51139  1  0  0  0
 51140  1  0  0  0
 52141  1  0  0  0
 52142  1  0  0  0
 53 54  1  0  0  0
 53143  1  0  0  0
 54 55  1  0  0  0
 54 57  1  0  0  0
 54144  1  0  0  0
 55 56  2  0  0  0
 55 64  1  0  0  0
 57 58  1  0  0  0
 57145  1  0  0  0
 57146  1  0  0  0
 58 59  1  0  0  0
 58147  1  0  0  0
 58148  1  0  0  0
 59 60  1  0  0  0
 59149  1  0  0  0
 59150  1  0  0  0
 60 61  1  0  0  0
 60151  1  0  0  0
 61 62  1  0  0  0
 61 63  2  0  0  0
 62152  1  0  0  0
 62153  1  0  0  0
 63154  1  0  0  0
 64 65  1  0  0  0
 64155  1  0  0  0
 65 66  1  0  0  0
 65 68  1  0  0  0
 65156  1  0  0  0
 66 67  2  0  0  0
 66 75  1  0  0  0
 68 69  1  0  0  0
 68157  1  0  0  0
 68158  1  0  0  0
 69 70  1  0  0  0
 69159  1  0  0  0
 69160  1  0  0  0
 70 71  1  0  0  0
 70161  1  0  0  0
 70162  1  0  0  0
 71 72  1  0  0  0
 71163  1  0  0  0
 72 73  1  0  0  0
 72 74  2  0  0  0
 73164  1  0  0  0
 73165  1  0  0  0
 74166  1  0  0  0
 75 76  1  0  0  0
 75167  1  0  0  0
 76 77  1  0  0  0
 76 79  1  0  0  0
 76168  1  0  0  0
 77 78  2  0  0  0
 77 86  1  0  0  0
 79 80  1  0  0  0
 79169  1  0  0  0
 79170  1  0  0  0
 80 81  1  0  0  0
 80171  1  0  0  0
 80172  1  0  0  0
 81 82  1  0  0  0
 81173  1  0  0  0
 81174  1  0  0  0
 82 83  1  0  0  0
 82175  1  0  0  0
 83 84  2  0  0  0
 83 85  1  0  0  0
 84176  1  0  0  0
 85177  1  0  0  0
 85178  1  0  0  0
 86179  1  0  0  0
 86180  1  0  0  0
M  END
> <s_m_source_file>
../1gbq_ligand.sdf

> <i_m_source_file_index>
1

> <s_epik_input>
Tz1DKFtDSDNdKVtOSF1bQ0BASF0oW0NIXShbQ0gzXSlbQ0gzXSlDKD1PKU4xW0NAQEhdKFtDSDJdW0NIMl1bQ0gyXTEpQyg9TylOMltDQEBIXShbQ0gyXVtDSDJdW0NIMl0yKUMoPU8pTjNbQ0BASF0oW0NIMl1bQ0gyXVtDSDJdMylDKD1PKVtOSF1bQ0BASF0oW0NIXShbQ0gzXSlbQ0gzXSlDKD1PKU40W0NAQEhdKFtDSDJdW0NIMl1bQ0gyXTQpQyg9TylONVtDQEBIXShbQ0gyXVtDSDJdW0NIMl01KUMoPU8pW05IXVtDQEBIXShbQ0gyXVtDSDJdW0NIMl1bTkhdL0MoW05IMl0pPU5cW0hdKUMoPU8pW05IXVtDQEBIXShbQ0gyXVtDSDJdW0NIMl1bTkhdL0MoW05IMl0pPU5cW0hdKUMoPU8pW05IXVtDQEhdKEMoPU8pW05IMl0pW0NIMl1bQ0gyXVtDSDJdW05IXS9DKD1OXFtIXSlbTkgyXQ==

> <s_epik_cmdline>
J2VwaWtfYXBwJywgJy1pbWFlJywgJ2xpZ2FuZF9wcm8ubWFlJywgJy1vbWFlJywgJ2xpZ2FuZF9wcmVwLm1hZScsICctbXMnLCAnMScsICctcGgnLCAnNycsICctcGh0JywgJzAuNScsICctbnQn

> <s_epik_pKa_notes>
Molecule size exceeds maximum supported for generating protonation states

> <s_epik_Chemistry_Notes>
This compound has an imine and may undergo hydrolysis.

$$$$
