1gbt_ligand
                    3D
 Schrodinger Suite 2020-3.
 22 22  0  0  1  0            999 V2000
   44.7730    0.3020   29.0190 C   0  0  0  0  0  0
   45.4450    0.0820   30.1080 O   0  0  0  0  0  0
   44.4010   -0.9100   28.1860 C   0  0  0  0  0  0
   44.0110   -0.7260   26.8470 C   0  0  0  0  0  0
   44.4640   -2.2210   28.6830 C   0  0  0  0  0  0
   43.7310   -1.8150   26.0040 C   0  0  0  0  0  0
   44.1590   -3.2850   27.8510 C   0  0  0  0  0  0
   43.6920   -3.0930   26.5570 C   0  0  0  0  0  0
   43.3380   -4.2160   25.8170 N   0  0  0  0  0  0
   43.7510   -4.4610   24.5790 C   0  0  0  0  0  0
   44.5300   -3.6370   23.8900 N   0  0  0  0  0  0
   43.3590   -5.5750   23.9830 N   0  3  0  0  0  0
   44.5004    1.3303   28.7392 H   0  0  0  0  0  0
   43.9238    0.2867   26.4534 H   0  0  0  0  0  0
   44.7516   -2.4008   29.7189 H   0  0  0  0  0  0
   43.5483   -1.6629   24.9402 H   0  0  0  0  0  0
   44.2890   -4.3017   28.2219 H   0  0  0  0  0  0
   42.6722   -4.9750   26.2537 H   0  0  0  0  0  0
   44.8792   -2.6994   24.3470 H   0  0  0  0  0  0
   44.8266   -3.8915   22.8618 H   0  0  0  0  0  0
   42.7125   -6.2866   24.5175 H   0  0  0  0  0  0
   43.6796   -5.7898   22.9529 H   0  0  0  0  0  0
  1  2  2  0  0  0
  1  3  1  0  0  0
  1 13  1  0  0  0
  3  4  2  0  0  0
  3  5  1  0  0  0
  4  6  1  0  0  0
  4 14  1  0  0  0
  5  7  2  0  0  0
  5 15  1  0  0  0
  6  8  2  0  0  0
  6 16  1  0  0  0
  7  8  1  0  0  0
  7 17  1  0  0  0
  8  9  1  0  0  0
  9 10  1  0  0  0
  9 18  1  0  0  0
 10 11  1  0  0  0
 10 12  2  0  0  0
 11 19  1  0  0  0
 11 20  1  0  0  0
 12 21  1  0  0  0
 12 22  1  0  0  0
M  CHG  1  12   1
M  END
> <s_m_source_file>
../1gbt_ligand.sdf

> <i_m_source_file_index>
1

> <s_epik_input>
Tz1bQ0hdYzFbY0hdW2NIXWMoW2NIXVtjSF0xKVtOSF0vQyhbTkgyXSk9TlxbSF0=

> <s_epik_cmdline>
J2VwaWtfYXBwJywgJy1pbWFlJywgJ2xpZ2FuZF9wcm8ubWFlJywgJy1vbWFlJywgJ2xpZ2FuZF9wcmVwLm1hZScsICctbXMnLCAnMScsICctcGgnLCAnNycsICctcGh0JywgJzAuNScsICctbnQn

> <r_lp_tautomer_probability>
1

> <r_epik_Ionization_Penalty>
  0.0004

> <r_epik_Ionization_Penalty_Charging>
  0.0004

> <r_epik_Ionization_Penalty_Neutral>
  0.0000

> <r_epik_State_Penalty>
 -0.0000

> <r_epik_Charging_Adjusted_Penalty>
0.000425286834864979

> <i_epik_Tot_Q>
1

> <i_epik_Tot_abs_Q>
1

> <s_epik_Chemistry_Notes>
This compound has an imine and may undergo hydrolysis.

$$$$
