1gcz_ligand
                    3D
 Schrodinger Suite 2020-3.
 27 28  0  0  1  0            999 V2000
   64.4220   22.9560   19.2130 C   0  0  0  0  0  0
   63.3860   23.3810   18.2120 C   0  0  0  0  0  0
   61.3510   24.5010   20.7240 O   0  0  0  0  0  0
   62.0570   23.4360   18.8690 O   0  0  0  0  0  0
   61.0580   29.4880   19.1140 C   0  0  0  0  0  0
   61.1960   26.9880   19.4160 C   0  0  0  0  0  0
   60.1960   29.0700   16.3370 C   0  0  0  0  0  0
   60.3600   26.7030   16.7360 O   0  0  0  0  0  0
   60.9070   28.1890   18.5730 C   0  0  0  0  0  0
   60.4860   28.0060   17.2200 C   0  0  0  0  0  0
   60.6760   25.6360   17.4340 C   0  0  0  0  0  0
   61.5290   24.5010   19.5440 C   0  0  0  0  0  0
   60.1240   31.4520   16.1840 O   0  0  0  0  0  0
   60.5840   24.5910   16.9260 O   0  0  0  0  0  0
   60.7800   30.5970   18.2630 C   0  0  0  0  0  0
   61.1380   25.7560   18.8230 C   0  0  0  0  0  0
   60.3670   30.3620   16.9320 C   0  0  0  0  0  0
   65.4074   22.9152   18.7259 H   0  0  0  0  0  0
   64.1657   21.9611   19.6060 H   0  0  0  0  0  0
   64.4515   23.6805   20.0402 H   0  0  0  0  0  0
   63.6423   24.3759   17.8190 H   0  0  0  0  0  0
   63.3565   22.6565   17.3848 H   0  0  0  0  0  0
   61.3760   29.6353   20.1461 H   0  0  0  0  0  0
   61.4456   27.0909   20.4720 H   0  0  0  0  0  0
   59.8743   28.9227   15.3060 H   0  0  0  0  0  0
   59.7991   31.3407   15.1390 H   0  0  0  0  0  0
   60.8849   31.6162   18.6350 H   0  0  0  0  0  0
  1  2  1  0  0  0
  1 18  1  0  0  0
  1 19  1  0  0  0
  1 20  1  0  0  0
  2  4  1  0  0  0
  2 21  1  0  0  0
  2 22  1  0  0  0
  3 12  2  0  0  0
  4 12  1  0  0  0
  5  9  2  0  0  0
  5 15  1  0  0  0
  5 23  1  0  0  0
  6 16  2  0  0  0
  6  9  1  0  0  0
  6 24  1  0  0  0
  7 10  2  0  0  0
  7 17  1  0  0  0
  7 25  1  0  0  0
  8 11  1  0  0  0
  8 10  1  0  0  0
  9 10  1  0  0  0
 11 16  1  0  0  0
 11 14  2  0  0  0
 12 16  1  0  0  0
 13 17  1  0  0  0
 13 26  1  0  0  0
 15 17  2  0  0  0
 15 27  1  0  0  0
M  END
> <s_m_source_file>
../1gcz_ligand.sdf

> <i_m_source_file_index>
1

> <s_epik_input>
W0NIM11bQ0gyXU9DKD1PKWMoW2NIXTEpYyg9TylvYyhjMTIpW2NIXWMoW09IXSlbY0hdW2NIXTI=

> <s_epik_cmdline>
J2VwaWtfYXBwJywgJy1pbWFlJywgJ2xpZ2FuZF9wcm8ubWFlJywgJy1vbWFlJywgJ2xpZ2FuZF9wcmVwLm1hZScsICctbXMnLCAnMScsICctcGgnLCAnNycsICctcGh0JywgJzAuNScsICctbnQn

> <r_epik_Ionization_Penalty>
  0.0591

> <r_epik_Ionization_Penalty_Charging>
  0.0000

> <r_epik_Ionization_Penalty_Neutral>
  0.0591

> <r_epik_State_Penalty>
  0.0512

> <r_epik_Charging_Adjusted_Penalty>
0.051191753960194

> <i_epik_Tot_Q>
0

> <i_epik_Tot_abs_Q>
0

> <s_epik_Chemistry_Notes>
This compound has an ester and may undergo hydrolysis at high or low pH.

$$$$
