1gfw_ligand
                    3D
 Schrodinger Suite 2020-3.
 50 53  0  0  1  0            999 V2000
   37.8320   31.9580   27.6090 S   0  0  0  0  0  0
   34.8990   36.0180   31.0490 N   0  0  0  0  0  0
   39.5730   32.0690   27.8470 N   0  0  1  0  0  0
   41.0500   32.5810   25.0020 O   0  0  0  0  0  0
   33.6150   35.3330   32.8950 O   0  0  0  0  0  0
   34.1410   32.7110   31.6750 O   0  0  0  0  0  0
   37.4530   30.6450   28.0400 O   0  0  0  0  0  0
   37.7590   32.3160   26.2430 O   0  0  0  0  0  0
   34.4470   35.1090   32.0080 C   0  0  0  0  0  0
   35.1120   33.7590   31.8460 C   0  0  2  0  0  0
   36.5000   32.9310   29.9060 C   0  0  0  0  0  0
   36.9700   33.2280   28.5810 C   0  0  0  0  0  0
   36.7770   34.5390   28.0230 C   0  0  0  0  0  0
   36.1200   35.5620   28.7630 C   0  0  0  0  0  0
   35.6390   35.2460   30.0630 C   0  0  0  0  0  0
   35.8110   33.9710   30.6060 C   0  0  0  0  0  0
   40.2580   33.3410   27.4860 C   0  0  1  0  0  0
   40.9650   33.9310   28.7030 C   0  0  0  0  0  0
   40.6350   32.9930   29.8420 C   0  0  0  0  0  0
   40.0610   31.7480   29.1930 C   0  0  0  0  0  0
   41.2910   33.2390   26.2930 C   0  0  0  0  0  0
   39.8930   32.8910   24.2330 C   0  0  0  0  0  0
   39.5470   34.2470   23.9090 C   0  0  0  0  0  0
   38.4070   34.5440   23.1000 C   0  0  0  0  0  0
   37.6050   33.4880   22.6070 C   0  0  0  0  0  0
   37.9400   32.1280   22.9190 C   0  0  0  0  0  0
   39.0770   31.8330   23.7280 C   0  0  0  0  0  0
   34.7320   37.4700   31.0830 C   0  0  0  0  0  0
   33.5060   32.4064   32.5199 H   0  0  0  0  0  0
   35.7390   33.4150   32.6818 H   0  0  0  0  0  0
   36.6619   31.9530   30.3593 H   0  0  0  0  0  0
   37.1395   34.7528   27.0175 H   0  0  0  0  0  0
   35.9893   36.5600   28.3446 H   0  0  0  0  0  0
   39.4107   33.9707   27.1768 H   0  0  0  0  0  0
   42.0477   33.9733   28.5133 H   0  0  0  0  0  0
   40.5857   34.9463   28.8910 H   0  0  0  0  0  0
   41.5513   32.7645   30.4060 H   0  0  0  0  0  0
   39.9028   33.4704   30.5098 H   0  0  0  0  0  0
   39.2283   31.3701   29.8044 H   0  0  0  0  0  0
   40.8446   30.9790   29.1252 H   0  0  0  0  0  0
   42.1414   32.7568   26.7972 H   0  0  0  0  0  0
   41.5187   34.3021   26.1259 H   0  0  0  0  0  0
   40.1639   35.0626   24.2863 H   0  0  0  0  0  0
   38.1568   35.5783   22.8641 H   0  0  0  0  0  0
   36.7332   33.7073   21.9906 H   0  0  0  0  0  0
   37.3222   31.3160   22.5356 H   0  0  0  0  0  0
   39.3239   30.7973   23.9615 H   0  0  0  0  0  0
   34.1191   37.7483   31.9530 H   0  0  0  0  0  0
   34.2330   37.8034   30.1611 H   0  0  0  0  0  0
   35.7183   37.9508   31.1605 H   0  0  0  0  0  0
  1  3  1  0  0  0
  1  7  2  0  0  0
  1  8  2  0  0  0
  1 12  1  0  0  0
  2  9  1  0  0  0
  2 15  1  0  0  0
  2 28  1  0  0  0
  3 17  1  0  0  0
  3 20  1  0  0  0
  4 21  1  0  0  0
  4 22  1  0  0  0
  5  9  2  0  0  0
  6 10  1  0  0  0
  6 29  1  0  0  0
  9 10  1  0  0  0
 10 16  1  0  0  0
 10 30  1  0  0  0
 11 12  2  0  0  0
 11 16  1  0  0  0
 11 31  1  0  0  0
 12 13  1  0  0  0
 13 14  2  0  0  0
 13 32  1  0  0  0
 14 15  1  0  0  0
 14 33  1  0  0  0
 15 16  2  0  0  0
 17 18  1  0  0  0
 17 21  1  0  0  0
 17 34  1  0  0  0
 18 19  1  0  0  0
 18 35  1  0  0  0
 18 36  1  0  0  0
 19 20  1  0  0  0
 19 37  1  0  0  0
 19 38  1  0  0  0
 20 39  1  0  0  0
 20 40  1  0  0  0
 21 41  1  0  0  0
 21 42  1  0  0  0
 22 23  2  0  0  0
 22 27  1  0  0  0
 23 24  1  0  0  0
 23 43  1  0  0  0
 24 25  2  0  0  0
 24 44  1  0  0  0
 25 26  1  0  0  0
 25 45  1  0  0  0
 26 27  2  0  0  0
 26 46  1  0  0  0
 27 47  1  0  0  0
 28 48  1  0  0  0
 28 49  1  0  0  0
 28 50  1  0  0  0
M  END
> <s_m_source_file>
../1gfw_ligand.sdf

> <i_m_source_file_index>
1

> <s_epik_input>
W0NIM11OMUMoPU8pW0NAQEhdKFtPSF0pYyhjMTIpW2NIXWMoW2NIXVtjSF0yKVMoPU8pKD1PKU4zW0NAQEhdKFtDSDJdW0NIMl1bQ0gyXTMpW0NIMl1PYzRbY0hdW2NIXVtjSF1bY0hdW2NIXTQ=

> <s_epik_cmdline>
J2VwaWtfYXBwJywgJy1pbWFlJywgJ2xpZ2FuZF9wcm8ubWFlJywgJy1vbWFlJywgJ2xpZ2FuZF9wcmVwLm1hZScsICctbXMnLCAnMScsICctcGgnLCAnNycsICctcGh0JywgJzAuNScsICctbnQn

> <r_lp_tautomer_probability>
1

> <r_epik_Ionization_Penalty>
  0.0000

> <r_epik_Ionization_Penalty_Charging>
  0.0000

> <r_epik_Ionization_Penalty_Neutral>
  0.0000

> <r_epik_State_Penalty>
 -0.0000

> <r_epik_Charging_Adjusted_Penalty>
0

> <i_epik_Tot_Q>
0

> <i_epik_Tot_abs_Q>
0

$$$$
