1gfz_ligand
                    3D
 Schrodinger Suite 2020-3.
 24 25  0  0  1  0            999 V2000
   38.9840   37.0340   29.9650 N   0  0  0  0  0  0
   38.4900   35.8800   29.0750 C   0  0  0  0  0  0
   39.9540   37.9900   29.3080 C   0  0  0  0  0  0
   38.6080   37.2070   31.3250 C   0  0  0  0  0  0
   37.6350   35.0650   29.7120 N   0  0  0  0  0  0
   38.8880   35.8200   27.9430 O   0  0  0  0  0  0
   37.0800   33.9050   28.9680 C   0  0  0  0  0  0
   37.2180   35.2060   31.0620 C   0  0  0  0  0  0
   37.6480   36.2440   31.8440 C   0  0  0  0  0  0
   36.3750   34.4240   31.7000 N   0  0  0  0  0  0
   39.0560   38.2000   32.0060 O   0  0  0  0  0  0
   37.0550   36.0650   33.0970 N   0  0  0  0  0  0
   36.2960   34.9680   32.9260 C   0  0  0  0  0  0
   37.2010   36.9290   34.3060 C   0  0  0  0  0  0
   40.1150   37.6881   28.2626 H   0  0  0  0  0  0
   40.9123   37.9684   29.8476 H   0  0  0  0  0  0
   39.5403   39.0089   29.3359 H   0  0  0  0  0  0
   37.4749   33.9050   27.9413 H   0  0  0  0  0  0
   35.9829   33.9790   28.9389 H   0  0  0  0  0  0
   37.3713   32.9722   29.4729 H   0  0  0  0  0  0
   35.6691   34.5547   33.7161 H   0  0  0  0  0  0
   37.9083   37.7436   34.0913 H   0  0  0  0  0  0
   37.5799   36.3258   35.1442 H   0  0  0  0  0  0
   36.2223   37.3541   34.5732 H   0  0  0  0  0  0
  1  2  1  0  0  0
  1  3  1  0  0  0
  1  4  1  0  0  0
  2  5  1  0  0  0
  2  6  2  0  0  0
  3 15  1  0  0  0
  3 16  1  0  0  0
  3 17  1  0  0  0
  4  9  1  0  0  0
  4 11  2  0  0  0
  5  7  1  0  0  0
  5  8  1  0  0  0
  7 18  1  0  0  0
  7 19  1  0  0  0
  7 20  1  0  0  0
  8  9  2  0  0  0
  8 10  1  0  0  0
  9 12  1  0  0  0
 10 13  2  0  0  0
 12 13  1  0  0  0
 12 14  1  0  0  0
 13 21  1  0  0  0
 14 22  1  0  0  0
 14 23  1  0  0  0
 14 24  1  0  0  0
M  END
> <s_m_source_file>
../1gfz_ligand.sdf

> <i_m_source_file_index>
1

> <s_epik_input>
W0NIM11uMWMoPU8pbihbQ0gzXSljKD1PKWMoYzEyKW4oW2NIXW4yKVtDSDNd

> <s_epik_cmdline>
J2VwaWtfYXBwJywgJy1pbWFlJywgJ2xpZ2FuZF9wcm8ubWFlJywgJy1vbWFlJywgJ2xpZ2FuZF9wcmVwLm1hZScsICctbXMnLCAnMScsICctcGgnLCAnNycsICctcGh0JywgJzAuNScsICctbnQn

> <r_lp_tautomer_probability>
1

> <r_epik_Ionization_Penalty>
  0.0000

> <r_epik_Ionization_Penalty_Charging>
  0.0000

> <r_epik_Ionization_Penalty_Neutral>
  0.0000

> <r_epik_State_Penalty>
 -0.0000

> <r_epik_Charging_Adjusted_Penalty>
3.77584595045307e-09

> <i_epik_Tot_Q>
0

> <i_epik_Tot_abs_Q>
0

$$$$
