1ggd_ligand
                    3D
 Schrodinger Suite 2020-3.
 48 48  0  0  1  0            999 V2000
   31.5080    2.0840   42.0320 C   0  0  0  0  0  0
   30.6660    2.9800   42.1110 O   0  0  0  0  0  0
   32.1850    1.5580   43.2890 C   0  0  0  0  0  0
   31.8720    1.5300   40.8810 N   0  0  0  0  0  0
   31.3140    1.9880   39.6180 C   0  0  1  0  0  0
   32.2020    1.5480   38.4560 C   0  0  0  0  0  0
   33.5960    2.1670   38.4130 C   0  0  0  0  0  0
   34.0640    2.2360   36.9660 C   0  0  0  0  0  0
   33.5790    3.5520   39.0390 C   0  0  0  0  0  0
   29.9050    1.4630   39.4010 C   0  0  0  0  0  0
   29.6170    0.2960   39.6390 O   0  0  0  0  0  0
   29.0250    2.3360   38.9340 N   0  0  0  0  0  0
   27.6430    1.9550   38.6950 C   0  0  1  0  0  0
   26.6950    3.0600   39.1890 C   0  0  0  0  0  0
   26.6600    3.2170   40.7010 C   0  0  0  0  0  0
   27.0500    2.1730   41.5310 C   0  0  0  0  0  0
   26.2360    4.4090   41.2900 C   0  0  0  0  0  0
   27.0210    2.3050   42.9230 C   0  0  0  0  0  0
   26.2010    4.5570   42.6830 C   0  0  0  0  0  0
   26.5950    3.4970   43.5030 C   0  0  0  0  0  0
   27.4750    1.7290   37.2060 C   0  0  0  0  0  0
   26.3130    0.9760   36.9940 O   0  0  0  0  0  0
   31.7975    2.0961   44.1667 H   0  0  0  0  0  0
   33.2712    1.7142   43.2132 H   0  0  0  0  0  0
   31.9757    0.4834   43.3959 H   0  0  0  0  0  0
   32.6078    0.7124   40.8929 H   0  0  0  0  0  0
   31.2855    3.0840   39.7073 H   0  0  0  0  0  0
   32.3509    0.4590   38.5003 H   0  0  0  0  0  0
   31.7187    1.8136   37.5042 H   0  0  0  0  0  0
   34.2967    1.5466   38.9911 H   0  0  0  0  0  0
   34.0686    1.2246   36.5335 H   0  0  0  0  0  0
   35.0803    2.6553   36.9289 H   0  0  0  0  0  0
   33.3813    2.8780   36.3901 H   0  0  0  0  0  0
   33.2384    3.4786   40.0824 H   0  0  0  0  0  0
   32.8936    4.2012   38.4744 H   0  0  0  0  0  0
   34.5926    3.9785   39.0133 H   0  0  0  0  0  0
   29.3557    3.3644   38.7267 H   0  0  0  0  0  0
   27.4471    1.0268   39.2519 H   0  0  0  0  0  0
   27.0096    4.0273   38.7701 H   0  0  0  0  0  0
   25.6687    2.8356   38.8628 H   0  0  0  0  0  0
   27.3845    1.2344   41.0892 H   0  0  0  0  0  0
   25.9266    5.2394   40.6554 H   0  0  0  0  0  0
   27.3324    1.4733   43.5550 H   0  0  0  0  0  0
   25.8675    5.4959   43.1251 H   0  0  0  0  0  0
   26.5692    3.6021   44.5876 H   0  0  0  0  0  0
   27.3896    2.6995   36.6952 H   0  0  0  0  0  0
   28.3485    1.1854   36.8168 H   0  0  0  0  0  0
   26.0129    0.7038   35.9713 H   0  0  0  0  0  0
  1  2  2  0  0  0
  1  3  1  0  0  0
  1  4  1  0  0  0
  3 23  1  0  0  0
  3 24  1  0  0  0
  3 25  1  0  0  0
  4  5  1  0  0  0
  4 26  1  0  0  0
  5  6  1  0  0  0
  5 10  1  0  0  0
  5 27  1  0  0  0
  6  7  1  0  0  0
  6 28  1  0  0  0
  6 29  1  0  0  0
  7  8  1  0  0  0
  7  9  1  0  0  0
  7 30  1  0  0  0
  8 31  1  0  0  0
  8 32  1  0  0  0
  8 33  1  0  0  0
  9 34  1  0  0  0
  9 35  1  0  0  0
  9 36  1  0  0  0
 10 11  2  0  0  0
 10 12  1  0  0  0
 12 13  1  0  0  0
 12 37  1  0  0  0
 13 14  1  0  0  0
 13 21  1  0  0  0
 13 38  1  0  0  0
 14 15  1  0  0  0
 14 39  1  0  0  0
 14 40  1  0  0  0
 15 16  2  0  0  0
 15 17  1  0  0  0
 16 18  1  0  0  0
 16 41  1  0  0  0
 17 19  2  0  0  0
 17 42  1  0  0  0
 18 20  2  0  0  0
 18 43  1  0  0  0
 19 20  1  0  0  0
 19 44  1  0  0  0
 20 45  1  0  0  0
 21 22  1  0  0  0
 21 46  1  0  0  0
 21 47  1  0  0  0
 22 48  1  0  0  0
M  END
> <s_m_source_file>
../1ggd_ligand.sdf

> <i_m_source_file_index>
1

> <s_epik_input>
Tz1DKFtDSDNdKVtOSF1bQ0BASF0oW0NIMl1bQ0hdKFtDSDNdKVtDSDNdKUMoPU8pW05IXVtDQEhdKFtDSDJdW09IXSlbQ0gyXWMxW2NIXVtjSF1bY0hdW2NIXVtjSF0x

> <s_epik_cmdline>
J2VwaWtfYXBwJywgJy1pbWFlJywgJ2xpZ2FuZF9wcm8ubWFlJywgJy1vbWFlJywgJ2xpZ2FuZF9wcmVwLm1hZScsICctbXMnLCAnMScsICctcGgnLCAnNycsICctcGh0JywgJzAuNScsICctbnQn

> <r_lp_tautomer_probability>
1

> <r_epik_Ionization_Penalty>
  0.0000

> <r_epik_Ionization_Penalty_Charging>
  0.0000

> <r_epik_Ionization_Penalty_Neutral>
  0.0000

> <r_epik_State_Penalty>
 -0.0000

> <r_epik_Charging_Adjusted_Penalty>
0

> <i_epik_Tot_Q>
0

> <i_epik_Tot_abs_Q>
0

$$$$
