1ggn_ligand
                    3D
 Schrodinger Suite 2020-3.
 25 25  0  0  1  0            999 V2000
   24.6320   25.6900   30.2140 N   0  3  0  0  0  0
   23.5270   24.9430   30.4570 C   0  0  0  0  0  0
   22.5530   25.4660   31.5080 C   0  0  0  0  0  0
   23.3380   23.7360   29.7930 C   0  0  0  0  0  0
   22.1620   23.0090   29.9720 O   0  5  0  0  0  0
   24.2910   23.3140   28.8620 C   0  0  0  0  0  0
   23.9960   22.0190   28.0180 C   0  0  0  0  0  0
   25.4310   24.1170   28.6270 C   0  0  0  0  0  0
   25.5790   25.2880   29.3280 C   0  0  0  0  0  0
   26.4410   23.8520   27.4590 C   0  0  0  0  0  0
   26.0030   24.6310   26.3340 O   0  0  0  0  0  0
   26.9870   24.7950   25.0860 P   0  0  0  0  0  0
   26.0700   25.3540   24.0790 O   0  0  0  0  0  0
   28.1100   25.9100   25.5490 O   0  5  0  0  0  0
   27.7660   23.5030   24.8520 O   0  5  0  0  0  0
   22.9111   26.4331   31.8907 H   0  0  0  0  0  0
   22.4863   24.7457   32.3367 H   0  0  0  0  0  0
   21.5594   25.5963   31.0545 H   0  0  0  0  0  0
   23.0631   21.5556   28.3715 H   0  0  0  0  0  0
   24.8265   21.3074   28.1359 H   0  0  0  0  0  0
   23.8922   22.2888   26.9567 H   0  0  0  0  0  0
   26.4662   25.9016   29.1716 H   0  0  0  0  0  0
   27.4508   24.1568   27.7712 H   0  0  0  0  0  0
   26.4418   22.7803   27.2109 H   0  0  0  0  0  0
   24.7767   26.6453   30.7398 H   0  0  0  0  0  0
  1  2  2  0  0  0
  1  9  1  0  0  0
  1 25  1  0  0  0
  2  3  1  0  0  0
  2  4  1  0  0  0
  3 16  1  0  0  0
  3 17  1  0  0  0
  3 18  1  0  0  0
  4  5  1  0  0  0
  4  6  2  0  0  0
  6  7  1  0  0  0
  6  8  1  0  0  0
  7 19  1  0  0  0
  7 20  1  0  0  0
  7 21  1  0  0  0
  8  9  2  0  0  0
  8 10  1  0  0  0
  9 22  1  0  0  0
 10 11  1  0  0  0
 10 23  1  0  0  0
 10 24  1  0  0  0
 11 12  1  0  0  0
 12 13  2  0  0  0
 12 14  1  0  0  0
 12 15  1  0  0  0
M  CHG  4   1   1   5  -1  14  -1  15  -1
M  END
> <s_m_source_file>
../1ggn_ligand.sdf

> <i_m_source_file_index>
1

> <s_epik_input>
W0NIM11jMW5bY0hdYyhjKFtDSDNdKWMxW09IXSlbQ0gyXU9QKD1PKShbT0hdKVtPSF0=

> <s_epik_cmdline>
J2VwaWtfYXBwJywgJy1pbWFlJywgJ2xpZ2FuZF9wcm8ubWFlJywgJy1vbWFlJywgJ2xpZ2FuZF9wcmVwLm1hZScsICctbXMnLCAnMScsICctcGgnLCAnNycsICctcGh0JywgJzAuNScsICctbnQn

> <r_lp_tautomer_probability>
1

> <r_epik_Ionization_Penalty>
  0.1044

> <r_epik_Ionization_Penalty_Charging>
  0.1044

> <r_epik_Ionization_Penalty_Neutral>
  0.0000

> <r_epik_State_Penalty>
 -0.0000

> <r_epik_Charging_Adjusted_Penalty>
0.104416983280655

> <i_epik_Tot_Q>
-2

> <i_epik_Tot_abs_Q>
4

$$$$
