1ghw_ligand
                    3D
 Schrodinger Suite 2020-3.
 32 34  0  0  1  0            999 V2000
   11.9400  -11.6230   22.6350 C   0  0  0  0  0  0
   12.3090  -10.3510   22.2020 C   0  0  0  0  0  0
   13.1330  -10.1780   21.1080 C   0  0  0  0  0  0
   13.5670  -11.3000   20.4780 C   0  0  0  0  0  0
   13.2300  -12.5500   20.8730 C   0  0  0  0  0  0
   12.4090  -12.7540   21.9610 C   0  0  0  0  0  0
   11.1050  -11.7470   23.7260 C   0  0  0  0  0  0
   10.4230  -12.8530   23.8610 N   0  3  0  0  0  0
   11.0150  -10.7570   24.5920 N   0  0  0  0  0  0
   14.3270  -11.4430   19.4570 N   0  0  0  0  0  0
   13.7620  -13.4800   20.1240 N   0  3  0  0  0  0
   14.4430  -12.7270   19.2500 C   0  0  0  0  0  0
   15.2270  -13.2350   18.2020 C   0  0  0  0  0  0
   15.2250  -14.6110   17.9170 C   0  0  0  0  0  0
   15.9960  -15.1170   16.8810 C   0  0  0  0  0  0
   16.7850  -14.2600   16.1170 C   0  0  0  0  0  0
   16.7960  -12.8940   16.3950 C   0  0  0  0  0  0
   16.0230  -12.3770   17.4340 C   0  0  0  0  0  0
   16.0550  -11.0250   17.6910 O   0  0  0  0  0  0
   11.9401   -9.4760   22.7372 H   0  0  0  0  0  0
   13.4225   -9.1847   20.7650 H   0  0  0  0  0  0
   12.1359  -13.7588   22.2835 H   0  0  0  0  0  0
   10.5253  -13.6566   23.1168 H   0  0  0  0  0  0
   11.6058   -9.8411   24.4436 H   0  0  0  0  0  0
   10.3491  -10.8469   25.4629 H   0  0  0  0  0  0
   14.6127  -15.2861   18.5149 H   0  0  0  0  0  0
   15.9846  -16.1852   16.6646 H   0  0  0  0  0  0
   17.3925  -14.6567   15.3035 H   0  0  0  0  0  0
   17.4135  -12.2250   15.7957 H   0  0  0  0  0  0
   15.4494  -10.6060   18.5081 H   0  0  0  0  0  0
   13.5647  -14.5403   20.3405 H   0  0  0  0  0  0
    9.7464  -12.9807   24.7188 H   0  0  0  0  0  0
  1  2  2  0  0  0
  1  6  1  0  0  0
  1  7  1  0  0  0
  2  3  1  0  0  0
  2 20  1  0  0  0
  3  4  2  0  0  0
  3 21  1  0  0  0
  4  5  1  0  0  0
  4 10  1  0  0  0
  5  6  2  0  0  0
  5 11  1  0  0  0
  6 22  1  0  0  0
  7  8  2  0  0  0
  7  9  1  0  0  0
  8 23  1  0  0  0
  8 32  1  0  0  0
  9 24  1  0  0  0
  9 25  1  0  0  0
 10 12  2  0  0  0
 11 12  1  0  0  0
 11 31  1  0  0  0
 12 13  1  0  0  0
 13 14  2  0  0  0
 13 18  1  0  0  0
 14 15  1  0  0  0
 14 26  1  0  0  0
 15 16  2  0  0  0
 15 27  1  0  0  0
 16 17  1  0  0  0
 16 28  1  0  0  0
 17 18  2  0  0  0
 17 29  1  0  0  0
 18 19  1  0  0  0
 19 30  1  0  0  0
M  CHG  2   8   1  11   1
M  END
> <s_m_source_file>
../1ghw_ligand.sdf

> <i_m_source_file_index>
1

> <s_epik_input>
W0hdXE49QyhbTkgyXSlcYyhbY0hdW2NIXTEpW2NIXWMoYzEyKVtuSF1jKG4yKS1jM1tjSF1bY0hdW2NIXVtjSF1jM1tPSF0=

> <s_epik_cmdline>
J2VwaWtfYXBwJywgJy1pbWFlJywgJ2xpZ2FuZF9wcm8ubWFlJywgJy1vbWFlJywgJ2xpZ2FuZF9wcmVwLm1hZScsICctbXMnLCAnMScsICctcGgnLCAnNycsICctcGh0JywgJzAuNScsICctbnQn

> <r_epik_Ionization_Penalty>
  0.0014

> <r_epik_Ionization_Penalty_Charging>
  0.0003

> <r_epik_Ionization_Penalty_Neutral>
  0.0011

> <r_epik_State_Penalty>
  0.1712

> <r_epik_Charging_Adjusted_Penalty>
0.171486876075838

> <i_epik_Tot_Q>
2

> <i_epik_Tot_abs_Q>
2

> <s_epik_Chemistry_Notes>
This compound has an imine and may undergo hydrolysis.

$$$$
