1ghy_ligand
                    3D
 Schrodinger Suite 2020-3.
 29 31  0  0  1  0            999 V2000
   12.1290  -11.7940   22.8500 C   0  0  0  0  0  0
   12.1340  -10.7030   21.9600 C   0  0  0  0  0  0
   13.0630  -10.6080   20.9460 C   0  0  0  0  0  0
   13.9750  -11.6260   20.8300 C   0  0  0  0  0  0
   13.9850  -12.6930   21.6780 C   0  0  0  0  0  0
   13.0700  -12.8160   22.7070 C   0  0  0  0  0  0
   11.2050  -11.8130   23.8750 C   0  0  0  0  0  0
   10.5580  -12.8920   24.1770 N   0  0  0  0  0  0
   11.0250  -10.6920   24.5390 N   0  0  0  0  0  0
   14.9670  -11.7520   20.0020 N   0  0  0  0  0  0
   14.9880  -13.4550   21.3550 N   0  0  0  0  0  0
   15.5810  -12.8680   20.3340 C   0  0  3  0  0  0
   16.7500  -13.3560   19.7150 C   0  0  0  0  0  0
   17.5630  -14.0260   20.5190 N   0  0  0  0  0  0
   18.7250  -14.5340   20.1550 C   0  0  0  0  0  0
   19.1630  -14.3720   18.8460 C   0  0  0  0  0  0
   18.3540  -13.6700   17.9400 C   0  0  0  0  0  0
   17.1250  -13.1490   18.3620 C   0  0  0  0  0  0
   16.3480  -12.4580   17.4410 O   0  0  0  0  0  0
   11.3757   -9.9163   22.0867 H   0  0  0  0  0  0
   13.0525   -9.7403   20.2700 H   0  0  0  0  0  0
   13.0615  -13.6720   23.3978 H   0  0  0  0  0  0
    9.8364  -12.8865   25.0072 H   0  0  0  0  0  0
   11.5895   -9.7903   24.2592 H   0  0  0  0  0  0
   10.3099  -10.6562   25.3741 H   0  0  0  0  0  0
   19.3369  -15.0767   20.8755 H   0  0  0  0  0  0
   20.1207  -14.7842   18.5281 H   0  0  0  0  0  0
   18.6816  -13.5305   16.9098 H   0  0  0  0  0  0
   15.3779  -12.0379   17.7451 H   0  0  0  0  0  0
  1  7  1  0  0  0
  1  6  2  0  0  0
  1  2  1  0  0  0
  2  3  2  0  0  0
  2 20  1  0  0  0
  3  4  1  0  0  0
  3 21  1  0  0  0
  4 10  2  0  0  0
  4  5  1  0  0  0
  5 11  2  0  0  0
  5  6  1  0  0  0
  6 22  1  0  0  0
  7  9  1  0  0  0
  7  8  2  0  0  0
  8 23  1  0  0  0
  9 24  1  0  0  0
  9 25  1  0  0  0
 10 12  1  0  0  0
 11 12  1  0  0  0
 12 13  1  0  0  0
 13 18  2  0  0  0
 13 14  1  0  0  0
 14 15  2  0  0  0
 15 16  1  0  0  0
 15 26  1  0  0  0
 16 17  2  0  0  0
 16 27  1  0  0  0
 17 18  1  0  0  0
 17 28  1  0  0  0
 18 19  1  0  0  0
 19 29  1  0  0  0
M  END
> <s_m_source_file>
../1ghy_ligand.sdf

> <i_m_source_file_index>
1

> <s_epik_input>
W0hdXE49QyhbTkgyXSlcYyhbY0hdW2NIXTEpW2NIXWMoYzE9Mik9TltDSF0oTjIpYzNuW2NIXVtjSF1bY0hdYzNbT0hd

> <s_epik_cmdline>
J2VwaWtfYXBwJywgJy1pbWFlJywgJ2xpZ2FuZF9wcm8ubWFlJywgJy1vbWFlJywgJ2xpZ2FuZF9wcmVwLm1hZScsICctbXMnLCAnMScsICctcGgnLCAnNycsICctcGh0JywgJzAuNScsICctbnQn

> <r_epik_Ionization_Penalty>
  0.1346

> <r_epik_Ionization_Penalty_Charging>
  0.0000

> <r_epik_Ionization_Penalty_Neutral>
  0.1346

> <r_epik_State_Penalty>
  0.3491

> <r_epik_Charging_Adjusted_Penalty>
0.349050618982261

> <i_epik_Tot_Q>
0

> <i_epik_Tot_abs_Q>
0

> <s_epik_Chemistry_Notes>
This compound has an imine and may undergo hydrolysis.

$$$$
