1gi1_ligand
                    3D
 Schrodinger Suite 2020-3.
 32 34  0  0  1  0            999 V2000
   29.4210   15.0020   17.0370 C   0  0  0  0  0  0
   28.8930   15.8180   18.0960 C   0  0  0  0  0  0
   28.5980   15.3160   19.3690 C   0  0  0  0  0  0
   28.8270   13.9780   19.5530 C   0  0  0  0  0  0
   29.3210   13.1610   18.5880 C   0  0  0  0  0  0
   29.6350   13.6280   17.3210 C   0  0  0  0  0  0
   29.6800   15.5650   15.7540 C   0  0  0  0  0  0
   30.4010   14.8940   14.8730 N   0  0  0  0  0  0
   29.2050   16.7530   15.4620 N   0  3  0  0  0  0
   28.6260   13.2350   20.5950 N   0  0  0  0  0  0
   29.4480   11.9030   19.0050 N   0  3  0  0  0  0
   28.9910   12.0450   20.2460 C   0  0  0  0  0  0
   28.8670   10.9880   21.1720 C   0  0  0  0  0  0
   29.4510    9.7290   20.9700 C   0  0  0  0  0  0
   29.2910    8.6930   21.8900 C   0  0  0  0  0  0
   28.5360    8.8870   23.0280 C   0  0  0  0  0  0
   27.9540   10.1080   23.2610 C   0  0  0  0  0  0
   28.1100   11.1460   22.3510 C   0  0  0  0  0  0
   27.4980   12.3310   22.6670 O   0  0  0  0  0  0
   28.7143   16.8751   17.8990 H   0  0  0  0  0  0
   28.2097   15.9510   20.1653 H   0  0  0  0  0  0
   30.0363   12.9566   16.5618 H   0  0  0  0  0  0
   30.7944   13.8989   15.1279 H   0  0  0  0  0  0
   30.6078   15.3306   13.8847 H   0  0  0  0  0  0
   28.6060   17.3031   16.2026 H   0  0  0  0  0  0
   30.0444    9.5559   20.0722 H   0  0  0  0  0  0
   29.7638    7.7276   21.7093 H   0  0  0  0  0  0
   28.4020    8.0729   23.7403 H   0  0  0  0  0  0
   27.3659   10.2641   24.1654 H   0  0  0  0  0  0
   27.5831   13.1922   21.9880 H   0  0  0  0  0  0
   29.8466   11.1357   18.3250 H   0  0  0  0  0  0
   29.4059   17.1987   14.4766 H   0  0  0  0  0  0
  1  2  2  0  0  0
  1  6  1  0  0  0
  1  7  1  0  0  0
  2  3  1  0  0  0
  2 20  1  0  0  0
  3  4  2  0  0  0
  3 21  1  0  0  0
  4  5  1  0  0  0
  4 10  1  0  0  0
  5  6  2  0  0  0
  5 11  1  0  0  0
  6 22  1  0  0  0
  7  8  1  0  0  0
  7  9  2  0  0  0
  8 23  1  0  0  0
  8 24  1  0  0  0
  9 25  1  0  0  0
  9 32  1  0  0  0
 10 12  2  0  0  0
 11 12  1  0  0  0
 11 31  1  0  0  0
 12 13  1  0  0  0
 13 14  2  0  0  0
 13 18  1  0  0  0
 14 15  1  0  0  0
 14 26  1  0  0  0
 15 16  2  0  0  0
 15 27  1  0  0  0
 16 17  1  0  0  0
 16 28  1  0  0  0
 17 18  2  0  0  0
 17 29  1  0  0  0
 18 19  1  0  0  0
 19 30  1  0  0  0
M  CHG  2   9   1  11   1
M  END
> <s_m_source_file>
../1gi1_ligand.sdf

> <i_m_source_file_index>
1

> <s_epik_input>
W0hdXE49QyhbTkgyXSlcYyhbY0hdW2NIXTEpW2NIXWMoYzEyKVtuSF1jKG4yKS1jM1tjSF1bY0hdW2NIXVtjSF1jM1tPSF0=

> <s_epik_cmdline>
J2VwaWtfYXBwJywgJy1pbWFlJywgJ2xpZ2FuZF9wcm8ubWFlJywgJy1vbWFlJywgJ2xpZ2FuZF9wcmVwLm1hZScsICctbXMnLCAnMScsICctcGgnLCAnNycsICctcGh0JywgJzAuNScsICctbnQn

> <r_epik_Ionization_Penalty>
  0.0014

> <r_epik_Ionization_Penalty_Charging>
  0.0003

> <r_epik_Ionization_Penalty_Neutral>
  0.0011

> <r_epik_State_Penalty>
  0.1712

> <r_epik_Charging_Adjusted_Penalty>
0.171486876075839

> <i_epik_Tot_Q>
2

> <i_epik_Tot_abs_Q>
2

> <s_epik_Chemistry_Notes>
This compound has an imine and may undergo hydrolysis.

$$$$
