1gi4_ligand
                    3D
 Schrodinger Suite 2020-3.
 30 32  0  0  1  0            999 V2000
   43.8450   -2.6200   26.3150 C   0  0  0  0  0  0
   44.3910   -1.3120   26.5250 C   0  0  0  0  0  0
   44.2550   -0.5740   27.7130 C   0  0  0  0  0  0
   43.5460   -1.2100   28.6920 C   0  0  0  0  0  0
   43.0360   -2.4460   28.5270 C   0  0  0  0  0  0
   43.1400   -3.1860   27.3870 C   0  0  0  0  0  0
   44.0280   -3.3280   25.1170 C   0  0  0  0  0  0
   43.8400   -4.6310   25.0870 N   0  0  0  0  0  0
   44.3860   -2.6840   24.0310 N   0  0  0  0  0  0
   43.3130   -0.7180   29.8950 N   0  0  0  0  0  0
   42.4440   -2.7370   29.6330 N   0  0  0  0  0  0
   42.6130   -1.7180   30.4190 C   0  0  3  0  0  0
   42.0620   -1.7300   31.7660 C   0  0  0  0  0  0
   41.1150   -2.7470   32.1220 C   0  0  0  0  0  0
   40.5390   -2.8090   33.3720 C   0  0  0  0  0  0
   40.8740   -1.8690   34.3340 C   0  0  0  0  0  0
   41.7850   -0.8480   34.0790 C   0  0  0  0  0  0
   42.3750   -0.7780   32.8230 C   0  0  0  0  0  0
   43.2710    0.2670   32.7590 O   0  0  0  0  0  0
   44.9481   -0.8895   25.6758 H   0  0  0  0  0  0
   44.7027    0.4276   27.7926 H   0  0  0  0  0  0
   42.6982   -4.1884   27.2867 H   0  0  0  0  0  0
   43.5400   -5.1646   26.0009 H   0  0  0  0  0  0
   43.9830   -5.1859   24.1480 H   0  0  0  0  0  0
   44.5307   -3.2327   23.0887 H   0  0  0  0  0  0
   40.8420   -3.4959   31.3786 H   0  0  0  0  0  0
   39.8212   -3.5958   33.6040 H   0  0  0  0  0  0
   40.4106   -1.9311   35.3186 H   0  0  0  0  0  0
   42.0308   -0.1175   34.8497 H   0  0  0  0  0  0
   43.8254    0.4600   31.8287 H   0  0  0  0  0  0
  1  7  1  0  0  0
  1  6  2  0  0  0
  1  2  1  0  0  0
  2  3  2  0  0  0
  2 20  1  0  0  0
  3  4  1  0  0  0
  3 21  1  0  0  0
  4 10  2  0  0  0
  4  5  1  0  0  0
  5 11  2  0  0  0
  5  6  1  0  0  0
  6 22  1  0  0  0
  7  9  2  0  0  0
  7  8  1  0  0  0
  8 23  1  0  0  0
  8 24  1  0  0  0
  9 25  1  0  0  0
 10 12  1  0  0  0
 11 12  1  0  0  0
 12 13  1  0  0  0
 13 18  2  0  0  0
 13 14  1  0  0  0
 14 15  2  0  0  0
 14 26  1  0  0  0
 15 16  1  0  0  0
 15 27  1  0  0  0
 16 17  2  0  0  0
 16 28  1  0  0  0
 17 18  1  0  0  0
 17 29  1  0  0  0
 18 19  1  0  0  0
 19 30  1  0  0  0
M  END
> <s_m_source_file>
../1gi4_ligand.sdf

> <i_m_source_file_index>
1

> <s_epik_input>
W0hdXE49QyhbTkgyXSlcYyhbY0hdW2NIXTEpW2NIXWMoYzE9Mik9TltDSF0oTjIpYzNbY0hdW2NIXVtjSF1bY0hdYzNbT0hd

> <s_epik_cmdline>
J2VwaWtfYXBwJywgJy1pbWFlJywgJ2xpZ2FuZF9wcm8ubWFlJywgJy1vbWFlJywgJ2xpZ2FuZF9wcmVwLm1hZScsICctbXMnLCAnMScsICctcGgnLCAnNycsICctcGh0JywgJzAuNScsICctbnQn

> <r_epik_Ionization_Penalty>
  0.0151

> <r_epik_Ionization_Penalty_Charging>
  0.0000

> <r_epik_Ionization_Penalty_Neutral>
  0.0151

> <r_epik_State_Penalty>
  0.0115

> <r_epik_Charging_Adjusted_Penalty>
0.0114693832739545

> <i_epik_Tot_Q>
0

> <i_epik_Tot_abs_Q>
0

> <s_epik_Chemistry_Notes>
This compound has an imine and may undergo hydrolysis.

$$$$
