1gi6_ligand
                    3D
 Schrodinger Suite 2020-3.
 31 33  0  0  1  0            999 V2000
   44.1620   -2.9710   26.3600 C   0  0  0  0  0  0
   44.6360   -1.6440   26.3740 C   0  0  0  0  0  0
   44.6090   -0.8910   27.5340 C   0  0  0  0  0  0
   44.1120   -1.4680   28.6700 C   0  0  0  0  0  0
   43.6510   -2.7370   28.6680 C   0  0  0  0  0  0
   43.6550   -3.5290   27.5350 C   0  0  0  0  0  0
   44.2320   -3.7060   25.1760 C   0  0  0  0  0  0
   44.0220   -5.0070   25.2220 N   0  0  0  0  0  0
   44.5210   -3.0830   24.0420 N   0  0  0  0  0  0
   43.9980   -0.9600   29.8730 N   0  0  0  0  0  0
   43.2410   -2.9910   29.9540 C   0  0  0  0  0  0
   43.4830   -1.8500   30.6820 C   0  0  3  0  0  0
   43.2410   -1.6500   32.0330 C   0  0  0  0  0  0
   42.9800   -2.7540   32.8420 C   0  0  0  0  0  0
   42.7360   -2.5920   34.1930 C   0  0  0  0  0  0
   42.7430   -1.3140   34.7390 C   0  0  0  0  0  0
   43.0030   -0.1930   33.9290 C   0  0  0  0  0  0
   43.2500   -0.3590   32.5670 C   0  0  0  0  0  0
   43.5060    0.7530   31.7730 O   0  0  0  0  0  0
   45.0315   -1.2084   25.4446 H   0  0  0  0  0  0
   44.9814    0.1440   27.5266 H   0  0  0  0  0  0
   43.2782   -4.5625   27.5351 H   0  0  0  0  0  0
   44.0846   -5.6071   24.3022 H   0  0  0  0  0  0
   44.6904   -1.9961   24.0393 H   0  0  0  0  0  0
   44.5914   -3.6530   23.1038 H   0  0  0  0  0  0
   42.8155   -3.9720   30.2120 H   0  0  0  0  0  0
   42.9681   -3.7530   32.4063 H   0  0  0  0  0  0
   42.5399   -3.4587   34.8243 H   0  0  0  0  0  0
   42.5457   -1.1790   35.8024 H   0  0  0  0  0  0
   43.0113    0.8053   34.3666 H   0  0  0  0  0  0
   43.7015    0.6278   30.6978 H   0  0  0  0  0  0
  1  7  1  0  0  0
  1  6  2  0  0  0
  1  2  1  0  0  0
  2  3  2  0  0  0
  2 20  1  0  0  0
  3  4  1  0  0  0
  3 21  1  0  0  0
  4 10  2  0  0  0
  4  5  1  0  0  0
  5 11  2  0  0  0
  5  6  1  0  0  0
  6 22  1  0  0  0
  7  9  1  0  0  0
  7  8  2  0  0  0
  8 23  1  0  0  0
  9 24  1  0  0  0
  9 25  1  0  0  0
 10 12  1  0  0  0
 11 12  1  0  0  0
 11 26  1  0  0  0
 12 13  1  0  0  0
 13 18  2  0  0  0
 13 14  1  0  0  0
 14 15  2  0  0  0
 14 27  1  0  0  0
 15 16  1  0  0  0
 15 28  1  0  0  0
 16 17  2  0  0  0
 16 29  1  0  0  0
 17 18  1  0  0  0
 17 30  1  0  0  0
 18 19  1  0  0  0
 19 31  1  0  0  0
M  END
> <s_m_source_file>
../1gi6_ligand.sdf

> <i_m_source_file_index>
1

> <s_epik_input>
W0hdXE49QyhbTkgyXSlcYyhbY0hdW2NIXTEpW2NIXWMoYzE9Mik9W0NIXVtDSF0oTjIpYzNbY0hdW2NIXVtjSF1bY0hdYzNbT0hd

> <s_epik_cmdline>
J2VwaWtfYXBwJywgJy1pbWFlJywgJ2xpZ2FuZF9wcm8ubWFlJywgJy1vbWFlJywgJ2xpZ2FuZF9wcmVwLm1hZScsICctbXMnLCAnMScsICctcGgnLCAnNycsICctcGh0JywgJzAuNScsICctbnQn

> <r_epik_Ionization_Penalty>
  0.0199

> <r_epik_Ionization_Penalty_Charging>
  0.0000

> <r_epik_Ionization_Penalty_Neutral>
  0.0199

> <r_epik_State_Penalty>
  0.4107

> <r_epik_Charging_Adjusted_Penalty>
0.410679838952604

> <i_epik_Tot_Q>
0

> <i_epik_Tot_abs_Q>
0

> <s_epik_Chemistry_Notes>
This compound has an imine and may undergo hydrolysis.

$$$$
