1gi7_ligand
                    3D
 Schrodinger Suite 2020-3.
 29 31  0  0  1  0            999 V2000
    8.9630    0.7940   25.0180 C   0  0  0  0  0  0
    9.5610    1.0090   23.7500 C   0  0  0  0  0  0
    9.9900    2.2670   23.3380 C   0  0  0  0  0  0
    9.8150    3.3180   24.2040 C   0  0  0  0  0  0
    9.2550    3.1780   25.4140 C   0  0  0  0  0  0
    8.8170    1.9330   25.8500 C   0  0  0  0  0  0
    8.5420   -0.4870   25.4260 C   0  0  0  0  0  0
    7.8380   -0.6200   26.5240 N   0  0  0  0  0  0
    8.8560   -1.5390   24.7120 N   0  0  0  0  0  0
   10.1100    4.5660   24.1150 N   0  0  0  0  0  0
    9.1890    4.3050   26.0850 N   0  0  0  0  0  0
    9.7410    5.1530   25.2240 C   0  0  3  0  0  0
    9.8790    6.5270   25.4620 C   0  0  0  0  0  0
    9.6770    7.0270   26.7400 C   0  0  0  0  0  0
    9.8110    8.3740   26.9850 C   0  0  0  0  0  0
   10.1480    9.2360   25.9560 C   0  0  0  0  0  0
   10.3390    8.7610   24.7400 N   0  0  0  0  0  0
   10.2210    7.4720   24.4500 C   0  0  0  0  0  0
   10.3930    7.0970   23.3080 O   0  0  0  0  0  0
    9.6813    0.1416   23.0843 H   0  0  0  0  0  0
   10.4515    2.3936   22.3475 H   0  0  0  0  0  0
    8.3560    1.8328   26.8437 H   0  0  0  0  0  0
    7.5766    0.2665   27.1205 H   0  0  0  0  0  0
    7.5087   -1.6181   26.8487 H   0  0  0  0  0  0
    8.5289   -2.5390   25.0328 H   0  0  0  0  0  0
    9.4113    6.3507   27.5525 H   0  0  0  0  0  0
    9.6516    8.7629   27.9907 H   0  0  0  0  0  0
   10.2552   10.3033   26.1495 H   0  0  0  0  0  0
   10.6073    9.4424   23.9192 H   0  0  0  0  0  0
  1  7  1  0  0  0
  1  6  2  0  0  0
  1  2  1  0  0  0
  2  3  2  0  0  0
  2 20  1  0  0  0
  3  4  1  0  0  0
  3 21  1  0  0  0
  4 10  2  0  0  0
  4  5  1  0  0  0
  5 11  2  0  0  0
  5  6  1  0  0  0
  6 22  1  0  0  0
  7  9  2  0  0  0
  7  8  1  0  0  0
  8 23  1  0  0  0
  8 24  1  0  0  0
  9 25  1  0  0  0
 10 12  1  0  0  0
 11 12  1  0  0  0
 12 13  1  0  0  0
 13 18  1  0  0  0
 13 14  2  0  0  0
 14 15  1  0  0  0
 14 26  1  0  0  0
 15 16  2  0  0  0
 15 27  1  0  0  0
 16 17  1  0  0  0
 16 28  1  0  0  0
 17 18  1  0  0  0
 17 29  1  0  0  0
 18 19  2  0  0  0
M  END
> <s_m_source_file>
../1gi7_ligand.sdf

> <i_m_source_file_index>
1

> <s_epik_input>
W0hdXE49QyhbTkgyXSlcYyhbY0hdW2NIXTEpW2NIXWMoYzE9Mik9TltDSF0oTjIpYzNbY0hdW2NIXVtjSF1bbkhdYzM9Tw==

> <s_epik_cmdline>
J2VwaWtfYXBwJywgJy1pbWFlJywgJ2xpZ2FuZF9wcm8ubWFlJywgJy1vbWFlJywgJ2xpZ2FuZF9wcmVwLm1hZScsICctbXMnLCAnMScsICctcGgnLCAnNycsICctcGh0JywgJzAuNScsICctbnQn

> <r_lp_tautomer_probability>
1

> <r_epik_Ionization_Penalty>
  0.0026

> <r_epik_Ionization_Penalty_Charging>
  0.0024

> <r_epik_Ionization_Penalty_Neutral>
  0.0002

> <r_epik_State_Penalty>
 -0.0000

> <r_epik_Charging_Adjusted_Penalty>
0.00240196107943443

> <i_epik_Tot_Q>
0

> <i_epik_Tot_abs_Q>
0

> <s_epik_Chemistry_Notes>
This compound has an imine and may undergo hydrolysis.

$$$$
