1gi8_ligand
                    3D
 Schrodinger Suite 2020-3.
 30 32  0  0  1  0            999 V2000
    8.9340    1.6430   24.7290 C   0  0  0  0  0  0
    9.6920    1.4510   23.5520 C   0  0  0  0  0  0
   10.3200    2.5160   22.9130 C   0  0  0  0  0  0
   10.1580    3.7640   23.4840 C   0  0  0  0  0  0
    9.4560    4.0000   24.6040 C   0  0  0  0  0  0
    8.8340    2.9700   25.2480 C   0  0  0  0  0  0
    8.3100    0.5980   25.3930 C   0  0  0  0  0  0
    7.8570    0.8250   26.5920 N   0  0  0  0  0  0
    8.1960   -0.5750   24.8100 N   0  0  0  0  0  0
   10.6090    4.9150   23.1410 N   0  0  0  0  0  0
    9.4440    5.2580   24.9790 N   0  0  0  0  0  0
   10.1820    5.7860   24.0150 C   0  0  3  0  0  0
   10.4530    7.1440   23.8690 C   0  0  0  0  0  0
   10.0690    8.0570   24.8520 C   0  0  0  0  0  0
   10.2680    9.4210   24.6990 C   0  0  0  0  0  0
   10.8720    9.9120   23.5440 C   0  0  0  0  0  0
   11.2740    9.0340   22.5480 C   0  0  0  0  0  0
   11.0710    7.6580   22.7020 C   0  0  0  0  0  0
   11.4970    6.8070   21.6840 O   0  0  0  0  0  0
    9.7803    0.4341   23.1419 H   0  0  0  0  0  0
   10.9088    2.3401   22.0006 H   0  0  0  0  0  0
    8.2566    3.1599   26.1648 H   0  0  0  0  0  0
    7.3586    0.0207   27.1531 H   0  0  0  0  0  0
    8.5925   -0.7256   23.7951 H   0  0  0  0  0  0
    7.7041   -1.4057   25.3372 H   0  0  0  0  0  0
    9.6002    7.6883   25.7644 H   0  0  0  0  0  0
    9.9516   10.1090   25.4830 H   0  0  0  0  0  0
   11.0285   10.9839   23.4229 H   0  0  0  0  0  0
   11.7486    9.4164   21.6443 H   0  0  0  0  0  0
   11.3505    5.7208   21.7778 H   0  0  0  0  0  0
  1  7  1  0  0  0
  1  6  2  0  0  0
  1  2  1  0  0  0
  2  3  2  0  0  0
  2 20  1  0  0  0
  3  4  1  0  0  0
  3 21  1  0  0  0
  4 10  2  0  0  0
  4  5  1  0  0  0
  5 11  2  0  0  0
  5  6  1  0  0  0
  6 22  1  0  0  0
  7  9  1  0  0  0
  7  8  2  0  0  0
  8 23  1  0  0  0
  9 24  1  0  0  0
  9 25  1  0  0  0
 10 12  1  0  0  0
 11 12  1  0  0  0
 12 13  1  0  0  0
 13 18  2  0  0  0
 13 14  1  0  0  0
 14 15  2  0  0  0
 14 26  1  0  0  0
 15 16  1  0  0  0
 15 27  1  0  0  0
 16 17  2  0  0  0
 16 28  1  0  0  0
 17 18  1  0  0  0
 17 29  1  0  0  0
 18 19  1  0  0  0
 19 30  1  0  0  0
M  END
> <s_m_source_file>
../1gi8_ligand.sdf

> <i_m_source_file_index>
1

> <s_epik_input>
W0hdXE49QyhbTkgyXSlcYyhbY0hdW2NIXTEpW2NIXWMoYzE9Mik9TltDSF0oTjIpYzNbY0hdW2NIXVtjSF1bY0hdYzNbT0hd

> <s_epik_cmdline>
J2VwaWtfYXBwJywgJy1pbWFlJywgJ2xpZ2FuZF9wcm8ubWFlJywgJy1vbWFlJywgJ2xpZ2FuZF9wcmVwLm1hZScsICctbXMnLCAnMScsICctcGgnLCAnNycsICctcGh0JywgJzAuNScsICctbnQn

> <r_epik_Ionization_Penalty>
  0.0151

> <r_epik_Ionization_Penalty_Charging>
  0.0000

> <r_epik_Ionization_Penalty_Neutral>
  0.0151

> <r_epik_State_Penalty>
  0.0115

> <r_epik_Charging_Adjusted_Penalty>
0.0114693832739545

> <i_epik_Tot_Q>
0

> <i_epik_Tot_abs_Q>
0

> <s_epik_Chemistry_Notes>
This compound has an imine and may undergo hydrolysis.

$$$$
