1gj4_ligand
                    3D
 Schrodinger Suite 2020-3.
 41 44  0  0  1  0            999 V2000
   11.5230  -11.6140   23.3600 C   0  0  0  0  0  0
   12.1890  -10.3760   23.1510 C   0  0  0  0  0  0
   13.1160  -10.2800   22.0900 C   0  0  0  0  0  0
   13.3210  -11.3760   21.2570 C   0  0  0  0  0  0
   12.6510  -12.5330   21.4660 C   0  0  0  0  0  0
   11.7400  -12.6810   22.4710 C   0  0  0  0  0  0
   10.5960  -11.8030   24.3840 C   0  0  0  0  0  0
   10.0340  -12.9760   24.5380 N   0  0  0  0  0  0
   10.3000  -10.8390   25.2200 N   0  0  0  0  0  0
   14.0960  -11.5480   20.2040 N   0  0  0  0  0  0
   13.0310  -13.4250   20.5170 C   0  0  0  0  0  0
   13.9790  -12.7650   19.7410 C   0  0  3  0  0  0
   14.6960  -13.2910   18.6550 C   0  0  0  0  0  0
   14.5530  -14.6550   18.3570 C   0  0  0  0  0  0
   15.2700  -15.2620   17.3340 C   0  0  0  0  0  0
   16.1340  -14.5180   16.5750 C   0  0  0  0  0  0
   16.3170  -13.1620   16.8250 C   0  0  0  0  0  0
   15.5920  -12.5090   17.8800 C   0  0  0  0  0  0
   15.7540  -11.1520   18.1660 O   0  0  0  0  0  0
   17.2420  -12.4990   16.0310 C   0  0  0  0  0  0
   16.8520  -11.4180   15.2550 C   0  0  0  0  0  0
   17.7500  -10.7440   14.4850 C   0  0  0  0  0  0
   18.9790  -11.1040   14.5090 C   0  0  0  0  0  0
   19.4800  -12.2590   15.2260 C   0  0  0  0  0  0
   18.5800  -12.9370   15.9860 C   0  0  0  0  0  0
   11.9940   -8.9580   24.2310 Cl  0  0  0  0  0  0
   13.6700   -9.3438   21.9267 H   0  0  0  0  0  0
   11.1788  -13.6195   22.5907 H   0  0  0  0  0  0
    9.3235  -13.1417   25.3613 H   0  0  0  0  0  0
   10.7638   -9.8484   25.1037 H   0  0  0  0  0  0
    9.5876  -11.0201   26.0384 H   0  0  0  0  0  0
   12.5858  -14.4307   20.4977 H   0  0  0  0  0  0
   13.8592  -15.2554   18.9454 H   0  0  0  0  0  0
   15.1456  -16.3266   17.1359 H   0  0  0  0  0  0
   16.6853  -14.9948   15.7645 H   0  0  0  0  0  0
   15.1799  -10.6896   18.9825 H   0  0  0  0  0  0
   15.8087  -11.1025   15.2616 H   0  0  0  0  0  0
   17.4285   -9.9119   13.8586 H   0  0  0  0  0  0
   19.6963  -10.5008   13.9525 H   0  0  0  0  0  0
   20.5232  -12.5678   15.1595 H   0  0  0  0  0  0
   18.8910  -13.8125   16.5560 H   0  0  0  0  0  0
  1  7  1  0  0  0
  1  6  2  0  0  0
  1  2  1  0  0  0
  2  3  2  0  0  0
  2 26  1  0  0  0
  3  4  1  0  0  0
  3 27  1  0  0  0
  4 10  2  0  0  0
  4  5  1  0  0  0
  5 11  2  0  0  0
  5  6  1  0  0  0
  6 28  1  0  0  0
  7  9  1  0  0  0
  7  8  2  0  0  0
  8 29  1  0  0  0
  9 30  1  0  0  0
  9 31  1  0  0  0
 10 12  1  0  0  0
 11 12  1  0  0  0
 11 32  1  0  0  0
 12 13  1  0  0  0
 13 18  2  0  0  0
 13 14  1  0  0  0
 14 15  2  0  0  0
 14 33  1  0  0  0
 15 16  1  0  0  0
 15 34  1  0  0  0
 16 17  2  0  0  0
 16 35  1  0  0  0
 17 20  1  0  0  0
 17 18  1  0  0  0
 18 19  1  0  0  0
 19 36  1  0  0  0
 20 25  2  0  0  0
 20 21  1  0  0  0
 21 22  2  0  0  0
 21 37  1  0  0  0
 22 23  1  0  0  0
 22 38  1  0  0  0
 23 24  2  0  0  0
 23 39  1  0  0  0
 24 25  1  0  0  0
 24 40  1  0  0  0
 25 41  1  0  0  0
M  END
> <s_m_source_file>
../1gj4_ligand.sdf

> <i_m_source_file_index>
1

> <s_epik_input>
W0hdXE49QyhbTkgyXSlcYyhjKENsKVtjSF0xKVtjSF1jKGMxPTIpPVtDSF1bQ0hdKE4yKWMzW2NIXVtjSF1bY0hdYyhjM1tPSF0pLWM0W2NIXVtjSF1bY0hdW2NIXVtjSF00

> <s_epik_cmdline>
J2VwaWtfYXBwJywgJy1pbWFlJywgJ2xpZ2FuZF9wcm8ubWFlJywgJy1vbWFlJywgJ2xpZ2FuZF9wcmVwLm1hZScsICctbXMnLCAnMScsICctcGgnLCAnNycsICctcGh0JywgJzAuNScsICctbnQn

> <r_epik_Ionization_Penalty>
  0.0148

> <r_epik_Ionization_Penalty_Charging>
  0.0000

> <r_epik_Ionization_Penalty_Neutral>
  0.0148

> <r_epik_State_Penalty>
  0.0116

> <r_epik_Charging_Adjusted_Penalty>
0.0115544504035745

> <i_epik_Tot_Q>
0

> <i_epik_Tot_abs_Q>
0

> <s_epik_Chemistry_Notes>
This compound has an imine and may undergo hydrolysis.

$$$$
