1gj5_ligand
                    3D
 Schrodinger Suite 2020-3.
 40 43  0  0  1  0            999 V2000
   11.7580  -11.5190   22.7200 C   0  0  0  0  0  0
   12.1340  -10.2390   22.2740 C   0  0  0  0  0  0
   12.9480  -10.0860   21.1520 C   0  0  0  0  0  0
   13.3700  -11.2220   20.5040 C   0  0  0  0  0  0
   13.0190  -12.4630   20.9080 C   0  0  0  0  0  0
   12.2050  -12.6540   22.0230 C   0  0  0  0  0  0
   10.9580  -11.6400   23.8400 C   0  0  0  0  0  0
   10.3100  -12.7540   24.0350 N   0  0  0  0  0  0
   10.8640  -10.6310   24.6810 N   0  0  0  0  0  0
   14.1000  -11.3850   19.4550 N   0  0  0  0  0  0
   13.5120  -13.3990   20.1330 N   0  0  0  0  0  0
   14.1830  -12.6670   19.2380 C   0  0  3  0  0  0
   15.0200  -13.2090   18.2580 C   0  0  0  0  0  0
   14.9870  -14.5920   18.0180 C   0  0  0  0  0  0
   15.8100  -15.1670   17.0750 C   0  0  0  0  0  0
   16.6870  -14.3730   16.3580 C   0  0  0  0  0  0
   16.7660  -12.9880   16.5620 C   0  0  0  0  0  0
   15.9160  -12.3970   17.5190 C   0  0  0  0  0  0
   15.9240  -11.0320   17.7280 O   0  0  0  0  0  0
   17.7440  -12.3010   15.8160 C   0  0  0  0  0  0
   17.4600  -11.1810   15.0340 C   0  0  0  0  0  0
   18.4670  -10.5680   14.2920 C   0  0  0  0  0  0
   19.7720  -11.0660   14.3070 C   0  0  0  0  0  0
   20.0750  -12.1790   15.0820 C   0  0  0  0  0  0
   19.0730  -12.7960   15.8300 C   0  0  0  0  0  0
   11.7787   -9.3530   22.8207 H   0  0  0  0  0  0
   13.2324   -9.0793   20.8120 H   0  0  0  0  0  0
   11.9111  -13.6585   22.3616 H   0  0  0  0  0  0
    9.6655  -12.8679   24.9191 H   0  0  0  0  0  0
   11.4225   -9.7026   24.4908 H   0  0  0  0  0  0
   10.2269  -10.7166   25.5737 H   0  0  0  0  0  0
   14.3003  -15.2196   18.5860 H   0  0  0  0  0  0
   15.7705  -16.2413   16.8948 H   0  0  0  0  0  0
   17.3345  -14.8368   15.6139 H   0  0  0  0  0  0
   15.2545  -10.5866   18.4786 H   0  0  0  0  0  0
   16.4454  -10.7838   15.0035 H   0  0  0  0  0  0
   18.2337   -9.6884   13.6920 H   0  0  0  0  0  0
   20.5489  -10.5839   13.7137 H   0  0  0  0  0  0
   21.0928  -12.5684   15.1051 H   0  0  0  0  0  0
   19.3144  -13.6708   16.4338 H   0  0  0  0  0  0
  1  7  1  0  0  0
  1  6  2  0  0  0
  1  2  1  0  0  0
  2  3  2  0  0  0
  2 26  1  0  0  0
  3  4  1  0  0  0
  3 27  1  0  0  0
  4 10  2  0  0  0
  4  5  1  0  0  0
  5 11  2  0  0  0
  5  6  1  0  0  0
  6 28  1  0  0  0
  7  9  1  0  0  0
  7  8  2  0  0  0
  8 29  1  0  0  0
  9 30  1  0  0  0
  9 31  1  0  0  0
 10 12  1  0  0  0
 11 12  1  0  0  0
 12 13  1  0  0  0
 13 18  2  0  0  0
 13 14  1  0  0  0
 14 15  2  0  0  0
 14 32  1  0  0  0
 15 16  1  0  0  0
 15 33  1  0  0  0
 16 17  2  0  0  0
 16 34  1  0  0  0
 17 20  1  0  0  0
 17 18  1  0  0  0
 18 19  1  0  0  0
 19 35  1  0  0  0
 20 25  2  0  0  0
 20 21  1  0  0  0
 21 22  2  0  0  0
 21 36  1  0  0  0
 22 23  1  0  0  0
 22 37  1  0  0  0
 23 24  2  0  0  0
 23 38  1  0  0  0
 24 25  1  0  0  0
 24 39  1  0  0  0
 25 40  1  0  0  0
M  END
> <s_m_source_file>
../1gj5_ligand.sdf

> <i_m_source_file_index>
1

> <s_epik_input>
W0hdXE49QyhbTkgyXSlcYyhbY0hdW2NIXTEpW2NIXWMoYzE9Mik9TltDSF0oTjIpYzNbY0hdW2NIXVtjSF1jKGMzW09IXSktYzRbY0hdW2NIXVtjSF1bY0hdW2NIXTQ=

> <s_epik_cmdline>
J2VwaWtfYXBwJywgJy1pbWFlJywgJ2xpZ2FuZF9wcm8ubWFlJywgJy1vbWFlJywgJ2xpZ2FuZF9wcmVwLm1hZScsICctbXMnLCAnMScsICctcGgnLCAnNycsICctcGh0JywgJzAuNScsICctbnQn

> <r_epik_Ionization_Penalty>
  0.0151

> <r_epik_Ionization_Penalty_Charging>
  0.0000

> <r_epik_Ionization_Penalty_Neutral>
  0.0151

> <r_epik_State_Penalty>
  0.0115

> <r_epik_Charging_Adjusted_Penalty>
0.0114693832739545

> <i_epik_Tot_Q>
0

> <i_epik_Tot_abs_Q>
0

> <s_epik_Chemistry_Notes>
This compound has an imine and may undergo hydrolysis.

$$$$
