1gj6_ligand
                    3D
 Schrodinger Suite 2020-3.
 41 44  0  0  1  0            999 V2000
   43.9530   -3.0730   25.6520 C   0  0  0  0  0  0
   43.7760   -1.6610   25.5810 C   0  0  0  0  0  0
   43.5480   -0.9200   26.7570 C   0  0  0  0  0  0
   43.5080   -1.5780   27.9710 C   0  0  0  0  0  0
   43.6690   -2.9190   28.0410 C   0  0  0  0  0  0
   43.9060   -3.7020   26.9130 C   0  0  0  0  0  0
   44.2010   -3.8450   24.4930 C   0  0  0  0  0  0
   43.8320   -5.1100   24.4240 N   0  0  0  0  0  0
   44.8250   -3.2500   23.5110 N   0  0  0  0  0  0
   43.3150   -1.1180   29.1890 N   0  0  0  0  0  0
   43.5800   -3.2680   29.3620 C   0  0  0  0  0  0
   43.3470   -2.0890   30.0550 C   0  0  3  0  0  0
   43.1440   -1.9450   31.4390 C   0  0  0  0  0  0
   42.8930   -3.0760   32.2240 C   0  0  0  0  0  0
   42.6970   -2.9580   33.5990 C   0  0  0  0  0  0
   42.6900   -1.7200   34.1950 C   0  0  0  0  0  0
   42.9380   -0.5650   33.4580 C   0  0  0  0  0  0
   43.1310   -0.6680   32.0570 C   0  0  0  0  0  0
   43.3130    0.4590   31.2760 O   0  0  0  0  0  0
   43.0020    0.6370   34.1840 C   0  0  0  0  0  0
   44.1910    1.3700   34.1310 C   0  0  0  0  0  0
   44.3480    2.5330   34.8770 C   0  0  0  0  0  0
   43.3240    2.9930   35.6900 C   0  0  0  0  0  0
   42.1330    2.2810   35.7530 C   0  0  0  0  0  0
   41.9700    1.1080   35.0030 C   0  0  0  0  0  0
   43.7500   -0.6970   24.0830 Cl  0  0  0  0  0  0
   43.4044    0.1692   26.7016 H   0  0  0  0  0  0
   44.0549   -4.7891   26.9913 H   0  0  0  0  0  0
   43.3083   -5.5771   25.2711 H   0  0  0  0  0  0
   44.0481   -5.6974   23.5194 H   0  0  0  0  0  0
   45.0582   -3.8055   22.5907 H   0  0  0  0  0  0
   43.6929   -4.3204   29.6617 H   0  0  0  0  0  0
   42.8503   -4.0592   31.7554 H   0  0  0  0  0  0
   42.5486   -3.8522   34.2044 H   0  0  0  0  0  0
   42.4868   -1.6407   35.2630 H   0  0  0  0  0  0
   43.4612    0.3580   30.1907 H   0  0  0  0  0  0
   45.0068    1.0250   33.4958 H   0  0  0  0  0  0
   45.2846    3.0878   34.8219 H   0  0  0  0  0  0
   43.4520    3.9044   36.2741 H   0  0  0  0  0  0
   41.3216    2.6359   36.3884 H   0  0  0  0  0  0
   41.0307    0.5578   35.0584 H   0  0  0  0  0  0
  1  7  1  0  0  0
  1  6  2  0  0  0
  1  2  1  0  0  0
  2  3  2  0  0  0
  2 26  1  0  0  0
  3  4  1  0  0  0
  3 27  1  0  0  0
  4 10  2  0  0  0
  4  5  1  0  0  0
  5 11  2  0  0  0
  5  6  1  0  0  0
  6 28  1  0  0  0
  7  9  2  0  0  0
  7  8  1  0  0  0
  8 29  1  0  0  0
  8 30  1  0  0  0
  9 31  1  0  0  0
 10 12  1  0  0  0
 11 12  1  0  0  0
 11 32  1  0  0  0
 12 13  1  0  0  0
 13 18  2  0  0  0
 13 14  1  0  0  0
 14 15  2  0  0  0
 14 33  1  0  0  0
 15 16  1  0  0  0
 15 34  1  0  0  0
 16 17  2  0  0  0
 16 35  1  0  0  0
 17 18  1  0  0  0
 17 20  1  0  0  0
 18 19  1  0  0  0
 19 36  1  0  0  0
 20 25  2  0  0  0
 20 21  1  0  0  0
 21 22  2  0  0  0
 21 37  1  0  0  0
 22 23  1  0  0  0
 22 38  1  0  0  0
 23 24  2  0  0  0
 23 39  1  0  0  0
 24 25  1  0  0  0
 24 40  1  0  0  0
 25 41  1  0  0  0
M  END
> <s_m_source_file>
../1gj6_ligand.sdf

> <i_m_source_file_index>
1

> <s_epik_input>
W0hdXE49QyhbTkgyXSlcYyhjKENsKVtjSF0xKVtjSF1jKGMxPTIpPVtDSF1bQ0hdKE4yKWMzW2NIXVtjSF1bY0hdYyhjM1tPSF0pLWM0W2NIXVtjSF1bY0hdW2NIXVtjSF00

> <s_epik_cmdline>
J2VwaWtfYXBwJywgJy1pbWFlJywgJ2xpZ2FuZF9wcm8ubWFlJywgJy1vbWFlJywgJ2xpZ2FuZF9wcmVwLm1hZScsICctbXMnLCAnMScsICctcGgnLCAnNycsICctcGh0JywgJzAuNScsICctbnQn

> <r_epik_Ionization_Penalty>
  0.0148

> <r_epik_Ionization_Penalty_Charging>
  0.0000

> <r_epik_Ionization_Penalty_Neutral>
  0.0148

> <r_epik_State_Penalty>
  0.0116

> <r_epik_Charging_Adjusted_Penalty>
0.0115544504035745

> <i_epik_Tot_Q>
0

> <i_epik_Tot_abs_Q>
0

> <s_epik_Chemistry_Notes>
This compound has an imine and may undergo hydrolysis.

$$$$
