1gj7_ligand
                    3D
 Schrodinger Suite 2020-3.
 41 44  0  0  1  0            999 V2000
    8.5780    0.4240   24.9970 C   0  0  0  0  0  0
    8.7520    0.4970   23.5850 C   0  0  0  0  0  0
    9.1610    1.6830   22.9660 C   0  0  0  0  0  0
    9.3540    2.8100   23.7440 C   0  0  0  0  0  0
    9.2490    2.7450   25.0950 C   0  0  0  0  0  0
    8.8640    1.5830   25.7580 C   0  0  0  0  0  0
    8.2280   -0.7940   25.6410 C   0  0  0  0  0  0
    7.5210   -0.7780   26.7490 N   0  0  0  0  0  0
    8.6130   -1.9210   25.1090 N   0  0  0  0  0  0
    9.7930    4.0110   23.4250 N   0  0  0  0  0  0
    9.5550    3.9940   25.5940 C   0  0  0  0  0  0
    9.8640    4.7960   24.4820 C   0  0  3  0  0  0
   10.2150    6.1850   24.4680 C   0  0  0  0  0  0
   10.0220    6.9650   25.6260 C   0  0  0  0  0  0
   10.3310    8.3320   25.6420 C   0  0  0  0  0  0
   10.8230    8.9520   24.5110 C   0  0  0  0  0  0
   11.0270    8.2220   23.3300 C   0  0  0  0  0  0
   10.7080    6.8370   23.3020 C   0  0  0  0  0  0
   10.8780    6.1340   22.1250 O   0  0  0  0  0  0
   11.6130    8.9280   22.2610 C   0  0  0  0  0  0
   12.7720    8.4350   21.6570 C   0  0  0  0  0  0
   13.4070    9.1420   20.6540 C   0  0  0  0  0  0
   12.8960   10.3610   20.2340 C   0  0  0  0  0  0
   11.7400   10.8600   20.8060 C   0  0  0  0  0  0
   11.0980   10.1470   21.8220 C   0  0  0  0  0  0
    8.3610   -0.8350   22.4740 Cl  0  0  0  0  0  0
    9.3235    1.7080   21.8784 H   0  0  0  0  0  0
    8.7804    1.5555   26.8545 H   0  0  0  0  0  0
    7.2039    0.1807   27.1853 H   0  0  0  0  0  0
    7.2465   -1.7233   27.2400 H   0  0  0  0  0  0
    8.3465   -2.8747   25.5880 H   0  0  0  0  0  0
    9.5204    4.1768   26.6782 H   0  0  0  0  0  0
    9.6248    6.4961   26.5263 H   0  0  0  0  0  0
   10.1817    8.9098   26.5541 H   0  0  0  0  0  0
   11.0548   10.0168   24.5355 H   0  0  0  0  0  0
   10.6362    5.0616   22.0850 H   0  0  0  0  0  0
   13.1815    7.4785   21.9817 H   0  0  0  0  0  0
   14.3098    8.7416   20.1927 H   0  0  0  0  0  0
   13.4055   10.9257   19.4532 H   0  0  0  0  0  0
   11.3294   11.8101   20.4641 H   0  0  0  0  0  0
   10.1898   10.5460   22.2737 H   0  0  0  0  0  0
  1  7  1  0  0  0
  1  6  2  0  0  0
  1  2  1  0  0  0
  2  3  2  0  0  0
  2 26  1  0  0  0
  3  4  1  0  0  0
  3 27  1  0  0  0
  4 10  2  0  0  0
  4  5  1  0  0  0
  5 11  2  0  0  0
  5  6  1  0  0  0
  6 28  1  0  0  0
  7  9  2  0  0  0
  7  8  1  0  0  0
  8 29  1  0  0  0
  8 30  1  0  0  0
  9 31  1  0  0  0
 10 12  1  0  0  0
 11 12  1  0  0  0
 11 32  1  0  0  0
 12 13  1  0  0  0
 13 18  2  0  0  0
 13 14  1  0  0  0
 14 15  2  0  0  0
 14 33  1  0  0  0
 15 16  1  0  0  0
 15 34  1  0  0  0
 16 17  2  0  0  0
 16 35  1  0  0  0
 17 18  1  0  0  0
 17 20  1  0  0  0
 18 19  1  0  0  0
 19 36  1  0  0  0
 20 25  2  0  0  0
 20 21  1  0  0  0
 21 22  2  0  0  0
 21 37  1  0  0  0
 22 23  1  0  0  0
 22 38  1  0  0  0
 23 24  2  0  0  0
 23 39  1  0  0  0
 24 25  1  0  0  0
 24 40  1  0  0  0
 25 41  1  0  0  0
M  END
> <s_m_source_file>
../1gj7_ligand.sdf

> <i_m_source_file_index>
1

> <s_epik_input>
W0hdXE49QyhbTkgyXSlcYyhjKENsKVtjSF0xKVtjSF1jKGMxPTIpPVtDSF1bQ0hdKE4yKWMzW2NIXVtjSF1bY0hdYyhjM1tPSF0pLWM0W2NIXVtjSF1bY0hdW2NIXVtjSF00

> <s_epik_cmdline>
J2VwaWtfYXBwJywgJy1pbWFlJywgJ2xpZ2FuZF9wcm8ubWFlJywgJy1vbWFlJywgJ2xpZ2FuZF9wcmVwLm1hZScsICctbXMnLCAnMScsICctcGgnLCAnNycsICctcGh0JywgJzAuNScsICctbnQn

> <r_epik_Ionization_Penalty>
  0.0148

> <r_epik_Ionization_Penalty_Charging>
  0.0000

> <r_epik_Ionization_Penalty_Neutral>
  0.0148

> <r_epik_State_Penalty>
  0.0116

> <r_epik_Charging_Adjusted_Penalty>
0.0115544504035746

> <i_epik_Tot_Q>
0

> <i_epik_Tot_abs_Q>
0

> <s_epik_Chemistry_Notes>
This compound has an imine and may undergo hydrolysis.

$$$$
