1gjb_ligand
                    3D
 Schrodinger Suite 2020-3.
 40 43  0  0  1  0            999 V2000
    8.5770    1.4330   24.7450 C   0  0  0  0  0  0
    9.3890    1.2760   23.5690 C   0  0  0  0  0  0
    9.9820    2.3660   22.9110 C   0  0  0  0  0  0
    9.7350    3.5850   23.4590 C   0  0  0  0  0  0
    8.9740    3.7750   24.5540 C   0  0  0  0  0  0
    8.3750    2.7410   25.2340 C   0  0  0  0  0  0
    8.0160    0.3180   25.3880 C   0  0  0  0  0  0
    7.6460    0.3810   26.6530 N   0  0  0  0  0  0
    7.8750   -0.7900   24.7110 N   0  0  0  0  0  0
   10.1270    4.7610   23.0840 N   0  0  0  0  0  0
    8.8650    5.0490   24.9010 N   0  0  0  0  0  0
    9.6080    5.5890   23.9410 C   0  0  3  0  0  0
    9.8450    6.9610   23.8680 C   0  0  0  0  0  0
    9.4350    7.8020   24.9020 C   0  0  0  0  0  0
    9.6540    9.1710   24.8690 C   0  0  0  0  0  0
   10.2920    9.7260   23.7760 C   0  0  0  0  0  0
   10.7260    8.9440   22.7130 C   0  0  0  0  0  0
   10.4980    7.5650   22.7660 C   0  0  0  0  0  0
   10.9450    6.8030   21.7010 O   0  0  0  0  0  0
   11.3660    9.5550   21.6460 C   0  0  0  0  0  0
   12.5390    9.0410   21.0810 C   0  0  0  0  0  0
   13.1740    9.6850   20.0270 C   0  0  0  0  0  0
   12.6500   10.8610   19.5070 C   0  0  0  0  0  0
   11.4860   11.3860   20.0500 C   0  0  0  0  0  0
   10.8590   10.7380   21.1040 C   0  0  0  0  0  0
    9.5386    0.2553   23.1870 H   0  0  0  0  0  0
   10.5978    2.1988   22.0150 H   0  0  0  0  0  0
    7.7566    2.9042   26.1289 H   0  0  0  0  0  0
    7.7683    1.3182   27.2158 H   0  0  0  0  0  0
    7.2153   -0.5037   27.1448 H   0  0  0  0  0  0
    7.4452   -1.6794   25.1950 H   0  0  0  0  0  0
    8.9262    7.3696   25.7636 H   0  0  0  0  0  0
    9.3267    9.8018   25.6955 H   0  0  0  0  0  0
   10.4586   10.8028   23.7473 H   0  0  0  0  0  0
   10.7878    5.7143   21.6994 H   0  0  0  0  0  0
   12.9623    8.1174   21.4759 H   0  0  0  0  0  0
   14.0877    9.2654   19.6061 H   0  0  0  0  0  0
   13.1483   11.3670   18.6801 H   0  0  0  0  0  0
   11.0644   12.3074   19.6484 H   0  0  0  0  0  0
    9.9460   11.1636   21.5204 H   0  0  0  0  0  0
  1  7  1  0  0  0
  1  6  2  0  0  0
  1  2  1  0  0  0
  2  3  2  0  0  0
  2 26  1  0  0  0
  3  4  1  0  0  0
  3 27  1  0  0  0
  4 10  2  0  0  0
  4  5  1  0  0  0
  5 11  2  0  0  0
  5  6  1  0  0  0
  6 28  1  0  0  0
  7  9  2  0  0  0
  7  8  1  0  0  0
  8 29  1  0  0  0
  8 30  1  0  0  0
  9 31  1  0  0  0
 10 12  1  0  0  0
 11 12  1  0  0  0
 12 13  1  0  0  0
 13 18  2  0  0  0
 13 14  1  0  0  0
 14 15  2  0  0  0
 14 32  1  0  0  0
 15 16  1  0  0  0
 15 33  1  0  0  0
 16 17  2  0  0  0
 16 34  1  0  0  0
 17 20  1  0  0  0
 17 18  1  0  0  0
 18 19  1  0  0  0
 19 35  1  0  0  0
 20 25  2  0  0  0
 20 21  1  0  0  0
 21 22  2  0  0  0
 21 36  1  0  0  0
 22 23  1  0  0  0
 22 37  1  0  0  0
 23 24  2  0  0  0
 23 38  1  0  0  0
 24 25  1  0  0  0
 24 39  1  0  0  0
 25 40  1  0  0  0
M  END
> <s_m_source_file>
../1gjb_ligand.sdf

> <i_m_source_file_index>
1

> <s_epik_input>
W0hdXE49QyhbTkgyXSlcYyhbY0hdW2NIXTEpW2NIXWMoYzE9Mik9TltDSF0oTjIpYzNbY0hdW2NIXVtjSF1jKGMzW09IXSktYzRbY0hdW2NIXVtjSF1bY0hdW2NIXTQ=

> <s_epik_cmdline>
J2VwaWtfYXBwJywgJy1pbWFlJywgJ2xpZ2FuZF9wcm8ubWFlJywgJy1vbWFlJywgJ2xpZ2FuZF9wcmVwLm1hZScsICctbXMnLCAnMScsICctcGgnLCAnNycsICctcGh0JywgJzAuNScsICctbnQn

> <r_epik_Ionization_Penalty>
  0.0151

> <r_epik_Ionization_Penalty_Charging>
  0.0000

> <r_epik_Ionization_Penalty_Neutral>
  0.0151

> <r_epik_State_Penalty>
  0.0115

> <r_epik_Charging_Adjusted_Penalty>
0.0114693832739548

> <i_epik_Tot_Q>
0

> <i_epik_Tot_abs_Q>
0

> <s_epik_Chemistry_Notes>
This compound has an imine and may undergo hydrolysis.

$$$$
