1gjc_ligand
                    3D
 Schrodinger Suite 2020-3.
 40 43  0  0  1  0            999 V2000
    8.7610    1.3670   24.6990 C   0  0  0  0  0  0
    9.5260    1.2400   23.5100 C   0  0  0  0  0  0
   10.1020    2.3400   22.8490 C   0  0  0  0  0  0
    9.8850    3.5570   23.4180 C   0  0  0  0  0  0
    9.1700    3.7280   24.5370 C   0  0  0  0  0  0
    8.5860    2.6760   25.2210 C   0  0  0  0  0  0
    8.2110    0.2360   25.3310 C   0  0  0  0  0  0
    7.7860    0.3080   26.5690 N   0  0  0  0  0  0
    8.1250   -0.8970   24.6800 N   0  0  0  0  0  0
   10.2680    4.7330   23.0440 N   0  0  0  0  0  0
    9.0780    5.0000   24.9000 N   0  0  0  0  0  0
    9.7860    5.5600   23.9200 C   0  0  3  0  0  0
   10.0470    6.9550   23.8570 C   0  0  0  0  0  0
    9.7040    7.8070   24.9150 C   0  0  0  0  0  0
    9.9550    9.1710   24.8730 C   0  0  0  0  0  0
   10.5550    9.7220   23.7660 C   0  0  0  0  0  0
   10.9270    8.9440   22.6670 C   0  0  0  0  0  0
   10.6660    7.5610   22.7300 C   0  0  0  0  0  0
   11.0360    6.7970   21.6420 O   0  0  0  0  0  0
   11.5400    9.5710   21.5850 C   0  0  0  0  0  0
   12.7980    9.1700   21.1430 C   0  0  0  0  0  0
   13.4460    9.8080   20.0970 C   0  0  0  0  0  0
   12.8360   10.8760   19.4600 C   0  0  0  0  0  0
   11.5800   11.2970   19.8720 C   0  0  0  0  0  0
   10.9360   10.6510   20.9230 C   0  0  0  0  0  0
    9.6597    0.2250   23.1077 H   0  0  0  0  0  0
   10.6860    2.1852   21.9298 H   0  0  0  0  0  0
    8.0017    2.8279   26.1405 H   0  0  0  0  0  0
    7.8560    1.2574   27.1202 H   0  0  0  0  0  0
    7.3594   -0.5809   27.0566 H   0  0  0  0  0  0
    7.6976   -1.7830   25.1722 H   0  0  0  0  0  0
    9.2251    7.3852   25.7986 H   0  0  0  0  0  0
    9.6771    9.8039   25.7158 H   0  0  0  0  0  0
   10.7457   10.7950   23.7450 H   0  0  0  0  0  0
   10.8531    5.7123   21.6439 H   0  0  0  0  0  0
   13.2878    8.3293   21.6342 H   0  0  0  0  0  0
   14.4318    9.4706   19.7769 H   0  0  0  0  0  0
   13.3409   11.3837   18.6382 H   0  0  0  0  0  0
   11.0964   12.1358   19.3713 H   0  0  0  0  0  0
    9.9482   10.9887   21.2365 H   0  0  0  0  0  0
  1  7  1  0  0  0
  1  6  2  0  0  0
  1  2  1  0  0  0
  2  3  2  0  0  0
  2 26  1  0  0  0
  3  4  1  0  0  0
  3 27  1  0  0  0
  4 10  2  0  0  0
  4  5  1  0  0  0
  5 11  2  0  0  0
  5  6  1  0  0  0
  6 28  1  0  0  0
  7  9  2  0  0  0
  7  8  1  0  0  0
  8 29  1  0  0  0
  8 30  1  0  0  0
  9 31  1  0  0  0
 10 12  1  0  0  0
 11 12  1  0  0  0
 12 13  1  0  0  0
 13 18  2  0  0  0
 13 14  1  0  0  0
 14 15  2  0  0  0
 14 32  1  0  0  0
 15 16  1  0  0  0
 15 33  1  0  0  0
 16 17  2  0  0  0
 16 34  1  0  0  0
 17 20  1  0  0  0
 17 18  1  0  0  0
 18 19  1  0  0  0
 19 35  1  0  0  0
 20 25  2  0  0  0
 20 21  1  0  0  0
 21 22  2  0  0  0
 21 36  1  0  0  0
 22 23  1  0  0  0
 22 37  1  0  0  0
 23 24  2  0  0  0
 23 38  1  0  0  0
 24 25  1  0  0  0
 24 39  1  0  0  0
 25 40  1  0  0  0
M  END
> <s_m_source_file>
../1gjc_ligand.sdf

> <i_m_source_file_index>
1

> <s_epik_input>
W0hdXE49QyhbTkgyXSlcYyhbY0hdW2NIXTEpW2NIXWMoYzE9Mik9TltDSF0oTjIpYzNbY0hdW2NIXVtjSF1jKGMzW09IXSktYzRbY0hdW2NIXVtjSF1bY0hdW2NIXTQ=

> <s_epik_cmdline>
J2VwaWtfYXBwJywgJy1pbWFlJywgJ2xpZ2FuZF9wcm8ubWFlJywgJy1vbWFlJywgJ2xpZ2FuZF9wcmVwLm1hZScsICctbXMnLCAnMScsICctcGgnLCAnNycsICctcGh0JywgJzAuNScsICctbnQn

> <r_epik_Ionization_Penalty>
  0.0151

> <r_epik_Ionization_Penalty_Charging>
  0.0000

> <r_epik_Ionization_Penalty_Neutral>
  0.0151

> <r_epik_State_Penalty>
  0.0115

> <r_epik_Charging_Adjusted_Penalty>
0.0114693832739545

> <i_epik_Tot_Q>
0

> <i_epik_Tot_abs_Q>
0

> <s_epik_Chemistry_Notes>
This compound has an imine and may undergo hydrolysis.

$$$$
