1gjd_ligand
                    3D
 Schrodinger Suite 2020-3.
 35 36  0  0  1  0            999 V2000
    8.4240    0.4770   25.4380 C   0  0  0  0  0  0
    8.6750    0.7880   24.0770 C   0  0  0  0  0  0
    9.2100    2.0250   23.6960 C   0  0  0  0  0  0
    9.4780    2.9400   24.6910 C   0  0  0  0  0  0
    9.2400    2.6860   26.0310 C   0  0  0  0  0  0
    8.7190    1.4630   26.3900 C   0  0  0  0  0  0
    7.9660   -0.7630   25.8710 C   0  0  0  0  0  0
    7.1920   -0.8390   26.9230 N   0  0  0  0  0  0
    8.3340   -1.8370   25.2320 N   0  3  0  0  0  0
   10.0210    4.0990   24.4140 N   0  0  0  0  0  0
    9.5730    5.2520   24.8630 C   0  0  0  0  0  0
    8.5730    5.3300   25.5720 O   0  0  0  0  0  0
   10.3470    6.3850   24.4390 C   0  0  0  0  0  0
   10.0010    7.6750   24.9160 C   0  0  0  0  0  0
   10.7100    8.8310   24.5700 C   0  0  0  0  0  0
   10.3610   10.2260   25.0940 C   0  0  0  0  0  0
   11.7910    8.7310   23.7280 C   0  0  0  0  0  0
   12.1880    7.5100   23.2170 C   0  0  0  0  0  0
   11.4910    6.3340   23.5630 C   0  0  0  0  0  0
   11.9890    5.1500   23.0430 O   0  5  0  0  0  0
    8.2710   -0.3910   22.7950 Cl  0  0  0  0  0  0
   13.7640    7.5300   21.9140 I   0  0  0  0  0  0
    9.4075    2.2559   22.6492 H   0  0  0  0  0  0
    9.4607    3.4395   26.7871 H   0  0  0  0  0  0
    8.5307    1.2558   27.4434 H   0  0  0  0  0  0
    6.8904    0.0775   27.4513 H   0  0  0  0  0  0
    6.8428   -1.8194   27.2793 H   0  0  0  0  0  0
    8.9851   -1.7558   24.3492 H   0  0  0  0  0  0
   10.9097    4.1496   23.7677 H   0  0  0  0  0  0
    9.1438    7.7705   25.5825 H   0  0  0  0  0  0
    9.4817   10.1612   25.7518 H   0  0  0  0  0  0
   10.1367   10.8905   24.2465 H   0  0  0  0  0  0
   11.2137   10.6289   25.6602 H   0  0  0  0  0  0
   12.3450    9.6302   23.4584 H   0  0  0  0  0  0
    7.9936   -2.8251   25.5753 H   0  0  0  0  0  0
  1  7  1  0  0  0
  1  6  2  0  0  0
  1  2  1  0  0  0
  2  3  2  0  0  0
  2 21  1  0  0  0
  3  4  1  0  0  0
  3 23  1  0  0  0
  4 10  1  0  0  0
  4  5  2  0  0  0
  5  6  1  0  0  0
  5 24  1  0  0  0
  6 25  1  0  0  0
  7  9  2  0  0  0
  7  8  1  0  0  0
  8 26  1  0  0  0
  8 27  1  0  0  0
  9 28  1  0  0  0
  9 35  1  0  0  0
 10 11  1  0  0  0
 10 29  1  0  0  0
 11 13  1  0  0  0
 11 12  2  0  0  0
 13 19  2  0  0  0
 13 14  1  0  0  0
 14 15  2  0  0  0
 14 30  1  0  0  0
 15 17  1  0  0  0
 15 16  1  0  0  0
 16 31  1  0  0  0
 16 32  1  0  0  0
 16 33  1  0  0  0
 17 18  2  0  0  0
 17 34  1  0  0  0
 18 19  1  0  0  0
 18 22  1  0  0  0
 19 20  1  0  0  0
M  CHG  2   9   1  20  -1
M  END
> <s_m_source_file>
../1gjd_ligand.sdf

> <i_m_source_file_index>
1

> <s_epik_input>
W0hdXE49QyhbTkgyXSlcYzFjKENsKVtjSF1jKFtjSF1bY0hdMSlbTkhdQyg9TyljMltjSF1jKFtDSDNdKVtjSF1jKEkpYzJbT0hd

> <s_epik_cmdline>
J2VwaWtfYXBwJywgJy1pbWFlJywgJ2xpZ2FuZF9wcm8ubWFlJywgJy1vbWFlJywgJ2xpZ2FuZF9wcmVwLm1hZScsICctbXMnLCAnMScsICctcGgnLCAnNycsICctcGh0JywgJzAuNScsICctbnQn

> <r_epik_Ionization_Penalty>
  0.0320

> <r_epik_Ionization_Penalty_Charging>
  0.0320

> <r_epik_Ionization_Penalty_Neutral>
  0.0000

> <r_epik_State_Penalty>
  0.0256

> <r_epik_Charging_Adjusted_Penalty>
0.0575553157556427

> <i_epik_Tot_Q>
0

> <i_epik_Tot_abs_Q>
2

> <s_epik_Chemistry_Notes>
This compound has an imine and may undergo hydrolysis.

$$$$
