1gmy_ligand
                    3D
 Schrodinger Suite 2020-3.
 58 60  0  0  1  0            999 V2000
   38.6710   76.7990   32.0070 C   0  0  0  0  0  0
   37.8370   75.8750   31.9770 N   0  0  0  0  0  0
   38.4630   78.0320   32.8860 C   0  0  0  0  0  0
   39.3510   79.1340   32.5100 N   0  0  0  0  0  0
   40.5360   79.3780   33.0770 C   0  0  0  0  0  0
   41.0480   78.6400   33.9090 O   0  0  0  0  0  0
   41.2490   80.6560   32.6540 C   0  0  1  0  0  0
   41.8270   81.2870   33.8310 N   0  0  0  0  0  0
   42.3590   80.3400   31.6480 C   0  0  0  0  0  0
   43.0200   81.5940   31.1300 C   0  0  0  0  0  0
   44.1350   82.1320   31.7730 C   0  0  0  0  0  0
   42.4960   82.2690   30.0230 C   0  0  0  0  0  0
   44.7170   83.3090   31.3370 C   0  0  0  0  0  0
   43.0730   83.4630   29.5670 C   0  0  0  0  0  0
   44.1840   83.9680   30.2400 C   0  0  0  0  0  0
   42.5040   84.1800   28.3650 C   0  0  0  0  0  0
   41.4250   82.4670   34.2940 C   0  0  0  0  0  0
   40.4960   83.1100   33.8020 O   0  0  0  0  0  0
   41.7480   81.9070   39.1190 C   0  0  0  0  0  0
   42.3290   82.2630   37.9130 C   0  0  0  0  0  0
   41.5480   82.6280   36.8160 C   0  0  0  0  0  0
   40.1630   82.6270   36.9680 C   0  0  0  0  0  0
   39.5730   82.2720   38.1750 C   0  0  0  0  0  0
   40.3680   81.9120   39.2490 C   0  0  0  0  0  0
   42.4350   84.4890   35.3520 C   0  0  0  0  0  0
   43.5780   84.9680   34.7060 C   0  0  0  0  0  0
   43.8270   86.3340   34.5990 C   0  0  0  0  0  0
   42.9260   87.2400   35.1380 C   0  0  0  0  0  0
   41.7780   86.7820   35.7830 C   0  0  0  0  0  0
   41.5390   85.4190   35.8860 C   0  0  0  0  0  0
   42.1920   83.0000   35.4910 C   0  0  0  0  0  0
   39.5728   76.7143   31.3829 H   0  0  0  0  0  0
   36.9268   75.9355   32.5917 H   0  0  0  0  0  0
   37.7117   78.0144   33.6893 H   0  0  0  0  0  0
   39.0564   79.8294   31.7102 H   0  0  0  0  0  0
   40.5309   81.3652   32.2165 H   0  0  0  0  0  0
   42.6361   80.7857   34.3824 H   0  0  0  0  0  0
   43.1274   79.7197   32.1326 H   0  0  0  0  0  0
   41.9340   79.7951   30.7922 H   0  0  0  0  0  0
   44.5558   81.6151   32.6355 H   0  0  0  0  0  0
   41.6266   81.8612   29.5072 H   0  0  0  0  0  0
   45.5877   83.7149   31.8520 H   0  0  0  0  0  0
   44.6414   84.8965   29.8982 H   0  0  0  0  0  0
   41.6362   83.6227   27.9825 H   0  0  0  0  0  0
   43.2720   84.2465   27.5803 H   0  0  0  0  0  0
   42.1895   85.1928   28.6571 H   0  0  0  0  0  0
   42.3749   81.6234   39.9644 H   0  0  0  0  0  0
   43.4150   82.2579   37.8194 H   0  0  0  0  0  0
   39.5315   82.9095   36.1257 H   0  0  0  0  0  0
   38.4877   82.2771   38.2755 H   0  0  0  0  0  0
   39.9089   81.6324   40.1972 H   0  0  0  0  0  0
   44.2874   84.2596   34.2782 H   0  0  0  0  0  0
   44.7254   86.6892   34.0942 H   0  0  0  0  0  0
   43.1154   88.3104   35.0574 H   0  0  0  0  0  0
   41.0690   87.4938   36.2059 H   0  0  0  0  0  0
   40.6389   85.0685   36.3910 H   0  0  0  0  0  0
   43.1758   82.5081   35.5003 H   0  0  0  0  0  0
   38.0104   74.9982   31.3358 H   0  0  0  0  0  0
  1  2  1  0  0  0
  1  3  2  0  0  0
  1 32  1  0  0  0
  2 33  1  0  0  0
  2 58  1  0  0  0
  3  4  1  0  0  0
  3 34  1  0  0  0
  4  5  1  0  0  0
  4 35  1  0  0  0
  5  6  2  0  0  0
  5  7  1  0  0  0
  7  8  1  0  0  0
  7  9  1  0  0  0
  7 36  1  0  0  0
  8 17  1  0  0  0
  8 37  1  0  0  0
  9 10  1  0  0  0
  9 38  1  0  0  0
  9 39  1  0  0  0
 10 11  2  0  0  0
 10 12  1  0  0  0
 11 13  1  0  0  0
 11 40  1  0  0  0
 12 14  2  0  0  0
 12 41  1  0  0  0
 13 15  2  0  0  0
 13 42  1  0  0  0
 14 15  1  0  0  0
 14 16  1  0  0  0
 15 43  1  0  0  0
 16 44  1  0  0  0
 16 45  1  0  0  0
 16 46  1  0  0  0
 17 18  2  0  0  0
 17 31  1  0  0  0
 19 20  2  0  0  0
 19 24  1  0  0  0
 19 47  1  0  0  0
 20 21  1  0  0  0
 20 48  1  0  0  0
 21 22  2  0  0  0
 21 31  1  0  0  0
 22 23  1  0  0  0
 22 49  1  0  0  0
 23 24  2  0  0  0
 23 50  1  0  0  0
 24 51  1  0  0  0
 25 26  2  0  0  0
 25 30  1  0  0  0
 25 31  1  0  0  0
 26 27  1  0  0  0
 26 52  1  0  0  0
 27 28  2  0  0  0
 27 53  1  0  0  0
 28 29  1  0  0  0
 28 54  1  0  0  0
 29 30  2  0  0  0
 29 55  1  0  0  0
 30 56  1  0  0  0
 31 57  1  0  0  0
M  END
> <s_m_source_file>
../1gmy_ligand.sdf

> <i_m_source_file_index>
1

> <s_epik_input>
W2NIXTFjKFtDSDNdKVtjSF1bY0hdW2NIXWMxW0NIMl1bQ0BASF0oQyg9TylbTkhdW0NIMl0vW0NIXT1OXFtIXSlbTkhdQyg9TylbQ0hdKGMyW2NIXVtjSF1bY0hdW2NIXVtjSF0yKWMzW2NIXVtjSF1bY0hdW2NIXVtjSF0z

> <s_epik_cmdline>
J2VwaWtfYXBwJywgJy1pbWFlJywgJ2xpZ2FuZF9wcm8ubWFlJywgJy1vbWFlJywgJ2xpZ2FuZF9wcmVwLm1hZScsICctbXMnLCAnMScsICctcGgnLCAnNycsICctcGh0JywgJzAuNScsICctbnQn

> <r_lp_tautomer_probability>
1

> <r_epik_Ionization_Penalty>
  0.0002

> <r_epik_Ionization_Penalty_Charging>
  0.0002

> <r_epik_Ionization_Penalty_Neutral>
  0.0000

> <r_epik_State_Penalty>
 -0.0000

> <r_epik_Charging_Adjusted_Penalty>
0.000175837175995273

> <i_epik_Tot_Q>
0

> <i_epik_Tot_abs_Q>
0

> <s_epik_Chemistry_Notes>
This compound has an imine and may undergo hydrolysis.

$$$$
