1gni_ligand
                    3D
 Schrodinger Suite 2020-3.
 53 52  0  0  1  0            999 V2000
   29.8480   12.4910   35.5290 C   0  0  0  0  0  0
   29.0440   13.4120   35.8070 O   0  5  0  0  0  0
   29.4660   11.3690   35.1310 O   0  0  0  0  0  0
   31.3590   12.7330   35.6690 C   0  0  0  0  0  0
   31.6740   13.6900   36.8330 C   0  0  0  0  0  0
   33.1970   13.8230   36.8300 C   0  0  0  0  0  0
   33.6470   15.2850   36.8820 C   0  0  0  0  0  0
   35.1420   15.4200   36.5820 C   0  0  0  0  0  0
   35.4050   15.8770   35.1430 C   0  0  0  0  0  0
   36.6180   15.1890   34.5120 C   0  0  0  0  0  0
   37.1540   15.9590   33.2960 C   0  0  0  0  0  0
   37.1270   15.5550   31.9990 C   0  0  0  0  0  0
   36.5580   14.2480   31.4630 C   0  0  0  0  0  0
   35.6750   14.4660   30.2420 C   0  0  0  0  0  0
   34.4940   13.4960   30.2550 C   0  0  0  0  0  0
   33.6810   13.5500   28.9680 C   0  0  0  0  0  0
   32.5900   12.4970   28.9760 C   0  0  0  0  0  0
   32.5080   11.8090   27.6250 C   0  0  0  0  0  0
   33.1240   10.4130   27.6620 C   0  0  0  0  0  0
   32.0470    9.3460   27.6640 C   0  0  0  0  0  0
   31.8675   11.7762   35.8588 H   0  0  0  0  0  0
   31.7469   13.1765   34.7401 H   0  0  0  0  0  0
   31.1805   14.6571   36.6564 H   0  0  0  0  0  0
   31.3050   13.2565   37.7742 H   0  0  0  0  0  0
   33.6120   13.3053   37.7074 H   0  0  0  0  0  0
   33.6027   13.3720   35.9124 H   0  0  0  0  0  0
   33.0872   15.8677   36.1357 H   0  0  0  0  0  0
   33.4541   15.6926   37.8853 H   0  0  0  0  0  0
   35.5870   16.1609   37.2624 H   0  0  0  0  0  0
   35.6344   14.4471   36.7267 H   0  0  0  0  0  0
   34.5281   15.6482   34.5196 H   0  0  0  0  0  0
   35.5907   16.9611   35.1307 H   0  0  0  0  0  0
   37.4264   15.1174   35.2546 H   0  0  0  0  0  0
   36.3351   14.1793   34.1795 H   0  0  0  0  0  0
   37.5946   16.9317   33.5600 H   0  0  0  0  0  0
   37.5462   16.2004   31.2131 H   0  0  0  0  0  0
   37.3829   13.5800   31.1744 H   0  0  0  0  0  0
   35.9510   13.7651   32.2430 H   0  0  0  0  0  0
   35.2907   15.4967   30.2467 H   0  0  0  0  0  0
   36.2646   14.2987   29.3285 H   0  0  0  0  0  0
   34.8653   12.4679   30.3782 H   0  0  0  0  0  0
   33.8232   13.7461   31.0901 H   0  0  0  0  0  0
   33.2158   14.5419   28.8695 H   0  0  0  0  0  0
   34.3428   13.3685   28.1083 H   0  0  0  0  0  0
   32.8117   11.7452   29.7478 H   0  0  0  0  0  0
   31.6227   12.9729   29.1948 H   0  0  0  0  0  0
   31.4539   11.7136   27.3255 H   0  0  0  0  0  0
   33.0494   12.4058   26.8761 H   0  0  0  0  0  0
   33.7616   10.2700   26.7771 H   0  0  0  0  0  0
   33.7311   10.3041   28.5728 H   0  0  0  0  0  0
   32.5162    8.3515   27.6909 H   0  0  0  0  0  0
   31.4369    9.4391   26.7534 H   0  0  0  0  0  0
   31.4064    9.4733   28.5491 H   0  0  0  0  0  0
  1  2  1  0  0  0
  1  3  2  0  0  0
  1  4  1  0  0  0
  4  5  1  0  0  0
  4 21  1  0  0  0
  4 22  1  0  0  0
  5  6  1  0  0  0
  5 23  1  0  0  0
  5 24  1  0  0  0
  6  7  1  0  0  0
  6 25  1  0  0  0
  6 26  1  0  0  0
  7  8  1  0  0  0
  7 27  1  0  0  0
  7 28  1  0  0  0
  8  9  1  0  0  0
  8 29  1  0  0  0
  8 30  1  0  0  0
  9 10  1  0  0  0
  9 31  1  0  0  0
  9 32  1  0  0  0
 10 11  1  0  0  0
 10 33  1  0  0  0
 10 34  1  0  0  0
 11 12  2  0  0  0
 11 35  1  0  0  0
 12 13  1  0  0  0
 12 36  1  0  0  0
 13 14  1  0  0  0
 13 37  1  0  0  0
 13 38  1  0  0  0
 14 15  1  0  0  0
 14 39  1  0  0  0
 14 40  1  0  0  0
 15 16  1  0  0  0
 15 41  1  0  0  0
 15 42  1  0  0  0
 16 17  1  0  0  0
 16 43  1  0  0  0
 16 44  1  0  0  0
 17 18  1  0  0  0
 17 45  1  0  0  0
 17 46  1  0  0  0
 18 19  1  0  0  0
 18 47  1  0  0  0
 18 48  1  0  0  0
 19 20  1  0  0  0
 19 49  1  0  0  0
 19 50  1  0  0  0
 20 51  1  0  0  0
 20 52  1  0  0  0
 20 53  1  0  0  0
M  CHG  1   2  -1
M  END
> <s_m_source_file>
../1gni_ligand.sdf

> <i_m_source_file_index>
1

> <s_epik_input>
W09IXUMoPU8pW0NIMl1bQ0gyXVtDSDJdW0NIMl1bQ0gyXVtDSDJdW0NIMl0vW0NIXT1bQ0hdXFtDSDJdW0NIMl1bQ0gyXVtDSDJdW0NIMl1bQ0gyXVtDSDJdW0NIM10=

> <s_epik_cmdline>
J2VwaWtfYXBwJywgJy1pbWFlJywgJ2xpZ2FuZF9wcm8ubWFlJywgJy1vbWFlJywgJ2xpZ2FuZF9wcmVwLm1hZScsICctbXMnLCAnMScsICctcGgnLCAnNycsICctcGh0JywgJzAuNScsICctbnQn

> <r_lp_tautomer_probability>
1

> <r_epik_Ionization_Penalty>
  0.0049

> <r_epik_Ionization_Penalty_Charging>
  0.0049

> <r_epik_Ionization_Penalty_Neutral>
  0.0000

> <r_epik_State_Penalty>
 -0.0000

> <r_epik_Charging_Adjusted_Penalty>
0.00485124679394524

> <i_epik_Tot_Q>
-1

> <i_epik_Tot_abs_Q>
1

$$$$
