1gnj_ligand
                    3D
 Schrodinger Suite 2020-3.
 53 52  0  0  1  0            999 V2000
   29.3850   13.4330   35.8230 C   0  0  0  0  0  0
   30.7830   12.9360   35.6010 C   0  0  0  0  0  0
   31.7120   13.2650   36.7510 C   0  0  0  0  0  0
   32.8490   14.1460   36.2710 C   0  0  0  0  0  0
   33.2250   15.1840   37.2250 C   0  0  0  0  0  0
   34.1980   16.1520   36.9210 C   0  0  0  0  0  0
   34.8990   16.1940   35.6370 C   0  0  0  0  0  0
   36.3390   16.3840   35.7660 C   0  0  0  0  0  0
   37.2150   16.3730   34.6630 C   0  0  0  0  0  0
   36.7660   16.1710   33.2860 C   0  0  0  0  0  0
   37.4660   15.0930   32.6080 C   0  0  0  0  0  0
   36.8890   14.3170   31.5850 C   0  0  0  0  0  0
   35.5300   14.4960   31.0840 C   0  0  0  0  0  0
   35.4450   14.2630   29.6390 C   0  0  0  0  0  0
   34.3720   13.5950   29.0040 C   0  0  0  0  0  0
   33.2210   13.0630   29.7210 C   0  0  0  0  0  0
   32.1920   12.4210   28.8000 C   0  0  0  0  0  0
   31.7380   11.0670   29.3220 C   0  0  0  0  0  0
   30.5460   11.1960   30.2630 C   0  0  0  0  0  0
   30.5450   10.0790   31.2750 C   0  0  0  0  0  0
   28.5270   12.6670   36.3370 O   0  5  0  0  0  0
   29.1260   14.6170   35.4840 O   0  0  0  0  0  0
   30.7689   11.8425   35.4826 H   0  0  0  0  0  0
   31.1964   13.3979   34.6923 H   0  0  0  0  0  0
   31.1516   13.7959   37.5347 H   0  0  0  0  0  0
   32.1278   12.3343   37.1643 H   0  0  0  0  0  0
   33.7405   13.5277   36.0895 H   0  0  0  0  0  0
   32.5549   14.6482   35.3376 H   0  0  0  0  0  0
   32.7244   15.1960   38.2044 H   0  0  0  0  0  0
   34.4603   16.9202   37.6633 H   0  0  0  0  0  0
   34.7387   15.2471   35.1006 H   0  0  0  0  0  0
   34.5098   17.0275   35.0338 H   0  0  0  0  0  0
   36.7340   16.5410   36.7805 H   0  0  0  0  0  0
   38.2942   16.5211   34.8162 H   0  0  0  0  0  0
   35.6939   15.9250   33.2823 H   0  0  0  0  0  0
   36.9330   17.0913   32.7071 H   0  0  0  0  0  0
   38.4986   14.8960   32.9318 H   0  0  0  0  0  0
   37.4710   13.5141   31.1089 H   0  0  0  0  0  0
   34.8572   13.7863   31.5875 H   0  0  0  0  0  0
   35.1967   15.5244   31.2873 H   0  0  0  0  0  0
   36.2858   14.6451   29.0415 H   0  0  0  0  0  0
   34.3797   13.4552   27.9130 H   0  0  0  0  0  0
   33.5561   12.2957   30.4344 H   0  0  0  0  0  0
   32.7203   13.8768   30.2660 H   0  0  0  0  0  0
   31.3111   13.0752   28.7219 H   0  0  0  0  0  0
   32.6319   12.2777   27.8020 H   0  0  0  0  0  0
   31.4438   10.4279   28.4764 H   0  0  0  0  0  0
   32.5630   10.5906   29.8719 H   0  0  0  0  0  0
   30.6006   12.1577   30.7942 H   0  0  0  0  0  0
   29.6133   11.1507   29.6816 H   0  0  0  0  0  0
   29.6783   10.1904   31.9432 H   0  0  0  0  0  0
   31.4716   10.1193   31.8664 H   0  0  0  0  0  0
   30.4843    9.1122   30.7539 H   0  0  0  0  0  0
  1  2  1  0  0  0
  1 21  1  0  0  0
  1 22  2  0  0  0
  2  3  1  0  0  0
  2 23  1  0  0  0
  2 24  1  0  0  0
  3  4  1  0  0  0
  3 25  1  0  0  0
  3 26  1  0  0  0
  4  5  1  0  0  0
  4 27  1  0  0  0
  4 28  1  0  0  0
  5  6  2  0  0  0
  5 29  1  0  0  0
  6  7  1  0  0  0
  6 30  1  0  0  0
  7  8  1  0  0  0
  7 31  1  0  0  0
  7 32  1  0  0  0
  8  9  2  0  0  0
  8 33  1  0  0  0
  9 10  1  0  0  0
  9 34  1  0  0  0
 10 11  1  0  0  0
 10 35  1  0  0  0
 10 36  1  0  0  0
 11 12  2  0  0  0
 11 37  1  0  0  0
 12 13  1  0  0  0
 12 38  1  0  0  0
 13 14  1  0  0  0
 13 39  1  0  0  0
 13 40  1  0  0  0
 14 15  2  0  0  0
 14 41  1  0  0  0
 15 16  1  0  0  0
 15 42  1  0  0  0
 16 17  1  0  0  0
 16 43  1  0  0  0
 16 44  1  0  0  0
 17 18  1  0  0  0
 17 45  1  0  0  0
 17 46  1  0  0  0
 18 19  1  0  0  0
 18 47  1  0  0  0
 18 48  1  0  0  0
 19 20  1  0  0  0
 19 49  1  0  0  0
 19 50  1  0  0  0
 20 51  1  0  0  0
 20 52  1  0  0  0
 20 53  1  0  0  0
M  CHG  1  21  -1
M  END
> <s_m_source_file>
../1gnj_ligand.sdf

> <i_m_source_file_index>
1

> <s_epik_input>
W09IXUMoPU8pW0NIMl1bQ0gyXVtDSDJdL1tDSF09W0NIXVxbQ0gyXS9bQ0hdPVtDSF1cW0NIMl0vW0NIXT1bQ0hdXFtDSDJdL1tDSF09W0NIXVxbQ0gyXVtDSDJdW0NIMl1bQ0gyXVtDSDNd

> <s_epik_cmdline>
J2VwaWtfYXBwJywgJy1pbWFlJywgJ2xpZ2FuZF9wcm8ubWFlJywgJy1vbWFlJywgJ2xpZ2FuZF9wcmVwLm1hZScsICctbXMnLCAnMScsICctcGgnLCAnNycsICctcGh0JywgJzAuNScsICctbnQn

> <r_lp_tautomer_probability>
1

> <r_epik_Ionization_Penalty>
  0.0041

> <r_epik_Ionization_Penalty_Charging>
  0.0041

> <r_epik_Ionization_Penalty_Neutral>
  0.0000

> <r_epik_State_Penalty>
 -0.0000

> <r_epik_Charging_Adjusted_Penalty>
0.00414476801241648

> <i_epik_Tot_Q>
-1

> <i_epik_Tot_abs_Q>
1

$$$$
