1gnm_ligand
                    3D
 Schrodinger Suite 2020-3.
 95 95  0  0  1  0            999 V2000
  -10.0700   15.6730   32.1470 C   0  0  0  0  0  0
   -9.9670   15.3250   30.6620 C   0  0  0  0  0  0
  -10.7660   16.0590   28.4260 C   0  0  1  0  0  0
  -12.2860   16.0110   28.1150 C   0  0  0  0  0  0
  -12.9240   14.7800   28.7960 C   0  0  0  0  0  0
  -14.4240   15.0320   28.9640 C   0  0  0  0  0  0
  -15.0720   13.8480   29.6800 C   0  0  0  0  0  0
  -14.8530   12.5510   28.8960 C   0  0  0  0  0  0
  -13.3570   12.2850   28.6920 C   0  0  0  0  0  0
  -12.6840   13.4800   28.0030 C   0  0  0  0  0  0
  -10.1840   17.2570   27.6460 C   0  0  2  0  0  0
   -8.7240   17.6300   27.9550 C   0  0  0  0  0  0
   -7.8420   18.3080   26.8940 C   0  0  1  0  0  0
   -6.4850   18.7290   27.4670 C   0  0  0  0  0  0
   -5.4680   17.5850   27.4920 C   0  0  0  0  0  0
   -5.8160   19.8490   26.6590 C   0  0  0  0  0  0
   -7.5900   17.3310   25.7570 C   0  0  0  0  0  0
   -7.6320   17.0130   23.3490 C   0  0  1  0  0  0
   -8.9800   16.7580   22.6770 C   0  0  0  0  0  0
   -8.8790   15.8070   21.4870 C   0  0  0  0  0  0
   -8.6980   16.5470   20.1650 C   0  0  0  0  0  0
   -6.6900   17.7470   22.3960 C   0  0  0  0  0  0
   -4.5510   17.5570   21.2020 C   0  0  2  0  0  0
   -4.4890   16.7130   19.9260 C   0  0  0  0  0  0
   -3.1980   17.4750   21.9150 C   0  0  0  0  0  0
   -2.2580   18.6290   21.5570 C   0  0  0  0  0  0
   -1.7630   19.4020   22.7840 C   0  0  0  0  0  0
    0.4810   19.9670   23.6900 C   0  0  0  0  0  0
  -10.6020   16.1960   29.8880 N   0  0  0  0  0  0
   -7.8240   17.8130   24.5600 N   0  0  0  0  0  0
   -8.0500   15.9730   19.1690 N   0  0  0  0  0  0
   -5.6100   17.0540   22.0870 N   0  0  0  0  0  0
   -4.1140   17.2520   18.7580 N   0  0  0  0  0  0
   -0.3720   19.0880   23.1420 N   0  0  0  0  0  0
    0.0750   21.1950   24.0400 N   0  3  0  0  0  0
    1.7740   19.7090   23.9290 N   0  0  0  0  0  0
   -9.3090   14.3330   30.3010 O   0  0  0  0  0  0
  -10.9450   18.4190   27.8970 O   0  0  0  0  0  0
   -7.2050   16.1780   25.9830 O   0  0  0  0  0  0
   -9.1560   17.6810   20.0310 O   0  0  0  0  0  0
   -6.9600   18.8860   21.9850 O   0  0  0  0  0  0
   -4.7830   15.5080   19.9420 O   0  0  0  0  0  0
  -10.6875   16.5749   32.2702 H   0  0  0  0  0  0
   -9.0638   15.8596   32.5505 H   0  0  0  0  0  0
  -10.5327   14.8349   32.6887 H   0  0  0  0  0  0
  -10.2156   15.1439   28.1622 H   0  0  0  0  0  0
  -12.7668   16.9249   28.4940 H   0  0  0  0  0  0
  -12.4358   15.9419   27.0274 H   0  0  0  0  0  0
  -12.4548   14.6419   29.7813 H   0  0  0  0  0  0
  -14.5781   15.9446   29.5585 H   0  0  0  0  0  0
  -14.8880   15.1563   27.9744 H   0  0  0  0  0  0
  -14.6278   13.7366   30.6801 H   0  0  0  0  0  0
  -16.1533   14.0251   29.7767 H   0  0  0  0  0  0
  -15.2907   11.7085   29.4515 H   0  0  0  0  0  0
  -15.3366   12.6317   27.9113 H   0  0  0  0  0  0
  -12.8774   12.1205   29.6682 H   0  0  0  0  0  0
  -13.2257   11.3916   28.0638 H   0  0  0  0  0  0
  -13.1018   13.5855   26.9909 H   0  0  0  0  0  0
  -11.6034   13.2860   27.9352 H   0  0  0  0  0  0
  -10.2768   16.9897   26.5830 H   0  0  0  0  0  0
   -8.6963   18.3335   28.8001 H   0  0  0  0  0  0
   -8.1607   16.7217   28.2154 H   0  0  0  0  0  0
   -8.3695   19.2034   26.5334 H   0  0  0  0  0  0
   -6.7321   19.0632   28.4854 H   0  0  0  0  0  0
   -5.8821   16.7386   28.0596 H   0  0  0  0  0  0
   -4.5403   17.9296   27.9721 H   0  0  0  0  0  0
   -5.2509   17.2648   26.4623 H   0  0  0  0  0  0
   -6.4945   20.7127   26.5981 H   0  0  0  0  0  0
   -5.5923   19.4862   25.6449 H   0  0  0  0  0  0
   -4.8817   20.1509   27.1548 H   0  0  0  0  0  0
   -7.1849   16.0568   23.6585 H   0  0  0  0  0  0
   -9.6739   16.3121   23.4047 H   0  0  0  0  0  0
   -9.3935   17.7096   22.3117 H   0  0  0  0  0  0
   -8.0156   15.1393   21.6235 H   0  0  0  0  0  0
   -9.7987   15.2075   21.4176 H   0  0  0  0  0  0
   -4.8108   18.5997   20.9670 H   0  0  0  0  0  0
   -3.3551   17.4994   23.0035 H   0  0  0  0  0  0
   -2.6939   16.5373   21.6382 H   0  0  0  0  0  0
   -1.3752   18.2338   21.0331 H   0  0  0  0  0  0
   -2.7837   19.3410   20.9038 H   0  0  0  0  0  0
   -1.8195   20.4822   22.5842 H   0  0  0  0  0  0
   -2.3935   19.1561   23.6512 H   0  0  0  0  0  0
  -11.0222   17.0688   30.4092 H   0  0  0  0  0  0
   -8.1749   18.8526   24.4825 H   0  0  0  0  0  0
   -7.6412   14.9591   19.2906 H   0  0  0  0  0  0
   -7.9187   16.5085   18.2172 H   0  0  0  0  0  0
   -5.5260   16.0508   22.5302 H   0  0  0  0  0  0
   -3.8459   18.3175   18.7048 H   0  0  0  0  0  0
   -4.0743   16.6290   17.8523 H   0  0  0  0  0  0
    0.0276   18.0789   22.9632 H   0  0  0  0  0  0
    0.7877   21.9030   24.4881 H   0  0  0  0  0  0
    2.4142   20.4804   24.3818 H   0  0  0  0  0  0
    2.1952   18.7258   23.6724 H   0  0  0  0  0  0
  -12.0346   18.4059   27.7470 H   0  0  0  0  0  0
   -0.9710   21.4951   23.8793 H   0  0  0  0  0  0
  1  2  1  0  0  0
  1 43  1  0  0  0
  1 44  1  0  0  0
  1 45  1  0  0  0
  2 29  1  0  0  0
  2 37  2  0  0  0
  3  4  1  0  0  0
  3 11  1  0  0  0
  3 29  1  0  0  0
  3 46  1  0  0  0
  4  5  1  0  0  0
  4 47  1  0  0  0
  4 48  1  0  0  0
  5  6  1  0  0  0
  5 10  1  0  0  0
  5 49  1  0  0  0
  6  7  1  0  0  0
  6 50  1  0  0  0
  6 51  1  0  0  0
  7  8  1  0  0  0
  7 52  1  0  0  0
  7 53  1  0  0  0
  8  9  1  0  0  0
  8 54  1  0  0  0
  8 55  1  0  0  0
  9 10  1  0  0  0
  9 56  1  0  0  0
  9 57  1  0  0  0
 10 58  1  0  0  0
 10 59  1  0  0  0
 11 12  1  0  0  0
 11 38  1  0  0  0
 11 60  1  0  0  0
 12 13  1  0  0  0
 12 61  1  0  0  0
 12 62  1  0  0  0
 13 14  1  0  0  0
 13 17  1  0  0  0
 13 63  1  0  0  0
 14 15  1  0  0  0
 14 16  1  0  0  0
 14 64  1  0  0  0
 15 65  1  0  0  0
 15 66  1  0  0  0
 15 67  1  0  0  0
 16 68  1  0  0  0
 16 69  1  0  0  0
 16 70  1  0  0  0
 17 30  1  0  0  0
 17 39  2  0  0  0
 18 19  1  0  0  0
 18 22  1  0  0  0
 18 30  1  0  0  0
 18 71  1  0  0  0
 19 20  1  0  0  0
 19 72  1  0  0  0
 19 73  1  0  0  0
 20 21  1  0  0  0
 20 74  1  0  0  0
 20 75  1  0  0  0
 21 31  1  0  0  0
 21 40  2  0  0  0
 22 32  1  0  0  0
 22 41  2  0  0  0
 23 24  1  0  0  0
 23 25  1  0  0  0
 23 32  1  0  0  0
 23 76  1  0  0  0
 24 33  1  0  0  0
 24 42  2  0  0  0
 25 26  1  0  0  0
 25 77  1  0  0  0
 25 78  1  0  0  0
 26 27  1  0  0  0
 26 79  1  0  0  0
 26 80  1  0  0  0
 27 34  1  0  0  0
 27 81  1  0  0  0
 27 82  1  0  0  0
 28 36  1  0  0  0
 28 35  2  0  0  0
 28 34  1  0  0  0
 29 83  1  0  0  0
 30 84  1  0  0  0
 31 85  1  0  0  0
 31 86  1  0  0  0
 32 87  1  0  0  0
 33 88  1  0  0  0
 33 89  1  0  0  0
 34 90  1  0  0  0
 35 91  1  0  0  0
 35 95  1  0  0  0
 36 92  1  0  0  0
 36 93  1  0  0  0
 38 94  1  0  0  0
M  CHG  1  35   1
M  END
> <s_m_source_file>
../1gnm_ligand.sdf

> <i_m_source_file_index>
1

> <s_epik_input>
W0NIMl0xW0NIMl1bQ0gyXVtDSDJdW0NIMl1bQ0hdMVtDSDJdW0NASF0oW05IXUMoPU8pW0NIM10pW0NAQEhdKFtPSF0pW0NIMl1bQ0BASF0oW0NIXShbQ0gzXSlbQ0gzXSlDKD1PKVtOSF1bQ0BASF0oW0NIMl1bQ0gyXUMoPU8pW05IMl0pQyg9TylbTkhdW0NASF0oQyg9TylbTkgyXSlbQ0gyXVtDSDJdW0NIMl1bTkhdL0MoPU4vW0hdKVtOSDJd

> <s_epik_cmdline>
J2VwaWtfYXBwJywgJy1pbWFlJywgJ2xpZ2FuZF9wcm8ubWFlJywgJy1vbWFlJywgJ2xpZ2FuZF9wcmVwLm1hZScsICctbXMnLCAnMScsICctcGgnLCAnNycsICctcGh0JywgJzAuNScsICctbnQn

> <r_lp_tautomer_probability>
1

> <r_epik_Ionization_Penalty>
  0.0000

> <r_epik_Ionization_Penalty_Charging>
  0.0000

> <r_epik_Ionization_Penalty_Neutral>
  0.0000

> <r_epik_State_Penalty>
 -0.0000

> <r_epik_Charging_Adjusted_Penalty>
1.55754534873913e-05

> <i_epik_Tot_Q>
1

> <i_epik_Tot_abs_Q>
1

> <s_epik_Chemistry_Notes>
This compound has an imine and may undergo hydrolysis.

$$$$
