1gno_ligand
                    3D
 Schrodinger Suite 2020-3.
 95 95  0  0  1  0            999 V2000
  -10.6580   15.8380   32.1840 C   0  0  0  0  0  0
  -10.2920   15.5260   30.7320 C   0  0  0  0  0  0
  -10.8580   15.9720   28.3960 C   0  0  1  0  0  0
  -12.1480   15.7030   27.6380 C   0  0  0  0  0  0
  -13.0410   14.5040   28.0270 C   0  0  0  0  0  0
  -12.1770   13.2660   28.2840 C   0  0  0  0  0  0
  -13.0650   12.0760   28.6400 C   0  0  0  0  0  0
  -13.9120   12.3800   29.8790 C   0  0  0  0  0  0
  -14.7710   13.6310   29.6580 C   0  0  0  0  0  0
  -13.8950   14.8270   29.2670 C   0  0  0  0  0  0
  -10.4060   17.2960   27.7610 C   0  0  2  0  0  0
   -8.9050   17.5510   27.8090 C   0  0  0  0  0  0
   -8.1610   18.2170   26.6510 C   0  0  1  0  0  0
   -6.8790   18.8810   27.1530 C   0  0  0  0  0  0
   -5.6790   17.9340   27.1520 C   0  0  0  0  0  0
   -6.4590   20.0850   26.3060 C   0  0  0  0  0  0
   -7.7980   17.1670   25.6040 C   0  0  0  0  0  0
   -7.5590   16.7590   23.1990 C   0  0  1  0  0  0
   -8.8370   16.3650   22.4540 C   0  0  0  0  0  0
   -9.2150   17.3510   21.3470 C   0  0  0  0  0  0
   -8.7320   16.9150   19.9610 C   0  0  0  0  0  0
   -6.6430   17.5360   22.2540 C   0  0  0  0  0  0
   -4.6500   17.3860   20.8390 C   0  0  2  0  0  0
   -4.5800   16.5400   19.5670 C   0  0  0  0  0  0
   -3.2730   17.4010   21.5050 C   0  0  0  0  0  0
   -3.0540   18.6220   22.4000 C   0  0  0  0  0  0
   -1.5900   18.8180   22.7970 C   0  0  0  0  0  0
    0.3210   20.2910   22.2100 C   0  0  0  0  0  0
  -11.0620   16.1200   29.8420 N   0  0  0  0  0  0
   -7.8840   17.5980   24.3610 N   0  0  0  0  0  0
   -8.2410   15.7020   19.7840 N   0  0  0  0  0  0
   -5.6480   16.8260   21.7620 N   0  0  0  0  0  0
   -3.9870   17.0080   18.4600 N   0  0  0  0  0  0
   -0.9940   20.0310   22.2160 N   0  0  0  0  0  0
    1.1270   19.7980   23.1610 N   0  0  0  0  0  0
    0.9310   21.0430   21.2850 N   0  3  0  0  0  0
   -9.3530   14.7650   30.4570 O   0  0  0  0  0  0
  -11.0340   18.3910   28.4100 O   0  0  0  0  0  0
   -7.4630   16.0230   25.9400 O   0  0  0  0  0  0
   -8.8020   17.6930   19.0110 O   0  0  0  0  0  0
   -6.8540   18.7320   22.0030 O   0  0  0  0  0  0
   -5.0700   15.4020   19.5300 O   0  0  0  0  0  0
  -11.5137   16.5289   32.2061 H   0  0  0  0  0  0
   -9.7977   16.3036   32.6870 H   0  0  0  0  0  0
  -10.9258   14.9059   32.7030 H   0  0  0  0  0  0
  -10.1382   15.1410   28.3594 H   0  0  0  0  0  0
  -12.8163   16.5716   27.7318 H   0  0  0  0  0  0
  -11.9199   15.5290   26.5761 H   0  0  0  0  0  0
  -13.7226   14.2896   27.1907 H   0  0  0  0  0  0
  -11.5983   13.0285   27.3792 H   0  0  0  0  0  0
  -11.4880   13.4663   29.1178 H   0  0  0  0  0  0
  -13.7365   11.8546   27.7974 H   0  0  0  0  0  0
  -12.4357   11.1981   28.8478 H   0  0  0  0  0  0
  -14.5747   11.5273   30.0883 H   0  0  0  0  0  0
  -13.2514   12.5514   30.7417 H   0  0  0  0  0  0
  -15.4945   13.4412   28.8514 H   0  0  0  0  0  0
  -15.3109   13.8736   30.5852 H   0  0  0  0  0  0
  -13.2356   15.0724   30.1125 H   0  0  0  0  0  0
  -14.5473   15.6856   29.0495 H   0  0  0  0  0  0
  -10.7375   17.2755   26.7123 H   0  0  0  0  0  0
   -8.6715   18.2061   28.6612 H   0  0  0  0  0  0
   -8.3741   16.5946   27.9254 H   0  0  0  0  0  0
   -8.8153   18.9810   26.2058 H   0  0  0  0  0  0
   -7.1354   19.1898   28.1772 H   0  0  0  0  0  0
   -5.9165   17.0406   27.7482 H   0  0  0  0  0  0
   -4.8082   18.4452   27.5883 H   0  0  0  0  0  0
   -5.4489   17.6348   26.1188 H   0  0  0  0  0  0
   -7.2846   20.8108   26.2657 H   0  0  0  0  0  0
   -6.2157   19.7495   25.2871 H   0  0  0  0  0  0
   -5.5750   20.5598   26.7566 H   0  0  0  0  0  0
   -7.0545   15.8617   23.5867 H   0  0  0  0  0  0
   -8.7004   15.3778   21.9883 H   0  0  0  0  0  0
   -9.6767   16.3227   23.1633 H   0  0  0  0  0  0
  -10.3096   17.4495   21.3018 H   0  0  0  0  0  0
   -8.7671   18.3325   21.5615 H   0  0  0  0  0  0
   -4.9802   18.4090   20.6059 H   0  0  0  0  0  0
   -3.1587   16.5037   22.1309 H   0  0  0  0  0  0
   -2.4914   17.4102   20.7310 H   0  0  0  0  0  0
   -3.3803   19.5287   21.8695 H   0  0  0  0  0  0
   -3.6383   18.5082   23.3250 H   0  0  0  0  0  0
   -1.5147   18.9002   23.8913 H   0  0  0  0  0  0
   -0.9982   17.9572   22.4524 H   0  0  0  0  0  0
  -11.8834   16.7462   30.2203 H   0  0  0  0  0  0
   -8.2164   18.6362   24.2140 H   0  0  0  0  0  0
   -8.1777   15.0050   20.6327 H   0  0  0  0  0  0
   -7.8953   15.3885   18.7879 H   0  0  0  0  0  0
   -5.5823   15.7719   22.0696 H   0  0  0  0  0  0
   -3.5418   18.0139   18.4579 H   0  0  0  0  0  0
   -3.9455   16.3863   17.5535 H   0  0  0  0  0  0
   -1.6381   20.7914   21.7502 H   0  0  0  0  0  0
    2.2037   20.0220   23.1398 H   0  0  0  0  0  0
    0.7116   19.1695   23.9625 H   0  0  0  0  0  0
    2.0160   21.2141   21.3434 H   0  0  0  0  0  0
  -12.1301   18.4238   28.4969 H   0  0  0  0  0  0
    0.3470   21.4896   20.4667 H   0  0  0  0  0  0
  1  2  1  0  0  0
  1 43  1  0  0  0
  1 44  1  0  0  0
  1 45  1  0  0  0
  2 29  1  0  0  0
  2 37  2  0  0  0
  3  4  1  0  0  0
  3 11  1  0  0  0
  3 29  1  0  0  0
  3 46  1  0  0  0
  4  5  1  0  0  0
  4 47  1  0  0  0
  4 48  1  0  0  0
  5  6  1  0  0  0
  5 10  1  0  0  0
  5 49  1  0  0  0
  6  7  1  0  0  0
  6 50  1  0  0  0
  6 51  1  0  0  0
  7  8  1  0  0  0
  7 52  1  0  0  0
  7 53  1  0  0  0
  8  9  1  0  0  0
  8 54  1  0  0  0
  8 55  1  0  0  0
  9 10  1  0  0  0
  9 56  1  0  0  0
  9 57  1  0  0  0
 10 58  1  0  0  0
 10 59  1  0  0  0
 11 12  1  0  0  0
 11 38  1  0  0  0
 11 60  1  0  0  0
 12 13  1  0  0  0
 12 61  1  0  0  0
 12 62  1  0  0  0
 13 14  1  0  0  0
 13 17  1  0  0  0
 13 63  1  0  0  0
 14 15  1  0  0  0
 14 16  1  0  0  0
 14 64  1  0  0  0
 15 65  1  0  0  0
 15 66  1  0  0  0
 15 67  1  0  0  0
 16 68  1  0  0  0
 16 69  1  0  0  0
 16 70  1  0  0  0
 17 30  1  0  0  0
 17 39  2  0  0  0
 18 19  1  0  0  0
 18 22  1  0  0  0
 18 30  1  0  0  0
 18 71  1  0  0  0
 19 20  1  0  0  0
 19 72  1  0  0  0
 19 73  1  0  0  0
 20 21  1  0  0  0
 20 74  1  0  0  0
 20 75  1  0  0  0
 21 31  1  0  0  0
 21 40  2  0  0  0
 22 32  1  0  0  0
 22 41  2  0  0  0
 23 24  1  0  0  0
 23 25  1  0  0  0
 23 32  1  0  0  0
 23 76  1  0  0  0
 24 33  1  0  0  0
 24 42  2  0  0  0
 25 26  1  0  0  0
 25 77  1  0  0  0
 25 78  1  0  0  0
 26 27  1  0  0  0
 26 79  1  0  0  0
 26 80  1  0  0  0
 27 34  1  0  0  0
 27 81  1  0  0  0
 27 82  1  0  0  0
 28 36  2  0  0  0
 28 35  1  0  0  0
 28 34  1  0  0  0
 29 83  1  0  0  0
 30 84  1  0  0  0
 31 85  1  0  0  0
 31 86  1  0  0  0
 32 87  1  0  0  0
 33 88  1  0  0  0
 33 89  1  0  0  0
 34 90  1  0  0  0
 35 91  1  0  0  0
 35 92  1  0  0  0
 36 93  1  0  0  0
 36 95  1  0  0  0
 38 94  1  0  0  0
M  CHG  1  36   1
M  END
> <s_m_source_file>
../1gno_ligand.sdf

> <i_m_source_file_index>
1

> <s_epik_input>
W0NIMl0xW0NIMl1bQ0gyXVtDSDJdW0NIMl1bQ0hdMVtDSDJdW0NASF0oW05IXUMoPU8pW0NIM10pW0NAQEhdKFtPSF0pW0NIMl1bQ0BASF0oW0NIXShbQ0gzXSlbQ0gzXSlDKD1PKVtOSF1bQ0BASF0oW0NIMl1bQ0gyXUMoPU8pW05IMl0pQyg9TylbTkhdW0NASF0oQyg9TylbTkgyXSlbQ0gyXVtDSDJdW0NIMl1bTkhdL0MoW05IMl0pPU4vW0hd

> <s_epik_cmdline>
J2VwaWtfYXBwJywgJy1pbWFlJywgJ2xpZ2FuZF9wcm8ubWFlJywgJy1vbWFlJywgJ2xpZ2FuZF9wcmVwLm1hZScsICctbXMnLCAnMScsICctcGgnLCAnNycsICctcGh0JywgJzAuNScsICctbnQn

> <r_lp_tautomer_probability>
1

> <r_epik_Ionization_Penalty>
  0.0000

> <r_epik_Ionization_Penalty_Charging>
  0.0000

> <r_epik_Ionization_Penalty_Neutral>
  0.0000

> <r_epik_State_Penalty>
 -0.0000

> <r_epik_Charging_Adjusted_Penalty>
2.79368778836538e-06

> <i_epik_Tot_Q>
1

> <i_epik_Tot_abs_Q>
1

> <s_epik_Chemistry_Notes>
This compound has an imine and may undergo hydrolysis.

$$$$
