1gny_ligand
                    3D
 Schrodinger Suite 2020-3.
 88 92  0  0  1  0            999 V2000
   16.9700    2.3940    2.5870 O   0  0  0  0  0  0
   18.0050    2.1510    3.5270 C   0  0  1  0  0  0
   18.8490    1.0200    3.0380 C   0  0  1  0  0  0
   20.0890    0.8540    3.8950 C   0  0  2  0  0  0
   20.7560    2.2010    4.1140 C   0  0  1  0  0  0
   19.7220    3.1550    4.6560 C   0  0  0  0  0  0
   18.0220   -0.0940    3.2260 O   0  0  0  0  0  0
   21.0390   -0.0020    3.3130 O   0  0  0  0  0  0
   21.7980    2.0400    5.0400 O   0  0  0  0  0  0
   18.7630    3.2750    3.6330 O   0  0  0  0  0  0
   22.8160    3.0040    4.7810 C   0  0  1  0  0  0
   23.4820    3.2930    6.1170 C   0  0  1  0  0  0
   24.7370    4.1410    5.9260 C   0  0  2  0  0  0
   25.6140    3.5650    4.8100 C   0  0  1  0  0  0
   24.7520    3.3230    3.5870 C   0  0  0  0  0  0
   22.5890    4.0100    6.9640 O   0  0  0  0  0  0
   25.4760    4.2090    7.1360 O   0  0  0  0  0  0
   26.6090    4.5170    4.5090 O   0  0  0  0  0  0
   23.6710    2.4620    3.8720 O   0  0  0  0  0  0
   27.9330    4.0500    4.2260 C   0  0  1  0  0  0
   28.4330    4.8040    3.0080 C   0  0  1  0  0  0
   29.8540    4.3500    2.7290 C   0  0  2  0  0  0
   30.7220    4.5530    3.9530 C   0  0  1  0  0  0
   30.0570    3.8650    5.1230 C   0  0  0  0  0  0
   27.6180    4.5090    1.8770 O   0  0  0  0  0  0
   30.4440    5.1440    1.7150 O   0  0  0  0  0  0
   31.9990    3.9660    3.7120 O   0  0  0  0  0  0
   28.7050    4.3110    5.3000 O   0  0  0  0  0  0
   33.0500    4.6380    4.3550 C   0  0  1  0  0  0
   34.1470    3.6250    4.6070 C   0  0  1  0  0  0
   35.3930    4.2920    5.1400 C   0  0  2  0  0  0
   35.7420    5.4870    4.2810 C   0  0  1  0  0  0
   34.5070    6.3630    4.1560 C   0  0  0  0  0  0
   33.7140    2.6290    5.5220 O   0  0  0  0  0  0
   36.4860    3.3940    5.1910 O   0  0  0  0  0  0
   36.7620    6.1570    4.9770 O   0  0  0  0  0  0
   33.4450    5.6360    3.5590 O   0  0  0  0  0  0
   37.7690    6.7680    4.1390 C   0  0  1  0  0  0
   38.5850    7.7950    4.9230 C   0  0  1  0  0  0
   39.8990    8.2060    4.2410 C   0  0  2  0  0  0
   40.5150    7.1280    3.3640 C   0  0  1  0  0  0
   39.4630    6.2850    2.6660 C   0  0  0  0  0  0
   37.9020    9.0170    5.1560 O   0  0  0  0  0  0
   40.8400    8.5910    5.2280 O   0  0  0  0  0  0
   41.3200    7.7730    2.4030 O   0  0  0  0  0  0
   38.5710    5.7930    3.6400 O   0  0  0  0  0  0
   16.2384    3.1949    2.7693 H   0  0  0  0  0  0
   17.5774    1.9730    4.5247 H   0  0  0  0  0  0
   19.1452    1.1224    1.9836 H   0  0  0  0  0  0
   19.8002    0.3507    4.8295 H   0  0  0  0  0  0
   21.2339    2.6027    3.2083 H   0  0  0  0  0  0
   19.2844    2.7380    5.5750 H   0  0  0  0  0  0
   20.1970    4.1211    4.8817 H   0  0  0  0  0  0
   17.0650   -0.1655    2.6884 H   0  0  0  0  0  0
   20.7671   -1.0390    3.0666 H   0  0  0  0  0  0
   22.4434    3.9056    4.2728 H   0  0  0  0  0  0
   23.7083    2.3430    6.6233 H   0  0  0  0  0  0
   24.4597    5.1827    5.7071 H   0  0  0  0  0  0
   26.1452    2.6469    5.1013 H   0  0  0  0  0  0
   24.3464    4.2808    3.2290 H   0  0  0  0  0  0
   25.3608    2.8634    2.7944 H   0  0  0  0  0  0
   21.6153    3.5738    7.2316 H   0  0  0  0  0  0
   25.0023    4.5999    8.0486 H   0  0  0  0  0  0
   27.9714    2.9555    4.1233 H   0  0  0  0  0  0
   28.3562    5.8925    3.1470 H   0  0  0  0  0  0
   29.8274    3.3079    2.3778 H   0  0  0  0  0  0
   30.9062    5.6165    4.1653 H   0  0  0  0  0  0
   30.0441    2.7787    4.9505 H   0  0  0  0  0  0
   30.6177    4.0834    6.0438 H   0  0  0  0  0  0
   26.5483    4.7652    1.8881 H   0  0  0  0  0  0
   29.9979    5.1733    0.7100 H   0  0  0  0  0  0
   32.7133    5.1626    5.2613 H   0  0  0  0  0  0
   34.3691    3.0901    3.6718 H   0  0  0  0  0  0
   35.2395    4.5817    6.1900 H   0  0  0  0  0  0
   36.1355    5.2421    3.2834 H   0  0  0  0  0  0
   34.1939    6.7000    5.1552 H   0  0  0  0  0  0
   34.7394    7.2374    3.5303 H   0  0  0  0  0  0
   32.8155    2.0336    5.3024 H   0  0  0  0  0  0
   36.4076    2.4647    5.7743 H   0  0  0  0  0  0
   37.2873    7.2087    3.2537 H   0  0  0  0  0  0
   38.7318    7.3141    5.9014 H   0  0  0  0  0  0
   39.7053    9.0858    3.6098 H   0  0  0  0  0  0
   41.1653    6.4648    3.9533 H   0  0  0  0  0  0
   38.9205    6.9051    1.9372 H   0  0  0  0  0  0
   39.9505    5.4481    2.1445 H   0  0  0  0  0  0
   36.9154    9.0116    5.6424 H   0  0  0  0  0  0
   40.5792    9.3658    5.9640 H   0  0  0  0  0  0
   42.1408    8.4307    2.7251 H   0  0  0  0  0  0
  1  2  1  0  0  0
  1 47  1  0  0  0
  2 10  1  0  0  0
  2  3  1  0  0  0
  2 48  1  0  0  0
  3  7  1  0  0  0
  3  4  1  0  0  0
  3 49  1  0  0  0
  4  8  1  0  0  0
  4  5  1  0  0  0
  4 50  1  0  0  0
  5  9  1  0  0  0
  5  6  1  0  0  0
  5 51  1  0  0  0
  6 10  1  0  0  0
  6 52  1  0  0  0
  6 53  1  0  0  0
  7 54  1  0  0  0
  8 55  1  0  0  0
  9 11  1  0  0  0
 11 19  1  0  0  0
 11 12  1  0  0  0
 11 56  1  0  0  0
 12 16  1  0  0  0
 12 13  1  0  0  0
 12 57  1  0  0  0
 13 17  1  0  0  0
 13 14  1  0  0  0
 13 58  1  0  0  0
 14 18  1  0  0  0
 14 15  1  0  0  0
 14 59  1  0  0  0
 15 19  1  0  0  0
 15 60  1  0  0  0
 15 61  1  0  0  0
 16 62  1  0  0  0
 17 63  1  0  0  0
 18 20  1  0  0  0
 20 28  1  0  0  0
 20 21  1  0  0  0
 20 64  1  0  0  0
 21 25  1  0  0  0
 21 22  1  0  0  0
 21 65  1  0  0  0
 22 26  1  0  0  0
 22 23  1  0  0  0
 22 66  1  0  0  0
 23 27  1  0  0  0
 23 24  1  0  0  0
 23 67  1  0  0  0
 24 28  1  0  0  0
 24 68  1  0  0  0
 24 69  1  0  0  0
 25 70  1  0  0  0
 26 71  1  0  0  0
 27 29  1  0  0  0
 29 37  1  0  0  0
 29 30  1  0  0  0
 29 72  1  0  0  0
 30 34  1  0  0  0
 30 31  1  0  0  0
 30 73  1  0  0  0
 31 35  1  0  0  0
 31 32  1  0  0  0
 31 74  1  0  0  0
 32 36  1  0  0  0
 32 33  1  0  0  0
 32 75  1  0  0  0
 33 37  1  0  0  0
 33 76  1  0  0  0
 33 77  1  0  0  0
 34 78  1  0  0  0
 35 79  1  0  0  0
 36 38  1  0  0  0
 38 46  1  0  0  0
 38 39  1  0  0  0
 38 80  1  0  0  0
 39 43  1  0  0  0
 39 40  1  0  0  0
 39 81  1  0  0  0
 40 44  1  0  0  0
 40 41  1  0  0  0
 40 82  1  0  0  0
 41 45  1  0  0  0
 41 42  1  0  0  0
 41 83  1  0  0  0
 42 46  1  0  0  0
 42 84  1  0  0  0
 42 85  1  0  0  0
 43 86  1  0  0  0
 44 87  1  0  0  0
 45 88  1  0  0  0
M  END
> <s_m_source_file>
../1gny_ligand.sdf

> <i_m_source_file_index>
1

> <s_epik_input>
W09IXVtDQEhdMVtDQEhdKFtPSF0pW0NAQEhdKFtPSF0pW0NAQEhdKFtDSDJdTzEpT1tDQEhdMltDQEhdKFtPSF0pW0NAQEhdKFtPSF0pW0NAQEhdKFtDSDJdTzIpT1tDQEhdM1tDQEhdKFtPSF0pW0NAQEhdKFtPSF0pW0NAQEhdKFtDSDJdTzMpT1tDQEhdNFtDQEhdKFtPSF0pW0NAQEhdKFtPSF0pW0NAQEhdKFtDSDJdTzQpT1tDQEhdNVtDQEhdKFtPSF0pW0NAQEhdKFtPSF0pW0NAQEhdKFtDSDJdTzUpW09IXQ==

> <s_epik_cmdline>
J2VwaWtfYXBwJywgJy1pbWFlJywgJ2xpZ2FuZF9wcm8ubWFlJywgJy1vbWFlJywgJ2xpZ2FuZF9wcmVwLm1hZScsICctbXMnLCAnMScsICctcGgnLCAnNycsICctcGh0JywgJzAuNScsICctbnQn

> <r_lp_tautomer_probability>
1

> <r_epik_Ionization_Penalty>
  0.0000

> <r_epik_Ionization_Penalty_Charging>
  0.0000

> <r_epik_Ionization_Penalty_Neutral>
  0.0000

> <r_epik_State_Penalty>
 -0.0000

> <r_epik_Charging_Adjusted_Penalty>
0

> <i_epik_Tot_Q>
0

> <i_epik_Tot_abs_Q>
0

> <s_epik_Chemistry_Notes>
This compound contains an acetal/aminal-like group ( X-CH(R)-Y where X, Y are N, S, or O) that may be acid/base labile, releasing an aldehyde.

$$$$
