1gpy_ligand
                    3D
 Schrodinger Suite 2020-3.
 27 27  0  0  1  0            999 V2000
   23.9590    2.9920   52.6800 C   0  0  1  0  0  0
   23.6900    4.4090   52.4070 C   0  0  1  0  0  0
   24.4470    5.0010   51.3220 C   0  0  2  0  0  0
   25.8700    4.7550   51.3470 C   0  0  1  0  0  0
   26.1080    3.2840   51.4500 C   0  0  1  0  0  0
   27.6010    2.8340   51.3790 C   0  0  0  0  0  0
   23.1030    2.4170   51.6870 O   0  0  0  0  0  0
   22.3410    4.6640   51.9990 O   0  0  0  0  0  0
   24.3120    6.3730   51.4670 O   0  0  0  0  0  0
   26.2180    5.2660   50.0600 O   0  0  0  0  0  0
   25.4260    2.8050   52.6870 O   0  0  0  0  0  0
   28.6930    3.8090   51.5970 O   0  0  0  0  0  0
   30.2150    3.4000   51.0830 P   0  0  0  0  0  0
   30.1700    2.8320   49.6950 O   0  5  0  0  0  0
   30.8550    2.4670   52.0610 O   0  5  0  0  0  0
   30.9670    4.6770   51.0300 O   0  0  0  0  0  0
   23.7013    2.4984   53.6287 H   0  0  0  0  0  0
   23.9466    4.8618   53.3761 H   0  0  0  0  0  0
   24.0479    4.5997   50.3788 H   0  0  0  0  0  0
   26.4332    5.2355   52.1606 H   0  0  0  0  0  0
   25.6318    2.8336   50.5666 H   0  0  0  0  0  0
   27.7875    2.0610   52.1391 H   0  0  0  0  0  0
   27.8136    2.4250   50.3802 H   0  0  0  0  0  0
   22.0174    2.5890   51.7303 H   0  0  0  0  0  0
   21.5034    4.3286   52.6282 H   0  0  0  0  0  0
   23.3110    6.8288   51.4803 H   0  0  0  0  0  0
   26.0941    6.3369   49.8415 H   0  0  0  0  0  0
  1  2  1  0  0  0
  1  7  1  0  0  0
  1 11  1  0  0  0
  1 17  1  0  0  0
  2  3  1  0  0  0
  2  8  1  0  0  0
  2 18  1  0  0  0
  3  4  1  0  0  0
  3  9  1  0  0  0
  3 19  1  0  0  0
  4  5  1  0  0  0
  4 10  1  0  0  0
  4 20  1  0  0  0
  5  6  1  0  0  0
  5 11  1  0  0  0
  5 21  1  0  0  0
  6 12  1  0  0  0
  6 22  1  0  0  0
  6 23  1  0  0  0
  7 24  1  0  0  0
  8 25  1  0  0  0
  9 26  1  0  0  0
 10 27  1  0  0  0
 12 13  1  0  0  0
 13 14  1  0  0  0
 13 15  1  0  0  0
 13 16  2  0  0  0
M  CHG  2  14  -1  15  -1
M  END
> <s_m_source_file>
../1gpy_ligand.sdf

> <i_m_source_file_index>
1

> <s_epik_input>
W09IXVtDQEBIXTFbQ0BIXShbT0hdKVtDQEBIXShbT0hdKVtDQEhdKFtPSF0pW0NASF0oTzEpW0NIMl1PUCg9TykoW09IXSlbT0hd

> <s_epik_cmdline>
J2VwaWtfYXBwJywgJy1pbWFlJywgJ2xpZ2FuZF9wcm8ubWFlJywgJy1vbWFlJywgJ2xpZ2FuZF9wcmVwLm1hZScsICctbXMnLCAnMScsICctcGgnLCAnNycsICctcGh0JywgJzAuNScsICctbnQn

> <r_epik_Ionization_Penalty>
  0.1046

> <r_epik_Ionization_Penalty_Charging>
  0.1046

> <r_epik_Ionization_Penalty_Neutral>
  0.0000

> <r_epik_State_Penalty>
  0.0945

> <r_epik_Charging_Adjusted_Penalty>
0.19918344064553

> <i_epik_Tot_Q>
-2

> <i_epik_Tot_abs_Q>
2

> <s_epik_Chemistry_Notes>
This compound contains an acetal/aminal-like group ( X-CH(R)-Y where X, Y are N, S, or O) that may be acid/base labile, releasing an aldehyde.

$$$$
