1gqs_ligand
                    3D
 Schrodinger Suite 2020-3.
 28 28  0  0  1  0            999 V2000
    4.5940   67.3870   65.1590 C   0  0  0  0  0  0
    4.4330   66.8070   62.8020 C   0  0  0  0  0  0
    4.9620   68.0540   62.4570 C   0  0  0  0  0  0
    5.3440   69.0270   63.4270 C   0  0  0  0  0  0
    5.1430   68.6690   64.7860 C   0  0  0  0  0  0
    5.0720   68.2550   61.1270 O   0  0  0  0  0  0
    4.4100   63.7850   63.9790 N   0  3  0  0  0  0
    4.0240   62.6560   64.7300 C   0  0  0  0  0  0
    4.1670   63.2930   62.6380 C   0  0  0  0  0  0
    3.5870   65.0270   64.4630 C   0  0  1  0  0  0
    3.0370   64.8100   65.7840 C   0  0  0  0  0  0
    4.2290   66.4230   64.1260 C   0  0  0  0  0  0
    4.4523   67.1394   66.2110 H   0  0  0  0  0  0
    4.1705   66.1096   62.0065 H   0  0  0  0  0  0
    5.7662   69.9905   63.1413 H   0  0  0  0  0  0
    5.4100   69.3802   65.5677 H   0  0  0  0  0  0
    4.7613   67.4679   60.4242 H   0  0  0  0  0  0
    5.4717   64.0621   64.0565 H   0  0  0  0  0  0
    4.5981   61.7794   64.3955 H   0  0  0  0  0  0
    2.9500   62.4684   64.5842 H   0  0  0  0  0  0
    4.2228   62.8394   65.7962 H   0  0  0  0  0  0
    4.8136   62.4246   62.4433 H   0  0  0  0  0  0
    4.3902   64.0869   61.9101 H   0  0  0  0  0  0
    3.1127   62.9939   62.5426 H   0  0  0  0  0  0
    2.6235   65.0933   63.9365 H   0  0  0  0  0  0
    2.6319   63.7894   65.8494 H   0  0  0  0  0  0
    2.2323   65.5366   65.9700 H   0  0  0  0  0  0
    3.8288   64.9391   66.5366 H   0  0  0  0  0  0
  1  5  2  0  0  0
  1 12  1  0  0  0
  1 13  1  0  0  0
  2  3  1  0  0  0
  2 12  2  0  0  0
  2 14  1  0  0  0
  3  4  2  0  0  0
  3  6  1  0  0  0
  4  5  1  0  0  0
  4 15  1  0  0  0
  5 16  1  0  0  0
  6 17  1  0  0  0
  7  8  1  0  0  0
  7  9  1  0  0  0
  7 10  1  0  0  0
  7 18  1  0  0  0
  8 19  1  0  0  0
  8 20  1  0  0  0
  8 21  1  0  0  0
  9 22  1  0  0  0
  9 23  1  0  0  0
  9 24  1  0  0  0
 10 11  1  0  0  0
 10 12  1  0  0  0
 10 25  1  0  0  0
 11 26  1  0  0  0
 11 27  1  0  0  0
 11 28  1  0  0  0
M  CHG  1   7   1
M  END
> <s_m_source_file>
../1gqs_ligand.sdf

> <i_m_source_file_index>
1

> <s_epik_input>
W2NIXTFbY0hdW2NIXWMoW2NIXWMxW09IXSlbQ0BIXShbQ0gzXSlbTkgrXShbQ0gzXSlbQ0gzXQ==

> <s_epik_cmdline>
J2VwaWtfYXBwJywgJy1pbWFlJywgJ2xpZ2FuZF9wcm8ubWFlJywgJy1vbWFlJywgJ2xpZ2FuZF9wcmVwLm1hZScsICctbXMnLCAnMScsICctcGgnLCAnNycsICctcGh0JywgJzAuNScsICctbnQn

> <r_lp_tautomer_probability>
0.999999999997365

> <r_epik_Ionization_Penalty>
  0.0548

> <r_epik_Ionization_Penalty_Charging>
  0.0467

> <r_epik_Ionization_Penalty_Neutral>
  0.0081

> <r_epik_State_Penalty>
  0.0397

> <r_epik_Charging_Adjusted_Penalty>
0.0864497367474102

> <i_epik_Tot_Q>
1

> <i_epik_Tot_abs_Q>
1

$$$$
