1gsf_ligand
                    3D
 Schrodinger Suite 2020-3.
 30 30  0  0  1  0            999 V2000
   88.3190   27.9380   14.8870 C   0  0  0  0  0  0
   87.9030   29.1770   14.4270 O   0  0  0  0  0  0
   89.5140   27.3760   14.4540 C   0  0  0  0  0  0
   90.6280   28.3360   13.4790 Cl  0  0  0  0  0  0
   89.8600   26.0750   14.7670 C   0  0  0  0  0  0
   91.3830   25.4320   14.1560 Cl  0  0  0  0  0  0
   89.0290   25.2730   15.5380 C   0  0  0  0  0  0
   87.8620   25.8500   16.0180 C   0  0  0  0  0  0
   87.5200   27.1610   15.6980 C   0  0  0  0  0  0
   89.3290   23.8910   15.7610 C   0  0  0  0  0  0
   88.5420   23.0440   15.3240 O   0  0  0  0  0  0
   90.4860   23.5100   16.4790 C   0  0  0  0  0  0
   90.5260   23.8250   17.8620 C   0  0  0  0  0  0
   89.2370   23.6450   18.6760 C   0  0  0  0  0  0
   91.3800   22.8640   15.9580 C   0  0  0  0  0  0
   86.5960   29.6750   14.8530 C   0  0  0  0  0  0
   85.4390   29.0540   14.0450 C   0  0  0  0  0  0
   85.5860   27.9510   13.4650 O   0  5  0  0  0  0
   84.3550   29.6770   14.0310 O   0  0  0  0  0  0
   87.2005   25.2658   16.6577 H   0  0  0  0  0  0
   86.5983   27.5831   16.0984 H   0  0  0  0  0  0
   91.2722   23.1895   18.3614 H   0  0  0  0  0  0
   90.8009   24.8825   17.9894 H   0  0  0  0  0  0
   89.4223   23.9266   19.7231 H   0  0  0  0  0  0
   88.9182   22.5932   18.6301 H   0  0  0  0  0  0
   88.4469   24.2862   18.2581 H   0  0  0  0  0  0
   91.3344   22.6280   14.8846 H   0  0  0  0  0  0
   92.2318   22.5175   16.5616 H   0  0  0  0  0  0
   86.4387   29.4311   15.9140 H   0  0  0  0  0  0
   86.5575   30.7660   14.7180 H   0  0  0  0  0  0
  1  2  1  0  0  0
  1  3  2  0  0  0
  1  9  1  0  0  0
  2 16  1  0  0  0
  3  4  1  0  0  0
  3  5  1  0  0  0
  5  6  1  0  0  0
  5  7  2  0  0  0
  7  8  1  0  0  0
  7 10  1  0  0  0
  8  9  2  0  0  0
  8 20  1  0  0  0
  9 21  1  0  0  0
 10 11  2  0  0  0
 10 12  1  0  0  0
 12 13  1  0  0  0
 12 15  2  0  0  0
 13 14  1  0  0  0
 13 22  1  0  0  0
 13 23  1  0  0  0
 14 24  1  0  0  0
 14 25  1  0  0  0
 14 26  1  0  0  0
 15 27  1  0  0  0
 15 28  1  0  0  0
 16 17  1  0  0  0
 16 29  1  0  0  0
 16 30  1  0  0  0
 17 18  1  0  0  0
 17 19  2  0  0  0
M  CHG  1  18  -1
M  END
> <s_m_source_file>
../1gsf_ligand.sdf

> <i_m_source_file_index>
1

> <s_epik_input>
W09IXUMoPU8pW0NIMl1PYzFjKENsKWMoQ2wpYyhbY0hdW2NIXTEpQyg9TylDKD1bQ0gyXSlbQ0gyXVtDSDNd

> <s_epik_cmdline>
J2VwaWtfYXBwJywgJy1pbWFlJywgJ2xpZ2FuZF9wcm8ubWFlJywgJy1vbWFlJywgJ2xpZ2FuZF9wcmVwLm1hZScsICctbXMnLCAnMScsICctcGgnLCAnNycsICctcGh0JywgJzAuNScsICctbnQn

> <r_lp_tautomer_probability>
1

> <r_epik_Ionization_Penalty>
  0.0000

> <r_epik_Ionization_Penalty_Charging>
  0.0000

> <r_epik_Ionization_Penalty_Neutral>
  0.0000

> <r_epik_State_Penalty>
 -0.0000

> <r_epik_Charging_Adjusted_Penalty>
3.6670866336443e-05

> <i_epik_Tot_Q>
-1

> <i_epik_Tot_abs_Q>
1

$$$$
