1gsz_ligand
                    3D
 Schrodinger Suite 2020-3.
 56 57  0  0  1  0            999 V2000
   68.8470   72.7280   71.6980 C   0  0  0  0  0  0
   68.2980   71.3300   71.3830 C   0  0  0  0  0  0
   68.8730   70.3020   72.0110 O   0  0  0  0  0  0
   67.1500   71.0160   70.4170 C   0  0  0  0  0  0
   66.2770   69.8740   70.5730 C   0  0  0  0  0  0
   66.4160   69.0130   71.5790 F   0  0  0  0  0  0
   65.2380   69.6410   69.6400 C   0  0  0  0  0  0
   65.0400   70.5240   68.5470 C   0  0  0  0  0  0
   64.0150   70.2850   67.6440 O   0  0  0  0  0  0
   64.3350   69.4070   66.5670 C   0  0  0  0  0  0
   63.1820   69.4280   65.5630 C   0  0  0  0  0  0
   63.2180   70.7640   64.8040 C   0  0  0  0  0  0
   63.9320   70.5690   63.4590 C   0  0  0  0  0  0
   62.9600   69.9330   62.4620 C   0  0  0  0  0  0
   62.1340   71.0350   61.7900 C   0  0  0  0  0  0
   62.6720   71.3680   60.4710 N   0  3  2  0  0  0
   62.9220   72.8100   60.3860 C   0  0  0  0  0  0
   61.7140   70.9600   59.4190 C   0  0  0  0  0  0
   61.8200   69.5030   59.0230 C   0  0  0  0  0  0
   62.9840   68.9610   58.6510 C   0  0  0  0  0  0
   65.8920   71.6460   68.3920 C   0  0  0  0  0  0
   66.9320   71.8870   69.3160 C   0  0  0  0  0  0
   70.2580   72.9100   71.6960 C   0  0  0  0  0  0
   70.8300   74.1720   71.9960 C   0  0  0  0  0  0
   70.0010   75.2760   72.3040 C   0  0  0  0  0  0
   70.7820   76.9130   72.7140 Br  0  0  0  0  0  0
   68.5790   75.1180   72.3090 C   0  0  0  0  0  0
   68.0040   73.8470   72.0070 C   0  0  0  0  0  0
   64.5852   68.7767   69.7622 H   0  0  0  0  0  0
   65.2617   69.7458   66.0808 H   0  0  0  0  0  0
   64.4760   68.3873   66.9547 H   0  0  0  0  0  0
   63.2957   68.5925   64.8566 H   0  0  0  0  0  0
   62.2269   69.3273   66.0993 H   0  0  0  0  0  0
   62.1899   71.1126   64.6264 H   0  0  0  0  0  0
   63.7602   71.5111   65.4022 H   0  0  0  0  0  0
   64.2674   71.5445   63.0771 H   0  0  0  0  0  0
   64.8023   69.9107   63.5979 H   0  0  0  0  0  0
   63.5272   69.3797   61.6990 H   0  0  0  0  0  0
   62.2897   69.2416   62.9936 H   0  0  0  0  0  0
   61.0954   70.6930   61.6697 H   0  0  0  0  0  0
   62.1520   71.9397   62.4154 H   0  0  0  0  0  0
   63.6230   70.8330   60.3321 H   0  0  0  0  0  0
   63.6344   73.1055   61.1704 H   0  0  0  0  0  0
   61.9766   73.3548   60.5251 H   0  0  0  0  0  0
   63.3426   73.0516   59.3987 H   0  0  0  0  0  0
   60.6864   71.1263   59.7744 H   0  0  0  0  0  0
   61.8893   71.5570   58.5119 H   0  0  0  0  0  0
   60.9090   68.8869   59.0465 H   0  0  0  0  0  0
   63.8950   69.5771   58.6275 H   0  0  0  0  0  0
   63.0308   67.8989   58.3684 H   0  0  0  0  0  0
   65.7434   72.3272   67.5541 H   0  0  0  0  0  0
   67.5778   72.7549   69.1825 H   0  0  0  0  0  0
   70.9083   72.0675   71.4606 H   0  0  0  0  0  0
   71.9133   74.2921   71.9893 H   0  0  0  0  0  0
   67.9361   75.9665   72.5430 H   0  0  0  0  0  0
   66.9207   73.7261   72.0112 H   0  0  0  0  0  0
  1  2  1  0  0  0
  1 23  2  0  0  0
  1 28  1  0  0  0
  2  3  2  0  0  0
  2  4  1  0  0  0
  4  5  2  0  0  0
  4 22  1  0  0  0
  5  6  1  0  0  0
  5  7  1  0  0  0
  7  8  2  0  0  0
  7 29  1  0  0  0
  8  9  1  0  0  0
  8 21  1  0  0  0
  9 10  1  0  0  0
 10 11  1  0  0  0
 10 30  1  0  0  0
 10 31  1  0  0  0
 11 12  1  0  0  0
 11 32  1  0  0  0
 11 33  1  0  0  0
 12 13  1  0  0  0
 12 34  1  0  0  0
 12 35  1  0  0  0
 13 14  1  0  0  0
 13 36  1  0  0  0
 13 37  1  0  0  0
 14 15  1  0  0  0
 14 38  1  0  0  0
 14 39  1  0  0  0
 15 16  1  0  0  0
 15 40  1  0  0  0
 15 41  1  0  0  0
 16 17  1  0  0  0
 16 18  1  0  0  0
 16 42  1  0  0  0
 17 43  1  0  0  0
 17 44  1  0  0  0
 17 45  1  0  0  0
 18 19  1  0  0  0
 18 46  1  0  0  0
 18 47  1  0  0  0
 19 20  2  0  0  0
 19 48  1  0  0  0
 20 49  1  0  0  0
 20 50  1  0  0  0
 21 22  2  0  0  0
 21 51  1  0  0  0
 22 52  1  0  0  0
 23 24  1  0  0  0
 23 53  1  0  0  0
 24 25  2  0  0  0
 24 54  1  0  0  0
 25 26  1  0  0  0
 25 27  1  0  0  0
 27 28  2  0  0  0
 27 55  1  0  0  0
 28 56  1  0  0  0
M  CHG  1  16   1
M  END
> <s_m_source_file>
../1gsz_ligand.sdf

> <i_m_source_file_index>
1

> <s_epik_input>
W2NIXTFbY0hdYyhCcilbY0hdW2NIXWMxQyg9TyljMmMoRilbY0hdYyhbY0hdW2NIXTIpT1tDSDJdW0NIMl1bQ0gyXVtDSDJdW0NIMl1bQ0gyXVtOQEgrXShbQ0gzXSlbQ0gyXVtDSF09W0NIMl0=

> <s_epik_cmdline>
J2VwaWtfYXBwJywgJy1pbWFlJywgJ2xpZ2FuZF9wcm8ubWFlJywgJy1vbWFlJywgJ2xpZ2FuZF9wcmVwLm1hZScsICctbXMnLCAnMScsICctcGgnLCAnNycsICctcGh0JywgJzAuNScsICctbnQn

> <r_lp_tautomer_probability>
1

> <r_epik_Ionization_Penalty>
  0.0074

> <r_epik_Ionization_Penalty_Charging>
  0.0074

> <r_epik_Ionization_Penalty_Neutral>
  0.0000

> <r_epik_State_Penalty>
 -0.0000

> <r_epik_Charging_Adjusted_Penalty>
0.00742672456398508

> <i_epik_Tot_Q>
1

> <i_epik_Tot_abs_Q>
1

$$$$
