1gt1_ligand
                    3D
 Schrodinger Suite 2020-3.
 26 28  0  0  1  0            999 V2000
    0.5250   -0.6460    5.5240 C   0  0  0  0  0  0
    1.2540   -0.2730    4.4290 C   0  0  0  0  0  0
   -0.8690   -0.3490    5.6230 C   0  0  0  0  0  0
    0.6170    0.4430    3.3280 C   0  0  0  0  0  0
   -1.5200    0.3530    4.5620 C   0  0  0  0  0  0
   -0.7990    0.7510    3.4240 C   0  0  0  0  0  0
   -1.0660   -2.5210    9.9950 C   0  0  0  0  0  0
    0.2980   -2.8340    9.9370 C   0  0  0  0  0  0
   -1.7090   -1.8260    8.9450 C   0  0  0  0  0  0
    1.0110   -2.4360    8.8030 C   0  0  0  0  0  0
   -1.0110   -1.4370    7.8350 C   0  0  0  0  0  0
    0.3700   -1.7330    7.7390 C   0  0  0  0  0  0
    1.2090   -1.3390    6.5470 C   0  0  0  0  0  0
   -1.7260   -0.6900    6.7180 C   0  0  0  0  0  0
   -2.9900    0.6930    4.6210 N   0  0  0  0  0  0
    2.3163   -0.5116    4.3780 H   0  0  0  0  0  0
    1.1925    0.7405    2.4514 H   0  0  0  0  0  0
   -1.2993    1.2877    2.6179 H   0  0  0  0  0  0
   -1.6446   -2.8199   10.8691 H   0  0  0  0  0  0
    0.7874   -3.3705   10.7499 H   0  0  0  0  0  0
   -2.7721   -1.5978    9.0209 H   0  0  0  0  0  0
    2.0739   -2.6662    8.7298 H   0  0  0  0  0  0
    2.2714   -1.5737    6.4805 H   0  0  0  0  0  0
   -2.7863   -0.4393    6.7488 H   0  0  0  0  0  0
   -3.5881    0.3981    5.4958 H   0  0  0  0  0  0
   -3.4628    1.2356    3.7891 H   0  0  0  0  0  0
  1  2  2  0  0  0
  1  3  1  0  0  0
  1 13  1  0  0  0
  2  4  1  0  0  0
  2 16  1  0  0  0
  3  5  2  0  0  0
  3 14  1  0  0  0
  4  6  2  0  0  0
  4 17  1  0  0  0
  5  6  1  0  0  0
  5 15  1  0  0  0
  6 18  1  0  0  0
  7  8  1  0  0  0
  7  9  2  0  0  0
  7 19  1  0  0  0
  8 10  2  0  0  0
  8 20  1  0  0  0
  9 11  1  0  0  0
  9 21  1  0  0  0
 10 12  1  0  0  0
 10 22  1  0  0  0
 11 12  1  0  0  0
 11 14  2  0  0  0
 12 13  2  0  0  0
 13 23  1  0  0  0
 14 24  1  0  0  0
 15 25  1  0  0  0
 15 26  1  0  0  0
M  END
> <s_m_source_file>
../1gt1_ligand.sdf

> <i_m_source_file_index>
1

> <s_epik_input>
W2NIXTFbY0hdW2NIXWMoW05IMl0pYyhjMTIpW2NIXWMzYyhbY0hdMilbY0hdW2NIXVtjSF1bY0hdMw==

> <s_epik_cmdline>
J2VwaWtfYXBwJywgJy1pbWFlJywgJ2xpZ2FuZF9wcm8ubWFlJywgJy1vbWFlJywgJ2xpZ2FuZF9wcmVwLm1hZScsICctbXMnLCAnMScsICctcGgnLCAnNycsICctcGh0JywgJzAuNScsICctbnQn

> <r_lp_tautomer_probability>
1

> <r_epik_Ionization_Penalty>
  0.0007

> <r_epik_Ionization_Penalty_Charging>
  0.0000

> <r_epik_Ionization_Penalty_Neutral>
  0.0007

> <r_epik_State_Penalty>
 -0.0000

> <r_epik_Charging_Adjusted_Penalty>
0

> <i_epik_Tot_Q>
0

> <i_epik_Tot_abs_Q>
0

$$$$
