1gt3_ligand
                    3D
 Schrodinger Suite 2020-3.
 33 32  0  0  1  0            999 V2000
   -0.7240   -2.6430    9.7040 C   0  0  0  0  0  0
   -0.4720   -1.8490    8.5330 C   0  0  0  0  0  0
    0.2670   -2.3320    7.3310 C   0  0  1  0  0  0
    0.3680   -1.2400    6.2810 C   0  0  0  0  0  0
   -0.9000   -1.0280    5.5050 C   0  0  0  0  0  0
   -0.8590    0.3050    4.8190 C   0  0  0  0  0  0
   -1.8940    0.4780    3.7070 C   0  0  0  0  0  0
   -1.2740    1.1300    2.5510 C   0  0  0  0  0  0
   -2.9800    1.3770    4.2100 C   0  0  0  0  0  0
    1.6520   -2.7400    7.7470 C   0  0  0  0  0  0
   -2.5570   -0.7850    3.1920 O   0  0  0  0  0  0
   -1.2865   -2.0465   10.4373 H   0  0  0  0  0  0
    0.2326   -2.9595   10.1452 H   0  0  0  0  0  0
   -1.3110   -3.5307    9.4257 H   0  0  0  0  0  0
   -1.4286   -1.5325    8.0918 H   0  0  0  0  0  0
    0.1150   -0.9613    8.8112 H   0  0  0  0  0  0
   -0.2817   -3.1892    6.9138 H   0  0  0  0  0  0
    0.6170   -0.2854    6.7676 H   0  0  0  0  0  0
    1.1549   -1.4989    5.5572 H   0  0  0  0  0  0
   -1.0055   -1.8219    4.7510 H   0  0  0  0  0  0
   -1.7592   -1.0576    6.1913 H   0  0  0  0  0  0
   -1.0437    1.1017    5.5546 H   0  0  0  0  0  0
    0.1302    0.4513    4.3607 H   0  0  0  0  0  0
   -0.7773    2.0563    2.8753 H   0  0  0  0  0  0
   -2.0477    1.3699    1.8068 H   0  0  0  0  0  0
   -0.5315    0.4533    2.1029 H   0  0  0  0  0  0
   -2.5370    2.3079    4.5936 H   0  0  0  0  0  0
   -3.5291    0.8719    5.0183 H   0  0  0  0  0  0
   -3.6719    1.6118    3.3877 H   0  0  0  0  0  0
    1.5880   -3.5315    8.5082 H   0  0  0  0  0  0
    2.1802   -1.8706    8.1655 H   0  0  0  0  0  0
    2.2017   -3.1166    6.8718 H   0  0  0  0  0  0
   -1.9440   -1.5954    2.7706 H   0  0  0  0  0  0
  1  2  1  0  0  0
  1 12  1  0  0  0
  1 13  1  0  0  0
  1 14  1  0  0  0
  2  3  1  0  0  0
  2 15  1  0  0  0
  2 16  1  0  0  0
  3  4  1  0  0  0
  3 10  1  0  0  0
  3 17  1  0  0  0
  4  5  1  0  0  0
  4 18  1  0  0  0
  4 19  1  0  0  0
  5  6  1  0  0  0
  5 20  1  0  0  0
  5 21  1  0  0  0
  6  7  1  0  0  0
  6 22  1  0  0  0
  6 23  1  0  0  0
  7  8  1  0  0  0
  7  9  1  0  0  0
  7 11  1  0  0  0
  8 24  1  0  0  0
  8 25  1  0  0  0
  8 26  1  0  0  0
  9 27  1  0  0  0
  9 28  1  0  0  0
  9 29  1  0  0  0
 10 30  1  0  0  0
 10 31  1  0  0  0
 10 32  1  0  0  0
 11 33  1  0  0  0
M  END
> <s_m_source_file>
../1gt3_ligand.sdf

> <i_m_source_file_index>
1

> <s_epik_input>
W0NIM11bQ0gyXVtDQEhdKFtDSDNdKVtDSDJdW0NIMl1bQ0gyXUMoW0NIM10pKFtDSDNdKVtPSF0=

> <s_epik_cmdline>
J2VwaWtfYXBwJywgJy1pbWFlJywgJ2xpZ2FuZF9wcm8ubWFlJywgJy1vbWFlJywgJ2xpZ2FuZF9wcmVwLm1hZScsICctbXMnLCAnMScsICctcGgnLCAnNycsICctcGh0JywgJzAuNScsICctbnQn

> <r_lp_tautomer_probability>
1

> <r_epik_Ionization_Penalty>
  0.0000

> <r_epik_Ionization_Penalty_Charging>
  0.0000

> <r_epik_Ionization_Penalty_Neutral>
  0.0000

> <r_epik_State_Penalty>
 -0.0000

> <r_epik_Charging_Adjusted_Penalty>
0

> <i_epik_Tot_Q>
0

> <i_epik_Tot_abs_Q>
0

$$$$
