1gt4_ligand
                    3D
 Schrodinger Suite 2020-3.
 34 33  0  0  1  0            999 V2000
    0.3270   -0.6110    4.0530 C   0  0  0  0  0  0
    0.7400    0.7480    4.0240 C   0  0  0  0  0  0
   -0.4410    1.4870    3.4850 C   0  0  0  0  0  0
   -1.2870    0.9060    2.3390 C   0  0  0  0  0  0
   -2.0830   -0.3720    2.4620 C   0  0  0  0  0  0
   -3.3270   -0.4150    3.3690 C   0  0  0  0  0  0
   -3.0150   -0.7000    4.8570 C   0  0  0  0  0  0
   -1.7760   -0.1000    5.6070 C   0  0  0  0  0  0
   -1.8700   -0.1860    7.0830 C   0  0  0  0  0  0
   -0.4990   -0.4690    7.5560 C   0  0  0  0  0  0
   -0.1480   -1.8300    7.4530 C   0  0  0  0  0  0
   -0.4070   -2.5440    8.4170 O   0  0  0  0  0  0
    1.1455   -1.2347    4.4416 H   0  0  0  0  0  0
    0.0687   -0.9375    3.0348 H   0  0  0  0  0  0
   -0.5530   -0.7129    4.7051 H   0  0  0  0  0  0
    0.9983    1.0745    5.0422 H   0  0  0  0  0  0
    1.6200    0.8500    3.3720 H   0  0  0  0  0  0
   -1.1748    1.6423    4.2896 H   0  0  0  0  0  0
   -0.1157    2.4617    3.0923 H   0  0  0  0  0  0
   -2.0590    1.6335    2.0479 H   0  0  0  0  0  0
   -0.6389    0.6940    1.4758 H   0  0  0  0  0  0
   -2.4634   -0.6637    1.4720 H   0  0  0  0  0  0
   -1.4367   -1.1701    2.8562 H   0  0  0  0  0  0
   -3.8450    0.5545    3.3271 H   0  0  0  0  0  0
   -4.0057   -1.2086    3.0231 H   0  0  0  0  0  0
   -3.8531   -0.3545    5.4801 H   0  0  0  0  0  0
   -2.8723   -1.7811    5.0012 H   0  0  0  0  0  0
   -0.8674   -0.6421    5.3060 H   0  0  0  0  0  0
   -1.6708    0.9640    5.3484 H   0  0  0  0  0  0
   -2.2417    0.7689    7.4830 H   0  0  0  0  0  0
   -2.5631   -0.9941    7.3598 H   0  0  0  0  0  0
    0.2217    0.1070    6.9570 H   0  0  0  0  0  0
   -0.4093   -0.1812    8.6139 H   0  0  0  0  0  0
    0.3359   -2.2606    6.5639 H   0  0  0  0  0  0
  1  2  1  0  0  0
  1 13  1  0  0  0
  1 14  1  0  0  0
  1 15  1  0  0  0
  2  3  1  0  0  0
  2 16  1  0  0  0
  2 17  1  0  0  0
  3  4  1  0  0  0
  3 18  1  0  0  0
  3 19  1  0  0  0
  4  5  1  0  0  0
  4 20  1  0  0  0
  4 21  1  0  0  0
  5  6  1  0  0  0
  5 22  1  0  0  0
  5 23  1  0  0  0
  6  7  1  0  0  0
  6 24  1  0  0  0
  6 25  1  0  0  0
  7  8  1  0  0  0
  7 26  1  0  0  0
  7 27  1  0  0  0
  8  9  1  0  0  0
  8 28  1  0  0  0
  8 29  1  0  0  0
  9 10  1  0  0  0
  9 30  1  0  0  0
  9 31  1  0  0  0
 10 11  1  0  0  0
 10 32  1  0  0  0
 10 33  1  0  0  0
 11 12  2  0  0  0
 11 34  1  0  0  0
M  END
> <s_m_source_file>
../1gt4_ligand.sdf

> <i_m_source_file_index>
1

> <s_epik_input>
W0NIM11bQ0gyXVtDSDJdW0NIMl1bQ0gyXVtDSDJdW0NIMl1bQ0gyXVtDSDJdW0NIMl1bQ0hdPU8=

> <s_epik_cmdline>
J2VwaWtfYXBwJywgJy1pbWFlJywgJ2xpZ2FuZF9wcm8ubWFlJywgJy1vbWFlJywgJ2xpZ2FuZF9wcmVwLm1hZScsICctbXMnLCAnMScsICctcGgnLCAnNycsICctcGh0JywgJzAuNScsICctbnQn

> <r_lp_tautomer_probability>
1

> <r_epik_Ionization_Penalty>
  0.0000

> <r_epik_Ionization_Penalty_Charging>
  0.0000

> <r_epik_Ionization_Penalty_Neutral>
  0.0000

> <r_epik_State_Penalty>
 -0.0000

> <r_epik_Charging_Adjusted_Penalty>
0

> <i_epik_Tot_Q>
0

> <i_epik_Tot_abs_Q>
0

$$$$
