1gt5_ligand
                    3D
 Schrodinger Suite 2020-3.
 26 27  0  0  1  0            999 V2000
   -0.1140    0.5560    2.9820 C   0  0  0  0  0  0
   -1.5400    0.3940    2.8730 C   0  0  0  0  0  0
   -2.2670   -0.1870    3.9430 C   0  0  0  0  0  0
   -1.5650   -0.6050    5.1190 C   0  0  0  0  0  0
   -0.1380   -0.4520    5.2400 C   0  0  0  0  0  0
    0.5570    0.1360    4.1510 C   0  0  0  0  0  0
    0.6590   -0.8800    6.4570 C   0  0  0  0  0  0
   -1.0690   -1.0880    8.3280 C   0  0  0  0  0  0
    0.1280   -1.5230    7.7300 C   0  0  0  0  0  0
    0.8500   -2.5770    8.3550 C   0  0  0  0  0  0
    0.3750   -3.1650    9.5360 C   0  0  0  0  0  0
   -0.8180   -2.7200   10.1140 C   0  0  0  0  0  0
   -1.5510   -1.6710    9.5060 C   0  0  0  0  0  0
    2.0550   -0.6750    6.4300 O   0  0  0  0  0  0
    0.4479    1.0030    2.1619 H   0  0  0  0  0  0
   -2.0595    0.7169    1.9708 H   0  0  0  0  0  0
   -3.3472   -0.3139    3.8711 H   0  0  0  0  0  0
   -2.1240   -1.0496    5.9423 H   0  0  0  0  0  0
    1.6370    0.2667    4.2190 H   0  0  0  0  0  0
    0.5164    0.1164    6.9008 H   0  0  0  0  0  0
   -1.6335   -0.2793    7.8639 H   0  0  0  0  0  0
    1.7809   -2.9309    7.9120 H   0  0  0  0  0  0
    0.9378   -3.9720   10.0053 H   0  0  0  0  0  0
   -1.1839   -3.1800   11.0320 H   0  0  0  0  0  0
   -2.4821   -1.3209    9.9516 H   0  0  0  0  0  0
    2.5265   -0.2155    5.5488 H   0  0  0  0  0  0
  1  2  2  0  0  0
  1  6  1  0  0  0
  1 15  1  0  0  0
  2  3  1  0  0  0
  2 16  1  0  0  0
  3  4  2  0  0  0
  3 17  1  0  0  0
  4  5  1  0  0  0
  4 18  1  0  0  0
  5  6  2  0  0  0
  5  7  1  0  0  0
  6 19  1  0  0  0
  7  9  1  0  0  0
  7 14  1  0  0  0
  7 20  1  0  0  0
  8 13  2  0  0  0
  8  9  1  0  0  0
  8 21  1  0  0  0
  9 10  2  0  0  0
 10 11  1  0  0  0
 10 22  1  0  0  0
 11 12  2  0  0  0
 11 23  1  0  0  0
 12 13  1  0  0  0
 12 24  1  0  0  0
 13 25  1  0  0  0
 14 26  1  0  0  0
M  END
> <s_m_source_file>
../1gt5_ligand.sdf

> <i_m_source_file_index>
1

> <s_epik_input>
W2NIXTFbY0hdW2NIXVtjSF1bY0hdYzFbQ0hdKFtPSF0pYzJbY0hdW2NIXVtjSF1bY0hdW2NIXTI=

> <s_epik_cmdline>
J2VwaWtfYXBwJywgJy1pbWFlJywgJ2xpZ2FuZF9wcm8ubWFlJywgJy1vbWFlJywgJ2xpZ2FuZF9wcmVwLm1hZScsICctbXMnLCAnMScsICctcGgnLCAnNycsICctcGh0JywgJzAuNScsICctbnQn

> <r_lp_tautomer_probability>
1

> <r_epik_Ionization_Penalty>
  0.0000

> <r_epik_Ionization_Penalty_Charging>
  0.0000

> <r_epik_Ionization_Penalty_Neutral>
  0.0000

> <r_epik_State_Penalty>
 -0.0000

> <r_epik_Charging_Adjusted_Penalty>
0

> <i_epik_Tot_Q>
0

> <i_epik_Tot_abs_Q>
0

$$$$
