1gu3_ligand
                    3D
 Schrodinger Suite 2020-3.
108112  0  0  1  0            999 V2000
  -10.9960   33.3410   27.0270 C   0  0  2  0  0  0
  -12.0380   32.5920   26.1870 C   0  0  2  0  0  0
  -11.4940   31.2460   25.6530 C   0  0  1  0  0  0
  -10.7080   30.4530   26.7180 C   0  0  1  0  0  0
   -9.9570   29.2910   26.0640 C   0  0  0  0  0  0
  -10.4670   32.3720   28.0840 C   0  0  2  0  0  0
   -9.5620   33.0310   28.9450 O   0  0  0  0  0  0
  -11.6040   34.4340   27.6620 O   0  0  0  0  0  0
  -12.5950   33.3870   25.1410 O   0  0  0  0  0  0
  -12.5660   30.4710   25.1490 O   0  0  0  0  0  0
   -9.8080   31.2900   27.4520 O   0  0  0  0  0  0
   -9.9680   28.1570   26.8950 O   0  0  0  0  0  0
  -13.3270   29.1170   23.2060 C   0  0  2  0  0  0
  -13.5360   29.0460   21.6800 C   0  0  2  0  0  0
  -13.9470   30.3870   21.0950 C   0  0  1  0  0  0
  -12.9580   31.4230   21.6270 C   0  0  1  0  0  0
  -13.2620   32.8240   21.0840 C   0  0  0  0  0  0
  -12.4910   30.3070   23.6880 C   0  0  1  0  0  0
  -12.7300   27.9100   23.6160 O   0  0  0  0  0  0
  -14.6080   28.1790   21.4200 O   0  0  0  0  0  0
  -13.8420   30.3240   19.6900 O   0  0  0  0  0  0
  -13.0000   31.4330   23.0500 O   0  0  0  0  0  0
  -14.4770   33.3490   21.6200 O   0  0  0  0  0  0
  -15.0420   30.5070   17.6190 C   0  0  2  0  0  0
  -16.3110   30.0590   16.9010 C   0  0  2  0  0  0
  -16.5480   28.5510   17.0020 C   0  0  1  0  0  0
  -16.3860   28.0520   18.4250 C   0  0  1  0  0  0
  -16.5820   26.5340   18.4690 C   0  0  0  0  0  0
  -15.0030   29.8550   18.9980 C   0  0  1  0  0  0
  -14.9790   31.9060   17.7410 O   0  0  0  0  0  0
  -16.1750   30.3290   15.5310 O   0  0  0  0  0  0
  -17.8490   28.2170   16.6030 O   0  0  0  0  0  0
  -15.0750   28.4420   18.8540 O   0  0  0  0  0  0
  -15.7150   25.9250   17.5310 O   0  0  0  0  0  0
  -19.5640   27.3320   15.1450 C   0  0  2  0  0  0
  -19.8570   26.7400   13.7590 C   0  0  2  0  0  0
  -19.1330   27.5110   12.6330 C   0  0  1  0  0  0
  -17.6540   27.6530   13.0130 C   0  0  1  0  0  0
  -16.8880   28.4880   11.9980 C   0  0  0  0  0  0
  -18.0590   27.5650   15.3340 C   0  0  1  0  0  0
  -20.0690   26.4240   16.0940 O   0  0  0  0  0  0
  -21.2630   26.6550   13.5890 O   0  0  0  0  0  0
  -19.2400   26.7780   11.4220 O   0  0  0  0  0  0
  -17.5660   28.3120   14.2560 O   0  0  0  0  0  0
  -17.5820   29.7320   11.8350 O   0  0  0  0  0  0
  -19.3360   26.6400    9.1150 C   0  0  2  0  0  0
  -19.7200   27.3990    7.8430 C   0  0  2  0  0  0
  -21.1550   27.9760    7.9630 C   0  0  1  0  0  0
  -21.4030   28.7540    9.2680 C   0  0  1  0  0  0
  -22.8760   28.9970    9.5430 C   0  0  0  0  0  0
  -19.6090   27.5500   10.2910 C   0  0  1  0  0  0
  -17.9830   26.2070    9.1510 O   0  0  0  0  0  0
  -19.5360   26.5260    6.7280 O   0  0  0  0  0  0
  -21.4030   28.6920    6.7960 O   0  0  0  0  0  0
  -20.9680   27.9110   10.3330 O   0  0  0  0  0  0
  -23.6220   27.7990    9.4610 O   0  0  0  0  0  0
  -10.1956   33.7873   26.4186 H   0  0  0  0  0  0
  -12.9203   32.4222   26.8215 H   0  0  0  0  0  0
  -10.8380   31.4215   24.7876 H   0  0  0  0  0  0
  -11.3916   30.0832   27.4964 H   0  0  0  0  0  0
  -10.4384   29.0346   25.1088 H   0  0  0  0  0  0
   -8.9131   29.5857   25.8810 H   0  0  0  0  0  0
  -11.2612   31.9530   28.7194 H   0  0  0  0  0  0
   -9.8931   33.9034   29.5275 H   0  0  0  0  0  0
  -12.0470   35.2422   27.0616 H   0  0  0  0  0  0
  -13.0225   34.3746   25.3689 H   0  0  0  0  0  0
   -9.4692   27.2321   26.5699 H   0  0  0  0  0  0
  -14.3018   29.1871   23.7109 H   0  0  0  0  0  0
  -12.6283   28.6577   21.1948 H   0  0  0  0  0  0
  -14.9975   30.6439   21.2960 H   0  0  0  0  0  0
  -11.9308   31.1345   21.3592 H   0  0  0  0  0  0
  -12.4427   33.5071   21.3527 H   0  0  0  0  0  0
  -13.3585   32.7799   19.9891 H   0  0  0  0  0  0
  -11.4239   30.2319   23.4317 H   0  0  0  0  0  0
  -13.1976   26.9489   23.3558 H   0  0  0  0  0  0
  -14.5589   27.1301   21.7476 H   0  0  0  0  0  0
  -14.8239   34.3488   21.3198 H   0  0  0  0  0  0
  -14.1486   30.2781   17.0195 H   0  0  0  0  0  0
  -17.1597   30.6330   17.3014 H   0  0  0  0  0  0
  -15.8667   28.0412   16.3049 H   0  0  0  0  0  0
  -17.0917   28.5178   19.1285 H   0  0  0  0  0  0
  -16.3517   26.1637   19.4789 H   0  0  0  0  0  0
  -17.6253   26.2916   18.2186 H   0  0  0  0  0  0
  -15.8457   30.0894   19.6650 H   0  0  0  0  0  0
  -14.9960   32.5379   16.8408 H   0  0  0  0  0  0
  -15.9943   31.3586   15.1886 H   0  0  0  0  0  0
  -15.7106   24.8311   17.4155 H   0  0  0  0  0  0
  -20.0923   28.2788   15.3303 H   0  0  0  0  0  0
  -19.5374   25.6900   13.6851 H   0  0  0  0  0  0
  -19.5968   28.4858   12.4219 H   0  0  0  0  0  0
  -17.1948   26.6597   13.1247 H   0  0  0  0  0  0
  -15.8672   28.6675   12.3665 H   0  0  0  0  0  0
  -16.8425   27.9496   11.0398 H   0  0  0  0  0  0
  -17.4356   26.6587   15.3324 H   0  0  0  0  0  0
  -21.1358   26.1560   16.0854 H   0  0  0  0  0  0
  -21.8762   26.1270   14.3341 H   0  0  0  0  0  0
  -17.1945   30.4909   11.1394 H   0  0  0  0  0  0
  -19.8752   25.6824    9.1615 H   0  0  0  0  0  0
  -19.0355   28.2319    7.6243 H   0  0  0  0  0  0
  -21.9419   27.2075    7.9479 H   0  0  0  0  0  0
  -20.8560   29.7081    9.2438 H   0  0  0  0  0  0
  -22.9964   29.4139   10.5538 H   0  0  0  0  0  0
  -23.2748   29.7071    8.8036 H   0  0  0  0  0  0
  -19.0843   28.5168   10.2932 H   0  0  0  0  0  0
  -17.5999   25.5341    8.3697 H   0  0  0  0  0  0
  -18.5551   26.0613    6.5493 H   0  0  0  0  0  0
  -21.2526   28.2156    5.8160 H   0  0  0  0  0  0
  -24.7078   27.8142    9.6363 H   0  0  0  0  0  0
  1  2  1  0  0  0
  1  6  1  0  0  0
  1  8  1  0  0  0
  1 57  1  0  0  0
  2  3  1  0  0  0
  2  9  1  0  0  0
  2 58  1  0  0  0
  3  4  1  0  0  0
  3 10  1  0  0  0
  3 59  1  0  0  0
  4  5  1  0  0  0
  4 11  1  0  0  0
  4 60  1  0  0  0
  5 12  1  0  0  0
  5 61  1  0  0  0
  5 62  1  0  0  0
  6  7  1  0  0  0
  6 11  1  0  0  0
  6 63  1  0  0  0
  7 64  1  0  0  0
  8 65  1  0  0  0
  9 66  1  0  0  0
 10 18  1  0  0  0
 12 67  1  0  0  0
 13 14  1  0  0  0
 13 18  1  0  0  0
 13 19  1  0  0  0
 13 68  1  0  0  0
 14 15  1  0  0  0
 14 20  1  0  0  0
 14 69  1  0  0  0
 15 16  1  0  0  0
 15 21  1  0  0  0
 15 70  1  0  0  0
 16 17  1  0  0  0
 16 22  1  0  0  0
 16 71  1  0  0  0
 17 23  1  0  0  0
 17 72  1  0  0  0
 17 73  1  0  0  0
 18 22  1  0  0  0
 18 74  1  0  0  0
 19 75  1  0  0  0
 20 76  1  0  0  0
 21 29  1  0  0  0
 23 77  1  0  0  0
 24 25  1  0  0  0
 24 29  1  0  0  0
 24 30  1  0  0  0
 24 78  1  0  0  0
 25 26  1  0  0  0
 25 31  1  0  0  0
 25 79  1  0  0  0
 26 27  1  0  0  0
 26 32  1  0  0  0
 26 80  1  0  0  0
 27 28  1  0  0  0
 27 33  1  0  0  0
 27 81  1  0  0  0
 28 34  1  0  0  0
 28 82  1  0  0  0
 28 83  1  0  0  0
 29 33  1  0  0  0
 29 84  1  0  0  0
 30 85  1  0  0  0
 31 86  1  0  0  0
 32 40  1  0  0  0
 34 87  1  0  0  0
 35 36  1  0  0  0
 35 40  1  0  0  0
 35 41  1  0  0  0
 35 88  1  0  0  0
 36 37  1  0  0  0
 36 42  1  0  0  0
 36 89  1  0  0  0
 37 38  1  0  0  0
 37 43  1  0  0  0
 37 90  1  0  0  0
 38 39  1  0  0  0
 38 44  1  0  0  0
 38 91  1  0  0  0
 39 45  1  0  0  0
 39 92  1  0  0  0
 39 93  1  0  0  0
 40 44  1  0  0  0
 40 94  1  0  0  0
 41 95  1  0  0  0
 42 96  1  0  0  0
 43 51  1  0  0  0
 45 97  1  0  0  0
 46 47  1  0  0  0
 46 51  1  0  0  0
 46 52  1  0  0  0
 46 98  1  0  0  0
 47 48  1  0  0  0
 47 53  1  0  0  0
 47 99  1  0  0  0
 48 49  1  0  0  0
 48 54  1  0  0  0
 48100  1  0  0  0
 49 50  1  0  0  0
 49 55  1  0  0  0
 49101  1  0  0  0
 50 56  1  0  0  0
 50102  1  0  0  0
 50103  1  0  0  0
 51 55  1  0  0  0
 51104  1  0  0  0
 52105  1  0  0  0
 53106  1  0  0  0
 54107  1  0  0  0
 56108  1  0  0  0
M  END
> <s_m_source_file>
../1gu3_ligand.sdf

> <i_m_source_file_index>
1

> <s_epik_input>
W09IXVtDQEBIXTFPW0NASF0oW0NIMl1bT0hdKVtDQEhdKFtDQEhdKFtPSF0pW0NASF0xW09IXSlPW0NAQEhdMk9bQ0BIXShbQ0gyXVtPSF0pW0NASF0oW0NASF0oW09IXSlbQ0BIXTJbT0hdKU9bQ0BASF0zT1tDQEhdKFtDSDJdW09IXSlbQ0BIXShbQ0BIXShbT0hdKVtDQEhdM1tPSF0pT1tDQEBIXTRPW0NASF0oW0NIMl1bT0hdKVtDQEhdKFtDQEhdKFtPSF0pW0NASF00W09IXSlPW0NAQEhdNU9bQ0BIXShbQ0gyXVtPSF0pW0NAQEhdKFtPSF0pW0NASF0oW09IXSlbQ0BIXTVbT0hd

> <s_epik_cmdline>
J2VwaWtfYXBwJywgJy1pbWFlJywgJ2xpZ2FuZF9wcm8ubWFlJywgJy1vbWFlJywgJ2xpZ2FuZF9wcmVwLm1hZScsICctbXMnLCAnMScsICctcGgnLCAnNycsICctcGh0JywgJzAuNScsICctbnQn

> <r_lp_tautomer_probability>
1

> <r_epik_Ionization_Penalty>
  0.0000

> <r_epik_Ionization_Penalty_Charging>
  0.0000

> <r_epik_Ionization_Penalty_Neutral>
  0.0000

> <r_epik_State_Penalty>
 -0.0000

> <r_epik_Charging_Adjusted_Penalty>
0

> <i_epik_Tot_Q>
0

> <i_epik_Tot_abs_Q>
0

> <s_epik_Chemistry_Notes>
This compound contains an acetal/aminal-like group ( X-CH(R)-Y where X, Y are N, S, or O) that may be acid/base labile, releasing an aldehyde.

$$$$
