1gui_ligand
                    3D
 Schrodinger Suite 2020-3.
129134  0  0  1  0            999 V2000
   59.2470   27.2410    4.7390 C   0  0  2  0  0  0
   60.6670   27.4420    5.2820 C   0  0  2  0  0  0
   60.6940   28.4990    6.3920 C   0  0  1  0  0  0
   59.5160   28.3440    7.3980 C   0  0  1  0  0  0
   59.5260   29.5110    8.3830 C   0  0  0  0  0  0
   58.1860   27.1070    5.8610 C   0  0  1  0  0  0
   59.2660   26.0600    3.9760 O   0  0  0  0  0  0
   61.5810   27.8280    4.2730 O   0  0  0  0  0  0
   62.0050   28.5320    6.9880 O   0  0  0  0  0  0
   58.2110   28.1850    6.7920 O   0  0  0  0  0  0
   58.4790   30.3900    8.0580 O   0  0  0  0  0  0
   55.2760   25.3590    6.3900 C   0  0  2  0  0  0
   55.3160   26.8770    6.3570 C   0  0  2  0  0  0
   54.0930   27.5050    5.6590 C   0  0  1  0  0  0
   52.7370   26.7990    5.8160 C   0  0  1  0  0  0
   51.7470   27.2410    4.7400 C   0  0  0  0  0  0
   53.8180   24.9700    6.7240 C   0  0  1  0  0  0
   56.1810   24.8790    7.3640 O   0  0  0  0  0  0
   56.4950   27.2700    5.6820 O   0  0  0  0  0  0
   53.8410   28.8000    6.1580 O   0  0  0  0  0  0
   52.8760   25.4040    5.7610 O   0  0  0  0  0  0
   50.9940   26.1150    4.3490 O   0  0  0  0  0  0
   53.3500   21.3270    7.3100 C   0  0  2  0  0  0
   52.5420   22.6000    7.1030 C   0  0  2  0  0  0
   51.4050   22.3970    6.1850 C   0  0  1  0  0  0
   50.5090   21.3680    6.8600 C   0  0  1  0  0  0
   49.1170   21.1530    6.2150 C   0  0  0  0  0  0
   52.2950   20.3910    7.8790 C   0  0  1  0  0  0
   54.4660   21.4990    8.1590 O   0  0  0  0  0  0
   53.4810   23.3400    6.3830 O   0  0  0  0  0  0
   50.6730   23.5990    6.0530 O   0  0  0  0  0  0
   51.2830   20.1930    6.9170 O   0  0  0  0  0  0
   48.3720   20.2540    7.0080 O   0  0  0  0  0  0
   54.4280   18.2010    9.5930 C   0  0  2  0  0  0
   52.9730   18.3400    9.2200 C   0  0  2  0  0  0
   52.2300   17.0510    9.0630 C   0  0  1  0  0  0
   52.4400   16.1840   10.3220 C   0  0  1  0  0  0
   51.8300   14.7960   10.1400 C   0  0  0  0  0  0
   54.4510   17.3050   10.8390 C   0  0  1  0  0  0
   55.0110   19.4950    9.8350 O   0  0  0  0  0  0
   53.0120   18.9240    7.9590 O   0  0  0  0  0  0
   50.8780   17.3310    8.7950 O   0  0  0  0  0  0
   53.8390   16.0610   10.5620 O   0  0  0  0  0  0
   51.8960   14.0510   11.3520 O   0  0  0  0  0  0
   56.9620   17.0240   13.2170 C   0  0  2  0  0  0
   56.1040   16.1990   12.3000 C   0  0  2  0  0  0
   56.8780   14.9650   11.8470 C   0  0  1  0  0  0
   57.4590   14.2110   13.0480 C   0  0  1  0  0  0
   58.5080   13.2220   12.5320 C   0  0  0  0  0  0
   57.2520   16.1270   14.4250 C   0  0  1  0  0  0
   56.3240   18.2160   13.5980 O   0  0  0  0  0  0
   55.8390   16.9950   11.1590 O   0  0  0  0  0  0
   55.9700   14.1370   11.1660 O   0  0  0  0  0  0
   58.0940   15.1050   13.9380 O   0  0  0  0  0  0
   58.1400   11.9870   13.0800 O   0  0  0  0  0  0
   60.4240   16.7210   16.4330 C   0  0  2  0  0  0
   58.9610   17.1150   16.3300 C   0  0  2  0  0  0
   58.1820   16.4610   17.4680 C   0  0  1  0  0  0
   58.8500   16.9240   18.7680 C   0  0  1  0  0  0
   58.2940   16.2120   19.9940 C   0  0  0  0  0  0
   60.9570   17.2830   17.7340 C   0  0  2  0  0  0
   62.3290   16.9620   17.8300 O   0  0  0  0  0  0
   61.1450   17.1730   15.3070 O   0  0  0  0  0  0
   58.4950   16.8060   15.0350 O   0  0  0  0  0  0
   56.8510   16.9200   17.3680 O   0  0  0  0  0  0
   60.2390   16.6160   18.7490 O   0  0  0  0  0  0
   58.1720   17.1100   21.0800 O   0  0  0  0  0  0
   58.9665   28.0676    4.0697 H   0  0  0  0  0  0
   61.0427   26.4680    5.6286 H   0  0  0  0  0  0
   60.6030   29.5107    5.9698 H   0  0  0  0  0  0
   59.6130   27.3795    7.9180 H   0  0  0  0  0  0
   59.3871   29.1292    9.4052 H   0  0  0  0  0  0
   60.4888   30.0388    8.3164 H   0  0  0  0  0  0
   58.6162   26.1294    6.1241 H   0  0  0  0  0  0
   59.9596   25.9644    3.1276 H   0  0  0  0  0  0
   61.7130   27.1987    3.3805 H   0  0  0  0  0  0
   62.8959   28.6391    6.3517 H   0  0  0  0  0  0
   58.3188   31.2995    8.6557 H   0  0  0  0  0  0
   55.6473   24.8893    5.4672 H   0  0  0  0  0  0
   55.3805   27.2589    7.3866 H   0  0  0  0  0  0
   54.3937   27.5355    4.6013 H   0  0  0  0  0  0
   52.3417   26.9923    6.8242 H   0  0  0  0  0  0
   51.0836   28.0174    5.1488 H   0  0  0  0  0  0
   52.2983   27.6461    3.8786 H   0  0  0  0  0  0
   53.7107   25.4538    7.7060 H   0  0  0  0  0  0
   57.2577   25.0790    7.2603 H   0  0  0  0  0  0
   54.6459   29.5496    6.1737 H   0  0  0  0  0  0
   50.2169   26.2142    3.5768 H   0  0  0  0  0  0
   53.8938   20.9565    6.4285 H   0  0  0  0  0  0
   52.1521   23.0704    8.0177 H   0  0  0  0  0  0
   51.7454   22.1363    5.1720 H   0  0  0  0  0  0
   50.2812   21.6638    7.8947 H   0  0  0  0  0  0
   48.5888   22.1159    6.1533 H   0  0  0  0  0  0
   49.2415   20.7377    5.2040 H   0  0  0  0  0  0
   51.8287   20.8383    8.7692 H   0  0  0  0  0  0
   55.2943   22.1548    7.8526 H   0  0  0  0  0  0
   51.1399   24.4789    5.5863 H   0  0  0  0  0  0
   47.3504   19.9749    6.7107 H   0  0  0  0  0  0
   55.0503   17.8074    8.7758 H   0  0  0  0  0  0
   52.4362   18.9433    9.9669 H   0  0  0  0  0  0
   52.5427   16.5008    8.1633 H   0  0  0  0  0  0
   52.0099   16.6624   11.2142 H   0  0  0  0  0  0
   50.7758   14.8950    9.8419 H   0  0  0  0  0  0
   52.3822   14.2523    9.3594 H   0  0  0  0  0  0
   53.9215   17.7677   11.6849 H   0  0  0  0  0  0
   55.0587   20.2370    9.0244 H   0  0  0  0  0  0
   50.6054   17.9417    7.9216 H   0  0  0  0  0  0
   51.4975   13.0264   11.3902 H   0  0  0  0  0  0
   57.8591   17.4182   12.7171 H   0  0  0  0  0  0
   55.1485   15.9285   12.7732 H   0  0  0  0  0  0
   57.6801   15.2185   11.1382 H   0  0  0  0  0  0
   56.6650   13.7366   13.6433 H   0  0  0  0  0  0
   58.4838   13.2023   11.4324 H   0  0  0  0  0  0
   59.5062   13.5360   12.8712 H   0  0  0  0  0  0
   56.3418   15.8461   14.9752 H   0  0  0  0  0  0
   56.0519   18.9619   12.8366 H   0  0  0  0  0  0
   55.4501   14.5099   10.2712 H   0  0  0  0  0  0
   58.7377   11.0892   12.8636 H   0  0  0  0  0  0
   60.5853   15.6343   16.3774 H   0  0  0  0  0  0
   58.7867   18.2002   16.3732 H   0  0  0  0  0  0
   58.1013   15.3648   17.4249 H   0  0  0  0  0  0
   58.7286   18.0151   18.8364 H   0  0  0  0  0  0
   57.3014   15.7998   19.7599 H   0  0  0  0  0  0
   58.9717   15.3949   20.2823 H   0  0  0  0  0  0
   60.8720   18.3716   17.8674 H   0  0  0  0  0  0
   63.0460   17.3933   17.1159 H   0  0  0  0  0  0
   60.8582   16.8377   14.2994 H   0  0  0  0  0  0
   56.2459   16.6644   16.4857 H   0  0  0  0  0  0
   57.7838   16.7552   22.0461 H   0  0  0  0  0  0
  1  2  1  0  0  0
  1  6  1  0  0  0
  1  7  1  0  0  0
  1 68  1  0  0  0
  2  3  1  0  0  0
  2  8  1  0  0  0
  2 69  1  0  0  0
  3  4  1  0  0  0
  3  9  1  0  0  0
  3 70  1  0  0  0
  4  5  1  0  0  0
  4 10  1  0  0  0
  4 71  1  0  0  0
  5 11  1  0  0  0
  5 72  1  0  0  0
  5 73  1  0  0  0
  6 10  1  0  0  0
  6 19  1  0  0  0
  6 74  1  0  0  0
  7 75  1  0  0  0
  8 76  1  0  0  0
  9 77  1  0  0  0
 11 78  1  0  0  0
 12 13  1  0  0  0
 12 17  1  0  0  0
 12 18  1  0  0  0
 12 79  1  0  0  0
 13 14  1  0  0  0
 13 19  1  0  0  0
 13 80  1  0  0  0
 14 15  1  0  0  0
 14 20  1  0  0  0
 14 81  1  0  0  0
 15 16  1  0  0  0
 15 21  1  0  0  0
 15 82  1  0  0  0
 16 22  1  0  0  0
 16 83  1  0  0  0
 16 84  1  0  0  0
 17 21  1  0  0  0
 17 30  1  0  0  0
 17 85  1  0  0  0
 18 86  1  0  0  0
 20 87  1  0  0  0
 22 88  1  0  0  0
 23 24  1  0  0  0
 23 28  1  0  0  0
 23 29  1  0  0  0
 23 89  1  0  0  0
 24 25  1  0  0  0
 24 30  1  0  0  0
 24 90  1  0  0  0
 25 26  1  0  0  0
 25 31  1  0  0  0
 25 91  1  0  0  0
 26 27  1  0  0  0
 26 32  1  0  0  0
 26 92  1  0  0  0
 27 33  1  0  0  0
 27 93  1  0  0  0
 27 94  1  0  0  0
 28 32  1  0  0  0
 28 41  1  0  0  0
 28 95  1  0  0  0
 29 96  1  0  0  0
 31 97  1  0  0  0
 33 98  1  0  0  0
 34 35  1  0  0  0
 34 39  1  0  0  0
 34 40  1  0  0  0
 34 99  1  0  0  0
 35 36  1  0  0  0
 35 41  1  0  0  0
 35100  1  0  0  0
 36 37  1  0  0  0
 36 42  1  0  0  0
 36101  1  0  0  0
 37 38  1  0  0  0
 37 43  1  0  0  0
 37102  1  0  0  0
 38 44  1  0  0  0
 38103  1  0  0  0
 38104  1  0  0  0
 39 43  1  0  0  0
 39 52  1  0  0  0
 39105  1  0  0  0
 40106  1  0  0  0
 42107  1  0  0  0
 44108  1  0  0  0
 45 46  1  0  0  0
 45 50  1  0  0  0
 45 51  1  0  0  0
 45109  1  0  0  0
 46 47  1  0  0  0
 46 52  1  0  0  0
 46110  1  0  0  0
 47 48  1  0  0  0
 47 53  1  0  0  0
 47111  1  0  0  0
 48 49  1  0  0  0
 48 54  1  0  0  0
 48112  1  0  0  0
 49 55  1  0  0  0
 49113  1  0  0  0
 49114  1  0  0  0
 50 54  1  0  0  0
 50 64  1  0  0  0
 50115  1  0  0  0
 51116  1  0  0  0
 53117  1  0  0  0
 55118  1  0  0  0
 56 57  1  0  0  0
 56 61  1  0  0  0
 56 63  1  0  0  0
 56119  1  0  0  0
 57 58  1  0  0  0
 57 64  1  0  0  0
 57120  1  0  0  0
 58 59  1  0  0  0
 58 65  1  0  0  0
 58121  1  0  0  0
 59 60  1  0  0  0
 59 66  1  0  0  0
 59122  1  0  0  0
 60 67  1  0  0  0
 60123  1  0  0  0
 60124  1  0  0  0
 61 62  1  0  0  0
 61 66  1  0  0  0
 61125  1  0  0  0
 62126  1  0  0  0
 63127  1  0  0  0
 65128  1  0  0  0
 67129  1  0  0  0
M  END
> <s_m_source_file>
../1gui_ligand.sdf

> <i_m_source_file_index>
1

> <s_epik_input>
W09IXVtDQEBIXTFbQ0BASF0oW09IXSlbQ0BIXShbT0hdKVtDQEBIXShbQ0gyXVtPSF0pT1tDQEhdMU9bQ0BIXShbQ0BIXTJbT0hdKVtDQEhdKFtPSF0pW0NAQEhdKFtDSDJdW09IXSlPW0NASF0yT1tDQEhdKFtDQEhdM1tPSF0pW0NASF0oW09IXSlbQ0BASF0oW0NIMl1bT0hdKU9bQ0BIXTNPW0NASF0oW0NASF00W09IXSlbQ0BIXShbT0hdKVtDQEBIXShbQ0gyXVtPSF0pT1tDQEhdNE9bQ0BIXShbQ0BIXTVbT0hdKVtDQEhdKFtPSF0pW0NAQEhdKFtDSDJdW09IXSlPW0NASF01T1tDQEhdKFtDQEhdNltPSF0pW0NASF0oW09IXSlbQ0BASF0oW0NIMl1bT0hdKU9bQ0BIXTZbT0hd

> <s_epik_cmdline>
J2VwaWtfYXBwJywgJy1pbWFlJywgJ2xpZ2FuZF9wcm8ubWFlJywgJy1vbWFlJywgJ2xpZ2FuZF9wcmVwLm1hZScsICctbXMnLCAnMScsICctcGgnLCAnNycsICctcGh0JywgJzAuNScsICctbnQn

> <r_lp_tautomer_probability>
1

> <r_epik_Ionization_Penalty>
  0.0001

> <r_epik_Ionization_Penalty_Charging>
  0.0000

> <r_epik_Ionization_Penalty_Neutral>
  0.0001

> <r_epik_State_Penalty>
 -0.0000

> <r_epik_Charging_Adjusted_Penalty>
0

> <i_epik_Tot_Q>
0

> <i_epik_Tot_abs_Q>
0

> <s_epik_Chemistry_Notes>
This compound contains an acetal/aminal-like group ( X-CH(R)-Y where X, Y are N, S, or O) that may be acid/base labile, releasing an aldehyde.

$$$$
