1guw_ligand
                    3D
 Schrodinger Suite 2020-3.
270270  0  0  1  0            999 V2000
    4.3460  -22.0600    3.5470 N   0  3  0  0  0  0
    3.3090  -22.0950    4.6110 C   0  0  2  0  0  0
    3.1190  -20.7180    5.2380 C   0  0  0  0  0  0
    1.9930  -20.3000    5.5080 O   0  0  0  0  0  0
    3.6800  -23.1150    5.6770 C   0  0  0  0  0  0
    4.2260  -20.0150    5.4660 N   0  0  0  0  0  0
    4.1780  -18.6840    6.0600 C   0  0  2  0  0  0
    3.2920  -17.7450    5.2450 C   0  0  0  0  0  0
    3.2710  -17.8020    4.0150 O   0  0  0  0  0  0
    5.5950  -18.1120    6.2120 C   0  0  0  0  0  0
    6.4900  -18.2980    4.9910 C   0  0  0  0  0  0
    6.1390  -17.3340    3.8690 C   0  0  0  0  0  0
    6.2580  -15.9410    4.2880 N   0  0  0  0  0  0
    6.0180  -14.9070    3.4900 C   0  0  0  0  0  0
    5.6500  -15.1060    2.2320 N   0  0  0  0  0  0
    6.1480  -13.6700    3.9480 N   0  0  0  0  0  0
    2.5450  -16.8930    5.9420 N   0  0  0  0  0  0
    1.6450  -15.9500    5.2900 C   0  0  2  0  0  0
    2.4140  -14.9010    4.4940 C   0  0  0  0  0  0
    3.3400  -14.2730    5.0060 O   0  0  0  0  0  0
    0.7360  -15.2400    6.3140 C   0  0  2  0  0  0
   -0.0930  -14.2780    5.6500 O   0  0  0  0  0  0
    1.5630  -14.5470    7.3880 C   0  0  0  0  0  0
    2.0210  -14.7160    3.2380 N   0  0  0  0  0  0
    2.6670  -13.7390    2.3690 C   0  0  1  0  0  0
    2.4870  -14.1260    0.9010 C   0  0  0  0  0  0
    1.0360  -14.2970    0.4850 C   0  0  0  0  0  0
    0.9280  -14.8530   -0.9260 C   0  0  0  0  0  0
   -0.5200  -15.0860   -1.3250 C   0  0  0  0  0  0
   -0.6300  -15.7190   -2.6680 N   0  3  0  0  0  0
   -1.7340  -16.4860   -2.7090 C   0  0  0  0  0  0
   -0.7210  -14.7600   -3.6050 C   0  0  0  0  0  0
    2.1150  -12.3380    2.6220 C   0  0  0  0  0  0
    0.9320  -12.1710    2.9200 O   0  0  0  0  0  0
    2.9860  -11.3390    2.5090 N   0  0  0  0  0  0
    2.6020   -9.9480    2.7300 C   0  0  2  0  0  0
    1.3550   -9.5710    1.9320 C   0  0  0  0  0  0
    1.2160   -9.9340    0.7640 O   0  0  0  0  0  0
    3.7560   -9.0160    2.3600 C   0  0  0  0  0  0
    4.9080   -9.0430    3.3540 C   0  0  0  0  0  0
    5.5230  -10.4200    3.5050 C   0  0  0  0  0  0
    6.0240  -10.9990    2.5420 O   0  0  0  0  0  0
    5.4890  -10.9520    4.7220 N   0  0  0  0  0  0
    0.4530   -8.8370    2.5810 N   0  0  0  0  0  0
   -0.7910   -8.3960    1.9570 C   0  0  2  0  0  0
   -1.2510   -7.0690    2.5510 C   0  0  0  0  0  0
   -1.0810   -6.8260    3.7440 O   0  0  0  0  0  0
   -1.9210   -9.4300    2.1420 C   0  0  2  0  0  0
   -2.1390   -9.6720    3.5360 O   0  0  0  0  0  0
   -1.5930  -10.7390    1.4430 C   0  0  0  0  0  0
   -1.8340   -6.2130    1.7170 N   0  0  0  0  0  0
   -2.3150   -4.9140    2.1750 C   0  0  2  0  0  0
   -3.6860   -4.5990    1.5920 C   0  0  0  0  0  0
   -3.8860   -4.6640    0.3780 O   0  0  0  0  0  0
   -1.3210   -3.8220    1.8030 C   0  0  0  0  0  0
   -4.6280   -4.2510    2.4640 N   0  0  0  0  0  0
   -5.9800   -3.9190    2.0340 C   0  0  2  0  0  0
   -5.9750   -2.6320    1.2190 C   0  0  0  0  0  0
   -5.5680   -1.5790    1.7110 O   0  0  0  0  0  0
   -6.8980   -3.7670    3.2490 C   0  0  0  0  0  0
   -6.9380   -4.9990    4.1410 C   0  0  0  0  0  0
   -7.8550   -4.7930    5.3360 C   0  0  0  0  0  0
   -7.8340   -5.9300    6.2560 N   0  0  0  0  0  0
   -8.2430   -7.1560    5.9340 C   0  0  0  0  0  0
   -8.7180   -7.4070    4.7220 N   0  0  0  0  0  0
   -8.1810   -8.1320    6.8310 N   0  0  0  0  0  0
   -6.4220   -2.7200   -0.0300 N   0  0  0  0  0  0
   -6.4580   -1.5560   -0.9080 C   0  0  1  0  0  0
   -6.3070   -1.9850   -2.3670 C   0  0  0  0  0  0
   -7.4260   -2.8940   -2.8510 C   0  0  0  0  0  0
   -7.3330   -3.1540   -4.3460 C   0  0  0  0  0  0
   -7.4220   -1.8560   -5.1480 C   0  0  0  0  0  0
   -7.4840   -2.0830   -6.6280 N   0  3  0  0  0  0
   -6.4140   -2.7990   -7.0280 C   0  0  0  0  0  0
   -8.6110   -2.7560   -6.9320 C   0  0  0  0  0  0
   -7.7510   -0.7660   -0.7350 C   0  0  0  0  0  0
   -8.2000   -0.0910   -1.6620 O   0  0  0  0  0  0
   -8.3440   -0.8490    0.4540 N   0  0  0  0  0  0
   -9.5830   -0.1350    0.7440 C   0  0  2  0  0  0
  -10.6080   -0.3500   -0.3700 C   0  0  0  0  0  0
  -11.2460    0.5960   -0.8330 O   0  0  0  0  0  0
   -9.3030    1.3610    0.9170 C   0  0  0  0  0  0
  -10.4890    2.0720    1.2310 O   0  0  0  0  0  0
  -10.7540   -1.6000   -0.8020 N   0  0  0  0  0  0
  -11.6910   -1.9370   -1.8670 C   0  0  2  0  0  0
  -13.1230   -1.5780   -1.4820 C   0  0  0  0  0  0
  -13.8030   -0.8490   -2.2050 O   0  0  0  0  0  0
  -11.6290   -3.4370   -2.2150 C   0  0  2  0  0  0
  -10.2970   -3.7970   -2.5970 O   0  0  0  0  0  0
  -12.5900   -3.7730   -3.3450 C   0  0  0  0  0  0
  -13.5730   -2.0960   -0.3430 N   0  0  0  0  0  0
  -14.9240   -1.8230    0.1150 C   0  0  0  0  0  0
  -15.9640   -2.1550   -0.9360 C   0  0  0  0  0  0
  -15.8200   -3.1330   -1.6700 O   0  0  0  0  0  0
  -17.0090   -1.3330   -1.0180 N   0  0  0  0  0  0
  -18.0570   -1.5590   -1.9990 C   0  0  0  0  0  0
  -18.6070   -2.9720   -1.9540 C   0  0  0  0  0  0
  -18.9470   -3.4790   -0.8860 O   0  0  0  0  0  0
  -18.6860   -3.6070   -3.1200 N   0  0  0  0  0  0
  -19.1920   -4.9710   -3.2190 C   0  0  2  0  0  0
  -18.8740   -5.5640   -4.5890 C   0  0  0  0  0  0
  -19.0180   -4.8960   -5.6130 O   0  0  0  0  0  0
  -20.7030   -5.0050   -2.9690 C   0  0  0  0  0  0
  -21.5090   -4.1910   -3.9690 C   0  0  0  0  0  0
  -23.0010   -4.2900   -3.6940 C   0  0  0  0  0  0
  -23.8090   -3.5070   -4.7150 C   0  0  0  0  0  0
  -23.4700   -2.0580   -4.7020 N   0  3  0  0  0  0
  -18.4360   -6.8200   -4.5960 N   0  0  0  0  0  0
  -18.0920   -7.5050   -5.8380 C   0  0  2  0  0  0
  -19.2880   -7.5650   -6.7860 C   0  0  0  0  0  0
  -20.4090   -7.8490   -6.3650 O   0  0  0  0  0  0
  -17.5810   -8.9060   -5.5410 C   0  0  0  0  0  0
  -19.0630   -7.3010   -8.0870 N   0  0  0  0  0  0
  -20.1290   -7.3300   -9.0950 C   0  0  2  0  0  0
  -20.7190   -8.7260   -9.2690 C   0  0  0  0  0  0
  -21.9370   -8.8890   -9.3510 O   0  0  0  0  0  0
  -19.4250   -6.8800  -10.3800 C   0  0  0  0  0  0
  -17.9830   -7.1670  -10.1480 C   0  0  0  0  0  0
  -17.7560   -6.9590   -8.6780 C   0  0  0  0  0  0
  -19.8460   -9.7270   -9.3260 N   0  0  0  0  0  0
  -20.2960  -11.0980   -9.4880 C   0  0  0  0  0  0
  -20.9940  -11.3290  -10.8140 C   0  0  0  0  0  0
  -20.5370  -10.8550  -11.8550 O   0  0  0  0  0  0
  -22.1030  -12.0610  -10.7770 N   0  0  0  0  0  0
  -22.8480  -12.3440  -11.9900 C   0  0  0  0  0  0
  -24.0370  -13.2510  -11.7430 C   0  0  0  0  0  0
  -24.9340  -12.8560  -10.9670 O   0  0  0  0  0  0
  -24.0730  -14.3550  -12.3250 O   0  0  0  0  0  0
    4.0641  -21.3189    2.7845 H   0  0  0  0  0  0
    4.4267  -23.0531    3.0809 H   0  0  0  0  0  0
    5.3146  -21.7821    3.9881 H   0  0  0  0  0  0
    2.3693  -22.3974    4.1257 H   0  0  0  0  0  0
    3.8134  -24.1018    5.2096 H   0  0  0  0  0  0
    2.8772  -23.1700    6.4270 H   0  0  0  0  0  0
    4.6176  -22.8107    6.1651 H   0  0  0  0  0  0
    5.1939  -20.4616    5.1946 H   0  0  0  0  0  0
    3.7216  -18.8259    7.0508 H   0  0  0  0  0  0
    5.5353  -17.0301    6.4013 H   0  0  0  0  0  0
    6.1007  -18.6045    7.0556 H   0  0  0  0  0  0
    7.5384  -18.1243    5.2750 H   0  0  0  0  0  0
    6.3790  -19.3231    4.6077 H   0  0  0  0  0  0
    6.8190  -17.4966    3.0198 H   0  0  0  0  0  0
    5.1018  -17.5084    3.5468 H   0  0  0  0  0  0
    6.5619  -15.7003    5.3174 H   0  0  0  0  0  0
    5.5405  -16.1304    1.8465 H   0  0  0  0  0  0
    5.4542  -14.2467    1.5737 H   0  0  0  0  0  0
    6.4531  -13.4989    4.9909 H   0  0  0  0  0  0
    2.6198  -16.9130    7.0393 H   0  0  0  0  0  0
    1.0565  -16.5819    4.6086 H   0  0  0  0  0  0
    0.0463  -15.9586    6.7809 H   0  0  0  0  0  0
   -0.7642  -14.5969    4.8390 H   0  0  0  0  0  0
    2.1984  -15.2873    7.8962 H   0  0  0  0  0  0
    0.8914  -14.0756    8.1207 H   0  0  0  0  0  0
    2.1967  -13.7774    6.9231 H   0  0  0  0  0  0
    1.1857  -15.3226    2.8581 H   0  0  0  0  0  0
    3.7335  -13.7676    2.6368 H   0  0  0  0  0  0
    2.9202  -13.3441    0.2599 H   0  0  0  0  0  0
    2.9964  -15.0818    0.7086 H   0  0  0  0  0  0
    0.5364  -14.9932    1.1747 H   0  0  0  0  0  0
    0.5281  -13.3218    0.5168 H   0  0  0  0  0  0
    1.3739  -14.1408   -1.6359 H   0  0  0  0  0  0
    1.4632  -15.8122   -0.9841 H   0  0  0  0  0  0
   -1.0004  -15.7494   -0.5908 H   0  0  0  0  0  0
   -1.0521  -14.1237   -1.3529 H   0  0  0  0  0  0
    0.2158  -16.3621   -2.9525 H   0  0  0  0  0  0
   -1.6628  -17.2723   -1.9431 H   0  0  0  0  0  0
   -1.8220  -16.9491   -3.7029 H   0  0  0  0  0  0
   -2.6201  -15.8639   -2.5146 H   0  0  0  0  0  0
    0.1806  -14.1306   -3.5742 H   0  0  0  0  0  0
   -1.6081  -14.1396   -3.4097 H   0  0  0  0  0  0
   -0.8100  -15.2249   -4.5980 H   0  0  0  0  0  0
    4.0233  -11.5871    2.2400 H   0  0  0  0  0  0
    2.3768   -9.8845    3.8048 H   0  0  0  0  0  0
    4.1625   -9.3069    1.3802 H   0  0  0  0  0  0
    3.3896   -7.9799    2.3120 H   0  0  0  0  0  0
    5.6993   -8.3573    3.0169 H   0  0  0  0  0  0
    4.5460   -8.7269    4.3435 H   0  0  0  0  0  0
    5.0300  -10.3959    5.5527 H   0  0  0  0  0  0
    5.9199  -11.9485    4.8989 H   0  0  0  0  0  0
    0.6722   -8.5639    3.6238 H   0  0  0  0  0  0
   -0.5290   -8.2839    0.8946 H   0  0  0  0  0  0
   -2.8702   -9.0342    1.7516 H   0  0  0  0  0  0
   -2.3894   -8.8368    4.2066 H   0  0  0  0  0  0
   -1.4259  -10.5510    0.3722 H   0  0  0  0  0  0
   -2.4315  -11.4403    1.5657 H   0  0  0  0  0  0
   -0.6842  -11.1731    1.8853 H   0  0  0  0  0  0
   -1.9503   -6.5018    0.6620 H   0  0  0  0  0  0
   -2.3955   -4.9976    3.2689 H   0  0  0  0  0  0
   -0.3360   -4.0618    2.2300 H   0  0  0  0  0  0
   -1.6689   -2.8579    2.2024 H   0  0  0  0  0  0
   -1.2401   -3.7575    0.7079 H   0  0  0  0  0  0
   -4.3666   -4.2171    3.5320 H   0  0  0  0  0  0
   -6.3127   -4.7579    1.4050 H   0  0  0  0  0  0
   -6.5518   -2.9255    3.8671 H   0  0  0  0  0  0
   -7.9264   -3.5740    2.9097 H   0  0  0  0  0  0
   -7.3080   -5.8585    3.5627 H   0  0  0  0  0  0
   -5.9256   -5.2156    4.5127 H   0  0  0  0  0  0
   -7.5367   -3.8992    5.8926 H   0  0  0  0  0  0
   -8.8890   -4.6579    4.9858 H   0  0  0  0  0  0
   -7.4641   -5.7992    7.2836 H   0  0  0  0  0  0
   -8.7716   -6.6017    3.9746 H   0  0  0  0  0  0
   -7.7878   -7.9293    7.8381 H   0  0  0  0  0  0
   -8.5229   -9.1438    6.5674 H   0  0  0  0  0  0
   -6.7693   -3.6970   -0.3973 H   0  0  0  0  0  0
   -5.6051   -0.9367   -0.5934 H   0  0  0  0  0  0
   -6.3038   -1.0944   -3.0126 H   0  0  0  0  0  0
   -5.3610   -2.5321   -2.4923 H   0  0  0  0  0  0
   -7.3663   -3.8596   -2.3275 H   0  0  0  0  0  0
   -8.3977   -2.4228   -2.6415 H   0  0  0  0  0  0
   -6.3725   -3.6389   -4.5748 H   0  0  0  0  0  0
   -8.1586   -3.8115   -4.6559 H   0  0  0  0  0  0
   -8.3293   -1.3065   -4.8568 H   0  0  0  0  0  0
   -6.5365   -1.2366   -4.9426 H   0  0  0  0  0  0
   -7.4879   -1.1682   -7.2389 H   0  0  0  0  0  0
   -5.4929   -2.2510   -6.7806 H   0  0  0  0  0  0
   -6.4651   -2.9583   -8.1152 H   0  0  0  0  0  0
   -6.4111   -3.7718   -6.5146 H   0  0  0  0  0  0
   -9.4852   -2.1732   -6.6063 H   0  0  0  0  0  0
   -8.6069   -3.7288   -6.4186 H   0  0  0  0  0  0
   -8.6609   -2.9154   -8.0193 H   0  0  0  0  0  0
   -7.8763   -1.4757    1.2277 H   0  0  0  0  0  0
   -9.9597   -0.5674    1.6827 H   0  0  0  0  0  0
   -8.5802    1.5067    1.7333 H   0  0  0  0  0  0
   -8.8877    1.7668   -0.0173 H   0  0  0  0  0  0
  -10.4530    3.1604    1.3863 H   0  0  0  0  0  0
  -10.1459   -2.3885   -0.3346 H   0  0  0  0  0  0
  -11.3582   -1.3191   -2.7140 H   0  0  0  0  0  0
  -11.8637   -4.0478   -1.3308 H   0  0  0  0  0  0
   -9.4608   -3.6271   -1.9028 H   0  0  0  0  0  0
  -13.6131   -3.4961   -3.0507 H   0  0  0  0  0  0
  -12.5478   -4.8522   -3.5535 H   0  0  0  0  0  0
  -12.3041   -3.2136   -4.2480 H   0  0  0  0  0  0
  -12.9089   -2.7379    0.2544 H   0  0  0  0  0  0
  -15.1373   -2.4275    1.0089 H   0  0  0  0  0  0
  -15.0184   -0.7555    0.3631 H   0  0  0  0  0  0
  -17.0732   -0.4753   -0.3323 H   0  0  0  0  0  0
  -18.8910   -0.8670   -1.8106 H   0  0  0  0  0  0
  -17.6575   -1.3853   -3.0090 H   0  0  0  0  0  0
  -18.3569   -3.0754   -4.0250 H   0  0  0  0  0  0
  -18.6652   -5.5362   -2.4360 H   0  0  0  0  0  0
  -21.0613   -6.0433   -3.0290 H   0  0  0  0  0  0
  -20.9185   -4.6000   -1.9692 H   0  0  0  0  0  0
  -21.2125   -3.1337   -3.9048 H   0  0  0  0  0  0
  -21.3168   -4.5646   -4.9856 H   0  0  0  0  0  0
  -23.3128   -5.3440   -3.7378 H   0  0  0  0  0  0
  -23.2173   -3.8849   -2.6944 H   0  0  0  0  0  0
  -23.6046   -3.8984   -5.7225 H   0  0  0  0  0  0
  -24.8811   -3.6108   -4.4918 H   0  0  0  0  0  0
  -24.0769   -1.5327   -5.4542 H   0  0  0  0  0  0
  -22.4031   -1.9290   -4.9365 H   0  0  0  0  0  0
  -23.6795   -1.6414   -3.7057 H   0  0  0  0  0  0
  -18.3356   -7.3429   -3.6335 H   0  0  0  0  0  0
  -17.2937   -6.9030   -6.2965 H   0  0  0  0  0  0
  -16.7209   -8.8454   -4.8579 H   0  0  0  0  0  0
  -17.2709   -9.3897   -6.4790 H   0  0  0  0  0  0
  -18.3815   -9.4963   -5.0712 H   0  0  0  0  0  0
  -20.9605   -6.6838   -8.7772 H   0  0  0  0  0  0
  -19.8207   -7.4498  -11.2337 H   0  0  0  0  0  0
  -19.6053   -5.8068  -10.5403 H   0  0  0  0  0  0
  -17.7634   -8.2037  -10.4430 H   0  0  0  0  0  0
  -17.3708   -6.4776  -10.7479 H   0  0  0  0  0  0
  -17.5043   -5.9166   -8.4330 H   0  0  0  0  0  0
  -16.9833   -7.6280   -8.2713 H   0  0  0  0  0  0
  -18.7711   -9.5064   -9.2488 H   0  0  0  0  0  0
  -19.4312  -11.7760   -9.4387 H   0  0  0  0  0  0
  -21.0046  -11.3487   -8.6849 H   0  0  0  0  0  0
  -22.4544  -12.4538   -9.8115 H   0  0  0  0  0  0
  -23.2234  -11.4027  -12.4177 H   0  0  0  0  0  0
  -22.1891  -12.8403  -12.7177 H   0  0  0  0  0  0
  -25.8089  -13.4924  -10.7683 H   0  0  0  0  0  0
  1  2  1  0  0  0
  1129  1  0  0  0
  1130  1  0  0  0
  1131  1  0  0  0
  2  3  1  0  0  0
  2  5  1  0  0  0
  2132  1  0  0  0
  3  4  2  0  0  0
  3  6  1  0  0  0
  5133  1  0  0  0
  5134  1  0  0  0
  5135  1  0  0  0
  6  7  1  0  0  0
  6136  1  0  0  0
  7  8  1  0  0  0
  7 10  1  0  0  0
  7137  1  0  0  0
  8  9  2  0  0  0
  8 17  1  0  0  0
 10 11  1  0  0  0
 10138  1  0  0  0
 10139  1  0  0  0
 11 12  1  0  0  0
 11140  1  0  0  0
 11141  1  0  0  0
 12 13  1  0  0  0
 12142  1  0  0  0
 12143  1  0  0  0
 13 14  1  0  0  0
 13144  1  0  0  0
 14 15  1  0  0  0
 14 16  2  0  0  0
 15145  1  0  0  0
 15146  1  0  0  0
 16147  1  0  0  0
 17 18  1  0  0  0
 17148  1  0  0  0
 18 19  1  0  0  0
 18 21  1  0  0  0
 18149  1  0  0  0
 19 20  2  0  0  0
 19 24  1  0  0  0
 21 22  1  0  0  0
 21 23  1  0  0  0
 21150  1  0  0  0
 22151  1  0  0  0
 23152  1  0  0  0
 23153  1  0  0  0
 23154  1  0  0  0
 24 25  1  0  0  0
 24155  1  0  0  0
 25 26  1  0  0  0
 25 33  1  0  0  0
 25156  1  0  0  0
 26 27  1  0  0  0
 26157  1  0  0  0
 26158  1  0  0  0
 27 28  1  0  0  0
 27159  1  0  0  0
 27160  1  0  0  0
 28 29  1  0  0  0
 28161  1  0  0  0
 28162  1  0  0  0
 29 30  1  0  0  0
 29163  1  0  0  0
 29164  1  0  0  0
 30 31  1  0  0  0
 30 32  1  0  0  0
 30165  1  0  0  0
 31166  1  0  0  0
 31167  1  0  0  0
 31168  1  0  0  0
 32169  1  0  0  0
 32170  1  0  0  0
 32171  1  0  0  0
 33 34  2  0  0  0
 33 35  1  0  0  0
 35 36  1  0  0  0
 35172  1  0  0  0
 36 37  1  0  0  0
 36 39  1  0  0  0
 36173  1  0  0  0
 37 38  2  0  0  0
 37 44  1  0  0  0
 39 40  1  0  0  0
 39174  1  0  0  0
 39175  1  0  0  0
 40 41  1  0  0  0
 40176  1  0  0  0
 40177  1  0  0  0
 41 42  2  0  0  0
 41 43  1  0  0  0
 43178  1  0  0  0
 43179  1  0  0  0
 44 45  1  0  0  0
 44180  1  0  0  0
 45 46  1  0  0  0
 45 48  1  0  0  0
 45181  1  0  0  0
 46 47  2  0  0  0
 46 51  1  0  0  0
 48 49  1  0  0  0
 48 50  1  0  0  0
 48182  1  0  0  0
 49183  1  0  0  0
 50184  1  0  0  0
 50185  1  0  0  0
 50186  1  0  0  0
 51 52  1  0  0  0
 51187  1  0  0  0
 52 53  1  0  0  0
 52 55  1  0  0  0
 52188  1  0  0  0
 53 54  2  0  0  0
 53 56  1  0  0  0
 55189  1  0  0  0
 55190  1  0  0  0
 55191  1  0  0  0
 56 57  1  0  0  0
 56192  1  0  0  0
 57 58  1  0  0  0
 57 60  1  0  0  0
 57193  1  0  0  0
 58 59  2  0  0  0
 58 67  1  0  0  0
 60 61  1  0  0  0
 60194  1  0  0  0
 60195  1  0  0  0
 61 62  1  0  0  0
 61196  1  0  0  0
 61197  1  0  0  0
 62 63  1  0  0  0
 62198  1  0  0  0
 62199  1  0  0  0
 63 64  1  0  0  0
 63200  1  0  0  0
 64 65  2  0  0  0
 64 66  1  0  0  0
 65201  1  0  0  0
 66202  1  0  0  0
 66203  1  0  0  0
 67 68  1  0  0  0
 67204  1  0  0  0
 68 69  1  0  0  0
 68 76  1  0  0  0
 68205  1  0  0  0
 69 70  1  0  0  0
 69206  1  0  0  0
 69207  1  0  0  0
 70 71  1  0  0  0
 70208  1  0  0  0
 70209  1  0  0  0
 71 72  1  0  0  0
 71210  1  0  0  0
 71211  1  0  0  0
 72 73  1  0  0  0
 72212  1  0  0  0
 72213  1  0  0  0
 73 74  1  0  0  0
 73 75  1  0  0  0
 73214  1  0  0  0
 74215  1  0  0  0
 74216  1  0  0  0
 74217  1  0  0  0
 75218  1  0  0  0
 75219  1  0  0  0
 75220  1  0  0  0
 76 77  2  0  0  0
 76 78  1  0  0  0
 78 79  1  0  0  0
 78221  1  0  0  0
 79 80  1  0  0  0
 79 82  1  0  0  0
 79222  1  0  0  0
 80 81  2  0  0  0
 80 84  1  0  0  0
 82 83  1  0  0  0
 82223  1  0  0  0
 82224  1  0  0  0
 83225  1  0  0  0
 84 85  1  0  0  0
 84226  1  0  0  0
 85 86  1  0  0  0
 85 88  1  0  0  0
 85227  1  0  0  0
 86 87  2  0  0  0
 86 91  1  0  0  0
 88 89  1  0  0  0
 88 90  1  0  0  0
 88228  1  0  0  0
 89229  1  0  0  0
 90230  1  0  0  0
 90231  1  0  0  0
 90232  1  0  0  0
 91 92  1  0  0  0
 91233  1  0  0  0
 92 93  1  0  0  0
 92234  1  0  0  0
 92235  1  0  0  0
 93 94  2  0  0  0
 93 95  1  0  0  0
 95 96  1  0  0  0
 95236  1  0  0  0
 96 97  1  0  0  0
 96237  1  0  0  0
 96238  1  0  0  0
 97 98  2  0  0  0
 97 99  1  0  0  0
 99100  1  0  0  0
 99239  1  0  0  0
100101  1  0  0  0
100103  1  0  0  0
100240  1  0  0  0
101102  2  0  0  0
101108  1  0  0  0
103104  1  0  0  0
103241  1  0  0  0
103242  1  0  0  0
104105  1  0  0  0
104243  1  0  0  0
104244  1  0  0  0
105106  1  0  0  0
105245  1  0  0  0
105246  1  0  0  0
106107  1  0  0  0
106247  1  0  0  0
106248  1  0  0  0
107249  1  0  0  0
107250  1  0  0  0
107251  1  0  0  0
108109  1  0  0  0
108252  1  0  0  0
109110  1  0  0  0
109112  1  0  0  0
109253  1  0  0  0
110111  2  0  0  0
110113  1  0  0  0
112254  1  0  0  0
112255  1  0  0  0
112256  1  0  0  0
113114  1  0  0  0
113119  1  0  0  0
114115  1  0  0  0
114117  1  0  0  0
114257  1  0  0  0
115116  2  0  0  0
115120  1  0  0  0
117118  1  0  0  0
117258  1  0  0  0
117259  1  0  0  0
118119  1  0  0  0
118260  1  0  0  0
118261  1  0  0  0
119262  1  0  0  0
119263  1  0  0  0
120121  1  0  0  0
120264  1  0  0  0
121122  1  0  0  0
121265  1  0  0  0
121266  1  0  0  0
122123  2  0  0  0
122124  1  0  0  0
124125  1  0  0  0
124267  1  0  0  0
125126  1  0  0  0
125268  1  0  0  0
125269  1  0  0  0
126127  1  0  0  0
126128  2  0  0  0
127270  1  0  0  0
M  CHG  4   1   1  30   1  73   1 107   1
M  END
> <s_m_source_file>
../1guw_ligand.sdf

> <i_m_source_file_index>
1

> <s_epik_input>
W0hdL049QyhbTkgyXSlcW05IXVtDSDJdW0NIMl1bQ0gyXVtDQEhdKFtOSF1DKD1PKVtDQEBIXShbTkgzK10pW0NIM10pQyg9TylbTkhdW0NAQEhdKFtDQEhdKFtPSF0pW0NIM10pQyg9TylbTkhdW0NAQEhdKFtDSDJdW0NIMl1bQ0gyXVtDSDJdW05IK10oW0NIM10pW0NIM10pQyg9TylbTkhdW0NAQEhdKFtDSDJdW0NIMl1DKD1PKVtOSDJdKUMoPU8pW05IXVtDQEBIXShbQ0BIXShbT0hdKVtDSDNdKUMoPU8pW05IXVtDQEBIXShbQ0gzXSlDKD1PKVtOSF1bQ0BASF0oW0NIMl1bQ0gyXVtDSDJdW05IXS9DKD1OXFtIXSlbTkgyXSlDKD1PKVtOSF1bQ0BASF0oW0NIMl1bQ0gyXVtDSDJdW0NIMl1bTkgrXShbQ0gzXSlbQ0gzXSlDKD1PKVtOSF1bQ0BASF0oW0NIMl1bT0hdKUMoPU8pW05IXVtDQEBIXShbQ0BIXShbT0hdKVtDSDNdKUMoPU8pW05IXVtDSDJdQyg9TylbTkhdW0NIMl1DKD1PKVtOSF1bQ0BASF0oW0NIMl1bQ0gyXVtDSDJdW0NIMl1bTkgzK10pQyg9TylbTkhdW0NAQEhdKFtDSDNdKUMoPU8pTjFbQ0BASF0oW0NIMl1bQ0gyXVtDSDJdMSlDKD1PKVtOSF1bQ0gyXUMoPU8pW05IXVtDSDJdQyg9TylbT0hd

> <s_epik_cmdline>
J2VwaWtfYXBwJywgJy1pbWFlJywgJ2xpZ2FuZF9wcm8ubWFlJywgJy1vbWFlJywgJ2xpZ2FuZF9wcmVwLm1hZScsICctbXMnLCAnMScsICctcGgnLCAnNycsICctcGh0JywgJzAuNScsICctbnQn

> <s_epik_pKa_notes>
Molecule size exceeds maximum supported for generating protonation states

> <s_epik_Chemistry_Notes>
This compound has an imine and may undergo hydrolysis.

$$$$
