1gux_ligand
                    3D
 Schrodinger Suite 2020-3.
155156  0  0  1  0            999 V2000
   26.2620   45.2800   89.8180 N   0  3  0  0  0  0
   25.8040   43.9550   89.3120 C   0  0  2  0  0  0
   26.4610   43.7220   87.9450 C   0  0  0  0  0  0
   27.4480   44.4030   87.6190 O   0  0  0  0  0  0
   24.2600   43.8740   89.2650 C   0  0  0  0  0  0
   23.6100   44.8530   88.2800 C   0  0  0  0  0  0
   24.2610   45.7690   87.7230 O   0  0  0  0  0  0
   22.3880   44.6880   88.0750 O   0  0  0  0  0  0
   25.9610   42.7760   87.1570 N   0  0  0  0  0  0
   26.5930   42.5410   85.8710 C   0  0  2  0  0  0
   25.8900   43.2290   84.7030 C   0  0  0  0  0  0
   26.3980   43.1870   83.5820 O   0  0  0  0  0  0
   26.7210   41.0410   85.6100 C   0  0  0  0  0  0
   27.4090   40.1980   86.6930 C   0  0  0  0  0  0
   27.3770   38.7380   86.3000 C   0  0  0  0  0  0
   28.8230   40.6810   86.9540 C   0  0  0  0  0  0
   24.7580   43.8860   84.9640 N   0  0  0  0  0  0
   23.9880   44.5460   83.9060 C   0  0  2  0  0  0
   24.7300   45.6640   83.2150 C   0  0  0  0  0  0
   25.4730   46.3890   83.8540 O   0  0  0  0  0  0
   22.6710   45.0940   84.4490 C   0  0  0  0  0  0
   21.5250   45.0060   83.4560 C   0  0  0  0  0  0
   20.7400   43.8610   83.3840 C   0  0  0  0  0  0
   21.2550   46.0460   82.5550 C   0  0  0  0  0  0
   19.7170   43.7410   82.4390 C   0  0  0  0  0  0
   20.2280   45.9310   81.5970 C   0  0  0  0  0  0
   19.4710   44.7770   81.5490 C   0  0  0  0  0  0
   18.4730   44.6080   80.6130 O   0  0  0  0  0  0
   24.5200   45.8050   81.9080 N   0  0  0  0  0  0
   25.1700   46.8600   81.1480 C   0  0  2  0  0  0
   24.1390   47.9440   80.9100 C   0  0  0  0  0  0
   23.0680   47.6690   80.3560 O   0  0  0  0  0  0
   25.6670   46.3480   79.7790 C   0  0  0  0  0  0
   26.5530   47.6070   78.8360 S   0  0  0  0  0  0
   24.4480   49.1620   81.3400 N   0  0  0  0  0  0
   23.5350   50.2820   81.1500 C   0  0  2  0  0  0
   24.0980   51.1540   80.0540 C   0  0  0  0  0  0
   24.5870   52.2660   80.2860 O   0  0  0  0  0  0
   23.3140   51.0620   82.4560 C   0  0  0  0  0  0
   22.6390   50.2180   83.5170 C   0  0  0  0  0  0
   21.2820   49.9250   83.4370 C   0  0  0  0  0  0
   23.3790   49.6430   84.5560 C   0  0  0  0  0  0
   20.6730   49.0750   84.3610 C   0  0  0  0  0  0
   22.7730   48.7900   85.4810 C   0  0  0  0  0  0
   21.4270   48.5130   85.3750 C   0  0  0  0  0  0
   20.8370   47.6650   86.2690 O   0  0  0  0  0  0
   24.0810   50.5880   78.8530 N   0  0  0  0  0  0
   24.5770   51.2610   77.6630 C   0  0  2  0  0  0
   23.6530   51.0090   76.4870 C   0  0  0  0  0  0
   22.8560   50.0640   76.4910 O   0  0  0  0  0  0
   26.0030   50.8090   77.3390 C   0  0  0  0  0  0
   27.0160   51.3500   78.2870 C   0  0  0  0  0  0
   28.3880   50.8960   77.9470 C   0  0  0  0  0  0
   28.9690   51.4580   76.9910 O   0  0  0  0  0  0
   28.8860   49.9700   78.6280 O   0  0  0  0  0  0
   23.6930   51.9290   75.5340 N   0  0  0  0  0  0
   22.8780   51.8440   74.3360 C   0  0  2  0  0  0
   23.9050   52.0200   73.2390 C   0  0  0  0  0  0
   24.7090   52.9670   73.2870 O   0  0  0  0  0  0
   21.8470   52.9720   74.2990 C   0  0  0  0  0  0
   20.9210   53.0110   75.5320 C   0  0  0  0  0  0
   21.4270   53.9110   76.6500 C   0  0  0  0  0  0
   21.8530   55.0480   76.4070 O   0  0  0  0  0  0
   21.3580   53.4180   77.8880 N   0  0  0  0  0  0
   23.9440   51.0580   72.3130 N   0  0  0  0  0  0
   24.9160   51.1190   71.2420 C   0  0  2  0  0  0
   24.8160   52.2630   70.2630 C   0  0  0  0  0  0
   24.0140   52.2720   69.3090 O   0  0  0  0  0  0
   25.1570   49.7690   70.5710 C   0  0  0  0  0  0
   26.2610   49.0640   71.3730 C   0  0  0  0  0  0
   26.8490   47.9310   70.5680 C   0  0  0  0  0  0
   27.3670   50.0590   71.7660 C   0  0  0  0  0  0
   25.6230   53.2580   70.6300 N   0  0  0  0  0  0
   25.8440   54.5330   69.9760 C   0  0  2  0  0  0
   26.8360   55.2380   70.9360 C   0  0  0  0  0  0
   26.6110   56.3830   71.3770 O   0  0  0  0  0  0
   24.5210   55.3170   69.7490 C   0  0  0  0  0  0
   23.6430   55.4310   71.0010 C   0  0  0  0  0  0
   22.6320   54.7230   71.1530 O   0  0  0  0  0  0
   23.9710   56.3840   71.8490 N   0  0  0  0  0  0
   27.8400   54.5760   71.2960 O   0  0  0  0  0  0
   27.3615   45.3044   89.8389 H   0  0  0  0  0  0
   25.8723   45.4390   90.8343 H   0  0  0  0  0  0
   25.8901   46.0744   89.1542 H   0  0  0  0  0  0
   26.1352   43.1746   90.0129 H   0  0  0  0  0  0
   23.9550   42.8613   88.9627 H   0  0  0  0  0  0
   23.8506   44.0982   90.2610 H   0  0  0  0  0  0
   23.7594   46.4522   87.0218 H   0  0  0  0  0  0
   25.0891   42.1772   87.4589 H   0  0  0  0  0  0
   27.5798   43.0127   85.9879 H   0  0  0  0  0  0
   25.7192   40.6032   85.4885 H   0  0  0  0  0  0
   27.3065   40.8770   84.6933 H   0  0  0  0  0  0
   26.8659   40.3029   87.6438 H   0  0  0  0  0  0
   26.3366   38.4294   86.1204 H   0  0  0  0  0  0
   27.8049   38.1305   87.1111 H   0  0  0  0  0  0
   27.9662   38.5922   85.3826 H   0  0  0  0  0  0
   28.8012   41.7440   87.2359 H   0  0  0  0  0  0
   29.4273   40.5555   86.0434 H   0  0  0  0  0  0
   29.2659   40.0937   87.7719 H   0  0  0  0  0  0
   24.4065   43.9243   86.0056 H   0  0  0  0  0  0
   23.8315   43.7385   83.1756 H   0  0  0  0  0  0
   22.3775   44.5241   85.3429 H   0  0  0  0  0  0
   22.7967   46.1540   84.7148 H   0  0  0  0  0  0
   20.9258   43.0410   84.0777 H   0  0  0  0  0  0
   21.8495   46.9587   82.5964 H   0  0  0  0  0  0
   19.1130   42.8344   82.4012 H   0  0  0  0  0  0
   20.0328   46.7459   80.8999 H   0  0  0  0  0  0
   17.8852   43.6783   80.5975 H   0  0  0  0  0  0
   23.8391   45.1034   81.4038 H   0  0  0  0  0  0
   26.0191   47.2064   81.7554 H   0  0  0  0  0  0
   26.3515   45.5004   79.9310 H   0  0  0  0  0  0
   24.8073   46.0213   79.1756 H   0  0  0  0  0  0
   26.9580   47.3662   77.8420 H   0  0  0  0  0  0
   25.4117   49.3179   81.8469 H   0  0  0  0  0  0
   22.5632   49.8701   80.8403 H   0  0  0  0  0  0
   24.2841   51.3974   82.8514 H   0  0  0  0  0  0
   22.6768   51.9364   82.2575 H   0  0  0  0  0  0
   20.6843   50.3665   82.6395 H   0  0  0  0  0  0
   24.4427   49.8638   84.6447 H   0  0  0  0  0  0
   19.6082   48.8551   84.2839 H   0  0  0  0  0  0
   23.3619   48.3453   86.2832 H   0  0  0  0  0  0
   19.7631   47.4410   86.1883 H   0  0  0  0  0  0
   23.6713   49.5699   78.7786 H   0  0  0  0  0  0
   24.5723   52.3341   77.9046 H   0  0  0  0  0  0
   26.0584   49.7113   77.3824 H   0  0  0  0  0  0
   26.2754   51.1503   76.3294 H   0  0  0  0  0  0
   26.9983   52.4494   78.2544 H   0  0  0  0  0  0
   26.7826   51.0096   79.3066 H   0  0  0  0  0  0
   29.9003   49.6075   78.4050 H   0  0  0  0  0  0
   24.3755   52.7800   75.6757 H   0  0  0  0  0  0
   22.3238   50.8948   74.2923 H   0  0  0  0  0  0
   22.3653   53.9410   74.2497 H   0  0  0  0  0  0
   21.2057   52.8537   73.4132 H   0  0  0  0  0  0
   19.9300   53.3845   75.2346 H   0  0  0  0  0  0
   20.8212   51.9975   75.9478 H   0  0  0  0  0  0
   20.9720   52.4015   78.0545 H   0  0  0  0  0  0
   21.6872   54.0281   78.7421 H   0  0  0  0  0  0
   23.2355   50.2182   72.3655 H   0  0  0  0  0  0
   25.7887   51.3994   71.8501 H   0  0  0  0  0  0
   24.2276   49.1808   70.5864 H   0  0  0  0  0  0
   25.4728   49.9284   69.5294 H   0  0  0  0  0  0
   25.8177   48.6380   72.2851 H   0  0  0  0  0  0
   26.0518   47.2252   70.2917 H   0  0  0  0  0  0
   27.6083   47.4095   71.1693 H   0  0  0  0  0  0
   27.3155   48.3325   69.6563 H   0  0  0  0  0  0
   26.9296   50.8808   72.3520 H   0  0  0  0  0  0
   27.8346   50.4653   70.8570 H   0  0  0  0  0  0
   28.1274   49.5422   72.3700 H   0  0  0  0  0  0
   26.1617   53.0151   71.5578 H   0  0  0  0  0  0
   26.2466   54.3769   68.9643 H   0  0  0  0  0  0
   24.7532   56.3407   69.4203 H   0  0  0  0  0  0
   23.9227   54.8109   68.9771 H   0  0  0  0  0  0
   24.8746   56.9870   71.6761 H   0  0  0  0  0  0
   23.3413   56.5769   72.7301 H   0  0  0  0  0  0
   28.5789   55.0239   71.9767 H   0  0  0  0  0  0
  1  2  1  0  0  0
  1 82  1  0  0  0
  1 83  1  0  0  0
  1 84  1  0  0  0
  2  3  1  0  0  0
  2  5  1  0  0  0
  2 85  1  0  0  0
  3  4  2  0  0  0
  3  9  1  0  0  0
  5  6  1  0  0  0
  5 86  1  0  0  0
  5 87  1  0  0  0
  6  7  1  0  0  0
  6  8  2  0  0  0
  7 88  1  0  0  0
  9 10  1  0  0  0
  9 89  1  0  0  0
 10 11  1  0  0  0
 10 13  1  0  0  0
 10 90  1  0  0  0
 11 12  2  0  0  0
 11 17  1  0  0  0
 13 14  1  0  0  0
 13 91  1  0  0  0
 13 92  1  0  0  0
 14 15  1  0  0  0
 14 16  1  0  0  0
 14 93  1  0  0  0
 15 94  1  0  0  0
 15 95  1  0  0  0
 15 96  1  0  0  0
 16 97  1  0  0  0
 16 98  1  0  0  0
 16 99  1  0  0  0
 17 18  1  0  0  0
 17100  1  0  0  0
 18 19  1  0  0  0
 18 21  1  0  0  0
 18101  1  0  0  0
 19 20  2  0  0  0
 19 29  1  0  0  0
 21 22  1  0  0  0
 21102  1  0  0  0
 21103  1  0  0  0
 22 23  2  0  0  0
 22 24  1  0  0  0
 23 25  1  0  0  0
 23104  1  0  0  0
 24 26  2  0  0  0
 24105  1  0  0  0
 25 27  2  0  0  0
 25106  1  0  0  0
 26 27  1  0  0  0
 26107  1  0  0  0
 27 28  1  0  0  0
 28108  1  0  0  0
 29 30  1  0  0  0
 29109  1  0  0  0
 30 31  1  0  0  0
 30 33  1  0  0  0
 30110  1  0  0  0
 31 32  2  0  0  0
 31 35  1  0  0  0
 33 34  1  0  0  0
 33111  1  0  0  0
 33112  1  0  0  0
 34113  1  0  0  0
 35 36  1  0  0  0
 35114  1  0  0  0
 36 37  1  0  0  0
 36 39  1  0  0  0
 36115  1  0  0  0
 37 38  2  0  0  0
 37 47  1  0  0  0
 39 40  1  0  0  0
 39116  1  0  0  0
 39117  1  0  0  0
 40 41  2  0  0  0
 40 42  1  0  0  0
 41 43  1  0  0  0
 41118  1  0  0  0
 42 44  2  0  0  0
 42119  1  0  0  0
 43 45  2  0  0  0
 43120  1  0  0  0
 44 45  1  0  0  0
 44121  1  0  0  0
 45 46  1  0  0  0
 46122  1  0  0  0
 47 48  1  0  0  0
 47123  1  0  0  0
 48 49  1  0  0  0
 48 51  1  0  0  0
 48124  1  0  0  0
 49 50  2  0  0  0
 49 56  1  0  0  0
 51 52  1  0  0  0
 51125  1  0  0  0
 51126  1  0  0  0
 52 53  1  0  0  0
 52127  1  0  0  0
 52128  1  0  0  0
 53 54  2  0  0  0
 53 55  1  0  0  0
 55129  1  0  0  0
 56 57  1  0  0  0
 56130  1  0  0  0
 57 58  1  0  0  0
 57 60  1  0  0  0
 57131  1  0  0  0
 58 59  2  0  0  0
 58 65  1  0  0  0
 60 61  1  0  0  0
 60132  1  0  0  0
 60133  1  0  0  0
 61 62  1  0  0  0
 61134  1  0  0  0
 61135  1  0  0  0
 62 63  2  0  0  0
 62 64  1  0  0  0
 64136  1  0  0  0
 64137  1  0  0  0
 65 66  1  0  0  0
 65138  1  0  0  0
 66 67  1  0  0  0
 66 69  1  0  0  0
 66139  1  0  0  0
 67 68  2  0  0  0
 67 73  1  0  0  0
 69 70  1  0  0  0
 69140  1  0  0  0
 69141  1  0  0  0
 70 71  1  0  0  0
 70 72  1  0  0  0
 70142  1  0  0  0
 71143  1  0  0  0
 71144  1  0  0  0
 71145  1  0  0  0
 72146  1  0  0  0
 72147  1  0  0  0
 72148  1  0  0  0
 73 74  1  0  0  0
 73149  1  0  0  0
 74 75  1  0  0  0
 74 77  1  0  0  0
 74150  1  0  0  0
 75 76  2  0  0  0
 75 81  1  0  0  0
 77 78  1  0  0  0
 77151  1  0  0  0
 77152  1  0  0  0
 78 79  2  0  0  0
 78 80  1  0  0  0
 80153  1  0  0  0
 80154  1  0  0  0
 81155  1  0  0  0
M  CHG  1   1   1
M  END
> <s_m_source_file>
../1gux_ligand.sdf

> <i_m_source_file_index>
1

> <s_epik_input>
W09IXUMoPU8pW0NIMl1bQ0BIXShbTkgzK10pQyg9TylbTkhdW0NAQEhdKFtDSDJdW0NIXShbQ0gzXSlbQ0gzXSlDKD1PKVtOSF1bQ0BASF0oW0NIMl1jMVtjSF1bY0hdYyhbT0hdKVtjSF1bY0hdMSlDKD1PKVtOSF1bQ0BASF0oW0NIMl1bU0hdKUMoPU8pW05IXVtDQEBIXShbQ0gyXWMyW2NIXVtjSF1jKFtPSF0pW2NIXVtjSF0yKUMoPU8pW05IXVtDQEBIXShbQ0gyXVtDSDJdQyg9TylbT0hdKUMoPU8pW05IXVtDQEBIXShbQ0gyXVtDSDJdQyg9TylbTkgyXSlDKD1PKVtOSF1bQ0BASF0oW0NIMl1bQ0hdKFtDSDNdKVtDSDNdKUMoPU8pW05IXVtDQEhdKEMoPU8pW09IXSlbQ0gyXUMoPU8pW05IMl0=

> <s_epik_cmdline>
J2VwaWtfYXBwJywgJy1pbWFlJywgJ2xpZ2FuZF9wcm8ubWFlJywgJy1vbWFlJywgJ2xpZ2FuZF9wcmVwLm1hZScsICctbXMnLCAnMScsICctcGgnLCAnNycsICctcGh0JywgJzAuNScsICctbnQn

> <s_epik_pKa_notes>
Molecule size exceeds maximum supported for generating protonation states

$$$$
