1gvk_ligand
                    3D
 Schrodinger Suite 2020-3.
 54 54  0  0  1  0            999 V2000
  -15.7400   18.0620   39.5140 C   0  0  0  0  0  0
  -15.1830   16.9770   39.3860 O   0  0  0  0  0  0
  -16.7630   18.3670   40.5840 C   0  0  0  0  0  0
  -15.4010   19.0490   38.6990 N   0  0  0  0  0  0
  -14.5120   19.1060   37.5420 C   0  0  2  0  0  0
  -13.2250   19.8180   37.9480 C   0  0  0  0  0  0
  -13.3150   21.0270   38.1900 O   0  0  0  0  0  0
  -15.0980   19.8710   36.3870 C   0  0  0  0  0  0
  -15.4220   19.2880   35.0340 C   0  0  0  0  0  0
  -15.8110   20.0290   34.1060 O   0  0  0  0  0  0
  -15.2980   17.9820   34.7940 N   0  0  0  0  0  0
  -12.0780   19.1400   38.0010 N   0  0  0  0  0  0
  -10.8530   19.8750   38.3470 C   0  0  2  0  0  0
  -10.5580   20.9860   37.3380 C   0  0  0  0  0  0
  -10.7640   20.7610   36.1650 O   0  0  0  0  0  0
   -9.7990   18.7860   38.2670 C   0  0  0  0  0  0
  -10.5090   17.4840   38.4880 C   0  0  0  0  0  0
  -11.7950   17.7110   37.7860 C   0  0  0  0  0  0
  -10.0880   22.1270   37.8350 N   0  0  0  0  0  0
   -9.7280   23.2220   36.9440 C   0  0  2  0  0  0
   -8.3190   23.8270   37.2100 C   0  0  0  0  0  0
   -7.9350   24.6260   36.4130 O   0  0  0  0  0  0
  -10.6460   24.4330   37.1630 C   0  0  2  0  0  0
  -10.9280   24.8730   38.6240 C   0  0  0  0  0  0
  -11.9380   24.1280   36.5150 C   0  0  0  0  0  0
  -11.2770   26.3810   38.6870 C   0  0  0  0  0  0
  -16.9477   17.4631   41.1830 H   0  0  0  0  0  0
  -17.7018   18.6921   40.1117 H   0  0  0  0  0  0
  -16.3840   19.1678   41.2360 H   0  0  0  0  0  0
  -15.9335   19.9534   39.0286 H   0  0  0  0  0  0
  -14.3731   18.0572   37.2407 H   0  0  0  0  0  0
  -16.0740   20.2857   36.6793 H   0  0  0  0  0  0
  -14.4198   20.6911   36.1085 H   0  0  0  0  0  0
  -14.9576   17.3060   35.5922 H   0  0  0  0  0  0
  -15.5361   17.5808   33.7978 H   0  0  0  0  0  0
  -10.9379   20.3630   39.3292 H   0  0  0  0  0  0
   -9.3225   18.8091   37.2759 H   0  0  0  0  0  0
   -9.0383   18.9542   39.0436 H   0  0  0  0  0  0
   -9.9182   16.6654   38.0511 H   0  0  0  0  0  0
  -10.6318   17.3119   39.5675 H   0  0  0  0  0  0
  -12.6098   17.1076   38.2127 H   0  0  0  0  0  0
  -11.7168   17.5109   36.7072 H   0  0  0  0  0  0
   -9.9715   22.2420   38.9228 H   0  0  0  0  0  0
   -9.8204   22.7133   35.9731 H   0  0  0  0  0  0
   -7.6863   23.5593   38.0691 H   0  0  0  0  0  0
  -10.1280   25.2826   36.6940 H   0  0  0  0  0  0
  -11.7751   24.2961   39.0236 H   0  0  0  0  0  0
  -10.0359   24.6896   39.2409 H   0  0  0  0  0  0
  -11.7617   23.8132   35.4759 H   0  0  0  0  0  0
  -12.5734   25.0259   36.5233 H   0  0  0  0  0  0
  -12.4410   23.3178   37.0633 H   0  0  0  0  0  0
  -11.4724   26.6688   39.7305 H   0  0  0  0  0  0
  -12.1728   26.5757   38.0790 H   0  0  0  0  0  0
  -10.4336   26.9692   38.2962 H   0  0  0  0  0  0
  1  2  2  0  0  0
  1  3  1  0  0  0
  1  4  1  0  0  0
  3 27  1  0  0  0
  3 28  1  0  0  0
  3 29  1  0  0  0
  4  5  1  0  0  0
  4 30  1  0  0  0
  5  6  1  0  0  0
  5  8  1  0  0  0
  5 31  1  0  0  0
  6  7  2  0  0  0
  6 12  1  0  0  0
  8  9  1  0  0  0
  8 32  1  0  0  0
  8 33  1  0  0  0
  9 10  2  0  0  0
  9 11  1  0  0  0
 11 34  1  0  0  0
 11 35  1  0  0  0
 12 13  1  0  0  0
 12 18  1  0  0  0
 13 14  1  0  0  0
 13 16  1  0  0  0
 13 36  1  0  0  0
 14 15  2  0  0  0
 14 19  1  0  0  0
 16 17  1  0  0  0
 16 37  1  0  0  0
 16 38  1  0  0  0
 17 18  1  0  0  0
 17 39  1  0  0  0
 17 40  1  0  0  0
 18 41  1  0  0  0
 18 42  1  0  0  0
 19 20  1  0  0  0
 19 43  1  0  0  0
 20 21  1  0  0  0
 20 23  1  0  0  0
 20 44  1  0  0  0
 21 22  2  0  0  0
 21 45  1  0  0  0
 23 24  1  0  0  0
 23 25  1  0  0  0
 23 46  1  0  0  0
 24 26  1  0  0  0
 24 47  1  0  0  0
 24 48  1  0  0  0
 25 49  1  0  0  0
 25 50  1  0  0  0
 25 51  1  0  0  0
 26 52  1  0  0  0
 26 53  1  0  0  0
 26 54  1  0  0  0
M  END
> <s_m_source_file>
../1gvk_ligand.sdf

> <i_m_source_file_index>
1

> <s_epik_input>
Tz1DKFtDSDNdKVtOSF1bQ0BASF0oW0NIMl1DKD1PKVtOSDJdKUMoPU8pTjFbQ0BASF0oW0NIMl1bQ0gyXVtDSDJdMSlDKD1PKVtOSF1bQ0BIXShbQ0hdPU8pW0NAQEhdKFtDSDNdKVtDSDJdW0NIM10=

> <s_epik_cmdline>
J2VwaWtfYXBwJywgJy1pbWFlJywgJ2xpZ2FuZF9wcm8ubWFlJywgJy1vbWFlJywgJ2xpZ2FuZF9wcmVwLm1hZScsICctbXMnLCAnMScsICctcGgnLCAnNycsICctcGh0JywgJzAuNScsICctbnQn

> <r_lp_tautomer_probability>
1

> <r_epik_Ionization_Penalty>
  0.0001

> <r_epik_Ionization_Penalty_Charging>
  0.0000

> <r_epik_Ionization_Penalty_Neutral>
  0.0001

> <r_epik_State_Penalty>
 -0.0000

> <r_epik_Charging_Adjusted_Penalty>
0

> <i_epik_Tot_Q>
0

> <i_epik_Tot_abs_Q>
0

$$$$
