1gvu_ligand
                    3D
 Schrodinger Suite 2020-3.
115117  0  0  1  0            999 V2000
    2.9550  269.4180   21.9130 N   0  3  0  0  0  0
    3.2060  269.6060   20.4750 C   0  0  2  0  0  0
    3.5000  271.0690   20.1950 C   0  0  0  0  0  0
    3.0680  271.9710   20.9290 O   0  0  0  0  0  0
    1.9100  269.1680   19.7870 C   0  0  0  0  0  0
    1.4050  268.1300   20.7430 C   0  0  0  0  0  0
    1.7320  268.6160   22.1290 C   0  0  0  0  0  0
    4.2110  271.3260   19.1000 N   0  0  0  0  0  0
    4.6040  272.6380   18.6570 C   0  0  2  0  0  0
    3.7540  273.1190   17.4350 C   0  0  0  0  0  0
    3.3230  272.2740   16.5850 O   0  0  0  0  0  0
    6.0740  272.6080   18.1890 C   0  0  0  0  0  0
    7.0900  272.4540   19.3280 C   0  0  0  0  0  0
    7.9460  273.5010   19.6350 C   0  0  0  0  0  0
    7.2750  271.3180   20.1010 C   0  0  0  0  0  0
    8.8650  273.4300   20.6440 C   0  0  0  0  0  0
    8.2150  271.2450   21.1090 C   0  0  0  0  0  0
    9.0290  272.2880   21.3890 C   0  0  0  0  0  0
    3.5940  274.4570   17.3290 N   0  0  0  0  0  0
    2.9420  275.0650   16.1490 C   0  0  2  0  0  0
    3.5460  276.4450   15.9480 C   0  0  0  0  0  0
    3.2080  277.4170   16.6290 O   0  0  0  0  0  0
    1.4450  275.1380   16.3800 C   0  0  0  0  0  0
    0.6580  275.7640   15.2900 C   0  0  0  0  0  0
   -0.6350  276.2980   15.5230 N   0  3  0  0  0  0
    0.9620  276.0310   14.0150 C   0  0  0  0  0  0
   -1.0580  276.8520   14.4170 C   0  0  0  0  0  0
   -0.1240  276.6820   13.4880 N   0  0  0  0  0  0
    4.4570  276.5230   14.9690 N   0  0  0  0  0  0
    5.3320  277.6930   14.7580 C   0  0  1  0  0  0
    6.7730  277.3440   15.2010 C   0  0  0  0  0  0
    7.0140  276.8210   16.6390 C   0  0  0  0  0  0
    8.4570  276.3450   16.8090 C   0  0  0  0  0  0
    6.6850  277.8720   17.7020 C   0  0  0  0  0  0
    5.2630  278.1460   13.2880 C   0  0  1  0  0  0
    5.6100  276.9900   12.4140 O   0  0  0  0  0  0
    3.9190  278.6940   12.7850 C   0  0  0  0  0  0
    3.6080  280.0890   13.3180 C   0  0  0  0  0  0
    2.9850  280.2590   14.3690 O   0  0  0  0  0  0
    4.0720  281.1410   12.5960 N   0  0  0  0  0  0
    3.8570  282.5410   13.0620 C   0  0  2  0  0  0
    2.3810  282.9190   12.8720 C   0  0  0  0  0  0
    1.7350  282.5630   11.8760 O   0  0  0  0  0  0
    4.7680  283.5350   12.3100 C   0  0  0  0  0  0
    4.4480  283.6190   10.8120 C   0  0  0  0  0  0
    4.7460  284.9400   12.9260 C   0  0  0  0  0  0
    1.9210  283.7460   13.8000 N   0  0  0  0  0  0
    0.6760  284.4830   13.6750 C   0  0  2  0  0  0
    0.9490  285.8490   13.0470 C   0  0  0  0  0  0
    1.6340  286.7020   13.5940 O   0  0  0  0  0  0
    0.0460  284.6940   15.0510 C   0  0  2  0  0  0
   -0.2010  283.4450   15.9120 C   0  0  0  0  0  0
   -1.2560  285.4920   14.8890 C   0  0  0  0  0  0
   -0.4930  283.8310   17.3720 C   0  0  0  0  0  0
    0.4482  286.1071   11.9200 O   0  5  0  0  0  0
    3.8085  268.8948   22.3688 H   0  0  0  0  0  0
    2.8267  270.3988   22.3941 H   0  0  0  0  0  0
    4.0792  269.0227   20.1475 H   0  0  0  0  0  0
    1.2377  270.0328   19.6868 H   0  0  0  0  0  0
    2.1420  268.7665   18.7895 H   0  0  0  0  0  0
    0.3184  268.0134   20.6173 H   0  0  0  0  0  0
    1.9028  267.1705   20.5390 H   0  0  0  0  0  0
    1.9509  267.7944   22.8269 H   0  0  0  0  0  0
    0.9437  269.2561   22.5519 H   0  0  0  0  0  0
    4.5002  270.4391   18.5171 H   0  0  0  0  0  0
    4.4410  273.2561   19.5522 H   0  0  0  0  0  0
    6.2236  271.7600   17.5045 H   0  0  0  0  0  0
    6.3120  273.5467   17.6673 H   0  0  0  0  0  0
    7.8833  274.4173   19.0480 H   0  0  0  0  0  0
    6.6517  270.4457   19.9044 H   0  0  0  0  0  0
    9.4828  274.3009   20.8628 H   0  0  0  0  0  0
    8.3031  270.3278   21.6913 H   0  0  0  0  0  0
    9.7836  272.2249   22.1731 H   0  0  0  0  0  0
    3.9611  275.0967   18.1451 H   0  0  0  0  0  0
    3.1193  274.4434   15.2589 H   0  0  0  0  0  0
    1.0436  274.1217   16.5068 H   0  0  0  0  0  0
    1.2421  275.7280   17.2859 H   0  0  0  0  0  0
    1.8884  275.7810   13.4979 H   0  0  0  0  0  0
   -2.0106  277.3639   14.2810 H   0  0  0  0  0  0
    4.5335  275.6516   14.3021 H   0  0  0  0  0  0
    4.9501  278.5121   15.3850 H   0  0  0  0  0  0
    7.1753  276.5535   14.5504 H   0  0  0  0  0  0
    7.4071  278.2396   15.1248 H   0  0  0  0  0  0
    6.3366  275.9690   16.7981 H   0  0  0  0  0  0
    8.6868  275.5903   16.0425 H   0  0  0  0  0  0
    8.5818  275.9025   17.8083 H   0  0  0  0  0  0
    9.1405  277.1998   16.6985 H   0  0  0  0  0  0
    5.6461  278.2100   17.5742 H   0  0  0  0  0  0
    7.3656  278.7293   17.5930 H   0  0  0  0  0  0
    6.8069  277.4320   18.7027 H   0  0  0  0  0  0
    5.9856  278.9722   13.2156 H   0  0  0  0  0  0
    6.5417  276.4310   12.5855 H   0  0  0  0  0  0
    3.9345  278.7515   11.6866 H   0  0  0  0  0  0
    3.1070  278.0248   13.1057 H   0  0  0  0  0  0
    4.6122  280.9508   11.6569 H   0  0  0  0  0  0
    4.1223  282.5622   14.1293 H   0  0  0  0  0  0
    5.7863  283.1327   12.4157 H   0  0  0  0  0  0
    4.4653  282.6092   10.3762 H   0  0  0  0  0  0
    5.1993  284.2474   10.3113 H   0  0  0  0  0  0
    3.4500  284.0607   10.6745 H   0  0  0  0  0  0
    4.9760  284.8733   13.9996 H   0  0  0  0  0  0
    3.7485  285.3837   12.7916 H   0  0  0  0  0  0
    5.4977  285.5703   12.4284 H   0  0  0  0  0  0
    2.5388  283.8591   14.7030 H   0  0  0  0  0  0
    0.0257  283.8679   13.0357 H   0  0  0  0  0  0
    0.8121  285.2459   15.6154 H   0  0  0  0  0  0
   -1.0638  282.8904   15.5145 H   0  0  0  0  0  0
    0.6908  282.8015   15.8889 H   0  0  0  0  0  0
   -1.0659  286.3823   14.2716 H   0  0  0  0  0  0
   -1.6208  285.8034   15.8789 H   0  0  0  0  0  0
   -2.0138  284.8619   14.4005 H   0  0  0  0  0  0
   -0.6656  282.9204   17.9645 H   0  0  0  0  0  0
   -1.3884  284.4688   17.4106 H   0  0  0  0  0  0
    0.3662  284.3799   17.7850 H   0  0  0  0  0  0
   -1.1005  276.1990   16.5147 H   0  0  0  0  0  0
  1  2  1  0  0  0
  1  7  1  0  0  0
  1 56  1  0  0  0
  1 57  1  0  0  0
  2  5  1  0  0  0
  2  3  1  0  0  0
  2 58  1  0  0  0
  3  4  2  0  0  0
  3  8  1  0  0  0
  5  6  1  0  0  0
  5 59  1  0  0  0
  5 60  1  0  0  0
  6  7  1  0  0  0
  6 61  1  0  0  0
  6 62  1  0  0  0
  7 63  1  0  0  0
  7 64  1  0  0  0
  8  9  1  0  0  0
  8 65  1  0  0  0
  9 10  1  0  0  0
  9 12  1  0  0  0
  9 66  1  0  0  0
 10 11  2  0  0  0
 10 19  1  0  0  0
 12 13  1  0  0  0
 12 67  1  0  0  0
 12 68  1  0  0  0
 13 15  2  0  0  0
 13 14  1  0  0  0
 14 16  2  0  0  0
 14 69  1  0  0  0
 15 17  1  0  0  0
 15 70  1  0  0  0
 16 18  1  0  0  0
 16 71  1  0  0  0
 17 18  2  0  0  0
 17 72  1  0  0  0
 18 73  1  0  0  0
 19 20  1  0  0  0
 19 74  1  0  0  0
 20 21  1  0  0  0
 20 23  1  0  0  0
 20 75  1  0  0  0
 21 22  2  0  0  0
 21 29  1  0  0  0
 23 24  1  0  0  0
 23 76  1  0  0  0
 23 77  1  0  0  0
 24 26  2  0  0  0
 24 25  1  0  0  0
 25 27  2  0  0  0
 25115  1  0  0  0
 26 28  1  0  0  0
 26 78  1  0  0  0
 27 28  1  0  0  0
 27 79  1  0  0  0
 29 30  1  0  0  0
 29 80  1  0  0  0
 30 35  1  0  0  0
 30 31  1  0  0  0
 30 81  1  0  0  0
 31 32  1  0  0  0
 31 82  1  0  0  0
 31 83  1  0  0  0
 32 34  1  0  0  0
 32 33  1  0  0  0
 32 84  1  0  0  0
 33 85  1  0  0  0
 33 86  1  0  0  0
 33 87  1  0  0  0
 34 88  1  0  0  0
 34 89  1  0  0  0
 34 90  1  0  0  0
 35 37  1  0  0  0
 35 36  1  0  0  0
 35 91  1  0  0  0
 36 92  1  0  0  0
 37 38  1  0  0  0
 37 93  1  0  0  0
 37 94  1  0  0  0
 38 39  2  0  0  0
 38 40  1  0  0  0
 40 41  1  0  0  0
 40 95  1  0  0  0
 41 42  1  0  0  0
 41 44  1  0  0  0
 41 96  1  0  0  0
 42 43  2  0  0  0
 42 47  1  0  0  0
 44 45  1  0  0  0
 44 46  1  0  0  0
 44 97  1  0  0  0
 45 98  1  0  0  0
 45 99  1  0  0  0
 45100  1  0  0  0
 46101  1  0  0  0
 46102  1  0  0  0
 46103  1  0  0  0
 47 48  1  0  0  0
 47104  1  0  0  0
 48 49  1  0  0  0
 48 51  1  0  0  0
 48105  1  0  0  0
 49 50  2  0  0  0
 49 55  1  0  0  0
 51 52  1  0  0  0
 51 53  1  0  0  0
 51106  1  0  0  0
 52 54  1  0  0  0
 52107  1  0  0  0
 52108  1  0  0  0
 53109  1  0  0  0
 53110  1  0  0  0
 53111  1  0  0  0
 54112  1  0  0  0
 54113  1  0  0  0
 54114  1  0  0  0
M  CHG  3   1   1  25   1  55  -1
M  END
> <s_m_source_file>
../1gvu_ligand.sdf

> <i_m_source_file_index>
1

> <s_epik_input>
W0NIMl0xW0NIMl1bQ0gyXVtOSDIrXVtDQEBIXTFDKD1PKVtOSF1bQ0BASF0oW0NIMl1jMltjSF1bY0hdW2NIXVtjSF1bY0hdMilDKD1PKVtOSF1bQ0BASF0oW0NIMl1jM25bY0hdW25IXVtjSF0zKUMoPU8pW05IXVtDQEBIXShbQ0gyXVtDSF0oW0NIM10pW0NIM10pW0NAQEhdKFtPSF0pW0NIMl1DKD1PKVtOSF1bQ0BASF0oW0NIXShbQ0gzXSlbQ0gzXSlDKD1PKVtOSF1bQ0BIXShDKD1PKVtPSF0pW0NAQEhdKFtDSDNdKVtDSDJdW0NIM10=

> <s_epik_cmdline>
J2VwaWtfYXBwJywgJy1pbWFlJywgJ2xpZ2FuZF9wcm8ubWFlJywgJy1vbWFlJywgJ2xpZ2FuZF9wcmVwLm1hZScsICctbXMnLCAnMScsICctcGgnLCAnNycsICctcGh0JywgJzAuNScsICctbnQn

> <r_epik_Ionization_Penalty>
  0.6053

> <r_epik_Ionization_Penalty_Charging>
  0.0430

> <r_epik_Ionization_Penalty_Neutral>
  0.5622

> <r_epik_State_Penalty>
  0.0002

> <r_epik_Charging_Adjusted_Penalty>
0.0431946172043446

> <i_epik_Tot_Q>
1

> <i_epik_Tot_abs_Q>
3

$$$$
