1gvw_ligand
                    3D
 Schrodinger Suite 2020-3.
 96 97  0  0  1  0            999 V2000
    1.5530   27.3940   20.2800 O   0  0  0  0  0  0
    2.3520   26.5920   19.7950 C   0  0  0  0  0  0
    2.1280   25.1820   19.8390 O   0  0  0  0  0  0
    1.0100   24.5180   20.4580 C   0  0  0  0  0  0
    0.9900   24.7250   21.9700 C   0  0  0  0  0  0
    1.2510   23.0180   20.2280 C   0  0  0  0  0  0
   -0.2510   24.9630   19.7170 C   0  0  0  0  0  0
    3.5200   26.8240   19.1780 N   0  0  0  0  0  0
    3.9840   28.2080   18.8460 C   0  0  2  0  0  0
    3.1090   28.7590   17.6920 C   0  0  0  0  0  0
    2.8090   27.9390   16.7710 O   0  0  0  0  0  0
    5.4640   28.2240   18.5110 C   0  0  0  0  0  0
    6.5420   28.0500   19.5410 C   0  0  0  0  0  0
    6.6930   26.8970   20.3010 C   0  0  0  0  0  0
    7.4930   29.0520   19.7780 C   0  0  0  0  0  0
    7.6800   26.7200   21.2360 C   0  0  0  0  0  0
    8.4650   28.8950   20.7450 C   0  0  0  0  0  0
    8.5790   27.7350   21.4930 C   0  0  0  0  0  0
    2.7830   30.0750   17.7310 N   0  0  0  0  0  0
    2.1250   30.7490   16.5920 C   0  0  2  0  0  0
    2.8970   32.0560   16.3470 C   0  0  0  0  0  0
    2.4620   33.0960   16.8710 O   0  0  0  0  0  0
    0.6450   31.0910   16.7390 C   0  0  0  0  0  0
   -0.0190   31.7110   15.5380 C   0  0  0  0  0  0
   -1.3170   32.2810   15.5690 N   0  0  0  0  0  0
    0.3820   31.8430   14.2450 C   0  0  0  0  0  0
   -1.6400   32.7380   14.3650 C   0  0  0  0  0  0
   -0.6090   32.4860   13.5360 N   0  3  0  0  0  0
    3.9680   32.0010   15.5460 N   0  0  0  0  0  0
    4.8820   33.0780   15.2090 C   0  0  1  0  0  0
    6.3350   32.9230   15.7760 C   0  0  0  0  0  0
    6.4840   32.5500   17.2740 C   0  0  0  0  0  0
    7.9850   32.3040   17.5850 C   0  0  0  0  0  0
    5.8460   33.5500   18.2210 C   0  0  0  0  0  0
    4.8910   33.4070   13.4150 P   0  0  2  0  0  0
    5.1300   32.1100   12.7550 O   0  0  0  0  0  0
    5.9260   34.4770   13.0940 O   0  5  0  0  0  0
    3.3150   34.1150   12.9120 C   0  0  0  0  0  0
    3.1360   35.5610   13.3240 C   0  0  0  0  0  0
    2.6010   35.7980   14.4070 O   0  0  0  0  0  0
    3.5830   36.5370   12.4910 N   0  0  0  0  0  0
    3.6210   37.9040   12.9790 C   0  0  0  0  0  0
    3.7910   38.9920   11.9560 C   0  0  2  0  0  0
    3.9970   40.3750   12.5990 C   0  0  0  0  0  0
    2.5770   38.9860   11.0550 C   0  0  0  0  0  0
    4.7160   41.2880   11.6660 C   0  0  0  0  0  0
    0.8196   25.7888   22.1922 H   0  0  0  0  0  0
    1.9545   24.4114   22.3958 H   0  0  0  0  0  0
    0.1814   24.1241   22.4117 H   0  0  0  0  0  0
    1.2747   22.8119   19.1477 H   0  0  0  0  0  0
    0.4388   22.4405   20.6937 H   0  0  0  0  0  0
    2.2120   22.7278   20.6779 H   0  0  0  0  0  0
   -0.1311   24.7702   18.6407 H   0  0  0  0  0  0
   -0.4123   26.0387   19.8811 H   0  0  0  0  0  0
   -1.1168   24.4003   20.0961 H   0  0  0  0  0  0
    4.1438   25.9569   18.9151 H   0  0  0  0  0  0
    3.8750   28.8394   19.7401 H   0  0  0  0  0  0
    5.6878   27.4147   17.8004 H   0  0  0  0  0  0
    5.7273   29.1918   18.0593 H   0  0  0  0  0  0
    5.9840   26.0840   20.1445 H   0  0  0  0  0  0
    7.4644   29.9691   19.1896 H   0  0  0  0  0  0
    7.7547   25.7766   21.7769 H   0  0  0  0  0  0
    9.1656   29.7102   20.9259 H   0  0  0  0  0  0
    9.3499   27.6278   22.2561 H   0  0  0  0  0  0
    3.0216   30.6424   18.6427 H   0  0  0  0  0  0
    2.1635   29.9975   15.7896 H   0  0  0  0  0  0
    0.0771   30.1750   16.9593 H   0  0  0  0  0  0
    0.5147   31.8099   17.5613 H   0  0  0  0  0  0
    1.3637   31.4582   13.9316 H   0  0  0  0  0  0
   -2.6151   33.2206   14.2033 H   0  0  0  0  0  0
    4.1217   30.9969   15.1239 H   0  0  0  0  0  0
    4.4456   33.7971   15.9178 H   0  0  0  0  0  0
    6.8607   32.1290   15.2254 H   0  0  0  0  0  0
    6.8780   33.8723   15.6578 H   0  0  0  0  0  0
    5.9046   31.6355   17.4688 H   0  0  0  0  0  0
    8.3927   31.5740   16.8702 H   0  0  0  0  0  0
    8.0882   31.9126   18.6078 H   0  0  0  0  0  0
    8.5376   33.2511   17.4973 H   0  0  0  0  0  0
    4.7873   33.6840   17.9540 H   0  0  0  0  0  0
    6.3689   34.5146   18.1424 H   0  0  0  0  0  0
    5.9194   33.1761   19.2529 H   0  0  0  0  0  0
    3.2278   34.0743   11.8162 H   0  0  0  0  0  0
    2.4937   33.5417   13.3667 H   0  0  0  0  0  0
    3.9120   36.3095   11.4663 H   0  0  0  0  0  0
    2.6796   38.1338   13.4996 H   0  0  0  0  0  0
    4.4637   38.0211   13.6763 H   0  0  0  0  0  0
    4.6946   38.7703   11.3692 H   0  0  0  0  0  0
    3.0189   40.8150   12.8436 H   0  0  0  0  0  0
    4.5908   40.2670   13.5187 H   0  0  0  0  0  0
    2.4552   37.9872   10.6106 H   0  0  0  0  0  0
    2.7103   39.7294   10.2553 H   0  0  0  0  0  0
    1.6823   39.2370   11.6436 H   0  0  0  0  0  0
    4.8522   42.2688   12.1451 H   0  0  0  0  0  0
    4.1273   41.4085   10.7446 H   0  0  0  0  0  0
    5.6992   40.8605   11.4197 H   0  0  0  0  0  0
   -0.4669   32.7053   12.4675 H   0  0  0  0  0  0
  1  2  2  0  0  0
  2  3  1  0  0  0
  2  8  1  0  0  0
  3  4  1  0  0  0
  4  7  1  0  0  0
  4  6  1  0  0  0
  4  5  1  0  0  0
  5 47  1  0  0  0
  5 48  1  0  0  0
  5 49  1  0  0  0
  6 50  1  0  0  0
  6 51  1  0  0  0
  6 52  1  0  0  0
  7 53  1  0  0  0
  7 54  1  0  0  0
  7 55  1  0  0  0
  8  9  1  0  0  0
  8 56  1  0  0  0
  9 10  1  0  0  0
  9 12  1  0  0  0
  9 57  1  0  0  0
 10 11  2  0  0  0
 10 19  1  0  0  0
 12 13  1  0  0  0
 12 58  1  0  0  0
 12 59  1  0  0  0
 13 15  2  0  0  0
 13 14  1  0  0  0
 14 16  2  0  0  0
 14 60  1  0  0  0
 15 17  1  0  0  0
 15 61  1  0  0  0
 16 18  1  0  0  0
 16 62  1  0  0  0
 17 18  2  0  0  0
 17 63  1  0  0  0
 18 64  1  0  0  0
 19 20  1  0  0  0
 19 65  1  0  0  0
 20 21  1  0  0  0
 20 23  1  0  0  0
 20 66  1  0  0  0
 21 22  2  0  0  0
 21 29  1  0  0  0
 23 24  1  0  0  0
 23 67  1  0  0  0
 23 68  1  0  0  0
 24 26  2  0  0  0
 24 25  1  0  0  0
 25 27  2  0  0  0
 26 28  1  0  0  0
 26 69  1  0  0  0
 27 28  1  0  0  0
 27 70  1  0  0  0
 28 96  1  0  0  0
 29 30  1  0  0  0
 29 71  1  0  0  0
 30 35  1  0  0  0
 30 31  1  0  0  0
 30 72  1  0  0  0
 31 32  1  0  0  0
 31 73  1  0  0  0
 31 74  1  0  0  0
 32 34  1  0  0  0
 32 33  1  0  0  0
 32 75  1  0  0  0
 33 76  1  0  0  0
 33 77  1  0  0  0
 33 78  1  0  0  0
 34 79  1  0  0  0
 34 80  1  0  0  0
 34 81  1  0  0  0
 35 38  1  0  0  0
 35 37  1  0  0  0
 35 36  2  0  0  0
 38 39  1  0  0  0
 38 82  1  0  0  0
 38 83  1  0  0  0
 39 40  2  0  0  0
 39 41  1  0  0  0
 41 42  1  0  0  0
 41 84  1  0  0  0
 42 43  1  0  0  0
 42 85  1  0  0  0
 42 86  1  0  0  0
 43 45  1  0  0  0
 43 44  1  0  0  0
 43 87  1  0  0  0
 44 46  1  0  0  0
 44 88  1  0  0  0
 44 89  1  0  0  0
 45 90  1  0  0  0
 45 91  1  0  0  0
 45 92  1  0  0  0
 46 93  1  0  0  0
 46 94  1  0  0  0
 46 95  1  0  0  0
M  CHG  2  28   1  37  -1
M  END
> <s_m_source_file>
../1gvw_ligand.sdf

> <i_m_source_file_index>
1

> <s_epik_input>
W2NIXTFbY0hdW2NIXVtjSF1bY0hdYzFbQ0gyXVtDQEhdKFtOSF1DKD1PKU9DKFtDSDNdKShbQ0gzXSlbQ0gzXSlDKD1PKVtOSF1bQ0BASF0oW0NIMl1jMm5bY0hdW25IXVtjSF0yKUMoPU8pW05IXVtDQEBIXShbQ0gyXVtDSF0oW0NIM10pW0NIM10pW1BAXSg9TykoW09IXSlbQ0gyXUMoPU8pW05IXVtDSDJdW0NAQEhdKFtDSDNdKVtDSDJdW0NIM10=

> <s_epik_cmdline>
J2VwaWtfYXBwJywgJy1pbWFlJywgJ2xpZ2FuZF9wcm8ubWFlJywgJy1vbWFlJywgJ2xpZ2FuZF9wcmVwLm1hZScsICctbXMnLCAnMScsICctcGgnLCAnNycsICctcGh0JywgJzAuNScsICctbnQn

> <r_epik_Ionization_Penalty>
  0.0035

> <r_epik_Ionization_Penalty_Charging>
  0.0035

> <r_epik_Ionization_Penalty_Neutral>
  0.0000

> <r_epik_State_Penalty>
  0.0002

> <r_epik_Charging_Adjusted_Penalty>
0.00372693011224092

> <i_epik_Tot_Q>
0

> <i_epik_Tot_abs_Q>
2

> <s_epik_Chemistry_Notes>
This compound has an ester and may undergo hydrolysis at high or low pH. This compound has an imine and may undergo hydrolysis.

$$$$
