1gvx_ligand
                    3D
 Schrodinger Suite 2020-3.
126128  0  0  1  0            999 V2000
    3.2120   24.9030   22.0330 N   0  3  0  0  0  0
    3.3150   25.2870   20.6090 C   0  0  2  0  0  0
    3.4820   26.7870   20.3460 C   0  0  0  0  0  0
    2.9720   27.5510   21.2060 O   0  0  0  0  0  0
    1.9610   24.8390   20.0330 C   0  0  0  0  0  0
    1.5210   23.6970   20.8660 C   0  0  0  0  0  0
    2.1420   23.9000   22.2210 C   0  0  0  0  0  0
    4.1790   27.2140   19.2900 N   0  0  0  0  0  0
    4.3720   28.6190   18.8770 C   0  0  2  0  0  0
    3.5220   28.9530   17.6360 C   0  0  0  0  0  0
    3.1590   28.0090   16.8220 O   0  0  0  0  0  0
    5.8770   28.8830   18.5580 C   0  0  2  0  0  0
    6.1910   28.1510   17.3690 O   0  0  0  0  0  0
    6.7790   28.3240   19.6400 C   0  0  0  0  0  0
    3.2110   30.2350   17.4400 N   0  0  0  0  0  0
    2.4980   30.7410   16.2280 C   0  0  2  0  0  0
    3.1950   32.0120   15.7130 C   0  0  0  0  0  0
    2.5570   33.1050   15.6020 O   0  0  0  0  0  0
    0.9910   31.0140   16.4550 C   0  0  0  0  0  0
    0.2080   29.7350   16.8360 C   0  0  0  0  0  0
   -1.2090   30.0900   17.2880 C   0  0  0  0  0  0
   -2.0280   30.4060   16.4360 O   0  0  0  0  0  0
   -1.4220   30.0410   18.5020 O   0  5  0  0  0  0
    4.4940   31.9280   15.2950 N   0  0  0  0  0  0
    5.2900   33.0910   14.9050 C   0  0  2  0  0  0
    5.2060   33.4120   13.3870 C   0  0  0  0  0  0
    6.8140   32.9110   15.2700 C   0  0  0  0  0  0
    7.1910   32.6490   16.7300 C   0  0  0  0  0  0
    8.2800   31.7980   17.0120 C   0  0  0  0  0  0
    6.5500   33.2160   17.8050 C   0  0  0  0  0  0
    8.6950   31.5060   18.3320 C   0  0  0  0  0  0
    6.9530   32.9520   19.1220 C   0  0  0  0  0  0
    8.0470   32.1540   19.3840 C   0  0  0  0  0  0
    3.7810   33.4720   12.8670 N   0  0  1  0  0  0
    3.4800   34.6400   11.9890 C   0  0  2  0  0  0
    3.3770   35.9070   12.8430 C   0  0  0  0  0  0
    2.9620   35.8850   14.0190 O   0  0  0  0  0  0
    2.1660   34.4130   11.1760 C   0  0  0  0  0  0
    0.8810   34.0960   12.0030 C   0  0  0  0  0  0
    0.6020   32.7830   12.3650 C   0  0  0  0  0  0
    0.0040   35.0640   12.4810 C   0  0  0  0  0  0
   -0.5300   32.4460   13.1280 C   0  0  0  0  0  0
   -1.1730   34.7540   13.1760 C   0  0  0  0  0  0
   -1.3770   33.4360   13.5400 C   0  0  0  0  0  0
    3.7860   37.0730   12.2150 N   0  0  0  0  0  0
    3.4990   38.4110   12.8100 C   0  0  2  0  0  0
    1.9770   38.7070   12.8140 C   0  0  0  0  0  0
    1.3150   38.4850   11.7880 O   0  0  0  0  0  0
    4.2470   39.5160   12.0070 C   0  0  0  0  0  0
    3.9640   40.9110   12.5920 C   0  0  0  0  0  0
    4.5950   42.0880   11.8490 C   0  0  0  0  0  0
    3.9770   43.3310   12.3570 N   0  0  0  0  0  0
    3.8790   44.4520   11.6730 C   0  0  0  0  0  0
    4.4330   44.5030   10.4680 N   0  3  0  0  0  0
    3.2610   45.5390   12.1820 N   0  0  0  0  0  0
    1.4670   39.2000   13.9330 N   0  0  0  0  0  0
    0.0940   39.7610   13.9970 C   0  0  2  0  0  0
    0.1460   41.3150   13.9800 C   0  0  0  0  0  0
   -0.9730   41.8680   13.7430 O   0  5  0  0  0  0
   -0.7210   39.1720   15.1440 C   0  0  0  0  0  0
   -2.2330   39.2710   14.9660 C   0  0  0  0  0  0
   -3.0460   38.0070   15.1360 C   0  0  0  0  0  0
   -4.2750   38.0740   15.4150 O   0  5  0  0  0  0
   -2.4810   36.8970   14.9770 O   0  0  0  0  0  0
    1.2042   41.9680   14.1833 O   0  0  0  0  0  0
    4.1680   24.4734   22.3670 H   0  0  0  0  0  0
    2.9789   25.7925   22.6367 H   0  0  0  0  0  0
    4.2211   24.8178   20.1981 H   0  0  0  0  0  0
    1.2447   25.6718   20.0901 H   0  0  0  0  0  0
    2.0907   24.5383   18.9829 H   0  0  0  0  0  0
    0.4229   23.6924   20.9313 H   0  0  0  0  0  0
    1.8652   22.7568   20.4105 H   0  0  0  0  0  0
    2.5787   22.9651   22.6020 H   0  0  0  0  0  0
    1.4048   24.2812   22.9429 H   0  0  0  0  0  0
    4.6331   26.4012   18.7042 H   0  0  0  0  0  0
    4.0278   29.2202   19.7315 H   0  0  0  0  0  0
    6.0762   29.9549   18.4119 H   0  0  0  0  0  0
    5.6626   28.3738   16.4303 H   0  0  0  0  0  0
    6.5848   28.8493   20.5868 H   0  0  0  0  0  0
    7.8306   28.4666   19.3505 H   0  0  0  0  0  0
    6.5762   27.2505   19.7680 H   0  0  0  0  0  0
    3.5101   30.9347   18.2343 H   0  0  0  0  0  0
    2.5746   29.9214   15.4984 H   0  0  0  0  0  0
    0.8690   31.7414   17.2711 H   0  0  0  0  0  0
    0.5489   31.4197   15.5331 H   0  0  0  0  0  0
    0.1483   29.0680   15.9633 H   0  0  0  0  0  0
    0.7265   29.2187   17.6573 H   0  0  0  0  0  0
    4.9369   30.9217   15.2602 H   0  0  0  0  0  0
    4.7942   33.8778   15.4924 H   0  0  0  0  0  0
    5.6722   34.3891   13.1925 H   0  0  0  0  0  0
    5.7351   32.6335   12.8178 H   0  0  0  0  0  0
    7.2248   32.0537   14.7165 H   0  0  0  0  0  0
    7.3665   33.8223   14.9973 H   0  0  0  0  0  0
    8.8225   31.3481   16.1805 H   0  0  0  0  0  0
    5.7087   33.8866   17.6300 H   0  0  0  0  0  0
    9.4986   30.7946   18.5222 H   0  0  0  0  0  0
    6.3930   33.3841   19.9514 H   0  0  0  0  0  0
    8.4032   32.0304   20.4067 H   0  0  0  0  0  0
    3.5683   32.5695   12.2752 H   0  0  0  0  0  0
    4.3258   34.7370   11.2925 H   0  0  0  0  0  0
    1.9336   35.3175   10.5948 H   0  0  0  0  0  0
    2.3004   33.5621   10.4919 H   0  0  0  0  0  0
    1.2809   31.9914   12.0480 H   0  0  0  0  0  0
    0.2433   36.1131   12.3069 H   0  0  0  0  0  0
   -0.7297   31.4065   13.3880 H   0  0  0  0  0  0
   -1.9026   35.5258   13.4211 H   0  0  0  0  0  0
   -2.2306   33.1814   14.1682 H   0  0  0  0  0  0
    4.3308   37.0002   11.2622 H   0  0  0  0  0  0
    3.8615   38.3641   13.8475 H   0  0  0  0  0  0
    5.3303   39.3296   12.0485 H   0  0  0  0  0  0
    3.9118   39.4985   10.9595 H   0  0  0  0  0  0
    2.8796   41.0953   12.5923 H   0  0  0  0  0  0
    4.3446   40.9604   13.6229 H   0  0  0  0  0  0
    5.6793   42.0992   12.0336 H   0  0  0  0  0  0
    4.4078   41.9834   10.7701 H   0  0  0  0  0  0
    3.5581   43.3613   13.3736 H   0  0  0  0  0  0
    4.9359   43.6157   10.0559 H   0  0  0  0  0  0
    2.8027   45.4938   13.1810 H   0  0  0  0  0  0
    3.2157   46.4699   11.5978 H   0  0  0  0  0  0
    2.0973   39.1843   14.8344 H   0  0  0  0  0  0
   -0.4250   39.4173   13.0901 H   0  0  0  0  0  0
   -0.4823   38.1037   15.2526 H   0  0  0  0  0  0
   -0.4749   39.6995   16.0774 H   0  0  0  0  0  0
   -2.6432   39.9788   15.7014 H   0  0  0  0  0  0
   -2.4602   39.6254   13.9497 H   0  0  0  0  0  0
    4.3893   45.4325    9.8815 H   0  0  0  0  0  0
  1  2  1  0  0  0
  1  7  1  0  0  0
  1 66  1  0  0  0
  1 67  1  0  0  0
  2  5  1  0  0  0
  2  3  1  0  0  0
  2 68  1  0  0  0
  3  4  2  0  0  0
  3  8  1  0  0  0
  5  6  1  0  0  0
  5 69  1  0  0  0
  5 70  1  0  0  0
  6  7  1  0  0  0
  6 71  1  0  0  0
  6 72  1  0  0  0
  7 73  1  0  0  0
  7 74  1  0  0  0
  8  9  1  0  0  0
  8 75  1  0  0  0
  9 10  1  0  0  0
  9 12  1  0  0  0
  9 76  1  0  0  0
 10 11  2  0  0  0
 10 15  1  0  0  0
 12 13  1  0  0  0
 12 14  1  0  0  0
 12 77  1  0  0  0
 13 78  1  0  0  0
 14 79  1  0  0  0
 14 80  1  0  0  0
 14 81  1  0  0  0
 15 16  1  0  0  0
 15 82  1  0  0  0
 16 17  1  0  0  0
 16 19  1  0  0  0
 16 83  1  0  0  0
 17 18  2  0  0  0
 17 24  1  0  0  0
 19 20  1  0  0  0
 19 84  1  0  0  0
 19 85  1  0  0  0
 20 21  1  0  0  0
 20 86  1  0  0  0
 20 87  1  0  0  0
 21 22  2  0  0  0
 21 23  1  0  0  0
 24 25  1  0  0  0
 24 88  1  0  0  0
 25 27  1  0  0  0
 25 26  1  0  0  0
 25 89  1  0  0  0
 26 34  1  0  0  0
 26 90  1  0  0  0
 26 91  1  0  0  0
 27 28  1  0  0  0
 27 92  1  0  0  0
 27 93  1  0  0  0
 28 30  2  0  0  0
 28 29  1  0  0  0
 29 31  2  0  0  0
 29 94  1  0  0  0
 30 32  1  0  0  0
 30 95  1  0  0  0
 31 33  1  0  0  0
 31 96  1  0  0  0
 32 33  2  0  0  0
 32 97  1  0  0  0
 33 98  1  0  0  0
 34 35  1  0  0  0
 34 99  1  0  0  0
 35 38  1  0  0  0
 35 36  1  0  0  0
 35100  1  0  0  0
 36 37  2  0  0  0
 36 45  1  0  0  0
 38 39  1  0  0  0
 38101  1  0  0  0
 38102  1  0  0  0
 39 41  2  0  0  0
 39 40  1  0  0  0
 40 42  2  0  0  0
 40103  1  0  0  0
 41 43  1  0  0  0
 41104  1  0  0  0
 42 44  1  0  0  0
 42105  1  0  0  0
 43 44  2  0  0  0
 43106  1  0  0  0
 44107  1  0  0  0
 45 46  1  0  0  0
 45108  1  0  0  0
 46 47  1  0  0  0
 46 49  1  0  0  0
 46109  1  0  0  0
 47 48  2  0  0  0
 47 56  1  0  0  0
 49 50  1  0  0  0
 49110  1  0  0  0
 49111  1  0  0  0
 50 51  1  0  0  0
 50112  1  0  0  0
 50113  1  0  0  0
 51 52  1  0  0  0
 51114  1  0  0  0
 51115  1  0  0  0
 52 53  1  0  0  0
 52116  1  0  0  0
 53 54  2  0  0  0
 53 55  1  0  0  0
 54117  1  0  0  0
 54126  1  0  0  0
 55118  1  0  0  0
 55119  1  0  0  0
 56 57  1  0  0  0
 56120  1  0  0  0
 57 58  1  0  0  0
 57 60  1  0  0  0
 57121  1  0  0  0
 58 65  2  0  0  0
 58 59  1  0  0  0
 60 61  1  0  0  0
 60122  1  0  0  0
 60123  1  0  0  0
 61 62  1  0  0  0
 61124  1  0  0  0
 61125  1  0  0  0
 62 63  1  0  0  0
 62 64  2  0  0  0
M  CHG  5   1   1  23  -1  54   1  59  -1  63  -1
M  END
> <s_m_source_file>
../1gvx_ligand.sdf

> <i_m_source_file_index>
1

> <s_epik_input>
W0NIMl0xW0NIMl1bQ0gyXVtOSDIrXVtDQEBIXTFDKD1PKVtOSF1bQ0BASF0oW0NASF0oW09IXSlbQ0gzXSlDKD1PKVtOSF1bQ0BASF0oW0NIMl1bQ0gyXUMoPU8pW09IXSlDKD1PKVtOSF1bQ0BASF0oW0NIMl1jMltjSF1bY0hdW2NIXVtjSF1bY0hdMilbQ0gyXVtOSDIrXVtDQEBIXShbQ0gyXWMzW2NIXVtjSF1bY0hdW2NIXVtjSF0zKUMoPU8pW05IXVtDQEBIXShbQ0gyXVtDSDJdW0NIMl1bTkhdL0MoPU5cW0hdKVtOSDJdKUMoPU8pW05IXVtDQEhdKEMoPU8pW09IXSlbQ0gyXVtDSDJdQyg9TylbT0hd

> <s_epik_cmdline>
J2VwaWtfYXBwJywgJy1pbWFlJywgJ2xpZ2FuZF9wcm8ubWFlJywgJy1vbWFlJywgJ2xpZ2FuZF9wcmVwLm1hZScsICctbXMnLCAnMScsICctcGgnLCAnNycsICctcGh0JywgJzAuNScsICctbnQn

> <r_epik_Ionization_Penalty>
  0.4459

> <r_epik_Ionization_Penalty_Charging>
  0.0472

> <r_epik_Ionization_Penalty_Neutral>
  0.3987

> <r_epik_State_Penalty>
  0.4161

> <r_epik_Charging_Adjusted_Penalty>
0.463305799226715

> <i_epik_Tot_Q>
-1

> <i_epik_Tot_abs_Q>
5

> <s_epik_Chemistry_Notes>
This compound has an imine and may undergo hydrolysis.

$$$$
