1gwm_ligand
                    3D
 Schrodinger Suite 2020-3.
129134  0  0  1  0            999 V2000
   25.5600    8.2280   32.3120 C   0  0  1  0  0  0
   26.6230    9.3010   32.4840 C   0  0  1  0  0  0
   27.0380    9.8300   31.1160 C   0  0  2  0  0  0
   27.4220    8.6830   30.2190 C   0  0  1  0  0  0
   26.2730    7.7340   30.0740 C   0  0  1  0  0  0
   26.5920    6.6530   29.0400 C   0  0  0  0  0  0
   24.3810    8.7960   31.8180 O   0  0  0  0  0  0
   26.1600   10.3900   33.2630 O   0  0  0  0  0  0
   28.1260   10.7160   31.2430 O   0  0  0  0  0  0
   27.5820    9.2020   28.9190 O   0  0  0  0  0  0
   26.0790    7.2640   31.3880 O   0  0  0  0  0  0
   27.6620    5.9810   29.6430 O   0  0  0  0  0  0
   28.8520    8.3410   26.7660 C   0  0  2  0  0  0
   30.2720    8.6080   26.1850 C   0  0  2  0  0  0
   30.9030    9.9510   26.6530 C   0  0  1  0  0  0
   30.8230   10.0220   28.1910 C   0  0  1  0  0  0
   31.4820   11.2670   28.7540 C   0  0  0  0  0  0
   28.7930    8.7350   28.2850 C   0  0  1  0  0  0
   28.4730    6.9810   26.4700 O   0  0  0  0  0  0
   30.1980    8.4700   24.7750 O   0  0  0  0  0  0
   32.3120   10.1200   26.3310 O   0  0  0  0  0  0
   29.4900    9.9080   28.6670 O   0  0  0  0  0  0
   30.8340   12.4240   28.2820 O   0  0  0  0  0  0
   34.2070   11.2960   25.5310 C   0  0  2  0  0  0
   34.7790   12.1240   24.3900 C   0  0  2  0  0  0
   34.3730   11.5690   23.0180 C   0  0  1  0  0  0
   32.8650   11.3790   22.9880 C   0  0  1  0  0  0
   32.3490   10.7630   21.6870 C   0  0  0  0  0  0
   32.7230   11.0820   25.3300 C   0  0  1  0  0  0
   34.4700   11.9180   26.7840 O   0  0  0  0  0  0
   36.1750   12.1850   24.5460 O   0  0  0  0  0  0
   34.7150   12.4820   21.9890 O   0  0  0  0  0  0
   32.5120   10.5260   24.0560 O   0  0  0  0  0  0
   33.0490    9.5980   21.3190 O   0  0  0  0  0  0
   35.8640   12.9020   19.9160 C   0  0  2  0  0  0
   37.1290   12.4950   19.1540 C   0  0  2  0  0  0
   38.3790   12.6990   20.0110 C   0  0  1  0  0  0
   38.1890   11.9760   21.3400 C   0  0  1  0  0  0
   39.3480   12.1370   22.3080 C   0  0  0  0  0  0
   35.8480   12.1310   21.2200 C   0  0  1  0  0  0
   34.6970   12.6820   19.1500 O   0  0  0  0  0  0
   37.2880   13.2690   17.9950 O   0  0  0  0  0  0
   39.5000   12.1270   19.3370 O   0  0  0  0  0  0
   37.0090   12.4350   21.9630 O   0  0  0  0  0  0
   39.5750   13.5070   22.5550 O   0  0  0  0  0  0
   41.8160   11.9900   18.9560 C   0  0  2  0  0  0
   43.0800   12.7870   18.7010 C   0  0  2  0  0  0
   42.8260   13.8790   17.6680 C   0  0  1  0  0  0
   41.6380   14.7320   18.0810 C   0  0  1  0  0  0
   41.2550   15.7620   17.0230 C   0  0  0  0  0  0
   40.6780   12.9220   19.2840 C   0  0  1  0  0  0
   42.0560   11.0800   20.0010 O   0  0  0  0  0  0
   44.0780   11.8600   18.2680 O   0  0  0  0  0  0
   43.9530   14.7590   17.5840 O   0  0  0  0  0  0
   40.5040   13.8830   18.2580 O   0  0  0  0  0  0
   40.3330   16.6920   17.5320 O   0  0  0  0  0  0
   45.6340   15.7960   16.2250 C   0  0  2  0  0  0
   46.6750   15.5710   15.1310 C   0  0  2  0  0  0
   47.4500   14.2800   15.3600 C   0  0  1  0  0  0
   46.4840   13.1300   15.6340 C   0  0  1  0  0  0
   47.2220   11.8350   15.9170 C   0  0  0  0  0  0
   44.7830   14.5510   16.4430 C   0  0  1  0  0  0
   44.7970   16.8950   15.9120 O   0  0  0  0  0  0
   47.5840   16.6700   15.0920 O   0  0  0  0  0  0
   48.2700   14.0090   14.2270 O   0  0  0  0  0  0
   45.6310   13.4610   16.7210 O   0  0  0  0  0  0
   47.7640   11.8710   17.2050 O   0  0  0  0  0  0
   25.2593    7.7228   33.2417 H   0  0  0  0  0  0
   27.4642    8.8883   33.0602 H   0  0  0  0  0  0
   26.2355   10.4298   30.6620 H   0  0  0  0  0  0
   28.3412    8.2030   30.5859 H   0  0  0  0  0  0
   25.3208    8.1839   29.7564 H   0  0  0  0  0  0
   25.7089    6.0137   28.8935 H   0  0  0  0  0  0
   26.8637    7.1274   28.0854 H   0  0  0  0  0  0
   23.8497    9.5589   32.4059 H   0  0  0  0  0  0
   25.8105   10.2207   34.2922 H   0  0  0  0  0  0
   28.0306   11.6186   31.8644 H   0  0  0  0  0  0
   28.1310    5.1257   29.1346 H   0  0  0  0  0  0
   28.0610    8.9040   26.2489 H   0  0  0  0  0  0
   30.9886    7.8291   26.4848 H   0  0  0  0  0  0
   30.3926   10.7575   26.1061 H   0  0  0  0  0  0
   31.3204    9.1343   28.6089 H   0  0  0  0  0  0
   31.4240   11.2478   29.8523 H   0  0  0  0  0  0
   32.5367   11.2961   28.4430 H   0  0  0  0  0  0
   29.1458    7.7689   28.6750 H   0  0  0  0  0  0
   28.4856    6.6203   25.4309 H   0  0  0  0  0  0
   29.7689    7.5585   24.3333 H   0  0  0  0  0  0
   31.1865   13.4180   28.5944 H   0  0  0  0  0  0
   34.7173   10.3241   25.6010 H   0  0  0  0  0  0
   34.4479   13.1713   24.4494 H   0  0  0  0  0  0
   34.9232   10.6438   22.7914 H   0  0  0  0  0  0
   32.3783   12.3533   23.1426 H   0  0  0  0  0  0
   31.2886   10.4948   21.8036 H   0  0  0  0  0  0
   32.4553   11.4909   20.8692 H   0  0  0  0  0  0
   32.1170   11.9987   25.3806 H   0  0  0  0  0  0
   35.5054   12.1421   27.0802 H   0  0  0  0  0  0
   36.6076   12.5641   25.4836 H   0  0  0  0  0  0
   32.7744    9.0583   20.4007 H   0  0  0  0  0  0
   35.8004   13.9863   20.0897 H   0  0  0  0  0  0
   37.0210   11.4561   18.8090 H   0  0  0  0  0  0
   38.6060   13.7657   20.1547 H   0  0  0  0  0  0
   38.0542   10.9045   21.1310 H   0  0  0  0  0  0
   39.1080   11.6309   23.2547 H   0  0  0  0  0  0
   40.2540   11.6902   21.8728 H   0  0  0  0  0  0
   35.8144   11.0430   21.0613 H   0  0  0  0  0  0
   34.5755   13.1809   18.1772 H   0  0  0  0  0  0
   36.5014   13.2760   17.2261 H   0  0  0  0  0  0
   40.3809   13.8168   23.2366 H   0  0  0  0  0  0
   41.5351   11.3615   18.0980 H   0  0  0  0  0  0
   43.4713   13.2626   19.6124 H   0  0  0  0  0  0
   42.6861   13.4144   16.6808 H   0  0  0  0  0  0
   41.8801   15.2265   19.0333 H   0  0  0  0  0  0
   42.1550   16.3027   16.6950 H   0  0  0  0  0  0
   40.7999   15.2511   16.1617 H   0  0  0  0  0  0
   40.8324   13.4746   20.2225 H   0  0  0  0  0  0
   42.8591   10.3341   19.9072 H   0  0  0  0  0  0
   44.3637   11.0174   18.9149 H   0  0  0  0  0  0
   39.9572   17.5020   16.8896 H   0  0  0  0  0  0
   46.1411   16.0868   17.1568 H   0  0  0  0  0  0
   46.1826   15.5457   14.1477 H   0  0  0  0  0  0
   48.1578   14.3799   16.1961 H   0  0  0  0  0  0
   45.8154   12.9839   14.7729 H   0  0  0  0  0  0
   46.5221   10.9898   15.8403 H   0  0  0  0  0  0
   48.0327   11.7073   15.1846 H   0  0  0  0  0  0
   44.1567   14.2894   15.5774 H   0  0  0  0  0  0
   45.2373   17.8847   15.7208 H   0  0  0  0  0  0
   47.2061   17.6910   14.9343 H   0  0  0  0  0  0
   49.0196   14.7454   13.9018 H   0  0  0  0  0  0
   48.3368   11.0122   17.5849 H   0  0  0  0  0  0
  1  2  1  0  0  0
  1  7  1  0  0  0
  1 11  1  0  0  0
  1 68  1  0  0  0
  2  3  1  0  0  0
  2  8  1  0  0  0
  2 69  1  0  0  0
  3  4  1  0  0  0
  3  9  1  0  0  0
  3 70  1  0  0  0
  4  5  1  0  0  0
  4 10  1  0  0  0
  4 71  1  0  0  0
  5  6  1  0  0  0
  5 11  1  0  0  0
  5 72  1  0  0  0
  6 12  1  0  0  0
  6 73  1  0  0  0
  6 74  1  0  0  0
  7 75  1  0  0  0
  8 76  1  0  0  0
  9 77  1  0  0  0
 10 18  1  0  0  0
 12 78  1  0  0  0
 13 14  1  0  0  0
 13 18  1  0  0  0
 13 19  1  0  0  0
 13 79  1  0  0  0
 14 15  1  0  0  0
 14 20  1  0  0  0
 14 80  1  0  0  0
 15 16  1  0  0  0
 15 21  1  0  0  0
 15 81  1  0  0  0
 16 17  1  0  0  0
 16 22  1  0  0  0
 16 82  1  0  0  0
 17 23  1  0  0  0
 17 83  1  0  0  0
 17 84  1  0  0  0
 18 22  1  0  0  0
 18 85  1  0  0  0
 19 86  1  0  0  0
 20 87  1  0  0  0
 21 29  1  0  0  0
 23 88  1  0  0  0
 24 25  1  0  0  0
 24 29  1  0  0  0
 24 30  1  0  0  0
 24 89  1  0  0  0
 25 26  1  0  0  0
 25 31  1  0  0  0
 25 90  1  0  0  0
 26 27  1  0  0  0
 26 32  1  0  0  0
 26 91  1  0  0  0
 27 28  1  0  0  0
 27 33  1  0  0  0
 27 92  1  0  0  0
 28 34  1  0  0  0
 28 93  1  0  0  0
 28 94  1  0  0  0
 29 33  1  0  0  0
 29 95  1  0  0  0
 30 96  1  0  0  0
 31 97  1  0  0  0
 32 40  1  0  0  0
 34 98  1  0  0  0
 35 36  1  0  0  0
 35 40  1  0  0  0
 35 41  1  0  0  0
 35 99  1  0  0  0
 36 37  1  0  0  0
 36 42  1  0  0  0
 36100  1  0  0  0
 37 38  1  0  0  0
 37 43  1  0  0  0
 37101  1  0  0  0
 38 39  1  0  0  0
 38 44  1  0  0  0
 38102  1  0  0  0
 39 45  1  0  0  0
 39103  1  0  0  0
 39104  1  0  0  0
 40 44  1  0  0  0
 40105  1  0  0  0
 41106  1  0  0  0
 42107  1  0  0  0
 43 51  1  0  0  0
 45108  1  0  0  0
 46 47  1  0  0  0
 46 51  1  0  0  0
 46 52  1  0  0  0
 46109  1  0  0  0
 47 48  1  0  0  0
 47 53  1  0  0  0
 47110  1  0  0  0
 48 49  1  0  0  0
 48 54  1  0  0  0
 48111  1  0  0  0
 49 50  1  0  0  0
 49 55  1  0  0  0
 49112  1  0  0  0
 50 56  1  0  0  0
 50113  1  0  0  0
 50114  1  0  0  0
 51 55  1  0  0  0
 51115  1  0  0  0
 52116  1  0  0  0
 53117  1  0  0  0
 54 62  1  0  0  0
 56118  1  0  0  0
 57 58  1  0  0  0
 57 62  1  0  0  0
 57 63  1  0  0  0
 57119  1  0  0  0
 58 59  1  0  0  0
 58 64  1  0  0  0
 58120  1  0  0  0
 59 60  1  0  0  0
 59 65  1  0  0  0
 59121  1  0  0  0
 60 61  1  0  0  0
 60 66  1  0  0  0
 60122  1  0  0  0
 61 67  1  0  0  0
 61123  1  0  0  0
 61124  1  0  0  0
 62 66  1  0  0  0
 62125  1  0  0  0
 63126  1  0  0  0
 64127  1  0  0  0
 65128  1  0  0  0
 67129  1  0  0  0
M  END
> <s_m_source_file>
../1gwm_ligand.sdf

> <i_m_source_file_index>
1

> <s_epik_input>
W09IXVtDQEBIXTFbQ0BIXShbT0hdKVtDQEBIXShbT0hdKVtDQEBIXShbQ0BIXShPMSlbQ0gyXVtPSF0pT1tDQEBIXTJPW0NASF0oW0NIMl1bT0hdKVtDQEhdKFtDQEhdKFtPSF0pW0NASF0yW09IXSlPW0NAQEhdM09bQ0BIXShbQ0gyXVtPSF0pW0NASF0oW0NASF0oW09IXSlbQ0BIXTNbT0hdKU9bQ0BASF00T1tDQEhdKFtDSDJdW09IXSlbQ0BIXShbQ0BIXShbT0hdKVtDQEhdNFtPSF0pT1tDQEBIXTVPW0NASF0oW0NIMl1bT0hdKVtDQEhdKFtDQEhdKFtPSF0pW0NASF01W09IXSlPW0NAQEhdNk9bQ0BIXShbQ0gyXVtPSF0pW0NAQEhdKFtPSF0pW0NASF0oW09IXSlbQ0BIXTZbT0hd

> <s_epik_cmdline>
J2VwaWtfYXBwJywgJy1pbWFlJywgJ2xpZ2FuZF9wcm8ubWFlJywgJy1vbWFlJywgJ2xpZ2FuZF9wcmVwLm1hZScsICctbXMnLCAnMScsICctcGgnLCAnNycsICctcGh0JywgJzAuNScsICctbnQn

> <r_lp_tautomer_probability>
1

> <r_epik_Ionization_Penalty>
  0.0000

> <r_epik_Ionization_Penalty_Charging>
  0.0000

> <r_epik_Ionization_Penalty_Neutral>
  0.0000

> <r_epik_State_Penalty>
 -0.0000

> <r_epik_Charging_Adjusted_Penalty>
0

> <i_epik_Tot_Q>
0

> <i_epik_Tot_abs_Q>
0

> <s_epik_Chemistry_Notes>
This compound contains an acetal/aminal-like group ( X-CH(R)-Y where X, Y are N, S, or O) that may be acid/base labile, releasing an aldehyde.

$$$$
