1gwq_ligand
                    3D
 Schrodinger Suite 2020-3.
156156  0  0  1  0            999 V2000
    4.4240   22.9290   18.1040 N   0  3  0  0  0  0
    4.7420   24.3570   18.4090 C   0  0  2  0  0  0
    5.2610   24.5480   19.8250 C   0  0  0  0  0  0
    6.2130   25.3130   20.0210 O   0  0  0  0  0  0
    3.5530   25.2650   18.1140 C   0  0  0  0  0  0
    4.7180   23.8730   20.8440 N   0  0  0  0  0  0
    5.2350   24.0350   22.2070 C   0  0  2  0  0  0
    6.7340   23.7690   22.2820 C   0  0  0  0  0  0
    7.5030   24.5370   22.8720 O   0  0  0  0  0  0
    4.5280   23.1440   23.2290 C   0  0  2  0  0  0
    3.0480   23.5520   23.2470 C   0  0  0  0  0  0
    5.1550   23.2900   24.6140 C   0  0  0  0  0  0
    2.1150   22.4690   23.7440 C   0  0  0  0  0  0
    7.1530   22.6780   21.6590 N   0  0  0  0  0  0
    8.5420   22.2670   21.5930 C   0  0  2  0  0  0
    9.4220   23.4060   21.1000 C   0  0  0  0  0  0
   10.4640   23.7220   21.6570 O   0  0  0  0  0  0
    8.6910   21.0790   20.6410 C   0  0  0  0  0  0
    9.6040   19.9440   21.0890 C   0  0  0  0  0  0
    9.6360   18.8790   19.9920 C   0  0  0  0  0  0
   10.9940   20.4230   21.4520 C   0  0  0  0  0  0
    8.9510   24.0160   20.0310 N   0  0  0  0  0  0
    9.5360   25.1610   19.3570 C   0  0  2  0  0  0
    9.6680   26.3640   20.2820 C   0  0  0  0  0  0
   10.6890   27.0420   20.3010 O   0  0  0  0  0  0
    8.6020   25.5400   18.1930 C   0  0  0  0  0  0
    9.4160   26.0850   17.0640 C   0  0  0  0  0  0
    9.9720   25.2160   16.1520 N   0  0  0  0  0  0
    9.7720   27.3380   16.7050 C   0  0  0  0  0  0
   10.6470   25.9230   15.2590 C   0  0  0  0  0  0
   10.5400   27.2150   15.5670 N   0  0  0  0  0  0
    8.6350   26.6210   21.0700 N   0  0  0  0  0  0
    8.6610   27.7110   22.0240 C   0  0  2  0  0  0
    9.7790   27.4330   23.0280 C   0  0  0  0  0  0
   10.6640   28.2410   23.2620 O   0  0  0  0  0  0
    7.3500   27.8820   22.8220 C   0  0  0  0  0  0
    7.1480   29.2320   23.4840 C   0  0  0  0  0  0
    6.4680   29.2000   24.8450 C   0  0  0  0  0  0
    5.3110   28.3260   24.9340 N   0  0  0  0  0  0
    4.8930   27.5460   25.9180 C   0  0  0  0  0  0
    5.4970   27.4190   27.0990 N   0  0  0  0  0  0
    3.7910   26.8190   25.7480 N   0  0  0  0  0  0
    9.6930   26.2490   23.6390 N   0  0  0  0  0  0
   10.6640   25.8840   24.6840 C   0  0  2  0  0  0
   12.0880   25.8610   24.2060 C   0  0  0  0  0  0
   12.9610   26.2190   24.9960 O   0  0  0  0  0  0
   10.2270   24.5790   25.3470 C   0  0  0  0  0  0
    8.7980   24.6990   25.9050 C   0  0  0  0  0  0
    8.2260   23.3680   26.3290 C   0  0  0  0  0  0
    8.7440   25.7050   27.0540 C   0  0  0  0  0  0
   12.3370   25.4890   22.9580 N   0  0  0  0  0  0
   13.6940   25.4700   22.4390 C   0  0  2  0  0  0
   14.2610   26.8580   22.1880 C   0  0  0  0  0  0
   15.4870   27.0120   22.2550 O   0  0  0  0  0  0
   13.7550   24.6090   21.1770 C   0  0  0  0  0  0
   13.7050   23.1000   21.4170 C   0  0  0  0  0  0
   13.4430   22.3220   20.1390 C   0  0  0  0  0  0
   15.0060   22.6390   22.0520 C   0  0  0  0  0  0
   13.4240   27.8580   21.9310 N   0  0  0  0  0  0
   13.8830   29.2210   21.6960 C   0  0  2  0  0  0
   13.9560   30.0590   22.9740 C   0  0  0  0  0  0
   14.5810   31.1230   22.9550 O   0  0  0  0  0  0
   12.9830   29.9970   20.7390 C   0  0  0  0  0  0
   13.2100   29.7470   19.2600 C   0  0  0  0  0  0
   12.0990   30.4250   18.4770 C   0  0  0  0  0  0
   11.1940   29.7540   17.9850 O   0  0  0  0  0  0
   12.2170   31.7490   18.4140 N   0  0  0  0  0  0
   13.3190   29.5610   24.0280 N   0  0  0  0  0  0
   13.2950   30.2960   25.2900 C   0  0  2  0  0  0
   13.8130   29.4920   26.4840 C   0  0  0  0  0  0
   14.9890   29.7180   26.8760 O   0  0  0  0  0  0
   11.8510   30.7560   25.5500 C   0  0  0  0  0  0
   12.9190   29.0080   27.2400 O   0  0  0  0  0  0
    5.3002   22.3025   18.3272 H   0  0  0  0  0  0
    4.1643   22.8305   17.0397 H   0  0  0  0  0  0
    3.5735   22.6030   18.7207 H   0  0  0  0  0  0
    5.5635   24.6306   17.7305 H   0  0  0  0  0  0
    3.2094   25.0958   17.0828 H   0  0  0  0  0  0
    3.8561   26.3158   18.2317 H   0  0  0  0  0  0
    2.7359   25.0383   18.8146 H   0  0  0  0  0  0
    3.8761   23.1914   20.6525 H   0  0  0  0  0  0
    5.0147   25.0915   22.4201 H   0  0  0  0  0  0
    4.6350   22.0854   22.9499 H   0  0  0  0  0  0
    2.9155   24.4218   23.9073 H   0  0  0  0  0  0
    2.7272   23.8132   22.2277 H   0  0  0  0  0  0
    6.2128   22.9915   24.5709 H   0  0  0  0  0  0
    4.6210   22.6458   25.3280 H   0  0  0  0  0  0
    5.0827   24.3379   24.9406 H   0  0  0  0  0  0
    1.0797   22.8401   23.7255 H   0  0  0  0  0  0
    2.3877   22.1942   24.7736 H   0  0  0  0  0  0
    2.1995   21.5856   23.0941 H   0  0  0  0  0  0
    6.3758   22.0698   21.1732 H   0  0  0  0  0  0
    8.8113   21.9962   22.6246 H   0  0  0  0  0  0
    7.7065   20.6179   20.4732 H   0  0  0  0  0  0
    9.1011   21.4272   19.6815 H   0  0  0  0  0  0
    9.2038   19.5124   22.0183 H   0  0  0  0  0  0
    8.6090   18.5605   19.7602 H   0  0  0  0  0  0
   10.2191   18.0130   20.3386 H   0  0  0  0  0  0
   10.1030   19.2975   19.0882 H   0  0  0  0  0  0
   10.9244   21.1855   22.2418 H   0  0  0  0  0  0
   11.4755   20.8579   20.5638 H   0  0  0  0  0  0
   11.5916   19.5735   21.8141 H   0  0  0  0  0  0
    8.0185   23.5721   19.6522 H   0  0  0  0  0  0
   10.5412   24.8443   19.0418 H   0  0  0  0  0  0
    8.0557   24.6469   17.8556 H   0  0  0  0  0  0
    7.8849   26.3023   18.5316 H   0  0  0  0  0  0
    9.5704   28.3334   17.1276 H   0  0  0  0  0  0
   11.1989   25.5156   14.4120 H   0  0  0  0  0  0
    7.7424   25.9835   20.9875 H   0  0  0  0  0  0
    8.8234   28.5987   21.3951 H   0  0  0  0  0  0
    6.4907   27.7387   22.1504 H   0  0  0  0  0  0
    7.3125   27.1363   23.6297 H   0  0  0  0  0  0
    8.1243   29.7152   23.6367 H   0  0  0  0  0  0
    6.5217   29.8664   22.8395 H   0  0  0  0  0  0
    7.1839   28.8525   25.6045 H   0  0  0  0  0  0
    6.1196   30.2105   25.1047 H   0  0  0  0  0  0
    4.6178   28.2429   24.0840 H   0  0  0  0  0  0
    6.4134   27.9889   27.3122 H   0  0  0  0  0  0
    5.0792   26.7443   27.8607 H   0  0  0  0  0  0
    3.2383   26.8719   24.7984 H   0  0  0  0  0  0
    8.8946   25.5456   23.3602 H   0  0  0  0  0  0
   10.6504   26.7044   25.4166 H   0  0  0  0  0  0
   10.2506   23.7658   24.6067 H   0  0  0  0  0  0
   10.9113   24.3412   26.1748 H   0  0  0  0  0  0
    8.1526   25.0567   25.0892 H   0  0  0  0  0  0
    8.2759   22.6624   25.4866 H   0  0  0  0  0  0
    7.1777   23.5002   26.6350 H   0  0  0  0  0  0
    8.8075   22.9716   27.1744 H   0  0  0  0  0  0
    9.1655   26.6649   26.7210 H   0  0  0  0  0  0
    9.3287   25.3228   27.9037 H   0  0  0  0  0  0
    7.6989   25.8514   27.3643 H   0  0  0  0  0  0
   11.4972   25.1918   22.3128 H   0  0  0  0  0  0
   14.2888   25.0245   23.2500 H   0  0  0  0  0  0
   12.9020   24.8514   20.5262 H   0  0  0  0  0  0
   14.6941   24.8103   20.6408 H   0  0  0  0  0  0
   12.8660   22.8920   22.0973 H   0  0  0  0  0  0
   12.4995   22.6639   19.6885 H   0  0  0  0  0  0
   13.3709   21.2492   20.3711 H   0  0  0  0  0  0
   14.2688   22.4895   19.4319 H   0  0  0  0  0  0
   15.1852   23.2087   22.9757 H   0  0  0  0  0  0
   15.8363   22.8074   21.3504 H   0  0  0  0  0  0
   14.9384   21.5671   22.2896 H   0  0  0  0  0  0
   12.3491   27.6264   21.8991 H   0  0  0  0  0  0
   14.8769   29.0270   21.2663 H   0  0  0  0  0  0
   11.9316   29.7388   20.9338 H   0  0  0  0  0  0
   13.1298   31.0764   20.8916 H   0  0  0  0  0  0
   14.1843   30.1625   18.9632 H   0  0  0  0  0  0
   13.1983   28.6645   19.0651 H   0  0  0  0  0  0
   13.0722   32.2484   18.8928 H   0  0  0  0  0  0
   11.4593   32.3441   17.8831 H   0  0  0  0  0  0
   12.8080   28.5902   23.9471 H   0  0  0  0  0  0
   13.9940   31.1322   25.1412 H   0  0  0  0  0  0
   11.4887   31.3326   24.6861 H   0  0  0  0  0  0
   11.8239   31.3879   26.4500 H   0  0  0  0  0  0
   11.2074   29.8766   25.6998 H   0  0  0  0  0  0
   13.2057   28.4162   28.1218 H   0  0  0  0  0  0
  1  2  1  0  0  0
  1 74  1  0  0  0
  1 75  1  0  0  0
  1 76  1  0  0  0
  2  3  1  0  0  0
  2  5  1  0  0  0
  2 77  1  0  0  0
  3  4  2  0  0  0
  3  6  1  0  0  0
  5 78  1  0  0  0
  5 79  1  0  0  0
  5 80  1  0  0  0
  6  7  1  0  0  0
  6 81  1  0  0  0
  7  8  1  0  0  0
  7 10  1  0  0  0
  7 82  1  0  0  0
  8  9  2  0  0  0
  8 14  1  0  0  0
 10 11  1  0  0  0
 10 12  1  0  0  0
 10 83  1  0  0  0
 11 13  1  0  0  0
 11 84  1  0  0  0
 11 85  1  0  0  0
 12 86  1  0  0  0
 12 87  1  0  0  0
 12 88  1  0  0  0
 13 89  1  0  0  0
 13 90  1  0  0  0
 13 91  1  0  0  0
 14 15  1  0  0  0
 14 92  1  0  0  0
 15 16  1  0  0  0
 15 18  1  0  0  0
 15 93  1  0  0  0
 16 17  2  0  0  0
 16 22  1  0  0  0
 18 19  1  0  0  0
 18 94  1  0  0  0
 18 95  1  0  0  0
 19 20  1  0  0  0
 19 21  1  0  0  0
 19 96  1  0  0  0
 20 97  1  0  0  0
 20 98  1  0  0  0
 20 99  1  0  0  0
 21100  1  0  0  0
 21101  1  0  0  0
 21102  1  0  0  0
 22 23  1  0  0  0
 22103  1  0  0  0
 23 24  1  0  0  0
 23 26  1  0  0  0
 23104  1  0  0  0
 24 25  2  0  0  0
 24 32  1  0  0  0
 26 27  1  0  0  0
 26105  1  0  0  0
 26106  1  0  0  0
 27 28  2  0  0  0
 27 29  1  0  0  0
 28 30  1  0  0  0
 29 31  2  0  0  0
 29107  1  0  0  0
 30 31  1  0  0  0
 30108  1  0  0  0
 32 33  1  0  0  0
 32109  1  0  0  0
 33 34  1  0  0  0
 33 36  1  0  0  0
 33110  1  0  0  0
 34 35  2  0  0  0
 34 43  1  0  0  0
 36 37  1  0  0  0
 36111  1  0  0  0
 36112  1  0  0  0
 37 38  1  0  0  0
 37113  1  0  0  0
 37114  1  0  0  0
 38 39  1  0  0  0
 38115  1  0  0  0
 38116  1  0  0  0
 39 40  1  0  0  0
 39117  1  0  0  0
 40 41  1  0  0  0
 40 42  2  0  0  0
 41118  1  0  0  0
 41119  1  0  0  0
 42120  1  0  0  0
 43 44  1  0  0  0
 43121  1  0  0  0
 44 45  1  0  0  0
 44 47  1  0  0  0
 44122  1  0  0  0
 45 46  2  0  0  0
 45 51  1  0  0  0
 47 48  1  0  0  0
 47123  1  0  0  0
 47124  1  0  0  0
 48 49  1  0  0  0
 48 50  1  0  0  0
 48125  1  0  0  0
 49126  1  0  0  0
 49127  1  0  0  0
 49128  1  0  0  0
 50129  1  0  0  0
 50130  1  0  0  0
 50131  1  0  0  0
 51 52  1  0  0  0
 51132  1  0  0  0
 52 53  1  0  0  0
 52 55  1  0  0  0
 52133  1  0  0  0
 53 54  2  0  0  0
 53 59  1  0  0  0
 55 56  1  0  0  0
 55134  1  0  0  0
 55135  1  0  0  0
 56 57  1  0  0  0
 56 58  1  0  0  0
 56136  1  0  0  0
 57137  1  0  0  0
 57138  1  0  0  0
 57139  1  0  0  0
 58140  1  0  0  0
 58141  1  0  0  0
 58142  1  0  0  0
 59 60  1  0  0  0
 59143  1  0  0  0
 60 61  1  0  0  0
 60 63  1  0  0  0
 60144  1  0  0  0
 61 62  2  0  0  0
 61 68  1  0  0  0
 63 64  1  0  0  0
 63145  1  0  0  0
 63146  1  0  0  0
 64 65  1  0  0  0
 64147  1  0  0  0
 64148  1  0  0  0
 65 66  2  0  0  0
 65 67  1  0  0  0
 67149  1  0  0  0
 67150  1  0  0  0
 68 69  1  0  0  0
 68151  1  0  0  0
 69 70  1  0  0  0
 69 72  1  0  0  0
 69152  1  0  0  0
 70 71  2  0  0  0
 70 73  1  0  0  0
 72153  1  0  0  0
 72154  1  0  0  0
 72155  1  0  0  0
 73156  1  0  0  0
M  CHG  1   1   1
M  END
> <s_m_source_file>
../1gwq_ligand.sdf

> <i_m_source_file_index>
1

> <s_epik_input>
W05IMytdW0NAQEhdKFtDSDNdKUMoPU8pW05IXVtDQEBIXShbQ0BASF0oW0NIM10pW0NIMl1bQ0gzXSlDKD1PKVtOSF1bQ0BASF0oW0NIMl1bQ0hdKFtDSDNdKVtDSDNdKUMoPU8pW05IXVtDQEBIXShbQ0gyXUMxPU5bQ0gyXU49W0NIXTEpQyg9TylbTkhdW0NAQEhdKFtDSDJdW0NIMl1bQ0gyXVtOSF0vQyhbTkgyXSk9TlxbSF0pQyg9TylbTkhdW0NAQEhdKFtDSDJdW0NIXShbQ0gzXSlbQ0gzXSlDKD1PKVtOSF1bQ0BASF0oW0NIMl1bQ0hdKFtDSDNdKVtDSDNdKUMoPU8pW05IXVtDQEBIXShbQ0gyXVtDSDJdQyg9TylbTkgyXSlDKD1PKVtOSF1bQ0BASF0oW0NIM10pQyg9TylbT0hd

> <s_epik_cmdline>
J2VwaWtfYXBwJywgJy1pbWFlJywgJ2xpZ2FuZF9wcm8ubWFlJywgJy1vbWFlJywgJ2xpZ2FuZF9wcmVwLm1hZScsICctbXMnLCAnMScsICctcGgnLCAnNycsICctcGh0JywgJzAuNScsICctbnQn

> <s_epik_pKa_notes>
Molecule size exceeds maximum supported for generating protonation states

> <s_epik_Chemistry_Notes>
This compound has an imine and may undergo hydrolysis.

$$$$
