1gwr_ligand
                    3D
 Schrodinger Suite 2020-3.
148148  0  0  1  0            999 V2000
  -14.1310   17.5110   16.5890 N   0  3  0  0  0  0
  -12.7440   17.1500   16.1630 C   0  0  2  0  0  0
  -12.0460   16.2990   17.2280 C   0  0  0  0  0  0
  -11.3760   16.8690   18.0990 O   0  0  0  0  0  0
  -11.8740   18.3690   15.9080 C   0  0  0  0  0  0
  -12.2390   19.1990   14.7020 C   0  0  0  0  0  0
  -12.8190   20.2770   14.8450 O   0  0  0  0  0  0
  -11.8740   18.7040   13.5230 N   0  0  0  0  0  0
  -12.2060   14.9820   17.1530 N   0  0  0  0  0  0
  -11.6110   14.0830   18.1380 C   0  0  2  0  0  0
  -10.1000   14.2430   18.2370 C   0  0  0  0  0  0
   -9.5610   14.8050   19.1910 O   0  0  0  0  0  0
  -11.9380   12.6170   17.8600 C   0  0  0  0  0  0
   -9.3760   13.7480   17.2610 N   0  0  0  0  0  0
   -7.9310   13.7910   17.2020 C   0  0  2  0  0  0
   -7.3100   15.0750   17.7200 C   0  0  0  0  0  0
   -6.3730   15.0540   18.5210 O   0  0  0  0  0  0
   -7.5520   13.5370   15.7330 C   0  0  0  0  0  0
   -6.0720   13.1970   15.5330 C   0  0  0  0  0  0
   -5.6830   11.9720   16.3520 C   0  0  0  0  0  0
   -5.7700   13.0130   14.0530 C   0  0  0  0  0  0
   -7.7940   16.2330   17.2610 N   0  0  0  0  0  0
   -7.2930   17.5100   17.6980 C   0  0  2  0  0  0
   -7.4830   17.7380   19.1880 C   0  0  0  0  0  0
   -6.5210   18.1510   19.8350 O   0  0  0  0  0  0
   -7.9370   18.6940   16.9750 C   0  0  0  0  0  0
   -7.1400   19.3000   15.8160 C   0  0  0  0  0  0
   -8.0960   20.0590   14.9010 C   0  0  0  0  0  0
   -6.0120   20.1930   16.2980 C   0  0  0  0  0  0
   -8.6620   17.5020   19.7080 N   0  0  0  0  0  0
   -8.9230   17.7240   21.1330 C   0  0  2  0  0  0
   -7.9550   16.9700   22.0330 C   0  0  0  0  0  0
   -7.4770   17.5010   23.0370 O   0  0  0  0  0  0
  -10.3640   17.3750   21.4730 C   0  0  0  0  0  0
   -7.6050   15.7410   21.6560 N   0  0  0  0  0  0
   -6.6190   14.9210   22.3080 C   0  0  2  0  0  0
   -5.1950   15.3710   22.0310 C   0  0  0  0  0  0
   -4.3520   14.9950   22.8650 O   0  0  0  0  0  0
   -6.7560   13.4470   21.9190 C   0  0  0  0  0  0
   -7.9780   12.8260   22.5620 C   0  0  0  0  0  0
   -9.2240   12.9880   21.9660 C   0  0  0  0  0  0
   -7.9070   12.1080   23.7490 C   0  0  0  0  0  0
  -10.3620   12.4420   22.5130 C   0  0  0  0  0  0
   -9.0350   11.5620   24.3010 C   0  0  0  0  0  0
  -10.2480   11.7250   23.6910 C   0  0  0  0  0  0
  -11.3970   11.1780   24.2290 O   0  0  0  0  0  0
   -4.8540   16.1380   21.0010 N   0  0  0  0  0  0
   -3.4530   16.5520   20.8910 C   0  0  2  0  0  0
   -3.2470   17.7460   21.8300 C   0  0  0  0  0  0
   -2.1540   17.8360   22.4050 O   0  0  0  0  0  0
   -2.9840   16.8550   19.4950 C   0  0  0  0  0  0
   -3.1000   15.6620   18.5450 C   0  0  0  0  0  0
   -3.0890   16.1520   17.1010 C   0  0  0  0  0  0
   -1.9790   14.6740   18.8250 C   0  0  0  0  0  0
   -4.2660   18.5840   21.9890 N   0  0  0  0  0  0
   -4.1610   19.7200   22.8910 C   0  0  2  0  0  0
   -4.2570   19.4050   24.3840 C   0  0  0  0  0  0
   -3.7590   20.1870   25.1870 O   0  0  0  0  0  0
   -5.3310   20.7000   22.6670 C   0  0  0  0  0  0
   -5.2740   21.4500   21.3380 C   0  0  0  0  0  0
   -6.5760   22.1870   21.1100 C   0  0  0  0  0  0
   -4.0700   22.3740   21.3310 C   0  0  0  0  0  0
   -4.9320   18.3400   24.7800 N   0  0  0  0  0  0
   -5.0620   18.0320   26.1970 C   0  0  2  0  0  0
   -3.7240   17.5750   26.7660 C   0  0  0  0  0  0
   -3.7930   16.5200   27.4500 O   0  0  0  0  0  0
   -6.1500   16.9790   26.4240 C   0  0  0  0  0  0
   -7.5440   17.5530   26.2620 C   0  0  0  0  0  0
   -7.7100   18.7860   26.1580 O   0  0  0  0  0  0
   -8.4900   16.7360   26.2270 O   0  5  0  0  0  0
  -14.7130   16.5931   16.7587 H   0  0  0  0  0  0
  -14.6121   18.1100   15.8018 H   0  0  0  0  0  0
  -14.0882   18.0955   17.5199 H   0  0  0  0  0  0
  -12.8817   16.5956   15.2230 H   0  0  0  0  0  0
  -11.9285   19.0459   16.7734 H   0  0  0  0  0  0
  -10.8320   18.0506   15.7566 H   0  0  0  0  0  0
  -11.3586   17.7337   13.4696 H   0  0  0  0  0  0
  -12.0875   19.2649   12.6011 H   0  0  0  0  0  0
  -12.8029   14.5727   16.3246 H   0  0  0  0  0  0
  -12.0851   14.4106   19.0750 H   0  0  0  0  0  0
  -13.0284   12.4921   17.7869 H   0  0  0  0  0  0
  -11.5516   11.9934   18.6796 H   0  0  0  0  0  0
  -11.4694   12.3100   16.9133 H   0  0  0  0  0  0
   -9.9458   13.2746   16.4479 H   0  0  0  0  0  0
   -7.5821   13.0170   17.9015 H   0  0  0  0  0  0
   -8.1391   12.6922   15.3437 H   0  0  0  0  0  0
   -7.7660   14.4372   15.1382 H   0  0  0  0  0  0
   -5.4549   14.0331   15.8936 H   0  0  0  0  0  0
   -5.9185   12.1496   17.4117 H   0  0  0  0  0  0
   -4.6046   11.7850   16.2423 H   0  0  0  0  0  0
   -6.2452   11.0973   15.9930 H   0  0  0  0  0  0
   -6.0660   13.9185   13.5031 H   0  0  0  0  0  0
   -6.3332   12.1499   13.6684 H   0  0  0  0  0  0
   -4.6925   12.8376   13.9177 H   0  0  0  0  0  0
   -8.6065   16.1849   16.5211 H   0  0  0  0  0  0
   -6.2302   17.4025   17.4353 H   0  0  0  0  0  0
   -8.9011   18.3819   16.5470 H   0  0  0  0  0  0
   -8.1013   19.5144   17.6891 H   0  0  0  0  0  0
   -6.6553   18.4888   15.2530 H   0  0  0  0  0  0
   -8.8998   19.3848   14.5702 H   0  0  0  0  0  0
   -7.5460   20.4318   14.0243 H   0  0  0  0  0  0
   -8.5315   20.9077   15.4487 H   0  0  0  0  0  0
   -5.3427   19.6166   16.9536 H   0  0  0  0  0  0
   -6.4305   21.0428   16.8571 H   0  0  0  0  0  0
   -5.4451   20.5669   15.4327 H   0  0  0  0  0  0
   -9.4640   17.1303   19.0533 H   0  0  0  0  0  0
   -8.7508   18.8000   21.2832 H   0  0  0  0  0  0
  -11.0424   17.9318   20.8098 H   0  0  0  0  0  0
  -10.5698   17.6458   22.5191 H   0  0  0  0  0  0
  -10.5218   16.2950   21.3359 H   0  0  0  0  0  0
   -8.1373   15.3622   20.7711 H   0  0  0  0  0  0
   -6.8612   15.0851   23.3684 H   0  0  0  0  0  0
   -6.8521   13.3636   20.8264 H   0  0  0  0  0  0
   -5.8643   12.8955   22.2518 H   0  0  0  0  0  0
   -9.3008   13.5619   21.0425 H   0  0  0  0  0  0
   -6.9453   11.9781   24.2453 H   0  0  0  0  0  0
  -11.3306   12.5711   22.0299 H   0  0  0  0  0  0
   -8.9658   10.9956   25.2297 H   0  0  0  0  0  0
  -12.3632   11.3206   23.7229 H   0  0  0  0  0  0
   -5.5843   16.4623   20.2450 H   0  0  0  0  0  0
   -2.8611   15.6690   21.1739 H   0  0  0  0  0  0
   -3.5878   17.6728   19.0747 H   0  0  0  0  0  0
   -1.9263   17.1561   19.5208 H   0  0  0  0  0  0
   -4.0504   15.1327   18.7080 H   0  0  0  0  0  0
   -3.9154   16.8618   16.9484 H   0  0  0  0  0  0
   -3.2114   15.2952   16.4221 H   0  0  0  0  0  0
   -2.1322   16.6525   16.8909 H   0  0  0  0  0  0
   -2.0289   14.3509   19.8753 H   0  0  0  0  0  0
   -1.0089   15.1568   18.6355 H   0  0  0  0  0  0
   -2.0881   13.7995   18.1667 H   0  0  0  0  0  0
   -5.1967   18.4106   21.4289 H   0  0  0  0  0  0
   -3.1525   20.0665   22.6210 H   0  0  0  0  0  0
   -6.2814   20.1464   22.6845 H   0  0  0  0  0  0
   -5.3330   21.4572   23.4649 H   0  0  0  0  0  0
   -5.1549   20.7502   20.4977 H   0  0  0  0  0  0
   -7.4104   21.4704   21.1252 H   0  0  0  0  0  0
   -6.5448   22.6929   20.1337 H   0  0  0  0  0  0
   -6.7190   22.9333   21.9054 H   0  0  0  0  0  0
   -3.1558   21.7863   21.5006 H   0  0  0  0  0  0
   -4.1779   23.1229   22.1295 H   0  0  0  0  0  0
   -4.0037   22.8825   20.3578 H   0  0  0  0  0  0
   -5.3975   17.6841   24.0296 H   0  0  0  0  0  0
   -5.3594   18.9729   26.6831 H   0  0  0  0  0  0
   -3.0215   17.3826   25.9417 H   0  0  0  0  0  0
   -3.3161   18.3601   27.4196 H   0  0  0  0  0  0
   -2.8849   16.1011   27.9081 H   0  0  0  0  0  0
   -6.0290   16.1638   25.6954 H   0  0  0  0  0  0
   -6.0627   16.5754   27.4436 H   0  0  0  0  0  0
  1  2  1  0  0  0
  1 71  1  0  0  0
  1 72  1  0  0  0
  1 73  1  0  0  0
  2  3  1  0  0  0
  2  5  1  0  0  0
  2 74  1  0  0  0
  3  4  2  0  0  0
  3  9  1  0  0  0
  5  6  1  0  0  0
  5 75  1  0  0  0
  5 76  1  0  0  0
  6  7  2  0  0  0
  6  8  1  0  0  0
  8 77  1  0  0  0
  8 78  1  0  0  0
  9 10  1  0  0  0
  9 79  1  0  0  0
 10 11  1  0  0  0
 10 13  1  0  0  0
 10 80  1  0  0  0
 11 12  2  0  0  0
 11 14  1  0  0  0
 13 81  1  0  0  0
 13 82  1  0  0  0
 13 83  1  0  0  0
 14 15  1  0  0  0
 14 84  1  0  0  0
 15 16  1  0  0  0
 15 18  1  0  0  0
 15 85  1  0  0  0
 16 17  2  0  0  0
 16 22  1  0  0  0
 18 19  1  0  0  0
 18 86  1  0  0  0
 18 87  1  0  0  0
 19 20  1  0  0  0
 19 21  1  0  0  0
 19 88  1  0  0  0
 20 89  1  0  0  0
 20 90  1  0  0  0
 20 91  1  0  0  0
 21 92  1  0  0  0
 21 93  1  0  0  0
 21 94  1  0  0  0
 22 23  1  0  0  0
 22 95  1  0  0  0
 23 24  1  0  0  0
 23 26  1  0  0  0
 23 96  1  0  0  0
 24 25  2  0  0  0
 24 30  1  0  0  0
 26 27  1  0  0  0
 26 97  1  0  0  0
 26 98  1  0  0  0
 27 28  1  0  0  0
 27 29  1  0  0  0
 27 99  1  0  0  0
 28100  1  0  0  0
 28101  1  0  0  0
 28102  1  0  0  0
 29103  1  0  0  0
 29104  1  0  0  0
 29105  1  0  0  0
 30 31  1  0  0  0
 30106  1  0  0  0
 31 32  1  0  0  0
 31 34  1  0  0  0
 31107  1  0  0  0
 32 33  2  0  0  0
 32 35  1  0  0  0
 34108  1  0  0  0
 34109  1  0  0  0
 34110  1  0  0  0
 35 36  1  0  0  0
 35111  1  0  0  0
 36 37  1  0  0  0
 36 39  1  0  0  0
 36112  1  0  0  0
 37 38  2  0  0  0
 37 47  1  0  0  0
 39 40  1  0  0  0
 39113  1  0  0  0
 39114  1  0  0  0
 40 41  2  0  0  0
 40 42  1  0  0  0
 41 43  1  0  0  0
 41115  1  0  0  0
 42 44  2  0  0  0
 42116  1  0  0  0
 43 45  2  0  0  0
 43117  1  0  0  0
 44 45  1  0  0  0
 44118  1  0  0  0
 45 46  1  0  0  0
 46119  1  0  0  0
 47 48  1  0  0  0
 47120  1  0  0  0
 48 49  1  0  0  0
 48 51  1  0  0  0
 48121  1  0  0  0
 49 50  2  0  0  0
 49 55  1  0  0  0
 51 52  1  0  0  0
 51122  1  0  0  0
 51123  1  0  0  0
 52 53  1  0  0  0
 52 54  1  0  0  0
 52124  1  0  0  0
 53125  1  0  0  0
 53126  1  0  0  0
 53127  1  0  0  0
 54128  1  0  0  0
 54129  1  0  0  0
 54130  1  0  0  0
 55 56  1  0  0  0
 55131  1  0  0  0
 56 57  1  0  0  0
 56 59  1  0  0  0
 56132  1  0  0  0
 57 58  2  0  0  0
 57 63  1  0  0  0
 59 60  1  0  0  0
 59133  1  0  0  0
 59134  1  0  0  0
 60 61  1  0  0  0
 60 62  1  0  0  0
 60135  1  0  0  0
 61136  1  0  0  0
 61137  1  0  0  0
 61138  1  0  0  0
 62139  1  0  0  0
 62140  1  0  0  0
 62141  1  0  0  0
 63 64  1  0  0  0
 63142  1  0  0  0
 64 65  1  0  0  0
 64 67  1  0  0  0
 64143  1  0  0  0
 65 66  1  0  0  0
 65144  1  0  0  0
 65145  1  0  0  0
 66146  1  0  0  0
 67 68  1  0  0  0
 67147  1  0  0  0
 67148  1  0  0  0
 68 69  2  0  0  0
 68 70  1  0  0  0
M  CHG  2   1   1  70  -1
M  END
> <s_m_source_file>
../1gwr_ligand.sdf

> <i_m_source_file_index>
1

> <s_epik_input>
Tz1DKFtOSDJdKVtDSDJdW0NASF0oW05IMytdKUMoPU8pW05IXVtDQEBIXShbQ0gzXSlDKD1PKVtOSF1bQ0BASF0oW0NIMl1bQ0hdKFtDSDNdKVtDSDNdKUMoPU8pW05IXVtDQEBIXShbQ0gyXVtDSF0oW0NIM10pW0NIM10pQyg9TylbTkhdW0NAQEhdKFtDSDNdKUMoPU8pW05IXVtDQEBIXShbQ0gyXWMxW2NIXVtjSF1jKFtPSF0pW2NIXVtjSF0xKUMoPU8pW05IXVtDQEBIXShbQ0gyXVtDSF0oW0NIM10pW0NIM10pQyg9TylbTkhdW0NAQEhdKFtDSDJdW0NIXShbQ0gzXSlbQ0gzXSlDKD1PKVtOSF1bQ0BIXShbQ0gyXVtPSF0pW0NIMl1DKD1PKVtPSF0=

> <s_epik_cmdline>
J2VwaWtfYXBwJywgJy1pbWFlJywgJ2xpZ2FuZF9wcm8ubWFlJywgJy1vbWFlJywgJ2xpZ2FuZF9wcmVwLm1hZScsICctbXMnLCAnMScsICctcGgnLCAnNycsICctcGh0JywgJzAuNScsICctbnQn

> <r_lp_tautomer_probability>
0.999999999997365

> <r_epik_Ionization_Penalty>
  0.2091

> <r_epik_Ionization_Penalty_Charging>
  0.2082

> <r_epik_Ionization_Penalty_Neutral>
  0.0009

> <r_epik_State_Penalty>
  0.1968

> <r_epik_Charging_Adjusted_Penalty>
0.405034634110577

> <i_epik_Tot_Q>
0

> <i_epik_Tot_abs_Q>
2

$$$$
