1gwv_ligand
                    3D
 Schrodinger Suite 2020-3.
 45 46  0  0  1  0            999 V2000
    8.3750    9.7520   55.8080 C   0  0  2  0  0  0
    8.2590    9.6630   54.2910 C   0  0  1  0  0  0
    6.7730    9.5550   53.9050 C   0  0  2  0  0  0
    6.1810    8.3110   54.6170 C   0  0  2  0  0  0
    6.3670    8.4610   56.1560 C   0  0  1  0  0  0
    5.8860    7.3960   56.8280 C   0  0  0  0  0  0
    9.7430    9.7950   56.1820 O   0  0  0  0  0  0
    8.8310   10.8150   53.6450 O   0  0  0  0  0  0
    6.6540    9.4630   52.4910 O   0  0  0  0  0  0
    6.8410    7.1050   54.1860 O   0  0  0  0  0  0
    7.7920    8.6140   56.4730 O   0  0  0  0  0  0
    5.8790    7.6850   58.2130 O   0  0  0  0  0  0
   11.9910   10.4990   59.6800 C   0  0  2  0  0  0
   10.7230    9.6380   59.8780 C   0  0  1  0  0  0
   10.3290    9.0690   58.4910 C   0  0  2  0  0  0
   10.0740   10.2460   57.5280 C   0  0  1  0  0  0
   11.3200   11.1370   57.4080 C   0  0  1  0  0  0
   11.0840   12.3910   56.5740 C   0  0  0  0  0  0
   12.3800   11.0420   60.9000 O   0  0  0  0  0  0
   10.9530    8.5690   60.7590 O   0  0  0  0  0  0
    9.1830    8.2540   58.6500 O   0  0  0  0  0  0
   11.7200   11.5810   58.7410 O   0  0  0  0  0  0
   12.3030   12.8390   56.0060 O   0  0  0  0  0  0
    7.8645   10.6555   56.1728 H   0  0  0  0  0  0
    8.8569    8.8142   53.9276 H   0  0  0  0  0  0
    6.1993   10.4640   54.1389 H   0  0  0  0  0  0
    5.1288    8.1734   54.3272 H   0  0  0  0  0  0
    5.7781    9.2860   56.5833 H   0  0  0  0  0  0
    4.8613    7.1816   56.4902 H   0  0  0  0  0  0
    6.5257    6.5219   56.6363 H   0  0  0  0  0  0
    9.8918   11.0619   53.7991 H   0  0  0  0  0  0
    7.0319   10.2757   51.8532 H   0  0  0  0  0  0
    6.8246    6.8185   53.1241 H   0  0  0  0  0  0
    5.5180    6.9329   58.9300 H   0  0  0  0  0  0
   12.8566    9.9239   59.3195 H   0  0  0  0  0  0
    9.9254   10.1994   60.3866 H   0  0  0  0  0  0
   11.0723    8.3818   58.0607 H   0  0  0  0  0  0
    9.1993   10.7970   57.9040 H   0  0  0  0  0  0
   12.1215   10.5392   56.9495 H   0  0  0  0  0  0
   10.3723   12.1655   55.7662 H   0  0  0  0  0  0
   10.6723   13.1851   57.2143 H   0  0  0  0  0  0
   12.6290   10.3799   61.7424 H   0  0  0  0  0  0
   11.2456    8.7679   61.8005 H   0  0  0  0  0  0
    9.2205    7.3751   59.3104 H   0  0  0  0  0  0
   12.3166   13.7370   55.3709 H   0  0  0  0  0  0
  1  2  1  0  0  0
  1  7  1  0  0  0
  1 11  1  0  0  0
  1 24  1  0  0  0
  2  3  1  0  0  0
  2  8  1  0  0  0
  2 25  1  0  0  0
  3  4  1  0  0  0
  3  9  1  0  0  0
  3 26  1  0  0  0
  4  5  1  0  0  0
  4 10  1  0  0  0
  4 27  1  0  0  0
  5  6  1  0  0  0
  5 11  1  0  0  0
  5 28  1  0  0  0
  6 12  1  0  0  0
  6 29  1  0  0  0
  6 30  1  0  0  0
  7 16  1  0  0  0
  8 31  1  0  0  0
  9 32  1  0  0  0
 10 33  1  0  0  0
 12 34  1  0  0  0
 13 14  1  0  0  0
 13 19  1  0  0  0
 13 22  1  0  0  0
 13 35  1  0  0  0
 14 15  1  0  0  0
 14 20  1  0  0  0
 14 36  1  0  0  0
 15 16  1  0  0  0
 15 21  1  0  0  0
 15 37  1  0  0  0
 16 17  1  0  0  0
 16 38  1  0  0  0
 17 18  1  0  0  0
 17 22  1  0  0  0
 17 39  1  0  0  0
 18 23  1  0  0  0
 18 40  1  0  0  0
 18 41  1  0  0  0
 19 42  1  0  0  0
 20 43  1  0  0  0
 21 44  1  0  0  0
 23 45  1  0  0  0
M  END
> <s_m_source_file>
../1gwv_ligand.sdf

> <i_m_source_file_index>
1

> <s_epik_input>
W09IXVtDQEhdMVtDQEhdKFtPSF0pW0NAQEhdKFtPSF0pW0NAQEhdKFtDQEhdKE8xKVtDSDJdW09IXSlPW0NASF0yW0NASF0oW09IXSlbQ0BASF0oW09IXSlbQ0BASF0oW09IXSlbQ0BIXShPMilbQ0gyXVtPSF0=

> <s_epik_cmdline>
J2VwaWtfYXBwJywgJy1pbWFlJywgJ2xpZ2FuZF9wcm8ubWFlJywgJy1vbWFlJywgJ2xpZ2FuZF9wcmVwLm1hZScsICctbXMnLCAnMScsICctcGgnLCAnNycsICctcGh0JywgJzAuNScsICctbnQn

> <r_lp_tautomer_probability>
1

> <r_epik_Ionization_Penalty>
  0.0000

> <r_epik_Ionization_Penalty_Charging>
  0.0000

> <r_epik_Ionization_Penalty_Neutral>
  0.0000

> <r_epik_State_Penalty>
 -0.0000

> <r_epik_Charging_Adjusted_Penalty>
0

> <i_epik_Tot_Q>
0

> <i_epik_Tot_abs_Q>
0

> <s_epik_Chemistry_Notes>
This compound contains an acetal/aminal-like group ( X-CH(R)-Y where X, Y are N, S, or O) that may be acid/base labile, releasing an aldehyde.

$$$$
