1gww_ligand
                    3D
 Schrodinger Suite 2020-3.
 36 37  0  0  1  0            999 V2000
    2.6080   13.5650   43.2950 N   0  0  0  0  0  0
    2.7140   14.5600   42.3200 C   0  0  0  0  0  0
    2.2930   15.8320   42.6960 N   0  0  0  0  0  0
    1.7730   16.2050   43.9610 C   0  0  0  0  0  0
    1.6880   15.1390   44.9300 C   0  0  0  0  0  0
    2.0930   13.8960   44.5790 C   0  0  0  0  0  0
    3.1550   14.3350   41.1860 O   0  0  0  0  0  0
    1.4470   17.3780   44.1270 O   0  0  0  0  0  0
    3.0420   12.1610   42.9570 C   0  0  1  0  0  0
    4.5590   11.9670   42.7550 C   0  0  2  0  0  0
    4.8260   10.9340   41.8180 O   0  0  0  0  0  0
    5.0140   11.6420   44.1740 C   0  0  1  0  0  0
    3.8930   10.7030   44.6580 C   0  0  2  0  0  0
    2.6880   11.2560   44.0270 O   0  0  0  0  0  0
    6.2730   10.9660   44.0870 O   0  0  0  0  0  0
    3.6750   10.6900   46.2030 C   0  0  0  0  0  0
    4.1010   11.9470   46.7110 O   0  0  0  0  0  0
    5.3630   12.4090   47.5200 P   0  0  1  0  0  0
    6.5680   11.9040   46.8120 O   0  0  0  0  0  0
    5.2500   13.9040   47.7020 O   0  5  0  0  0  0
    5.1650   11.5990   48.8650 O   0  0  0  0  0  0
    6.2230   11.3600   50.0360 P   0  0  0  0  0  0
    7.2160   10.2270   49.4490 O   0  5  0  0  0  0
    5.3810   10.8690   51.1590 O   0  5  0  0  0  0
    7.1240   12.5210   50.2320 O   0  0  0  0  0  0
    2.3484   16.6641   41.9787 H   0  0  0  0  0  0
    1.3028   15.3322   45.9312 H   0  0  0  0  0  0
    2.0203   13.1029   45.3232 H   0  0  0  0  0  0
    2.4858   11.9283   42.0369 H   0  0  0  0  0  0
    5.1172   12.7842   42.2748 H   0  0  0  0  0  0
    4.5401   11.0607   40.7634 H   0  0  0  0  0  0
    5.2221   12.4886   44.8448 H   0  0  0  0  0  0
    4.1047    9.6665   44.3566 H   0  0  0  0  0  0
    7.1684   11.5116   43.7544 H   0  0  0  0  0  0
    2.6087   10.5310   46.4215 H   0  0  0  0  0  0
    4.2660    9.8770   46.6499 H   0  0  0  0  0  0
  1  2  1  0  0  0
  1  6  1  0  0  0
  1  9  1  0  0  0
  2  3  1  0  0  0
  2  7  2  0  0  0
  3  4  1  0  0  0
  3 26  1  0  0  0
  4  5  1  0  0  0
  4  8  2  0  0  0
  5  6  2  0  0  0
  5 27  1  0  0  0
  6 28  1  0  0  0
  9 10  1  0  0  0
  9 14  1  0  0  0
  9 29  1  0  0  0
 10 11  1  0  0  0
 10 12  1  0  0  0
 10 30  1  0  0  0
 11 31  1  0  0  0
 12 13  1  0  0  0
 12 15  1  0  0  0
 12 32  1  0  0  0
 13 14  1  0  0  0
 13 16  1  0  0  0
 13 33  1  0  0  0
 15 34  1  0  0  0
 16 17  1  0  0  0
 16 35  1  0  0  0
 16 36  1  0  0  0
 17 18  1  0  0  0
 18 19  2  0  0  0
 18 20  1  0  0  0
 18 21  1  0  0  0
 21 22  1  0  0  0
 22 23  1  0  0  0
 22 24  1  0  0  0
 22 25  2  0  0  0
M  CHG  3  20  -1  23  -1  24  -1
M  END
> <s_m_source_file>
../1gww_ligand.sdf

> <i_m_source_file_index>
1

> <s_epik_input>
W2NIXTFbY0hdYyg9TylbbkhdYyg9TyluMVtDQEhdMltDQEhdKFtPSF0pW0NASF0oW09IXSlbQ0BIXShPMilbQ0gyXU9bUEBAXSg9TykoW09IXSlPUCg9TykoW09IXSlbT0hd

> <s_epik_cmdline>
J2VwaWtfYXBwJywgJy1pbWFlJywgJ2xpZ2FuZF9wcm8ubWFlJywgJy1vbWFlJywgJ2xpZ2FuZF9wcmVwLm1hZScsICctbXMnLCAnMScsICctcGgnLCAnNycsICctcGh0JywgJzAuNScsICctbnQn

> <r_lp_tautomer_probability>
0.999537046341301

> <r_epik_Ionization_Penalty>
  0.1061

> <r_epik_Ionization_Penalty_Charging>
  0.1061

> <r_epik_Ionization_Penalty_Neutral>
  0.0000

> <r_epik_State_Penalty>
  0.0923

> <r_epik_Charging_Adjusted_Penalty>
0.198376686346359

> <i_epik_Tot_Q>
-3

> <i_epik_Tot_abs_Q>
3

> <s_epik_Chemistry_Notes>
This compound contains an acetal/aminal-like group ( X-CH(R)-Y where X, Y are N, S, or O) that may be acid/base labile, releasing an aldehyde.

$$$$
