1gx0_ligand
                    3D
 Schrodinger Suite 2020-3.
 38 39  0  0  1  0            999 V2000
    2.6520   13.3320   43.2820 N   0  0  0  0  0  0
    2.7170   14.3280   42.2910 C   0  0  0  0  0  0
    2.3500   15.6320   42.6440 N   0  0  0  0  0  0
    1.9050   16.1090   43.9020 C   0  0  0  0  0  0
    1.8290   15.0530   44.9860 C   0  0  0  0  0  0
    2.2270   13.6530   44.5880 C   0  0  0  0  0  0
    3.0870   14.0710   41.1380 O   0  0  0  0  0  0
    1.6290   17.3030   44.0120 O   0  0  0  0  0  0
    3.0440   11.9280   42.9190 C   0  0  1  0  0  0
    4.5570   11.7180   42.6950 C   0  0  2  0  0  0
    4.8010   10.6840   41.7510 O   0  0  0  0  0  0
    5.0200   11.3790   44.1080 C   0  0  1  0  0  0
    3.8930   10.4330   44.5910 C   0  0  2  0  0  0
    2.6950   11.0210   43.9910 O   0  0  0  0  0  0
    6.2860   10.7180   43.9960 O   0  0  0  0  0  0
    3.6580   10.3850   46.1410 C   0  0  0  0  0  0
    4.0440   11.6410   46.6530 O   0  0  0  0  0  0
    5.3050   12.1130   47.4460 P   0  0  1  0  0  0
    6.4920   11.6030   46.7210 O   0  0  0  0  0  0
    5.1810   13.6010   47.6330 O   0  5  0  0  0  0
    5.1550   11.3180   48.8130 O   0  0  0  0  0  0
    6.2700   11.1520   49.9520 P   0  0  0  0  0  0
    7.2350    9.9860   49.4000 O   0  5  0  0  0  0
    5.4950   10.7300   51.1430 O   0  0  0  0  0  0
    7.1740   12.3300   50.0400 O   0  5  0  0  0  0
    2.3898   16.4365   41.8948 H   0  0  0  0  0  0
    2.4949   15.3312   45.8162 H   0  0  0  0  0  0
    0.7951   14.9792   45.3542 H   0  0  0  0  0  0
    1.3300   13.0666   44.8362 H   0  0  0  0  0  0
    3.0289   13.4169   45.3030 H   0  0  0  0  0  0
    2.4642   11.7124   42.0094 H   0  0  0  0  0  0
    5.1197   12.5300   42.2112 H   0  0  0  0  0  0
    4.5079   10.8190   40.6994 H   0  0  0  0  0  0
    5.2330   12.2128   44.7932 H   0  0  0  0  0  0
    4.1050    9.4033   44.2674 H   0  0  0  0  0  0
    7.1715   11.2787   43.6621 H   0  0  0  0  0  0
    2.5945   10.1913   46.3448 H   0  0  0  0  0  0
    4.2677    9.5813   46.5796 H   0  0  0  0  0  0
  1  2  1  0  0  0
  1  6  1  0  0  0
  1  9  1  0  0  0
  2  3  1  0  0  0
  2  7  2  0  0  0
  3  4  1  0  0  0
  3 26  1  0  0  0
  4  5  1  0  0  0
  4  8  2  0  0  0
  5  6  1  0  0  0
  5 27  1  0  0  0
  5 28  1  0  0  0
  6 29  1  0  0  0
  6 30  1  0  0  0
  9 10  1  0  0  0
  9 14  1  0  0  0
  9 31  1  0  0  0
 10 11  1  0  0  0
 10 12  1  0  0  0
 10 32  1  0  0  0
 11 33  1  0  0  0
 12 13  1  0  0  0
 12 15  1  0  0  0
 12 34  1  0  0  0
 13 14  1  0  0  0
 13 16  1  0  0  0
 13 35  1  0  0  0
 15 36  1  0  0  0
 16 17  1  0  0  0
 16 37  1  0  0  0
 16 38  1  0  0  0
 17 18  1  0  0  0
 18 19  2  0  0  0
 18 20  1  0  0  0
 18 21  1  0  0  0
 21 22  1  0  0  0
 22 23  1  0  0  0
 22 24  2  0  0  0
 22 25  1  0  0  0
M  CHG  3  20  -1  23  -1  25  -1
M  END
> <s_m_source_file>
../1gx0_ligand.sdf

> <i_m_source_file_index>
1

> <s_epik_input>
W0NIMl0xW0NIMl1DKD1PKVtOSF1DKD1PKU4xW0NASF0yW0NASF0oW09IXSlbQ0BIXShbT0hdKVtDQEhdKE8yKVtDSDJdT1tQQEBdKD1PKShbT0hdKU9QKD1PKShbT0hdKVtPSF0=

> <s_epik_cmdline>
J2VwaWtfYXBwJywgJy1pbWFlJywgJ2xpZ2FuZF9wcm8ubWFlJywgJy1vbWFlJywgJ2xpZ2FuZF9wcmVwLm1hZScsICctbXMnLCAnMScsICctcGgnLCAnNycsICctcGh0JywgJzAuNScsICctbnQn

> <r_lp_tautomer_probability>
0.9999999999615

> <r_epik_Ionization_Penalty>
  0.1041

> <r_epik_Ionization_Penalty_Charging>
  0.1034

> <r_epik_Ionization_Penalty_Neutral>
  0.0007

> <r_epik_State_Penalty>
  0.0922

> <r_epik_Charging_Adjusted_Penalty>
0.195628099910605

> <i_epik_Tot_Q>
-3

> <i_epik_Tot_abs_Q>
3

> <s_epik_Chemistry_Notes>
This compound contains an acetal/aminal-like group ( X-CH(R)-Y where X, Y are N, S, or O) that may be acid/base labile, releasing an aldehyde.

$$$$
