1gx4_ligand
                    3D
 Schrodinger Suite 2020-3.
 36 37  0  0  1  0            999 V2000
    2.8570   13.5450   43.7050 N   0  0  0  0  0  0
    2.9410   14.5360   42.7230 C   0  0  0  0  0  0
    2.4770   15.8120   43.0410 N   0  0  0  0  0  0
    1.8830   16.2000   44.2890 C   0  0  0  0  0  0
    2.0190   15.2490   45.3610 C   0  0  0  0  0  0
    2.3710   13.8480   45.0020 C   0  0  0  0  0  0
    3.2310   14.2380   41.5600 O   0  0  0  0  0  0
    1.7330   17.4050   44.4810 O   0  0  0  0  0  0
    3.1820   12.1310   43.3030 C   0  0  1  0  0  0
    4.6980   11.9230   43.0580 C   0  0  2  0  0  0
    4.9520   10.8600   42.1330 O   0  0  0  0  0  0
    5.1570   11.6640   44.4980 C   0  0  1  0  0  0
    4.0610   10.6960   44.9940 C   0  0  2  0  0  0
    2.8450   11.2210   44.3740 O   0  0  0  0  0  0
    6.4590   11.0330   44.4440 O   0  0  0  0  0  0
    3.8480   10.5980   46.5360 C   0  0  0  0  0  0
    4.0820   11.8770   47.1480 O   0  0  0  0  0  0
    5.4200   12.2320   47.9170 P   0  0  1  0  0  0
    6.5310   11.5280   47.2230 O   0  0  0  0  0  0
    5.4870   13.7400   48.0450 O   0  5  0  0  0  0
    5.2070   11.5720   49.3800 O   0  0  0  0  0  0
    6.4120   11.2700   50.4490 P   0  0  0  0  0  0
    7.2260   10.0640   49.8780 O   0  5  0  0  0  0
    5.6820   10.8650   51.6920 O   0  0  0  0  0  0
    7.2660   12.5080   50.5190 O   0  5  0  0  0  0
    2.5517   16.6242   42.3029 H   0  0  0  0  0  0
    1.8694   15.5445   46.3995 H   0  0  0  0  0  0
    2.2548   13.0527   45.7383 H   0  0  0  0  0  0
    2.5659   11.9175   42.4171 H   0  0  0  0  0  0
    5.2608   12.7037   42.5254 H   0  0  0  0  0  0
    4.6540   10.9648   41.0793 H   0  0  0  0  0  0
    5.3217   12.5363   45.1476 H   0  0  0  0  0  0
    4.3058    9.6703   44.6808 H   0  0  0  0  0  0
    7.3349   11.6071   44.1076 H   0  0  0  0  0  0
    2.8153   10.2813   46.7441 H   0  0  0  0  0  0
    4.5490    9.8622   46.9570 H   0  0  0  0  0  0
  1  2  1  0  0  0
  1  6  1  0  0  0
  1  9  1  0  0  0
  2  3  1  0  0  0
  2  7  2  0  0  0
  3  4  1  0  0  0
  3 26  1  0  0  0
  4  5  1  0  0  0
  4  8  2  0  0  0
  5  6  2  0  0  0
  5 27  1  0  0  0
  6 28  1  0  0  0
  9 10  1  0  0  0
  9 14  1  0  0  0
  9 29  1  0  0  0
 10 11  1  0  0  0
 10 12  1  0  0  0
 10 30  1  0  0  0
 11 31  1  0  0  0
 12 13  1  0  0  0
 12 15  1  0  0  0
 12 32  1  0  0  0
 13 14  1  0  0  0
 13 16  1  0  0  0
 13 33  1  0  0  0
 15 34  1  0  0  0
 16 17  1  0  0  0
 16 35  1  0  0  0
 16 36  1  0  0  0
 17 18  1  0  0  0
 18 19  2  0  0  0
 18 20  1  0  0  0
 18 21  1  0  0  0
 21 22  1  0  0  0
 22 23  1  0  0  0
 22 24  2  0  0  0
 22 25  1  0  0  0
M  CHG  3  20  -1  23  -1  25  -1
M  END
> <s_m_source_file>
../1gx4_ligand.sdf

> <i_m_source_file_index>
1

> <s_epik_input>
W2NIXTFbY0hdYyg9TylbbkhdYyg9TyluMVtDQEhdMltDQEhdKFtPSF0pW0NASF0oW09IXSlbQ0BIXShPMilbQ0gyXU9bUEBAXSg9TykoW09IXSlPUCg9TykoW09IXSlbT0hd

> <s_epik_cmdline>
J2VwaWtfYXBwJywgJy1pbWFlJywgJ2xpZ2FuZF9wcm8ubWFlJywgJy1vbWFlJywgJ2xpZ2FuZF9wcmVwLm1hZScsICctbXMnLCAnMScsICctcGgnLCAnNycsICctcGh0JywgJzAuNScsICctbnQn

> <r_lp_tautomer_probability>
0.999537046341301

> <r_epik_Ionization_Penalty>
  0.1061

> <r_epik_Ionization_Penalty_Charging>
  0.1061

> <r_epik_Ionization_Penalty_Neutral>
  0.0000

> <r_epik_State_Penalty>
  0.0923

> <r_epik_Charging_Adjusted_Penalty>
0.198376686346359

> <i_epik_Tot_Q>
-3

> <i_epik_Tot_abs_Q>
3

> <s_epik_Chemistry_Notes>
This compound contains an acetal/aminal-like group ( X-CH(R)-Y where X, Y are N, S, or O) that may be acid/base labile, releasing an aldehyde.

$$$$
