1gym_ligand
                    3D
 Schrodinger Suite 2020-3.
 47 48  0  0  1  0            999 V2000
   20.4290   26.7150  102.5950 C   0  0  2  0  0  0
   20.1660   28.2550  102.7730 C   0  0  1  0  0  0
   21.5110   28.9830  103.0620 C   0  0  1  0  0  0
   22.5160   28.6770  101.9330 C   0  0  2  0  0  0
   22.8180   27.1660  101.9440 C   0  0  1  0  0  0
   21.5410   26.3840  101.5720 C   0  0  1  0  0  0
   22.0200   24.3300  100.4230 C   0  0  1  0  0  0
   21.0080   23.1530  100.3160 C   0  0  1  0  0  0
   21.4950   21.9460  101.1790 C   0  0  2  0  0  0
   22.8820   21.5390  100.6840 C   0  0  1  0  0  0
   23.8470   22.7000  100.9730 C   0  0  1  0  0  0
   25.2970   22.4020  100.4690 C   0  0  0  0  0  0
   19.6650   23.6200  100.7570 N   0  3  0  0  0  0
   19.2480   26.0810  102.2030 O   0  0  0  0  0  0
   19.5620   28.7880  101.6150 O   0  0  0  0  0  0
   21.3050   30.4000  103.2310 O   0  0  0  0  0  0
   23.7330   29.3690  102.1830 O   0  0  0  0  0  0
   23.8800   26.8750  101.0440 O   0  0  0  0  0  0
   21.8140   24.9840  101.6680 O   0  0  0  0  0  0
   20.6040   20.8210  101.0780 O   0  0  0  0  0  0
   23.3210   20.3570  101.3410 O   0  0  0  0  0  0
   23.3960   23.8700  100.2470 O   0  0  0  0  0  0
   26.1150   21.6710  101.5470 O   0  0  0  0  0  0
   20.6891   26.2645  103.5642 H   0  0  0  0  0  0
   19.4184   28.4628  103.5527 H   0  0  0  0  0  0
   21.9352   28.6855  104.0323 H   0  0  0  0  0  0
   22.1555   29.0368  100.9580 H   0  0  0  0  0  0
   23.2100   26.8339  102.9167 H   0  0  0  0  0  0
   21.2361   26.5838  100.5341 H   0  0  0  0  0  0
   21.8945   25.1110   99.6587 H   0  0  0  0  0  0
   20.8925   22.8294   99.2711 H   0  0  0  0  0  0
   21.4884   22.1852  102.2527 H   0  0  0  0  0  0
   22.8695   21.2544   99.6215 H   0  0  0  0  0  0
   23.8228   22.9055  102.0534 H   0  0  0  0  0  0
   25.2501   21.7682   99.5712 H   0  0  0  0  0  0
   25.8017   23.3481  100.2239 H   0  0  0  0  0  0
   19.3487   24.4686  100.1327 H   0  0  0  0  0  0
   19.7143   23.9371  101.8092 H   0  0  0  0  0  0
   18.9397   22.7993  100.6550 H   0  0  0  0  0  0
   18.3357   26.1956  102.8068 H   0  0  0  0  0  0
   18.5995   28.3884  101.2631 H   0  0  0  0  0  0
   20.6119   30.7669  104.0024 H   0  0  0  0  0  0
   23.7433   30.4684  102.2183 H   0  0  0  0  0  0
   24.8604   27.3560  101.1762 H   0  0  0  0  0  0
   19.5539   20.9213  101.3899 H   0  0  0  0  0  0
   22.7442   19.4257  101.2412 H   0  0  0  0  0  0
   27.1593   21.3887  101.3478 H   0  0  0  0  0  0
  1  2  1  0  0  0
  1  6  1  0  0  0
  1 14  1  0  0  0
  1 24  1  0  0  0
  2  3  1  0  0  0
  2 15  1  0  0  0
  2 25  1  0  0  0
  3  4  1  0  0  0
  3 16  1  0  0  0
  3 26  1  0  0  0
  4  5  1  0  0  0
  4 17  1  0  0  0
  4 27  1  0  0  0
  5  6  1  0  0  0
  5 18  1  0  0  0
  5 28  1  0  0  0
  6 19  1  0  0  0
  6 29  1  0  0  0
  7  8  1  0  0  0
  7 19  1  0  0  0
  7 22  1  0  0  0
  7 30  1  0  0  0
  8  9  1  0  0  0
  8 13  1  0  0  0
  8 31  1  0  0  0
  9 10  1  0  0  0
  9 20  1  0  0  0
  9 32  1  0  0  0
 10 11  1  0  0  0
 10 21  1  0  0  0
 10 33  1  0  0  0
 11 12  1  0  0  0
 11 22  1  0  0  0
 11 34  1  0  0  0
 12 23  1  0  0  0
 12 35  1  0  0  0
 12 36  1  0  0  0
 13 37  1  0  0  0
 13 38  1  0  0  0
 13 39  1  0  0  0
 14 40  1  0  0  0
 15 41  1  0  0  0
 16 42  1  0  0  0
 17 43  1  0  0  0
 18 44  1  0  0  0
 20 45  1  0  0  0
 21 46  1  0  0  0
 23 47  1  0  0  0
M  CHG  1  13   1
M  END
> <s_m_source_file>
../1gym_ligand.sdf

> <i_m_source_file_index>
1

> <s_epik_input>
W09IXVtDQEBIXTFbQ0BIXShbT0hdKVtDQEhdKFtPSF0pW0NAQEhdKFtPSF0pW0NASF0oW09IXSlbQ0BIXTFPW0NAQEhdMltDQEhdKFtOSDMrXSlbQ0BASF0oW09IXSlbQ0BIXShbT0hdKVtDQEhdKE8yKVtDSDJdW09IXQ==

> <s_epik_cmdline>
J2VwaWtfYXBwJywgJy1pbWFlJywgJ2xpZ2FuZF9wcm8ubWFlJywgJy1vbWFlJywgJ2xpZ2FuZF9wcmVwLm1hZScsICctbXMnLCAnMScsICctcGgnLCAnNycsICctcGh0JywgJzAuNScsICctbnQn

> <r_epik_Ionization_Penalty>
  0.2021

> <r_epik_Ionization_Penalty_Charging>
  0.2021

> <r_epik_Ionization_Penalty_Neutral>
  0.0000

> <r_epik_State_Penalty>
  0.1920

> <r_epik_Charging_Adjusted_Penalty>
0.39408798092988

> <i_epik_Tot_Q>
1

> <i_epik_Tot_abs_Q>
1

> <s_epik_Chemistry_Notes>
This compound contains an acetal/aminal-like group ( X-CH(R)-Y where X, Y are N, S, or O) that may be acid/base labile, releasing an aldehyde.

$$$$
