1gyx_ligand
                    3D
 Schrodinger Suite 2020-3.
 14 14  0  0  1  0            999 V2000
   11.3000    4.4720   23.3280 C   0  0  0  0  0  0
   10.9970    4.2850   22.1630 O   0  0  0  0  0  0
   10.8480    5.5550   23.9370 O   0  5  0  0  0  0
   12.1110    3.4730   24.0570 C   0  0  0  0  0  0
   12.7670    3.7760   25.2500 C   0  0  0  0  0  0
   13.5420    2.8200   25.9060 C   0  0  0  0  0  0
   13.6550    1.5650   25.3410 C   0  0  0  0  0  0
   13.0260    1.2680   24.1570 C   0  0  0  0  0  0
   12.2490    2.2020   23.4850 C   0  0  0  0  0  0
   12.6725    4.7749   25.6759 H   0  0  0  0  0  0
   14.0466    3.0577   26.8425 H   0  0  0  0  0  0
   14.2506    0.8011   25.8408 H   0  0  0  0  0  0
   13.1400    0.2705   23.7326 H   0  0  0  0  0  0
   11.7618    1.9539   22.5420 H   0  0  0  0  0  0
  1  4  1  0  0  0
  1  3  1  0  0  0
  1  2  2  0  0  0
  4  9  2  0  0  0
  4  5  1  0  0  0
  5  6  2  0  0  0
  5 10  1  0  0  0
  6  7  1  0  0  0
  6 11  1  0  0  0
  7  8  2  0  0  0
  7 12  1  0  0  0
  8  9  1  0  0  0
  8 13  1  0  0  0
  9 14  1  0  0  0
M  CHG  1   3  -1
M  END
> <s_m_source_file>
../1gyx_ligand.sdf

> <i_m_source_file_index>
1

> <s_epik_input>
Tz1DKFtPSF0pYzFbY0hdW2NIXVtjSF1bY0hdW2NIXTE=

> <s_epik_cmdline>
J2VwaWtfYXBwJywgJy1pbWFlJywgJ2xpZ2FuZF9wcm8ubWFlJywgJy1vbWFlJywgJ2xpZ2FuZF9wcmVwLm1hZScsICctbXMnLCAnMScsICctcGgnLCAnNycsICctcGh0JywgJzAuNScsICctbnQn

> <r_lp_tautomer_probability>
1

> <r_epik_Ionization_Penalty>
  0.0008

> <r_epik_Ionization_Penalty_Charging>
  0.0008

> <r_epik_Ionization_Penalty_Neutral>
  0.0000

> <r_epik_State_Penalty>
 -0.0000

> <r_epik_Charging_Adjusted_Penalty>
0.000836317864379419

> <i_epik_Tot_Q>
-1

> <i_epik_Tot_abs_Q>
1

$$$$
