1gyy_ligand
                    3D
 Schrodinger Suite 2020-3.
 19 19  0  0  1  0            999 V2000
   12.1640    2.4570   -4.4480 C   0  0  0  0  0  0
   12.4360    1.4470   -3.4280 C   0  0  0  0  0  0
   13.4880    1.3100   -2.6160 C   0  0  0  0  0  0
   14.6510    2.1900   -2.5690 C   0  0  0  0  0  0
   15.7850    1.7830   -2.4520 O   0  0  0  0  0  0
   14.3920    3.5010   -2.7030 O   0  5  0  0  0  0
   13.1750    2.9500   -5.2850 C   0  0  0  0  0  0
   12.9230    3.8910   -6.2590 C   0  0  0  0  0  0
   11.6220    4.3610   -6.4280 C   0  0  0  0  0  0
   11.3540    5.3150   -7.3740 O   0  0  0  0  0  0
   10.6230    3.8720   -5.6120 C   0  0  0  0  0  0
   10.8590    2.9250   -4.6370 C   0  0  0  0  0  0
   13.5340    0.2590   -1.7540 F   0  0  0  0  0  0
   11.6063    0.7264   -3.3796 H   0  0  0  0  0  0
   14.1918    2.5772   -5.1612 H   0  0  0  0  0  0
   13.7307    4.2631   -6.8893 H   0  0  0  0  0  0
   12.1620    5.6944   -8.0168 H   0  0  0  0  0  0
    9.6084    4.2482   -5.7426 H   0  0  0  0  0  0
   10.0413    2.5471   -4.0232 H   0  0  0  0  0  0
  1 12  2  0  0  0
  1  7  1  0  0  0
  1  2  1  0  0  0
  2  3  2  0  0  0
  2 14  1  0  0  0
  3  4  1  0  0  0
  3 13  1  0  0  0
  4  6  1  0  0  0
  4  5  2  0  0  0
  7  8  2  0  0  0
  7 15  1  0  0  0
  8  9  1  0  0  0
  8 16  1  0  0  0
  9 11  2  0  0  0
  9 10  1  0  0  0
 10 17  1  0  0  0
 11 12  1  0  0  0
 11 18  1  0  0  0
 12 19  1  0  0  0
M  CHG  1   6  -1
M  END
> <s_m_source_file>
../1gyy_ligand.sdf

> <i_m_source_file_index>
1

> <s_epik_input>
Tz1DKFtPSF0pL0MoRik9W0NIXVxjMVtjSF1bY0hdYyhbT0hdKVtjSF1bY0hdMQ==

> <s_epik_cmdline>
J2VwaWtfYXBwJywgJy1pbWFlJywgJ2xpZ2FuZF9wcm8ubWFlJywgJy1vbWFlJywgJ2xpZ2FuZF9wcmVwLm1hZScsICctbXMnLCAnMScsICctcGgnLCAnNycsICctcGh0JywgJzAuNScsICctbnQn

> <r_lp_tautomer_probability>
1

> <r_epik_Ionization_Penalty>
  0.0007

> <r_epik_Ionization_Penalty_Charging>
  0.0000

> <r_epik_Ionization_Penalty_Neutral>
  0.0006

> <r_epik_State_Penalty>
 -0.0000

> <r_epik_Charging_Adjusted_Penalty>
8.75940711371158e-06

> <i_epik_Tot_Q>
-1

> <i_epik_Tot_abs_Q>
1

$$$$
