1gz3_ligand
                    3D
 Schrodinger Suite 2020-3.
 43 45  0  0  1  0            999 V2000
   26.1110   34.8470   -5.3390 P   0  0  0  0  0  0
   26.8790   34.6070   -4.0430 O   0  5  0  0  0  0
   25.4320   36.1570   -5.4110 O   0  0  0  0  0  0
   25.1820   33.7240   -5.7210 O   0  5  0  0  0  0
   28.0810   33.7440   -7.1790 P   0  0  2  0  0  0
   28.2550   34.0690   -8.5810 O   0  0  0  0  0  0
   27.4420   32.4650   -6.8490 O   0  5  0  0  0  0
   27.2330   34.8800   -6.5180 O   0  0  0  0  0  0
   31.0500   33.8220   -6.9310 P   0  0  1  0  0  0
   31.9250   34.1590   -5.7760 O   0  5  0  0  0  0
   31.3010   32.5800   -7.6740 O   0  0  0  0  0  0
   29.5080   33.8300   -6.4350 O   0  0  0  0  0  0
   31.0990   35.0360   -7.9960 O   0  0  0  0  0  0
   30.9100   36.4060   -7.5880 C   0  0  0  0  0  0
   31.1420   37.3300   -8.8010 C   0  0  1  0  0  0
   30.7500   38.7170   -8.4720 O   0  0  0  0  0  0
   32.6110   37.3720   -9.1830 C   0  0  1  0  0  0
   32.7660   37.2060  -10.6110 O   0  0  0  0  0  0
   33.0930   38.7370   -8.7780 C   0  0  1  0  0  0
   34.1210   39.2050   -9.6660 O   0  0  0  0  0  0
   31.8610   39.5890   -8.8430 C   0  0  2  0  0  0
   31.9460   40.7980   -8.0050 N   0  0  0  0  0  0
   32.2880   40.8880   -6.6650 C   0  0  0  0  0  0
   32.2710   42.1920   -6.3040 N   0  0  0  0  0  0
   31.9230   42.8280   -7.4010 C   0  0  0  0  0  0
   31.7970   44.2060   -7.4530 C   0  0  0  0  0  0
   32.0330   44.9740   -6.3940 N   0  0  0  0  0  0
   31.4210   44.7440   -8.6520 N   0  0  0  0  0  0
   31.2050   43.9310   -9.7430 C   0  0  0  0  0  0
   31.3510   42.5700   -9.6410 N   0  0  0  0  0  0
   31.7290   42.0210   -8.4470 C   0  0  0  0  0  0
   29.8846   36.5386   -7.2124 H   0  0  0  0  0  0
   31.6271   36.6537   -6.7915 H   0  0  0  0  0  0
   30.5310   36.9649   -9.6397 H   0  0  0  0  0  0
   33.1967   36.5575   -8.7318 H   0  0  0  0  0  0
   32.4642   36.2634  -11.0911 H   0  0  0  0  0  0
   33.5888   38.7695   -7.7966 H   0  0  0  0  0  0
   35.0827   38.6740   -9.7224 H   0  0  0  0  0  0
   31.6979   39.9967   -9.8516 H   0  0  0  0  0  0
   32.5299   40.0496   -6.0119 H   0  0  0  0  0  0
   32.3345   44.5174   -5.4397 H   0  0  0  0  0  0
   31.9268   46.0661   -6.4720 H   0  0  0  0  0  0
   30.9154   44.3728  -10.6964 H   0  0  0  0  0  0
  1  2  1  0  0  0
  1  3  2  0  0  0
  1  4  1  0  0  0
  1  8  1  0  0  0
  5  6  2  0  0  0
  5  7  1  0  0  0
  5  8  1  0  0  0
  5 12  1  0  0  0
  9 10  1  0  0  0
  9 11  2  0  0  0
  9 12  1  0  0  0
  9 13  1  0  0  0
 13 14  1  0  0  0
 14 15  1  0  0  0
 14 32  1  0  0  0
 14 33  1  0  0  0
 15 16  1  0  0  0
 15 17  1  0  0  0
 15 34  1  0  0  0
 16 21  1  0  0  0
 17 18  1  0  0  0
 17 19  1  0  0  0
 17 35  1  0  0  0
 18 36  1  0  0  0
 19 20  1  0  0  0
 19 21  1  0  0  0
 19 37  1  0  0  0
 20 38  1  0  0  0
 21 22  1  0  0  0
 21 39  1  0  0  0
 22 23  1  0  0  0
 22 31  1  0  0  0
 23 24  2  0  0  0
 23 40  1  0  0  0
 24 25  1  0  0  0
 25 26  2  0  0  0
 25 31  1  0  0  0
 26 27  1  0  0  0
 26 28  1  0  0  0
 27 41  1  0  0  0
 27 42  1  0  0  0
 28 29  2  0  0  0
 29 30  1  0  0  0
 29 43  1  0  0  0
 30 31  2  0  0  0
M  CHG  4   2  -1   4  -1   7  -1  10  -1
M  END
> <s_m_source_file>
../1gz3_ligand.sdf

> <i_m_source_file_index>
1

> <s_epik_input>
W09IXVAoPU8pKFtPSF0pT1tQQF0oPU8pKFtPSF0pT1tQQF0oPU8pKFtPSF0pT1tDSDJdW0NASF0xT1tDQEhdKFtDQEhdKFtPSF0pW0NAQEhdMVtPSF0pbihbY0hdbjIpYyhjMjMpbltjSF1uYzNbTkgyXQ==

> <s_epik_cmdline>
J2VwaWtfYXBwJywgJy1pbWFlJywgJ2xpZ2FuZF9wcm8ubWFlJywgJy1vbWFlJywgJ2xpZ2FuZF9wcmVwLm1hZScsICctbXMnLCAnMScsICctcGgnLCAnNycsICctcGh0JywgJzAuNScsICctbnQn

> <r_lp_tautomer_probability>
0.999997216410988

> <r_epik_Ionization_Penalty>
  0.0818

> <r_epik_Ionization_Penalty_Charging>
  0.0813

> <r_epik_Ionization_Penalty_Neutral>
  0.0004

> <r_epik_State_Penalty>
  0.0708

> <r_epik_Charging_Adjusted_Penalty>
0.152157994418768

> <i_epik_Tot_Q>
-4

> <i_epik_Tot_abs_Q>
4

> <s_epik_Chemistry_Notes>
This compound contains an acetal/aminal-like group ( X-CH(R)-Y where X, Y are N, S, or O) that may be acid/base labile, releasing an aldehyde.

$$$$
