1gz4_ligand
                    3D
 Schrodinger Suite 2020-3.
 43 45  0  0  1  0            999 V2000
   12.4020   29.4240   35.9750 P   0  0  0  0  0  0
   12.1830   28.0130   35.5450 O   0  0  0  0  0  0
   13.8200   29.7270   36.3400 O   0  5  0  0  0  0
   11.4160   29.8690   37.0060 O   0  5  0  0  0  0
   12.0640   30.0850   33.0440 P   0  0  2  0  0  0
   10.6830   30.2870   32.5350 O   0  5  0  0  0  0
   12.7100   28.7960   32.8030 O   0  0  0  0  0  0
   12.0900   30.3590   34.6360 O   0  0  0  0  0  0
   12.8540   32.2510   31.1520 P   0  0  1  0  0  0
   14.0400   33.1460   31.1330 O   0  5  0  0  0  0
   12.5200   31.4900   29.9240 O   0  0  0  0  0  0
   12.9870   31.2470   32.4110 O   0  0  0  0  0  0
   11.5580   33.0950   31.5750 O   0  0  0  0  0  0
   11.6200   34.0170   32.6650 C   0  0  0  0  0  0
   10.3420   34.8230   32.6860 C   0  0  1  0  0  0
   10.2200   35.5180   33.9690 O   0  0  0  0  0  0
   10.3530   35.8750   31.5970 C   0  0  1  0  0  0
    9.1270   35.8140   30.8160 O   0  0  0  0  0  0
   10.4550   37.1870   32.3170 C   0  0  1  0  0  0
    9.7200   38.2160   31.6430 O   0  0  0  0  0  0
    9.9020   36.9050   33.6840 C   0  0  2  0  0  0
   10.4250   37.8190   34.7230 N   0  0  0  0  0  0
   11.7440   38.1510   34.9820 C   0  0  0  0  0  0
   11.7690   39.0520   35.9970 N   0  0  0  0  0  0
   10.5070   39.2230   36.3040 C   0  0  0  0  0  0
   10.1050   40.0870   37.3010 C   0  0  0  0  0  0
   10.9790   40.7980   38.0070 N   0  0  0  0  0  0
    8.7580   40.1840   37.5270 N   0  0  0  0  0  0
    7.8680   39.4430   36.7810 C   0  0  0  0  0  0
    8.3150   38.5980   35.7980 N   0  0  0  0  0  0
    9.6670   38.4960   35.5630 C   0  0  0  0  0  0
   11.7291   33.4623   33.6086 H   0  0  0  0  0  0
   12.4830   34.6858   32.5309 H   0  0  0  0  0  0
    9.4913   34.1371   32.5599 H   0  0  0  0  0  0
   11.1615   35.7332   30.8647 H   0  0  0  0  0  0
    8.8959   34.9159   30.2244 H   0  0  0  0  0  0
   11.4739   37.6011   32.3368 H   0  0  0  0  0  0
   10.0135   38.5279   30.6298 H   0  0  0  0  0  0
    8.8127   37.0543   33.7176 H   0  0  0  0  0  0
   12.6150   37.7557   34.4593 H   0  0  0  0  0  0
   12.0562   40.7020   37.8060 H   0  0  0  0  0  0
   10.6249   41.4822   38.7921 H   0  0  0  0  0  0
    6.7987   39.5292   36.9739 H   0  0  0  0  0  0
  1  2  2  0  0  0
  1  3  1  0  0  0
  1  4  1  0  0  0
  1  8  1  0  0  0
  5  6  1  0  0  0
  5  7  2  0  0  0
  5  8  1  0  0  0
  5 12  1  0  0  0
  9 10  1  0  0  0
  9 11  2  0  0  0
  9 12  1  0  0  0
  9 13  1  0  0  0
 13 14  1  0  0  0
 14 15  1  0  0  0
 14 32  1  0  0  0
 14 33  1  0  0  0
 15 16  1  0  0  0
 15 17  1  0  0  0
 15 34  1  0  0  0
 16 21  1  0  0  0
 17 18  1  0  0  0
 17 19  1  0  0  0
 17 35  1  0  0  0
 18 36  1  0  0  0
 19 20  1  0  0  0
 19 21  1  0  0  0
 19 37  1  0  0  0
 20 38  1  0  0  0
 21 22  1  0  0  0
 21 39  1  0  0  0
 22 23  1  0  0  0
 22 31  1  0  0  0
 23 24  2  0  0  0
 23 40  1  0  0  0
 24 25  1  0  0  0
 25 26  2  0  0  0
 25 31  1  0  0  0
 26 27  1  0  0  0
 26 28  1  0  0  0
 27 41  1  0  0  0
 27 42  1  0  0  0
 28 29  2  0  0  0
 29 30  1  0  0  0
 29 43  1  0  0  0
 30 31  2  0  0  0
M  CHG  4   3  -1   4  -1   6  -1  10  -1
M  END
> <s_m_source_file>
../1gz4_ligand.sdf

> <i_m_source_file_index>
1

> <s_epik_input>
Tz1QKFtPSF0pKFtPSF0pT1tQQEBdKD1PKShbT0hdKU9bUEBdKD1PKShbT0hdKU9bQ0gyXVtDQEhdMU9bQ0BIXShbQ0BIXShbT0hdKVtDQEBIXTFbT0hdKW4oW2NIXW4yKWMoYzIzKW5bY0hdbmMzW05IMl0=

> <s_epik_cmdline>
J2VwaWtfYXBwJywgJy1pbWFlJywgJ2xpZ2FuZF9wcm8ubWFlJywgJy1vbWFlJywgJ2xpZ2FuZF9wcmVwLm1hZScsICctbXMnLCAnMScsICctcGgnLCAnNycsICctcGh0JywgJzAuNScsICctbnQn

> <r_lp_tautomer_probability>
0.999997216410988

> <r_epik_Ionization_Penalty>
  0.0818

> <r_epik_Ionization_Penalty_Charging>
  0.0813

> <r_epik_Ionization_Penalty_Neutral>
  0.0004

> <r_epik_State_Penalty>
  0.0708

> <r_epik_Charging_Adjusted_Penalty>
0.152157994418768

> <i_epik_Tot_Q>
-4

> <i_epik_Tot_abs_Q>
4

> <s_epik_Chemistry_Notes>
This compound contains an acetal/aminal-like group ( X-CH(R)-Y where X, Y are N, S, or O) that may be acid/base labile, releasing an aldehyde.

$$$$
