1gz9_ligand
                    3D
 Schrodinger Suite 2020-3.
 65 67  0  0  1  0            999 V2000
   84.0580   39.0520   32.1980 C   0  0  2  0  0  0
   85.0580   38.2610   31.3190 C   0  0  2  0  0  0
   86.4940   38.8670   31.1370 C   0  0  1  0  0  0
   87.0350   39.4220   32.5010 C   0  0  1  0  0  0
   85.9920   40.3700   33.1510 C   0  0  2  0  0  0
   86.4830   40.9540   34.5360 C   0  0  0  0  0  0
   83.6990   40.1630   31.3960 O   0  0  0  0  0  0
   84.4080   37.6720   30.1660 O   0  0  0  0  0  0
   87.3460   37.8350   30.6590 O   0  0  0  0  0  0
   87.3050   38.3430   33.3820 O   0  0  0  0  0  0
   84.6700   39.6390   33.4120 O   0  0  0  0  0  0
   82.7760   42.1810   30.7350 C   0  0  2  0  0  0
   82.5960   41.0400   31.6660 C   0  0  1  0  0  0
   81.2000   40.3830   31.2130 C   0  0  2  0  0  0
   80.0820   41.4300   31.3420 C   0  0  2  0  0  0
   80.4740   42.6120   30.4080 C   0  0  1  0  0  0
   79.4910   43.7340   30.4520 C   0  0  0  0  0  0
   84.0330   42.8220   31.1550 O   0  0  0  0  0  0
   80.9290   39.2470   32.0890 O   0  0  0  0  0  0
   79.9590   41.9390   32.6690 O   0  0  0  0  0  0
   81.7370   43.1500   30.8260 O   0  0  0  0  0  0
   79.9240   44.6680   29.4540 O   0  0  0  0  0  0
   86.6530   45.9390   30.0400 C   0  0  2  0  0  0
   85.1640   46.3050   29.9110 C   0  0  1  0  0  0
   84.3530   45.2680   30.7370 C   0  0  2  0  0  0
   84.6490   43.8440   30.2510 C   0  0  1  0  0  0
   86.1590   43.5440   30.2680 C   0  0  1  0  0  0
   86.5000   42.2210   29.5840 C   0  0  0  0  0  0
   87.3940   46.8460   29.2860 O   0  0  0  0  0  0
   84.8880   47.5970   30.4290 O   0  0  0  0  0  0
   82.9840   45.5800   30.6260 O   0  0  0  0  0  0
   86.8610   44.5770   29.5060 O   0  0  0  0  0  0
   87.7560   41.7210   30.0700 O   0  0  0  0  0  0
   83.2050   38.4345   32.5159 H   0  0  0  0  0  0
   85.3052   37.3275   31.8458 H   0  0  0  0  0  0
   86.5251   39.6499   30.3649 H   0  0  0  0  0  0
   88.0040   39.9279   32.3778 H   0  0  0  0  0  0
   85.8360   41.1755   32.4183 H   0  0  0  0  0  0
   87.4334   41.4888   34.3922 H   0  0  0  0  0  0
   86.6302   40.1301   35.2498 H   0  0  0  0  0  0
   85.7269   41.6493   34.9294 H   0  0  0  0  0  0
   83.4013   37.2395   30.2634 H   0  0  0  0  0  0
   87.1178   37.3292   29.7092 H   0  0  0  0  0  0
   88.0245   37.5631   33.0921 H   0  0  0  0  0  0
   82.7484   41.8409   29.6893 H   0  0  0  0  0  0
   82.6690   41.2937   32.7338 H   0  0  0  0  0  0
   81.1951   39.9837   30.1880 H   0  0  0  0  0  0
   79.0988   40.9735   31.1549 H   0  0  0  0  0  0
   80.5573   42.2567   29.3703 H   0  0  0  0  0  0
   78.4848   43.3489   30.2299 H   0  0  0  0  0  0
   79.4970   44.1877   31.4541 H   0  0  0  0  0  0
   81.6299   38.4000   32.1240 H   0  0  0  0  0  0
   79.6860   41.2643   33.4938 H   0  0  0  0  0  0
   79.3576   45.5960   29.2865 H   0  0  0  0  0  0
   87.0440   46.0035   31.0661 H   0  0  0  0  0  0
   84.8752   46.3848   28.8526 H   0  0  0  0  0  0
   84.5519   45.3249   31.8174 H   0  0  0  0  0  0
   84.2197   43.7708   29.2409 H   0  0  0  0  0  0
   86.4935   43.5368   31.3159 H   0  0  0  0  0  0
   85.7119   41.4839   29.7977 H   0  0  0  0  0  0
   86.5707   42.3775   28.4975 H   0  0  0  0  0  0
   87.3676   47.9176   29.5330 H   0  0  0  0  0  0
   85.3651   48.4820   29.9827 H   0  0  0  0  0  0
   82.6185   46.5697   30.9371 H   0  0  0  0  0  0
   88.1572   40.7726   29.6832 H   0  0  0  0  0  0
  1  7  1  0  0  0
  1 11  1  0  0  0
  1  2  1  0  0  0
  1 34  1  0  0  0
  2  8  1  0  0  0
  2  3  1  0  0  0
  2 35  1  0  0  0
  3  9  1  0  0  0
  3  4  1  0  0  0
  3 36  1  0  0  0
  4 10  1  0  0  0
  4  5  1  0  0  0
  4 37  1  0  0  0
  5 11  1  0  0  0
  5  6  1  0  0  0
  5 38  1  0  0  0
  6 39  1  0  0  0
  6 40  1  0  0  0
  6 41  1  0  0  0
  7 13  1  0  0  0
  8 42  1  0  0  0
  9 43  1  0  0  0
 10 44  1  0  0  0
 12 21  1  0  0  0
 12 13  1  0  0  0
 12 18  1  0  0  0
 12 45  1  0  0  0
 13 14  1  0  0  0
 13 46  1  0  0  0
 14 19  1  0  0  0
 14 15  1  0  0  0
 14 47  1  0  0  0
 15 20  1  0  0  0
 15 16  1  0  0  0
 15 48  1  0  0  0
 16 21  1  0  0  0
 16 17  1  0  0  0
 16 49  1  0  0  0
 17 22  1  0  0  0
 17 50  1  0  0  0
 17 51  1  0  0  0
 18 26  1  0  0  0
 19 52  1  0  0  0
 20 53  1  0  0  0
 22 54  1  0  0  0
 23 24  1  0  0  0
 23 32  1  0  0  0
 23 29  1  0  0  0
 23 55  1  0  0  0
 24 25  1  0  0  0
 24 30  1  0  0  0
 24 56  1  0  0  0
 25 26  1  0  0  0
 25 31  1  0  0  0
 25 57  1  0  0  0
 26 27  1  0  0  0
 26 58  1  0  0  0
 27 32  1  0  0  0
 27 28  1  0  0  0
 27 59  1  0  0  0
 28 33  1  0  0  0
 28 60  1  0  0  0
 28 61  1  0  0  0
 29 62  1  0  0  0
 30 63  1  0  0  0
 31 64  1  0  0  0
 33 65  1  0  0  0
M  END
> <s_m_source_file>
../1gz9_ligand.sdf

> <i_m_source_file_index>
1

> <s_epik_input>
W0NIM11bQ0BIXShPMSlbQ0BASF0oW09IXSlbQ0BASF0oW09IXSlbQ0BIXShbT0hdKVtDQEBIXTFPW0NASF0oW0NAQEhdKFtPSF0pW0NAQEhdKFtPSF0pW0NASF0oTzIpW0NIMl1bT0hdKVtDQEBIXTJPW0NASF0oW0NASF0oTzMpW0NIMl1bT0hdKVtDQEhdKFtPSF0pW0NAQEhdKFtPSF0pW0NAQEhdM1tPSF0=

> <s_epik_cmdline>
J2VwaWtfYXBwJywgJy1pbWFlJywgJ2xpZ2FuZF9wcm8ubWFlJywgJy1vbWFlJywgJ2xpZ2FuZF9wcmVwLm1hZScsICctbXMnLCAnMScsICctcGgnLCAnNycsICctcGh0JywgJzAuNScsICctbnQn

> <r_lp_tautomer_probability>
1

> <r_epik_Ionization_Penalty>
  0.0000

> <r_epik_Ionization_Penalty_Charging>
  0.0000

> <r_epik_Ionization_Penalty_Neutral>
  0.0000

> <r_epik_State_Penalty>
 -0.0000

> <r_epik_Charging_Adjusted_Penalty>
0

> <i_epik_Tot_Q>
0

> <i_epik_Tot_abs_Q>
0

> <s_epik_Chemistry_Notes>
This compound contains an acetal/aminal-like group ( X-CH(R)-Y where X, Y are N, S, or O) that may be acid/base labile, releasing an aldehyde.

$$$$
