1gzc_ligand
                    3D
 Schrodinger Suite 2020-3.
 45 46  0  0  1  0            999 V2000
   83.5890   42.7070   30.5940 C   0  0  2  0  0  0
   83.3470   41.5450   31.5350 C   0  0  1  0  0  0
   81.9990   40.8490   31.0880 C   0  0  2  0  0  0
   80.8800   41.9040   31.1440 C   0  0  2  0  0  0
   81.2420   43.0760   30.2260 C   0  0  1  0  0  0
   80.2060   44.1980   30.2870 C   0  0  0  0  0  0
   84.7910   43.4140   30.9710 O   0  0  0  0  0  0
   84.4430   40.5970   31.4980 O   0  0  0  0  0  0
   81.7290   39.7410   31.9440 O   0  0  0  0  0  0
   80.6980   42.4520   32.4430 O   0  0  0  0  0  0
   82.5060   43.6490   30.6340 O   0  0  0  0  0  0
   80.4780   45.0920   29.1980 O   0  0  0  0  0  0
   87.2420   46.5170   29.5120 C   0  0  2  0  0  0
   85.7470   46.8320   29.4400 C   0  0  1  0  0  0
   85.0230   45.8400   30.3920 C   0  0  2  0  0  0
   85.3410   44.3870   29.9980 C   0  0  1  0  0  0
   86.8550   44.1320   29.9620 C   0  0  1  0  0  0
   87.1800   42.7380   29.3860 C   0  0  0  0  0  0
   87.9290   47.3930   28.6630 O   0  0  0  0  0  0
   85.4500   48.1460   29.8720 O   0  0  0  0  0  0
   83.6150   46.1090   30.3420 O   0  0  0  0  0  0
   87.4560   45.1390   29.0630 O   0  0  0  0  0  0
   88.5790   42.4900   29.4290 O   0  0  0  0  0  0
   83.6824   42.3370   29.5623 H   0  0  0  0  0  0
   83.3543   41.8974   32.5770 H   0  0  0  0  0  0
   82.0290   40.3787   30.0940 H   0  0  0  0  0  0
   79.9243   41.4147   30.9049 H   0  0  0  0  0  0
   81.3410   42.6895   29.2009 H   0  0  0  0  0  0
   79.1968   43.7708   30.1921 H   0  0  0  0  0  0
   80.2922   44.7248   31.2488 H   0  0  0  0  0  0
   85.4568   40.9171   31.7804 H   0  0  0  0  0  0
   82.4440   38.9075   32.0068 H   0  0  0  0  0  0
   80.4289   41.7960   33.2839 H   0  0  0  0  0  0
   79.8492   45.9817   29.0466 H   0  0  0  0  0  0
   87.6762   46.6537   30.5134 H   0  0  0  0  0  0
   85.4065   46.8270   28.3940 H   0  0  0  0  0  0
   85.2995   45.9851   31.4467 H   0  0  0  0  0  0
   84.8662   44.2216   29.0196 H   0  0  0  0  0  0
   87.2696   44.2251   30.9766 H   0  0  0  0  0  0
   86.6641   41.9674   29.9777 H   0  0  0  0  0  0
   86.8417   42.6852   28.3407 H   0  0  0  0  0  0
   87.8875   48.4776   28.8415 H   0  0  0  0  0  0
   85.8658   49.0096   29.3323 H   0  0  0  0  0  0
   83.2367   47.1095   30.5988 H   0  0  0  0  0  0
   88.9804   41.5367   29.0545 H   0  0  0  0  0  0
  1 11  1  0  0  0
  1  7  1  0  0  0
  1  2  1  0  0  0
  1 24  1  0  0  0
  2  8  1  0  0  0
  2  3  1  0  0  0
  2 25  1  0  0  0
  3  9  1  0  0  0
  3  4  1  0  0  0
  3 26  1  0  0  0
  4 10  1  0  0  0
  4  5  1  0  0  0
  4 27  1  0  0  0
  5 11  1  0  0  0
  5  6  1  0  0  0
  5 28  1  0  0  0
  6 12  1  0  0  0
  6 29  1  0  0  0
  6 30  1  0  0  0
  7 16  1  0  0  0
  8 31  1  0  0  0
  9 32  1  0  0  0
 10 33  1  0  0  0
 12 34  1  0  0  0
 13 14  1  0  0  0
 13 22  1  0  0  0
 13 19  1  0  0  0
 13 35  1  0  0  0
 14 15  1  0  0  0
 14 20  1  0  0  0
 14 36  1  0  0  0
 15 16  1  0  0  0
 15 21  1  0  0  0
 15 37  1  0  0  0
 16 17  1  0  0  0
 16 38  1  0  0  0
 17 22  1  0  0  0
 17 18  1  0  0  0
 17 39  1  0  0  0
 18 23  1  0  0  0
 18 40  1  0  0  0
 18 41  1  0  0  0
 19 42  1  0  0  0
 20 43  1  0  0  0
 21 44  1  0  0  0
 23 45  1  0  0  0
M  END
> <s_m_source_file>
../1gzc_ligand.sdf

> <i_m_source_file_index>
1

> <s_epik_input>
W09IXVtDQEhdMVtDQEhdKFtPSF0pW0NAQEhdKFtPSF0pW0NAQEhdKFtDQEhdKE8xKVtDSDJdW09IXSlPW0NASF0yW0NASF0oW09IXSlbQ0BASF0oW09IXSlbQ0BASF0oW09IXSlbQ0BIXShPMilbQ0gyXVtPSF0=

> <s_epik_cmdline>
J2VwaWtfYXBwJywgJy1pbWFlJywgJ2xpZ2FuZF9wcm8ubWFlJywgJy1vbWFlJywgJ2xpZ2FuZF9wcmVwLm1hZScsICctbXMnLCAnMScsICctcGgnLCAnNycsICctcGh0JywgJzAuNScsICctbnQn

> <r_lp_tautomer_probability>
1

> <r_epik_Ionization_Penalty>
  0.0000

> <r_epik_Ionization_Penalty_Charging>
  0.0000

> <r_epik_Ionization_Penalty_Neutral>
  0.0000

> <r_epik_State_Penalty>
 -0.0000

> <r_epik_Charging_Adjusted_Penalty>
0

> <i_epik_Tot_Q>
0

> <i_epik_Tot_abs_Q>
0

> <s_epik_Chemistry_Notes>
This compound contains an acetal/aminal-like group ( X-CH(R)-Y where X, Y are N, S, or O) that may be acid/base labile, releasing an aldehyde.

$$$$
