1gzg_ligand
                    3D
 Schrodinger Suite 2020-3.
 15 14  0  0  1  0            999 V2000
  118.9690   33.6120  -28.3970 C   0  0  0  0  0  0
  117.9510   34.0230  -29.4770 C   0  0  0  0  0  0
  118.5230   32.6710  -27.2660 C   0  0  0  0  0  0
  119.6580   32.3770  -26.2840 C   0  0  0  0  0  0
  120.2260   30.9650  -26.4440 C   0  0  0  0  0  0
  120.0490   33.8910  -28.2690 O   0  0  0  0  0  0
  119.3850   30.0360  -26.5040 O   0  5  0  0  0  0
  121.4660   30.8210  -26.5050 O   0  0  0  0  0  0
  118.3360   34.5170  -30.6940 F   0  0  0  0  0  0
  117.3365   33.1530  -29.7516 H   0  0  0  0  0  0
  117.3028   34.8208  -29.0853 H   0  0  0  0  0  0
  117.6970   33.1352  -26.7071 H   0  0  0  0  0  0
  118.1844   31.7165  -27.6952 H   0  0  0  0  0  0
  120.4787   33.0909  -26.4478 H   0  0  0  0  0  0
  119.2861   32.4759  -25.2535 H   0  0  0  0  0  0
  1  2  1  0  0  0
  1  3  1  0  0  0
  1  6  2  0  0  0
  2  9  1  0  0  0
  2 10  1  0  0  0
  2 11  1  0  0  0
  3  4  1  0  0  0
  3 12  1  0  0  0
  3 13  1  0  0  0
  4  5  1  0  0  0
  4 14  1  0  0  0
  4 15  1  0  0  0
  5  7  1  0  0  0
  5  8  2  0  0  0
M  CHG  1   7  -1
M  END
> <s_m_source_file>
../1gzg_ligand.sdf

> <i_m_source_file_index>
1

> <s_epik_input>
RltDSDJdQyg9TylbQ0gyXVtDSDJdQyg9TylbT0hd

> <s_epik_cmdline>
J2VwaWtfYXBwJywgJy1pbWFlJywgJ2xpZ2FuZF9wcm8ubWFlJywgJy1vbWFlJywgJ2xpZ2FuZF9wcmVwLm1hZScsICctbXMnLCAnMScsICctcGgnLCAnNycsICctcGh0JywgJzAuNScsICctbnQn

> <r_lp_tautomer_probability>
1

> <r_epik_Ionization_Penalty>
  0.0010

> <r_epik_Ionization_Penalty_Charging>
  0.0010

> <r_epik_Ionization_Penalty_Neutral>
  0.0000

> <r_epik_State_Penalty>
 -0.0000

> <r_epik_Charging_Adjusted_Penalty>
0.000986997687459114

> <i_epik_Tot_Q>
-1

> <i_epik_Tot_abs_Q>
1

$$$$
