1h00_ligand
                    3D
 Schrodinger Suite 2020-3.
 54 56  0  0  1  0            999 V2000
    3.7950   28.5970    6.0100 C   0  0  0  0  0  0
    0.3260   33.1000    7.8560 C   0  0  0  0  0  0
    1.6140   31.1970    7.6890 C   0  0  0  0  0  0
    0.7130   30.5170    8.5790 C   0  0  0  0  0  0
   -0.4010   31.2770    9.0660 C   0  0  0  0  0  0
    3.4120   29.2380    7.2190 C   0  0  0  0  0  0
    3.6480   28.5750    8.4680 C   0  0  0  0  0  0
    4.2480   27.2990    8.5010 C   0  0  0  0  0  0
    4.6280   26.6560    7.2930 C   0  0  0  0  0  0
   -0.5690   32.5630    8.6890 N   0  0  0  0  0  0
    1.3960   32.4840    7.3450 N   0  0  0  0  0  0
   -1.3980   30.7320    9.9800 N   0  0  0  0  0  0
    2.7940   30.5570    7.1260 N   0  0  0  0  0  0
    4.3990   27.3140    6.0420 C   0  0  0  0  0  0
    5.2070   25.3980    7.4400 O   0  0  0  0  0  0
    4.4640   24.1590    7.6170 C   0  0  0  0  0  0
   -1.7340   27.4480   12.7920 C   0  0  0  0  0  0
   -2.8640   27.9370   12.0910 C   0  0  0  0  0  0
   -2.7310   29.0150   11.1770 C   0  0  0  0  0  0
   -1.4540   29.6170   10.9470 C   0  0  0  0  0  0
   -0.4620   28.0280   12.5840 C   0  0  0  0  0  0
   -0.3090   29.1050   11.6740 C   0  0  0  0  0  0
   -3.8490   29.4590   10.5210 F   0  0  0  0  0  0
    0.9450   29.6210   11.5160 F   0  0  0  0  0  0
    5.3960   22.9350    7.6620 C   0  0  2  0  0  0
    4.7670   21.5370    7.4440 C   0  0  0  0  0  0
    5.6170   20.3410    7.7610 N   0  3  0  0  0  0
    6.4420   19.8810    6.6120 C   0  0  0  0  0  0
    4.8050   19.2050    8.2910 C   0  0  0  0  0  0
    6.2510   22.9720    8.7540 O   0  0  0  0  0  0
    3.6240   29.0930    5.0546 H   0  0  0  0  0  0
    0.1689   34.1388    7.5655 H   0  0  0  0  0  0
    0.8686   29.4777    8.8686 H   0  0  0  0  0  0
    3.3612   29.0613    9.4004 H   0  0  0  0  0  0
    4.4207   26.8046    9.4570 H   0  0  0  0  0  0
   -2.3948   31.1926   10.0448 H   0  0  0  0  0  0
    3.4539   31.1187    6.4486 H   0  0  0  0  0  0
    4.6898   26.8273    5.1111 H   0  0  0  0  0  0
    3.9022   24.2001    8.5618 H   0  0  0  0  0  0
    3.7632   24.0288    6.7792 H   0  0  0  0  0  0
   -1.8460   26.6218   13.4940 H   0  0  0  0  0  0
   -3.8413   27.4828   12.2545 H   0  0  0  0  0  0
    0.4041   27.6464   13.1247 H   0  0  0  0  0  0
    6.1036   23.0723    6.8311 H   0  0  0  0  0  0
    3.8722   21.4350    8.0756 H   0  0  0  0  0  0
    4.4847   21.4227    6.3870 H   0  0  0  0  0  0
    6.3157   20.6749    8.5423 H   0  0  0  0  0  0
    7.0367   20.7227    6.2274 H   0  0  0  0  0  0
    5.7836   19.5032    5.8159 H   0  0  0  0  0  0
    7.1157   19.0769    6.9430 H   0  0  0  0  0  0
    4.1980   19.5528    9.1399 H   0  0  0  0  0  0
    5.4755   18.3996    8.6253 H   0  0  0  0  0  0
    4.1434   18.8259    7.4981 H   0  0  0  0  0  0
    6.7642   23.9081    9.0192 H   0  0  0  0  0  0
  1  6  2  0  0  0
  1 14  1  0  0  0
  1 31  1  0  0  0
  2 11  2  0  0  0
  2 10  1  0  0  0
  2 32  1  0  0  0
  3  4  2  0  0  0
  3 13  1  0  0  0
  3 11  1  0  0  0
  4  5  1  0  0  0
  4 33  1  0  0  0
  5 12  1  0  0  0
  5 10  2  0  0  0
  6  7  1  0  0  0
  6 13  1  0  0  0
  7  8  2  0  0  0
  7 34  1  0  0  0
  8  9  1  0  0  0
  8 35  1  0  0  0
  9 14  2  0  0  0
  9 15  1  0  0  0
 12 20  1  0  0  0
 12 36  1  0  0  0
 13 37  1  0  0  0
 14 38  1  0  0  0
 15 16  1  0  0  0
 16 25  1  0  0  0
 16 39  1  0  0  0
 16 40  1  0  0  0
 17 18  2  0  0  0
 17 21  1  0  0  0
 17 41  1  0  0  0
 18 19  1  0  0  0
 18 42  1  0  0  0
 19 20  2  0  0  0
 19 23  1  0  0  0
 20 22  1  0  0  0
 21 22  2  0  0  0
 21 43  1  0  0  0
 22 24  1  0  0  0
 25 26  1  0  0  0
 25 30  1  0  0  0
 25 44  1  0  0  0
 26 27  1  0  0  0
 26 45  1  0  0  0
 26 46  1  0  0  0
 27 28  1  0  0  0
 27 29  1  0  0  0
 27 47  1  0  0  0
 28 48  1  0  0  0
 28 49  1  0  0  0
 28 50  1  0  0  0
 29 51  1  0  0  0
 29 52  1  0  0  0
 29 53  1  0  0  0
 30 54  1  0  0  0
M  CHG  1  27   1
M  END
> <s_m_source_file>
../1h00_ligand.sdf

> <i_m_source_file_index>
1

> <s_epik_input>
W0NIM11bTkgrXShbQ0gzXSlbQ0gyXVtDQEhdKFtPSF0pW0NIMl1PYyhbY0hdW2NIXTEpW2NIXVtjSF1jMVtOSF1jMltjSF1jKG5bY0hdbjIpW05IXWMzYyhGKVtjSF1bY0hdW2NIXWMzRg==

> <s_epik_cmdline>
J2VwaWtfYXBwJywgJy1pbWFlJywgJ2xpZ2FuZF9wcm8ubWFlJywgJy1vbWFlJywgJ2xpZ2FuZF9wcmVwLm1hZScsICctbXMnLCAnMScsICctcGgnLCAnNycsICctcGh0JywgJzAuNScsICctbnQn

> <r_lp_tautomer_probability>
0.999999968245435

> <r_epik_Ionization_Penalty>
  0.1094

> <r_epik_Ionization_Penalty_Charging>
  0.1092

> <r_epik_Ionization_Penalty_Neutral>
  0.0002

> <r_epik_State_Penalty>
  0.0990

> <r_epik_Charging_Adjusted_Penalty>
0.20818616252629

> <i_epik_Tot_Q>
1

> <i_epik_Tot_abs_Q>
1

$$$$
