1h01_ligand
                    3D
 Schrodinger Suite 2020-3.
 54 56  0  0  1  0            999 V2000
    3.8690   22.3600    7.9180 C   0  0  0  0  0  0
    1.5450   30.6830    6.6430 N   0  0  0  0  0  0
    0.4460   31.3340    7.1190 C   0  0  0  0  0  0
    1.7120   29.4100    7.0100 C   0  0  0  0  0  0
   -0.2050   29.3310    8.2990 C   0  0  0  0  0  0
   -0.5010   30.6900    7.9870 C   0  0  0  0  0  0
    0.8880   28.7420    7.8090 N   0  0  0  0  0  0
   -0.8260   24.4910   10.4950 C   0  0  0  0  0  0
   -1.1770   25.5160   11.4070 C   0  0  0  0  0  0
   -1.2590   26.8640   10.9660 C   0  0  0  0  0  0
   -0.9960   27.1890    9.6070 C   0  0  0  0  0  0
   -0.5610   24.8170    9.1480 C   0  0  0  0  0  0
    3.4460   25.3620    8.1240 C   0  0  0  0  0  0
    2.9970   26.6680    7.8690 C   0  0  0  0  0  0
   -0.6460   26.1450    8.7120 C   0  0  0  0  0  0
    3.4140   27.3730    6.6980 C   0  0  0  0  0  0
    4.3400   24.7220    7.2150 C   0  0  0  0  0  0
    4.7680   25.4130    6.0500 C   0  0  0  0  0  0
    4.3130   26.7350    5.7920 C   0  0  0  0  0  0
    4.7750   23.4180    7.4730 O   0  0  0  0  0  0
   -1.0780   28.5690    9.1560 N   0  0  0  0  0  0
    2.8820   28.7260    6.5180 N   0  0  0  0  0  0
   -1.6820   28.1000   12.1320 Cl  0  0  0  0  0  0
   -0.1100   23.5850    7.9980 Cl  0  0  0  0  0  0
    4.6060   21.0550    8.2630 C   0  0  2  0  0  0
    5.8480   21.1330    9.2420 C   0  0  0  0  0  0
    5.5810   21.2720   10.7380 N   0  3  0  0  0  0
    6.7410   20.9090   11.5970 C   0  0  0  0  0  0
    4.3810   20.4960   11.1860 C   0  0  0  0  0  0
    5.0220   20.5300    7.0180 O   0  0  0  0  0  0
    3.3318   22.6921    8.8186 H   0  0  0  0  0  0
    3.1450   22.1377    7.1203 H   0  0  0  0  0  0
    0.2808   32.3728    6.8330 H   0  0  0  0  0  0
   -1.3801   31.2025    8.3777 H   0  0  0  0  0  0
   -0.7609   23.4563   10.8316 H   0  0  0  0  0  0
   -1.3845   25.2704   12.4485 H   0  0  0  0  0  0
    3.1108   24.8364    9.0181 H   0  0  0  0  0  0
    2.3207   27.1509    8.5744 H   0  0  0  0  0  0
   -0.4399   26.3806    7.6679 H   0  0  0  0  0  0
    5.4485   24.9274    5.3506 H   0  0  0  0  0  0
    4.6516   27.2623    4.9002 H   0  0  0  0  0  0
   -1.9782   29.0375    9.5805 H   0  0  0  0  0  0
    3.5886   29.2502    5.8577 H   0  0  0  0  0  0
    3.8819   20.3805    8.7433 H   0  0  0  0  0  0
    6.4490   20.2168    9.1455 H   0  0  0  0  0  0
    6.4654   22.0055    8.9823 H   0  0  0  0  0  0
    5.3906   22.3437   10.8965 H   0  0  0  0  0  0
    7.6274   21.4750   11.2745 H   0  0  0  0  0  0
    6.9412   19.8312   11.5065 H   0  0  0  0  0  0
    6.5117   21.1526   12.6449 H   0  0  0  0  0  0
    3.5184   20.7585   10.5559 H   0  0  0  0  0  0
    4.1569   20.7405   12.2348 H   0  0  0  0  0  0
    4.5864   19.4191   11.0964 H   0  0  0  0  0  0
    4.2930   20.4005    6.2045 H   0  0  0  0  0  0
  1 20  1  0  0  0
  1 25  1  0  0  0
  1 31  1  0  0  0
  1 32  1  0  0  0
  2  3  2  0  0  0
  2  4  1  0  0  0
  3  6  1  0  0  0
  3 33  1  0  0  0
  4  7  2  0  0  0
  4 22  1  0  0  0
  5 21  1  0  0  0
  5  7  1  0  0  0
  5  6  2  0  0  0
  6 34  1  0  0  0
  8  9  2  0  0  0
  8 12  1  0  0  0
  8 35  1  0  0  0
  9 10  1  0  0  0
  9 36  1  0  0  0
 10 11  2  0  0  0
 10 23  1  0  0  0
 11 15  1  0  0  0
 11 21  1  0  0  0
 12 15  2  0  0  0
 12 24  1  0  0  0
 13 14  2  0  0  0
 13 17  1  0  0  0
 13 37  1  0  0  0
 14 16  1  0  0  0
 14 38  1  0  0  0
 15 39  1  0  0  0
 16 19  2  0  0  0
 16 22  1  0  0  0
 17 18  2  0  0  0
 17 20  1  0  0  0
 18 19  1  0  0  0
 18 40  1  0  0  0
 19 41  1  0  0  0
 21 42  1  0  0  0
 22 43  1  0  0  0
 25 26  1  0  0  0
 25 30  1  0  0  0
 25 44  1  0  0  0
 26 27  1  0  0  0
 26 45  1  0  0  0
 26 46  1  0  0  0
 27 28  1  0  0  0
 27 29  1  0  0  0
 27 47  1  0  0  0
 28 48  1  0  0  0
 28 49  1  0  0  0
 28 50  1  0  0  0
 29 51  1  0  0  0
 29 52  1  0  0  0
 29 53  1  0  0  0
 30 54  1  0  0  0
M  CHG  1  27   1
M  END
> <s_m_source_file>
../1h01_ligand.sdf

> <i_m_source_file_index>
1

> <s_epik_input>
W0NIM11bTkgrXShbQ0gzXSlbQ0gyXVtDQEhdKFtPSF0pW0NIMl1PYyhbY0hdW2NIXTEpW2NIXVtjSF1jMVtOSF1jMm5bY0hdW2NIXWMobjIpW05IXWMzW2NIXWMoQ2wpW2NIXVtjSF1jM0Ns

> <s_epik_cmdline>
J2VwaWtfYXBwJywgJy1pbWFlJywgJ2xpZ2FuZF9wcm8ubWFlJywgJy1vbWFlJywgJ2xpZ2FuZF9wcmVwLm1hZScsICctbXMnLCAnMScsICctcGgnLCAnNycsICctcGh0JywgJzAuNScsICctbnQn

> <r_lp_tautomer_probability>
1

> <r_epik_Ionization_Penalty>
  0.1361

> <r_epik_Ionization_Penalty_Charging>
  0.1092

> <r_epik_Ionization_Penalty_Neutral>
  0.0269

> <r_epik_State_Penalty>
 -0.0000

> <r_epik_Charging_Adjusted_Penalty>
0.109204302453312

> <i_epik_Tot_Q>
1

> <i_epik_Tot_abs_Q>
1

$$$$
