1h07_ligand
                    3D
 Schrodinger Suite 2020-3.
 61 63  0  0  1  0            999 V2000
    4.5590   26.6480    6.0840 C   0  0  0  0  0  0
    0.3070   32.4400    7.5680 C   0  0  0  0  0  0
    1.7060   30.6460    7.2870 C   0  0  0  0  0  0
    0.7960   29.8520    8.1150 C   0  0  0  0  0  0
   -0.3650   30.4620    8.6430 C   0  0  0  0  0  0
   -0.7830   25.6330   11.1900 C   0  0  0  0  0  0
   -0.2790   26.7680   11.8550 C   0  0  0  0  0  0
   -0.4630   28.0620   11.3120 C   0  0  0  0  0  0
   -1.1650   28.2670   10.0790 C   0  0  0  0  0  0
   -1.4830   25.8000    9.9600 C   0  0  0  0  0  0
   -2.6830   31.5500   10.7450 C   0  0  0  0  0  0
   -2.6520   30.3730    9.9560 C   0  0  0  0  0  0
   -1.6720   27.1080    9.4060 C   0  0  0  0  0  0
   -0.5780   24.2470   11.7990 C   0  0  0  0  0  0
    3.4440   28.6890    6.8580 C   0  0  0  0  0  0
   -0.5800   31.7770    8.3310 N   0  0  0  0  0  0
    1.4270   31.9370    7.0360 N   0  0  0  0  0  0
   -1.3800   29.6800    9.5130 N   0  0  0  0  0  0
    0.2520   29.5170   12.2970 Br  0  0  0  0  0  0
   -2.7220   32.5140   11.3920 N   0  0  0  0  0  0
    2.9400   30.0530    6.7120 N   0  0  0  0  0  0
    4.1430   27.9910    5.8320 C   0  0  0  0  0  0
    4.2610   26.0680    7.3500 C   0  0  0  0  0  0
    3.5830   26.7990    8.3180 C   0  0  0  0  0  0
    3.1920   28.0760    8.0790 C   0  0  0  0  0  0
    4.6160   24.7590    7.6550 O   0  0  0  0  0  0
    4.0940   24.0760    8.8390 C   0  0  0  0  0  0
    4.6110   22.6540    8.9440 C   0  0  2  0  0  0
    5.9180   22.4900    9.7500 C   0  0  0  0  0  0
    5.9410   21.3390   10.7020 N   0  3  0  0  0  0
    5.8350   21.7240   12.1390 C   0  0  0  0  0  0
    7.0640   20.3930   10.4520 C   0  0  0  0  0  0
    4.7280   22.0870    7.6420 O   0  0  0  0  0  0
    5.0934   26.0790    5.3232 H   0  0  0  0  0  0
    0.0928   33.4889    7.3631 H   0  0  0  0  0  0
    1.0110   28.8036    8.3217 H   0  0  0  0  0  0
    0.2575   26.6486   12.7963 H   0  0  0  0  0  0
   -1.8768   24.9281    9.4377 H   0  0  0  0  0  0
   -3.1752   29.5629   10.4852 H   0  0  0  0  0  0
   -3.1495   30.5635    8.9936 H   0  0  0  0  0  0
   -2.2068   27.2224    8.4632 H   0  0  0  0  0  0
   -0.0179   24.3397   12.7411 H   0  0  0  0  0  0
   -0.0120   23.6178   11.0963 H   0  0  0  0  0  0
   -1.5565   23.7856   11.9980 H   0  0  0  0  0  0
    3.6047   30.6662    6.0857 H   0  0  0  0  0  0
    4.3556   28.4706    4.8765 H   0  0  0  0  0  0
    3.3624   26.3404    9.2819 H   0  0  0  0  0  0
    2.6708   28.6310    8.8590 H   0  0  0  0  0  0
    4.4015   24.6224    9.7428 H   0  0  0  0  0  0
    2.9958   24.0408    8.7876 H   0  0  0  0  0  0
    3.8369   22.0643    9.4569 H   0  0  0  0  0  0
    6.7593   22.3391    9.0576 H   0  0  0  0  0  0
    6.0948   23.3948   10.3500 H   0  0  0  0  0  0
    5.0140   20.7888   10.4828 H   0  0  0  0  0  0
    4.9941   22.4208   12.2708 H   0  0  0  0  0  0
    6.7683   22.2111   12.4579 H   0  0  0  0  0  0
    5.6644   20.8240   12.7481 H   0  0  0  0  0  0
    7.0996   20.1408    9.3819 H   0  0  0  0  0  0
    6.9089   19.4763   11.0398 H   0  0  0  0  0  0
    8.0128   20.8634   10.7496 H   0  0  0  0  0  0
    3.8764   22.1255    6.9468 H   0  0  0  0  0  0
  1 22  2  0  0  0
  1 23  1  0  0  0
  1 34  1  0  0  0
  2 16  2  0  0  0
  2 17  1  0  0  0
  2 35  1  0  0  0
  3  4  1  0  0  0
  3 17  2  0  0  0
  3 21  1  0  0  0
  4  5  2  0  0  0
  4 36  1  0  0  0
  5 16  1  0  0  0
  5 18  1  0  0  0
  6  7  1  0  0  0
  6 10  2  0  0  0
  6 14  1  0  0  0
  7  8  2  0  0  0
  7 37  1  0  0  0
  8  9  1  0  0  0
  8 19  1  0  0  0
  9 13  2  0  0  0
  9 18  1  0  0  0
 10 13  1  0  0  0
 10 38  1  0  0  0
 11 12  1  0  0  0
 11 20  3  0  0  0
 12 18  1  0  0  0
 12 39  1  0  0  0
 12 40  1  0  0  0
 13 41  1  0  0  0
 14 42  1  0  0  0
 14 43  1  0  0  0
 14 44  1  0  0  0
 15 21  1  0  0  0
 15 22  1  0  0  0
 15 25  2  0  0  0
 21 45  1  0  0  0
 22 46  1  0  0  0
 23 24  2  0  0  0
 23 26  1  0  0  0
 24 25  1  0  0  0
 24 47  1  0  0  0
 25 48  1  0  0  0
 26 27  1  0  0  0
 27 28  1  0  0  0
 27 49  1  0  0  0
 27 50  1  0  0  0
 28 29  1  0  0  0
 28 33  1  0  0  0
 28 51  1  0  0  0
 29 30  1  0  0  0
 29 52  1  0  0  0
 29 53  1  0  0  0
 30 31  1  0  0  0
 30 32  1  0  0  0
 30 54  1  0  0  0
 31 55  1  0  0  0
 31 56  1  0  0  0
 31 57  1  0  0  0
 32 58  1  0  0  0
 32 59  1  0  0  0
 32 60  1  0  0  0
 33 61  1  0  0  0
M  CHG  1  30   1
M  END
> <s_m_source_file>
../1h07_ligand.sdf

> <i_m_source_file_index>
1

> <s_epik_input>
W0NIM11bTkgrXShbQ0gzXSlbQ0gyXVtDQEhdKFtPSF0pW0NIMl1PYyhbY0hdW2NIXTEpW2NIXVtjSF1jMVtOSF1jMltjSF1jKG5bY0hdbjIpTihbQ0gyXUMjTiljKFtjSF1bY0hdMyljKEJyKVtjSF1jM1tDSDNd

> <s_epik_cmdline>
J2VwaWtfYXBwJywgJy1pbWFlJywgJ2xpZ2FuZF9wcm8ubWFlJywgJy1vbWFlJywgJ2xpZ2FuZF9wcmVwLm1hZScsICctbXMnLCAnMScsICctcGgnLCAnNycsICctcGh0JywgJzAuNScsICctbnQn

> <r_lp_tautomer_probability>
0.999999999985434

> <r_epik_Ionization_Penalty>
  0.1093

> <r_epik_Ionization_Penalty_Charging>
  0.1092

> <r_epik_Ionization_Penalty_Neutral>
  0.0001

> <r_epik_State_Penalty>
  0.0990

> <r_epik_Charging_Adjusted_Penalty>
0.20818616252629

> <i_epik_Tot_Q>
1

> <i_epik_Tot_abs_Q>
1

$$$$
