1h08_ligand
                    3D
 Schrodinger Suite 2020-3.
 54 56  0  0  1  0            999 V2000
    8.6630   -9.9020    5.9770 C   0  0  0  0  0  0
   11.4800  -10.7260   14.2040 N   0  0  0  0  0  0
   12.5810  -10.2190   14.8120 C   0  0  0  0  0  0
   11.2560  -10.3670   12.9290 C   0  0  0  0  0  0
   13.1270   -9.0150   12.7770 C   0  0  0  0  0  0
   13.4660   -9.3270   14.1210 C   0  0  0  0  0  0
   12.0310   -9.5390   12.2250 N   0  0  0  0  0  0
   13.9900   -6.3230    8.1010 C   0  0  0  0  0  0
   14.4830   -5.6150    9.2260 C   0  0  0  0  0  0
   14.4700   -6.2250   10.5100 C   0  0  0  0  0  0
   13.9660   -7.5490   10.6790 C   0  0  0  0  0  0
   13.4830   -7.6400    8.2510 C   0  0  0  0  0  0
    7.9800  -11.6300    9.2030 C   0  0  0  0  0  0
    8.5330  -11.7500   10.5060 C   0  0  0  0  0  0
   13.4690   -8.2530    9.5340 C   0  0  0  0  0  0
    9.4910  -10.8060   10.9570 C   0  0  0  0  0  0
    8.3860  -10.5570    8.3360 C   0  0  0  0  0  0
    9.3490   -9.6100    8.7970 C   0  0  0  0  0  0
    9.8960   -9.7320   10.0930 C   0  0  0  0  0  0
    7.8090  -10.4640    7.0410 O   0  0  0  0  0  0
   13.9800   -8.1050   12.0260 N   0  0  0  0  0  0
   10.0780  -10.9250   12.2940 N   0  0  0  0  0  0
   15.0190   -8.6080   14.9720 Br  0  0  0  0  0  0
    7.7590   -9.4630    4.7860 C   0  0  1  0  0  0
    6.5950  -10.4980    4.5810 C   0  0  0  0  0  0
    5.9320  -10.5250    3.2220 N   0  3  0  0  0  0
    5.0380   -9.3710    2.9190 C   0  0  0  0  0  0
    6.7980  -10.9330    2.0780 C   0  0  0  0  0  0
    7.2130   -8.1780    5.0690 O   0  0  0  0  0  0
    9.2119   -9.0327    6.3682 H   0  0  0  0  0  0
    9.3788  -10.6660    5.6395 H   0  0  0  0  0  0
   12.7971  -10.4944   15.8443 H   0  0  0  0  0  0
   14.0004   -5.8540    7.1171 H   0  0  0  0  0  0
   14.8717   -4.6037    9.1065 H   0  0  0  0  0  0
   14.8483   -5.6766   11.3727 H   0  0  0  0  0  0
   13.1047   -8.1811    7.3837 H   0  0  0  0  0  0
    7.2434  -12.3557    8.8583 H   0  0  0  0  0  0
    8.2217  -12.5660   11.1581 H   0  0  0  0  0  0
   13.0780   -9.2641    9.6472 H   0  0  0  0  0  0
    9.6624   -8.7921    8.1483 H   0  0  0  0  0  0
   10.6310   -9.0060   10.4405 H   0  0  0  0  0  0
   14.8773   -7.6774   12.4971 H   0  0  0  0  0  0
    9.4153  -11.5975   12.8585 H   0  0  0  0  0  0
    8.3442   -9.3258    3.8647 H   0  0  0  0  0  0
    6.9771  -11.5166    4.7438 H   0  0  0  0  0  0
    5.7884  -10.2898    5.2994 H   0  0  0  0  0  0
    5.2364  -11.3717    3.3184 H   0  0  0  0  0  0
    4.4346   -9.1316    3.8070 H   0  0  0  0  0  0
    4.3725   -9.6324    2.0830 H   0  0  0  0  0  0
    5.6473   -8.4976    2.6434 H   0  0  0  0  0  0
    7.4248  -11.7856    2.3785 H   0  0  0  0  0  0
    7.4413  -10.0898    1.7862 H   0  0  0  0  0  0
    6.1665  -11.2245    1.2258 H   0  0  0  0  0  0
    7.8820   -7.3223    5.2427 H   0  0  0  0  0  0
  1 20  1  0  0  0
  1 24  1  0  0  0
  1 30  1  0  0  0
  1 31  1  0  0  0
  2  3  2  0  0  0
  2  4  1  0  0  0
  3  6  1  0  0  0
  3 32  1  0  0  0
  4  7  2  0  0  0
  4 22  1  0  0  0
  5 21  1  0  0  0
  5  7  1  0  0  0
  5  6  2  0  0  0
  6 23  1  0  0  0
  8  9  2  0  0  0
  8 12  1  0  0  0
  8 33  1  0  0  0
  9 10  1  0  0  0
  9 34  1  0  0  0
 10 11  2  0  0  0
 10 35  1  0  0  0
 11 15  1  0  0  0
 11 21  1  0  0  0
 12 15  2  0  0  0
 12 36  1  0  0  0
 13 14  2  0  0  0
 13 17  1  0  0  0
 13 37  1  0  0  0
 14 16  1  0  0  0
 14 38  1  0  0  0
 15 39  1  0  0  0
 16 19  2  0  0  0
 16 22  1  0  0  0
 17 18  2  0  0  0
 17 20  1  0  0  0
 18 19  1  0  0  0
 18 40  1  0  0  0
 19 41  1  0  0  0
 21 42  1  0  0  0
 22 43  1  0  0  0
 24 25  1  0  0  0
 24 29  1  0  0  0
 24 44  1  0  0  0
 25 26  1  0  0  0
 25 45  1  0  0  0
 25 46  1  0  0  0
 26 27  1  0  0  0
 26 28  1  0  0  0
 26 47  1  0  0  0
 27 48  1  0  0  0
 27 49  1  0  0  0
 27 50  1  0  0  0
 28 51  1  0  0  0
 28 52  1  0  0  0
 28 53  1  0  0  0
 29 54  1  0  0  0
M  CHG  1  26   1
M  END
> <s_m_source_file>
../1h08_ligand.sdf

> <i_m_source_file_index>
1

> <s_epik_input>
W0NIM11bTkgrXShbQ0gzXSlbQ0gyXVtDQEBIXShbT0hdKVtDSDJdT2MoW2NIXVtjSF0xKVtjSF1bY0hdYzFbTkhdYzJuW2NIXWMoQnIpYyhuMilbTkhdYzNbY0hdW2NIXVtjSF1bY0hdW2NIXTM=

> <s_epik_cmdline>
J2VwaWtfYXBwJywgJy1pbWFlJywgJ2xpZ2FuZF9wcm8ubWFlJywgJy1vbWFlJywgJ2xpZ2FuZF9wcmVwLm1hZScsICctbXMnLCAnMScsICctcGgnLCAnNycsICctcGh0JywgJzAuNScsICctbnQn

> <r_lp_tautomer_probability>
0.999999624730965

> <r_epik_Ionization_Penalty>
  0.1095

> <r_epik_Ionization_Penalty_Charging>
  0.1092

> <r_epik_Ionization_Penalty_Neutral>
  0.0003

> <r_epik_State_Penalty>
  0.0990

> <r_epik_Charging_Adjusted_Penalty>
0.20818616252629

> <i_epik_Tot_Q>
1

> <i_epik_Tot_abs_Q>
1

$$$$
