1h0w_ligand
                    3D
 Schrodinger Suite 2020-3.
 34 36  0  0  1  0            999 V2000
    2.3310   29.3130    7.8490 N   0  0  0  0  0  0
    2.8180   30.3540    7.1210 C   0  0  0  0  0  0
    2.2360   31.6110    7.1280 C   0  0  0  0  0  0
    1.1310   31.8740    7.8700 C   0  0  0  0  0  0
    0.5890   30.7980    8.6390 C   0  0  0  0  0  0
    1.2370   29.4720    8.6320 C   0  0  0  0  0  0
    0.7080   28.4560    9.4080 O   0  0  0  0  0  0
    1.4630   27.2530    9.5560 C   0  0  0  0  0  0
   -0.4760   31.2370    9.2900 N   0  3  0  0  0  0
   -0.6330   32.5150    8.9650 C   0  0  0  0  0  0
    0.3310   32.9020    8.1040 N   0  0  0  0  0  0
    3.9270   30.2130    6.3400 N   0  0  0  0  0  0
    0.9110   26.4560   10.7230 C   0  0  1  0  0  0
   -0.3420   25.7350   10.2480 C   0  0  0  0  0  0
   -0.0120   24.2850    9.9480 C   0  0  0  0  0  0
    0.3330   23.5630   11.2370 C   0  0  0  0  0  0
    1.5360   24.2230   11.9030 C   0  0  0  0  0  0
    2.0040   25.5280   11.2430 C   0  0  0  0  0  0
    2.6750   32.4056    6.5247 H   0  0  0  0  0  0
    1.3878   26.6572    8.6344 H   0  0  0  0  0  0
    2.5173   27.5028    9.7461 H   0  0  0  0  0  0
   -1.3985   33.2337    9.2928 H   0  0  0  0  0  0
    4.4417   29.2424    6.2858 H   0  0  0  0  0  0
    4.3068   31.0699    5.7643 H   0  0  0  0  0  0
    0.6161   27.0969   11.5670 H   0  0  0  0  0  0
   -1.1108   25.7799   11.0334 H   0  0  0  0  0  0
   -0.7206   26.2199    9.3361 H   0  0  0  0  0  0
   -0.8814   23.8004    9.4796 H   0  0  0  0  0  0
    0.8470   24.2387    9.2625 H   0  0  0  0  0  0
   -0.1457   22.6909   11.7063 H   0  0  0  0  0  0
    1.9980   23.7597   12.7872 H   0  0  0  0  0  0
    2.6564   25.2270   10.4100 H   0  0  0  0  0  0
    2.5998   26.0534   12.0039 H   0  0  0  0  0  0
   -1.0367   30.5575    9.9487 H   0  0  0  0  0  0
  1  2  2  0  0  0
  1  6  1  0  0  0
  2  3  1  0  0  0
  2 12  1  0  0  0
  3  4  2  0  0  0
  3 19  1  0  0  0
  4  5  1  0  0  0
  4 11  1  0  0  0
  5  6  2  0  0  0
  5  9  1  0  0  0
  6  7  1  0  0  0
  7  8  1  0  0  0
  8 13  1  0  0  0
  8 20  1  0  0  0
  8 21  1  0  0  0
  9 10  1  0  0  0
  9 34  1  0  0  0
 10 11  2  0  0  0
 10 22  1  0  0  0
 12 23  1  0  0  0
 12 24  1  0  0  0
 13 14  1  0  0  0
 13 18  1  0  0  0
 13 25  1  0  0  0
 14 15  1  0  0  0
 14 26  1  0  0  0
 14 27  1  0  0  0
 15 16  1  0  0  0
 15 28  1  0  0  0
 15 29  1  0  0  0
 16 17  2  0  0  0
 16 30  1  0  0  0
 17 18  1  0  0  0
 17 31  1  0  0  0
 18 32  1  0  0  0
 18 33  1  0  0  0
M  CHG  1   9   1
M  END
> <s_m_source_file>
../1h0w_ligand.sdf

> <i_m_source_file_index>
1

> <s_epik_input>
bjFbY0hdW25IXWMoYzEyKWMobmMoW2NIXTIpW05IMl0pT1tDSDJdW0NASF0zW0NIMl1bQ0gyXVtDSF09W0NIXVtDSDJdMw==

> <s_epik_cmdline>
J2VwaWtfYXBwJywgJy1pbWFlJywgJ2xpZ2FuZF9wcm8ubWFlJywgJy1vbWFlJywgJ2xpZ2FuZF9wcmVwLm1hZScsICctbXMnLCAnMScsICctcGgnLCAnNycsICctcGh0JywgJzAuNScsICctbnQn

> <r_lp_tautomer_probability>
1

> <r_epik_Ionization_Penalty>
  0.0067

> <r_epik_Ionization_Penalty_Charging>
  0.0000

> <r_epik_Ionization_Penalty_Neutral>
  0.0067

> <r_epik_State_Penalty>
 -0.0000

> <r_epik_Charging_Adjusted_Penalty>
0

> <i_epik_Tot_Q>
1

> <i_epik_Tot_abs_Q>
1

> <s_epik_Chemistry_Notes>
This compound has an imine and may undergo hydrolysis.

$$$$
