1h1b_ligand
                    3D
 Schrodinger Suite 2020-3.
 60 62  0  0  1  0            999 V2000
   17.6300   13.2150   24.7210 O   0  0  0  0  0  0
   18.2600   12.7710   23.7530 C   0  0  0  0  0  0
   17.8180   11.7320   22.9620 N   0  0  0  0  0  0
   18.6990   10.8960   22.1770 C   0  0  0  0  0  0
   17.8690    9.6140   21.8950 C   0  0  0  0  0  0
   16.7790    9.7590   22.9390 C   0  0  1  0  0  0
   17.4060    9.4000   24.1670 N   0  0  3  0  0  0
   16.3980    8.9010   25.4570 S   0  0  0  0  0  0
   14.7570    8.4460   24.9870 C   0  0  0  0  0  0
   17.2610    7.8450   26.0790 O   0  0  0  0  0  0
   16.3070   10.1150   26.3840 O   0  0  0  0  0  0
   16.4560   11.2700   22.9470 C   0  0  2  0  0  0
   15.6610   11.6400   21.6890 C   0  0  2  0  0  0
   15.2980   13.1440   21.5020 C   0  0  0  0  0  0
   14.4650   13.5680   22.7170 C   0  0  0  0  0  0
   14.5500   13.3210   20.1680 C   0  0  0  0  0  0
   14.3650   10.7910   21.6650 C   0  0  0  0  0  0
   13.3700   10.8480   22.4290 O   0  0  0  0  0  0
   19.5570   13.1940   23.5860 C   0  0  0  0  0  0
   20.2880   13.2790   22.3560 N   0  0  0  0  0  0
   21.5580   13.6570   22.8740 C   0  0  0  0  0  0
   21.6200   13.7970   24.2460 O   0  0  0  0  0  0
   20.3710   13.4650   24.6900 C   0  0  0  0  0  0
   22.7260   13.9160   21.9860 C   0  0  0  0  0  0
   23.4980   12.7390   21.6410 N   0  3  0  0  0  0
   22.9720   11.9210   20.5440 C   0  0  0  0  0  0
   23.7410   12.3760   19.3100 C   0  0  0  0  0  0
   25.1290   12.4090   19.9180 C   0  0  0  0  0  0
   24.8700   13.1240   21.2540 C   0  0  0  0  0  0
   18.9719   11.4204   21.2494 H   0  0  0  0  0  0
   19.6086   10.6770   22.7556 H   0  0  0  0  0  0
   17.4981    9.6377   20.8597 H   0  0  0  0  0  0
   18.5043    8.7273   22.0367 H   0  0  0  0  0  0
   15.8928    9.1188   22.8169 H   0  0  0  0  0  0
   18.4994    9.2897   24.2146 H   0  0  0  0  0  0
   14.7957    7.5732   24.3186 H   0  0  0  0  0  0
   14.2788    9.2874   24.4641 H   0  0  0  0  0  0
   14.1748    8.1941   25.8856 H   0  0  0  0  0  0
   15.8728   11.7149   23.7667 H   0  0  0  0  0  0
   16.3462   11.4140   20.8587 H   0  0  0  0  0  0
   16.1808   13.7985   21.4527 H   0  0  0  0  0  0
   15.0526   13.4180   23.6348 H   0  0  0  0  0  0
   13.5496   12.9599   22.7642 H   0  0  0  0  0  0
   14.1951   14.6303   22.6239 H   0  0  0  0  0  0
   15.1982   13.0008   19.3389 H   0  0  0  0  0  0
   14.2815   14.3795   20.0358 H   0  0  0  0  0  0
   13.6359   12.7091   20.1762 H   0  0  0  0  0  0
   14.3863   10.0601   20.8432 H   0  0  0  0  0  0
   20.0603   13.4190   25.7338 H   0  0  0  0  0  0
   22.3770   14.3555   21.0399 H   0  0  0  0  0  0
   23.4161   14.6143   22.4821 H   0  0  0  0  0  0
   23.4383   12.1383   22.5606 H   0  0  0  0  0  0
   23.1477   10.8574   20.7629 H   0  0  0  0  0  0
   21.8918   12.1000   20.4384 H   0  0  0  0  0  0
   23.6090   11.6396   18.5036 H   0  0  0  0  0  0
   23.3595   13.3535   18.9800 H   0  0  0  0  0  0
   25.4994   11.3807   20.0423 H   0  0  0  0  0  0
   25.8071   12.9652   19.2540 H   0  0  0  0  0  0
   24.9271   14.2171   21.1448 H   0  0  0  0  0  0
   25.5759   12.7959   22.0312 H   0  0  0  0  0  0
  1  2  2  0  0  0
  2  3  1  0  0  0
  2 19  1  0  0  0
  3  4  1  0  0  0
  3 12  1  0  0  0
  4  5  1  0  0  0
  4 30  1  0  0  0
  4 31  1  0  0  0
  5  6  1  0  0  0
  5 32  1  0  0  0
  5 33  1  0  0  0
  6  7  1  0  0  0
  6 12  1  0  0  0
  6 34  1  0  0  0
  7  8  1  0  0  0
  7 35  1  0  0  0
  8  9  1  0  0  0
  8 10  2  0  0  0
  8 11  2  0  0  0
  9 36  1  0  0  0
  9 37  1  0  0  0
  9 38  1  0  0  0
 12 13  1  0  0  0
 12 39  1  0  0  0
 13 14  1  0  0  0
 13 17  1  0  0  0
 13 40  1  0  0  0
 14 15  1  0  0  0
 14 16  1  0  0  0
 14 41  1  0  0  0
 15 42  1  0  0  0
 15 43  1  0  0  0
 15 44  1  0  0  0
 16 45  1  0  0  0
 16 46  1  0  0  0
 16 47  1  0  0  0
 17 18  2  0  0  0
 17 48  1  0  0  0
 19 20  1  0  0  0
 19 23  2  0  0  0
 20 21  2  0  0  0
 21 22  1  0  0  0
 21 24  1  0  0  0
 22 23  1  0  0  0
 23 49  1  0  0  0
 24 25  1  0  0  0
 24 50  1  0  0  0
 24 51  1  0  0  0
 25 26  1  0  0  0
 25 29  1  0  0  0
 25 52  1  0  0  0
 26 27  1  0  0  0
 26 53  1  0  0  0
 26 54  1  0  0  0
 27 28  1  0  0  0
 27 55  1  0  0  0
 27 56  1  0  0  0
 28 29  1  0  0  0
 28 57  1  0  0  0
 28 58  1  0  0  0
 29 59  1  0  0  0
 29 60  1  0  0  0
M  CHG  1  25   1
M  END
> <s_m_source_file>
../1h1b_ligand.sdf

> <i_m_source_file_index>
1

> <s_epik_input>
W0NIM11bQ0hdKFtDSDNdKVtDQEhdKFtDSF09TylbQ0BIXTFbQ0BIXShbTkhdUyg9TykoPU8pW0NIM10pW0NIMl1bQ0gyXU4xQyg9TyljMm5jKG9bY0hdMilbQ0gyXVtOSCtdM1tDSDJdW0NIMl1bQ0gyXVtDSDJdMw==

> <s_epik_cmdline>
J2VwaWtfYXBwJywgJy1pbWFlJywgJ2xpZ2FuZF9wcm8ubWFlJywgJy1vbWFlJywgJ2xpZ2FuZF9wcmVwLm1hZScsICctbXMnLCAnMScsICctcGgnLCAnNycsICctcGh0JywgJzAuNScsICctbnQn

> <r_lp_tautomer_probability>
1

> <r_epik_Ionization_Penalty>
  0.0083

> <r_epik_Ionization_Penalty_Charging>
  0.0082

> <r_epik_Ionization_Penalty_Neutral>
  0.0000

> <r_epik_State_Penalty>
 -0.0000

> <r_epik_Charging_Adjusted_Penalty>
0.00822545232050811

> <i_epik_Tot_Q>
1

> <i_epik_Tot_abs_Q>
1

$$$$
