1h1h_ligand
                    3D
 Schrodinger Suite 2020-3.
 38 40  0  0  1  0            999 V2000
   17.3840   45.0930   -1.9120 P   0  0  0  0  0  0
   16.5780   43.8740   -1.6950 O   0  0  0  0  0  0
   18.5900   45.0320   -1.0490 O   0  5  0  0  0  0
   16.5790   46.2910   -1.5680 O   0  5  0  0  0  0
   22.8280   47.7390   -2.0220 P   0  0  0  0  0  0
   22.2750   48.9570   -1.3680 O   0  5  0  0  0  0
   23.0750   46.6610   -1.0500 O   0  5  0  0  0  0
   24.0400   48.0830   -2.6690 O   0  0  0  0  0  0
   21.9260   47.2180   -3.2650 O   0  0  0  0  0  0
   21.2770   48.3480   -4.0130 C   0  0  0  0  0  0
   20.0390   47.8340   -4.7520 C   0  0  1  0  0  0
   20.4320   46.6240   -5.5320 O   0  0  0  0  0  0
   18.8240   47.3950   -3.9140 C   0  0  1  0  0  0
   17.5770   47.7890   -4.4180 O   0  0  0  0  0  0
   19.0460   45.8660   -3.8130 C   0  0  1  0  0  0
   17.8190   45.1750   -3.4900 O   0  0  0  0  0  0
   19.5110   45.5250   -5.1880 C   0  0  2  0  0  0
   20.2700   44.2190   -5.2680 N   0  0  0  0  0  0
   21.3070   43.7310   -4.4480 C   0  0  0  0  0  0
   21.7300   42.5290   -4.8360 N   0  0  0  0  0  0
   20.9610   42.2280   -5.9220 C   0  0  0  0  0  0
   20.9130   41.0590   -6.8180 C   0  0  0  0  0  0
   21.6950   40.0100   -6.6900 N   0  0  0  0  0  0
   19.9750   41.1250   -7.8340 N   0  0  0  0  0  0
   19.1290   42.2090   -8.0110 C   0  0  0  0  0  0
   19.1160   43.2950   -7.2410 N   0  0  0  0  0  0
   20.0330   43.2570   -6.2300 C   0  0  0  0  0  0
   20.9780   49.1335   -3.3034 H   0  0  0  0  0  0
   21.9898   48.7632   -4.7407 H   0  0  0  0  0  0
   19.7230   48.6963   -5.3575 H   0  0  0  0  0  0
   18.6784   47.9283   -2.9630 H   0  0  0  0  0  0
   17.3386   48.8578   -4.5220 H   0  0  0  0  0  0
   19.7245   45.5233   -3.0179 H   0  0  0  0  0  0
   18.6480   45.4298   -5.8635 H   0  0  0  0  0  0
   21.7154   44.2739   -3.5956 H   0  0  0  0  0  0
   22.4356   39.9720   -5.8776 H   0  0  0  0  0  0
   21.6087   39.1703   -7.3953 H   0  0  0  0  0  0
   18.4233   42.1692   -8.8408 H   0  0  0  0  0  0
  1 16  1  0  0  0
  1  4  1  0  0  0
  1  3  1  0  0  0
  1  2  2  0  0  0
  5  9  1  0  0  0
  5  8  2  0  0  0
  5  7  1  0  0  0
  5  6  1  0  0  0
  9 10  1  0  0  0
 10 11  1  0  0  0
 10 28  1  0  0  0
 10 29  1  0  0  0
 11 13  1  0  0  0
 11 12  1  0  0  0
 11 30  1  0  0  0
 12 17  1  0  0  0
 13 15  1  0  0  0
 13 14  1  0  0  0
 13 31  1  0  0  0
 14 32  1  0  0  0
 15 16  1  0  0  0
 15 17  1  0  0  0
 15 33  1  0  0  0
 17 18  1  0  0  0
 17 34  1  0  0  0
 18 27  1  0  0  0
 18 19  1  0  0  0
 19 20  2  0  0  0
 19 35  1  0  0  0
 20 21  1  0  0  0
 21 27  2  0  0  0
 21 22  1  0  0  0
 22 24  2  0  0  0
 22 23  1  0  0  0
 23 36  1  0  0  0
 23 37  1  0  0  0
 24 25  1  0  0  0
 25 26  2  0  0  0
 25 38  1  0  0  0
 26 27  1  0  0  0
M  CHG  4   3  -1   4  -1   6  -1   7  -1
M  END
> <s_m_source_file>
../1h1h_ligand.sdf

> <i_m_source_file_index>
1

> <s_epik_input>
W09IXVAoPU8pKFtPSF0pT1tDSDJdW0NASF0xT1tDQEhdKFtDQEBIXShbQ0BASF0xW09IXSlPUCg9TykoW09IXSlbT0hdKW4oW2NIXW4yKWMoYzIzKW5bY0hdbmMzW05IMl0=

> <s_epik_cmdline>
J2VwaWtfYXBwJywgJy1pbWFlJywgJ2xpZ2FuZF9wcm8ubWFlJywgJy1vbWFlJywgJ2xpZ2FuZF9wcmVwLm1hZScsICctbXMnLCAnMScsICctcGgnLCAnNycsICctcGh0JywgJzAuNScsICctbnQn

> <r_lp_tautomer_probability>
1

> <r_epik_Ionization_Penalty>
  0.1673

> <r_epik_Ionization_Penalty_Charging>
  0.1667

> <r_epik_Ionization_Penalty_Neutral>
  0.0006

> <r_epik_State_Penalty>
 -0.0000

> <r_epik_Charging_Adjusted_Penalty>
0.166734079087257

> <i_epik_Tot_Q>
-4

> <i_epik_Tot_abs_Q>
4

> <s_epik_Chemistry_Notes>
This compound contains an acetal/aminal-like group ( X-CH(R)-Y where X, Y are N, S, or O) that may be acid/base labile, releasing an aldehyde.

$$$$
