1h1p_ligand
                    3D
 Schrodinger Suite 2020-3.
 35 37  0  0  1  0            999 V2000
   33.3860   45.1310   18.1090 N   0  0  0  0  0  0
   33.8910   44.4080   16.9780 C   0  0  0  0  0  0
   34.6070   45.0840   16.1150 N   0  0  0  0  0  0
   34.8710   46.4680   16.3200 C   0  0  0  0  0  0
   34.3380   47.0780   17.3880 C   0  0  0  0  0  0
   33.5680   46.3310   18.3990 C   0  0  0  0  0  0
   33.0800   46.9870   19.4520 O   0  0  0  0  0  0
   32.7960   46.3000   20.6500 C   0  0  0  0  0  0
   34.7930   48.4110   17.2250 N   0  0  0  0  0  0
   35.5460   48.4800   16.1920 C   0  0  0  0  0  0
   35.5840   47.3040   15.6090 N   0  3  0  0  0  0
   33.5970   43.1160   16.8860 N   0  0  0  0  0  0
   31.6720   46.9610   21.4760 C   0  0  0  0  0  0
   31.8010   46.4090   22.9300 C   0  0  0  0  0  0
   30.9550   47.1880   23.9640 C   0  0  0  0  0  0
   31.0980   48.7030   23.8730 C   0  0  0  0  0  0
   30.8100   49.2470   22.4270 C   0  0  0  0  0  0
   31.6670   48.4870   21.3650 C   0  0  0  0  0  0
   32.4781   45.2730   20.4172 H   0  0  0  0  0  0
   33.6981   46.2709   21.2787 H   0  0  0  0  0  0
   36.0714   49.3720   15.8510 H   0  0  0  0  0  0
   32.9863   42.6342   17.6638 H   0  0  0  0  0  0
   33.9642   42.5278   16.0321 H   0  0  0  0  0  0
   30.6820   46.7127   21.0659 H   0  0  0  0  0  0
   31.4679   45.3609   22.9552 H   0  0  0  0  0  0
   32.8509   46.4679   23.2528 H   0  0  0  0  0  0
   29.8901   46.9546   23.8169 H   0  0  0  0  0  0
   31.2575   46.8955   24.9803 H   0  0  0  0  0  0
   30.3868   49.1805   24.5631 H   0  0  0  0  0  0
   32.1238   48.9916   24.1460 H   0  0  0  0  0  0
   29.7454   49.1074   22.1880 H   0  0  0  0  0  0
   31.0586   50.3176   22.3817 H   0  0  0  0  0  0
   32.6940   48.8658   21.4730 H   0  0  0  0  0  0
   31.2688   48.7819   20.3829 H   0  0  0  0  0  0
   36.0850   46.9584   14.6927 H   0  0  0  0  0  0
  1  6  2  0  0  0
  1  2  1  0  0  0
  2 12  1  0  0  0
  2  3  2  0  0  0
  3  4  1  0  0  0
  4 11  2  0  0  0
  4  5  1  0  0  0
  5  9  2  0  0  0
  5  6  1  0  0  0
  6  7  1  0  0  0
  7  8  1  0  0  0
  8 13  1  0  0  0
  8 19  1  0  0  0
  8 20  1  0  0  0
  9 10  1  0  0  0
 10 11  1  0  0  0
 10 21  1  0  0  0
 11 35  1  0  0  0
 12 22  1  0  0  0
 12 23  1  0  0  0
 13 18  1  0  0  0
 13 14  1  0  0  0
 13 24  1  0  0  0
 14 15  1  0  0  0
 14 25  1  0  0  0
 14 26  1  0  0  0
 15 16  1  0  0  0
 15 27  1  0  0  0
 15 28  1  0  0  0
 16 17  1  0  0  0
 16 29  1  0  0  0
 16 30  1  0  0  0
 17 18  1  0  0  0
 17 31  1  0  0  0
 17 32  1  0  0  0
 18 33  1  0  0  0
 18 34  1  0  0  0
M  CHG  1  11   1
M  END
> <s_m_source_file>
../1h1p_ligand.sdf

> <i_m_source_file_index>
1

> <s_epik_input>
TjFbQ0gyXU49YyhjPTEyKWMobmMobjIpW05IMl0pT1tDSDJdW0NIXTNbQ0gyXVtDSDJdW0NIMl1bQ0gyXVtDSDJdMw==

> <s_epik_cmdline>
J2VwaWtfYXBwJywgJy1pbWFlJywgJ2xpZ2FuZF9wcm8ubWFlJywgJy1vbWFlJywgJ2xpZ2FuZF9wcmVwLm1hZScsICctbXMnLCAnMScsICctcGgnLCAnNycsICctcGh0JywgJzAuNScsICctbnQn

> <r_lp_tautomer_probability>
1

> <r_epik_Ionization_Penalty>
  0.0000

> <r_epik_Ionization_Penalty_Charging>
  0.0000

> <r_epik_Ionization_Penalty_Neutral>
  0.0000

> <r_epik_State_Penalty>
 -0.0000

> <r_epik_Charging_Adjusted_Penalty>
1.72341331169499e-14

> <i_epik_Tot_Q>
1

> <i_epik_Tot_abs_Q>
1

> <s_epik_Chemistry_Notes>
This compound has an imine and may undergo hydrolysis.

$$$$
