1h1q_ligand
                    3D
 Schrodinger Suite 2020-3.
 45 48  0  0  1  0            999 V2000
    7.8210   43.7020   49.3990 C   0  0  0  0  0  0
   10.7390   46.1550   51.6470 C   0  0  0  0  0  0
    5.1160   45.2740   51.6170 C   0  0  0  0  0  0
    4.1070   45.7240   52.7030 C   0  0  0  0  0  0
    2.7660   45.9860   51.9860 C   0  0  0  0  0  0
    1.5620   46.0860   52.9390 C   0  0  0  0  0  0
    1.4480   44.9690   53.9870 C   0  0  0  0  0  0
    2.7870   44.7400   54.7250 C   0  0  0  0  0  0
    4.0090   44.6090   53.7920 C   0  0  0  0  0  0
    4.6670   40.9170   47.4030 C   0  0  0  0  0  0
    4.0590   40.6480   48.6330 C   0  0  0  0  0  0
    4.6450   41.0930   49.8150 C   0  0  0  0  0  0
    5.8520   41.7890   49.8080 C   0  0  0  0  0  0
    6.8700   44.4890   50.1810 N   0  0  0  0  0  0
    7.2370   45.3850   51.0370 C   0  0  0  0  0  0
    6.3200   46.0740   51.7360 O   0  0  0  0  0  0
    8.6590   45.6250   51.1990 C   0  0  0  0  0  0
    9.5490   46.4520   51.9630 N   0  0  0  0  0  0
   10.7730   45.2130   50.7360 N   0  3  0  0  0  0
    9.5340   44.9120   50.4780 C   0  0  0  0  0  0
    9.0610   43.9200   49.5710 N   0  0  0  0  0  0
    7.6000   42.7620   48.5320 N   0  0  0  0  0  0
    6.4450   42.0610   48.5810 C   0  0  0  0  0  0
    5.8550   41.6320   47.3960 C   0  0  0  0  0  0
   11.5815   46.6738   52.1277 H   0  0  0  0  0  0
    4.6773   45.4180   50.6186 H   0  0  0  0  0  0
    5.3659   44.2121   51.7580 H   0  0  0  0  0  0
    4.4128   46.6506   53.2108 H   0  0  0  0  0  0
    2.8250   46.9353   51.4335 H   0  0  0  0  0  0
    2.5593   45.1652   51.2835 H   0  0  0  0  0  0
    1.6158   47.0308   53.4998 H   0  0  0  0  0  0
    0.6296   46.0583   52.3560 H   0  0  0  0  0  0
    0.6844   45.2406   54.7307 H   0  0  0  0  0  0
    1.1600   44.0298   53.4920 H   0  0  0  0  0  0
    2.9842   45.5874   55.3981 H   0  0  0  0  0  0
    2.7281   43.8115   55.3119 H   0  0  0  0  0  0
    3.9381   43.6255   53.3044 H   0  0  0  0  0  0
    4.9053   44.6387   54.4289 H   0  0  0  0  0  0
    4.2177   40.5727   46.4715 H   0  0  0  0  0  0
    3.1241   40.0886   48.6666 H   0  0  0  0  0  0
    4.1495   40.8928   50.7650 H   0  0  0  0  0  0
    6.3182   42.1112   50.7391 H   0  0  0  0  0  0
    8.3512   42.5377   47.7604 H   0  0  0  0  0  0
    6.3354   41.8622   46.4451 H   0  0  0  0  0  0
   11.7394   44.8481   50.3579 H   0  0  0  0  0  0
  1 22  1  0  0  0
  1 21  2  0  0  0
  1 14  1  0  0  0
  2 18  2  0  0  0
  2 19  1  0  0  0
  2 25  1  0  0  0
  3 16  1  0  0  0
  3  4  1  0  0  0
  3 26  1  0  0  0
  3 27  1  0  0  0
  4  9  1  0  0  0
  4  5  1  0  0  0
  4 28  1  0  0  0
  5  6  1  0  0  0
  5 29  1  0  0  0
  5 30  1  0  0  0
  6  7  1  0  0  0
  6 31  1  0  0  0
  6 32  1  0  0  0
  7  8  1  0  0  0
  7 33  1  0  0  0
  7 34  1  0  0  0
  8  9  1  0  0  0
  8 35  1  0  0  0
  8 36  1  0  0  0
  9 37  1  0  0  0
  9 38  1  0  0  0
 10 11  2  0  0  0
 10 24  1  0  0  0
 10 39  1  0  0  0
 11 12  1  0  0  0
 11 40  1  0  0  0
 12 13  2  0  0  0
 12 41  1  0  0  0
 13 23  1  0  0  0
 13 42  1  0  0  0
 14 15  2  0  0  0
 15 17  1  0  0  0
 15 16  1  0  0  0
 17 20  2  0  0  0
 17 18  1  0  0  0
 19 20  1  0  0  0
 19 45  1  0  0  0
 20 21  1  0  0  0
 22 23  1  0  0  0
 22 43  1  0  0  0
 23 24  2  0  0  0
 24 44  1  0  0  0
M  CHG  1  19   1
M  END
> <s_m_source_file>
../1h1q_ligand.sdf

> <i_m_source_file_index>
1

> <s_epik_input>
W2NIXTFbY0hdW2NIXVtjSF1bY0hdYzFbTkhdYyhuYyhjMjMpW25IXVtjSF1uMyluYzJPW0NIMl1bQ0hdNFtDSDJdW0NIMl1bQ0gyXVtDSDJdW0NIMl00

> <s_epik_cmdline>
J2VwaWtfYXBwJywgJy1pbWFlJywgJ2xpZ2FuZF9wcm8ubWFlJywgJy1vbWFlJywgJ2xpZ2FuZF9wcmVwLm1hZScsICctbXMnLCAnMScsICctcGgnLCAnNycsICctcGh0JywgJzAuNScsICctbnQn

> <r_lp_tautomer_probability>
1

> <r_epik_Ionization_Penalty>
  0.0094

> <r_epik_Ionization_Penalty_Charging>
  0.0000

> <r_epik_Ionization_Penalty_Neutral>
  0.0094

> <r_epik_State_Penalty>
 -0.0000

> <r_epik_Charging_Adjusted_Penalty>
0

> <i_epik_Tot_Q>
1

> <i_epik_Tot_abs_Q>
1

> <s_epik_Chemistry_Notes>
This compound has an imine and may undergo hydrolysis.

$$$$
