1h1r_ligand
                    3D
 Schrodinger Suite 2020-3.
 45 48  0  0  1  0            999 V2000
    8.2730   43.8540   49.7200 C   0  0  0  0  0  0
    7.2960   44.5980   50.5040 N   0  0  0  0  0  0
    7.6880   45.5050   51.3510 C   0  0  0  0  0  0
    6.8040   46.2010   52.0640 O   0  0  0  0  0  0
    5.5450   45.5290   51.8610 C   0  0  0  0  0  0
    4.4980   45.9170   52.8940 C   0  0  0  0  0  0
    4.6810   45.2640   54.2930 C   0  0  0  0  0  0
    3.6190   45.5920   55.3380 C   0  0  0  0  0  0
    2.1490   45.2400   54.7900 C   0  0  0  0  0  0
    1.9870   45.9430   53.4450 C   0  0  0  0  0  0
    3.0800   45.6370   52.3580 C   0  0  0  0  0  0
    9.0930   45.7840   51.5470 C   0  0  0  0  0  0
    9.8900   46.6560   52.3640 N   0  0  0  0  0  0
   11.1310   46.4380   52.1100 C   0  0  0  0  0  0
   11.2310   45.5000   51.1730 N   0  3  0  0  0  0
   10.0070   45.0950   50.8360 C   0  0  0  0  0  0
    9.5500   44.0970   49.9120 N   0  0  0  0  0  0
    7.8690   42.9660   48.8680 N   0  0  0  0  0  0
    6.7600   42.1990   48.8230 C   0  0  0  0  0  0
    5.8240   42.0800   49.8460 C   0  0  0  0  0  0
    4.5950   41.4630   49.6930 C   0  0  0  0  0  0
    4.2830   40.9410   48.4330 C   0  0  0  0  0  0
    5.1920   41.0440   47.3860 C   0  0  0  0  0  0
    6.4470   41.6530   47.5550 C   0  0  0  0  0  0
    3.3610   41.3060   50.9190 Cl  0  0  0  0  0  0
    5.1486   45.7854   50.8675 H   0  0  0  0  0  0
    5.6952   44.4413   51.9263 H   0  0  0  0  0  0
    4.6517   46.9973   53.0330 H   0  0  0  0  0  0
    4.6750   44.1688   54.1901 H   0  0  0  0  0  0
    5.6397   45.5863   54.7255 H   0  0  0  0  0  0
    3.8073   45.0049   56.2489 H   0  0  0  0  0  0
    3.6599   46.6647   55.5782 H   0  0  0  0  0  0
    2.0533   44.1507   54.6707 H   0  0  0  0  0  0
    1.3951   45.5980   55.5065 H   0  0  0  0  0  0
    1.0258   45.6550   52.9942 H   0  0  0  0  0  0
    2.0096   47.0324   53.5956 H   0  0  0  0  0  0
    2.8877   46.2719   51.4805 H   0  0  0  0  0  0
    2.9994   44.5786   52.0695 H   0  0  0  0  0  0
   11.9093   47.0003   52.6467 H   0  0  0  0  0  0
    8.4830   42.7304   47.9863 H   0  0  0  0  0  0
    6.0729   42.4961   50.8222 H   0  0  0  0  0  0
    3.3227   40.4512   48.2714 H   0  0  0  0  0  0
    4.9242   40.6420   46.4089 H   0  0  0  0  0  0
    7.1601   41.7036   46.7322 H   0  0  0  0  0  0
   12.2216   45.1882   50.8104 H   0  0  0  0  0  0
  1  2  2  0  0  0
  1 17  1  0  0  0
  1 18  1  0  0  0
  2  3  1  0  0  0
  3  4  1  0  0  0
  3 12  2  0  0  0
  4  5  1  0  0  0
  5  6  1  0  0  0
  5 26  1  0  0  0
  5 27  1  0  0  0
  6  7  1  0  0  0
  6 11  1  0  0  0
  6 28  1  0  0  0
  7  8  1  0  0  0
  7 29  1  0  0  0
  7 30  1  0  0  0
  8  9  1  0  0  0
  8 31  1  0  0  0
  8 32  1  0  0  0
  9 10  1  0  0  0
  9 33  1  0  0  0
  9 34  1  0  0  0
 10 11  1  0  0  0
 10 35  1  0  0  0
 10 36  1  0  0  0
 11 37  1  0  0  0
 11 38  1  0  0  0
 12 13  1  0  0  0
 12 16  1  0  0  0
 13 14  2  0  0  0
 14 15  1  0  0  0
 14 39  1  0  0  0
 15 16  1  0  0  0
 15 45  1  0  0  0
 16 17  2  0  0  0
 18 19  1  0  0  0
 18 40  1  0  0  0
 19 20  2  0  0  0
 19 24  1  0  0  0
 20 21  1  0  0  0
 20 41  1  0  0  0
 21 22  2  0  0  0
 21 25  1  0  0  0
 22 23  1  0  0  0
 22 42  1  0  0  0
 23 24  2  0  0  0
 23 43  1  0  0  0
 24 44  1  0  0  0
M  CHG  1  15   1
M  END
> <s_m_source_file>
../1h1r_ligand.sdf

> <i_m_source_file_index>
1

> <s_epik_input>
W2NIXTFbY0hdW2NIXWMoQ2wpW2NIXWMxW05IXWMobmMoYzIzKVtuSF1bY0hdbjMpbmMyT1tDSDJdW0NIXTRbQ0gyXVtDSDJdW0NIMl1bQ0gyXVtDSDJdNA==

> <s_epik_cmdline>
J2VwaWtfYXBwJywgJy1pbWFlJywgJ2xpZ2FuZF9wcm8ubWFlJywgJy1vbWFlJywgJ2xpZ2FuZF9wcmVwLm1hZScsICctbXMnLCAnMScsICctcGgnLCAnNycsICctcGh0JywgJzAuNScsICctbnQn

> <r_lp_tautomer_probability>
1

> <r_epik_Ionization_Penalty>
  0.0094

> <r_epik_Ionization_Penalty_Charging>
  0.0000

> <r_epik_Ionization_Penalty_Neutral>
  0.0094

> <r_epik_State_Penalty>
 -0.0000

> <r_epik_Charging_Adjusted_Penalty>
0

> <i_epik_Tot_Q>
1

> <i_epik_Tot_abs_Q>
1

> <s_epik_Chemistry_Notes>
This compound has an imine and may undergo hydrolysis.

$$$$
