1h1s_ligand
                    3D
 Schrodinger Suite 2020-3.
 50 53  0  0  1  0            999 V2000
    7.6500   43.8340   49.7640 C   0  0  0  0  0  0
   10.4750   46.4910   51.9330 C   0  0  0  0  0  0
    4.8960   45.7490   51.7150 C   0  0  0  0  0  0
    3.9390   46.1020   52.8920 C   0  0  0  0  0  0
    4.2880   45.4670   54.2670 C   0  0  0  0  0  0
    3.3970   45.8570   55.4410 C   0  0  0  0  0  0
    1.8520   45.5580   55.1100 C   0  0  0  0  0  0
    1.5320   46.2430   53.7850 C   0  0  0  0  0  0
    2.4500   45.8720   52.5650 C   0  0  0  0  0  0
    4.4350   40.8130   47.8880 C   0  0  0  0  0  0
    3.6020   40.7530   48.9770 C   0  0  0  0  0  0
    4.0230   41.4320   50.1800 C   0  0  0  0  0  0
    5.2240   42.1010   50.1750 C   0  0  0  0  0  0
    1.0630   40.4980   49.8460 N   0  0  0  0  0  0
    6.6580   44.5200   50.5610 N   0  0  0  0  0  0
    7.0800   45.4670   51.3690 C   0  0  0  0  0  0
    6.2540   46.2290   52.0730 O   0  0  0  0  0  0
    8.4650   45.7670   51.5400 C   0  0  0  0  0  0
    9.2320   46.7290   52.2560 N   0  0  0  0  0  0
   10.5880   45.5050   51.0470 N   0  3  0  0  0  0
    9.3620   45.1110   50.8140 C   0  0  0  0  0  0
    8.8790   44.0990   49.9700 N   0  0  0  0  0  0
    7.2860   42.8560   48.9780 N   0  0  0  0  0  0
    6.0650   42.2250   49.0670 C   0  0  0  0  0  0
    5.6110   41.5340   47.9220 C   0  0  0  0  0  0
    2.1470   39.7960   48.9300 S   0  0  0  0  0  0
    2.4550   38.5120   49.5420 O   0  0  0  0  0  0
    1.5530   39.7400   47.5990 O   0  0  0  0  0  0
   11.2840   47.0828   52.3861 H   0  0  0  0  0  0
    4.5634   46.2452   50.7914 H   0  0  0  0  0  0
    4.9214   44.6606   51.5577 H   0  0  0  0  0  0
    4.1015   47.1839   53.0066 H   0  0  0  0  0  0
    4.2241   44.3714   54.1917 H   0  0  0  0  0  0
    5.3095   45.7557   54.5556 H   0  0  0  0  0  0
    3.6875   45.2779   56.3300 H   0  0  0  0  0  0
    3.5135   46.9309   55.6488 H   0  0  0  0  0  0
    1.6976   44.4718   55.0306 H   0  0  0  0  0  0
    1.2199   45.9602   55.9154 H   0  0  0  0  0  0
    0.5069   45.9878   53.4785 H   0  0  0  0  0  0
    1.6180   47.3330   53.9055 H   0  0  0  0  0  0
    2.1619   46.4983   51.7079 H   0  0  0  0  0  0
    2.2887   44.8128   52.3158 H   0  0  0  0  0  0
    4.1619   40.2800   46.9773 H   0  0  0  0  0  0
    3.4006   41.4144   51.0746 H   0  0  0  0  0  0
    5.5438   42.5698   51.1056 H   0  0  0  0  0  0
    0.1338   39.9095   49.8312 H   0  0  0  0  0  0
    0.8619   41.5104   49.4658 H   0  0  0  0  0  0
    7.9696   42.4963   48.1948 H   0  0  0  0  0  0
    6.2206   41.5722   47.0192 H   0  0  0  0  0  0
   11.5815   45.2028   50.6841 H   0  0  0  0  0  0
  1 23  1  0  0  0
  1 22  2  0  0  0
  1 15  1  0  0  0
  2 19  2  0  0  0
  2 20  1  0  0  0
  2 29  1  0  0  0
  3 17  1  0  0  0
  3  4  1  0  0  0
  3 30  1  0  0  0
  3 31  1  0  0  0
  4  9  1  0  0  0
  4  5  1  0  0  0
  4 32  1  0  0  0
  5  6  1  0  0  0
  5 33  1  0  0  0
  5 34  1  0  0  0
  6  7  1  0  0  0
  6 35  1  0  0  0
  6 36  1  0  0  0
  7  8  1  0  0  0
  7 37  1  0  0  0
  7 38  1  0  0  0
  8  9  1  0  0  0
  8 39  1  0  0  0
  8 40  1  0  0  0
  9 41  1  0  0  0
  9 42  1  0  0  0
 10 11  2  0  0  0
 10 25  1  0  0  0
 10 43  1  0  0  0
 11 12  1  0  0  0
 11 26  1  0  0  0
 12 13  2  0  0  0
 12 44  1  0  0  0
 13 24  1  0  0  0
 13 45  1  0  0  0
 14 26  1  0  0  0
 14 46  1  0  0  0
 14 47  1  0  0  0
 15 16  2  0  0  0
 16 18  1  0  0  0
 16 17  1  0  0  0
 18 21  2  0  0  0
 18 19  1  0  0  0
 20 21  1  0  0  0
 20 50  1  0  0  0
 21 22  1  0  0  0
 23 24  1  0  0  0
 23 48  1  0  0  0
 24 25  2  0  0  0
 25 49  1  0  0  0
 26 28  2  0  0  0
 26 27  2  0  0  0
M  CHG  1  20   1
M  END
> <s_m_source_file>
../1h1s_ligand.sdf

> <i_m_source_file_index>
1

> <s_epik_input>
W05IMl1TKD1PKSg9TyljMVtjSF1bY0hdYyhbY0hdW2NIXTEpW05IXWMobmMoYzIzKVtuSF1bY0hdbjMpbmMyT1tDSDJdW0NIXTRbQ0gyXVtDSDJdW0NIMl1bQ0gyXVtDSDJdNA==

> <s_epik_cmdline>
J2VwaWtfYXBwJywgJy1pbWFlJywgJ2xpZ2FuZF9wcm8ubWFlJywgJy1vbWFlJywgJ2xpZ2FuZF9wcmVwLm1hZScsICctbXMnLCAnMScsICctcGgnLCAnNycsICctcGh0JywgJzAuNScsICctbnQn

> <r_lp_tautomer_probability>
1

> <r_epik_Ionization_Penalty>
  0.0096

> <r_epik_Ionization_Penalty_Charging>
  0.0000

> <r_epik_Ionization_Penalty_Neutral>
  0.0096

> <r_epik_State_Penalty>
 -0.0000

> <r_epik_Charging_Adjusted_Penalty>
0

> <i_epik_Tot_Q>
1

> <i_epik_Tot_abs_Q>
1

> <s_epik_Chemistry_Notes>
This compound has an imine and may undergo hydrolysis.

$$$$
