1h24_ligand
                    3D
 Schrodinger Suite 2020-3.
168168  0  0  1  0            999 V2000
    8.1310   84.8080   79.6780 N   0  3  0  0  0  0
    7.1570   83.8060   79.1660 C   0  0  2  0  0  0
    7.7400   83.0280   78.0110 C   0  0  0  0  0  0
    8.5930   83.5450   77.2620 O   0  0  0  0  0  0
    5.9990   84.6660   78.6320 C   0  0  0  0  0  0
    6.5350   86.0490   78.5140 C   0  0  0  0  0  0
    8.0220   86.0590   78.9180 C   0  0  0  0  0  0
    7.2900   81.7830   77.8870 N   0  0  0  0  0  0
    7.7260   80.9260   76.7900 C   0  0  2  0  0  0
    7.2780   81.6050   75.5010 C   0  0  0  0  0  0
    8.0960   81.9950   74.6810 O   0  0  0  0  0  0
    7.1480   79.5020   76.8910 C   0  0  0  0  0  0
    8.2300   78.4900   76.9280 C   0  0  0  0  0  0
    6.2270   79.3580   78.1070 C   0  0  0  0  0  0
    5.9680   81.7740   75.3350 N   0  0  0  0  0  0
    5.4510   82.4780   74.1670 C   0  0  2  0  0  0
    6.3030   83.7480   73.9870 C   0  0  0  0  0  0
    6.0680   84.7580   74.6390 O   0  0  0  0  0  0
    3.9750   82.8260   74.3860 C   0  0  0  0  0  0
    3.1370   83.0990   73.1240 C   0  0  0  0  0  0
    1.6600   83.3290   73.4650 C   0  0  0  0  0  0
    1.1580   84.7130   73.0140 C   0  0  0  0  0  0
    1.9220   85.8580   73.6040 N   0  3  0  0  0  0
    7.3200   83.6800   73.1440 N   0  0  0  0  0  0
    8.1570   84.8500   72.8940 C   0  0  2  0  0  0
    9.1420   84.5990   71.7930 C   0  0  0  0  0  0
    9.6850   83.5320   71.6920 O   0  0  0  0  0  0
    8.9380   85.2790   74.1510 C   0  0  0  0  0  0
   10.2870   84.6480   74.3250 C   0  0  0  0  0  0
   10.7420   84.7040   75.7580 C   0  0  0  0  0  0
   12.1230   84.2640   75.9230 N   0  0  0  0  0  0
   12.4800   83.2120   76.6400 C   0  0  0  0  0  0
   11.5430   82.4830   77.2530 N   0  0  0  0  0  0
   13.7600   82.8860   76.7360 N   0  0  0  0  0  0
    9.3660   85.5870   70.9570 N   0  0  0  0  0  0
   10.4160   85.4440   69.9880 C   0  0  2  0  0  0
   11.6990   85.8370   70.7290 C   0  0  0  0  0  0
   11.7390   86.8660   71.4110 O   0  0  0  0  0  0
   10.1470   86.2950   68.7370 C   0  0  0  0  0  0
   10.7520   87.6330   68.7600 C   0  0  0  0  0  0
   11.3730   88.0380   67.4560 C   0  0  0  0  0  0
   12.6440   88.7020   67.7450 N   0  0  0  0  0  0
   13.1870   89.6640   67.0120 C   0  0  0  0  0  0
   12.5800   90.0850   65.9100 N   0  0  0  0  0  0
   14.3440   90.1910   67.3780 N   0  0  0  0  0  0
   12.7260   85.0020   70.6320 N   0  0  0  0  0  0
   13.9680   85.2720   71.3340 C   0  0  2  0  0  0
   14.7020   86.4520   70.7260 C   0  0  0  0  0  0
   14.8290   86.5200   69.5130 O   0  0  0  0  0  0
   14.8800   84.0470   71.2970 C   0  0  0  0  0  0
   14.3240   82.7110   71.7740 C   0  0  0  0  0  0
   15.2290   81.5960   71.3390 C   0  0  0  0  0  0
   14.1660   82.7330   73.2730 C   0  0  0  0  0  0
   15.1870   87.3620   71.5700 N   0  0  0  0  0  0
   15.9010   88.5620   71.1240 C   0  0  2  0  0  0
   17.3950   88.3590   71.2860 C   0  0  0  0  0  0
   17.8740   88.0350   72.3780 O   0  0  0  0  0  0
   15.4650   89.7920   71.9460 C   0  0  0  0  0  0
   15.7990   91.1320   71.2570 C   0  0  0  0  0  0
   16.8730   91.2630   70.6180 O   0  0  0  0  0  0
   15.0280   92.1160   71.3080 O   0  0  0  0  0  0
   18.1470   88.5720   70.2120 N   0  0  0  0  0  0
   19.5770   88.3250   70.2880 C   0  0  2  0  0  0
   20.5110   89.4820   69.8830 C   0  0  0  0  0  0
   21.5710   89.6430   70.4910 O   0  0  0  0  0  0
   19.9110   87.0620   69.4910 C   0  0  0  0  0  0
   18.7850   86.0610   69.2080 C   0  0  0  0  0  0
   19.3020   84.9850   68.2970 C   0  0  0  0  0  0
   18.2430   85.4240   70.4600 C   0  0  0  0  0  0
   20.1200   90.2800   68.8830 N   0  0  0  0  0  0
   20.9800   91.3470   68.3180 C   0  0  2  0  0  0
   22.2760   91.5980   69.1120 C   0  0  0  0  0  0
   22.3040   92.3270   70.1050 O   0  0  0  0  0  0
   20.2140   92.6730   68.0480 C   0  0  0  0  0  0
   20.7370   93.4580   66.8240 C   0  0  0  0  0  0
   20.6060   94.9970   66.8940 C   0  0  0  0  0  0
   20.6170   95.5890   68.0050 O   0  0  0  0  0  0
   20.5200   95.6320   65.8120 O   0  0  0  0  0  0
    7.9230   85.0129   80.7385 H   0  0  0  0  0  0
    9.1523   84.4128   79.5744 H   0  0  0  0  0  0
    6.8909   83.0829   79.9511 H   0  0  0  0  0  0
    5.6766   84.2801   77.6536 H   0  0  0  0  0  0
    5.1563   84.6255   79.3379 H   0  0  0  0  0  0
    6.4350   86.3935   77.4741 H   0  0  0  0  0  0
    5.9698   86.7192   79.1783 H   0  0  0  0  0  0
    8.2898   86.9064   79.5663 H   0  0  0  0  0  0
    8.7058   86.0257   78.0570 H   0  0  0  0  0  0
    6.5755   81.4024   78.6317 H   0  0  0  0  0  0
    8.8207   80.8421   76.8581 H   0  0  0  0  0  0
    6.5651   79.2906   75.9824 H   0  0  0  0  0  0
    8.8771   78.6127   76.0470 H   0  0  0  0  0  0
    7.7896   77.4820   76.9220 H   0  0  0  0  0  0
    8.8264   78.6242   77.8425 H   0  0  0  0  0  0
    5.4333   80.1180   78.0579 H   0  0  0  0  0  0
    6.8116   79.4974   79.0283 H   0  0  0  0  0  0
    5.7749   78.3552   78.1078 H   0  0  0  0  0  0
    5.2734   81.3765   76.0897 H   0  0  0  0  0  0
    5.5285   81.8156   73.2922 H   0  0  0  0  0  0
    3.4750   81.9940   74.9035 H   0  0  0  0  0  0
    3.8999   83.7367   74.9983 H   0  0  0  0  0  0
    3.5198   83.9969   72.6169 H   0  0  0  0  0  0
    3.2059   82.2367   72.4445 H   0  0  0  0  0  0
    1.0451   82.5666   72.9643 H   0  0  0  0  0  0
    1.5194   83.2565   74.5536 H   0  0  0  0  0  0
    1.2420   84.7950   71.9203 H   0  0  0  0  0  0
    0.1061   84.8362   73.3112 H   0  0  0  0  0  0
    1.5044   86.8064   73.2349 H   0  0  0  0  0  0
    2.9793   85.7837   73.3098 H   0  0  0  0  0  0
    1.8434   85.8249   74.7007 H   0  0  0  0  0  0
    7.5328   82.7314   72.6294 H   0  0  0  0  0  0
    7.4366   85.6193   72.5791 H   0  0  0  0  0  0
    9.1070   86.3656   74.1246 H   0  0  0  0  0  0
    8.3582   85.0198   75.0492 H   0  0  0  0  0  0
   10.2412   83.5934   74.0156 H   0  0  0  0  0  0
   11.0235   85.1803   73.7051 H   0  0  0  0  0  0
   10.6699   85.7383   76.1254 H   0  0  0  0  0  0
   10.1031   84.0516   76.3714 H   0  0  0  0  0  0
   12.9387   84.8180   75.4355 H   0  0  0  0  0  0
   10.4831   82.7639   77.1657 H   0  0  0  0  0  0
   11.8315   81.6019   77.8449 H   0  0  0  0  0  0
   14.5221   83.4941   76.2267 H   0  0  0  0  0  0
    8.7685   86.5100   70.9884 H   0  0  0  0  0  0
   10.4431   84.4000   69.6425 H   0  0  0  0  0  0
   10.5480   85.7812   67.8509 H   0  0  0  0  0  0
    9.0630   86.4394   68.6179 H   0  0  0  0  0  0
    9.9812   88.3798   69.0009 H   0  0  0  0  0  0
   11.5439   87.6643   69.5228 H   0  0  0  0  0  0
   11.5442   87.1442   66.8381 H   0  0  0  0  0  0
   10.6977   88.7260   66.9263 H   0  0  0  0  0  0
   13.2278   88.4107   68.6306 H   0  0  0  0  0  0
   11.6181   89.6442   65.6093 H   0  0  0  0  0  0
   13.0386   90.8749   65.2970 H   0  0  0  0  0  0
   14.8440   89.8391   68.2924 H   0  0  0  0  0  0
   12.6297   84.0982   70.0124 H   0  0  0  0  0  0
   13.6596   85.5124   72.3622 H   0  0  0  0  0  0
   15.2042   83.8624   70.2622 H   0  0  0  0  0  0
   15.7610   84.2264   71.9308 H   0  0  0  0  0  0
   13.3353   82.5266   71.3286 H   0  0  0  0  0  0
   15.3236   81.6069   70.2431 H   0  0  0  0  0  0
   14.8054   80.6332   71.6609 H   0  0  0  0  0  0
   16.2214   81.7305   71.7941 H   0  0  0  0  0  0
   13.4987   83.5593   73.5593 H   0  0  0  0  0  0
   15.1500   82.8765   73.7433 H   0  0  0  0  0  0
   13.7340   81.7792   73.6102 H   0  0  0  0  0  0
   15.0317   87.1817   72.6440 H   0  0  0  0  0  0
   15.6455   88.6905   70.0618 H   0  0  0  0  0  0
   14.3767   89.7610   72.1031 H   0  0  0  0  0  0
   15.9764   89.7823   72.9198 H   0  0  0  0  0  0
   17.1083   92.2193   70.1280 H   0  0  0  0  0  0
   17.7000   88.9309   69.2732 H   0  0  0  0  0  0
   19.7145   88.2053   71.3728 H   0  0  0  0  0  0
   20.2933   87.3448   68.4991 H   0  0  0  0  0  0
   20.6764   86.4818   70.0272 H   0  0  0  0  0  0
   17.9510   86.6004   68.7353 H   0  0  0  0  0  0
   19.7002   85.4419   67.3790 H   0  0  0  0  0  0
   18.4826   84.2980   68.0390 H   0  0  0  0  0  0
   20.1019   84.4270   68.8057 H   0  0  0  0  0  0
   17.8618   86.2056   71.1336 H   0  0  0  0  0  0
   19.0453   84.8650   70.9638 H   0  0  0  0  0  0
   17.4259   84.7360   70.1972 H   0  0  0  0  0  0
   19.1099   90.1163   68.4794 H   0  0  0  0  0  0
   21.2711   90.8971   67.3573 H   0  0  0  0  0  0
   23.1957   91.1027   68.7672 H   0  0  0  0  0  0
   19.1521   92.4522   67.8645 H   0  0  0  0  0  0
   20.3052   93.3338   68.9226 H   0  0  0  0  0  0
   21.8084   93.2504   66.6858 H   0  0  0  0  0  0
   20.1843   93.1468   65.9253 H   0  0  0  0  0  0
   20.5232   96.6842   68.0456 H   0  0  0  0  0  0
  1  2  1  0  0  0
  1  7  1  0  0  0
  1 79  1  0  0  0
  1 80  1  0  0  0
  2  3  1  0  0  0
  2  5  1  0  0  0
  2 81  1  0  0  0
  3  4  2  0  0  0
  3  8  1  0  0  0
  5  6  1  0  0  0
  5 82  1  0  0  0
  5 83  1  0  0  0
  6  7  1  0  0  0
  6 84  1  0  0  0
  6 85  1  0  0  0
  7 86  1  0  0  0
  7 87  1  0  0  0
  8  9  1  0  0  0
  8 88  1  0  0  0
  9 10  1  0  0  0
  9 12  1  0  0  0
  9 89  1  0  0  0
 10 11  2  0  0  0
 10 15  1  0  0  0
 12 13  1  0  0  0
 12 14  1  0  0  0
 12 90  1  0  0  0
 13 91  1  0  0  0
 13 92  1  0  0  0
 13 93  1  0  0  0
 14 94  1  0  0  0
 14 95  1  0  0  0
 14 96  1  0  0  0
 15 16  1  0  0  0
 15 97  1  0  0  0
 16 17  1  0  0  0
 16 19  1  0  0  0
 16 98  1  0  0  0
 17 18  2  0  0  0
 17 24  1  0  0  0
 19 20  1  0  0  0
 19 99  1  0  0  0
 19100  1  0  0  0
 20 21  1  0  0  0
 20101  1  0  0  0
 20102  1  0  0  0
 21 22  1  0  0  0
 21103  1  0  0  0
 21104  1  0  0  0
 22 23  1  0  0  0
 22105  1  0  0  0
 22106  1  0  0  0
 23107  1  0  0  0
 23108  1  0  0  0
 23109  1  0  0  0
 24 25  1  0  0  0
 24110  1  0  0  0
 25 26  1  0  0  0
 25 28  1  0  0  0
 25111  1  0  0  0
 26 27  2  0  0  0
 26 35  1  0  0  0
 28 29  1  0  0  0
 28112  1  0  0  0
 28113  1  0  0  0
 29 30  1  0  0  0
 29114  1  0  0  0
 29115  1  0  0  0
 30 31  1  0  0  0
 30116  1  0  0  0
 30117  1  0  0  0
 31 32  1  0  0  0
 31118  1  0  0  0
 32 33  1  0  0  0
 32 34  2  0  0  0
 33119  1  0  0  0
 33120  1  0  0  0
 34121  1  0  0  0
 35 36  1  0  0  0
 35122  1  0  0  0
 36 37  1  0  0  0
 36 39  1  0  0  0
 36123  1  0  0  0
 37 38  2  0  0  0
 37 46  1  0  0  0
 39 40  1  0  0  0
 39124  1  0  0  0
 39125  1  0  0  0
 40 41  1  0  0  0
 40126  1  0  0  0
 40127  1  0  0  0
 41 42  1  0  0  0
 41128  1  0  0  0
 41129  1  0  0  0
 42 43  1  0  0  0
 42130  1  0  0  0
 43 44  1  0  0  0
 43 45  2  0  0  0
 44131  1  0  0  0
 44132  1  0  0  0
 45133  1  0  0  0
 46 47  1  0  0  0
 46134  1  0  0  0
 47 48  1  0  0  0
 47 50  1  0  0  0
 47135  1  0  0  0
 48 49  2  0  0  0
 48 54  1  0  0  0
 50 51  1  0  0  0
 50136  1  0  0  0
 50137  1  0  0  0
 51 52  1  0  0  0
 51 53  1  0  0  0
 51138  1  0  0  0
 52139  1  0  0  0
 52140  1  0  0  0
 52141  1  0  0  0
 53142  1  0  0  0
 53143  1  0  0  0
 53144  1  0  0  0
 54 55  1  0  0  0
 54145  1  0  0  0
 55 56  1  0  0  0
 55 58  1  0  0  0
 55146  1  0  0  0
 56 57  2  0  0  0
 56 62  1  0  0  0
 58 59  1  0  0  0
 58147  1  0  0  0
 58148  1  0  0  0
 59 60  1  0  0  0
 59 61  2  0  0  0
 60149  1  0  0  0
 62 63  1  0  0  0
 62150  1  0  0  0
 63 64  1  0  0  0
 63 66  1  0  0  0
 63151  1  0  0  0
 64 65  2  0  0  0
 64 70  1  0  0  0
 66 67  1  0  0  0
 66152  1  0  0  0
 66153  1  0  0  0
 67 68  1  0  0  0
 67 69  1  0  0  0
 67154  1  0  0  0
 68155  1  0  0  0
 68156  1  0  0  0
 68157  1  0  0  0
 69158  1  0  0  0
 69159  1  0  0  0
 69160  1  0  0  0
 70 71  1  0  0  0
 70161  1  0  0  0
 71 72  1  0  0  0
 71 74  1  0  0  0
 71162  1  0  0  0
 72 73  2  0  0  0
 72163  1  0  0  0
 74 75  1  0  0  0
 74164  1  0  0  0
 74165  1  0  0  0
 75 76  1  0  0  0
 75166  1  0  0  0
 75167  1  0  0  0
 76 77  1  0  0  0
 76 78  2  0  0  0
 77168  1  0  0  0
M  CHG  2   1   1  23   1
M  END
> <s_m_source_file>
../1h24_ligand.sdf

> <i_m_source_file_index>
1

> <s_epik_input>
W0NIMl0xW0NIMl1bQ0gyXVtOSDIrXVtDQEBIXTFDKD1PKVtOSF1bQ0BASF0oW0NIXShbQ0gzXSlbQ0gzXSlDKD1PKVtOSF1bQ0BASF0oW0NIMl1bQ0gyXVtDSDJdW0NIMl1bTkgzK10pQyg9TylbTkhdW0NAQEhdKFtDSDJdW0NIMl1bQ0gyXVtOSF0vQyhbTkgyXSk9TlxbSF0pQyg9TylbTkhdW0NAQEhdKFtDSDJdW0NIMl1bQ0gyXVtOSF0vQyhbTkgyXSk9TlxbSF0pQyg9TylbTkhdW0NAQEhdKFtDSDJdW0NIXShbQ0gzXSlbQ0gzXSlDKD1PKVtOSF1bQ0BASF0oW0NIMl1DKD1PKVtPSF0pQyg9TylbTkhdW0NAQEhdKFtDSDJdW0NIXShbQ0gzXSlbQ0gzXSlDKD1PKVtOSF1bQ0BIXShbQ0hdPU8pW0NIMl1bQ0gyXUMoPU8pW09IXQ==

> <s_epik_cmdline>
J2VwaWtfYXBwJywgJy1pbWFlJywgJ2xpZ2FuZF9wcm8ubWFlJywgJy1vbWFlJywgJ2xpZ2FuZF9wcmVwLm1hZScsICctbXMnLCAnMScsICctcGgnLCAnNycsICctcGh0JywgJzAuNScsICctbnQn

> <s_epik_pKa_notes>
Molecule size exceeds maximum supported for generating protonation states

> <s_epik_Chemistry_Notes>
This compound has an imine and may undergo hydrolysis.

$$$$
