1h25_ligand
                    3D
 Schrodinger Suite 2020-3.
192194  0  0  1  0            999 V2000
    2.2980   82.3260   78.5900 N   0  3  0  0  0  0
    3.3010   81.9780   79.6220 C   0  0  2  0  0  0
    4.7360   82.2950   79.2220 C   0  0  0  0  0  0
    5.0630   82.3620   78.0330 O   0  0  0  0  0  0
    3.1830   80.4460   79.7210 C   0  0  0  0  0  0
    2.0790   79.9990   78.7390 C   0  0  0  0  0  0
    1.8550   81.1410   77.8240 C   0  0  0  0  0  0
    5.5840   82.4580   80.2430 N   0  0  0  0  0  0
    7.0400   82.6110   80.1110 C   0  0  2  0  0  0
    7.6900   81.8770   78.9210 C   0  0  0  0  0  0
    8.6980   82.3180   78.3690 O   0  0  0  0  0  0
    7.6910   82.0350   81.3710 C   0  0  0  0  0  0
    7.9510   83.0050   82.5080 C   0  0  0  0  0  0
    8.5900   82.2600   83.6860 C   0  0  0  0  0  0
    9.8740   82.9630   84.1280 C   0  0  0  0  0  0
   10.5410   82.3030   85.3000 N   0  3  0  0  0  0
    7.2100   80.6900   78.6080 N   0  0  0  0  0  0
    7.7890   79.9330   77.5080 C   0  0  2  0  0  0
    7.7030   80.7080   76.2140 C   0  0  0  0  0  0
    8.6810   81.0590   75.6160 O   0  0  0  0  0  0
    6.9030   78.6880   77.4650 C   0  0  0  0  0  0
    6.4590   78.5330   78.8910 C   0  0  0  0  0  0
    6.1830   79.9210   79.3300 C   0  0  0  0  0  0
    6.4980   81.0100   75.7880 N   0  0  0  0  0  0
    6.3400   81.7210   74.5350 C   0  0  2  0  0  0
    7.0110   83.0910   74.5270 C   0  0  0  0  0  0
    6.7610   83.9320   75.3940 O   0  0  0  0  0  0
    4.8680   81.8960   74.2050 C   0  0  0  0  0  0
    4.4200   83.2670   74.6560 C   0  0  0  0  0  0
    3.6380   83.9630   73.5260 C   0  0  0  0  0  0
    3.6070   83.0910   75.8940 C   0  0  0  0  0  0
    7.8700   83.2990   73.5370 N   0  0  0  0  0  0
    8.5460   84.5720   73.3400 C   0  0  2  0  0  0
    9.4540   84.5310   72.1440 C   0  0  0  0  0  0
   10.0490   83.5050   71.8400 O   0  0  0  0  0  0
    9.3680   84.9790   74.5550 C   0  0  0  0  0  0
    9.9610   83.8700   75.3390 C   0  0  0  0  0  0
   10.6630   84.4960   76.5200 C   0  0  0  0  0  0
   12.0200   85.0800   76.0540 C   0  0  0  0  0  0
   12.6820   86.1200   76.9200 N   0  3  0  0  0  0
    9.5510   85.6560   71.4630 N   0  0  0  0  0  0
   10.4610   85.7530   70.3600 C   0  0  2  0  0  0
   11.8180   85.9470   70.9830 C   0  0  0  0  0  0
   11.9880   86.8040   71.8570 O   0  0  0  0  0  0
   10.1230   86.9450   69.4830 C   0  0  0  0  0  0
   11.1950   87.2950   68.4910 C   0  0  0  0  0  0
   10.7890   88.5520   67.7910 C   0  0  0  0  0  0
   11.5470   88.7590   66.5090 C   0  0  0  0  0  0
   10.7130   89.6370   65.6570 N   0  3  0  0  0  0
   12.7790   85.1310   70.5590 N   0  0  0  0  0  0
   14.1310   85.2360   71.0820 C   0  0  2  0  0  0
   14.8490   86.3140   70.3220 C   0  0  0  0  0  0
   15.0400   86.2040   69.1120 O   0  0  0  0  0  0
   14.8720   83.9240   70.9220 C   0  0  0  0  0  0
   14.3700   82.8320   71.8440 C   0  0  0  0  0  0
   15.2160   81.5640   71.6450 C   0  0  0  0  0  0
   14.4050   83.3390   73.2950 C   0  0  0  0  0  0
   15.2370   87.3540   71.0490 N   0  0  0  0  0  0
   15.9620   88.4770   70.4790 C   0  0  2  0  0  0
   17.4480   88.3330   70.7890 C   0  0  0  0  0  0
   17.8270   88.0580   71.9390 O   0  0  0  0  0  0
   15.4190   89.7950   71.0430 C   0  0  0  0  0  0
   13.8910   89.9420   70.8900 C   0  0  0  0  0  0
   13.4190   91.3790   70.8230 C   0  0  0  0  0  0
   12.0230   91.4900   70.3970 N   0  0  0  0  0  0
   11.6460   91.6810   69.1330 C   0  0  0  0  0  0
   12.5610   91.7620   68.1710 N   0  0  0  0  0  0
   10.3570   91.7800   68.8290 N   0  0  0  0  0  0
   18.2810   88.5200   69.7650 N   0  0  0  0  0  0
   19.7290   88.3740   69.9120 C   0  0  2  0  0  0
   20.5600   89.6060   69.5460 C   0  0  0  0  0  0
   21.6630   89.7770   70.0700 O   0  0  0  0  0  0
   20.2070   87.1660   69.1040 C   0  0  0  0  0  0
   19.6140   85.8780   69.5740 C   0  0  0  0  0  0
   18.5790   85.2830   68.8800 C   0  0  0  0  0  0
   20.0770   85.2780   70.7380 C   0  0  0  0  0  0
   18.0450   84.1130   69.3210 C   0  0  0  0  0  0
   19.5410   84.1090   71.1800 C   0  0  0  0  0  0
   18.5200   83.5280   70.4780 C   0  0  0  0  0  0
   20.0490   90.4480   68.6440 N   0  0  0  0  0  0
   20.7650   91.6640   68.2390 C   0  0  2  0  0  0
   21.0790   92.5590   69.4470 C   0  0  0  0  0  0
   22.1820   93.1240   69.5610 O   0  0  0  0  0  0
   19.9400   92.4520   67.2310 C   0  0  0  0  0  0
   18.8450   91.6130   66.6000 C   0  0  0  0  0  0
   19.1120   90.9420   65.5680 O   0  0  0  0  0  0
   17.6800   91.5660   67.0740 O   0  0  0  0  0  0
   20.2390   92.7450   70.3470 O   0  0  0  0  0  0
    1.4156   82.7722   79.0720 H   0  0  0  0  0  0
    2.7340   83.0476   77.8835 H   0  0  0  0  0  0
    3.0879   82.5664   80.5266 H   0  0  0  0  0  0
    4.1452   79.9860   79.4517 H   0  0  0  0  0  0
    2.9175   80.1645   80.7507 H   0  0  0  0  0  0
    2.4173   79.1096   78.1871 H   0  0  0  0  0  0
    1.1649   79.7562   79.3007 H   0  0  0  0  0  0
    0.7929   81.2513   77.5598 H   0  0  0  0  0  0
    2.4541   81.0530   76.9057 H   0  0  0  0  0  0
    5.1174   82.4732   81.2390 H   0  0  0  0  0  0
    7.1548   83.6947   79.9614 H   0  0  0  0  0  0
    7.0457   81.2492   81.7906 H   0  0  0  0  0  0
    8.6710   81.6064   81.1142 H   0  0  0  0  0  0
    8.6320   83.7978   82.1651 H   0  0  0  0  0  0
    7.0002   83.4532   82.8323 H   0  0  0  0  0  0
    7.8856   82.2365   84.5305 H   0  0  0  0  0  0
    8.8317   81.2310   83.3814 H   0  0  0  0  0  0
   10.5945   82.9672   83.2968 H   0  0  0  0  0  0
    9.6436   83.9986   84.4187 H   0  0  0  0  0  0
   11.4535   82.8582   85.5630 H   0  0  0  0  0  0
   10.8045   81.2680   85.0368 H   0  0  0  0  0  0
    9.8536   82.2993   86.1588 H   0  0  0  0  0  0
    8.8586   79.7351   77.6714 H   0  0  0  0  0  0
    6.0611   78.8607   76.7784 H   0  0  0  0  0  0
    7.4936   77.8296   77.1124 H   0  0  0  0  0  0
    5.5609   77.8990   78.9285 H   0  0  0  0  0  0
    7.2635   78.0642   79.4766 H   0  0  0  0  0  0
    6.3138   80.0614   80.4131 H   0  0  0  0  0  0
    5.1843   80.2734   79.0326 H   0  0  0  0  0  0
    5.6120   80.7270   76.3753 H   0  0  0  0  0  0
    6.8470   81.0634   73.8135 H   0  0  0  0  0  0
    4.7214   81.7973   73.1193 H   0  0  0  0  0  0
    4.2813   81.1250   74.7258 H   0  0  0  0  0  0
    5.2790   83.9043   74.9129 H   0  0  0  0  0  0
    4.2845   84.0655   72.6419 H   0  0  0  0  0  0
    3.3164   84.9596   73.8626 H   0  0  0  0  0  0
    2.7548   83.3609   73.2665 H   0  0  0  0  0  0
    4.2139   82.5910   76.6632 H   0  0  0  0  0  0
    2.7230   82.4767   75.6678 H   0  0  0  0  0  0
    3.2846   84.0755   76.2639 H   0  0  0  0  0  0
    8.0632   82.4616   72.8504 H   0  0  0  0  0  0
    7.7221   85.2810   73.1712 H   0  0  0  0  0  0
   10.2097   85.6100   74.2336 H   0  0  0  0  0  0
    8.7336   85.5427   75.2548 H   0  0  0  0  0  0
    9.1635   83.1907   75.6744 H   0  0  0  0  0  0
   10.6737   83.3164   74.7100 H   0  0  0  0  0  0
   10.0374   85.3004   76.9342 H   0  0  0  0  0  0
   10.8354   83.7313   77.2917 H   0  0  0  0  0  0
   12.7584   84.2691   75.9693 H   0  0  0  0  0  0
   11.8937   85.5646   75.0746 H   0  0  0  0  0  0
   13.6296   86.4331   76.4574 H   0  0  0  0  0  0
   12.8822   85.6953   77.9148 H   0  0  0  0  0  0
   12.0175   86.9908   77.0200 H   0  0  0  0  0  0
    8.9318   86.5210   71.7429 H   0  0  0  0  0  0
   10.3835   84.8366   69.7564 H   0  0  0  0  0  0
    9.2078   86.7317   68.9112 H   0  0  0  0  0  0
    9.9625   87.8312   70.1146 H   0  0  0  0  0  0
   12.1479   87.4466   69.0192 H   0  0  0  0  0  0
   11.3045   86.4758   67.7651 H   0  0  0  0  0  0
    9.7166   88.5076   67.5502 H   0  0  0  0  0  0
   10.9825   89.4149   68.4452 H   0  0  0  0  0  0
   12.5155   89.2324   66.7280 H   0  0  0  0  0  0
   11.7157   87.7873   66.0218 H   0  0  0  0  0  0
   11.2283   89.8184   64.7023 H   0  0  0  0  0  0
   10.5455   90.5950   66.1710 H   0  0  0  0  0  0
    9.7456   89.1499   65.4648 H   0  0  0  0  0  0
   12.5396   84.3693   69.8024 H   0  0  0  0  0  0
   14.0518   85.4869   72.1501 H   0  0  0  0  0  0
   14.7581   83.5622   69.8895 H   0  0  0  0  0  0
   15.9390   84.0764   71.1415 H   0  0  0  0  0  0
   13.3279   82.5826   71.5953 H   0  0  0  0  0  0
   15.1566   81.2448   70.5940 H   0  0  0  0  0  0
   14.8334   80.7624   72.2939 H   0  0  0  0  0  0
   16.2634   81.7775   71.9047 H   0  0  0  0  0  0
   13.7861   84.2442   73.3821 H   0  0  0  0  0  0
   15.4419   83.5753   73.5759 H   0  0  0  0  0  0
   14.0120   82.5602   73.9651 H   0  0  0  0  0  0
   14.9904   87.3456   72.1210 H   0  0  0  0  0  0
   15.7979   88.4386   69.3920 H   0  0  0  0  0  0
   15.6516   89.8580   72.1163 H   0  0  0  0  0  0
   15.8870   90.6397   70.5163 H   0  0  0  0  0  0
   13.5662   89.4481   69.9623 H   0  0  0  0  0  0
   13.3896   89.4735   71.7497 H   0  0  0  0  0  0
   13.5078   91.8408   71.8174 H   0  0  0  0  0  0
   14.0382   91.9352   70.1038 H   0  0  0  0  0  0
   11.2141   91.4158   71.1387 H   0  0  0  0  0  0
   13.6294   91.6803   68.4198 H   0  0  0  0  0  0
   12.2493   91.9106   67.1266 H   0  0  0  0  0  0
    9.5981   91.7134   69.6225 H   0  0  0  0  0  0
   17.8518   88.7912   68.7892 H   0  0  0  0  0  0
   19.8432   88.2344   70.9971 H   0  0  0  0  0  0
   19.9272   87.2971   68.0483 H   0  0  0  0  0  0
   21.3006   87.0798   69.1855 H   0  0  0  0  0  0
   18.1893   85.7523   67.9767 H   0  0  0  0  0  0
   20.8799   85.7500   71.3042 H   0  0  0  0  0  0
   17.2409   83.6362   68.7605 H   0  0  0  0  0  0
   19.9217   83.6384   72.0865 H   0  0  0  0  0  0
   18.0788   82.5972   70.8346 H   0  0  0  0  0  0
   19.0692   90.2138   68.2023 H   0  0  0  0  0  0
   21.6987   91.3086   67.7786 H   0  0  0  0  0  0
   19.4657   93.3075   67.7342 H   0  0  0  0  0  0
   20.5952   92.8171   66.4263 H   0  0  0  0  0  0
   18.3323   90.3270   65.0949 H   0  0  0  0  0  0
   20.4844   93.3899   71.2037 H   0  0  0  0  0  0
  1  2  1  0  0  0
  1  7  1  0  0  0
  1 89  1  0  0  0
  1 90  1  0  0  0
  2  3  1  0  0  0
  2  5  1  0  0  0
  2 91  1  0  0  0
  3  4  2  0  0  0
  3  8  1  0  0  0
  5  6  1  0  0  0
  5 92  1  0  0  0
  5 93  1  0  0  0
  6  7  1  0  0  0
  6 94  1  0  0  0
  6 95  1  0  0  0
  7 96  1  0  0  0
  7 97  1  0  0  0
  8  9  1  0  0  0
  8 98  1  0  0  0
  9 10  1  0  0  0
  9 12  1  0  0  0
  9 99  1  0  0  0
 10 11  2  0  0  0
 10 17  1  0  0  0
 12 13  1  0  0  0
 12100  1  0  0  0
 12101  1  0  0  0
 13 14  1  0  0  0
 13102  1  0  0  0
 13103  1  0  0  0
 14 15  1  0  0  0
 14104  1  0  0  0
 14105  1  0  0  0
 15 16  1  0  0  0
 15106  1  0  0  0
 15107  1  0  0  0
 16108  1  0  0  0
 16109  1  0  0  0
 16110  1  0  0  0
 17 18  1  0  0  0
 17 23  1  0  0  0
 18 19  1  0  0  0
 18 21  1  0  0  0
 18111  1  0  0  0
 19 20  2  0  0  0
 19 24  1  0  0  0
 21 22  1  0  0  0
 21112  1  0  0  0
 21113  1  0  0  0
 22 23  1  0  0  0
 22114  1  0  0  0
 22115  1  0  0  0
 23116  1  0  0  0
 23117  1  0  0  0
 24 25  1  0  0  0
 24118  1  0  0  0
 25 26  1  0  0  0
 25 28  1  0  0  0
 25119  1  0  0  0
 26 27  2  0  0  0
 26 32  1  0  0  0
 28 29  1  0  0  0
 28120  1  0  0  0
 28121  1  0  0  0
 29 30  1  0  0  0
 29 31  1  0  0  0
 29122  1  0  0  0
 30123  1  0  0  0
 30124  1  0  0  0
 30125  1  0  0  0
 31126  1  0  0  0
 31127  1  0  0  0
 31128  1  0  0  0
 32 33  1  0  0  0
 32129  1  0  0  0
 33 34  1  0  0  0
 33 36  1  0  0  0
 33130  1  0  0  0
 34 35  2  0  0  0
 34 41  1  0  0  0
 36 37  1  0  0  0
 36131  1  0  0  0
 36132  1  0  0  0
 37 38  1  0  0  0
 37133  1  0  0  0
 37134  1  0  0  0
 38 39  1  0  0  0
 38135  1  0  0  0
 38136  1  0  0  0
 39 40  1  0  0  0
 39137  1  0  0  0
 39138  1  0  0  0
 40139  1  0  0  0
 40140  1  0  0  0
 40141  1  0  0  0
 41 42  1  0  0  0
 41142  1  0  0  0
 42 43  1  0  0  0
 42 45  1  0  0  0
 42143  1  0  0  0
 43 44  2  0  0  0
 43 50  1  0  0  0
 45 46  1  0  0  0
 45144  1  0  0  0
 45145  1  0  0  0
 46 47  1  0  0  0
 46146  1  0  0  0
 46147  1  0  0  0
 47 48  1  0  0  0
 47148  1  0  0  0
 47149  1  0  0  0
 48 49  1  0  0  0
 48150  1  0  0  0
 48151  1  0  0  0
 49152  1  0  0  0
 49153  1  0  0  0
 49154  1  0  0  0
 50 51  1  0  0  0
 50155  1  0  0  0
 51 52  1  0  0  0
 51 54  1  0  0  0
 51156  1  0  0  0
 52 53  2  0  0  0
 52 58  1  0  0  0
 54 55  1  0  0  0
 54157  1  0  0  0
 54158  1  0  0  0
 55 56  1  0  0  0
 55 57  1  0  0  0
 55159  1  0  0  0
 56160  1  0  0  0
 56161  1  0  0  0
 56162  1  0  0  0
 57163  1  0  0  0
 57164  1  0  0  0
 57165  1  0  0  0
 58 59  1  0  0  0
 58166  1  0  0  0
 59 60  1  0  0  0
 59 62  1  0  0  0
 59167  1  0  0  0
 60 61  2  0  0  0
 60 69  1  0  0  0
 62 63  1  0  0  0
 62168  1  0  0  0
 62169  1  0  0  0
 63 64  1  0  0  0
 63170  1  0  0  0
 63171  1  0  0  0
 64 65  1  0  0  0
 64172  1  0  0  0
 64173  1  0  0  0
 65 66  1  0  0  0
 65174  1  0  0  0
 66 67  1  0  0  0
 66 68  2  0  0  0
 67175  1  0  0  0
 67176  1  0  0  0
 68177  1  0  0  0
 69 70  1  0  0  0
 69178  1  0  0  0
 70 71  1  0  0  0
 70 73  1  0  0  0
 70179  1  0  0  0
 71 72  2  0  0  0
 71 80  1  0  0  0
 73 74  1  0  0  0
 73180  1  0  0  0
 73181  1  0  0  0
 74 75  2  0  0  0
 74 76  1  0  0  0
 75 77  1  0  0  0
 75182  1  0  0  0
 76 78  2  0  0  0
 76183  1  0  0  0
 77 79  2  0  0  0
 77184  1  0  0  0
 78 79  1  0  0  0
 78185  1  0  0  0
 79186  1  0  0  0
 80 81  1  0  0  0
 80187  1  0  0  0
 81 82  1  0  0  0
 81 84  1  0  0  0
 81188  1  0  0  0
 82 83  2  0  0  0
 82 88  1  0  0  0
 84 85  1  0  0  0
 84189  1  0  0  0
 84190  1  0  0  0
 85 86  1  0  0  0
 85 87  2  0  0  0
 86191  1  0  0  0
 88192  1  0  0  0
M  CHG  4   1   1  16   1  40   1  49   1
M  END
> <s_m_source_file>
../1h25_ligand.sdf

> <i_m_source_file_index>
1

> <s_epik_input>
W0NIMl0xW0NIMl1bQ0gyXVtOSDIrXVtDQEBIXTFDKD1PKVtOSF1bQ0BASF0oW0NIMl1bQ0gyXVtDSDJdW0NIMl1bTkgzK10pQyg9TylOMltDQEBIXShbQ0gyXVtDSDJdW0NIMl0yKUMoPU8pW05IXVtDQEBIXShbQ0gyXVtDSF0oW0NIM10pW0NIM10pQyg9TylbTkhdW0NAQEhdKFtDSDJdW0NIMl1bQ0gyXVtDSDJdW05IMytdKUMoPU8pW05IXVtDQEBIXShbQ0gyXVtDSDJdW0NIMl1bQ0gyXVtOSDMrXSlDKD1PKVtOSF1bQ0BASF0oW0NIMl1bQ0hdKFtDSDNdKVtDSDNdKUMoPU8pW05IXVtDQEBIXShbQ0gyXVtDSDJdW0NIMl1bTkhdL0MoW05IMl0pPU5cW0hdKUMoPU8pW05IXVtDQEhdKEMoPU8pW05IXVtDQEhdKEMoPU8pW09IXSlbQ0gyXUMoPU8pW09IXSlbQ0gyXWMzW2NIXVtjSF1bY0hdW2NIXVtjSF0z

> <s_epik_cmdline>
J2VwaWtfYXBwJywgJy1pbWFlJywgJ2xpZ2FuZF9wcm8ubWFlJywgJy1vbWFlJywgJ2xpZ2FuZF9wcmVwLm1hZScsICctbXMnLCAnMScsICctcGgnLCAnNycsICctcGh0JywgJzAuNScsICctbnQn

> <s_epik_pKa_notes>
Molecule size exceeds maximum supported for generating protonation states

> <s_epik_Chemistry_Notes>
This compound has an imine and may undergo hydrolysis.

$$$$
