1h26_ligand
                    3D
 Schrodinger Suite 2020-3.
176177  0  0  1  0            999 V2000
    7.2810  151.8910   80.1680 N   0  3  0  0  0  0
    6.5350  150.9810   79.2550 C   0  0  2  0  0  0
    7.5120  150.2250   78.3230 C   0  0  0  0  0  0
    8.4960  150.7950   77.8100 O   0  0  0  0  0  0
    5.5030  151.7840   78.4480 C   0  0  0  0  0  0
    4.7490  150.9850   77.5400 O   0  0  0  0  0  0
    7.2900  148.9150   78.2060 N   0  0  0  0  0  0
    8.0160  148.0820   77.2610 C   0  0  2  0  0  0
    7.6620  148.2910   75.8010 C   0  0  0  0  0  0
    8.3210  147.7280   74.9520 O   0  0  0  0  0  0
    7.8430  146.6020   77.6050 C   0  0  0  0  0  0
    6.8490  146.2870   78.7260 C   0  0  0  0  0  0
    7.4970  145.7600   80.0140 C   0  0  0  0  0  0
    6.7000  144.7300   80.6680 N   0  0  0  0  0  0
    7.1670  143.9070   81.6050 C   0  0  0  0  0  0
    8.4360  143.9880   81.9790 N   0  0  0  0  0  0
    6.3740  142.9930   82.1660 N   0  0  0  0  0  0
    6.6240  149.0650   75.5050 N   0  0  0  0  0  0
    6.2410  149.3310   74.1200 C   0  0  2  0  0  0
    7.0760  150.4310   73.4320 C   0  0  0  0  0  0
    6.6450  151.0080   72.4380 O   0  0  0  0  0  0
    4.7600  149.7070   74.0340 C   0  0  0  0  0  0
    3.8550  148.7900   74.7990 C   0  0  0  0  0  0
    2.7840  148.1420   74.2160 N   0  0  0  0  0  0
    3.8280  148.4460   76.1120 C   0  0  0  0  0  0
    2.1470  147.4280   75.1310 C   0  0  0  0  0  0
    2.7590  147.5980   76.2910 N   0  0  0  0  0  0
    8.2860  150.6850   73.9120 N   0  0  0  0  0  0
    9.1030  151.7770   73.3770 C   0  0  2  0  0  0
    9.6530  151.5580   71.9450 C   0  0  0  0  0  0
    9.9040  150.4270   71.5190 O   0  0  0  0  0  0
   10.2470  152.1010   74.3330 C   0  0  0  0  0  0
   11.0460  150.8970   74.8130 C   0  0  0  0  0  0
   12.3150  151.3200   75.5790 C   0  0  0  0  0  0
   13.1630  150.0950   75.9660 C   0  0  0  0  0  0
   14.6270  150.4080   76.1530 N   0  3  0  0  0  0
    9.8030  152.6620   71.2070 N   0  0  0  0  0  0
   10.6980  152.7150   70.0870 C   0  0  2  0  0  0
   12.0140  152.9570   70.7220 C   0  0  0  0  0  0
   12.1120  153.7910   71.5980 O   0  0  0  0  0  0
   10.3660  153.8790   69.1660 C   0  0  0  0  0  0
   11.4530  154.1540   68.1440 C   0  0  0  0  0  0
   11.2320  155.4750   67.4160 C   0  0  0  0  0  0
   12.2720  155.7340   66.3500 C   0  0  0  0  0  0
   11.6590  156.5980   65.2730 N   0  3  0  0  0  0
   13.0250  152.1980   70.3290 N   0  0  0  0  0  0
   14.3470  152.4470   70.8600 C   0  0  2  0  0  0
   14.9840  153.6230   70.1560 C   0  0  0  0  0  0
   15.0460  153.6670   68.9220 O   0  0  0  0  0  0
   15.2160  151.2190   70.7380 C   0  0  0  0  0  0
   14.6480  150.0010   71.4560 C   0  0  0  0  0  0
   15.6080  148.8370   71.2110 C   0  0  0  0  0  0
   14.4710  150.3450   72.9520 C   0  0  0  0  0  0
   15.4070  154.5910   70.9530 N   0  0  0  0  0  0
   16.0980  155.7710   70.4460 C   0  0  2  0  0  0
   17.5720  155.6060   70.6640 C   0  0  0  0  0  0
   18.0360  155.6130   71.7890 O   0  0  0  0  0  0
   15.6470  157.0090   71.2200 C   0  0  0  0  0  0
   14.1640  157.1580   71.2650 C   0  0  0  0  0  0
   13.5810  157.1390   69.6180 S   0  0  0  0  0  0
   14.0680  158.8160   69.0420 C   0  0  0  0  0  0
   18.3250  155.4060   69.6080 N   0  0  0  0  0  0
   19.7220  155.1200   69.8220 C   0  0  2  0  0  0
   20.5400  156.3720   69.6120 C   0  0  0  0  0  0
   21.7600  156.3710   69.7940 O   0  0  0  0  0  0
   20.1790  154.0090   68.8930 C   0  0  0  0  0  0
   19.7360  152.6700   69.3140 C   0  0  0  0  0  0
   18.8600  151.9630   68.5400 C   0  0  0  0  0  0
   20.2220  152.1010   70.4760 C   0  0  0  0  0  0
   18.4950  150.7040   68.8940 C   0  0  0  0  0  0
   19.8530  150.8430   70.8440 C   0  0  0  0  0  0
   18.9740  150.1510   70.0680 C   0  0  0  0  0  0
   19.8430  157.4590   69.3020 N   0  0  0  0  0  0
   20.3970  158.8110   69.4650 C   0  0  2  0  0  0
   21.3780  159.1330   68.3230 C   0  0  0  0  0  0
   21.1110  159.9280   67.4070 O   0  0  0  0  0  0
   21.0900  158.9470   70.8470 C   0  0  0  0  0  0
   20.2420  158.4390   72.0360 C   0  0  0  0  0  0
   20.4770  159.2450   73.3340 C   0  0  0  0  0  0
   19.2440  159.2170   74.2720 C   0  0  0  0  0  0
   19.3350  160.1650   75.4440 N   0  3  0  0  0  0
   22.4620  158.5510   68.2930 O   0  0  0  0  0  0
    8.0178  151.3105   80.7426 H   0  0  0  0  0  0
    6.5759  152.3753   80.8595 H   0  0  0  0  0  0
    7.8003  152.6592   79.5762 H   0  0  0  0  0  0
    6.0074  150.2503   79.8857 H   0  0  0  0  0  0
    4.7911  152.2627   79.1365 H   0  0  0  0  0  0
    6.0189  152.5564   77.8586 H   0  0  0  0  0  0
    3.9789  151.4500   76.9070 H   0  0  0  0  0  0
    6.5250  148.4684   78.8582 H   0  0  0  0  0  0
    9.0459  148.4420   77.4016 H   0  0  0  0  0  0
    7.4859  146.0587   76.7177 H   0  0  0  0  0  0
    8.8088  146.1849   77.9263 H   0  0  0  0  0  0
    6.2967  147.1999   78.9935 H   0  0  0  0  0  0
    6.1415  145.5176   78.3833 H   0  0  0  0  0  0
    8.4795  145.3250   79.7787 H   0  0  0  0  0  0
    7.6240  146.5886   80.7262 H   0  0  0  0  0  0
    5.6429  144.5963   80.3948 H   0  0  0  0  0  0
    9.0973  144.7387   81.5217 H   0  0  0  0  0  0
    5.3195  142.9186   81.8618 H   0  0  0  0  0  0
    6.7745  142.3136   82.9329 H   0  0  0  0  0  0
    6.0481  149.5096   76.3300 H   0  0  0  0  0  0
    6.4505  148.3671   73.6333 H   0  0  0  0  0  0
    4.6147  150.7195   74.4385 H   0  0  0  0  0  0
    4.4358  149.6820   72.9832 H   0  0  0  0  0  0
    4.4659  148.7149   76.9669 H   0  0  0  0  0  0
    1.2685  146.8064   74.9579 H   0  0  0  0  0  0
    8.6734  150.0569   74.7278 H   0  0  0  0  0  0
    8.3731  152.5985   73.3279 H   0  0  0  0  0  0
   10.9607  152.7744   73.8359 H   0  0  0  0  0  0
    9.8457  152.5912   75.2323 H   0  0  0  0  0  0
   10.4236  150.2884   75.4856 H   0  0  0  0  0  0
   11.3513  150.2908   73.9474 H   0  0  0  0  0  0
   12.9226  151.9822   74.9446 H   0  0  0  0  0  0
   12.0283  151.8536   76.4972 H   0  0  0  0  0  0
   12.7929  149.6776   76.9140 H   0  0  0  0  0  0
   13.0885  149.3331   75.1761 H   0  0  0  0  0  0
   15.1663  149.4892   76.4268 H   0  0  0  0  0  0
   14.7432  151.1537   76.9533 H   0  0  0  0  0  0
   15.0388  150.8093   75.2153 H   0  0  0  0  0  0
    9.2131  153.5488   71.4821 H   0  0  0  0  0  0
   10.6365  151.7801   69.5107 H   0  0  0  0  0  0
    9.4386  153.6590   68.6168 H   0  0  0  0  0  0
   10.2303  154.7924   69.7637 H   0  0  0  0  0  0
   12.4287  154.1999   68.6498 H   0  0  0  0  0  0
   11.4654  153.3477   67.3959 H   0  0  0  0  0  0
   10.2456  155.4648   66.9293 H   0  0  0  0  0  0
   11.2759  156.3035   68.1382 H   0  0  0  0  0  0
   13.1343  156.2505   66.7969 H   0  0  0  0  0  0
   12.6010  154.7771   65.9185 H   0  0  0  0  0  0
   12.4067  156.7939   64.4903 H   0  0  0  0  0  0
   11.3287  157.5512   65.7114 H   0  0  0  0  0  0
   10.7953  156.0779   64.8331 H   0  0  0  0  0  0
   12.8670  151.3844   69.6058 H   0  0  0  0  0  0
   14.2026  152.6831   71.9246 H   0  0  0  0  0  0
   15.3286  150.9535   69.6765 H   0  0  0  0  0  0
   16.2057  151.4257   71.1713 H   0  0  0  0  0  0
   13.6611  149.7103   71.0667 H   0  0  0  0  0  0
   15.6862  148.6475   70.1303 H   0  0  0  0  0  0
   15.2279  147.9360   71.7147 H   0  0  0  0  0  0
   16.6007  149.0899   71.6118 H   0  0  0  0  0  0
   13.7708  151.1872   73.0542 H   0  0  0  0  0  0
   15.4445  150.6233   73.3819 H   0  0  0  0  0  0
   14.0717  149.4694   73.4848 H   0  0  0  0  0  0
   15.2215  154.4834   72.0319 H   0  0  0  0  0  0
   15.8607  155.8475   69.3746 H   0  0  0  0  0  0
   16.0085  156.9450   72.2569 H   0  0  0  0  0  0
   16.0595  157.9102   70.7429 H   0  0  0  0  0  0
   13.7289  156.3242   71.8354 H   0  0  0  0  0  0
   13.9057  158.1098   71.7522 H   0  0  0  0  0  0
   13.7570  158.9488   67.9953 H   0  0  0  0  0  0
   15.1598  158.9267   69.1169 H   0  0  0  0  0  0
   13.5785  159.5756   69.6692 H   0  0  0  0  0  0
   17.9232  155.4506   68.5850 H   0  0  0  0  0  0
   19.8162  154.7902   70.8671 H   0  0  0  0  0  0
   19.7773  154.1860   67.8844 H   0  0  0  0  0  0
   21.2781  153.9938   68.8524 H   0  0  0  0  0  0
   18.4522  152.4116   67.6342 H   0  0  0  0  0  0
   20.9092  152.6662   71.1056 H   0  0  0  0  0  0
   17.8253  150.1297   68.2538 H   0  0  0  0  0  0
   20.2575  150.3942   71.7512 H   0  0  0  0  0  0
   18.6464  149.1572   70.3731 H   0  0  0  0  0  0
   18.8227  157.3259   68.9131 H   0  0  0  0  0  0
   19.5385  159.4962   69.4060 H   0  0  0  0  0  0
   21.8490  160.1222   66.6147 H   0  0  0  0  0  0
   22.0247  158.3671   70.8471 H   0  0  0  0  0  0
   21.3155  160.0059   71.0415 H   0  0  0  0  0  0
   19.1740  158.5159   71.7840 H   0  0  0  0  0  0
   20.4949  157.3890   72.2446 H   0  0  0  0  0  0
   21.3315  158.8192   73.8804 H   0  0  0  0  0  0
   20.6897  160.2941   73.0808 H   0  0  0  0  0  0
   18.3441  159.4934   73.7030 H   0  0  0  0  0  0
   19.1203  158.2050   74.6849 H   0  0  0  0  0  0
   18.4239  160.0815   76.0547 H   0  0  0  0  0  0
   19.4356  161.1962   75.0745 H   0  0  0  0  0  0
   20.2118  159.9078   76.0564 H   0  0  0  0  0  0
  1  2  1  0  0  0
  1 83  1  0  0  0
  1 84  1  0  0  0
  1 85  1  0  0  0
  2  3  1  0  0  0
  2  5  1  0  0  0
  2 86  1  0  0  0
  3  4  2  0  0  0
  3  7  1  0  0  0
  5  6  1  0  0  0
  5 87  1  0  0  0
  5 88  1  0  0  0
  6 89  1  0  0  0
  7  8  1  0  0  0
  7 90  1  0  0  0
  8  9  1  0  0  0
  8 11  1  0  0  0
  8 91  1  0  0  0
  9 10  2  0  0  0
  9 18  1  0  0  0
 11 12  1  0  0  0
 11 92  1  0  0  0
 11 93  1  0  0  0
 12 13  1  0  0  0
 12 94  1  0  0  0
 12 95  1  0  0  0
 13 14  1  0  0  0
 13 96  1  0  0  0
 13 97  1  0  0  0
 14 15  1  0  0  0
 14 98  1  0  0  0
 15 16  2  0  0  0
 15 17  1  0  0  0
 16 99  1  0  0  0
 17100  1  0  0  0
 17101  1  0  0  0
 18 19  1  0  0  0
 18102  1  0  0  0
 19 20  1  0  0  0
 19 22  1  0  0  0
 19103  1  0  0  0
 20 21  2  0  0  0
 20 28  1  0  0  0
 22 23  1  0  0  0
 22104  1  0  0  0
 22105  1  0  0  0
 23 24  2  0  0  0
 23 25  1  0  0  0
 24 26  1  0  0  0
 25 27  2  0  0  0
 25106  1  0  0  0
 26 27  1  0  0  0
 26107  1  0  0  0
 28 29  1  0  0  0
 28108  1  0  0  0
 29 30  1  0  0  0
 29 32  1  0  0  0
 29109  1  0  0  0
 30 31  2  0  0  0
 30 37  1  0  0  0
 32 33  1  0  0  0
 32110  1  0  0  0
 32111  1  0  0  0
 33 34  1  0  0  0
 33112  1  0  0  0
 33113  1  0  0  0
 34 35  1  0  0  0
 34114  1  0  0  0
 34115  1  0  0  0
 35 36  1  0  0  0
 35116  1  0  0  0
 35117  1  0  0  0
 36118  1  0  0  0
 36119  1  0  0  0
 36120  1  0  0  0
 37 38  1  0  0  0
 37121  1  0  0  0
 38 39  1  0  0  0
 38 41  1  0  0  0
 38122  1  0  0  0
 39 40  2  0  0  0
 39 46  1  0  0  0
 41 42  1  0  0  0
 41123  1  0  0  0
 41124  1  0  0  0
 42 43  1  0  0  0
 42125  1  0  0  0
 42126  1  0  0  0
 43 44  1  0  0  0
 43127  1  0  0  0
 43128  1  0  0  0
 44 45  1  0  0  0
 44129  1  0  0  0
 44130  1  0  0  0
 45131  1  0  0  0
 45132  1  0  0  0
 45133  1  0  0  0
 46 47  1  0  0  0
 46134  1  0  0  0
 47 48  1  0  0  0
 47 50  1  0  0  0
 47135  1  0  0  0
 48 49  2  0  0  0
 48 54  1  0  0  0
 50 51  1  0  0  0
 50136  1  0  0  0
 50137  1  0  0  0
 51 52  1  0  0  0
 51 53  1  0  0  0
 51138  1  0  0  0
 52139  1  0  0  0
 52140  1  0  0  0
 52141  1  0  0  0
 53142  1  0  0  0
 53143  1  0  0  0
 53144  1  0  0  0
 54 55  1  0  0  0
 54145  1  0  0  0
 55 56  1  0  0  0
 55 58  1  0  0  0
 55146  1  0  0  0
 56 57  2  0  0  0
 56 62  1  0  0  0
 58 59  1  0  0  0
 58147  1  0  0  0
 58148  1  0  0  0
 59 60  1  0  0  0
 59149  1  0  0  0
 59150  1  0  0  0
 60 61  1  0  0  0
 61151  1  0  0  0
 61152  1  0  0  0
 61153  1  0  0  0
 62 63  1  0  0  0
 62154  1  0  0  0
 63 64  1  0  0  0
 63 66  1  0  0  0
 63155  1  0  0  0
 64 65  2  0  0  0
 64 73  1  0  0  0
 66 67  1  0  0  0
 66156  1  0  0  0
 66157  1  0  0  0
 67 68  2  0  0  0
 67 69  1  0  0  0
 68 70  1  0  0  0
 68158  1  0  0  0
 69 71  2  0  0  0
 69159  1  0  0  0
 70 72  2  0  0  0
 70160  1  0  0  0
 71 72  1  0  0  0
 71161  1  0  0  0
 72162  1  0  0  0
 73 74  1  0  0  0
 73163  1  0  0  0
 74 75  1  0  0  0
 74 77  1  0  0  0
 74164  1  0  0  0
 75 76  1  0  0  0
 75 82  2  0  0  0
 76165  1  0  0  0
 77 78  1  0  0  0
 77166  1  0  0  0
 77167  1  0  0  0
 78 79  1  0  0  0
 78168  1  0  0  0
 78169  1  0  0  0
 79 80  1  0  0  0
 79170  1  0  0  0
 79171  1  0  0  0
 80 81  1  0  0  0
 80172  1  0  0  0
 80173  1  0  0  0
 81174  1  0  0  0
 81175  1  0  0  0
 81176  1  0  0  0
M  CHG  4   1   1  36   1  45   1  81   1
M  END
> <s_m_source_file>
../1h26_ligand.sdf

> <i_m_source_file_index>
1

> <s_epik_input>
W0hdL049QyhbTkgyXSlcW05IXVtDSDJdW0NIMl1bQ0gyXVtDQEhdKFtOSF1DKD1PKVtDQEBIXShbTkgzK10pW0NIMl1bT0hdKUMoPU8pW05IXVtDQEBIXShbQ0gyXUMxPU5bQ0gyXU49W0NIXTEpQyg9TylbTkhdW0NAQEhdKFtDSDJdW0NIMl1bQ0gyXVtDSDJdW05IMytdKUMoPU8pW05IXVtDQEBIXShbQ0gyXVtDSDJdW0NIMl1bQ0gyXVtOSDMrXSlDKD1PKVtOSF1bQ0BASF0oW0NIMl1bQ0hdKFtDSDNdKVtDSDNdKUMoPU8pW05IXVtDQEBIXShbQ0gyXVtDSDJdU1tDSDNdKUMoPU8pW05IXVtDQEBIXShbQ0gyXWMyW2NIXVtjSF1bY0hdW2NIXVtjSF0yKUMoPU8pW05IXVtDQEhdKEMoPU8pW09IXSlbQ0gyXVtDSDJdW0NIMl1bQ0gyXVtOSDMrXQ==

> <s_epik_cmdline>
J2VwaWtfYXBwJywgJy1pbWFlJywgJ2xpZ2FuZF9wcm8ubWFlJywgJy1vbWFlJywgJ2xpZ2FuZF9wcmVwLm1hZScsICctbXMnLCAnMScsICctcGgnLCAnNycsICctcGh0JywgJzAuNScsICctbnQn

> <s_epik_pKa_notes>
Molecule size exceeds maximum supported for generating protonation states

> <s_epik_Chemistry_Notes>
This compound has an imine and may undergo hydrolysis.

$$$$
