1h27_ligand
                    3D
 Schrodinger Suite 2020-3.
101102  0  0  1  0            999 V2000
    7.4690  149.7980   73.1510 N   0  3  0  0  0  0
    8.5040  150.8660   73.2540 C   0  0  2  0  0  0
    9.4110  150.9180   72.0200 C   0  0  0  0  0  0
    9.9920  149.9130   71.6190 O   0  0  0  0  0  0
    9.3560  150.6550   74.5060 C   0  0  0  0  0  0
   10.7560  151.2450   74.3960 C   0  0  0  0  0  0
   11.4320  151.4930   75.7310 C   0  0  0  0  0  0
   11.4060  150.3140   76.5940 N   0  0  0  0  0  0
   12.2870  149.3240   76.5390 C   0  0  0  0  0  0
   13.2630  149.3480   75.6420 N   0  0  0  0  0  0
   12.1920  148.3030   77.3790 N   0  3  0  0  0  0
    9.4810  152.0870   71.3920 N   0  0  0  0  0  0
   10.4670  152.3540   70.3520 C   0  0  2  0  0  0
   11.8650  152.5520   70.9460 C   0  0  0  0  0  0
   12.0230  153.2010   71.9770 O   0  0  0  0  0  0
   10.0400  153.5960   69.5660 C   0  0  0  0  0  0
   10.9770  153.9200   68.4250 C   0  0  0  0  0  0
   12.1340  154.2720   68.6400 O   0  0  0  0  0  0
   10.4600  153.8680   67.2040 N   0  0  0  0  0  0
   12.8740  151.9840   70.2900 N   0  0  0  0  0  0
   14.2420  152.0040   70.8060 C   0  0  2  0  0  0
   15.1150  153.1050   70.1940 C   0  0  0  0  0  0
   15.1410  154.2300   70.6880 O   0  0  0  0  0  0
   14.9100  150.6450   70.5850 C   0  0  0  0  0  0
   14.3910  149.4770   71.4220 C   0  0  0  0  0  0
   15.2380  148.2480   71.1760 C   0  0  0  0  0  0
   14.3800  149.8310   72.8940 C   0  0  0  0  0  0
   15.8720  152.7600   69.1540 N   0  0  0  0  0  0
   16.8920  153.6560   68.6130 C   0  0  2  0  0  0
   16.3450  154.6470   67.5960 C   0  0  0  0  0  0
   17.0890  155.4730   67.0700 O   0  0  0  0  0  0
   18.0100  152.8480   67.9680 C   0  0  0  0  0  0
   18.3470  151.6020   68.7130 C   0  0  0  0  0  0
   17.5800  150.4630   68.5590 C   0  0  0  0  0  0
   19.4080  151.5750   69.5980 C   0  0  0  0  0  0
   17.8770  149.3160   69.2590 C   0  0  0  0  0  0
   19.7120  150.4260   70.2950 C   0  0  0  0  0  0
   18.9460  149.2980   70.1270 C   0  0  0  0  0  0
   15.0550  154.5470   67.2950 N   0  0  0  0  0  0
   14.4070  155.4990   66.4100 C   0  0  0  0  0  0
   13.8980  156.7020   67.1830 C   0  0  0  0  0  0
   13.8200  156.6700   68.4140 O   0  0  0  0  0  0
   13.5280  157.7610   66.4690 N   0  0  0  0  0  0
   13.0270  158.9800   67.1120 C   0  0  2  0  0  0
   11.8540  158.6850   68.0510 C   0  0  0  0  0  0
   11.9210  158.8810   69.2660 O   0  5  0  0  0  0
   12.5800  159.8470   65.9230 C   0  0  0  0  0  0
   12.4290  158.8880   64.7790 C   0  0  0  0  0  0
   13.5030  157.8630   64.9980 C   0  0  0  0  0  0
   10.8060  158.1890   67.6400 O   0  0  0  0  0  0
    6.8631  149.9605   72.2474 H   0  0  0  0  0  0
    6.8198  149.8298   74.0384 H   0  0  0  0  0  0
    7.9605  148.8157   73.0912 H   0  0  0  0  0  0
    7.9460  151.8117   73.3195 H   0  0  0  0  0  0
    8.8654  151.1309   75.3679 H   0  0  0  0  0  0
    9.4673  149.5773   74.6965 H   0  0  0  0  0  0
   11.4008  150.5562   73.8305 H   0  0  0  0  0  0
   10.7064  152.2122   73.8745 H   0  0  0  0  0  0
   12.4835  151.7693   75.5638 H   0  0  0  0  0  0
   10.9171  152.3108   76.2564 H   0  0  0  0  0  0
   10.6171  150.2051   77.3528 H   0  0  0  0  0  0
   13.3465  150.1928   74.9425 H   0  0  0  0  0  0
   13.9893  148.5231   75.5972 H   0  0  0  0  0  0
   11.3842  148.2780   78.1252 H   0  0  0  0  0  0
    8.7615  152.8672   71.6811 H   0  0  0  0  0  0
   10.4784  151.4626   69.7076 H   0  0  0  0  0  0
    9.0381  153.4348   69.1416 H   0  0  0  0  0  0
   10.0176  154.4660   70.2388 H   0  0  0  0  0  0
    9.4179  153.5462   67.0612 H   0  0  0  0  0  0
   11.0736  154.1467   66.3346 H   0  0  0  0  0  0
   12.6545  151.4890   69.3325 H   0  0  0  0  0  0
   14.1049  152.2243   71.8750 H   0  0  0  0  0  0
   14.7812  150.3393   69.5362 H   0  0  0  0  0  0
   15.9829  150.7220   70.8153 H   0  0  0  0  0  0
   13.3558  149.2532   71.1248 H   0  0  0  0  0  0
   15.2329  148.0080   70.1025 H   0  0  0  0  0  0
   14.8270  147.3999   71.7433 H   0  0  0  0  0  0
   16.2700  148.4424   71.5033 H   0  0  0  0  0  0
   13.7597  150.7257   73.0513 H   0  0  0  0  0  0
   15.4076  150.0335   73.2301 H   0  0  0  0  0  0
   13.9646  148.9910   73.4700 H   0  0  0  0  0  0
   15.7130  151.7703   68.7009 H   0  0  0  0  0  0
   17.2442  154.2153   69.4923 H   0  0  0  0  0  0
   17.7101  152.5536   66.9514 H   0  0  0  0  0  0
   18.9229  153.4597   67.9183 H   0  0  0  0  0  0
   16.7307  150.4731   67.8758 H   0  0  0  0  0  0
   20.0102  152.4714   69.7461 H   0  0  0  0  0  0
   17.2667  148.4226   69.1266 H   0  0  0  0  0  0
   20.5601  150.4120   70.9796 H   0  0  0  0  0  0
   19.1842  148.3895   70.6803 H   0  0  0  0  0  0
   14.4759  153.7203   67.7323 H   0  0  0  0  0  0
   15.1267  155.8449   65.6534 H   0  0  0  0  0  0
   13.5549  155.0144   65.9109 H   0  0  0  0  0  0
   13.8105  159.4330   67.7372 H   0  0  0  0  0  0
   11.6281  160.3413   66.1670 H   0  0  0  0  0  0
   13.3462  160.6087   65.7161 H   0  0  0  0  0  0
   11.4247  158.4400   64.8062 H   0  0  0  0  0  0
   12.5649  159.4259   63.8292 H   0  0  0  0  0  0
   14.4900  158.1868   64.6361 H   0  0  0  0  0  0
   13.2582  156.8812   64.5665 H   0  0  0  0  0  0
   12.9210  147.4807   77.3299 H   0  0  0  0  0  0
  1  2  1  0  0  0
  1 51  1  0  0  0
  1 52  1  0  0  0
  1 53  1  0  0  0
  2  3  1  0  0  0
  2  5  1  0  0  0
  2 54  1  0  0  0
  3  4  2  0  0  0
  3 12  1  0  0  0
  5  6  1  0  0  0
  5 55  1  0  0  0
  5 56  1  0  0  0
  6  7  1  0  0  0
  6 57  1  0  0  0
  6 58  1  0  0  0
  7  8  1  0  0  0
  7 59  1  0  0  0
  7 60  1  0  0  0
  8  9  1  0  0  0
  8 61  1  0  0  0
  9 10  1  0  0  0
  9 11  2  0  0  0
 10 62  1  0  0  0
 10 63  1  0  0  0
 11 64  1  0  0  0
 11101  1  0  0  0
 12 13  1  0  0  0
 12 65  1  0  0  0
 13 14  1  0  0  0
 13 16  1  0  0  0
 13 66  1  0  0  0
 14 15  2  0  0  0
 14 20  1  0  0  0
 16 17  1  0  0  0
 16 67  1  0  0  0
 16 68  1  0  0  0
 17 18  2  0  0  0
 17 19  1  0  0  0
 19 69  1  0  0  0
 19 70  1  0  0  0
 20 21  1  0  0  0
 20 71  1  0  0  0
 21 22  1  0  0  0
 21 24  1  0  0  0
 21 72  1  0  0  0
 22 23  2  0  0  0
 22 28  1  0  0  0
 24 25  1  0  0  0
 24 73  1  0  0  0
 24 74  1  0  0  0
 25 26  1  0  0  0
 25 27  1  0  0  0
 25 75  1  0  0  0
 26 76  1  0  0  0
 26 77  1  0  0  0
 26 78  1  0  0  0
 27 79  1  0  0  0
 27 80  1  0  0  0
 27 81  1  0  0  0
 28 29  1  0  0  0
 28 82  1  0  0  0
 29 30  1  0  0  0
 29 32  1  0  0  0
 29 83  1  0  0  0
 30 31  2  0  0  0
 30 39  1  0  0  0
 32 33  1  0  0  0
 32 84  1  0  0  0
 32 85  1  0  0  0
 33 34  2  0  0  0
 33 35  1  0  0  0
 34 36  1  0  0  0
 34 86  1  0  0  0
 35 37  2  0  0  0
 35 87  1  0  0  0
 36 38  2  0  0  0
 36 88  1  0  0  0
 37 38  1  0  0  0
 37 89  1  0  0  0
 38 90  1  0  0  0
 39 40  1  0  0  0
 39 91  1  0  0  0
 40 41  1  0  0  0
 40 92  1  0  0  0
 40 93  1  0  0  0
 41 42  2  0  0  0
 41 43  1  0  0  0
 43 44  1  0  0  0
 43 49  1  0  0  0
 44 45  1  0  0  0
 44 47  1  0  0  0
 44 94  1  0  0  0
 45 46  1  0  0  0
 45 50  2  0  0  0
 47 48  1  0  0  0
 47 95  1  0  0  0
 47 96  1  0  0  0
 48 49  1  0  0  0
 48 97  1  0  0  0
 48 98  1  0  0  0
 49 99  1  0  0  0
 49100  1  0  0  0
M  CHG  3   1   1  11   1  46  -1
M  END
> <s_m_source_file>
../1h27_ligand.sdf

> <i_m_source_file_index>
1

> <s_epik_input>
W0hdL049QyhbTkgyXSlcW05IXVtDSDJdW0NIMl1bQ0gyXVtDQEhdKFtOSDMrXSlDKD1PKVtOSF1bQ0BASF0oW0NIMl1DKD1PKVtOSDJdKUMoPU8pW05IXVtDQEBIXShbQ0gyXVtDSF0oW0NIM10pW0NIM10pQyg9TylbTkhdW0NAQEhdKFtDSDJdYzFbY0hdW2NIXVtjSF1bY0hdW2NIXTEpQyg9TylbTkhdW0NIMl1DKD1PKU4yW0NASF0oQyg9TylbT0hdKVtDSDJdW0NIMl1bQ0gyXTI=

> <s_epik_cmdline>
J2VwaWtfYXBwJywgJy1pbWFlJywgJ2xpZ2FuZF9wcm8ubWFlJywgJy1vbWFlJywgJ2xpZ2FuZF9wcmVwLm1hZScsICctbXMnLCAnMScsICctcGgnLCAnNycsICctcGh0JywgJzAuNScsICctbnQn

> <r_epik_Ionization_Penalty>
  0.1432

> <r_epik_Ionization_Penalty_Charging>
  0.1432

> <r_epik_Ionization_Penalty_Neutral>
  0.0000

> <r_epik_State_Penalty>
  0.1321

> <r_epik_Charging_Adjusted_Penalty>
0.275306390465638

> <i_epik_Tot_Q>
1

> <i_epik_Tot_abs_Q>
3

> <s_epik_Chemistry_Notes>
This compound has an imine and may undergo hydrolysis.

$$$$
