1h28_ligand
                    3D
 Schrodinger Suite 2020-3.
162162  0  0  1  0            999 V2000
   41.1520   44.7110   44.0310 N   0  3  0  0  0  0
   39.8470   45.1160   43.4380 C   0  0  0  0  0  0
   39.1250   46.2720   44.1250 C   0  0  0  0  0  0
   38.0040   46.1200   44.5180 O   0  0  0  0  0  0
   39.7650   47.4400   44.2090 N   0  0  0  0  0  0
   39.4970   48.4880   45.2200 C   0  0  2  0  0  0
   40.3800   49.7180   44.9700 C   0  0  0  0  0  0
   41.3450   49.9410   45.6800 O   0  0  0  0  0  0
   39.8830   47.9720   46.5980 C   0  0  0  0  0  0
   41.2980   47.8540   46.6720 O   0  0  0  0  0  0
   40.0700   50.4940   43.9450 N   0  0  0  0  0  0
   40.9010   51.6280   43.5430 C   0  0  2  0  0  0
   40.0380   52.8390   43.3790 C   0  0  0  0  0  0
   40.5410   53.9200   43.2050 O   0  0  0  0  0  0
   41.5680   51.3510   42.2330 C   0  0  0  0  0  0
   38.7280   52.6390   43.3760 N   0  0  0  0  0  0
   37.8070   53.7410   43.2660 C   0  0  2  0  0  0
   38.0320   54.4950   44.5140 C   0  0  0  0  0  0
   38.5500   53.9520   45.4780 O   0  0  0  0  0  0
   36.3550   53.2680   43.1500 C   0  0  0  0  0  0
   35.5600   53.2020   44.4220 C   0  0  0  0  0  0
   34.1890   52.6090   44.1560 C   0  0  0  0  0  0
   33.3830   52.4870   45.4260 C   0  0  0  0  0  0
   31.9400   52.7200   45.1650 N   0  3  0  0  0  0
   37.6860   55.7640   44.4860 N   0  0  0  0  0  0
   38.2120   56.6760   45.4610 C   0  0  2  0  0  0
   37.9850   58.0680   44.9330 C   0  0  0  0  0  0
   37.9470   58.2920   43.7530 O   0  0  0  0  0  0
   39.7020   56.3810   45.7420 C   0  0  0  0  0  0
   40.4070   57.4320   46.5800 C   0  0  0  0  0  0
   41.5530   56.9310   47.4500 C   0  0  0  0  0  0
   42.8440   56.9680   46.7690 N   0  0  0  0  0  0
   43.3460   55.9620   46.0590 C   0  0  0  0  0  0
   42.6600   54.8370   45.9200 N   0  0  0  0  0  0
   44.5370   56.0770   45.4750 N   0  0  0  0  0  0
   37.7880   58.9750   45.8710 N   0  0  0  0  0  0
   37.5650   60.3790   45.6560 C   0  0  2  0  0  0
   38.7770   61.0640   46.2370 C   0  0  0  0  0  0
   39.0110   61.0080   47.4360 O   0  0  0  0  0  0
   36.2970   60.8150   46.4180 C   0  0  0  0  0  0
   35.9130   62.2810   46.1770 C   0  0  0  0  0  0
   34.5100   62.6940   46.5660 C   0  0  0  0  0  0
   34.4100   64.1420   46.7870 N   0  0  0  0  0  0
   33.4840   64.7360   47.5490 C   0  0  0  0  0  0
   32.5870   64.0030   48.1780 N   0  0  0  0  0  0
   33.4530   66.0600   47.6770 N   0  0  0  0  0  0
   39.5700   61.6950   45.3940 N   0  0  0  0  0  0
   40.8900   62.0900   45.7940 C   0  0  2  0  0  0
   40.9090   63.3200   46.6760 C   0  0  0  0  0  0
   41.7120   63.3650   47.6120 O   0  0  0  0  0  0
   41.7690   62.3020   44.5810 C   0  0  0  0  0  0
   41.9440   61.0760   43.7300 C   0  0  0  0  0  0
   42.7200   61.4340   42.4760 C   0  0  0  0  0  0
   42.6500   60.0290   44.5450 C   0  0  0  0  0  0
   40.0720   64.3210   46.3720 N   0  0  0  0  0  0
   40.0980   65.5840   47.1330 C   0  0  2  0  0  0
   38.7170   66.1360   47.6030 C   0  0  0  0  0  0
   37.7070   65.4270   47.6260 O   0  0  0  0  0  0
   40.8830   66.6680   46.3910 C   0  0  0  0  0  0
   42.0560   66.1540   45.5800 C   0  0  0  0  0  0
   41.9290   65.8890   44.2250 C   0  0  0  0  0  0
   43.2690   65.9710   46.1570 C   0  0  0  0  0  0
   43.0010   65.4290   43.4830 C   0  0  0  0  0  0
   44.3350   65.5040   45.4100 C   0  0  0  0  0  0
   44.1850   65.2330   44.0740 C   0  0  0  0  0  0
   38.6770   67.3880   48.0450 N   0  0  0  0  0  0
   37.3980   67.9780   48.4170 C   0  0  0  0  0  0
   36.5870   68.1880   47.1620 C   0  0  0  0  0  0
   36.4720   69.3370   46.7020 O   0  0  0  0  0  0
   36.0640   67.0590   46.6370 N   0  0  0  0  0  0
   35.4960   66.8450   45.2460 C   0  0  2  0  0  0
   36.5450   66.5690   44.1300 C   0  0  0  0  0  0
   37.0130   65.4400   43.9110 O   0  0  0  0  0  0
   34.4650   67.9500   44.8220 C   0  0  0  0  0  0
   33.9830   67.8600   43.3510 C   0  0  0  0  0  0
   33.5750   69.2020   42.6970 C   0  0  0  0  0  0
   33.7170   70.2640   43.3470 O   0  0  0  0  0  0
   33.1020   69.1760   41.5220 O   0  0  0  0  0  0
   36.9840   67.4590   43.3840 O   0  0  0  0  0  0
   41.5732   43.8747   43.4538 H   0  0  0  0  0  0
   40.9990   44.3965   45.0739 H   0  0  0  0  0  0
   41.8475   45.5628   44.0032 H   0  0  0  0  0  0
   40.0000   45.4305   42.3951 H   0  0  0  0  0  0
   39.1515   44.2642   43.4658 H   0  0  0  0  0  0
   40.5447   47.5957   43.4488 H   0  0  0  0  0  0
   38.4250   48.7209   45.1384 H   0  0  0  0  0  0
   39.5301   48.6766   47.3655 H   0  0  0  0  0  0
   39.4208   46.9877   46.7637 H   0  0  0  0  0  0
   41.7723   47.4938   47.5968 H   0  0  0  0  0  0
   39.1504   50.2613   43.3881 H   0  0  0  0  0  0
   41.6552   51.7749   44.3302 H   0  0  0  0  0  0
   42.2096   50.4626   42.3288 H   0  0  0  0  0  0
   42.1815   52.2169   41.9436 H   0  0  0  0  0  0
   40.8033   51.1697   41.4633 H   0  0  0  0  0  0
   38.3474   51.6103   43.4594 H   0  0  0  0  0  0
   38.0285   54.3352   42.3672 H   0  0  0  0  0  0
   35.7997   53.9481   42.4874 H   0  0  0  0  0  0
   36.3330   52.2505   42.7327 H   0  0  0  0  0  0
   36.0884   52.5715   45.1523 H   0  0  0  0  0  0
   35.4394   54.2156   44.8320 H   0  0  0  0  0  0
   33.6395   53.2554   43.4558 H   0  0  0  0  0  0
   34.3019   51.6064   43.7178 H   0  0  0  0  0  0
   33.5073   51.4769   45.8435 H   0  0  0  0  0  0
   33.7340   53.2312   46.1560 H   0  0  0  0  0  0
   31.3773   52.6252   46.1054 H   0  0  0  0  0  0
   31.5735   51.9765   44.4419 H   0  0  0  0  0  0
   31.8002   53.7308   44.7543 H   0  0  0  0  0  0
   36.9919   56.1254   43.7130 H   0  0  0  0  0  0
   37.6486   56.5346   46.3951 H   0  0  0  0  0  0
   39.7912   55.4282   46.2844 H   0  0  0  0  0  0
   40.2483   56.3133   44.7897 H   0  0  0  0  0  0
   40.8368   58.1997   45.9197 H   0  0  0  0  0  0
   39.6846   57.9001   47.2649 H   0  0  0  0  0  0
   41.6317   57.5587   48.3499 H   0  0  0  0  0  0
   41.3607   55.8890   47.7454 H   0  0  0  0  0  0
   43.4697   57.8710   46.8251 H   0  0  0  0  0  0
   41.6750   54.7308   46.3980 H   0  0  0  0  0  0
   45.1154   57.0063   45.5836 H   0  0  0  0  0  0
   44.9426   55.2427   44.8839 H   0  0  0  0  0  0
   37.8049   58.5711   46.8940 H   0  0  0  0  0  0
   37.4496   60.5745   44.5797 H   0  0  0  0  0  0
   35.4463   60.1947   46.0993 H   0  0  0  0  0  0
   36.4575   60.6897   47.4990 H   0  0  0  0  0  0
   36.5849   62.9353   46.7518 H   0  0  0  0  0  0
   36.0040   62.5125   45.1055 H   0  0  0  0  0  0
   33.8106   62.4179   45.7631 H   0  0  0  0  0  0
   34.2215   62.1818   47.4958 H   0  0  0  0  0  0
   35.1301   64.8224   46.3089 H   0  0  0  0  0  0
   32.6042   62.9076   48.0786 H   0  0  0  0  0  0
   34.1971   66.6805   47.1562 H   0  0  0  0  0  0
   32.6832   66.5341   48.3036 H   0  0  0  0  0  0
   39.2133   61.9184   44.3777 H   0  0  0  0  0  0
   41.2352   61.2336   46.3919 H   0  0  0  0  0  0
   41.3289   63.0808   43.9409 H   0  0  0  0  0  0
   42.7717   62.6173   44.9053 H   0  0  0  0  0  0
   40.9672   60.6747   43.4221 H   0  0  0  0  0  0
   42.1699   62.2008   41.9108 H   0  0  0  0  0  0
   42.8430   60.5364   41.8522 H   0  0  0  0  0  0
   43.7095   61.8243   42.7561 H   0  0  0  0  0  0
   42.0555   59.7997   45.4416 H   0  0  0  0  0  0
   43.6389   60.4045   44.8469 H   0  0  0  0  0  0
   42.7723   59.1165   43.9430 H   0  0  0  0  0  0
   39.3596   64.1925   45.5438 H   0  0  0  0  0  0
   40.6401   65.2589   48.0333 H   0  0  0  0  0  0
   40.2148   67.1897   45.6900 H   0  0  0  0  0  0
   41.2883   67.3888   47.1164 H   0  0  0  0  0  0
   40.9674   66.0460   43.7364 H   0  0  0  0  0  0
   43.4048   66.1931   47.2154 H   0  0  0  0  0  0
   42.8817   65.2264   42.4186 H   0  0  0  0  0  0
   45.3028   65.3500   45.8872 H   0  0  0  0  0  0
   45.0290   64.8586   43.4947 H   0  0  0  0  0  0
   39.6010   67.9787   48.1310 H   0  0  0  0  0  0
   36.8658   67.2992   49.0996 H   0  0  0  0  0  0
   37.5708   68.9415   48.9189 H   0  0  0  0  0  0
   36.0811   66.2283   47.3579 H   0  0  0  0  0  0
   34.9613   65.8933   45.3820 H   0  0  0  0  0  0
   37.7528   65.2973   43.1096 H   0  0  0  0  0  0
   33.5680   67.8765   45.4544 H   0  0  0  0  0  0
   34.9206   68.9435   44.9459 H   0  0  0  0  0  0
   34.7872   67.4439   42.7265 H   0  0  0  0  0  0
   33.0994   67.2073   43.2939 H   0  0  0  0  0  0
   32.8024   70.1125   41.0289 H   0  0  0  0  0  0
  1  2  1  0  0  0
  1 80  1  0  0  0
  1 81  1  0  0  0
  1 82  1  0  0  0
  2  3  1  0  0  0
  2 83  1  0  0  0
  2 84  1  0  0  0
  3  4  2  0  0  0
  3  5  1  0  0  0
  5  6  1  0  0  0
  5 85  1  0  0  0
  6  7  1  0  0  0
  6  9  1  0  0  0
  6 86  1  0  0  0
  7  8  2  0  0  0
  7 11  1  0  0  0
  9 10  1  0  0  0
  9 87  1  0  0  0
  9 88  1  0  0  0
 10 89  1  0  0  0
 11 12  1  0  0  0
 11 90  1  0  0  0
 12 13  1  0  0  0
 12 15  1  0  0  0
 12 91  1  0  0  0
 13 14  2  0  0  0
 13 16  1  0  0  0
 15 92  1  0  0  0
 15 93  1  0  0  0
 15 94  1  0  0  0
 16 17  1  0  0  0
 16 95  1  0  0  0
 17 18  1  0  0  0
 17 20  1  0  0  0
 17 96  1  0  0  0
 18 19  2  0  0  0
 18 25  1  0  0  0
 20 21  1  0  0  0
 20 97  1  0  0  0
 20 98  1  0  0  0
 21 22  1  0  0  0
 21 99  1  0  0  0
 21100  1  0  0  0
 22 23  1  0  0  0
 22101  1  0  0  0
 22102  1  0  0  0
 23 24  1  0  0  0
 23103  1  0  0  0
 23104  1  0  0  0
 24105  1  0  0  0
 24106  1  0  0  0
 24107  1  0  0  0
 25 26  1  0  0  0
 25108  1  0  0  0
 26 27  1  0  0  0
 26 29  1  0  0  0
 26109  1  0  0  0
 27 28  2  0  0  0
 27 36  1  0  0  0
 29 30  1  0  0  0
 29110  1  0  0  0
 29111  1  0  0  0
 30 31  1  0  0  0
 30112  1  0  0  0
 30113  1  0  0  0
 31 32  1  0  0  0
 31114  1  0  0  0
 31115  1  0  0  0
 32 33  1  0  0  0
 32116  1  0  0  0
 33 34  2  0  0  0
 33 35  1  0  0  0
 34117  1  0  0  0
 35118  1  0  0  0
 35119  1  0  0  0
 36 37  1  0  0  0
 36120  1  0  0  0
 37 38  1  0  0  0
 37 40  1  0  0  0
 37121  1  0  0  0
 38 39  2  0  0  0
 38 47  1  0  0  0
 40 41  1  0  0  0
 40122  1  0  0  0
 40123  1  0  0  0
 41 42  1  0  0  0
 41124  1  0  0  0
 41125  1  0  0  0
 42 43  1  0  0  0
 42126  1  0  0  0
 42127  1  0  0  0
 43 44  1  0  0  0
 43128  1  0  0  0
 44 45  2  0  0  0
 44 46  1  0  0  0
 45129  1  0  0  0
 46130  1  0  0  0
 46131  1  0  0  0
 47 48  1  0  0  0
 47132  1  0  0  0
 48 49  1  0  0  0
 48 51  1  0  0  0
 48133  1  0  0  0
 49 50  2  0  0  0
 49 55  1  0  0  0
 51 52  1  0  0  0
 51134  1  0  0  0
 51135  1  0  0  0
 52 53  1  0  0  0
 52 54  1  0  0  0
 52136  1  0  0  0
 53137  1  0  0  0
 53138  1  0  0  0
 53139  1  0  0  0
 54140  1  0  0  0
 54141  1  0  0  0
 54142  1  0  0  0
 55 56  1  0  0  0
 55143  1  0  0  0
 56 57  1  0  0  0
 56 59  1  0  0  0
 56144  1  0  0  0
 57 58  2  0  0  0
 57 66  1  0  0  0
 59 60  1  0  0  0
 59145  1  0  0  0
 59146  1  0  0  0
 60 61  2  0  0  0
 60 62  1  0  0  0
 61 63  1  0  0  0
 61147  1  0  0  0
 62 64  2  0  0  0
 62148  1  0  0  0
 63 65  2  0  0  0
 63149  1  0  0  0
 64 65  1  0  0  0
 64150  1  0  0  0
 65151  1  0  0  0
 66 67  1  0  0  0
 66152  1  0  0  0
 67 68  1  0  0  0
 67153  1  0  0  0
 67154  1  0  0  0
 68 69  2  0  0  0
 68 70  1  0  0  0
 70 71  1  0  0  0
 70155  1  0  0  0
 71 72  1  0  0  0
 71 74  1  0  0  0
 71156  1  0  0  0
 72 73  1  0  0  0
 72 79  2  0  0  0
 73157  1  0  0  0
 74 75  1  0  0  0
 74158  1  0  0  0
 74159  1  0  0  0
 75 76  1  0  0  0
 75160  1  0  0  0
 75161  1  0  0  0
 76 77  2  0  0  0
 76 78  1  0  0  0
 78162  1  0  0  0
M  CHG  2   1   1  24   1
M  END
> <s_m_source_file>
../1h28_ligand.sdf

> <i_m_source_file_index>
1

> <s_epik_input>
W05IMytdW0NIMl1DKD1PKVtOSF1bQ0BASF0oW0NIMl1bT0hdKUMoPU8pW05IXVtDQEBIXShbQ0gzXSlDKD1PKVtOSF1bQ0BASF0oW0NIMl1bQ0gyXVtDSDJdW0NIMl1bTkgzK10pQyg9TylbTkhdW0NAQEhdKFtDSDJdW0NIMl1bQ0gyXVtOSF0vQyg9TlxbSF0pW05IMl0pQyg9TylbTkhdW0NAQEhdKFtDSDJdW0NIMl1bQ0gyXVtOSF0vQyg9TlxbSF0pW05IMl0pQyg9TylbTkhdW0NAQEhdKFtDSDJdW0NIXShbQ0gzXSlbQ0gzXSlDKD1PKVtOSF1bQ0BASF0oW0NIMl1jMVtjSF1bY0hdW2NIXVtjSF1bY0hdMSlDKD1PKVtOSF1bQ0gyXUMoPU8pW05IXVtDQEhdKEMoPU8pW09IXSlbQ0gyXVtDSDJdQyg9TylbT0hd

> <s_epik_cmdline>
J2VwaWtfYXBwJywgJy1pbWFlJywgJ2xpZ2FuZF9wcm8ubWFlJywgJy1vbWFlJywgJ2xpZ2FuZF9wcmVwLm1hZScsICctbXMnLCAnMScsICctcGgnLCAnNycsICctcGh0JywgJzAuNScsICctbnQn

> <s_epik_pKa_notes>
Molecule size exceeds maximum supported for generating protonation states

> <s_epik_Chemistry_Notes>
This compound has an imine and may undergo hydrolysis.

$$$$
