1h2t_ligand
                    3D
 Schrodinger Suite 2020-3.
 80 85  0  0  1  0            999 V2000
  -16.6240   27.7060   76.5890 P   0  0  2  0  0  0
  -16.0280   28.9730   76.0280 O   0  5  0  0  0  0
  -15.8950   26.9580   77.6730 O   0  0  0  0  0  0
  -16.8810   26.6810   75.3750 O   0  0  0  0  0  0
  -18.0760   28.0470   77.2030 O   0  0  0  0  0  0
  -19.2350   29.1180   76.8790 P   0  0  2  0  0  0
  -19.8580   28.7870   75.5400 O   0  5  0  0  0  0
  -18.7020   30.5080   77.1250 O   0  0  0  0  0  0
  -20.2960   28.7870   78.0250 O   0  0  0  0  0  0
  -21.6330   29.3440   77.9700 C   0  0  0  0  0  0
  -22.4790   28.8590   79.1360 C   0  0  1  0  0  0
  -23.8240   29.4020   78.9740 O   0  0  0  0  0  0
  -22.6380   27.3420   79.2510 C   0  0  1  0  0  0
  -22.6700   26.9620   80.6260 O   0  0  0  0  0  0
  -23.9870   27.0730   78.5830 C   0  0  1  0  0  0
  -24.6510   25.9270   79.0800 O   0  0  0  0  0  0
  -24.7670   28.3480   78.9060 C   0  0  2  0  0  0
  -25.7650   28.6810   77.8900 N   0  0  0  0  0  0
  -27.1310   28.6940   78.0550 C   0  0  0  0  0  0
  -27.7760   29.0270   76.9710 N   0  0  0  0  0  0
  -26.7800   29.2510   76.0290 C   0  0  0  0  0  0
  -26.8740   29.6450   74.6680 C   0  0  0  0  0  0
  -27.8900   29.8790   73.9990 O   0  0  0  0  0  0
  -25.6190   29.7600   74.0820 N   0  0  0  0  0  0
  -24.4230   29.5290   74.7180 C   0  0  0  0  0  0
  -23.3130   29.6980   73.9800 N   0  0  0  0  0  0
  -24.3210   29.1600   75.9850 N   0  0  0  0  0  0
  -25.5310   29.0420   76.5770 C   0  0  0  0  0  0
  -16.0510   26.2810   74.0480 P   0  0  2  0  0  0
  -16.1060   27.4340   73.0640 O   0  5  0  0  0  0
  -16.5120   24.9100   73.6040 O   0  0  0  0  0  0
  -14.5560   26.1540   74.5870 O   0  0  0  0  0  0
  -13.4880   25.6920   73.7300 C   0  0  0  0  0  0
  -12.2080   26.4460   74.0350 C   0  0  1  0  0  0
  -12.2930   27.7890   73.4900 O   0  0  0  0  0  0
  -11.8820   26.6010   75.5170 C   0  0  1  0  0  0
  -10.4760   26.5090   75.7150 O   0  0  0  0  0  0
  -12.3610   28.0160   75.8360 C   0  0  1  0  0  0
  -11.6720   28.6250   76.9150 O   0  0  0  0  0  0
  -12.0880   28.7390   74.5190 C   0  0  2  0  0  0
  -12.9590   29.8840   74.2640 N   0  0  0  0  0  0
  -14.2470   29.8520   73.7890 C   0  0  0  0  0  0
  -14.7870   31.0970   73.6380 N   0  0  0  0  0  0
  -13.7560   31.9380   74.0470 C   0  0  0  0  0  0
  -13.7190   33.3540   74.1120 C   0  0  0  0  0  0
  -14.5960   34.1620   73.7920 O   0  0  0  0  0  0
  -12.5010   33.8140   74.6020 N   0  0  0  0  0  0
  -11.4450   33.0180   74.9730 C   0  0  0  0  0  0
  -10.3540   33.6600   75.4290 N   0  0  0  0  0  0
  -11.4580   31.6940   74.9060 N   0  0  0  0  0  0
  -12.6360   31.2210   74.4410 C   0  0  0  0  0  0
  -16.1160   31.4360   73.1630 C   0  0  0  0  0  0
  -21.5749   30.4417   78.0114 H   0  0  0  0  0  0
  -22.1196   29.0377   77.0322 H   0  0  0  0  0  0
  -21.9846   29.2264   80.0474 H   0  0  0  0  0  0
  -21.8039   26.7495   78.8469 H   0  0  0  0  0  0
  -21.7756   27.0909   81.2532 H   0  0  0  0  0  0
  -23.9193   26.7893   77.5224 H   0  0  0  0  0  0
  -24.2144   24.9289   78.9275 H   0  0  0  0  0  0
  -25.3104   28.2640   79.8587 H   0  0  0  0  0  0
  -27.6242   28.4507   78.9961 H   0  0  0  0  0  0
  -25.5299   30.0572   73.0267 H   0  0  0  0  0  0
  -23.3942   30.0046   72.9267 H   0  0  0  0  0  0
  -22.3230   29.5297   74.4291 H   0  0  0  0  0  0
  -13.3217   24.6177   73.8981 H   0  0  0  0  0  0
  -13.7630   25.8603   72.6783 H   0  0  0  0  0  0
  -11.4063   25.8719   73.5474 H   0  0  0  0  0  0
  -12.2876   25.8127   76.1683 H   0  0  0  0  0  0
   -9.9559   25.5572   75.5319 H   0  0  0  0  0  0
  -13.3855   28.0750   76.2320 H   0  0  0  0  0  0
  -11.7699   28.2155   77.9313 H   0  0  0  0  0  0
  -11.0639   29.1398   74.4939 H   0  0  0  0  0  0
  -14.2633   29.3576   72.8065 H   0  0  0  0  0  0
  -14.8830   29.2931   74.4912 H   0  0  0  0  0  0
  -12.3272   34.8940   74.7176 H   0  0  0  0  0  0
  -10.3451   34.7586   75.4839 H   0  0  0  0  0  0
   -9.4710   33.0863   75.7469 H   0  0  0  0  0  0
  -16.6673   30.5138   72.9270 H   0  0  0  0  0  0
  -16.0348   32.0564   72.2583 H   0  0  0  0  0  0
  -16.6530   31.9946   73.9438 H   0  0  0  0  0  0
  1  2  1  0  0  0
  1  3  2  0  0  0
  1  4  1  0  0  0
  1  5  1  0  0  0
  4 29  1  0  0  0
  5  6  1  0  0  0
  6  7  1  0  0  0
  6  8  2  0  0  0
  6  9  1  0  0  0
  9 10  1  0  0  0
 10 11  1  0  0  0
 10 53  1  0  0  0
 10 54  1  0  0  0
 11 12  1  0  0  0
 11 13  1  0  0  0
 11 55  1  0  0  0
 12 17  1  0  0  0
 13 14  1  0  0  0
 13 15  1  0  0  0
 13 56  1  0  0  0
 14 57  1  0  0  0
 15 16  1  0  0  0
 15 17  1  0  0  0
 15 58  1  0  0  0
 16 59  1  0  0  0
 17 18  1  0  0  0
 17 60  1  0  0  0
 18 19  1  0  0  0
 18 28  1  0  0  0
 19 20  2  0  0  0
 19 61  1  0  0  0
 20 21  1  0  0  0
 21 22  1  0  0  0
 21 28  2  0  0  0
 22 23  2  0  0  0
 22 24  1  0  0  0
 24 25  1  0  0  0
 24 62  1  0  0  0
 25 26  1  0  0  0
 25 27  2  0  0  0
 26 63  1  0  0  0
 26 64  1  0  0  0
 27 28  1  0  0  0
 29 30  1  0  0  0
 29 31  2  0  0  0
 29 32  1  0  0  0
 32 33  1  0  0  0
 33 34  1  0  0  0
 33 65  1  0  0  0
 33 66  1  0  0  0
 34 35  1  0  0  0
 34 36  1  0  0  0
 34 67  1  0  0  0
 35 40  1  0  0  0
 36 37  1  0  0  0
 36 38  1  0  0  0
 36 68  1  0  0  0
 37 69  1  0  0  0
 38 39  1  0  0  0
 38 40  1  0  0  0
 38 70  1  0  0  0
 39 71  1  0  0  0
 40 41  1  0  0  0
 40 72  1  0  0  0
 41 42  1  0  0  0
 41 51  1  0  0  0
 42 43  1  0  0  0
 42 73  1  0  0  0
 42 74  1  0  0  0
 43 44  1  0  0  0
 43 52  1  0  0  0
 44 45  1  0  0  0
 44 51  2  0  0  0
 45 46  2  0  0  0
 45 47  1  0  0  0
 47 48  1  0  0  0
 47 75  1  0  0  0
 48 49  1  0  0  0
 48 50  2  0  0  0
 49 76  1  0  0  0
 49 77  1  0  0  0
 50 51  1  0  0  0
 52 78  1  0  0  0
 52 79  1  0  0  0
 52 80  1  0  0  0
M  CHG  3   2  -1   7  -1  30  -1
M  END
> <s_m_source_file>
../1h2t_ligand.sdf

> <i_m_source_file_index>
1

> <s_epik_input>
Tz1jMVtuSF1jKFtOSDJdKW5jKGMxMilOKFtDSDJdTjJbQ0gzXSlbQ0BASF0oW0NASF0oW09IXSlbQ0BASF0zW09IXSlPW0NAQEhdM1tDSDJdT1tQQF0oPU8pKFtPSF0pT1tQQEBdKD1PKShbT0hdKU9bUEBAXSg9TykoW09IXSlPW0NIMl1bQ0BIXTRPW0NASF0oW0NASF0oW09IXSlbQ0BASF00W09IXSluKFtjSF1uNSljKGM1NiluYyhbTkgyXSlbbkhdYzY9Tw==

> <s_epik_cmdline>
J2VwaWtfYXBwJywgJy1pbWFlJywgJ2xpZ2FuZF9wcm8ubWFlJywgJy1vbWFlJywgJ2xpZ2FuZF9wcmVwLm1hZScsICctbXMnLCAnMScsICctcGgnLCAnNycsICctcGh0JywgJzAuNScsICctbnQn

> <r_lp_tautomer_probability>
1

> <r_epik_Ionization_Penalty>
  0.0034

> <r_epik_Ionization_Penalty_Charging>
  0.0026

> <r_epik_Ionization_Penalty_Neutral>
  0.0008

> <r_epik_State_Penalty>
 -0.0000

> <r_epik_Charging_Adjusted_Penalty>
0.00261550495278271

> <i_epik_Tot_Q>
-3

> <i_epik_Tot_abs_Q>
3

> <s_epik_Chemistry_Notes>
This compound contains an acetal/aminal-like group ( X-CH(R)-Y where X, Y are N, S, or O) that may be acid/base labile, releasing an aldehyde.

$$$$
