1h2u_ligand
                    3D
 Schrodinger Suite 2020-3.
 79 84  0  0  1  0            999 V2000
   86.2900  -19.7710   27.3960 P   0  0  2  0  0  0
   87.0970  -19.0700   28.4590 O   0  5  0  0  0  0
   86.7190  -21.1340   26.9210 O   0  0  0  0  0  0
   86.1230  -18.8010   26.1190 O   0  0  0  0  0  0
   84.7410  -19.8240   27.8360 O   0  0  0  0  0  0
   83.9750  -19.7620   29.2490 P   0  0  2  0  0  0
   83.1860  -18.4840   29.3150 O   0  0  0  0  0  0
   84.9520  -20.0970   30.3460 O   0  5  0  0  0  0
   82.9480  -20.9710   29.1270 O   0  0  0  0  0  0
   83.4230  -22.3160   28.9190 C   0  0  0  0  0  0
   82.3200  -23.3170   29.1850 C   0  0  1  0  0  0
   82.0020  -23.3190   30.6060 O   0  0  0  0  0  0
   81.0060  -23.0900   28.4330 C   0  0  1  0  0  0
   80.4560  -24.3320   28.0010 O   0  0  0  0  0  0
   80.1000  -22.4710   29.4950 C   0  0  1  0  0  0
   78.7310  -22.7610   29.2930 O   0  0  0  0  0  0
   80.6130  -23.1330   30.7770 C   0  0  2  0  0  0
   80.3780  -22.3670   32.0030 N   0  0  0  0  0  0
   80.0580  -21.0310   32.1110 C   0  0  0  0  0  0
   79.8480  -20.6500   33.3440 N   0  0  0  0  0  0
   80.0530  -21.7980   34.0980 C   0  0  0  0  0  0
   79.9540  -22.0080   35.5050 C   0  0  0  0  0  0
   79.6420  -21.1950   36.3890 O   0  0  0  0  0  0
   80.2530  -23.3240   35.8490 N   0  0  0  0  0  0
   80.5990  -24.3150   34.9620 C   0  0  0  0  0  0
   80.8610  -25.5210   35.4940 N   0  0  0  0  0  0
   80.6830  -24.1370   33.6500 N   0  0  0  0  0  0
   80.3990  -22.8650   33.2920 C   0  0  0  0  0  0
   86.5730  -17.2850   25.8070 P   0  0  2  0  0  0
   86.3290  -16.4160   27.0190 O   0  5  0  0  0  0
   86.0020  -16.8720   24.4710 O   0  0  0  0  0  0
   88.1350  -17.5610   25.6560 O   0  0  0  0  0  0
   89.0340  -16.5610   25.1330 C   0  0  0  0  0  0
   90.3740  -16.6680   25.8200 C   0  0  1  0  0  0
   90.2620  -16.1350   27.1690 O   0  0  0  0  0  0
   90.9050  -18.0910   25.9590 C   0  0  1  0  0  0
   92.3210  -18.0870   25.8240 O   0  0  0  0  0  0
   90.5200  -18.4650   27.3900 C   0  0  1  0  0  0
   91.3620  -19.4430   27.9730 O   0  0  0  0  0  0
   90.6530  -17.1210   28.1030 C   0  0  2  0  0  0
   89.8290  -16.9790   29.3000 N   0  3  0  0  0  0
   88.4930  -16.6760   29.3560 C   0  0  0  0  0  0
   88.0280  -16.5820   30.6370 N   0  0  0  0  0  0
   89.1580  -16.8590   31.4030 C   0  0  0  0  0  0
   89.3090  -16.9050   32.8140 C   0  0  0  0  0  0
   88.4550  -16.7140   33.6830 O   0  0  0  0  0  0
   90.6180  -17.2050   33.1830 N   0  0  0  0  0  0
   91.6520  -17.4350   32.3060 C   0  0  0  0  0  0
   92.8530  -17.6950   32.8540 N   0  0  0  0  0  0
   91.5240  -17.4060   30.9900 N   0  0  0  0  0  0
   90.2630  -17.1090   30.6080 C   0  0  0  0  0  0
   86.6920  -16.2190   31.0670 C   0  0  0  0  0  0
   83.7629  -22.4281   27.8788 H   0  0  0  0  0  0
   84.2608  -22.5188   29.6023 H   0  0  0  0  0  0
   82.7372  -24.2839   28.8672 H   0  0  0  0  0  0
   81.1019  -22.5159   27.4996 H   0  0  0  0  0  0
   80.9744  -24.9259   27.2338 H   0  0  0  0  0  0
   80.0650  -21.3716   29.4824 H   0  0  0  0  0  0
   78.2077  -22.3590   28.4130 H   0  0  0  0  0  0
   80.1150  -24.0979   30.9533 H   0  0  0  0  0  0
   79.9871  -20.3598   31.2551 H   0  0  0  0  0  0
   80.2218  -23.6377   36.9029 H   0  0  0  0  0  0
   80.7915  -25.6692   36.5818 H   0  0  0  0  0  0
   81.1449  -26.3600   34.8417 H   0  0  0  0  0  0
   89.1662  -16.7162   24.0521 H   0  0  0  0  0  0
   88.6131  -15.5604   25.3110 H   0  0  0  0  0  0
   91.0726  -16.0741   25.2124 H   0  0  0  0  0  0
   90.5701  -18.7963   25.1841 H   0  0  0  0  0  0
   92.7805  -17.8385   24.8560 H   0  0  0  0  0  0
   89.5574  -18.9888   27.4855 H   0  0  0  0  0  0
   91.3787  -20.4659   27.5688 H   0  0  0  0  0  0
   91.6846  -16.9557   28.4474 H   0  0  0  0  0  0
   87.8698  -16.5264   28.4743 H   0  0  0  0  0  0
   90.8876  -17.2727   34.2473 H   0  0  0  0  0  0
   92.9645  -17.7202   33.9480 H   0  0  0  0  0  0
   93.7234  -17.8824   32.2080 H   0  0  0  0  0  0
   86.0500  -16.0735   30.1857 H   0  0  0  0  0  0
   86.7346  -15.2857   31.6477 H   0  0  0  0  0  0
   86.2776  -17.0223   31.6939 H   0  0  0  0  0  0
  1  2  1  0  0  0
  1  3  2  0  0  0
  1  4  1  0  0  0
  1  5  1  0  0  0
  4 29  1  0  0  0
  5  6  1  0  0  0
  6  7  2  0  0  0
  6  8  1  0  0  0
  6  9  1  0  0  0
  9 10  1  0  0  0
 10 11  1  0  0  0
 10 53  1  0  0  0
 10 54  1  0  0  0
 11 12  1  0  0  0
 11 13  1  0  0  0
 11 55  1  0  0  0
 12 17  1  0  0  0
 13 14  1  0  0  0
 13 15  1  0  0  0
 13 56  1  0  0  0
 14 57  1  0  0  0
 15 16  1  0  0  0
 15 17  1  0  0  0
 15 58  1  0  0  0
 16 59  1  0  0  0
 17 18  1  0  0  0
 17 60  1  0  0  0
 18 19  1  0  0  0
 18 28  1  0  0  0
 19 20  2  0  0  0
 19 61  1  0  0  0
 20 21  1  0  0  0
 21 22  1  0  0  0
 21 28  2  0  0  0
 22 23  2  0  0  0
 22 24  1  0  0  0
 24 25  1  0  0  0
 24 62  1  0  0  0
 25 26  1  0  0  0
 25 27  2  0  0  0
 26 63  1  0  0  0
 26 64  1  0  0  0
 27 28  1  0  0  0
 29 30  1  0  0  0
 29 31  2  0  0  0
 29 32  1  0  0  0
 32 33  1  0  0  0
 33 34  1  0  0  0
 33 65  1  0  0  0
 33 66  1  0  0  0
 34 35  1  0  0  0
 34 36  1  0  0  0
 34 67  1  0  0  0
 35 40  1  0  0  0
 36 37  1  0  0  0
 36 38  1  0  0  0
 36 68  1  0  0  0
 37 69  1  0  0  0
 38 39  1  0  0  0
 38 40  1  0  0  0
 38 70  1  0  0  0
 39 71  1  0  0  0
 40 41  1  0  0  0
 40 72  1  0  0  0
 41 42  2  0  0  0
 41 51  1  0  0  0
 42 43  1  0  0  0
 42 73  1  0  0  0
 43 44  1  0  0  0
 43 52  1  0  0  0
 44 45  1  0  0  0
 44 51  2  0  0  0
 45 46  2  0  0  0
 45 47  1  0  0  0
 47 48  1  0  0  0
 47 74  1  0  0  0
 48 49  1  0  0  0
 48 50  2  0  0  0
 49 75  1  0  0  0
 49 76  1  0  0  0
 50 51  1  0  0  0
 52 77  1  0  0  0
 52 78  1  0  0  0
 52 79  1  0  0  0
M  CHG  4   2  -1   8  -1  30  -1  41   1
M  END
> <s_m_source_file>
../1h2u_ligand.sdf

> <i_m_source_file_index>
1

> <s_epik_input>
Tz1jMVtuSF1jKFtOSDJdKW5jKGMxMilbbitdKFtjSF1uMltDSDNdKVtDQEBIXShbQ0BIXShbT0hdKVtDQEBIXTNbT0hdKU9bQ0BASF0zW0NIMl1PW1BAXSg9TykoW09IXSlPW1BAQF0oPU8pKFtPSF0pT1tQQF0oPU8pKFtPSF0pT1tDSDJdW0NASF00T1tDQEhdKFtDQEhdKFtPSF0pW0NAQEhdNFtPSF0pbihbY0hdbjUpYyhjNTYpbmMoW05IMl0pW25IXWM2PU8=

> <s_epik_cmdline>
J2VwaWtfYXBwJywgJy1pbWFlJywgJ2xpZ2FuZF9wcm8ubWFlJywgJy1vbWFlJywgJ2xpZ2FuZF9wcmVwLm1hZScsICctbXMnLCAnMScsICctcGgnLCAnNycsICctcGh0JywgJzAuNScsICctbnQn

> <r_lp_tautomer_probability>
0.999940409345307

> <r_epik_Ionization_Penalty>
  0.1896

> <r_epik_Ionization_Penalty_Charging>
  0.1895

> <r_epik_Ionization_Penalty_Neutral>
  0.0001

> <r_epik_State_Penalty>
  0.4163

> <r_epik_Charging_Adjusted_Penalty>
0.605768801322273

> <i_epik_Tot_Q>
-2

> <i_epik_Tot_abs_Q>
4

> <s_epik_Chemistry_Notes>
This compound contains an acetal/aminal-like group ( X-CH(R)-Y where X, Y are N, S, or O) that may be acid/base labile, releasing an aldehyde.

$$$$
