1h35_ligand
                    3D
 Schrodinger Suite 2020-3.
 50 52  0  0  1  0            999 V2000
   67.4490   71.1630   70.9360 C   0  0  0  0  0  0
   66.5780   70.0460   70.3620 C   0  0  0  0  0  0
   66.4190   69.0270   71.0200 O   0  0  0  0  0  0
   65.8960   70.1440   69.0030 C   0  0  0  0  0  0
   64.5250   69.7740   68.8620 C   0  0  0  0  0  0
   63.8770   69.8650   67.5980 C   0  0  0  0  0  0
   64.5890   70.3250   66.4560 C   0  0  0  0  0  0
   63.5420   71.7120   64.6510 C   0  0  0  0  0  0
   62.8590   71.8560   63.4100 C   0  0  0  0  0  0
   62.5050   70.7140   62.6290 C   0  0  0  0  0  0
   61.7350   70.8680   61.2710 C   0  0  0  0  0  0
   62.8550   69.4160   63.1280 C   0  0  0  0  0  0
   63.5430   69.2720   64.3790 C   0  0  0  0  0  0
   62.5430   71.1380   60.0200 N   0  3  1  0  0  0
   63.2870   72.4380   60.0480 C   0  0  0  0  0  0
   63.4810   70.0030   59.7300 C   0  0  0  0  0  0
   62.9880   69.1310   58.5930 C   0  0  0  0  0  0
   63.6470   68.0450   58.1640 C   0  0  0  0  0  0
   65.9640   70.6960   66.5900 C   0  0  0  0  0  0
   66.6080   70.6030   67.8560 C   0  0  0  0  0  0
   68.7040   70.8500   71.5490 C   0  0  0  0  0  0
   69.5220   71.8900   72.0850 C   0  0  0  0  0  0
   69.0860   73.2470   72.0090 C   0  0  0  0  0  0
   63.8870   70.4280   65.1430 C   0  0  0  0  0  0
   70.1350   74.6120   72.6950 Br  0  0  0  0  0  0
   67.8400   73.5580   71.4020 C   0  0  0  0  0  0
   67.0280   72.5250   70.8710 C   0  0  0  0  0  0
   63.9693   69.4186   69.7297 H   0  0  0  0  0  0
   62.8289   69.5805   67.5047 H   0  0  0  0  0  0
   63.8024   72.5986   65.2290 H   0  0  0  0  0  0
   62.6025   72.8526   63.0508 H   0  0  0  0  0  0
   61.1799   69.9427   61.0573 H   0  0  0  0  0  0
   61.0307   71.7099   61.3423 H   0  0  0  0  0  0
   62.5955   68.5287   62.5505 H   0  0  0  0  0  0
   63.8032   68.2793   64.7463 H   0  0  0  0  0  0
   61.8169   71.2252   59.1983 H   0  0  0  0  0  0
   62.5851   73.2576   60.2615 H   0  0  0  0  0  0
   63.7639   72.6086   59.0715 H   0  0  0  0  0  0
   64.0583   72.4022   60.8315 H   0  0  0  0  0  0
   64.4666   70.4040   59.4511 H   0  0  0  0  0  0
   63.5818   69.3726   60.6258 H   0  0  0  0  0  0
   62.0423   69.4252   58.1144 H   0  0  0  0  0  0
   64.5927   67.7508   58.6426 H   0  0  0  0  0  0
   63.2419   67.4483   57.3334 H   0  0  0  0  0  0
   66.5193   71.0504   65.7216 H   0  0  0  0  0  0
   67.6565   70.8857   67.9497 H   0  0  0  0  0  0
   69.0364   69.8135   71.6068 H   0  0  0  0  0  0
   70.4772   71.6484   72.5512 H   0  0  0  0  0  0
   67.5074   74.5944   71.3444 H   0  0  0  0  0  0
   66.0727   72.7732   70.4085 H   0  0  0  0  0  0
  1  2  1  0  0  0
  1 21  2  0  0  0
  1 27  1  0  0  0
  2  3  2  0  0  0
  2  4  1  0  0  0
  4  5  2  0  0  0
  4 20  1  0  0  0
  5  6  1  0  0  0
  5 28  1  0  0  0
  6  7  2  0  0  0
  6 29  1  0  0  0
  7 19  1  0  0  0
  7 24  1  0  0  0
  8  9  2  0  0  0
  8 24  1  0  0  0
  8 30  1  0  0  0
  9 10  1  0  0  0
  9 31  1  0  0  0
 10 11  1  0  0  0
 10 12  2  0  0  0
 11 14  1  0  0  0
 11 32  1  0  0  0
 11 33  1  0  0  0
 12 13  1  0  0  0
 12 34  1  0  0  0
 13 24  2  0  0  0
 13 35  1  0  0  0
 14 15  1  0  0  0
 14 16  1  0  0  0
 14 36  1  0  0  0
 15 37  1  0  0  0
 15 38  1  0  0  0
 15 39  1  0  0  0
 16 17  1  0  0  0
 16 40  1  0  0  0
 16 41  1  0  0  0
 17 18  2  0  0  0
 17 42  1  0  0  0
 18 43  1  0  0  0
 18 44  1  0  0  0
 19 20  2  0  0  0
 19 45  1  0  0  0
 20 46  1  0  0  0
 21 22  1  0  0  0
 21 47  1  0  0  0
 22 23  2  0  0  0
 22 48  1  0  0  0
 23 25  1  0  0  0
 23 26  1  0  0  0
 26 27  2  0  0  0
 26 49  1  0  0  0
 27 50  1  0  0  0
M  CHG  1  14   1
M  END
> <s_m_source_file>
../1h35_ligand.sdf

> <i_m_source_file_index>
1

> <s_epik_input>
W2NIXTFbY0hdYyhCcilbY0hdW2NIXWMxQyg9TyljMltjSF1bY0hdYyhbY0hdW2NIXTIpLWMoW2NIXVtjSF0zKVtjSF1bY0hdYzNbQ0gyXVtOQEBIK10oW0NIM10pW0NIMl1bQ0hdPVtDSDJd

> <s_epik_cmdline>
J2VwaWtfYXBwJywgJy1pbWFlJywgJ2xpZ2FuZF9wcm8ubWFlJywgJy1vbWFlJywgJ2xpZ2FuZF9wcmVwLm1hZScsICctbXMnLCAnMScsICctcGgnLCAnNycsICctcGh0JywgJzAuNScsICctbnQn

> <r_epik_Ionization_Penalty>
  0.0463

> <r_epik_Ionization_Penalty_Charging>
  0.0463

> <r_epik_Ionization_Penalty_Neutral>
  0.0000

> <r_epik_State_Penalty>
  0.0394

> <r_epik_Charging_Adjusted_Penalty>
0.0856617741499457

> <i_epik_Tot_Q>
1

> <i_epik_Tot_abs_Q>
1

$$$$
