1h36_ligand
                    3D
 Schrodinger Suite 2020-3.
 47 49  0  0  1  0            999 V2000
   67.2630   70.5720   71.4220 C   0  0  0  0  0  0
   66.1310   69.8080   70.7610 C   0  0  0  0  0  0
   65.4110   69.1320   71.4890 O   0  0  0  0  0  0
   65.8410   69.8230   69.2550 C   0  0  0  0  0  0
   64.6280   69.2380   68.7750 C   0  0  0  0  0  0
   64.3280   69.2280   67.3910 C   0  0  0  0  0  0
   65.2400   69.8080   66.4560 C   0  0  0  0  0  0
   63.7110   70.3820   64.6920 C   0  0  0  0  0  0
   63.7110   70.4470   63.1970 C   0  0  0  0  0  0
   63.9390   71.5740   62.5280 C   0  0  0  0  0  0
   63.9510   71.6640   61.0140 C   0  0  0  0  0  0
   62.6080   71.9170   60.3700 N   0  0  2  0  0  0
   61.8180   72.9720   61.0740 C   0  0  0  0  0  0
   61.8950   70.6160   60.1200 C   0  0  0  0  0  0
   62.5720   69.3970   59.4290 C   0  0  0  0  0  0
   66.4490   70.3940   66.9220 C   0  0  0  0  0  0
   66.7490   70.4020   68.3110 C   0  0  0  0  0  0
   67.3440   71.9970   71.3580 C   0  0  0  0  0  0
   68.4120   72.6780   71.9980 C   0  0  0  0  0  0
   69.4010   71.9400   72.7060 C   0  0  0  0  0  0
   64.9670   69.8030   65.0830 O   0  0  0  0  0  0
   61.5770   70.2770   58.6450 C   0  0  0  0  0  0
   70.7830   72.8210   73.5480 Br  0  0  0  0  0  0
   69.3250   70.5240   72.7720 C   0  0  0  0  0  0
   68.2590   69.8430   72.1320 C   0  0  0  0  0  0
   63.9265   68.7949   69.4819 H   0  0  0  0  0  0
   63.4003   68.7773   67.0384 H   0  0  0  0  0  0
   63.6041   71.3967   65.1031 H   0  0  0  0  0  0
   62.8711   69.7583   65.0319 H   0  0  0  0  0  0
   63.5122   69.5134   62.6502 H   0  0  0  0  0  0
   64.1328   72.5086   63.0748 H   0  0  0  0  0  0
   64.6070   72.4896   60.7010 H   0  0  0  0  0  0
   64.3250   70.7189   60.5934 H   0  0  0  0  0  0
   62.4383   73.8716   61.2002 H   0  0  0  0  0  0
   61.5069   72.5996   62.0612 H   0  0  0  0  0  0
   60.9272   73.2214   60.4788 H   0  0  0  0  0  0
   61.3615   70.7439   61.0735 H   0  0  0  0  0  0
   63.6638   69.5305   59.4375 H   0  0  0  0  0  0
   62.3109   68.4764   59.9715 H   0  0  0  0  0  0
   67.1471   70.8380   66.2123 H   0  0  0  0  0  0
   67.6779   70.8525   68.6608 H   0  0  0  0  0  0
   66.5847   72.5617   70.8170 H   0  0  0  0  0  0
   68.4745   73.7650   71.9472 H   0  0  0  0  0  0
   60.5011   70.0738   58.5392 H   0  0  0  0  0  0
   61.8541   71.1279   58.0053 H   0  0  0  0  0  0
   70.0851   69.9612   73.3139 H   0  0  0  0  0  0
   68.2015   68.7557   72.1837 H   0  0  0  0  0  0
  1  2  1  0  0  0
  1 18  2  0  0  0
  1 25  1  0  0  0
  2  3  2  0  0  0
  2  4  1  0  0  0
  4  5  2  0  0  0
  4 17  1  0  0  0
  5  6  1  0  0  0
  5 26  1  0  0  0
  6  7  2  0  0  0
  6 27  1  0  0  0
  7 16  1  0  0  0
  7 21  1  0  0  0
  8  9  1  0  0  0
  8 21  1  0  0  0
  8 28  1  0  0  0
  8 29  1  0  0  0
  9 10  2  0  0  0
  9 30  1  0  0  0
 10 11  1  0  0  0
 10 31  1  0  0  0
 11 12  1  0  0  0
 11 32  1  0  0  0
 11 33  1  0  0  0
 12 13  1  0  0  0
 12 14  1  0  0  0
 13 34  1  0  0  0
 13 35  1  0  0  0
 13 36  1  0  0  0
 14 15  1  0  0  0
 14 22  1  0  0  0
 14 37  1  0  0  0
 15 22  1  0  0  0
 15 38  1  0  0  0
 15 39  1  0  0  0
 16 17  2  0  0  0
 16 40  1  0  0  0
 17 41  1  0  0  0
 18 19  1  0  0  0
 18 42  1  0  0  0
 19 20  2  0  0  0
 19 43  1  0  0  0
 20 23  1  0  0  0
 20 24  1  0  0  0
 22 44  1  0  0  0
 22 45  1  0  0  0
 24 25  2  0  0  0
 24 46  1  0  0  0
 25 47  1  0  0  0
M  END
> <s_m_source_file>
../1h36_ligand.sdf

> <i_m_source_file_index>
1

> <s_epik_input>
W2NIXTFbY0hdYyhCcilbY0hdW2NIXWMxQyg9TyljMltjSF1bY0hdYyhbY0hdW2NIXTIpT1tDSDJdL1tDSF09W0NIXS9bQ0gyXVtOQEgrXShbQ0gzXSlbQ0hdM1tDSDJdW0NIMl0z

> <s_epik_cmdline>
J2VwaWtfYXBwJywgJy1pbWFlJywgJ2xpZ2FuZF9wcm8ubWFlJywgJy1vbWFlJywgJ2xpZ2FuZF9wcmVwLm1hZScsICctbXMnLCAnMScsICctcGgnLCAnNycsICctcGh0JywgJzAuNScsICctbnQn

> <r_epik_Ionization_Penalty>
  0.3110

> <r_epik_Ionization_Penalty_Charging>
  0.0000

> <r_epik_Ionization_Penalty_Neutral>
  0.3110

> <r_epik_State_Penalty>
  0.3051

> <r_epik_Charging_Adjusted_Penalty>
0.30506112039538

> <i_epik_Tot_Q>
0

> <i_epik_Tot_abs_Q>
0

$$$$
