1h37_ligand
                    3D
 Schrodinger Suite 2020-3.
 55 58  0  0  1  0            999 V2000
   68.3100   72.0150   71.8920 C   0  0  0  0  0  0
   67.5870   70.7240   71.5000 C   0  0  0  0  0  0
   67.7490   69.7390   72.2130 O   0  0  0  0  0  0
   66.6880   70.5810   70.2600 C   0  0  0  0  0  0
   66.8070   71.4690   69.1550 C   0  0  0  0  0  0
   65.9860   71.3330   68.0120 C   0  0  0  0  0  0
   65.0190   70.2970   67.9370 C   0  0  0  0  0  0
   64.1910   70.1580   66.7900 O   0  0  0  0  0  0
   64.8250   70.2910   65.4800 C   0  0  0  0  0  0
   63.7840   69.8340   64.4140 C   0  0  1  0  0  0
   62.4360   70.5930   64.4980 C   0  0  0  0  0  0
   62.5220   73.6180   60.4650 C   0  0  0  0  0  0
   63.3520   72.4470   61.0210 C   0  0  0  0  0  0
   62.8540   71.0640   60.7390 N   0  3  2  0  0  0
   62.9110   70.1750   61.9550 C   0  0  0  0  0  0
   63.6140   70.5060   59.5980 C   0  0  0  0  0  0
   62.9420   69.3440   58.8940 C   0  0  0  0  0  0
   63.6450   68.3260   58.3880 C   0  0  0  0  0  0
   64.8850   69.3960   69.0420 C   0  0  0  0  0  0
   65.7150   69.5370   70.1960 C   0  0  0  0  0  0
   67.6610   73.2840   71.7950 C   0  0  0  0  0  0
   68.3380   74.4690   72.1530 C   0  0  0  0  0  0
   69.6770   74.4130   72.6190 C   0  0  0  0  0  0
   70.5440   75.9910   73.0740 Br  0  0  0  0  0  0
   70.3410   73.1500   72.7280 C   0  0  0  0  0  0
   63.3650   70.8300   63.2970 C   0  0  2  0  0  0
   63.9100   73.3290   59.8700 C   0  0  0  0  0  0
   69.6590   71.9580   72.3660 C   0  0  0  0  0  0
   67.5455   72.2699   69.1902 H   0  0  0  0  0  0
   66.0967   72.0299   67.1812 H   0  0  0  0  0  0
   65.1109   71.3404   65.3159 H   0  0  0  0  0  0
   65.7224   69.6561   65.4408 H   0  0  0  0  0  0
   64.1270   68.7890   64.3984 H   0  0  0  0  0  0
   61.6084   69.8688   64.5235 H   0  0  0  0  0  0
   62.4160   71.2049   65.4119 H   0  0  0  0  0  0
   61.5712   73.2360   60.0649 H   0  0  0  0  0  0
   62.3177   74.3380   61.2712 H   0  0  0  0  0  0
   63.7309   72.1173   61.9997 H   0  0  0  0  0  0
   61.7936   71.1156   60.4511 H   0  0  0  0  0  0
   61.9114   69.7610   62.1537 H   0  0  0  0  0  0
   63.6193   69.3528   61.7752 H   0  0  0  0  0  0
   63.7671   71.2895   58.8412 H   0  0  0  0  0  0
   64.5900   70.1413   59.9508 H   0  0  0  0  0  0
   61.8456   69.3532   58.8051 H   0  0  0  0  0  0
   64.7414   68.3168   58.4769 H   0  0  0  0  0  0
   63.1272   67.4974   57.8827 H   0  0  0  0  0  0
   64.1445   68.5971   69.0022 H   0  0  0  0  0  0
   65.6055   68.8452   71.0312 H   0  0  0  0  0  0
   66.6316   73.3373   71.4406 H   0  0  0  0  0  0
   67.8308   75.4304   72.0713 H   0  0  0  0  0  0
   71.3686   73.1029   73.0883 H   0  0  0  0  0  0
   63.8194   71.7199   62.8370 H   0  0  0  0  0  0
   63.8101   73.1069   58.7973 H   0  0  0  0  0  0
   64.5566   74.2088   60.0036 H   0  0  0  0  0  0
   70.1650   70.9962   72.4495 H   0  0  0  0  0  0
  1  2  1  0  0  0
  1 21  2  0  0  0
  1 28  1  0  0  0
  2  3  2  0  0  0
  2  4  1  0  0  0
  4  5  2  0  0  0
  4 20  1  0  0  0
  5  6  1  0  0  0
  5 29  1  0  0  0
  6  7  2  0  0  0
  6 30  1  0  0  0
  7  8  1  0  0  0
  7 19  1  0  0  0
  8  9  1  0  0  0
  9 10  1  0  0  0
  9 31  1  0  0  0
  9 32  1  0  0  0
 10 11  1  0  0  0
 10 26  1  0  0  0
 10 33  1  0  0  0
 11 26  1  0  0  0
 11 34  1  0  0  0
 11 35  1  0  0  0
 12 13  1  0  0  0
 12 27  1  0  0  0
 12 36  1  0  0  0
 12 37  1  0  0  0
 13 14  1  0  0  0
 13 27  1  0  0  0
 13 38  1  0  0  0
 14 15  1  0  0  0
 14 16  1  0  0  0
 14 39  1  0  0  0
 15 26  1  0  0  0
 15 40  1  0  0  0
 15 41  1  0  0  0
 16 17  1  0  0  0
 16 42  1  0  0  0
 16 43  1  0  0  0
 17 18  2  0  0  0
 17 44  1  0  0  0
 18 45  1  0  0  0
 18 46  1  0  0  0
 19 20  2  0  0  0
 19 47  1  0  0  0
 20 48  1  0  0  0
 21 22  1  0  0  0
 21 49  1  0  0  0
 22 23  2  0  0  0
 22 50  1  0  0  0
 23 24  1  0  0  0
 23 25  1  0  0  0
 25 28  2  0  0  0
 25 51  1  0  0  0
 26 52  1  0  0  0
 27 53  1  0  0  0
 27 54  1  0  0  0
 28 55  1  0  0  0
M  CHG  1  14   1
M  END
> <s_m_source_file>
../1h37_ligand.sdf

> <i_m_source_file_index>
1

> <s_epik_input>
W2NIXTFbY0hdYyhCcilbY0hdW2NIXWMxQyg9TyljMltjSF1bY0hdYyhbY0hdW2NIXTIpT1tDSDJdW0NASF0zW0NIMl1bQ0BASF0zW0NIMl1bTkBASCtdKFtDSF00W0NIMl1bQ0gyXTQpW0NIMl1bQ0hdPVtDSDJd

> <s_epik_cmdline>
J2VwaWtfYXBwJywgJy1pbWFlJywgJ2xpZ2FuZF9wcm8ubWFlJywgJy1vbWFlJywgJ2xpZ2FuZF9wcmVwLm1hZScsICctbXMnLCAnMScsICctcGgnLCAnNycsICctcGh0JywgJzAuNScsICctbnQn

> <r_epik_Ionization_Penalty>
  0.2589

> <r_epik_Ionization_Penalty_Charging>
  0.2589

> <r_epik_Ionization_Penalty_Neutral>
  0.0000

> <r_epik_State_Penalty>
  0.2505

> <r_epik_Charging_Adjusted_Penalty>
0.509378653718102

> <i_epik_Tot_Q>
1

> <i_epik_Tot_abs_Q>
1

$$$$
