1h39_ligand
                    3D
 Schrodinger Suite 2020-3.
 60 62  0  0  1  0            999 V2000
   62.8900   69.3740   58.5870 C   0  0  0  0  0  0
   61.9930   69.4620   59.5790 C   0  0  0  0  0  0
   61.5190   70.7790   60.1670 C   0  0  0  0  0  0
   62.5280   71.4070   61.0700 N   0  3  2  0  0  0
   62.3000   71.0920   62.5110 C   0  0  0  0  0  0
   63.1560   69.9230   63.0730 C   0  0  0  0  0  0
   63.9750   70.3640   64.3160 C   0  0  0  0  0  0
   63.2170   70.0490   65.6410 C   0  0  0  0  0  0
   63.9320   68.9460   66.4700 C   0  0  0  0  0  0
   65.1380   69.5080   67.2640 C   0  0  0  0  0  0
   64.6590   70.0380   68.5190 O   0  0  0  0  0  0
   65.6330   70.6750   69.3060 C   0  0  0  0  0  0
   66.4590   69.9060   70.1890 C   0  0  0  0  0  0
   67.4360   70.5990   70.9720 C   0  0  0  0  0  0
   68.3120   70.1010   71.8580 N   0  0  0  0  0  0
   68.9630   71.0580   72.2970 N   0  0  0  0  0  0
   68.6080   72.2360   71.7760 C   0  0  0  0  0  0
   67.5760   71.9970   70.8720 C   0  0  0  0  0  0
   66.7640   72.7810   70.0020 C   0  0  0  0  0  0
   65.7880   72.0950   69.2190 C   0  0  0  0  0  0
   69.2490   73.5680   72.1390 C   0  0  0  0  0  0
   70.5660   73.8800   71.6870 C   0  0  0  0  0  0
   71.1800   75.1220   72.0260 C   0  0  0  0  0  0
   70.4800   76.0690   72.8270 C   0  0  0  0  0  0
   69.1580   75.7640   73.2820 C   0  0  0  0  0  0
   68.5450   74.5180   72.9390 C   0  0  0  0  0  0
   71.2900   77.6870   73.2790 Br  0  0  0  0  0  0
   68.4780   68.6970   72.2410 C   0  0  0  0  0  0
   62.5310   72.8870   60.8850 C   0  0  0  0  0  0
   63.3239   70.2879   58.1552 H   0  0  0  0  0  0
   63.1923   68.3879   58.2047 H   0  0  0  0  0  0
   61.5591   68.5481   60.0108 H   0  0  0  0  0  0
   61.3086   71.4891   59.3537 H   0  0  0  0  0  0
   60.6033   70.6106   60.7527 H   0  0  0  0  0  0
   63.5036   70.9824   60.7909 H   0  0  0  0  0  0
   62.5360   71.9761   63.1214 H   0  0  0  0  0  0
   61.2472   70.8120   62.6630 H   0  0  0  0  0  0
   62.4959   69.0937   63.3673 H   0  0  0  0  0  0
   63.8569   69.5768   62.2992 H   0  0  0  0  0  0
   64.9366   69.8300   64.3298 H   0  0  0  0  0  0
   64.1580   71.4476   64.2690 H   0  0  0  0  0  0
   63.1598   70.9592   66.2560 H   0  0  0  0  0  0
   62.2004   69.6997   65.4077 H   0  0  0  0  0  0
   63.2221   68.5083   67.1872 H   0  0  0  0  0  0
   64.3013   68.1607   65.7940 H   0  0  0  0  0  0
   65.8620   68.7012   67.4509 H   0  0  0  0  0  0
   65.6209   70.3062   66.6811 H   0  0  0  0  0  0
   66.3464   68.8243   70.2622 H   0  0  0  0  0  0
   66.8838   73.8625   69.9372 H   0  0  0  0  0  0
   65.1491   72.6627   68.5425 H   0  0  0  0  0  0
   71.1096   73.1602   71.0750 H   0  0  0  0  0  0
   72.1860   75.3466   71.6716 H   0  0  0  0  0  0
   68.6152   76.4850   73.8932 H   0  0  0  0  0  0
   67.5376   74.2932   73.2894 H   0  0  0  0  0  0
   67.7592   68.0777   71.6844 H   0  0  0  0  0  0
   68.2974   68.5876   73.3205 H   0  0  0  0  0  0
   69.5020   68.3714   72.0057 H   0  0  0  0  0  0
   62.6988   73.1235   59.8239 H   0  0  0  0  0  0
   63.3346   73.3306   61.4911 H   0  0  0  0  0  0
   61.5618   73.2983   61.2035 H   0  0  0  0  0  0
  1  2  2  0  0  0
  1 30  1  0  0  0
  1 31  1  0  0  0
  2  3  1  0  0  0
  2 32  1  0  0  0
  3  4  1  0  0  0
  3 33  1  0  0  0
  3 34  1  0  0  0
  4  5  1  0  0  0
  4 29  1  0  0  0
  4 35  1  0  0  0
  5  6  1  0  0  0
  5 36  1  0  0  0
  5 37  1  0  0  0
  6  7  1  0  0  0
  6 38  1  0  0  0
  6 39  1  0  0  0
  7  8  1  0  0  0
  7 40  1  0  0  0
  7 41  1  0  0  0
  8  9  1  0  0  0
  8 42  1  0  0  0
  8 43  1  0  0  0
  9 10  1  0  0  0
  9 44  1  0  0  0
  9 45  1  0  0  0
 10 11  1  0  0  0
 10 46  1  0  0  0
 10 47  1  0  0  0
 11 12  1  0  0  0
 12 13  2  0  0  0
 12 20  1  0  0  0
 13 14  1  0  0  0
 13 48  1  0  0  0
 14 15  1  0  0  0
 14 18  2  0  0  0
 15 16  1  0  0  0
 15 28  1  0  0  0
 16 17  2  0  0  0
 17 18  1  0  0  0
 17 21  1  0  0  0
 18 19  1  0  0  0
 19 20  2  0  0  0
 19 49  1  0  0  0
 20 50  1  0  0  0
 21 22  2  0  0  0
 21 26  1  0  0  0
 22 23  1  0  0  0
 22 51  1  0  0  0
 23 24  2  0  0  0
 23 52  1  0  0  0
 24 25  1  0  0  0
 24 27  1  0  0  0
 25 26  2  0  0  0
 25 53  1  0  0  0
 26 54  1  0  0  0
 28 55  1  0  0  0
 28 56  1  0  0  0
 28 57  1  0  0  0
 29 58  1  0  0  0
 29 59  1  0  0  0
 29 60  1  0  0  0
M  CHG  1   4   1
M  END
> <s_m_source_file>
../1h39_ligand.sdf

> <i_m_source_file_index>
1

> <s_epik_input>
W0NIMl09W0NIXVtDSDJdW05AQEgrXShbQ0gzXSlbQ0gyXVtDSDJdW0NIMl1bQ0gyXVtDSDJdW0NIMl1PYyhbY0hdMSlbY0hdW2NIXWMoYzEyKWMobm4yW0NIM10pLWMzW2NIXVtjSF1jKEJyKVtjSF1bY0hdMw==

> <s_epik_cmdline>
J2VwaWtfYXBwJywgJy1pbWFlJywgJ2xpZ2FuZF9wcm8ubWFlJywgJy1vbWFlJywgJ2xpZ2FuZF9wcmVwLm1hZScsICctbXMnLCAnMScsICctcGgnLCAnNycsICctcGh0JywgJzAuNScsICctbnQn

> <r_lp_tautomer_probability>
1

> <r_epik_Ionization_Penalty>
  0.0074

> <r_epik_Ionization_Penalty_Charging>
  0.0074

> <r_epik_Ionization_Penalty_Neutral>
  0.0000

> <r_epik_State_Penalty>
 -0.0000

> <r_epik_Charging_Adjusted_Penalty>
0.00740627652126178

> <i_epik_Tot_Q>
1

> <i_epik_Tot_abs_Q>
1

$$$$
