1h3a_ligand
                    3D
 Schrodinger Suite 2020-3.
 52 54  0  0  1  0            999 V2000
   63.1990   69.3230   57.6810 C   0  0  0  0  0  0
   62.3130   69.2220   58.6800 C   0  0  0  0  0  0
   61.7620   70.4210   59.4260 C   0  0  0  0  0  0
   62.8440   71.3720   59.8170 N   0  3  2  0  0  0
   63.6060   70.9250   61.0380 C   0  0  0  0  0  0
   62.8450   70.9730   62.3540 C   0  0  0  0  0  0
   62.7170   69.9070   63.1650 C   0  0  0  0  0  0
   61.9670   69.9620   64.4810 C   0  0  0  0  0  0
   62.5860   69.0430   65.4160 O   0  0  0  0  0  0
   63.5370   69.5900   66.3400 C   0  0  0  0  0  0
   63.9490   70.9650   66.2660 C   0  0  0  0  0  0
   64.8930   71.4390   67.2010 C   0  0  0  0  0  0
   65.4050   72.6690   67.3070 N   0  0  0  0  0  0
   66.1870   72.6720   68.2410 N   0  0  0  0  0  0
   66.2800   71.4860   68.8450 C   0  0  0  0  0  0
   65.4230   70.5940   68.1900 C   0  0  0  0  0  0
   65.0300   69.2140   68.2950 C   0  0  0  0  0  0
   64.0740   68.7300   67.3470 C   0  0  0  0  0  0
   67.2010   71.2800   70.0320 C   0  0  0  0  0  0
   67.6540   69.9860   70.4470 C   0  0  0  0  0  0
   68.5200   69.8510   71.5710 C   0  0  0  0  0  0
   68.9380   71.0120   72.2840 C   0  0  0  0  0  0
   68.4880   72.2990   71.8690 C   0  0  0  0  0  0
   67.6280   72.4250   70.7540 C   0  0  0  0  0  0
   63.6830   67.4580   67.4060 F   0  0  0  0  0  0
   70.0640   70.8500   73.7520 Br  0  0  0  0  0  0
   65.1030   73.8280   66.4620 C   0  0  0  0  0  0
   62.3000   72.7590   59.9970 C   0  0  0  0  0  0
   63.5618   70.3124   57.3656 H   0  0  0  0  0  0
   63.5640   68.4166   57.1758 H   0  0  0  0  0  0
   61.9502   68.2326   58.9954 H   0  0  0  0  0  0
   61.0465   70.9554   58.7837 H   0  0  0  0  0  0
   61.2521   70.0817   60.3397 H   0  0  0  0  0  0
   63.5590   71.3811   58.9811 H   0  0  0  0  0  0
   63.9260   69.8806   60.9085 H   0  0  0  0  0  0
   64.4901   71.5653   61.1732 H   0  0  0  0  0  0
   62.3880   71.9340   62.6325 H   0  0  0  0  0  0
   63.1670   68.9438   62.8825 H   0  0  0  0  0  0
   62.0081   70.9847   64.8839 H   0  0  0  0  0  0
   60.9180   69.6742   64.3175 H   0  0  0  0  0  0
   63.5405   71.6278   65.5032 H   0  0  0  0  0  0
   65.4438   68.5636   69.0656 H   0  0  0  0  0  0
   67.3345   69.0991   69.8998 H   0  0  0  0  0  0
   68.8611   68.8641   71.8839 H   0  0  0  0  0  0
   68.8076   73.1882   72.4125 H   0  0  0  0  0  0
   67.2887   73.4137   70.4450 H   0  0  0  0  0  0
   64.3647   73.5425   65.6982 H   0  0  0  0  0  0
   66.0244   74.1733   65.9703 H   0  0  0  0  0  0
   64.6933   74.6379   67.0834 H   0  0  0  0  0  0
   61.7502   73.0575   59.0922 H   0  0  0  0  0  0
   63.1307   73.4592   60.1689 H   0  0  0  0  0  0
   61.6204   72.7769   60.8617 H   0  0  0  0  0  0
  1  2  2  0  0  0
  1 29  1  0  0  0
  1 30  1  0  0  0
  2  3  1  0  0  0
  2 31  1  0  0  0
  3  4  1  0  0  0
  3 32  1  0  0  0
  3 33  1  0  0  0
  4  5  1  0  0  0
  4 28  1  0  0  0
  4 34  1  0  0  0
  5  6  1  0  0  0
  5 35  1  0  0  0
  5 36  1  0  0  0
  6  7  2  0  0  0
  6 37  1  0  0  0
  7  8  1  0  0  0
  7 38  1  0  0  0
  8  9  1  0  0  0
  8 39  1  0  0  0
  8 40  1  0  0  0
  9 10  1  0  0  0
 10 11  2  0  0  0
 10 18  1  0  0  0
 11 12  1  0  0  0
 11 41  1  0  0  0
 12 13  1  0  0  0
 12 16  2  0  0  0
 13 14  1  0  0  0
 13 27  1  0  0  0
 14 15  2  0  0  0
 15 16  1  0  0  0
 15 19  1  0  0  0
 16 17  1  0  0  0
 17 18  2  0  0  0
 17 42  1  0  0  0
 18 25  1  0  0  0
 19 20  2  0  0  0
 19 24  1  0  0  0
 20 21  1  0  0  0
 20 43  1  0  0  0
 21 22  2  0  0  0
 21 44  1  0  0  0
 22 23  1  0  0  0
 22 26  1  0  0  0
 23 24  2  0  0  0
 23 45  1  0  0  0
 24 46  1  0  0  0
 27 47  1  0  0  0
 27 48  1  0  0  0
 27 49  1  0  0  0
 28 50  1  0  0  0
 28 51  1  0  0  0
 28 52  1  0  0  0
M  CHG  1   4   1
M  END
> <s_m_source_file>
../1h3a_ligand.sdf

> <i_m_source_file_index>
1

> <s_epik_input>
W0NIMl09W0NIXVtDSDJdW05AQEgrXShbQ0gzXSlbQ0gyXS9bQ0hdPVtDSF0vW0NIMl1PYyhbY0hdMSljKEYpW2NIXWMoYzEyKWMobm4yW0NIM10pLWMzW2NIXVtjSF1jKEJyKVtjSF1bY0hdMw==

> <s_epik_cmdline>
J2VwaWtfYXBwJywgJy1pbWFlJywgJ2xpZ2FuZF9wcm8ubWFlJywgJy1vbWFlJywgJ2xpZ2FuZF9wcmVwLm1hZScsICctbXMnLCAnMScsICctcGgnLCAnNycsICctcGh0JywgJzAuNScsICctbnQn

> <r_lp_tautomer_probability>
1

> <r_epik_Ionization_Penalty>
  0.1242

> <r_epik_Ionization_Penalty_Charging>
  0.1242

> <r_epik_Ionization_Penalty_Neutral>
  0.0000

> <r_epik_State_Penalty>
  0.1137

> <r_epik_Charging_Adjusted_Penalty>
0.237859659707916

> <i_epik_Tot_Q>
1

> <i_epik_Tot_abs_Q>
1

$$$$
