1h3b_ligand
                    3D
 Schrodinger Suite 2020-3.
 56 58  0  0  1  0            999 V2000
   63.5350   67.5640   58.0500 C   0  0  0  0  0  0
   63.3640   68.8740   58.2570 C   0  0  0  0  0  0
   62.0090   69.5080   58.4530 C   0  0  0  0  0  0
   62.0400   70.6380   59.4220 N   0  3  2  0  0  0
   62.2070   70.2270   60.8510 C   0  0  0  0  0  0
   62.2050   71.3570   61.9130 C   0  0  0  0  0  0
   63.4780   71.3250   62.8160 C   0  0  0  0  0  0
   63.6480   70.0070   63.6460 C   0  0  0  0  0  0
   62.3510   69.5920   64.4220 C   0  0  0  0  0  0
   62.4860   69.7140   65.9620 C   0  0  0  0  0  0
   63.7090   69.0920   66.3980 O   0  0  0  0  0  0
   64.5150   69.6940   67.3780 C   0  0  0  0  0  0
   65.1610   70.9130   67.0510 C   0  0  0  0  0  0
   65.9900   71.5690   68.0040 C   0  0  0  0  0  0
   66.9900   73.1300   70.4060 N   0  0  0  0  0  0
   67.0920   71.7810   70.2660 C   0  0  0  0  0  0
   66.1920   71.0230   69.3050 C   0  0  0  0  0  0
   65.5370   69.7880   69.6420 C   0  0  0  0  0  0
   64.7060   69.1260   68.6910 C   0  0  0  0  0  0
   68.0700   71.2510   71.0680 C   0  0  0  0  0  0
   68.4940   69.9050   71.2230 C   0  0  0  0  0  0
   69.5250   69.6210   72.1180 C   0  0  0  0  0  0
   67.9640   73.8700   71.4260 S   0  0  0  0  0  0
   70.1370   70.6600   72.8580 C   0  0  0  0  0  0
   69.7270   72.0000   72.7140 C   0  0  0  0  0  0
   68.6840   72.3020   71.8120 C   0  0  0  0  0  0
   71.4810   70.2380   74.0180 Br  0  0  0  0  0  0
   60.8420   71.4920   59.2250 C   0  0  0  0  0  0
   62.6632   66.8941   58.0164 H   0  0  0  0  0  0
   64.5475   67.1563   57.9133 H   0  0  0  0  0  0
   64.2358   69.5439   58.2906 H   0  0  0  0  0  0
   61.6441   69.8979   57.4913 H   0  0  0  0  0  0
   61.3037   68.7552   58.8348 H   0  0  0  0  0  0
   62.9443   71.2230   59.1981 H   0  0  0  0  0  0
   61.3871   69.5515   61.1364 H   0  0  0  0  0  0
   63.1691   69.7080   60.9732 H   0  0  0  0  0  0
   62.1700   72.3340   61.4088 H   0  0  0  0  0  0
   61.3241   71.2480   62.5628 H   0  0  0  0  0  0
   64.3755   71.4275   62.1883 H   0  0  0  0  0  0
   63.4376   72.1554   63.5363 H   0  0  0  0  0  0
   63.9091   69.1792   62.9702 H   0  0  0  0  0  0
   64.4492   70.1415   64.3876 H   0  0  0  0  0  0
   61.5161   70.2378   64.1124 H   0  0  0  0  0  0
   62.1074   68.5436   64.1948 H   0  0  0  0  0  0
   62.4984   70.7767   66.2459 H   0  0  0  0  0  0
   61.6331   69.2152   66.4455 H   0  0  0  0  0  0
   65.0218   71.3509   66.0626 H   0  0  0  0  0  0
   66.4789   72.5051   67.7342 H   0  0  0  0  0  0
   65.6769   69.3545   70.6323 H   0  0  0  0  0  0
   64.2144   68.1899   68.9559 H   0  0  0  0  0  0
   68.0212   69.1063   70.6515 H   0  0  0  0  0  0
   69.8614   68.5924   72.2482 H   0  0  0  0  0  0
   70.2074   72.7910   73.2899 H   0  0  0  0  0  0
   60.7597   71.7690   58.1636 H   0  0  0  0  0  0
   60.9363   72.4023   59.8353 H   0  0  0  0  0  0
   59.9423   70.9375   59.5301 H   0  0  0  0  0  0
  1  2  2  0  0  0
  1 29  1  0  0  0
  1 30  1  0  0  0
  2  3  1  0  0  0
  2 31  1  0  0  0
  3  4  1  0  0  0
  3 32  1  0  0  0
  3 33  1  0  0  0
  4  5  1  0  0  0
  4 28  1  0  0  0
  4 34  1  0  0  0
  5  6  1  0  0  0
  5 35  1  0  0  0
  5 36  1  0  0  0
  6  7  1  0  0  0
  6 37  1  0  0  0
  6 38  1  0  0  0
  7  8  1  0  0  0
  7 39  1  0  0  0
  7 40  1  0  0  0
  8  9  1  0  0  0
  8 41  1  0  0  0
  8 42  1  0  0  0
  9 10  1  0  0  0
  9 43  1  0  0  0
  9 44  1  0  0  0
 10 11  1  0  0  0
 10 45  1  0  0  0
 10 46  1  0  0  0
 11 12  1  0  0  0
 12 13  2  0  0  0
 12 19  1  0  0  0
 13 14  1  0  0  0
 13 47  1  0  0  0
 14 17  2  0  0  0
 14 48  1  0  0  0
 15 16  2  0  0  0
 15 23  1  0  0  0
 16 17  1  0  0  0
 16 20  1  0  0  0
 17 18  1  0  0  0
 18 19  2  0  0  0
 18 49  1  0  0  0
 19 50  1  0  0  0
 20 21  2  0  0  0
 20 26  1  0  0  0
 21 22  1  0  0  0
 21 51  1  0  0  0
 22 24  2  0  0  0
 22 52  1  0  0  0
 23 26  1  0  0  0
 24 25  1  0  0  0
 24 27  1  0  0  0
 25 26  2  0  0  0
 25 53  1  0  0  0
 28 54  1  0  0  0
 28 55  1  0  0  0
 28 56  1  0  0  0
M  CHG  1   4   1
M  END
> <s_m_source_file>
../1h3b_ligand.sdf

> <i_m_source_file_index>
1

> <s_epik_input>
W0NIMl09W0NIXVtDSDJdW05AQEgrXShbQ0gzXSlbQ0gyXVtDSDJdW0NIMl1bQ0gyXVtDSDJdW0NIMl1PYzFbY0hdW2NIXWMoW2NIXVtjSF0xKS1jMm5zYyhjMjMpW2NIXWMoQnIpW2NIXVtjSF0z

> <s_epik_cmdline>
J2VwaWtfYXBwJywgJy1pbWFlJywgJ2xpZ2FuZF9wcm8ubWFlJywgJy1vbWFlJywgJ2xpZ2FuZF9wcmVwLm1hZScsICctbXMnLCAnMScsICctcGgnLCAnNycsICctcGh0JywgJzAuNScsICctbnQn

> <r_lp_tautomer_probability>
1

> <r_epik_Ionization_Penalty>
  0.0074

> <r_epik_Ionization_Penalty_Charging>
  0.0074

> <r_epik_Ionization_Penalty_Neutral>
  0.0000

> <r_epik_State_Penalty>
 -0.0000

> <r_epik_Charging_Adjusted_Penalty>
0.00740627652126178

> <i_epik_Tot_Q>
1

> <i_epik_Tot_abs_Q>
1

$$$$
