1h3c_ligand
                    3D
 Schrodinger Suite 2020-3.
 56 58  0  0  1  0            999 V2000
   63.1060   69.2390   59.0870 C   0  0  0  0  0  0
   62.0440   69.9890   58.7510 C   0  0  0  0  0  0
   61.3890   71.0240   59.6580 C   0  0  0  0  0  0
   62.2950   71.5670   60.7140 N   0  3  2  0  0  0
   61.9190   71.1130   62.0840 C   0  0  0  0  0  0
   62.8840   70.0620   62.7100 C   0  0  0  0  0  0
   63.7150   70.6710   63.8690 C   0  0  0  0  0  0
   63.1200   70.2760   65.2450 C   0  0  0  0  0  0
   63.9080   69.1070   65.8830 C   0  0  0  0  0  0
   65.0700   69.6280   66.7630 C   0  0  0  0  0  0
   64.5380   70.1560   67.9960 O   0  0  0  0  0  0
   65.4980   70.6120   68.8960 C   0  0  0  0  0  0
   66.2660   69.6930   69.7000 C   0  0  0  0  0  0
   67.2230   70.2420   70.5810 C   0  0  0  0  0  0
   68.3130   69.3950   71.6850 S   0  0  0  0  0  0
   68.8950   70.8010   72.1360 N   0  0  0  0  0  0
   68.4070   71.9460   71.5910 C   0  0  0  0  0  0
   67.4130   71.6710   70.6650 C   0  0  0  0  0  0
   66.6430   72.5380   69.8700 C   0  0  0  0  0  0
   65.6960   71.9940   68.9960 C   0  0  0  0  0  0
   68.9810   73.2910   72.0370 C   0  0  0  0  0  0
   70.3450   73.5470   71.7720 C   0  0  0  0  0  0
   70.9500   74.7870   72.1750 C   0  0  0  0  0  0
   70.1960   75.7880   72.8500 C   0  0  0  0  0  0
   68.8170   75.5480   73.1260 C   0  0  0  0  0  0
   68.1990   74.2990   72.7230 C   0  0  0  0  0  0
   71.0330   77.3680   73.3660 Br  0  0  0  0  0  0
   62.3040   73.0610   60.6840 C   0  0  0  0  0  0
   63.5656   69.3500   60.0802 H   0  0  0  0  0  0
   63.5164   68.5137   58.3690 H   0  0  0  0  0  0
   61.5844   69.8780   57.7578 H   0  0  0  0  0  0
   61.0472   71.8772   59.0537 H   0  0  0  0  0  0
   60.5284   70.5698   60.1710 H   0  0  0  0  0  0
   63.2982   71.1753   60.4902 H   0  0  0  0  0  0
   61.9045   71.9765   62.7653 H   0  0  0  0  0  0
   60.9211   70.6511   62.0562 H   0  0  0  0  0  0
   62.2999   69.2185   63.1068 H   0  0  0  0  0  0
   63.5783   69.6967   61.9390 H   0  0  0  0  0  0
   64.7494   70.3011   63.8123 H   0  0  0  0  0  0
   63.7127   71.7678   63.7850 H   0  0  0  0  0  0
   63.1634   71.1397   65.9248 H   0  0  0  0  0  0
   62.0733   69.9634   65.1158 H   0  0  0  0  0  0
   63.2321   68.5097   66.5127 H   0  0  0  0  0  0
   64.3273   68.4711   65.0894 H   0  0  0  0  0  0
   65.7608   68.8013   66.9852 H   0  0  0  0  0  0
   65.6093   70.4221   66.2258 H   0  0  0  0  0  0
   66.1134   68.6160   69.6301 H   0  0  0  0  0  0
   66.7818   73.6172   69.9337 H   0  0  0  0  0  0
   65.0975   72.6628   68.3775 H   0  0  0  0  0  0
   70.9446   72.7966   71.2567 H   0  0  0  0  0  0
   72.0039   74.9638   71.9601 H   0  0  0  0  0  0
   68.2261   76.3053   73.6412 H   0  0  0  0  0  0
   67.1454   74.1189   72.9366 H   0  0  0  0  0  0
   62.5805   73.4058   59.6767 H   0  0  0  0  0  0
   63.0352   73.4380   61.4142 H   0  0  0  0  0  0
   61.3029   73.4389   60.9390 H   0  0  0  0  0  0
  1  2  2  0  0  0
  1 29  1  0  0  0
  1 30  1  0  0  0
  2  3  1  0  0  0
  2 31  1  0  0  0
  3  4  1  0  0  0
  3 32  1  0  0  0
  3 33  1  0  0  0
  4  5  1  0  0  0
  4 28  1  0  0  0
  4 34  1  0  0  0
  5  6  1  0  0  0
  5 35  1  0  0  0
  5 36  1  0  0  0
  6  7  1  0  0  0
  6 37  1  0  0  0
  6 38  1  0  0  0
  7  8  1  0  0  0
  7 39  1  0  0  0
  7 40  1  0  0  0
  8  9  1  0  0  0
  8 41  1  0  0  0
  8 42  1  0  0  0
  9 10  1  0  0  0
  9 43  1  0  0  0
  9 44  1  0  0  0
 10 11  1  0  0  0
 10 45  1  0  0  0
 10 46  1  0  0  0
 11 12  1  0  0  0
 12 13  2  0  0  0
 12 20  1  0  0  0
 13 14  1  0  0  0
 13 47  1  0  0  0
 14 15  1  0  0  0
 14 18  2  0  0  0
 15 16  1  0  0  0
 16 17  2  0  0  0
 17 18  1  0  0  0
 17 21  1  0  0  0
 18 19  1  0  0  0
 19 20  2  0  0  0
 19 48  1  0  0  0
 20 49  1  0  0  0
 21 22  2  0  0  0
 21 26  1  0  0  0
 22 23  1  0  0  0
 22 50  1  0  0  0
 23 24  2  0  0  0
 23 51  1  0  0  0
 24 25  1  0  0  0
 24 27  1  0  0  0
 25 26  2  0  0  0
 25 52  1  0  0  0
 26 53  1  0  0  0
 28 54  1  0  0  0
 28 55  1  0  0  0
 28 56  1  0  0  0
M  CHG  1   4   1
M  END
> <s_m_source_file>
../1h3c_ligand.sdf

> <i_m_source_file_index>
1

> <s_epik_input>
W0NIMl09W0NIXVtDSDJdW05AQEgrXShbQ0gzXSlbQ0gyXVtDSDJdW0NIMl1bQ0gyXVtDSDJdW0NIMl1PYyhbY0hdMSlbY0hdW2NIXWMoYzEyKWMobnMyKS1jM1tjSF1bY0hdYyhCcilbY0hdW2NIXTM=

> <s_epik_cmdline>
J2VwaWtfYXBwJywgJy1pbWFlJywgJ2xpZ2FuZF9wcm8ubWFlJywgJy1vbWFlJywgJ2xpZ2FuZF9wcmVwLm1hZScsICctbXMnLCAnMScsICctcGgnLCAnNycsICctcGh0JywgJzAuNScsICctbnQn

> <r_lp_tautomer_probability>
1

> <r_epik_Ionization_Penalty>
  0.0074

> <r_epik_Ionization_Penalty_Charging>
  0.0074

> <r_epik_Ionization_Penalty_Neutral>
  0.0000

> <r_epik_State_Penalty>
 -0.0000

> <r_epik_Charging_Adjusted_Penalty>
0.00740627652126178

> <i_epik_Tot_Q>
1

> <i_epik_Tot_abs_Q>
1

$$$$
