1h4n_ligand
                    3D
 Schrodinger Suite 2020-3.
 20 19  0  0  1  0            999 V2000
   -5.7840    1.0300   15.8510 C   0  0  0  0  0  0
   -4.5160    1.9070   15.7840 C   0  0  0  0  0  0
   -6.8770    1.6260   14.9710 C   0  0  0  0  0  0
   -6.3320    0.9090   17.3100 C   0  0  0  0  0  0
   -5.4230   -0.2690   15.3070 N   0  3  0  0  0  0
   -3.9790    1.7210   14.4810 O   0  0  0  0  0  0
   -7.9520    0.7020   14.9540 O   0  0  0  0  0  0
   -5.4140    0.2480   18.1630 O   0  0  0  0  0  0
   -4.7883    2.9589   15.9551 H   0  0  0  0  0  0
   -3.8042    1.5821   16.5572 H   0  0  0  0  0  0
   -7.2015    2.5894   15.3913 H   0  0  0  0  0  0
   -6.4852    1.7825   13.9551 H   0  0  0  0  0  0
   -6.5189    1.9141   17.7160 H   0  0  0  0  0  0
   -7.2710    0.3361   17.3027 H   0  0  0  0  0  0
   -5.0427   -0.1446   14.2823 H   0  0  0  0  0  0
   -6.3098   -0.9197   15.2925 H   0  0  0  0  0  0
   -4.6434   -0.7255   15.9345 H   0  0  0  0  0  0
   -3.0602    2.2480   14.1844 H   0  0  0  0  0  0
   -8.8604    0.9256   14.3753 H   0  0  0  0  0  0
   -5.6638    0.0895   19.2225 H   0  0  0  0  0  0
  1  2  1  0  0  0
  1  3  1  0  0  0
  1  4  1  0  0  0
  1  5  1  0  0  0
  2  6  1  0  0  0
  2  9  1  0  0  0
  2 10  1  0  0  0
  3  7  1  0  0  0
  3 11  1  0  0  0
  3 12  1  0  0  0
  4  8  1  0  0  0
  4 13  1  0  0  0
  4 14  1  0  0  0
  5 15  1  0  0  0
  5 16  1  0  0  0
  5 17  1  0  0  0
  6 18  1  0  0  0
  7 19  1  0  0  0
  8 20  1  0  0  0
M  CHG  1   5   1
M  END
> <s_m_source_file>
../1h4n_ligand.sdf

> <i_m_source_file_index>
1

> <s_epik_input>
W09IXVtDSDJdQyhbTkgzK10pKFtDSDJdW09IXSlbQ0gyXVtPSF0=

> <s_epik_cmdline>
J2VwaWtfYXBwJywgJy1pbWFlJywgJ2xpZ2FuZF9wcm8ubWFlJywgJy1vbWFlJywgJ2xpZ2FuZF9wcmVwLm1hZScsICctbXMnLCAnMScsICctcGgnLCAnNycsICctcGh0JywgJzAuNScsICctbnQn

> <r_epik_Ionization_Penalty>
  0.2486

> <r_epik_Ionization_Penalty_Charging>
  0.2486

> <r_epik_Ionization_Penalty_Neutral>
  0.0000

> <r_epik_State_Penalty>
  0.2399

> <r_epik_Charging_Adjusted_Penalty>
0.488459774025137

> <i_epik_Tot_Q>
1

> <i_epik_Tot_abs_Q>
1

$$$$
