1h4w_ligand
                    3D
 Schrodinger Suite 2020-3.
 18 18  0  0  1  0            999 V2000
   50.3420   36.7890   39.3750 C   0  0  0  0  0  0
   50.3710   35.9320   40.4660 C   0  0  0  0  0  0
   49.8970   34.5860   40.2460 C   0  0  0  0  0  0
   49.3980   34.0600   38.9960 C   0  0  0  0  0  0
   49.3930   35.0100   37.8910 C   0  0  0  0  0  0
   49.8710   36.3660   38.1130 C   0  0  0  0  0  0
   50.7960   38.1370   39.5110 C   0  0  0  0  0  0
   50.9760   38.6780   40.7280 N   0  0  0  0  0  0
   51.0680   38.9190   38.4750 N   0  3  0  0  0  0
   50.7336   36.2587   41.4406 H   0  0  0  0  0  0
   49.9174   33.9066   41.0981 H   0  0  0  0  0  0
   49.0521   33.0320   38.8880 H   0  0  0  0  0  0
   49.0344   34.7074   36.9072 H   0  0  0  0  0  0
   49.8654   37.0735   37.2838 H   0  0  0  0  0  0
   50.7688   38.0837   41.6302 H   0  0  0  0  0  0
   51.3305   39.7151   40.8219 H   0  0  0  0  0  0
   50.9421   38.5384   37.4506 H   0  0  0  0  0  0
   51.4195   39.9482   38.6401 H   0  0  0  0  0  0
  1  7  1  0  0  0
  1  6  2  0  0  0
  1  2  1  0  0  0
  2  3  2  0  0  0
  2 10  1  0  0  0
  3  4  1  0  0  0
  3 11  1  0  0  0
  4  5  2  0  0  0
  4 12  1  0  0  0
  5  6  1  0  0  0
  5 13  1  0  0  0
  6 14  1  0  0  0
  7  9  2  0  0  0
  7  8  1  0  0  0
  8 15  1  0  0  0
  8 16  1  0  0  0
  9 17  1  0  0  0
  9 18  1  0  0  0
M  CHG  1   9   1
M  END
> <s_m_source_file>
../1h4w_ligand.sdf

> <i_m_source_file_index>
1

> <s_epik_input>
W0hdXE49QyhbTkgyXSlcYzFbY0hdW2NIXVtjSF1bY0hdW2NIXTE=

> <s_epik_cmdline>
J2VwaWtfYXBwJywgJy1pbWFlJywgJ2xpZ2FuZF9wcm8ubWFlJywgJy1vbWFlJywgJ2xpZ2FuZF9wcmVwLm1hZScsICctbXMnLCAnMScsICctcGgnLCAnNycsICctcGh0JywgJzAuNScsICctbnQn

> <r_lp_tautomer_probability>
1

> <r_epik_Ionization_Penalty>
  0.0003

> <r_epik_Ionization_Penalty_Charging>
  0.0003

> <r_epik_Ionization_Penalty_Neutral>
  0.0000

> <r_epik_State_Penalty>
 -0.0000

> <r_epik_Charging_Adjusted_Penalty>
0.0003115973184836

> <i_epik_Tot_Q>
1

> <i_epik_Tot_abs_Q>
1

> <s_epik_Chemistry_Notes>
This compound has an imine and may undergo hydrolysis.

$$$$
