1h5v_ligand
                    3D
 Schrodinger Suite 2020-3.
111115  0  0  1  0            999 V2000
   -4.4270   43.7280   11.9730 C   0  0  1  0  0  0
   -5.7070   43.0230   11.6400 C   0  0  1  0  0  0
   -6.8880   43.9750   11.7590 C   0  0  2  0  0  0
   -6.8880   44.6830   13.0950 C   0  0  1  0  0  0
   -5.5190   45.3580   13.2750 C   0  0  1  0  0  0
   -5.3720   46.0850   14.5860 C   0  0  0  0  0  0
   -5.6890   42.4950   10.2930 O   0  0  0  0  0  0
   -8.1220   43.2520   11.6090 O   0  0  0  0  0  0
   -7.9520   45.6360   13.1030 O   0  0  0  0  0  0
   -4.5010   44.3910   13.2340 O   0  0  0  0  0  0
   -5.5570   45.2470   15.6890 O   0  0  0  0  0  0
    1.2250   43.4920   11.7580 C   0  0  1  0  0  0
    0.6200   43.9100   13.0880 C   0  0  2  0  0  0
    1.5320   43.5350   14.1670 O   0  0  0  0  0  0
   -0.7320   43.1840   13.2430 C   0  0  1  0  0  0
   -1.3350   43.5310   14.4840 O   0  0  0  0  0  0
   -1.6410   43.5780   12.0700 C   0  0  1  0  0  0
   -0.9260   43.4150   10.7260 C   0  0  2  0  0  0
    0.3510   44.0730   10.7500 O   0  0  0  0  0  0
   -1.6820   43.9590    9.5310 C   0  0  0  0  0  0
   -2.0550   45.3120    9.7200 O   0  0  0  0  0  0
   -3.1070   42.4890   12.0950 S   0  0  0  0  0  0
    4.8220   41.6750    7.9840 C   0  0  1  0  0  0
    4.7100   43.1730    7.8770 C   0  0  2  0  0  0
    6.0060   43.6750    7.5200 O   0  0  0  0  0  0
    4.2760   43.8660    9.1980 C   0  0  1  0  0  0
    3.7720   45.1600    8.8400 O   0  0  0  0  0  0
    3.2200   43.0830    9.9350 C   0  0  1  0  0  0
    3.6950   41.6530   10.0590 C   0  0  2  0  0  0
    3.7980   41.0760    8.7580 O   0  0  0  0  0  0
    2.7940   40.6990   10.8200 C   0  0  0  0  0  0
    1.4990   40.6370   10.2480 O   0  0  0  0  0  0
    2.8880   43.9630   11.5030 S   0  0  0  0  0  0
    6.8730   37.1760    5.1570 C   0  0  1  0  0  0
    5.5470   37.0140    5.9000 C   0  0  2  0  0  0
    4.7370   35.9680    5.2560 O   0  0  0  0  0  0
    4.7640   38.3060    5.9250 C   0  0  1  0  0  0
    3.5610   38.1130    6.6600 O   0  0  0  0  0  0
    5.6300   39.4290    6.4950 C   0  0  1  0  0  0
    6.9530   39.4670    5.7650 C   0  0  2  0  0  0
    7.5790   38.2060    5.8770 O   0  0  0  0  0  0
    7.8930   40.4830    6.2680 C   0  0  0  0  0  0
    8.1530   40.3030    7.6490 O   0  0  0  0  0  0
    4.7240   40.9820    6.3170 S   0  0  0  0  0  0
   11.6310   35.5440    2.6340 C   0  0  1  0  0  0
   11.4470   36.8620    3.4160 C   0  0  1  0  0  0
   10.3780   36.6600    4.5100 C   0  0  2  0  0  0
    9.0980   36.1030    3.8580 C   0  0  1  0  0  0
    9.3980   34.8890    2.9510 C   0  0  1  0  0  0
    8.1290   34.3620    2.2420 C   0  0  0  0  0  0
   12.5680   33.4010    2.6510 C   0  0  0  0  0  0
   12.1620   34.5070    3.4290 O   0  0  0  0  0  0
   12.6810   37.3070    3.9430 O   0  0  0  0  0  0
   10.0700   37.8650    5.1960 O   0  0  0  0  0  0
    7.8830   35.6890    5.1320 S   0  0  0  0  0  0
   10.4240   35.1460    2.0000 O   0  0  0  0  0  0
    7.4150   35.3140    1.4680 O   0  0  0  0  0  0
   -4.4044   44.5786   11.2758 H   0  0  0  0  0  0
   -5.7960   42.1638   12.3211 H   0  0  0  0  0  0
   -6.8475   44.7132   10.9445 H   0  0  0  0  0  0
   -7.1113   44.0094   13.9355 H   0  0  0  0  0  0
   -5.3629   46.0581   12.4410 H   0  0  0  0  0  0
   -4.3623   46.5160   14.6550 H   0  0  0  0  0  0
   -6.1192   46.8902   14.6446 H   0  0  0  0  0  0
   -4.9081   41.7809    9.9926 H   0  0  0  0  0  0
   -8.3105   42.6694   10.6952 H   0  0  0  0  0  0
   -8.9925   45.2997   12.9839 H   0  0  0  0  0  0
   -5.4765   45.6533   16.7080 H   0  0  0  0  0  0
    1.0885   42.4016   11.7083 H   0  0  0  0  0  0
    0.5014   45.0014   13.1570 H   0  0  0  0  0  0
    2.5438   43.9648   14.2063 H   0  0  0  0  0  0
   -0.6129   42.0924   13.3077 H   0  0  0  0  0  0
   -0.8131   43.3163   15.4282 H   0  0  0  0  0  0
   -1.7457   44.6687   12.1667 H   0  0  0  0  0  0
   -0.7724   42.3344   10.5890 H   0  0  0  0  0  0
   -1.0462   43.8967    8.6355 H   0  0  0  0  0  0
   -2.5954   43.3664    9.3741 H   0  0  0  0  0  0
   -2.6117   45.8439    8.9344 H   0  0  0  0  0  0
    5.6695   41.5335    8.6708 H   0  0  0  0  0  0
    3.9856   43.3984    7.0805 H   0  0  0  0  0  0
    6.5041   43.3130    6.6085 H   0  0  0  0  0  0
    5.1133   44.0013    9.8985 H   0  0  0  0  0  0
    4.4126   45.8679    8.2938 H   0  0  0  0  0  0
    2.3693   42.9177    9.2575 H   0  0  0  0  0  0
    4.6679   41.7302   10.5665 H   0  0  0  0  0  0
    3.2304   39.6894   10.8019 H   0  0  0  0  0  0
    2.6976   41.0382   11.8620 H   0  0  0  0  0  0
    0.7322   39.9851   10.6920 H   0  0  0  0  0  0
    6.6071   37.5980    4.1766 H   0  0  0  0  0  0
    5.7500   36.7038    6.9356 H   0  0  0  0  0  0
    5.1404   34.9508    5.1443 H   0  0  0  0  0  0
    4.4143   38.5898    4.9214 H   0  0  0  0  0  0
    2.8479   37.3337    6.3530 H   0  0  0  0  0  0
    5.9360   39.1100    7.5023 H   0  0  0  0  0  0
    6.7615   39.6900    4.7050 H   0  0  0  0  0  0
    8.8435   40.4066    5.7196 H   0  0  0  0  0  0
    7.4638   41.4849    6.1199 H   0  0  0  0  0  0
    8.8384   40.9853    8.1731 H   0  0  0  0  0  0
   12.3691   35.6444    1.8246 H   0  0  0  0  0  0
   11.1743   37.7021    2.7603 H   0  0  0  0  0  0
   10.7705   36.0172    5.3117 H   0  0  0  0  0  0
    8.8343   36.8767    3.1219 H   0  0  0  0  0  0
    9.8491   34.1047    3.5766 H   0  0  0  0  0  0
    8.4044   33.5496    1.5534 H   0  0  0  0  0  0
    7.4206   33.9820    2.9928 H   0  0  0  0  0  0
   12.9742   32.6190    3.3093 H   0  0  0  0  0  0
   13.3429   33.7190    1.9379 H   0  0  0  0  0  0
   11.7032   33.0034    2.0996 H   0  0  0  0  0  0
   13.5318   37.4912    3.2706 H   0  0  0  0  0  0
   10.8619   38.4131    5.7275 H   0  0  0  0  0  0
    6.5014   35.0144    0.9336 H   0  0  0  0  0  0
  1  2  1  0  0  0
  1 10  1  0  0  0
  1 22  1  0  0  0
  1 58  1  0  0  0
  2  3  1  0  0  0
  2  7  1  0  0  0
  2 59  1  0  0  0
  3  4  1  0  0  0
  3  8  1  0  0  0
  3 60  1  0  0  0
  4  5  1  0  0  0
  4  9  1  0  0  0
  4 61  1  0  0  0
  5  6  1  0  0  0
  5 10  1  0  0  0
  5 62  1  0  0  0
  6 11  1  0  0  0
  6 63  1  0  0  0
  6 64  1  0  0  0
  7 65  1  0  0  0
  8 66  1  0  0  0
  9 67  1  0  0  0
 11 68  1  0  0  0
 12 13  1  0  0  0
 12 19  1  0  0  0
 12 33  1  0  0  0
 12 69  1  0  0  0
 13 14  1  0  0  0
 13 15  1  0  0  0
 13 70  1  0  0  0
 14 71  1  0  0  0
 15 16  1  0  0  0
 15 17  1  0  0  0
 15 72  1  0  0  0
 16 73  1  0  0  0
 17 18  1  0  0  0
 17 22  1  0  0  0
 17 74  1  0  0  0
 18 19  1  0  0  0
 18 20  1  0  0  0
 18 75  1  0  0  0
 20 21  1  0  0  0
 20 76  1  0  0  0
 20 77  1  0  0  0
 21 78  1  0  0  0
 23 24  1  0  0  0
 23 30  1  0  0  0
 23 44  1  0  0  0
 23 79  1  0  0  0
 24 25  1  0  0  0
 24 26  1  0  0  0
 24 80  1  0  0  0
 25 81  1  0  0  0
 26 27  1  0  0  0
 26 28  1  0  0  0
 26 82  1  0  0  0
 27 83  1  0  0  0
 28 29  1  0  0  0
 28 33  1  0  0  0
 28 84  1  0  0  0
 29 30  1  0  0  0
 29 31  1  0  0  0
 29 85  1  0  0  0
 31 32  1  0  0  0
 31 86  1  0  0  0
 31 87  1  0  0  0
 32 88  1  0  0  0
 34 35  1  0  0  0
 34 41  1  0  0  0
 34 55  1  0  0  0
 34 89  1  0  0  0
 35 36  1  0  0  0
 35 37  1  0  0  0
 35 90  1  0  0  0
 36 91  1  0  0  0
 37 38  1  0  0  0
 37 39  1  0  0  0
 37 92  1  0  0  0
 38 93  1  0  0  0
 39 40  1  0  0  0
 39 44  1  0  0  0
 39 94  1  0  0  0
 40 41  1  0  0  0
 40 42  1  0  0  0
 40 95  1  0  0  0
 42 43  1  0  0  0
 42 96  1  0  0  0
 42 97  1  0  0  0
 43 98  1  0  0  0
 45 46  1  0  0  0
 45 52  1  0  0  0
 45 56  1  0  0  0
 45 99  1  0  0  0
 46 47  1  0  0  0
 46 53  1  0  0  0
 46100  1  0  0  0
 47 48  1  0  0  0
 47 54  1  0  0  0
 47101  1  0  0  0
 48 49  1  0  0  0
 48 55  1  0  0  0
 48102  1  0  0  0
 49 50  1  0  0  0
 49 56  1  0  0  0
 49103  1  0  0  0
 50 57  1  0  0  0
 50104  1  0  0  0
 50105  1  0  0  0
 51 52  1  0  0  0
 51106  1  0  0  0
 51107  1  0  0  0
 51108  1  0  0  0
 53109  1  0  0  0
 54110  1  0  0  0
 57111  1  0  0  0
M  END
> <s_m_source_file>
../1h5v_ligand.sdf

> <i_m_source_file_index>
1

> <s_epik_input>
W09IXVtDSDJdW0NAQEhdKE8xKVtDQEBIXShbT0hdKVtDQEhdKFtPSF0pW0NAQEhdKFtPSF0pW0NAQEhdMVNbQ0BIXShbQ0BIXShPMilbQ0gyXVtPSF0pW0NASF0oW09IXSlbQ0BASF0oW09IXSlbQ0BASF0yU1tDQEhdKFtDQEhdKE8zKVtDSDJdW09IXSlbQ0BIXShbT0hdKVtDQEBIXShbT0hdKVtDQEBIXTNTW0NASF0oW0NASF0oTzQpW0NIMl1bT0hdKVtDQEhdKFtPSF0pW0NAQEhdKFtPSF0pW0NAQEhdNFNbQ0BIXShbQ0BIXShPNSlbQ0gyXVtPSF0pW0NASF0oW09IXSlbQ0BASF0oW09IXSlbQ0BIXTVPW0NIM10=

> <s_epik_cmdline>
J2VwaWtfYXBwJywgJy1pbWFlJywgJ2xpZ2FuZF9wcm8ubWFlJywgJy1vbWFlJywgJ2xpZ2FuZF9wcmVwLm1hZScsICctbXMnLCAnMScsICctcGgnLCAnNycsICctcGh0JywgJzAuNScsICctbnQn

> <r_lp_tautomer_probability>
1

> <r_epik_Ionization_Penalty>
  0.0000

> <r_epik_Ionization_Penalty_Charging>
  0.0000

> <r_epik_Ionization_Penalty_Neutral>
  0.0000

> <r_epik_State_Penalty>
 -0.0000

> <r_epik_Charging_Adjusted_Penalty>
0

> <i_epik_Tot_Q>
0

> <i_epik_Tot_abs_Q>
0

> <s_epik_Chemistry_Notes>
This compound contains an acetal/aminal-like group ( X-CH(R)-Y where X, Y are N, S, or O) that may be acid/base labile, releasing an aldehyde.

$$$$
