1h60_ligand
                    3D
 Schrodinger Suite 2020-3.
 53 56  0  0  1  0            999 V2000
   20.4150   11.8220   20.9750 C   0  0  0  0  0  0
   20.2220   10.6980   22.2400 C   0  0  0  0  0  0
   20.1480    9.2870   21.6000 C   0  0  0  0  0  0
   19.4000    8.4530   22.3120 O   0  0  0  0  0  0
   20.8070    8.9330   20.3650 C   0  0  0  0  0  0
   21.5780    9.8770   19.8040 C   0  0  0  0  0  0
   22.4610    9.4270   18.6640 C   0  0  0  0  0  0
   22.2950   10.4040   17.5000 C   0  0  0  0  0  0
   22.6560   11.8440   17.7920 C   0  0  2  0  0  0
   21.5260   12.2770   18.8680 C   0  0  1  0  0  0
   21.6450   11.4490   20.1680 C   0  0  1  0  0  0
   21.5130   13.7670   19.1630 C   0  0  0  0  0  0
   21.4830   14.6370   17.7300 C   0  0  0  0  0  0
   22.6430   14.3040   16.8740 C   0  0  1  0  0  0
   22.3290   12.6130   16.6370 C   0  0  1  0  0  0
   23.1400   12.4240   15.3370 C   0  0  0  0  0  0
   22.9200   13.6880   14.5250 C   0  0  0  0  0  0
   22.4080   14.7380   15.4550 C   0  0  2  0  0  0
   24.1040   14.4890   17.2930 C   0  0  0  0  0  0
   22.9920   11.6700   20.9330 C   0  0  0  0  0  0
   23.0780   16.1940   15.0590 C   0  0  0  0  0  0
   24.0880   16.2660   14.6060 O   0  0  0  0  0  0
   22.1630   17.4860   15.8310 C   0  0  0  0  0  0
   19.5258   11.8018   20.3277 H   0  0  0  0  0  0
   20.5389   12.8305   21.3963 H   0  0  0  0  0  0
   21.0802   10.7657   22.9247 H   0  0  0  0  0  0
   19.2957   10.9204   22.7900 H   0  0  0  0  0  0
   20.7033    7.9496   19.8831 H   0  0  0  0  0  0
   23.5099    9.4153   18.9952 H   0  0  0  0  0  0
   22.1650    8.4158   18.3480 H   0  0  0  0  0  0
   22.9366   10.0900   16.6635 H   0  0  0  0  0  0
   21.2445   10.4107   17.1739 H   0  0  0  0  0  0
   23.7250   11.9840   18.0102 H   0  0  0  0  0  0
   20.5263   12.0918   18.4482 H   0  0  0  0  0  0
   20.6201   14.0157   19.7554 H   0  0  0  0  0  0
   22.4161   14.0364   19.7303 H   0  0  0  0  0  0
   20.5615   14.4015   17.1773 H   0  0  0  0  0  0
   21.5113   15.7136   17.9540 H   0  0  0  0  0  0
   21.3486   12.1181   16.5749 H   0  0  0  0  0  0
   24.2032   12.2886   15.5845 H   0  0  0  0  0  0
   22.7724   11.5364   14.8012 H   0  0  0  0  0  0
   23.8724   14.0053   14.0752 H   0  0  0  0  0  0
   22.1868   13.4897   13.7293 H   0  0  0  0  0  0
   21.3106   14.7597   15.3830 H   0  0  0  0  0  0
   24.2311   14.1601   18.3350 H   0  0  0  0  0  0
   24.3783   15.5508   17.2076 H   0  0  0  0  0  0
   24.7522   13.8890   16.6374 H   0  0  0  0  0  0
   23.0031   11.0509   21.8422 H   0  0  0  0  0  0
   23.0865   12.7303   21.2102 H   0  0  0  0  0  0
   23.8332   11.3841   20.2844 H   0  0  0  0  0  0
   21.1960   17.0934   16.1785 H   0  0  0  0  0  0
   21.9910   18.2964   15.1074 H   0  0  0  0  0  0
   22.7306   17.8750   16.6892 H   0  0  0  0  0  0
  1  2  1  0  0  0
  1 11  1  0  0  0
  1 24  1  0  0  0
  1 25  1  0  0  0
  2  3  1  0  0  0
  2 26  1  0  0  0
  2 27  1  0  0  0
  3  4  2  0  0  0
  3  5  1  0  0  0
  5  6  2  0  0  0
  5 28  1  0  0  0
  6  7  1  0  0  0
  6 11  1  0  0  0
  7  8  1  0  0  0
  7 29  1  0  0  0
  7 30  1  0  0  0
  8  9  1  0  0  0
  8 31  1  0  0  0
  8 32  1  0  0  0
  9 10  1  0  0  0
  9 15  1  0  0  0
  9 33  1  0  0  0
 10 11  1  0  0  0
 10 12  1  0  0  0
 10 34  1  0  0  0
 11 20  1  0  0  0
 12 13  1  0  0  0
 12 35  1  0  0  0
 12 36  1  0  0  0
 13 14  1  0  0  0
 13 37  1  0  0  0
 13 38  1  0  0  0
 14 15  1  0  0  0
 14 18  1  0  0  0
 14 19  1  0  0  0
 15 16  1  0  0  0
 15 39  1  0  0  0
 16 17  1  0  0  0
 16 40  1  0  0  0
 16 41  1  0  0  0
 17 18  1  0  0  0
 17 42  1  0  0  0
 17 43  1  0  0  0
 18 21  1  0  0  0
 18 44  1  0  0  0
 19 45  1  0  0  0
 19 46  1  0  0  0
 19 47  1  0  0  0
 20 48  1  0  0  0
 20 49  1  0  0  0
 20 50  1  0  0  0
 21 22  2  0  0  0
 21 23  1  0  0  0
 23 51  1  0  0  0
 23 52  1  0  0  0
 23 53  1  0  0  0
M  END
> <s_m_source_file>
../1h60_ligand.sdf

> <i_m_source_file_index>
1

> <s_epik_input>
W0NIMl0xW0NIMl1DKD1PKVtDSF09QyhbQ0BdMTJbQ0gzXSlbQ0gyXVtDSDJdW0NAQEhdM1tDQEBIXTJbQ0gyXVtDSDJdW0NAQF00KFtDSDNdKVtDQEhdM1tDSDJdW0NIMl1bQ0BASF00Qyg9TylbQ0gzXQ==

> <s_epik_cmdline>
J2VwaWtfYXBwJywgJy1pbWFlJywgJ2xpZ2FuZF9wcm8ubWFlJywgJy1vbWFlJywgJ2xpZ2FuZF9wcmVwLm1hZScsICctbXMnLCAnMScsICctcGgnLCAnNycsICctcGh0JywgJzAuNScsICctbnQn

> <r_lp_tautomer_probability>
1

> <r_epik_Ionization_Penalty>
  0.0000

> <r_epik_Ionization_Penalty_Charging>
  0.0000

> <r_epik_Ionization_Penalty_Neutral>
  0.0000

> <r_epik_State_Penalty>
 -0.0000

> <r_epik_Charging_Adjusted_Penalty>
0

> <i_epik_Tot_Q>
0

> <i_epik_Tot_abs_Q>
0

$$$$
