1h61_ligand
                    3D
 Schrodinger Suite 2020-3.
 52 55  0  0  1  0            999 V2000
   20.6360   11.8580   21.1480 C   0  0  0  0  0  0
   19.8830   10.8510   21.7620 C   0  0  0  0  0  0
   19.9560    9.4330   21.3450 C   0  0  0  0  0  0
   20.8590    9.1250   20.2320 C   0  0  0  0  0  0
   21.6370   10.0390   19.5700 C   0  0  0  0  0  0
   22.6180    9.6090   18.3600 C   0  0  0  0  0  0
   22.3850   10.5890   17.2900 C   0  0  0  0  0  0
   22.3900   11.9700   17.5600 C   0  0  2  0  0  0
   21.3410   12.3580   18.7210 C   0  0  1  0  0  0
   21.6120   11.5620   19.9810 C   0  0  1  0  0  0
   21.3300   13.9430   18.9380 C   0  0  0  0  0  0
   21.1010   14.6660   17.5930 C   0  0  0  0  0  0
   22.1010   14.3630   16.5440 C   0  0  1  0  0  0
   22.0800   12.8410   16.3140 C   0  0  1  0  0  0
   22.9570   12.7100   15.0160 C   0  0  0  0  0  0
   22.7770   13.8840   14.2620 C   0  0  0  0  0  0
   21.7920   14.7760   15.0640 C   0  0  2  0  0  0
   23.4980   14.9490   17.0280 C   0  0  0  0  0  0
   22.9490   11.9490   20.5810 C   0  0  0  0  0  0
   21.8410   16.3270   14.9370 C   0  0  2  0  0  0
   20.8270   16.7680   14.7030 C   0  0  0  0  0  0
   19.3140    8.6000   21.8930 O   0  0  0  0  0  0
   21.4680   14.5740   20.1450 O   0  0  0  0  0  0
   20.3400   14.4000   14.8300 O   0  0  0  0  0  0
   22.8720   16.6590   14.2070 O   0  0  0  0  0  0
   20.9220   18.1250   15.1440 O   0  0  0  0  0  0
   20.5455   12.8992   21.4912 H   0  0  0  0  0  0
   19.2029   11.1001   22.5899 H   0  0  0  0  0  0
   20.8836    8.0656   19.9370 H   0  0  0  0  0  0
   23.6616    9.6365   18.7067 H   0  0  0  0  0  0
   22.3681    8.5899   18.0298 H   0  0  0  0  0  0
   23.1577   10.4766   16.5152 H   0  0  0  0  0  0
   21.3931   10.4183   16.8461 H   0  0  0  0  0  0
   23.4506   12.0649   17.8360 H   0  0  0  0  0  0
   20.3162   12.0441   18.4736 H   0  0  0  0  0  0
   20.1197   14.3808   17.1858 H   0  0  0  0  0  0
   21.1298   15.7541   17.7520 H   0  0  0  0  0  0
   21.0788   12.4100   16.1665 H   0  0  0  0  0  0
   24.0138   12.5931   15.2978 H   0  0  0  0  0  0
   22.6315   11.8307   14.4407 H   0  0  0  0  0  0
   23.7460   14.3878   14.1310 H   0  0  0  0  0  0
   22.3613   13.6268   13.2766 H   0  0  0  0  0  0
   23.6841   14.6417   18.0677 H   0  0  0  0  0  0
   23.4753   16.0472   16.9687 H   0  0  0  0  0  0
   24.3008   14.5635   16.3823 H   0  0  0  0  0  0
   23.1257   11.3603   21.4933 H   0  0  0  0  0  0
   22.9423   13.0201   20.8314 H   0  0  0  0  0  0
   23.7493   11.7474   19.8538 H   0  0  0  0  0  0
   21.8718   17.0756   15.7424 H   0  0  0  0  0  0
   19.8924   16.3994   14.2550 H   0  0  0  0  0  0
   20.0325   13.3445   14.8660 H   0  0  0  0  0  0
   23.8622   16.2342   14.4283 H   0  0  0  0  0  0
  1  2  2  0  0  0
  1 10  1  0  0  0
  1 27  1  0  0  0
  2  3  1  0  0  0
  2 28  1  0  0  0
  3  4  1  0  0  0
  3 22  2  0  0  0
  4  5  2  0  0  0
  4 29  1  0  0  0
  5  6  1  0  0  0
  5 10  1  0  0  0
  6  7  1  0  0  0
  6 30  1  0  0  0
  6 31  1  0  0  0
  7  8  1  0  0  0
  7 32  1  0  0  0
  7 33  1  0  0  0
  8  9  1  0  0  0
  8 14  1  0  0  0
  8 34  1  0  0  0
  9 10  1  0  0  0
  9 11  1  0  0  0
  9 35  1  0  0  0
 10 19  1  0  0  0
 11 12  1  0  0  0
 11 23  2  0  0  0
 12 13  1  0  0  0
 12 36  1  0  0  0
 12 37  1  0  0  0
 13 14  1  0  0  0
 13 17  1  0  0  0
 13 18  1  0  0  0
 14 15  1  0  0  0
 14 38  1  0  0  0
 15 16  1  0  0  0
 15 39  1  0  0  0
 15 40  1  0  0  0
 16 17  1  0  0  0
 16 41  1  0  0  0
 16 42  1  0  0  0
 17 20  1  0  0  0
 17 24  1  0  0  0
 18 43  1  0  0  0
 18 44  1  0  0  0
 18 45  1  0  0  0
 19 46  1  0  0  0
 19 47  1  0  0  0
 19 48  1  0  0  0
 20 21  1  0  0  0
 20 25  1  0  0  0
 20 49  1  0  0  0
 21 26  2  0  0  0
 21 50  1  0  0  0
 24 51  1  0  0  0
 25 52  1  0  0  0
M  END
> <s_m_source_file>
../1h61_ligand.sdf

> <i_m_source_file_index>
1

> <s_epik_input>
W0NIXTE9W0NIXUMoPU8pW0NIXT1DKFtDQF0xMltDSDNdKVtDSDJdW0NIMl1bQ0BASF0zW0NAQEhdMkMoPU8pW0NIMl1bQ0BAXTQoW0NIM10pW0NASF0zW0NIMl1bQ0gyXVtDQF00KFtPSF0pW0NASF0oW0NIXT1PKVtPSF0=

> <s_epik_cmdline>
J2VwaWtfYXBwJywgJy1pbWFlJywgJ2xpZ2FuZF9wcm8ubWFlJywgJy1vbWFlJywgJ2xpZ2FuZF9wcmVwLm1hZScsICctbXMnLCAnMScsICctcGgnLCAnNycsICctcGh0JywgJzAuNScsICctbnQn

> <r_lp_tautomer_probability>
1

> <r_epik_Ionization_Penalty>
  0.0000

> <r_epik_Ionization_Penalty_Charging>
  0.0000

> <r_epik_Ionization_Penalty_Neutral>
  0.0000

> <r_epik_State_Penalty>
 -0.0000

> <r_epik_Charging_Adjusted_Penalty>
0

> <i_epik_Tot_Q>
0

> <i_epik_Tot_abs_Q>
0

$$$$
