1h62_ligand
                    3D
 Schrodinger Suite 2020-3.
 45 48  0  0  1  0            999 V2000
   20.4160   11.6840   21.3750 C   0  0  0  0  0  0
   21.4620   11.3680   20.3070 C   0  0  1  0  0  0
   21.1220   13.6310   19.1580 C   0  0  0  0  0  0
   20.8530   14.3810   17.8010 C   0  0  0  0  0  0
   22.0170   14.1080   16.8370 C   0  0  1  0  0  0
   22.0480   12.6050   16.5620 C   0  0  1  0  0  0
   23.0080   12.4420   15.3320 C   0  0  0  0  0  0
   22.4890   13.6390   14.4970 C   0  0  0  0  0  0
   21.8480   14.7210   15.4410 C   0  0  0  0  0  0
   23.3880   14.6970   17.3790 C   0  0  0  0  0  0
   22.8520   11.8150   20.9410 C   0  0  0  0  0  0
   19.6430   10.7440   21.9520 C   0  0  0  0  0  0
   19.7660    9.3090   21.5690 C   0  0  0  0  0  0
   20.7410    8.9630   20.5510 C   0  0  0  0  0  0
   21.5560    9.8730   19.9330 C   0  0  0  0  0  0
   22.5490    9.4620   18.8880 C   0  0  0  0  0  0
   22.3380   10.3250   17.6190 C   0  0  0  0  0  0
   22.3010   11.7680   17.8620 C   0  0  2  0  0  0
   21.1840   12.1630   18.9690 C   0  0  1  0  0  0
   19.0740    8.4260   22.0780 O   0  0  0  0  0  0
   21.3690   15.7320   15.1630 O   0  0  0  0  0  0
   20.3102   12.7390   21.6681 H   0  0  0  0  0  0
   22.0813   13.9669   19.5787 H   0  0  0  0  0  0
   20.3119   13.8550   19.8676 H   0  0  0  0  0  0
   19.9138   14.0157   17.3601 H   0  0  0  0  0  0
   20.7737   15.4619   17.9889 H   0  0  0  0  0  0
   21.0705   12.1890   16.2767 H   0  0  0  0  0  0
   24.0519   12.5292   15.6676 H   0  0  0  0  0  0
   22.8516   11.4546   14.8731 H   0  0  0  0  0  0
   23.3263   14.0921   13.9459 H   0  0  0  0  0  0
   21.7288   13.2867   13.7843 H   0  0  0  0  0  0
   23.5841   14.3016   18.3865 H   0  0  0  0  0  0
   23.3242   15.7943   17.4218 H   0  0  0  0  0  0
   24.2055   14.4032   16.7042 H   0  0  0  0  0  0
   23.0291   11.2528   21.8697 H   0  0  0  0  0  0
   22.8239   12.8918   21.1639 H   0  0  0  0  0  0
   23.6635   11.6093   20.2274 H   0  0  0  0  0  0
   18.9076   11.0309   22.7180 H   0  0  0  0  0  0
   20.8034    7.8979   20.2833 H   0  0  0  0  0  0
   23.5688    9.6125   19.2719 H   0  0  0  0  0  0
   22.4032    8.4000   18.6411 H   0  0  0  0  0  0
   23.1593   10.1421   16.9105 H   0  0  0  0  0  0
   21.3809   10.0566   17.1480 H   0  0  0  0  0  0
   23.3349   11.9316   18.2002 H   0  0  0  0  0  0
   20.1550   11.9484   18.6448 H   0  0  0  0  0  0
  1  2  1  0  0  0
  1 12  2  0  0  0
  1 22  1  0  0  0
  2 11  1  0  0  0
  2 15  1  0  0  0
  2 19  1  0  0  0
  3  4  1  0  0  0
  3 19  1  0  0  0
  3 23  1  0  0  0
  3 24  1  0  0  0
  4  5  1  0  0  0
  4 25  1  0  0  0
  4 26  1  0  0  0
  5  6  1  0  0  0
  5  9  1  0  0  0
  5 10  1  0  0  0
  6  7  1  0  0  0
  6 18  1  0  0  0
  6 27  1  0  0  0
  7  8  1  0  0  0
  7 28  1  0  0  0
  7 29  1  0  0  0
  8  9  1  0  0  0
  8 30  1  0  0  0
  8 31  1  0  0  0
  9 21  2  0  0  0
 10 32  1  0  0  0
 10 33  1  0  0  0
 10 34  1  0  0  0
 11 35  1  0  0  0
 11 36  1  0  0  0
 11 37  1  0  0  0
 12 13  1  0  0  0
 12 38  1  0  0  0
 13 14  1  0  0  0
 13 20  2  0  0  0
 14 15  2  0  0  0
 14 39  1  0  0  0
 15 16  1  0  0  0
 16 17  1  0  0  0
 16 40  1  0  0  0
 16 41  1  0  0  0
 17 18  1  0  0  0
 17 42  1  0  0  0
 17 43  1  0  0  0
 18 19  1  0  0  0
 18 44  1  0  0  0
 19 45  1  0  0  0
M  END
> <s_m_source_file>
../1h62_ligand.sdf

> <i_m_source_file_index>
1

> <s_epik_input>
W0NIXTE9W0NIXUMoPU8pW0NIXT1DKFtDQF0xMltDSDNdKVtDSDJdW0NIMl1bQ0BIXTNbQ0BIXTRbQ0BdKFtDSDNdKShbQ0gyXVtDSDJdW0NASF0yMylDKD1PKVtDSDJdW0NIMl00

> <s_epik_cmdline>
J2VwaWtfYXBwJywgJy1pbWFlJywgJ2xpZ2FuZF9wcm8ubWFlJywgJy1vbWFlJywgJ2xpZ2FuZF9wcmVwLm1hZScsICctbXMnLCAnMScsICctcGgnLCAnNycsICctcGh0JywgJzAuNScsICctbnQn

> <r_lp_tautomer_probability>
1

> <r_epik_Ionization_Penalty>
  0.0000

> <r_epik_Ionization_Penalty_Charging>
  0.0000

> <r_epik_Ionization_Penalty_Neutral>
  0.0000

> <r_epik_State_Penalty>
 -0.0000

> <r_epik_Charging_Adjusted_Penalty>
0

> <i_epik_Tot_Q>
0

> <i_epik_Tot_abs_Q>
0

$$$$
