1h6e_ligand
                    3D
 Schrodinger Suite 2020-3.
159161  0  0  1  0            999 V2000
   64.4000    7.4190   10.5870 N   0  3  0  0  0  0
   63.9000    6.8040    9.3200 C   0  0  2  0  0  0
   63.2900    7.8590    8.4080 C   0  0  0  0  0  0
   62.4780    8.6680    8.8510 O   0  0  0  0  0  0
   62.8060    5.7260    9.5910 C   0  0  2  0  0  0
   61.5630    6.3530    9.9410 O   0  0  0  0  0  0
   63.2370    4.8000   10.7210 C   0  0  0  0  0  0
   63.6810    7.8680    7.1400 N   0  0  0  0  0  0
   63.1140    8.8320    6.2120 C   0  0  2  0  0  0
   63.0050    8.2620    4.8160 C   0  0  0  0  0  0
   62.1560    8.6880    4.0310 O   0  0  0  0  0  0
   63.9220   10.1470    6.1760 C   0  0  2  0  0  0
   63.4390   11.0200    7.2020 O   0  0  0  0  0  0
   63.7720   10.8480    4.8300 C   0  0  0  0  0  0
   63.8560    7.2960    4.5010 N   0  0  0  0  0  0
   63.8040    6.6940    3.1830 C   0  0  0  0  0  0
   63.4120    5.2450    3.3240 C   0  0  0  0  0  0
   62.9750    4.6030    2.3650 O   0  0  0  0  0  0
   63.5720    4.7390    4.5400 N   0  0  0  0  0  0
   63.2440    3.3630    4.8550 C   0  0  2  0  0  0
   61.8160    3.1040    4.4350 C   0  0  0  0  0  0
   60.9380    3.9210    4.6940 O   0  0  0  0  0  0
   63.3540    3.1030    6.3650 C   0  0  0  0  0  0
   62.3400    3.9600    7.1020 C   0  0  0  0  0  0
   63.1220    1.6270    6.6730 C   0  0  0  0  0  0
   61.5970    1.9750    3.7770 N   0  0  0  0  0  0
   60.2710    1.5950    3.3380 C   0  0  2  0  0  0
   59.5910    0.8650    4.4800 C   0  0  0  0  0  0
   60.2130    0.5870    5.5000 O   0  0  0  0  0  0
   60.3650    0.6680    2.1320 C   0  0  0  0  0  0
   60.4710    1.3760    0.8050 C   0  0  0  0  0  0
   59.3740    2.0390    0.2520 C   0  0  0  0  0  0
   61.6640    1.3800    0.0960 C   0  0  0  0  0  0
   59.4690    2.6850   -0.9750 C   0  0  0  0  0  0
   61.7700    2.0260   -1.1290 C   0  0  0  0  0  0
   60.6730    2.6740   -1.6570 C   0  0  0  0  0  0
   60.7980    3.3220   -2.8610 O   0  0  0  0  0  0
   58.3050    0.5770    4.3140 N   0  0  0  0  0  0
   57.5550   -0.1610    5.3180 C   0  0  2  0  0  0
   56.4770   -1.0010    4.6470 C   0  0  0  0  0  0
   55.8200   -0.5590    3.7000 O   0  0  0  0  0  0
   56.8960    0.7550    6.3560 C   0  0  0  0  0  0
   56.1540   -0.0880    7.3760 C   0  0  0  0  0  0
   57.9400    1.5650    7.0610 C   0  0  0  0  0  0
   56.3150   -2.2190    5.1530 N   0  0  0  0  0  0
   55.3480   -3.1760    4.6360 C   0  0  2  0  0  0
   53.9390   -2.6360    4.8000 C   0  0  0  0  0  0
   53.6010   -2.0660    5.8410 O   0  0  0  0  0  0
   55.4590   -4.5100    5.3840 C   0  0  0  0  0  0
   56.8150   -4.7810    6.0250 C   0  0  0  0  0  0
   57.1010   -3.8260    7.1980 C   0  0  0  0  0  0
   58.5080   -4.0280    7.7690 C   0  0  0  0  0  0
   58.9490   -2.9010    8.6460 N   0  3  0  0  0  0
   53.1220   -2.8100    3.7650 N   0  0  0  0  0  0
   51.7420   -2.3560    3.8110 C   0  0  2  0  0  0
   50.9580   -3.3730    4.6100 C   0  0  0  0  0  0
   51.3640   -4.5340    4.7190 O   0  0  0  0  0  0
   51.1550   -2.2480    2.4100 C   0  0  0  0  0  0
   51.7890   -1.1680    1.5730 C   0  0  0  0  0  0
   50.9120   -0.9100    0.0360 S   0  0  0  0  0  0
   49.4320   -0.1970    0.6550 C   0  0  0  0  0  0
   49.8300   -2.9460    5.1960 N   0  0  0  0  0  0
   48.9620   -3.8100    6.0060 C   0  0  2  0  0  0
   47.6720   -4.3250    5.3390 C   0  0  0  0  0  0
   46.5710   -4.0460    5.8200 O   0  0  0  0  0  0
   48.6610   -2.9280    7.2030 C   0  0  0  0  0  0
   48.4850   -1.5860    6.5410 C   0  0  0  0  0  0
   49.6160   -1.5240    5.5300 C   0  0  0  0  0  0
   47.7930   -5.0870    4.2300 N   0  0  0  0  0  0
   46.6350   -5.6380    3.5110 C   0  0  2  0  0  0
   45.7660   -6.5470    4.3860 C   0  0  0  0  0  0
   44.5370   -6.6410    4.1230 O   0  0  0  0  0  0
   47.2800   -6.3990    2.3530 C   0  0  0  0  0  0
   48.5080   -5.5990    2.0790 C   0  0  0  0  0  0
   49.0300   -5.3600    3.4770 C   0  0  0  0  0  0
   46.3430   -7.1710    5.3090 O   0  0  0  0  0  0
   65.1674    8.1711   10.3516 H   0  0  0  0  0  0
   64.8364    6.6376   11.2265 H   0  0  0  0  0  0
   63.5642    7.9009   11.1154 H   0  0  0  0  0  0
   64.7945    6.3642    8.8549 H   0  0  0  0  0  0
   62.5943    5.1413    8.6836 H   0  0  0  0  0  0
   61.0893    7.0614    9.2454 H   0  0  0  0  0  0
   64.1895    4.3175   10.4565 H   0  0  0  0  0  0
   62.4671    4.0302   10.8780 H   0  0  0  0  0  0
   63.3657    5.3837   11.6445 H   0  0  0  0  0  0
   64.4341    7.1461    6.7912 H   0  0  0  0  0  0
   62.1050    9.0066    6.6137 H   0  0  0  0  0  0
   64.9848    9.9560    6.3855 H   0  0  0  0  0  0
   63.4605   10.6977    8.2535 H   0  0  0  0  0  0
   64.1396   10.1884    4.0301 H   0  0  0  0  0  0
   64.3567   11.7797    4.8347 H   0  0  0  0  0  0
   62.7115   11.0815    4.6544 H   0  0  0  0  0  0
   64.5995    6.9506    5.2345 H   0  0  0  0  0  0
   63.0609    7.2224    2.5676 H   0  0  0  0  0  0
   64.7930    6.7673    2.7071 H   0  0  0  0  0  0
   63.9686    5.4028    5.3224 H   0  0  0  0  0  0
   63.9597    2.7434    4.2947 H   0  0  0  0  0  0
   64.3633    3.3702    6.7111 H   0  0  0  0  0  0
   62.5191    5.0204    6.8708 H   0  0  0  0  0  0
   62.4419    3.7986    8.1853 H   0  0  0  0  0  0
   61.3245    3.6818    6.7837 H   0  0  0  0  0  0
   63.8628    1.0189    6.1331 H   0  0  0  0  0  0
   62.1093    1.3405    6.3532 H   0  0  0  0  0  0
   63.2267    1.4573    7.7548 H   0  0  0  0  0  0
   62.4550    1.3197    3.5662 H   0  0  0  0  0  0
   59.7365    2.5174    3.0671 H   0  0  0  0  0  0
   61.2575    0.0321    2.2271 H   0  0  0  0  0  0
   59.4668    0.0347    2.0854 H   0  0  0  0  0  0
   58.4270    2.0503    0.7916 H   0  0  0  0  0  0
   62.5332    0.8671    0.5078 H   0  0  0  0  0  0
   58.6030    3.1956   -1.3962 H   0  0  0  0  0  0
   62.7159    2.0208   -1.6706 H   0  0  0  0  0  0
   59.9335    3.8440   -3.2970 H   0  0  0  0  0  0
   57.8080    0.9104    3.3911 H   0  0  0  0  0  0
   58.3147   -0.7875    5.8083 H   0  0  0  0  0  0
   56.1984    1.4439    5.8573 H   0  0  0  0  0  0
   55.3845   -0.6868    6.8667 H   0  0  0  0  0  0
   55.6760    0.5695    8.1171 H   0  0  0  0  0  0
   56.8635   -0.7579    7.8838 H   0  0  0  0  0  0
   58.4835    2.1799    6.3285 H   0  0  0  0  0  0
   58.6454    0.8912    7.5695 H   0  0  0  0  0  0
   57.4579    2.2187    7.8028 H   0  0  0  0  0  0
   56.9567   -2.4907    6.0041 H   0  0  0  0  0  0
   55.5947   -3.2975    3.5709 H   0  0  0  0  0  0
   54.7168   -4.5382    6.1954 H   0  0  0  0  0  0
   55.2705   -5.3387    4.6857 H   0  0  0  0  0  0
   56.8400   -5.8118    6.4081 H   0  0  0  0  0  0
   57.6083   -4.6494    5.2744 H   0  0  0  0  0  0
   57.0156   -2.7851    6.8526 H   0  0  0  0  0  0
   56.3734   -4.0060    8.0031 H   0  0  0  0  0  0
   58.5308   -4.9485    8.3707 H   0  0  0  0  0  0
   59.2302   -4.1116    6.9435 H   0  0  0  0  0  0
   59.9621   -3.1046    9.0230 H   0  0  0  0  0  0
   58.2550   -2.8030    9.4938 H   0  0  0  0  0  0
   58.9544   -1.9660    8.0666 H   0  0  0  0  0  0
   53.5075   -3.3075    2.8629 H   0  0  0  0  0  0
   51.7354   -1.3626    4.2833 H   0  0  0  0  0  0
   51.2961   -3.2009    1.8789 H   0  0  0  0  0  0
   50.0806   -2.0223    2.4790 H   0  0  0  0  0  0
   51.7865   -0.2212    2.1330 H   0  0  0  0  0  0
   52.8251   -1.4499    1.3341 H   0  0  0  0  0  0
   48.7568    0.0315   -0.1828 H   0  0  0  0  0  0
   49.6704    0.7300    1.1971 H   0  0  0  0  0  0
   48.9415   -0.9057    1.3385 H   0  0  0  0  0  0
   49.5087   -4.7408    6.2177 H   0  0  0  0  0  0
   47.7522   -3.2902    7.7060 H   0  0  0  0  0  0
   49.5070   -2.9617    7.9053 H   0  0  0  0  0  0
   47.4966   -1.5411    6.0604 H   0  0  0  0  0  0
   48.5613   -0.7911    7.2975 H   0  0  0  0  0  0
   50.5408   -1.1032    5.9514 H   0  0  0  0  0  0
   49.3429   -0.9705    4.6194 H   0  0  0  0  0  0
   45.9597   -4.8289    3.1958 H   0  0  0  0  0  0
   43.8912   -7.2869    4.7360 H   0  0  0  0  0  0
   47.5047   -7.4280    2.6704 H   0  0  0  0  0  0
   46.5878   -6.4218    1.4984 H   0  0  0  0  0  0
   49.1956   -6.1858    1.4523 H   0  0  0  0  0  0
   48.2326   -4.6729    1.5532 H   0  0  0  0  0  0
   49.6987   -4.4890    3.5422 H   0  0  0  0  0  0
   49.5323   -6.2407    3.9038 H   0  0  0  0  0  0
  1  2  1  0  0  0
  1 77  1  0  0  0
  1 78  1  0  0  0
  1 79  1  0  0  0
  2  3  1  0  0  0
  2  5  1  0  0  0
  2 80  1  0  0  0
  3  4  2  0  0  0
  3  8  1  0  0  0
  5  6  1  0  0  0
  5  7  1  0  0  0
  5 81  1  0  0  0
  6 82  1  0  0  0
  7 83  1  0  0  0
  7 84  1  0  0  0
  7 85  1  0  0  0
  8  9  1  0  0  0
  8 86  1  0  0  0
  9 10  1  0  0  0
  9 12  1  0  0  0
  9 87  1  0  0  0
 10 11  2  0  0  0
 10 15  1  0  0  0
 12 13  1  0  0  0
 12 14  1  0  0  0
 12 88  1  0  0  0
 13 89  1  0  0  0
 14 90  1  0  0  0
 14 91  1  0  0  0
 14 92  1  0  0  0
 15 16  1  0  0  0
 15 93  1  0  0  0
 16 17  1  0  0  0
 16 94  1  0  0  0
 16 95  1  0  0  0
 17 18  2  0  0  0
 17 19  1  0  0  0
 19 20  1  0  0  0
 19 96  1  0  0  0
 20 21  1  0  0  0
 20 23  1  0  0  0
 20 97  1  0  0  0
 21 22  2  0  0  0
 21 26  1  0  0  0
 23 24  1  0  0  0
 23 25  1  0  0  0
 23 98  1  0  0  0
 24 99  1  0  0  0
 24100  1  0  0  0
 24101  1  0  0  0
 25102  1  0  0  0
 25103  1  0  0  0
 25104  1  0  0  0
 26 27  1  0  0  0
 26105  1  0  0  0
 27 28  1  0  0  0
 27 30  1  0  0  0
 27106  1  0  0  0
 28 29  2  0  0  0
 28 38  1  0  0  0
 30 31  1  0  0  0
 30107  1  0  0  0
 30108  1  0  0  0
 31 32  2  0  0  0
 31 33  1  0  0  0
 32 34  1  0  0  0
 32109  1  0  0  0
 33 35  2  0  0  0
 33110  1  0  0  0
 34 36  2  0  0  0
 34111  1  0  0  0
 35 36  1  0  0  0
 35112  1  0  0  0
 36 37  1  0  0  0
 37113  1  0  0  0
 38 39  1  0  0  0
 38114  1  0  0  0
 39 40  1  0  0  0
 39 42  1  0  0  0
 39115  1  0  0  0
 40 41  2  0  0  0
 40 45  1  0  0  0
 42 43  1  0  0  0
 42 44  1  0  0  0
 42116  1  0  0  0
 43117  1  0  0  0
 43118  1  0  0  0
 43119  1  0  0  0
 44120  1  0  0  0
 44121  1  0  0  0
 44122  1  0  0  0
 45 46  1  0  0  0
 45123  1  0  0  0
 46 47  1  0  0  0
 46 49  1  0  0  0
 46124  1  0  0  0
 47 48  2  0  0  0
 47 54  1  0  0  0
 49 50  1  0  0  0
 49125  1  0  0  0
 49126  1  0  0  0
 50 51  1  0  0  0
 50127  1  0  0  0
 50128  1  0  0  0
 51 52  1  0  0  0
 51129  1  0  0  0
 51130  1  0  0  0
 52 53  1  0  0  0
 52131  1  0  0  0
 52132  1  0  0  0
 53133  1  0  0  0
 53134  1  0  0  0
 53135  1  0  0  0
 54 55  1  0  0  0
 54136  1  0  0  0
 55 56  1  0  0  0
 55 58  1  0  0  0
 55137  1  0  0  0
 56 57  2  0  0  0
 56 62  1  0  0  0
 58 59  1  0  0  0
 58138  1  0  0  0
 58139  1  0  0  0
 59 60  1  0  0  0
 59140  1  0  0  0
 59141  1  0  0  0
 60 61  1  0  0  0
 61142  1  0  0  0
 61143  1  0  0  0
 61144  1  0  0  0
 62 63  1  0  0  0
 62 68  1  0  0  0
 63 64  1  0  0  0
 63 66  1  0  0  0
 63145  1  0  0  0
 64 65  2  0  0  0
 64 69  1  0  0  0
 66 67  1  0  0  0
 66146  1  0  0  0
 66147  1  0  0  0
 67 68  1  0  0  0
 67148  1  0  0  0
 67149  1  0  0  0
 68150  1  0  0  0
 68151  1  0  0  0
 69 70  1  0  0  0
 69 75  1  0  0  0
 70 71  1  0  0  0
 70 73  1  0  0  0
 70152  1  0  0  0
 71 72  1  0  0  0
 71 76  2  0  0  0
 72153  1  0  0  0
 73 74  1  0  0  0
 73154  1  0  0  0
 73155  1  0  0  0
 74 75  1  0  0  0
 74156  1  0  0  0
 74157  1  0  0  0
 75158  1  0  0  0
 75159  1  0  0  0
M  CHG  2   1   1  53   1
M  END
> <s_m_source_file>
../1h6e_ligand.sdf

> <i_m_source_file_index>
1

> <s_epik_input>
W09IXVtDQEhdKFtDSDNdKVtDQEhdKFtOSDMrXSlDKD1PKVtOSF1bQ0BASF0oW0NASF0oW09IXSlbQ0gzXSlDKD1PKVtOSF1bQ0gyXUMoPU8pW05IXVtDQEBIXShbQ0hdKFtDSDNdKVtDSDNdKUMoPU8pW05IXVtDQEBIXShbQ0gyXWMxW2NIXVtjSF1jKFtPSF0pW2NIXVtjSF0xKUMoPU8pW05IXVtDQEBIXShbQ0hdKFtDSDNdKVtDSDNdKUMoPU8pW05IXVtDQEBIXShbQ0gyXVtDSDJdW0NIMl1bQ0gyXVtOSDMrXSlDKD1PKVtOSF1bQ0BASF0oW0NIMl1bQ0gyXVNbQ0gzXSlDKD1PKU4yW0NAQEhdKFtDSDJdW0NIMl1bQ0gyXTIpQyg9TylOM1tDQEhdKEMoPU8pW09IXSlbQ0gyXVtDSDJdW0NIMl0z

> <s_epik_cmdline>
J2VwaWtfYXBwJywgJy1pbWFlJywgJ2xpZ2FuZF9wcm8ubWFlJywgJy1vbWFlJywgJ2xpZ2FuZF9wcmVwLm1hZScsICctbXMnLCAnMScsICctcGgnLCAnNycsICctcGh0JywgJzAuNScsICctbnQn

> <s_epik_pKa_notes>
Molecule size exceeds maximum supported for generating protonation states

$$$$
