1h6h_ligand
                    3D
 Schrodinger Suite 2020-3.
 64 64  0  0  1  0            999 V2000
   10.9490   20.3160    5.6510 C   0  0  2  0  0  0
   11.8630   19.2320    5.0310 C   0  0  1  0  0  0
   11.9670   18.0000    6.0020 C   0  0  1  0  0  0
   10.5280   17.4240    6.3000 C   0  0  2  0  0  0
    9.6500   18.5310    6.9530 C   0  0  1  0  0  0
    9.5400   19.7450    5.9740 C   0  0  1  0  0  0
   10.8220   21.3850    4.7020 O   0  0  0  0  0  0
   11.3240   18.8240    3.7830 O   0  0  0  0  0  0
   12.8210   17.0480    5.3580 O   0  0  0  0  0  0
   10.6080   16.3110    7.2060 O   0  0  0  0  0  0
    8.3450   18.0280    7.1970 O   0  0  0  0  0  0
    8.7370   20.7580    6.5800 O   0  0  0  0  0  0
   11.7070   22.6980    4.6800 P   0  0  2  0  0  0
   11.7850   23.2070    3.1700 O   0  5  0  0  0  0
   13.1300   22.4370    5.2810 O   0  0  0  0  0  0
   10.9450   23.7970    5.5800 O   0  0  0  0  0  0
   13.8080   16.0370    6.1510 P   0  0  0  0  0  0
   12.9260   15.0260    6.9970 O   0  5  0  0  0  0
   14.6980   16.9070    7.1270 O   0  0  0  0  0  0
   14.6690   15.2550    5.0630 O   0  5  0  0  0  0
    9.8960   24.5900    5.0580 C   0  0  0  0  0  0
   10.5070   25.9650    4.8440 C   0  0  2  0  0  0
   10.3390   26.8560    6.1000 C   0  0  0  0  0  0
    9.1200   28.8350    6.7970 C   0  0  0  0  0  0
    8.9280   30.3190    6.4550 C   0  0  0  0  0  0
    9.1290   31.3280    7.6060 C   0  0  0  0  0  0
    9.1150   32.7900    7.1320 C   0  0  0  0  0  0
   10.8730   26.6200    2.4930 C   0  0  0  0  0  0
   10.3650   27.6260    1.4670 C   0  0  0  0  0  0
   10.9480   29.0420    1.6070 C   0  0  0  0  0  0
    9.9960   29.9850    2.3420 C   0  0  0  0  0  0
   10.0380   26.5760    3.6160 O   0  0  0  0  0  0
    9.8700   28.1910    5.8160 O   0  0  0  0  0  0
    8.8100   28.3660    7.9060 O   0  0  0  0  0  0
   12.0210   26.1790    2.4290 O   0  0  0  0  0  0
   11.4018   20.7426    6.5581 H   0  0  0  0  0  0
   12.8530   19.6400    4.7793 H   0  0  0  0  0  0
   12.4671   18.2148    6.9579 H   0  0  0  0  0  0
   10.0657   17.0129    5.3905 H   0  0  0  0  0  0
   10.0336   18.8138    7.9444 H   0  0  0  0  0  0
    9.0140   19.4732    5.0469 H   0  0  0  0  0  0
   11.1801   19.5606    2.9788 H   0  0  0  0  0  0
   11.1876   15.4177    6.9300 H   0  0  0  0  0  0
    8.2039   17.1661    7.8658 H   0  0  0  0  0  0
    8.5408   21.6983    6.0439 H   0  0  0  0  0  0
    9.5414   24.1529    4.1129 H   0  0  0  0  0  0
    9.0671   24.6232    5.7804 H   0  0  0  0  0  0
   11.5815   25.8557    4.6356 H   0  0  0  0  0  0
    9.6096   26.3946    6.7820 H   0  0  0  0  0  0
   11.3077   26.9549    6.6116 H   0  0  0  0  0  0
    9.6451   30.6109    5.6736 H   0  0  0  0  0  0
    7.9028   30.4818    6.0911 H   0  0  0  0  0  0
    8.3219   31.2082    8.3438 H   0  0  0  0  0  0
   10.0991   31.1431    8.0905 H   0  0  0  0  0  0
    9.2623   33.4565    7.9946 H   0  0  0  0  0  0
    8.1477   33.0124    6.6577 H   0  0  0  0  0  0
    9.9249   32.9473    6.4045 H   0  0  0  0  0  0
   10.6192   27.2777    0.4550 H   0  0  0  0  0  0
    9.2731   27.7229    1.5579 H   0  0  0  0  0  0
   11.8901   28.9963    2.1731 H   0  0  0  0  0  0
   11.1406   29.4597    0.6078 H   0  0  0  0  0  0
   10.4539   30.9823    2.4180 H   0  0  0  0  0  0
    9.7992   29.5940    3.3512 H   0  0  0  0  0  0
    9.0497   30.0574    1.7859 H   0  0  0  0  0  0
  1  7  1  0  0  0
  1  6  1  0  0  0
  1  2  1  0  0  0
  1 36  1  0  0  0
  2  8  1  0  0  0
  2  3  1  0  0  0
  2 37  1  0  0  0
  3  9  1  0  0  0
  3  4  1  0  0  0
  3 38  1  0  0  0
  4 10  1  0  0  0
  4  5  1  0  0  0
  4 39  1  0  0  0
  5 11  1  0  0  0
  5  6  1  0  0  0
  5 40  1  0  0  0
  6 12  1  0  0  0
  6 41  1  0  0  0
  7 13  1  0  0  0
  8 42  1  0  0  0
  9 17  1  0  0  0
 10 43  1  0  0  0
 11 44  1  0  0  0
 12 45  1  0  0  0
 13 16  1  0  0  0
 13 15  2  0  0  0
 13 14  1  0  0  0
 16 21  1  0  0  0
 17 20  1  0  0  0
 17 19  2  0  0  0
 17 18  1  0  0  0
 21 22  1  0  0  0
 21 46  1  0  0  0
 21 47  1  0  0  0
 22 32  1  0  0  0
 22 23  1  0  0  0
 22 48  1  0  0  0
 23 33  1  0  0  0
 23 49  1  0  0  0
 23 50  1  0  0  0
 24 33  1  0  0  0
 24 34  2  0  0  0
 24 25  1  0  0  0
 25 26  1  0  0  0
 25 51  1  0  0  0
 25 52  1  0  0  0
 26 27  1  0  0  0
 26 53  1  0  0  0
 26 54  1  0  0  0
 27 55  1  0  0  0
 27 56  1  0  0  0
 27 57  1  0  0  0
 28 32  1  0  0  0
 28 35  2  0  0  0
 28 29  1  0  0  0
 29 30  1  0  0  0
 29 58  1  0  0  0
 29 59  1  0  0  0
 30 31  1  0  0  0
 30 60  1  0  0  0
 30 61  1  0  0  0
 31 62  1  0  0  0
 31 63  1  0  0  0
 31 64  1  0  0  0
M  CHG  3  14  -1  18  -1  20  -1
M  END
> <s_m_source_file>
../1h6h_ligand.sdf

> <i_m_source_file_index>
1

> <s_epik_input>
W09IXVtDQEBIXTFbQ0BASF0oW09IXSlbQ0BIXShbT0hdKVtDQEBIXShPUCg9TykoW09IXSlbT0hdKVtDQEBIXShbT0hdKVtDQEhdMU9bUEBAXSg9TykoW09IXSlPW0NIMl1bQ0BASF0oT0MoPU8pW0NIMl1bQ0gyXVtDSDNdKVtDSDJdT0MoPU8pW0NIMl1bQ0gyXVtDSDNd

> <s_epik_cmdline>
J2VwaWtfYXBwJywgJy1pbWFlJywgJ2xpZ2FuZF9wcm8ubWFlJywgJy1vbWFlJywgJ2xpZ2FuZF9wcmVwLm1hZScsICctbXMnLCAnMScsICctcGgnLCAnNycsICctcGh0JywgJzAuNScsICctbnQn

> <r_epik_Ionization_Penalty>
  0.1147

> <r_epik_Ionization_Penalty_Charging>
  0.1146

> <r_epik_Ionization_Penalty_Neutral>
  0.0000

> <r_epik_State_Penalty>
  0.1040

> <r_epik_Charging_Adjusted_Penalty>
0.21864827413901

> <i_epik_Tot_Q>
-3

> <i_epik_Tot_abs_Q>
3

> <s_epik_Chemistry_Notes>
This compound has an ester and may undergo hydrolysis at high or low pH.

$$$$
