1h79_ligand
                    3D
 Schrodinger Suite 2020-3.
 42 43  0  0  1  0            999 V2000
   42.8360   40.7050   63.3530 P   0  0  1  0  0  0
   42.4550   39.2800   63.4790 O   0  0  0  0  0  0
   43.9980   41.1620   64.1570 O   0  5  0  0  0  0
   43.0130   41.1450   61.8040 O   0  0  0  0  0  0
   44.2470   40.6210   60.8780 P   0  0  2  0  0  0
   45.0150   41.8050   60.4030 O   0  0  0  0  0  0
   43.6030   39.7770   59.8270 O   0  5  0  0  0  0
   45.1690   39.7250   61.8710 O   0  0  0  0  0  0
   45.2890   38.1250   61.7460 P   0  0  0  0  0  0
   43.9470   37.5370   61.8720 O   0  0  0  0  0  0
   46.2790   37.7360   62.7840 O   0  5  0  0  0  0
   45.8970   37.8750   60.2810 O   0  5  0  0  0  0
   41.6050   41.5780   63.8540 O   0  0  0  0  0  0
   40.5530   40.9520   64.5810 C   0  0  0  0  0  0
   39.2710   41.7820   64.5260 C   0  0  1  0  0  0
   39.5830   43.1670   64.4550 O   0  0  0  0  0  0
   38.4370   41.5660   63.2890 C   0  0  1  0  0  0
   37.0730   41.2390   63.6060 O   0  0  0  0  0  0
   38.4820   42.9140   62.5540 C   0  0  0  0  0  0
   38.9540   43.8790   63.3710 C   0  0  2  0  0  0
   39.6950   44.9020   62.7400 N   0  0  0  0  0  0
   39.3310   46.2450   63.0020 C   0  0  0  0  0  0
   38.3410   46.5160   63.6920 O   0  0  0  0  0  0
   40.1140   47.2900   62.4710 N   0  0  0  0  0  0
   41.2470   47.0040   61.6880 C   0  0  0  0  0  0
   41.9060   47.9350   61.2450 O   0  0  0  0  0  0
   41.6190   45.6800   61.4160 C   0  0  0  0  0  0
   42.8710   45.3690   60.5820 C   0  0  0  0  0  0
   40.8510   44.6350   61.9310 C   0  0  0  0  0  0
   40.3477   39.9614   64.1490 H   0  0  0  0  0  0
   40.8518   40.8383   65.6335 H   0  0  0  0  0  0
   38.7152   41.5341   65.4423 H   0  0  0  0  0  0
   38.7788   40.6942   62.7118 H   0  0  0  0  0  0
   36.8406   40.3038   64.1365 H   0  0  0  0  0  0
   39.1417   42.8319   61.6776 H   0  0  0  0  0  0
   37.4682   43.1866   62.2255 H   0  0  0  0  0  0
   38.1090   44.4944   63.7135 H   0  0  0  0  0  0
   39.8404   48.3370   62.6680 H   0  0  0  0  0  0
   43.3432   46.3104   60.2645 H   0  0  0  0  0  0
   42.5848   44.7849   59.6949 H   0  0  0  0  0  0
   43.5814   44.7890   61.1894 H   0  0  0  0  0  0
   41.1319   43.6038   61.7167 H   0  0  0  0  0  0
  1  2  2  0  0  0
  1  3  1  0  0  0
  1  4  1  0  0  0
  1 13  1  0  0  0
  4  5  1  0  0  0
  5  6  2  0  0  0
  5  7  1  0  0  0
  5  8  1  0  0  0
  8  9  1  0  0  0
  9 10  2  0  0  0
  9 11  1  0  0  0
  9 12  1  0  0  0
 13 14  1  0  0  0
 14 15  1  0  0  0
 14 30  1  0  0  0
 14 31  1  0  0  0
 15 16  1  0  0  0
 15 17  1  0  0  0
 15 32  1  0  0  0
 16 20  1  0  0  0
 17 18  1  0  0  0
 17 19  1  0  0  0
 17 33  1  0  0  0
 18 34  1  0  0  0
 19 20  1  0  0  0
 19 35  1  0  0  0
 19 36  1  0  0  0
 20 21  1  0  0  0
 20 37  1  0  0  0
 21 22  1  0  0  0
 21 29  1  0  0  0
 22 23  2  0  0  0
 22 24  1  0  0  0
 24 25  1  0  0  0
 24 38  1  0  0  0
 25 26  2  0  0  0
 25 27  1  0  0  0
 27 28  1  0  0  0
 27 29  2  0  0  0
 28 39  1  0  0  0
 28 40  1  0  0  0
 28 41  1  0  0  0
 29 42  1  0  0  0
M  CHG  4   3  -1   7  -1  11  -1  12  -1
M  END
> <s_m_source_file>
../1h79_ligand.sdf

> <i_m_source_file_index>
1

> <s_epik_input>
Tz1QKFtPSF0pKFtPSF0pT1tQQEBdKD1PKShbT0hdKU9bUEBAXSg9TykoW09IXSlPW0NIMl1bQ0BIXTFPW0NASF0oW0NIMl1bQ0BASF0xW09IXSluMmMoPU8pW25IXWMoPU8pYyhbQ0gzXSlbY0hdMg==

> <s_epik_cmdline>
J2VwaWtfYXBwJywgJy1pbWFlJywgJ2xpZ2FuZF9wcm8ubWFlJywgJy1vbWFlJywgJ2xpZ2FuZF9wcmVwLm1hZScsICctbXMnLCAnMScsICctcGgnLCAnNycsICctcGh0JywgJzAuNScsICctbnQn

> <r_lp_tautomer_probability>
0.999537046341301

> <r_epik_Ionization_Penalty>
  0.0827

> <r_epik_Ionization_Penalty_Charging>
  0.0827

> <r_epik_Ionization_Penalty_Neutral>
  0.0000

> <r_epik_State_Penalty>
  0.0709

> <r_epik_Charging_Adjusted_Penalty>
0.153602835498398

> <i_epik_Tot_Q>
-4

> <i_epik_Tot_abs_Q>
4

> <s_epik_Chemistry_Notes>
This compound contains an acetal/aminal-like group ( X-CH(R)-Y where X, Y are N, S, or O) that may be acid/base labile, releasing an aldehyde.

$$$$
