1h7a_ligand
                    3D
 Schrodinger Suite 2020-3.
 42 44  0  0  1  0            999 V2000
   44.0960   39.5060   62.3610 P   0  0  0  0  0  0
   42.8480   39.0640   63.0020 O   0  5  0  0  0  0
   45.2740   39.4090   63.2330 O   0  0  0  0  0  0
   44.2540   38.9760   60.9710 O   0  5  0  0  0  0
   43.0210   42.1250   61.4110 P   0  0  1  0  0  0
   43.9250   43.1950   60.8060 O   0  5  0  0  0  0
   42.1760   41.2940   60.5320 O   0  0  0  0  0  0
   44.0050   41.1170   62.2600 O   0  0  0  0  0  0
   42.1320   42.6180   64.1780 P   0  0  1  0  0  0
   41.8160   41.1970   64.4040 O   0  0  0  0  0  0
   43.3500   43.2100   64.8100 O   0  5  0  0  0  0
   42.1930   42.8100   62.5950 O   0  0  0  0  0  0
   40.8830   43.3720   64.6240 O   0  0  0  0  0  0
   39.7120   43.1210   63.9290 C   0  0  0  0  0  0
   38.5000   43.7840   64.4870 C   0  0  1  0  0  0
   38.7020   45.2140   64.4180 O   0  0  0  0  0  0
   37.3280   43.4950   63.6230 C   0  0  1  0  0  0
   36.1240   43.7560   64.3870 O   0  0  0  0  0  0
   37.6510   44.4330   62.4650 C   0  0  0  0  0  0
   38.2050   45.7160   63.1570 C   0  0  2  0  0  0
   39.3700   46.4140   62.5080 N   0  0  0  0  0  0
   40.4790   45.9000   61.9030 C   0  0  0  0  0  0
   41.3250   46.7780   61.4560 N   0  0  0  0  0  0
   40.7280   47.9810   61.7860 C   0  0  0  0  0  0
   41.1120   49.3610   61.5930 C   0  0  0  0  0  0
   42.2460   49.6900   61.0070 N   0  0  0  0  0  0
   40.2990   50.3380   62.0350 N   0  0  0  0  0  0
   39.1530   50.0060   62.6350 C   0  0  0  0  0  0
   38.6700   48.7600   62.8820 N   0  0  0  0  0  0
   39.5300   47.7760   62.4170 C   0  0  0  0  0  0
   39.8178   43.4742   62.8926 H   0  0  0  0  0  0
   39.5102   42.0397   63.9290 H   0  0  0  0  0  0
   38.3320   43.4521   65.5222 H   0  0  0  0  0  0
   37.1263   42.4639   63.2973 H   0  0  0  0  0  0
   35.8553   43.1027   65.2302 H   0  0  0  0  0  0
   38.3979   43.9620   61.8090 H   0  0  0  0  0  0
   36.7349   44.6359   61.8910 H   0  0  0  0  0  0
   37.4208   46.4853   63.2136 H   0  0  0  0  0  0
   40.6437   44.8273   61.8018 H   0  0  0  0  0  0
   42.9231   48.9049   60.6394 H   0  0  0  0  0  0
   42.5152   50.7496   60.8856 H   0  0  0  0  0  0
   38.5289   50.8356   62.9671 H   0  0  0  0  0  0
  1  2  1  0  0  0
  1  3  2  0  0  0
  1  4  1  0  0  0
  1  8  1  0  0  0
  5  6  1  0  0  0
  5  7  2  0  0  0
  5  8  1  0  0  0
  5 12  1  0  0  0
  9 10  2  0  0  0
  9 11  1  0  0  0
  9 12  1  0  0  0
  9 13  1  0  0  0
 13 14  1  0  0  0
 14 15  1  0  0  0
 14 31  1  0  0  0
 14 32  1  0  0  0
 15 16  1  0  0  0
 15 17  1  0  0  0
 15 33  1  0  0  0
 16 20  1  0  0  0
 17 18  1  0  0  0
 17 19  1  0  0  0
 17 34  1  0  0  0
 18 35  1  0  0  0
 19 20  1  0  0  0
 19 36  1  0  0  0
 19 37  1  0  0  0
 20 21  1  0  0  0
 20 38  1  0  0  0
 21 22  1  0  0  0
 21 30  1  0  0  0
 22 23  2  0  0  0
 22 39  1  0  0  0
 23 24  1  0  0  0
 24 25  2  0  0  0
 24 30  1  0  0  0
 25 26  1  0  0  0
 25 27  1  0  0  0
 26 40  1  0  0  0
 26 41  1  0  0  0
 27 28  2  0  0  0
 28 29  1  0  0  0
 28 42  1  0  0  0
 29 30  2  0  0  0
M  CHG  4   2  -1   4  -1   6  -1  11  -1
M  END
> <s_m_source_file>
../1h7a_ligand.sdf

> <i_m_source_file_index>
1

> <s_epik_input>
W09IXVAoPU8pKFtPSF0pT1tQQF0oPU8pKFtPSF0pT1tQQEBdKD1PKShbT0hdKU9bQ0gyXVtDQEhdMU9bQ0BIXShbQ0gyXVtDQEBIXTFbT0hdKW4oW2NIXW4yKWMoYzIzKW5bY0hdbmMzW05IMl0=

> <s_epik_cmdline>
J2VwaWtfYXBwJywgJy1pbWFlJywgJ2xpZ2FuZF9wcm8ubWFlJywgJy1vbWFlJywgJ2xpZ2FuZF9wcmVwLm1hZScsICctbXMnLCAnMScsICctcGgnLCAnNycsICctcGh0JywgJzAuNScsICctbnQn

> <r_lp_tautomer_probability>
0.999997216410988

> <r_epik_Ionization_Penalty>
  0.0821

> <r_epik_Ionization_Penalty_Charging>
  0.0814

> <r_epik_Ionization_Penalty_Neutral>
  0.0007

> <r_epik_State_Penalty>
  0.0709

> <r_epik_Charging_Adjusted_Penalty>
0.152243739290731

> <i_epik_Tot_Q>
-4

> <i_epik_Tot_abs_Q>
4

> <s_epik_Chemistry_Notes>
This compound contains an acetal/aminal-like group ( X-CH(R)-Y where X, Y are N, S, or O) that may be acid/base labile, releasing an aldehyde.

$$$$
