1h8s_ligand
                    3D
 Schrodinger Suite 2020-3.
 42 44  0  0  1  0            999 V2000
   22.0380   39.3580   10.4860 C   0  0  0  0  0  0
   21.4780   38.6520   12.7700 C   0  0  0  0  0  0
   15.4860   36.1150   10.4730 C   0  0  0  0  0  0
   18.8390   36.6500   12.7590 N   0  0  0  0  0  0
   14.7200   33.7270   10.8250 C   0  0  0  0  0  0
   16.9520   34.4130   11.6170 N   0  0  0  0  0  0
   20.5060   38.2190   13.7650 C   0  0  2  0  0  0
   13.9960   36.4000   10.1720 C   0  0  0  0  0  0
   20.0350   36.8540   13.5140 C   0  0  0  0  0  0
   21.0810   38.9440   11.4370 C   0  0  0  0  0  0
   23.3850   39.5030   10.8710 C   0  0  0  0  0  0
   23.7690   39.2510   12.2090 C   0  0  0  0  0  0
   22.8270   38.7900   13.1460 C   0  0  0  0  0  0
   15.8760   34.6060   10.5490 C   0  0  2  0  0  0
   16.8220   35.3550   12.7360 C   0  0  1  0  0  0
   18.3260   35.3360   12.8020 C   0  0  1  0  0  0
   18.3210   34.7670   11.4940 C   0  0  0  0  0  0
   16.3510   36.8010    9.4180 C   0  0  0  0  0  0
   19.4300   39.1090   13.7820 N   0  0  0  0  0  0
   14.5590   33.2500   11.9750 O   0  0  0  0  0  0
   13.8850   33.4570    9.9080 O   0  5  0  0  0  0
   20.7130   35.8860   13.9490 O   0  0  0  0  0  0
   19.1640   34.6650   10.5840 O   0  0  0  0  0  0
   15.8480   36.7080   12.0890 S   0  0  0  0  0  0
   21.7363   39.5644    9.4591 H   0  0  0  0  0  0
   18.3207   37.4239   12.1739 H   0  0  0  0  0  0
   20.9719   38.2530   14.7609 H   0  0  0  0  0  0
   13.8297   37.4869   10.1405 H   0  0  0  0  0  0
   13.3711   35.9562   10.9610 H   0  0  0  0  0  0
   13.7275   35.9596    9.2004 H   0  0  0  0  0  0
   20.0343   38.8479   11.1483 H   0  0  0  0  0  0
   24.1314   39.8093   10.1381 H   0  0  0  0  0  0
   24.8020   39.4152   12.5158 H   0  0  0  0  0  0
   23.1406   38.5405   14.1597 H   0  0  0  0  0  0
   16.2398   34.2678    9.5675 H   0  0  0  0  0  0
   16.4328   35.1238   13.7385 H   0  0  0  0  0  0
   18.9048   34.8921   13.6254 H   0  0  0  0  0  0
   17.4122   36.6013    9.6276 H   0  0  0  0  0  0
   16.1698   37.8857    9.4441 H   0  0  0  0  0  0
   16.0940   36.4101    8.4224 H   0  0  0  0  0  0
   18.9349   39.1045   12.7997 H   0  0  0  0  0  0
   18.7117   38.8010   14.5561 H   0  0  0  0  0  0
  1 10  2  0  0  0
  1 11  1  0  0  0
  1 25  1  0  0  0
  2  7  1  0  0  0
  2 10  1  0  0  0
  2 13  2  0  0  0
  3 24  1  0  0  0
  3 18  1  0  0  0
  3 14  1  0  0  0
  3  8  1  0  0  0
  4 16  1  0  0  0
  4  9  1  0  0  0
  4 26  1  0  0  0
  5 21  1  0  0  0
  5 20  2  0  0  0
  5 14  1  0  0  0
  6 17  1  0  0  0
  6 15  1  0  0  0
  6 14  1  0  0  0
  7  9  1  0  0  0
  7 19  1  0  0  0
  7 27  1  0  0  0
  8 28  1  0  0  0
  8 29  1  0  0  0
  8 30  1  0  0  0
  9 22  2  0  0  0
 10 31  1  0  0  0
 11 12  2  0  0  0
 11 32  1  0  0  0
 12 13  1  0  0  0
 12 33  1  0  0  0
 13 34  1  0  0  0
 14 35  1  0  0  0
 15 16  1  0  0  0
 15 24  1  0  0  0
 15 36  1  0  0  0
 16 17  1  0  0  0
 16 37  1  0  0  0
 17 23  2  0  0  0
 18 38  1  0  0  0
 18 39  1  0  0  0
 18 40  1  0  0  0
 19 41  1  0  0  0
 19 42  1  0  0  0
M  CHG  1  21  -1
M  END
> <s_m_source_file>
../1h8s_ligand.sdf

> <i_m_source_file_index>
1

> <s_epik_input>
W2NIXTFbY0hdW2NIXVtjSF1bY0hdYzFbQ0BASF0oW05IMytdKUMoPU8pW05IXVtDQEhdKEMyPU8pW0NASF0oTjIzKVNDKFtDSDNdKShbQ0gzXSlbQ0BASF0zQyg9TylbT0hd

> <s_epik_cmdline>
J2VwaWtfYXBwJywgJy1pbWFlJywgJ2xpZ2FuZF9wcm8ubWFlJywgJy1vbWFlJywgJ2xpZ2FuZF9wcmVwLm1hZScsICctbXMnLCAnMScsICctcGgnLCAnNycsICctcGh0JywgJzAuNScsICctbnQn

> <r_epik_Ionization_Penalty>
  0.2370

> <r_epik_Ionization_Penalty_Charging>
  0.0000

> <r_epik_Ionization_Penalty_Neutral>
  0.2370

> <r_epik_State_Penalty>
  0.2278

> <r_epik_Charging_Adjusted_Penalty>
0.22785745584514

> <i_epik_Tot_Q>
-1

> <i_epik_Tot_abs_Q>
1

> <s_epik_Chemistry_Notes>
This compound contains an acetal/aminal-like group ( X-CH(R)-Y where X, Y are N, S, or O) that may be acid/base labile, releasing an aldehyde.

$$$$
