1h8y_ligand
                    3D
 Schrodinger Suite 2020-3.
 53 54  0  0  1  0            999 V2000
   28.7060   93.2980   53.4930 C   0  0  0  0  0  0
   32.7090   91.6290   55.3000 C   0  0  2  0  0  0
   29.1420   91.9070   54.0820 C   0  0  1  0  0  0
   30.4480   92.2160   54.9300 C   0  0  2  0  0  0
   32.6210   92.7510   54.5390 C   0  0  0  0  0  0
   29.1870   93.6300   52.4070 O   0  0  0  0  0  0
   27.9080   91.6250   55.0420 C   0  0  2  0  0  0
   28.2300   90.9800   56.1840 O   0  0  0  0  0  0
   26.6500   91.2640   54.3030 C   0  0  0  0  0  0
   31.3550   93.1690   54.4520 N   0  0  0  0  0  0
   33.7210   93.4460   53.9490 C   0  0  0  0  0  0
   33.7550   93.5540   52.7030 O   0  0  0  0  0  0
   34.8790   93.7130   54.6530 O   0  5  0  0  0  0
   34.0400   90.4070   54.9360 S   0  0  0  0  0  0
   35.6920   91.1430   55.2400 C   0  0  1  0  0  0
   35.7440   92.0400   56.4920 C   0  0  0  0  0  0
   35.3590   91.0110   57.6260 C   0  0  1  0  0  0
   31.3000   91.0710   55.4210 C   0  0  1  0  0  0
   35.6290   89.7210   56.9900 N   0  3  0  0  0  0
   31.3630   89.9300   54.3310 C   0  0  0  0  0  0
   36.5250   89.9290   55.8300 C   0  0  0  0  0  0
   36.2410   91.2820   58.9050 C   0  0  0  0  0  0
   36.7470   92.6250   59.1490 N   0  0  0  0  0  0
   37.0770   90.3760   59.1300 O   0  0  0  0  0  0
   38.0680   93.0240   58.7190 C   0  0  0  0  0  0
   36.1810   93.3040   60.2790 C   0  0  0  0  0  0
   28.0016   93.9663   54.0099 H   0  0  0  0  0  0
   29.3522   91.0882   53.3781 H   0  0  0  0  0  0
   29.9840   92.7291   55.7852 H   0  0  0  0  0  0
   27.5668   92.4539   55.6797 H   0  0  0  0  0  0
   29.1509   91.2448   56.7243 H   0  0  0  0  0  0
   26.5595   91.8922   53.4046 H   0  0  0  0  0  0
   25.7806   91.4305   54.9560 H   0  0  0  0  0  0
   26.6893   90.2051   54.0076 H   0  0  0  0  0  0
   36.1106   91.7177   54.4006 H   0  0  0  0  0  0
   36.7566   92.4547   56.6041 H   0  0  0  0  0  0
   35.0210   92.8620   56.3844 H   0  0  0  0  0  0
   34.3112   91.0042   57.9607 H   0  0  0  0  0  0
   30.9404   90.7450   56.4081 H   0  0  0  0  0  0
   36.1125   89.0491   57.7144 H   0  0  0  0  0  0
   34.6828   89.2744   56.6505 H   0  0  0  0  0  0
   31.9864   89.1029   54.7016 H   0  0  0  0  0  0
   31.7995   90.3316   53.4046 H   0  0  0  0  0  0
   30.3470   89.5608   54.1276 H   0  0  0  0  0  0
   36.5613   89.1155   55.0905 H   0  0  0  0  0  0
   37.5480   90.2628   56.0583 H   0  0  0  0  0  0
   38.3682   92.4210   57.8494 H   0  0  0  0  0  0
   38.7838   92.8664   59.5393 H   0  0  0  0  0  0
   38.0573   94.0883   58.4411 H   0  0  0  0  0  0
   35.1807   92.8970   60.4880 H   0  0  0  0  0  0
   36.1009   94.3787   60.0586 H   0  0  0  0  0  0
   36.8275   93.1568   61.1567 H   0  0  0  0  0  0
   30.9887   94.1309   54.0640 H   0  0  0  0  0  0
  1  3  1  0  0  0
  1  6  2  0  0  0
  1 27  1  0  0  0
  2  5  2  0  0  0
  2 14  1  0  0  0
  2 18  1  0  0  0
  3  4  1  0  0  0
  3  7  1  0  0  0
  3 28  1  0  0  0
  4 10  1  0  0  0
  4 18  1  0  0  0
  4 29  1  0  0  0
  5 10  1  0  0  0
  5 11  1  0  0  0
  7  8  1  0  0  0
  7  9  1  0  0  0
  7 30  1  0  0  0
  8 31  1  0  0  0
  9 32  1  0  0  0
  9 33  1  0  0  0
  9 34  1  0  0  0
 10 53  1  0  0  0
 11 12  2  0  0  0
 11 13  1  0  0  0
 14 15  1  0  0  0
 15 16  1  0  0  0
 15 21  1  0  0  0
 15 35  1  0  0  0
 16 17  1  0  0  0
 16 36  1  0  0  0
 16 37  1  0  0  0
 17 19  1  0  0  0
 17 22  1  0  0  0
 17 38  1  0  0  0
 18 20  1  0  0  0
 18 39  1  0  0  0
 19 21  1  0  0  0
 19 40  1  0  0  0
 19 41  1  0  0  0
 20 42  1  0  0  0
 20 43  1  0  0  0
 20 44  1  0  0  0
 21 45  1  0  0  0
 21 46  1  0  0  0
 22 23  1  0  0  0
 22 24  2  0  0  0
 23 25  1  0  0  0
 23 26  1  0  0  0
 25 47  1  0  0  0
 25 48  1  0  0  0
 25 49  1  0  0  0
 26 50  1  0  0  0
 26 51  1  0  0  0
 26 52  1  0  0  0
M  CHG  2  13  -1  19   1
M  END
> <s_m_source_file>
../1h8y_ligand.sdf

> <i_m_source_file_index>
1

> <s_epik_input>
Tz1bQ0hdW0NASF0oW0NASF0oW09IXSlbQ0gzXSlbQ0BASF0oW0NASF0xW0NIM10pTj1DKEMoPU8pW09IXSlbQ0BASF0xU1tDQEhdMltDSDJdW0NAQEhdKFtOSDIrXVtDSDJdMilDKD1PKU4oW0NIM10pW0NIM10=

> <s_epik_cmdline>
J2VwaWtfYXBwJywgJy1pbWFlJywgJ2xpZ2FuZF9wcm8ubWFlJywgJy1vbWFlJywgJ2xpZ2FuZF9wcmVwLm1hZScsICctbXMnLCAnMScsICctcGgnLCAnNycsICctcGh0JywgJzAuNScsICctbnQn

> <r_lp_tautomer_probability>
0.99990000499975

> <r_epik_Ionization_Penalty>
  0.0352

> <r_epik_Ionization_Penalty_Charging>
  0.0349

> <r_epik_Ionization_Penalty_Neutral>
  0.0003

> <r_epik_State_Penalty>
  0.0290

> <r_epik_Charging_Adjusted_Penalty>
0.0639316507976631

> <i_epik_Tot_Q>
0

> <i_epik_Tot_abs_Q>
2

> <s_epik_Chemistry_Notes>
This compound has an imine and may undergo hydrolysis.

$$$$
