1h9l_ligand
                    3D
 Schrodinger Suite 2020-3.
 67 67  0  0  1  0            999 V2000
  -18.1450   17.2080   39.9100 N   0  3  0  0  0  0
  -16.8940   17.9720   40.2010 C   0  0  2  0  0  0
  -15.9740   18.0850   38.9800 C   0  0  0  0  0  0
  -15.5660   17.0770   38.3840 O   0  0  0  0  0  0
  -16.1710   17.3430   41.4090 C   0  0  0  0  0  0
  -16.5310   15.8550   41.5420 C   0  0  0  0  0  0
  -14.6750   17.5680   41.3400 C   0  0  0  0  0  0
  -15.5870   19.3140   38.6350 N   0  0  0  0  0  0
  -14.6860   19.5360   37.4760 C   0  0  2  0  0  0
  -13.2570   20.1560   37.7230 C   0  0  0  0  0  0
  -13.1150   21.3740   37.9040 O   0  0  0  0  0  0
  -15.3990   20.3200   36.3740 C   0  0  0  0  0  0
  -14.4990   20.7110   35.2090 C   0  0  0  0  0  0
  -14.7440   19.9170   33.9140 C   0  0  0  0  0  0
  -15.5440   18.9750   33.9040 O   0  0  0  0  0  0
  -14.1300   20.2580   32.8760 O   0  5  0  0  0  0
  -12.1940   19.3450   37.7020 N   0  0  0  0  0  0
  -10.8220   19.8720   37.8990 C   0  0  2  0  0  0
  -10.5120   21.0310   36.9790 C   0  0  0  0  0  0
  -10.5100   20.8810   35.7480 O   0  0  0  0  0  0
   -9.9220   18.6880   37.5430 C   0  0  0  0  0  0
  -10.7660   17.5060   37.8500 C   0  0  0  0  0  0
  -12.1840   17.8880   37.4880 C   0  0  0  0  0  0
  -10.2280   22.1890   37.5620 N   0  0  0  0  0  0
   -9.9110   23.3100   36.7180 C   0  0  2  0  0  0
   -8.5890   23.9230   36.9780 C   0  0  0  0  0  0
   -8.5840   25.0770   36.6040 O   0  0  0  0  0  0
  -10.8380   24.4810   36.8810 C   0  0  2  0  0  0
  -10.9380   24.9450   38.3340 C   0  0  0  0  0  0
  -12.2030   24.2120   36.2790 C   0  0  0  0  0  0
  -10.5470   26.4140   38.4910 C   0  0  0  0  0  0
  -18.6581   17.6593   39.0480 H   0  0  0  0  0  0
  -18.8066   17.2396   40.7882 H   0  0  0  0  0  0
  -17.8911   16.1628   39.6796 H   0  0  0  0  0  0
  -17.2081   18.9977   40.4446 H   0  0  0  0  0  0
  -16.5022   17.8515   42.3265 H   0  0  0  0  0  0
  -17.6245   15.7450   41.5880 H   0  0  0  0  0  0
  -16.0827   15.4501   42.4613 H   0  0  0  0  0  0
  -16.1434   15.3048   40.6719 H   0  0  0  0  0  0
  -14.4701   18.6446   41.2457 H   0  0  0  0  0  0
  -14.2645   17.0388   40.4674 H   0  0  0  0  0  0
  -14.2038   17.1840   42.2568 H   0  0  0  0  0  0
  -15.9462   20.1705   39.2244 H   0  0  0  0  0  0
  -14.5211   18.4827   37.2051 H   0  0  0  0  0  0
  -16.2171   19.7112   35.9616 H   0  0  0  0  0  0
  -15.8096   21.2505   36.7930 H   0  0  0  0  0  0
  -14.6544   21.7725   34.9658 H   0  0  0  0  0  0
  -13.4473   20.5489   35.4876 H   0  0  0  0  0  0
  -10.7093   20.2560   38.9236 H   0  0  0  0  0  0
   -9.6488   18.7421   36.4788 H   0  0  0  0  0  0
   -9.0105   18.7224   38.1578 H   0  0  0  0  0  0
  -10.4250   16.6471   37.2534 H   0  0  0  0  0  0
  -10.6840   17.2649   38.9201 H   0  0  0  0  0  0
  -12.9311   17.4161   38.1430 H   0  0  0  0  0  0
  -12.4274   17.6700   36.4376 H   0  0  0  0  0  0
  -10.2299   22.3071   38.6556 H   0  0  0  0  0  0
   -9.9709   22.8008   35.7448 H   0  0  0  0  0  0
   -7.6868   23.4884   37.4331 H   0  0  0  0  0  0
  -10.3861   25.3007   36.3032 H   0  0  0  0  0  0
  -11.9728   24.8243   38.6871 H   0  0  0  0  0  0
  -10.2644   24.3405   38.9592 H   0  0  0  0  0  0
  -12.0853   23.8816   35.2364 H   0  0  0  0  0  0
  -12.8037   25.1331   36.3061 H   0  0  0  0  0  0
  -12.7105   23.4261   36.8576 H   0  0  0  0  0  0
  -10.6329   26.7053   39.5482 H   0  0  0  0  0  0
  -11.2175   27.0389   37.8828 H   0  0  0  0  0  0
   -9.5091   26.5551   38.1549 H   0  0  0  0  0  0
  1  2  1  0  0  0
  1 32  1  0  0  0
  1 33  1  0  0  0
  1 34  1  0  0  0
  2  3  1  0  0  0
  2  5  1  0  0  0
  2 35  1  0  0  0
  3  4  2  0  0  0
  3  8  1  0  0  0
  5  6  1  0  0  0
  5  7  1  0  0  0
  5 36  1  0  0  0
  6 37  1  0  0  0
  6 38  1  0  0  0
  6 39  1  0  0  0
  7 40  1  0  0  0
  7 41  1  0  0  0
  7 42  1  0  0  0
  8  9  1  0  0  0
  8 43  1  0  0  0
  9 10  1  0  0  0
  9 12  1  0  0  0
  9 44  1  0  0  0
 10 11  2  0  0  0
 10 17  1  0  0  0
 12 13  1  0  0  0
 12 45  1  0  0  0
 12 46  1  0  0  0
 13 14  1  0  0  0
 13 47  1  0  0  0
 13 48  1  0  0  0
 14 15  2  0  0  0
 14 16  1  0  0  0
 17 18  1  0  0  0
 17 23  1  0  0  0
 18 19  1  0  0  0
 18 21  1  0  0  0
 18 49  1  0  0  0
 19 20  2  0  0  0
 19 24  1  0  0  0
 21 22  1  0  0  0
 21 50  1  0  0  0
 21 51  1  0  0  0
 22 23  1  0  0  0
 22 52  1  0  0  0
 22 53  1  0  0  0
 23 54  1  0  0  0
 23 55  1  0  0  0
 24 25  1  0  0  0
 24 56  1  0  0  0
 25 26  1  0  0  0
 25 28  1  0  0  0
 25 57  1  0  0  0
 26 27  2  0  0  0
 26 58  1  0  0  0
 28 29  1  0  0  0
 28 30  1  0  0  0
 28 59  1  0  0  0
 29 31  1  0  0  0
 29 60  1  0  0  0
 29 61  1  0  0  0
 30 62  1  0  0  0
 30 63  1  0  0  0
 30 64  1  0  0  0
 31 65  1  0  0  0
 31 66  1  0  0  0
 31 67  1  0  0  0
M  CHG  2   1   1  16  -1
M  END
> <s_m_source_file>
../1h9l_ligand.sdf

> <i_m_source_file_index>
1

> <s_epik_input>
W0NIM11bQ0hdKFtDSDNdKVtDQEhdKFtOSDMrXSlDKD1PKVtOSF1bQ0BASF0oW0NIMl1bQ0gyXUMoPU8pW09IXSlDKD1PKU4xW0NAQEhdKFtDSDJdW0NIMl1bQ0gyXTEpQyg9TylbTkhdW0NASF0oW0NIXT1PKVtDQEBIXShbQ0gzXSlbQ0gyXVtDSDNd

> <s_epik_cmdline>
J2VwaWtfYXBwJywgJy1pbWFlJywgJ2xpZ2FuZF9wcm8ubWFlJywgJy1vbWFlJywgJ2xpZ2FuZF9wcmVwLm1hZScsICctbXMnLCAnMScsICctcGgnLCAnNycsICctcGh0JywgJzAuNScsICctbnQn

> <r_lp_tautomer_probability>
0.99990000499975

> <r_epik_Ionization_Penalty>
  0.0801

> <r_epik_Ionization_Penalty_Charging>
  0.0800

> <r_epik_Ionization_Penalty_Neutral>
  0.0001

> <r_epik_State_Penalty>
  0.0696

> <r_epik_Charging_Adjusted_Penalty>
0.149618534960631

> <i_epik_Tot_Q>
0

> <i_epik_Tot_abs_Q>
2

$$$$
