1h9z_ligand
                    3D
 Schrodinger Suite 2020-3.
 38 40  0  0  1  0            999 V2000
   34.8210   14.6190    9.6270 C   0  0  0  0  0  0
   30.8510   14.2270    9.5720 C   0  0  2  0  0  0
   30.5470   14.0430   11.0820 C   0  0  0  0  0  0
   29.0770   14.0520   11.4070 C   0  0  0  0  0  0
   28.5420   13.2490   12.5600 C   0  0  0  0  0  0
   30.5360   12.9520    8.7410 C   0  0  0  0  0  0
   30.0190   13.0550    7.4230 C   0  0  0  0  0  0
   29.7310   11.8960    6.6510 C   0  0  0  0  0  0
   29.9510   10.6210    7.1770 C   0  0  0  0  0  0
   30.4510   10.4960    8.4530 C   0  0  0  0  0  0
   32.4790   15.9140    8.5600 C   0  0  0  0  0  0
   30.7460   11.6410    9.2420 C   0  0  0  0  0  0
   32.3060   14.7100    9.3690 C   0  0  0  0  0  0
   33.4480   14.0920    9.8910 C   0  0  0  0  0  0
   36.0370   14.0390   10.1110 C   0  0  0  0  0  0
   37.2800   14.6180    9.7850 C   0  0  0  0  0  0
   37.3390   15.7790    8.9730 C   0  0  0  0  0  0
   36.1650   16.3700    8.4900 C   0  0  0  0  0  0
   34.9180   15.7850    8.8180 C   0  0  0  0  0  0
   33.7730   16.4000    8.3140 O   0  0  0  0  0  0
   31.5700   16.5570    8.0530 O   0  0  0  0  0  0
   28.2330   14.8170   10.5850 O   0  0  0  0  0  0
   33.4490   12.9750   10.6620 O   0  5  0  0  0  0
   30.1800   15.0104    9.1899 H   0  0  0  0  0  0
   30.9525   13.0790   11.4228 H   0  0  0  0  0  0
   31.0141   14.8595   11.6522 H   0  0  0  0  0  0
   29.3722   12.7316   13.0630 H   0  0  0  0  0  0
   27.8202   12.5076   12.1868 H   0  0  0  0  0  0
   28.0422   13.9204   13.2737 H   0  0  0  0  0  0
   29.8394   14.0411    6.9946 H   0  0  0  0  0  0
   29.3355   12.0035    5.6410 H   0  0  0  0  0  0
   29.7290    9.7344    6.5831 H   0  0  0  0  0  0
   30.6238    9.5020    8.8657 H   0  0  0  0  0  0
   31.1405   11.5097   10.2496 H   0  0  0  0  0  0
   36.0015   13.1456   10.7344 H   0  0  0  0  0  0
   38.2010   14.1709   10.1591 H   0  0  0  0  0  0
   38.3062   16.2150    8.7227 H   0  0  0  0  0  0
   36.2104   17.2662    7.8713 H   0  0  0  0  0  0
  1 14  1  0  0  0
  1 15  2  0  0  0
  1 19  1  0  0  0
  2  3  1  0  0  0
  2  6  1  0  0  0
  2 13  1  0  0  0
  2 24  1  0  0  0
  3  4  1  0  0  0
  3 25  1  0  0  0
  3 26  1  0  0  0
  4  5  1  0  0  0
  4 22  2  0  0  0
  5 27  1  0  0  0
  5 28  1  0  0  0
  5 29  1  0  0  0
  6  7  2  0  0  0
  6 12  1  0  0  0
  7  8  1  0  0  0
  7 30  1  0  0  0
  8  9  2  0  0  0
  8 31  1  0  0  0
  9 10  1  0  0  0
  9 32  1  0  0  0
 10 12  2  0  0  0
 10 33  1  0  0  0
 11 21  2  0  0  0
 11 20  1  0  0  0
 11 13  1  0  0  0
 12 34  1  0  0  0
 13 14  2  0  0  0
 14 23  1  0  0  0
 15 16  1  0  0  0
 15 35  1  0  0  0
 16 17  2  0  0  0
 16 36  1  0  0  0
 17 18  1  0  0  0
 17 37  1  0  0  0
 18 19  2  0  0  0
 18 38  1  0  0  0
 19 20  1  0  0  0
M  CHG  1  23  -1
M  END
> <s_m_source_file>
../1h9z_ligand.sdf

> <i_m_source_file_index>
1

> <s_epik_input>
W2NIXTFbY0hdW2NIXVtjSF1jKGMxMilvYyg9TyljKGMyW09IXSlbQ0BIXShbQ0gyXUMoPU8pW0NIM10pYzNbY0hdW2NIXVtjSF1bY0hdW2NIXTM=

> <s_epik_cmdline>
J2VwaWtfYXBwJywgJy1pbWFlJywgJ2xpZ2FuZF9wcm8ubWFlJywgJy1vbWFlJywgJ2xpZ2FuZF9wcmVwLm1hZScsICctbXMnLCAnMScsICctcGgnLCAnNycsICctcGh0JywgJzAuNScsICctbnQn

> <r_lp_tautomer_probability>
0.99999997

> <r_epik_Ionization_Penalty>
  0.0254

> <r_epik_Ionization_Penalty_Charging>
  0.0254

> <r_epik_Ionization_Penalty_Neutral>
  0.0000

> <r_epik_State_Penalty>
  0.0207

> <r_epik_Charging_Adjusted_Penalty>
0.0460896823091918

> <i_epik_Tot_Q>
-1

> <i_epik_Tot_abs_Q>
1

$$$$
