1ha2_ligand
                    3D
 Schrodinger Suite 2020-3.
 38 40  0  0  1  0            999 V2000
   29.4460   13.7280   12.6460 C   0  0  0  0  0  0
   28.9650   14.3650   11.3650 C   0  0  0  0  0  0
   27.6030   14.5150   11.0770 O   0  0  0  0  0  0
   29.9300   14.9030   10.3560 C   0  0  0  0  0  0
   31.0190   13.8500   10.0360 C   0  0  1  0  0  0
   30.6330   12.8810    8.9460 C   0  0  0  0  0  0
   30.0900   13.2020    7.6040 C   0  0  0  0  0  0
   29.7610   12.1710    6.6290 C   0  0  0  0  0  0
   29.9430   10.7960    6.9190 C   0  0  0  0  0  0
   30.4620   10.4420    8.2080 C   0  0  0  0  0  0
   30.8070   11.4600    9.2200 C   0  0  0  0  0  0
   32.4210   14.4960    9.7730 C   0  0  0  0  0  0
   33.6760   14.0020   10.2420 C   0  0  0  0  0  0
   33.8380   12.9030   10.9990 O   0  5  0  0  0  0
   35.0060   14.6680    9.9100 C   0  0  0  0  0  0
   36.3320   14.2380   10.3120 C   0  0  0  0  0  0
   37.4980   14.9630    9.8910 C   0  0  0  0  0  0
   37.3600   16.1260    9.0710 C   0  0  0  0  0  0
   36.0950   16.5840    8.6680 C   0  0  0  0  0  0
   34.9140   15.8670    9.0800 C   0  0  0  0  0  0
   33.6890   16.3340    8.6490 O   0  0  0  0  0  0
   32.4480   15.7340    8.9390 C   0  0  0  0  0  0
   31.5210   16.3030    8.4460 O   0  0  0  0  0  0
   28.5801   13.4026   13.2413 H   0  0  0  0  0  0
   30.0326   14.4593   13.2214 H   0  0  0  0  0  0
   30.0758   12.8579   12.4088 H   0  0  0  0  0  0
   29.3910   15.1536    9.4304 H   0  0  0  0  0  0
   30.4124   15.8072   10.7557 H   0  0  0  0  0  0
   31.0824   13.2162   10.9328 H   0  0  0  0  0  0
   29.9314   14.2470    7.3376 H   0  0  0  0  0  0
   29.3665   12.4634    5.6559 H   0  0  0  0  0  0
   29.6958   10.0300    6.1840 H   0  0  0  0  0  0
   30.6063    9.3886    8.4481 H   0  0  0  0  0  0
   31.1979   11.1441   10.1872 H   0  0  0  0  0  0
   36.4445   13.3547   10.9407 H   0  0  0  0  0  0
   38.4886   14.6264   10.1968 H   0  0  0  0  0  0
   38.2517   16.6664    8.7532 H   0  0  0  0  0  0
   36.0066   17.4759    8.0477 H   0  0  0  0  0  0
  1  2  1  0  0  0
  1 24  1  0  0  0
  1 25  1  0  0  0
  1 26  1  0  0  0
  2  3  2  0  0  0
  2  4  1  0  0  0
  4  5  1  0  0  0
  4 27  1  0  0  0
  4 28  1  0  0  0
  5  6  1  0  0  0
  5 12  1  0  0  0
  5 29  1  0  0  0
  6  7  2  0  0  0
  6 11  1  0  0  0
  7  8  1  0  0  0
  7 30  1  0  0  0
  8  9  2  0  0  0
  8 31  1  0  0  0
  9 10  1  0  0  0
  9 32  1  0  0  0
 10 11  2  0  0  0
 10 33  1  0  0  0
 11 34  1  0  0  0
 12 13  2  0  0  0
 12 22  1  0  0  0
 13 14  1  0  0  0
 13 15  1  0  0  0
 15 16  2  0  0  0
 15 20  1  0  0  0
 16 17  1  0  0  0
 16 35  1  0  0  0
 17 18  2  0  0  0
 17 36  1  0  0  0
 18 19  1  0  0  0
 18 37  1  0  0  0
 19 20  2  0  0  0
 19 38  1  0  0  0
 20 21  1  0  0  0
 21 22  1  0  0  0
 22 23  2  0  0  0
M  CHG  1  14  -1
M  END
> <s_m_source_file>
../1ha2_ligand.sdf

> <i_m_source_file_index>
1

> <s_epik_input>
W2NIXTFbY0hdW2NIXVtjSF1bY0hdYzFbQ0BIXShbQ0gyXUMoPU8pW0NIM10pYyhjMltPSF0pYyg9TylvYyhjMjMpW2NIXVtjSF1bY0hdW2NIXTM=

> <s_epik_cmdline>
J2VwaWtfYXBwJywgJy1pbWFlJywgJ2xpZ2FuZF9wcm8ubWFlJywgJy1vbWFlJywgJ2xpZ2FuZF9wcmVwLm1hZScsICctbXMnLCAnMScsICctcGgnLCAnNycsICctcGh0JywgJzAuNScsICctbnQn

> <r_lp_tautomer_probability>
0.99999997

> <r_epik_Ionization_Penalty>
  0.0254

> <r_epik_Ionization_Penalty_Charging>
  0.0254

> <r_epik_Ionization_Penalty_Neutral>
  0.0000

> <r_epik_State_Penalty>
  0.0207

> <r_epik_Charging_Adjusted_Penalty>
0.0460896823091918

> <i_epik_Tot_Q>
-1

> <i_epik_Tot_abs_Q>
1

$$$$
