1haa_ligand
                    3D
 Schrodinger Suite 2020-3.
227233  0  0  1  0            999 V2000
    4.5010    1.1870  -10.9010 N   0  3  0  0  0  0
    5.4240    1.6280   -9.8220 C   0  0  2  0  0  0
    4.7080    1.6990   -8.4790 C   0  0  0  0  0  0
    3.4840    1.8160   -8.4230 O   0  0  0  0  0  0
    5.9870    3.0010  -10.1940 C   0  0  0  0  0  0
    4.9410    4.0700  -10.3030 C   0  0  0  0  0  0
    4.1330    4.5320   -9.3050 C   0  0  0  0  0  0
    4.5930    4.8110  -11.4780 C   0  0  0  0  0  0
    3.3040    5.5170   -9.7870 N   0  0  0  0  0  0
    3.5670    5.7060  -11.1190 C   0  0  0  0  0  0
    5.0500    4.8070  -12.7990 C   0  0  0  0  0  0
    2.9920    6.5850  -12.0320 C   0  0  0  0  0  0
    4.4780    5.6800  -13.7050 C   0  0  0  0  0  0
    3.4590    6.5590  -13.3180 C   0  0  0  0  0  0
    5.4770    1.6340   -7.3960 N   0  0  0  0  0  0
    4.9100    1.6980   -6.0550 C   0  0  2  0  0  0
    5.9070    2.3270   -5.0970 C   0  0  0  0  0  0
    6.9060    2.9000   -5.5240 O   0  0  0  0  0  0
    4.5030    0.3030   -5.5720 C   0  0  0  0  0  0
    5.6740   -0.6170   -5.2690 C   0  0  0  0  0  0
    6.1870   -1.3030   -6.5240 C   0  0  0  0  0  0
    7.5300   -1.8420   -6.3370 N   0  0  0  0  0  0
    8.1960   -2.5200   -7.2700 C   0  0  0  0  0  0
    7.6460   -2.7420   -8.4570 N   0  0  0  0  0  0
    9.4140   -2.9760   -7.0140 N   0  0  0  0  0  0
    5.6400    2.2220   -3.8040 N   0  0  0  0  0  0
    6.5370    2.7930   -2.8100 C   0  0  2  0  0  0
    7.0720    1.7120   -1.8880 C   0  0  0  0  0  0
    6.4320    0.6840   -1.6920 O   0  0  0  0  0  0
    5.8220    3.8530   -1.9720 C   0  0  0  0  0  0
    5.0120    4.8470   -2.7770 C   0  0  0  0  0  0
    3.9560    4.4370   -3.5820 C   0  0  0  0  0  0
    5.3060    6.2030   -2.7240 C   0  0  0  0  0  0
    3.2190    5.3520   -4.3100 C   0  0  0  0  0  0
    4.5740    7.1220   -3.4500 C   0  0  0  0  0  0
    3.5320    6.6900   -4.2400 C   0  0  0  0  0  0
    2.7940    7.6010   -4.9580 O   0  0  0  0  0  0
    8.2370    1.9590   -1.3100 N   0  0  0  0  0  0
    8.8440    1.0210   -0.3870 C   0  0  2  0  0  0
    8.5380    1.4570    1.0410 C   0  0  0  0  0  0
    8.1410    2.5970    1.2750 O   0  0  0  0  0  0
   10.3540    0.9390   -0.6260 C   0  0  0  0  0  0
   10.7310    0.5090   -2.0320 C   0  0  0  0  0  0
    9.7750    0.0620   -2.9380 C   0  0  0  0  0  0
   12.0540    0.5380   -2.4440 C   0  0  0  0  0  0
   10.1320   -0.3420   -4.2100 C   0  0  0  0  0  0
   12.4180    0.1370   -3.7150 C   0  0  0  0  0  0
   11.4540   -0.3020   -4.5930 C   0  0  0  0  0  0
   11.8130   -0.7030   -5.8600 O   0  0  0  0  0  0
    8.7030    0.5490    1.9870 N   0  0  0  0  0  0
    8.4180    0.8540    3.3870 C   0  0  2  0  0  0
    9.4450    1.8250    3.9610 C   0  0  0  0  0  0
    9.1540    2.5750    4.8930 O   0  0  0  0  0  0
    8.4020   -0.4290    4.2170 C   0  0  0  0  0  0
    8.0620   -0.2020    5.6810 C   0  0  0  0  0  0
    8.2890   -1.4370    6.5310 C   0  0  0  0  0  0
    9.4490   -1.8890    6.6220 O   0  0  0  0  0  0
    7.3060   -1.9520    7.1040 O   0  0  0  0  0  0
   10.6510    1.7900    3.4090 N   0  0  0  0  0  0
   11.7340    2.6490    3.8710 C   0  0  2  0  0  0
   11.4690    4.1270    3.5760 C   0  0  0  0  0  0
   12.1530    4.9990    4.1130 O   0  0  0  0  0  0
   13.0510    2.2180    3.2230 C   0  0  0  0  0  0
   13.2340    2.8430    1.9640 O   0  0  0  0  0  0
   10.4890    4.4140    2.7220 N   0  0  0  0  0  0
   10.1760    5.7990    2.3800 C   0  0  2  0  0  0
    8.7370    5.9590    1.8970 C   0  0  0  0  0  0
    7.9810    4.9920    1.8210 O   0  0  0  0  0  0
   11.1400    6.3060    1.3170 C   0  0  0  0  0  0
   11.8700    7.4280    1.7810 O   0  0  0  0  0  0
    8.3730    7.1970    1.5680 N   0  0  0  0  0  0
    7.0310    7.5070    1.0840 C   0  0  2  0  0  0
    7.0670    8.0110   -0.3590 C   0  0  0  0  0  0
    6.0440    8.4240   -0.9040 O   0  0  0  0  0  0
    6.3770    8.5690    1.9730 C   0  0  0  0  0  0
    5.7750    8.0590    3.2850 C   0  0  0  0  0  0
    5.0040    9.1700    3.9820 C   0  0  0  0  0  0
    4.8690    6.8640    3.0340 C   0  0  0  0  0  0
    8.2490    7.9870   -0.9730 N   0  0  0  0  0  0
    8.4050    8.4540   -2.3460 C   0  0  2  0  0  0
    8.0680    7.3510   -3.3480 C   0  0  0  0  0  0
    8.0900    6.1670   -3.0130 O   0  0  0  0  0  0
    9.8340    8.9490   -2.5770 C   0  0  0  0  0  0
   10.0210   10.4260   -2.2710 C   0  0  0  0  0  0
   11.3660   10.7240   -1.6360 C   0  0  0  0  0  0
   11.5440   10.3990   -0.4440 O   0  0  0  0  0  0
   12.2390   11.2830   -2.3320 O   0  0  0  0  0  0
    7.7560    7.7320   -4.6010 N   0  0  0  0  0  0
    7.4160    6.7820   -5.6600 C   0  0  2  0  0  0
    8.6340    5.9910   -6.1050 C   0  0  0  0  0  0
    9.7470    6.5160   -6.1430 O   0  0  0  0  0  0
    6.8960    7.6680   -6.8050 C   0  0  0  0  0  0
    6.7270    9.0290   -6.2120 C   0  0  0  0  0  0
    7.7130    9.1120   -5.0850 C   0  0  0  0  0  0
    8.4260    4.7210   -6.4160 N   0  0  0  0  0  0
    9.5200    3.8570   -6.8270 C   0  0  2  0  0  0
    9.1460    3.0190   -8.0490 C   0  0  0  0  0  0
    8.4010    2.0450   -7.9380 O   0  0  0  0  0  0
    9.9090    2.9480   -5.6640 C   0  0  0  0  0  0
   10.9500    3.5540   -4.7440 C   0  0  0  0  0  0
   10.6910    4.7320   -4.0440 C   0  0  0  0  0  0
   12.1910    2.9530   -4.5720 C   0  0  0  0  0  0
   11.6390    5.2850   -3.2040 C   0  0  0  0  0  0
   13.1420    3.5030   -3.7330 C   0  0  0  0  0  0
   12.8610    4.6670   -3.0520 C   0  0  0  0  0  0
   13.8060    5.2160   -2.2160 O   0  0  0  0  0  0
    9.6650    3.3840   -9.2370 N   0  0  0  0  0  0
    9.3840    2.6570  -10.4770 C   0  0  2  0  0  0
   10.1880    1.3660  -10.5840 C   0  0  0  0  0  0
   11.0560    1.0920   -9.7550 O   0  0  0  0  0  0
    9.8110    3.6450  -11.5600 C   0  0  0  0  0  0
   10.9020    4.4400  -10.9300 C   0  0  0  0  0  0
   10.5660    4.5320   -9.4640 C   0  0  0  0  0  0
    9.8930    0.5750  -11.6110 N   0  0  0  0  0  0
   10.5880   -0.6880  -11.8270 C   0  0  2  0  0  0
   10.6660   -1.0200  -13.3130 C   0  0  0  0  0  0
   11.3720   -1.9870  -13.6670 O   0  0  0  0  0  0
    9.8810   -1.8180  -11.0760 C   0  0  0  0  0  0
    8.4290   -1.9630  -11.4860 C   0  0  0  0  0  0
    7.8660   -0.9910  -12.0320 O   0  0  0  0  0  0
    7.8540   -3.0490  -11.2600 O   0  0  0  0  0  0
   10.0180   -0.3100  -14.1110 O   0  0  0  0  0  0
    4.0869    0.1997  -10.6485 H   0  0  0  0  0  0
    5.0520    1.1215  -11.8508 H   0  0  0  0  0  0
    3.6813    1.9135  -11.0020 H   0  0  0  0  0  0
    6.2265    0.8800   -9.7415 H   0  0  0  0  0  0
    6.7062    3.3226   -9.4263 H   0  0  0  0  0  0
    6.4942    2.9377  -11.1680 H   0  0  0  0  0  0
    4.1434    4.1725   -8.2760 H   0  0  0  0  0  0
    5.8436    4.1272  -13.1091 H   0  0  0  0  0  0
    2.1981    7.2696  -11.7334 H   0  0  0  0  0  0
    4.8259    5.6843  -14.7380 H   0  0  0  0  0  0
    3.0291    7.2362  -14.0560 H   0  0  0  0  0  0
    6.5639    1.5296   -7.5292 H   0  0  0  0  0  0
    4.0184    2.3376   -6.1321 H   0  0  0  0  0  0
    3.9149    0.3925   -4.6468 H   0  0  0  0  0  0
    3.8965   -0.1905   -6.3457 H   0  0  0  0  0  0
    6.4968   -0.0316   -4.8328 H   0  0  0  0  0  0
    5.3566   -1.3917   -4.5554 H   0  0  0  0  0  0
    5.5156   -2.1332   -6.7885 H   0  0  0  0  0  0
    6.2179   -0.5787   -7.3513 H   0  0  0  0  0  0
    8.0523   -1.6975   -5.3798 H   0  0  0  0  0  0
    6.6355   -2.3655   -8.6740 H   0  0  0  0  0  0
    8.2006   -3.3025   -9.2240 H   0  0  0  0  0  0
    9.8740   -2.7944   -6.0314 H   0  0  0  0  0  0
    4.7283    1.6960   -3.4845 H   0  0  0  0  0  0
    7.3551    3.2427   -3.3918 H   0  0  0  0  0  0
    5.1261    3.3620   -1.2758 H   0  0  0  0  0  0
    6.5638    4.4315   -1.4019 H   0  0  0  0  0  0
    3.7052    3.3779   -3.6402 H   0  0  0  0  0  0
    6.1291    6.5483   -2.0983 H   0  0  0  0  0  0
    2.3934    5.0151   -4.9369 H   0  0  0  0  0  0
    4.8195    8.1827   -3.3980 H   0  0  0  0  0  0
    1.9612    7.2585   -5.5897 H   0  0  0  0  0  0
    8.7456    2.9053   -1.5464 H   0  0  0  0  0  0
    8.3904    0.0394   -0.5891 H   0  0  0  0  0  0
   10.8064    1.9270   -0.4551 H   0  0  0  0  0  0
   10.7959    0.2085    0.0676 H   0  0  0  0  0  0
    8.7271    0.0299   -2.6396 H   0  0  0  0  0  0
   12.8219    0.8838   -1.7521 H   0  0  0  0  0  0
    9.3704   -0.6909   -4.9074 H   0  0  0  0  0  0
   13.4638    0.1683   -4.0207 H   0  0  0  0  0  0
   11.0444   -1.0545   -6.5641 H   0  0  0  0  0  0
    9.0619   -0.4516    1.7041 H   0  0  0  0  0  0
    7.4248    1.3268    3.3839 H   0  0  0  0  0  0
    7.6504   -1.1206    3.8086 H   0  0  0  0  0  0
    9.3943   -0.9022    4.1797 H   0  0  0  0  0  0
    8.6923    0.6049    6.0829 H   0  0  0  0  0  0
    7.0027    0.0803    5.7719 H   0  0  0  0  0  0
    7.4401   -2.8485    7.7272 H   0  0  0  0  0  0
   10.8218    1.0872    2.5802 H   0  0  0  0  0  0
   11.7581    2.5031    4.9610 H   0  0  0  0  0  0
   13.8901    2.4968    3.8774 H   0  0  0  0  0  0
   13.0476    1.1280    3.0754 H   0  0  0  0  0  0
   14.1373    2.6337    1.3722 H   0  0  0  0  0  0
    9.9120    3.5925    2.2722 H   0  0  0  0  0  0
   10.3023    6.3587    3.3185 H   0  0  0  0  0  0
   11.8509    5.5081    1.0562 H   0  0  0  0  0  0
   10.5751    6.6011    0.4205 H   0  0  0  0  0  0
   12.6103    7.9115    1.1266 H   0  0  0  0  0  0
    9.1195    7.9984    1.6704 H   0  0  0  0  0  0
    6.4823    6.5551    1.1371 H   0  0  0  0  0  0
    7.1253    9.3257    2.2513 H   0  0  0  0  0  0
    5.5548    9.0511    1.4239 H   0  0  0  0  0  0
    6.5935    7.7346    3.9444 H   0  0  0  0  0  0
    5.6721   10.0263    4.1564 H   0  0  0  0  0  0
    4.6207    8.8019    4.9451 H   0  0  0  0  0  0
    4.1618    9.4851    3.3484 H   0  0  0  0  0  0
    5.4402    6.0703    2.5302 H   0  0  0  0  0  0
    4.0263    7.1702    2.3968 H   0  0  0  0  0  0
    4.4851    6.4870    3.9934 H   0  0  0  0  0  0
    9.1193    7.6036   -0.4202 H   0  0  0  0  0  0
    7.6861    9.2796   -2.4535 H   0  0  0  0  0  0
   10.5252    8.3887   -1.9302 H   0  0  0  0  0  0
   10.1102    8.7935   -3.6304 H   0  0  0  0  0  0
    9.9519   11.0053   -3.2036 H   0  0  0  0  0  0
    9.2374   10.7582   -1.5742 H   0  0  0  0  0  0
   13.2241   11.5119   -1.8993 H   0  0  0  0  0  0
    6.6867    6.0478   -5.2869 H   0  0  0  0  0  0
    7.6293    7.6754   -7.6249 H   0  0  0  0  0  0
    5.9393    7.2684   -7.1724 H   0  0  0  0  0  0
    6.9331    9.7909   -6.9782 H   0  0  0  0  0  0
    5.6955    9.1448   -5.8479 H   0  0  0  0  0  0
    7.3792    9.7750   -4.2732 H   0  0  0  0  0  0
    8.7168    9.4156   -5.4170 H   0  0  0  0  0  0
    7.4022    4.3227   -6.3588 H   0  0  0  0  0  0
   10.3454    4.5325   -7.0963 H   0  0  0  0  0  0
    9.0190    2.7301   -5.0554 H   0  0  0  0  0  0
   10.3240    2.0079   -6.0563 H   0  0  0  0  0  0
    9.7256    5.2244   -4.1612 H   0  0  0  0  0  0
   12.4186    2.0316   -5.1081 H   0  0  0  0  0  0
   11.4208    6.2063   -2.6639 H   0  0  0  0  0  0
   14.1103    3.0176   -3.6108 H   0  0  0  0  0  0
   13.5846    6.1454   -1.6708 H   0  0  0  0  0  0
    8.3254    2.3601  -10.5120 H   0  0  0  0  0  0
   10.1638    3.0915  -12.4427 H   0  0  0  0  0  0
    8.9538    4.2747  -11.8405 H   0  0  0  0  0  0
   11.8638    3.9286  -11.0832 H   0  0  0  0  0  0
   10.9404    5.4386  -11.3896 H   0  0  0  0  0  0
   10.0402    5.4656   -9.2152 H   0  0  0  0  0  0
   11.4562    4.4313   -8.8257 H   0  0  0  0  0  0
    9.1030    0.8940  -12.3068 H   0  0  0  0  0  0
   11.6022   -0.5356  -11.4294 H   0  0  0  0  0  0
   10.3898   -2.7709  -11.2838 H   0  0  0  0  0  0
    9.9105   -1.6147   -9.9953 H   0  0  0  0  0  0
    6.8005   -3.1836  -11.5464 H   0  0  0  0  0  0
   10.0528   -0.5228  -15.1897 H   0  0  0  0  0  0
  1  2  1  0  0  0
  1123  1  0  0  0
  1124  1  0  0  0
  1125  1  0  0  0
  2  3  1  0  0  0
  2  5  1  0  0  0
  2126  1  0  0  0
  3  4  2  0  0  0
  3 15  1  0  0  0
  5  6  1  0  0  0
  5127  1  0  0  0
  5128  1  0  0  0
  6  7  2  0  0  0
  6  8  1  0  0  0
  7  9  1  0  0  0
  7129  1  0  0  0
  8 10  2  0  0  0
  8 11  1  0  0  0
  9 10  1  0  0  0
 10 12  1  0  0  0
 11 13  2  0  0  0
 11130  1  0  0  0
 12 14  2  0  0  0
 12131  1  0  0  0
 13 14  1  0  0  0
 13132  1  0  0  0
 14133  1  0  0  0
 15 16  1  0  0  0
 15134  1  0  0  0
 16 17  1  0  0  0
 16 19  1  0  0  0
 16135  1  0  0  0
 17 18  2  0  0  0
 17 26  1  0  0  0
 19 20  1  0  0  0
 19136  1  0  0  0
 19137  1  0  0  0
 20 21  1  0  0  0
 20138  1  0  0  0
 20139  1  0  0  0
 21 22  1  0  0  0
 21140  1  0  0  0
 21141  1  0  0  0
 22 23  1  0  0  0
 22142  1  0  0  0
 23 24  1  0  0  0
 23 25  2  0  0  0
 24143  1  0  0  0
 24144  1  0  0  0
 25145  1  0  0  0
 26 27  1  0  0  0
 26146  1  0  0  0
 27 28  1  0  0  0
 27 30  1  0  0  0
 27147  1  0  0  0
 28 29  2  0  0  0
 28 38  1  0  0  0
 30 31  1  0  0  0
 30148  1  0  0  0
 30149  1  0  0  0
 31 32  2  0  0  0
 31 33  1  0  0  0
 32 34  1  0  0  0
 32150  1  0  0  0
 33 35  2  0  0  0
 33151  1  0  0  0
 34 36  2  0  0  0
 34152  1  0  0  0
 35 36  1  0  0  0
 35153  1  0  0  0
 36 37  1  0  0  0
 37154  1  0  0  0
 38 39  1  0  0  0
 38155  1  0  0  0
 39 40  1  0  0  0
 39 42  1  0  0  0
 39156  1  0  0  0
 40 41  2  0  0  0
 40 50  1  0  0  0
 42 43  1  0  0  0
 42157  1  0  0  0
 42158  1  0  0  0
 43 44  2  0  0  0
 43 45  1  0  0  0
 44 46  1  0  0  0
 44159  1  0  0  0
 45 47  2  0  0  0
 45160  1  0  0  0
 46 48  2  0  0  0
 46161  1  0  0  0
 47 48  1  0  0  0
 47162  1  0  0  0
 48 49  1  0  0  0
 49163  1  0  0  0
 50 51  1  0  0  0
 50164  1  0  0  0
 51 52  1  0  0  0
 51 54  1  0  0  0
 51165  1  0  0  0
 52 53  2  0  0  0
 52 59  1  0  0  0
 54 55  1  0  0  0
 54166  1  0  0  0
 54167  1  0  0  0
 55 56  1  0  0  0
 55168  1  0  0  0
 55169  1  0  0  0
 56 57  2  0  0  0
 56 58  1  0  0  0
 58170  1  0  0  0
 59 60  1  0  0  0
 59171  1  0  0  0
 60 61  1  0  0  0
 60 63  1  0  0  0
 60172  1  0  0  0
 61 62  2  0  0  0
 61 65  1  0  0  0
 63 64  1  0  0  0
 63173  1  0  0  0
 63174  1  0  0  0
 64175  1  0  0  0
 65 66  1  0  0  0
 65176  1  0  0  0
 66 67  1  0  0  0
 66 69  1  0  0  0
 66177  1  0  0  0
 67 68  2  0  0  0
 67 71  1  0  0  0
 69 70  1  0  0  0
 69178  1  0  0  0
 69179  1  0  0  0
 70180  1  0  0  0
 71 72  1  0  0  0
 71181  1  0  0  0
 72 73  1  0  0  0
 72 75  1  0  0  0
 72182  1  0  0  0
 73 74  2  0  0  0
 73 79  1  0  0  0
 75 76  1  0  0  0
 75183  1  0  0  0
 75184  1  0  0  0
 76 77  1  0  0  0
 76 78  1  0  0  0
 76185  1  0  0  0
 77186  1  0  0  0
 77187  1  0  0  0
 77188  1  0  0  0
 78189  1  0  0  0
 78190  1  0  0  0
 78191  1  0  0  0
 79 80  1  0  0  0
 79192  1  0  0  0
 80 81  1  0  0  0
 80 83  1  0  0  0
 80193  1  0  0  0
 81 82  2  0  0  0
 81 88  1  0  0  0
 83 84  1  0  0  0
 83194  1  0  0  0
 83195  1  0  0  0
 84 85  1  0  0  0
 84196  1  0  0  0
 84197  1  0  0  0
 85 86  2  0  0  0
 85 87  1  0  0  0
 87198  1  0  0  0
 88 89  1  0  0  0
 88 94  1  0  0  0
 89 90  1  0  0  0
 89 92  1  0  0  0
 89199  1  0  0  0
 90 91  2  0  0  0
 90 95  1  0  0  0
 92 93  1  0  0  0
 92200  1  0  0  0
 92201  1  0  0  0
 93 94  1  0  0  0
 93202  1  0  0  0
 93203  1  0  0  0
 94204  1  0  0  0
 94205  1  0  0  0
 95 96  1  0  0  0
 95206  1  0  0  0
 96 97  1  0  0  0
 96 99  1  0  0  0
 96207  1  0  0  0
 97 98  2  0  0  0
 97107  1  0  0  0
 99100  1  0  0  0
 99208  1  0  0  0
 99209  1  0  0  0
100101  2  0  0  0
100102  1  0  0  0
101103  1  0  0  0
101210  1  0  0  0
102104  2  0  0  0
102211  1  0  0  0
103105  2  0  0  0
103212  1  0  0  0
104105  1  0  0  0
104213  1  0  0  0
105106  1  0  0  0
106214  1  0  0  0
107108  1  0  0  0
107113  1  0  0  0
108109  1  0  0  0
108111  1  0  0  0
108215  1  0  0  0
109110  2  0  0  0
109114  1  0  0  0
111112  1  0  0  0
111216  1  0  0  0
111217  1  0  0  0
112113  1  0  0  0
112218  1  0  0  0
112219  1  0  0  0
113220  1  0  0  0
113221  1  0  0  0
114115  1  0  0  0
114222  1  0  0  0
115116  1  0  0  0
115118  1  0  0  0
115223  1  0  0  0
116117  2  0  0  0
116122  1  0  0  0
118119  1  0  0  0
118224  1  0  0  0
118225  1  0  0  0
119120  2  0  0  0
119121  1  0  0  0
121226  1  0  0  0
122227  1  0  0  0
M  CHG  1   1   1
M  END
> <s_m_source_file>
../1haa_ligand.sdf

> <i_m_source_file_index>
1

> <s_epik_input>
W2NIXTFbY0hdW2NIXVtjSF1jKGMxMilbbkhdW2NIXWMyW0NIMl1bQ0BIXShbTkgzK10pQyg9TylbTkhdW0NAQEhdKFtDSDJdW0NIMl1bQ0gyXVtOSF0vQyhbTkgyXSk9TlxbSF0pQyg9TylbTkhdW0NAQEhdKFtDSDJdYzNbY0hdW2NIXWMoW09IXSlbY0hdW2NIXTMpQyg9TylbTkhdW0NAQEhdKFtDSDJdYzRbY0hdW2NIXWMoW09IXSlbY0hdW2NIXTQpQyg9TylbTkhdW0NAQEhdKFtDSDJdW0NIMl1DKD1PKVtPSF0pQyg9TylbTkhdW0NAQEhdKFtDSDJdW09IXSlDKD1PKVtOSF1bQ0BASF0oW0NIMl1bT0hdKUMoPU8pW05IXVtDQEBIXShbQ0gyXVtDSF0oW0NIM10pW0NIM10pQyg9TylbTkhdW0NAQEhdKFtDSDJdW0NIMl1DKD1PKVtPSF0pQyg9TylONVtDQEBIXShbQ0gyXVtDSDJdW0NIMl01KUMoPU8pW05IXVtDQEBIXShbQ0gyXWM2W2NIXVtjSF1jKFtPSF0pW2NIXVtjSF02KUMoPU8pTjdbQ0BASF0oW0NIMl1bQ0gyXVtDSDJdNylDKD1PKVtOSF1bQ0BIXShDKD1PKVtPSF0pW0NIMl1DKD1PKVtPSF0=

> <s_epik_cmdline>
J2VwaWtfYXBwJywgJy1pbWFlJywgJ2xpZ2FuZF9wcm8ubWFlJywgJy1vbWFlJywgJ2xpZ2FuZF9wcmVwLm1hZScsICctbXMnLCAnMScsICctcGgnLCAnNycsICctcGh0JywgJzAuNScsICctbnQn

> <s_epik_pKa_notes>
Molecule size exceeds maximum supported for generating protonation states

> <s_epik_Chemistry_Notes>
This compound has an imine and may undergo hydrolysis.

$$$$
