1hbj_ligand
                    3D
 Schrodinger Suite 2020-3.
 47 49  0  0  1  0            999 V2000
    4.9330   69.4100   63.4170 N   0  3  0  0  0  0
    5.3280   69.9580   64.5840 C   0  0  0  0  0  0
    4.4250   69.9980   65.6890 C   0  0  0  0  0  0
    3.1350   69.4570   65.5320 C   0  0  0  0  0  0
    2.7320   68.8660   64.2810 C   0  0  0  0  0  0
    3.6800   68.8600   63.2060 C   0  0  0  0  0  0
    4.8920   70.6090   66.9360 C   0  0  0  0  0  0
    6.2060   71.1250   67.0490 C   0  0  0  0  0  0
    7.0570   71.0510   65.9350 C   0  0  0  0  0  0
    6.6170   70.4760   64.6880 C   0  0  0  0  0  0
    2.2140   69.4590   66.5740 N   0  0  0  0  0  0
    1.3290   68.2540   64.1250 C   0  0  0  0  0  0
    1.4470   66.4840   64.7830 S   0  0  0  0  0  0
    3.0710   66.1070   65.5030 C   0  0  0  0  0  0
    4.2210   65.8750   64.5460 C   0  0  0  0  0  0
    4.1200   65.0720   63.4070 C   0  0  0  0  0  0
    5.2690   64.8680   62.5830 C   0  0  0  0  0  0
    6.5410   65.5250   62.8850 C   0  0  0  0  0  0
    6.6540   66.3460   64.0270 C   0  0  0  0  0  0
    5.4830   66.5150   64.8720 C   0  0  0  0  0  0
    5.2570   63.9710   61.4060 C   0  0  1  0  0  0
    5.5250   62.5370   61.9300 C   0  0  0  0  0  0
    5.4350   61.5320   60.9750 F   0  0  0  0  0  0
    4.5530   62.2900   62.9300 F   0  0  0  0  0  0
    6.7420   62.5010   62.6650 F   0  0  0  0  0  0
    4.0880   64.0870   60.5330 O   0  0  0  0  0  0
    4.0820   70.7130   68.0410 F   0  0  0  0  0  0
    3.3620   68.2520   61.8250 C   0  0  0  0  0  0
    6.5497   71.5708   67.9824 H   0  0  0  0  0  0
    8.0733   71.4369   66.0144 H   0  0  0  0  0  0
    7.2897   70.4468   63.8309 H   0  0  0  0  0  0
    2.4829   69.9006   67.5449 H   0  0  0  0  0  0
    1.2166   69.0190   66.4273 H   0  0  0  0  0  0
    0.6049   68.8441   64.7059 H   0  0  0  0  0  0
    1.0412   68.2625   63.0634 H   0  0  0  0  0  0
    3.3899   66.9412   66.1452 H   0  0  0  0  0  0
    3.0015   65.1879   66.1034 H   0  0  0  0  0  0
    3.1701   64.6040   63.1487 H   0  0  0  0  0  0
    7.3995   65.3805   62.2291 H   0  0  0  0  0  0
    7.5946   66.8406   64.2693 H   0  0  0  0  0  0
    5.5537   67.1335   65.7667 H   0  0  0  0  0  0
    6.0176   64.3312   60.6976 H   0  0  0  0  0  0
    3.8129   65.0640   60.1090 H   0  0  0  0  0  0
    4.2356   68.3625   61.1658 H   0  0  0  0  0  0
    2.5009   68.7752   61.3835 H   0  0  0  0  0  0
    3.1226   67.1846   61.9406 H   0  0  0  0  0  0
    5.6233   69.3820   62.5610 H   0  0  0  0  0  0
  1  2  2  0  0  0
  1  6  1  0  0  0
  1 47  1  0  0  0
  2  3  1  0  0  0
  2 10  1  0  0  0
  3  4  2  0  0  0
  3  7  1  0  0  0
  4  5  1  0  0  0
  4 11  1  0  0  0
  5  6  2  0  0  0
  5 12  1  0  0  0
  6 28  1  0  0  0
  7  8  2  0  0  0
  7 27  1  0  0  0
  8  9  1  0  0  0
  8 29  1  0  0  0
  9 10  2  0  0  0
  9 30  1  0  0  0
 10 31  1  0  0  0
 11 32  1  0  0  0
 11 33  1  0  0  0
 12 13  1  0  0  0
 12 34  1  0  0  0
 12 35  1  0  0  0
 13 14  1  0  0  0
 14 15  1  0  0  0
 14 36  1  0  0  0
 14 37  1  0  0  0
 15 16  2  0  0  0
 15 20  1  0  0  0
 16 17  1  0  0  0
 16 38  1  0  0  0
 17 18  2  0  0  0
 17 21  1  0  0  0
 18 19  1  0  0  0
 18 39  1  0  0  0
 19 20  2  0  0  0
 19 40  1  0  0  0
 20 41  1  0  0  0
 21 22  1  0  0  0
 21 26  1  0  0  0
 21 42  1  0  0  0
 22 23  1  0  0  0
 22 24  1  0  0  0
 22 25  1  0  0  0
 26 43  1  0  0  0
 28 44  1  0  0  0
 28 45  1  0  0  0
 28 46  1  0  0  0
M  CHG  1   1   1
M  END
> <s_m_source_file>
../1hbj_ligand.sdf

> <i_m_source_file_index>
1

> <s_epik_input>
W2NIXTFbY0hdW2NIXWMoRiljKGMxMiljKFtOSDJdKWMoYyhuMilbQ0gzXSlbQ0gyXVNbQ0gyXWMzW2NIXWMoW0NAQEhdKEMoRikoRilGKVtPSF0pW2NIXVtjSF1bY0hdMw==

> <s_epik_cmdline>
J2VwaWtfYXBwJywgJy1pbWFlJywgJ2xpZ2FuZF9wcm8ubWFlJywgJy1vbWFlJywgJ2xpZ2FuZF9wcmVwLm1hZScsICctbXMnLCAnMScsICctcGgnLCAnNycsICctcGh0JywgJzAuNScsICctbnQn

> <r_lp_tautomer_probability>
1

> <r_epik_Ionization_Penalty>
  0.0048

> <r_epik_Ionization_Penalty_Charging>
  0.0047

> <r_epik_Ionization_Penalty_Neutral>
  0.0000

> <r_epik_State_Penalty>
 -0.0000

> <r_epik_Charging_Adjusted_Penalty>
0.00474146614059987

> <i_epik_Tot_Q>
1

> <i_epik_Tot_abs_Q>
1

$$$$
