1hbv_ligand
                    3D
 Schrodinger Suite 2020-3.
 95 96  0  0  1  0            999 V2000
   -4.4280   16.7710   18.8980 N   0  3  0  0  0  0
   -4.3680   17.2180   20.3280 C   0  0  1  0  0  0
   -3.3620   18.3720   20.4750 C   0  0  0  0  0  0
   -5.7600   17.7000   20.7290 C   0  0  0  0  0  0
   -6.2830   18.5900   20.0580 O   0  0  0  0  0  0
   -6.3570   17.1560   21.7790 N   0  0  0  0  0  0
   -7.6830   17.5640   22.2180 C   0  0  1  0  0  0
   -8.7050   16.7170   21.4720 C   0  0  0  0  0  0
   -7.6940   17.3450   23.7270 C   0  0  0  0  0  0
   -7.0530   18.2710   24.5480 C   0  0  0  0  0  0
   -7.0060   18.1300   26.0900 C   0  0  1  0  0  0
   -5.8960   19.0210   26.6480 C   0  0  0  0  0  0
   -4.6210   18.4400   26.0610 C   0  0  0  0  0  0
   -3.8370   19.2340   25.2190 C   0  0  0  0  0  0
   -2.7210   18.6870   24.5850 C   0  0  0  0  0  0
   -2.3980   17.3520   24.7890 C   0  0  0  0  0  0
   -3.1800   16.5660   25.6330 C   0  0  0  0  0  0
   -4.2900   17.0960   26.2770 C   0  0  0  0  0  0
   -8.3400   18.4400   26.7670 C   0  0  0  0  0  0
   -8.3080   16.0710   24.2740 C   0  0  0  0  0  0
   -8.8420   16.1310   25.7390 C   0  0  0  0  0  0
   -9.3220   17.4680   26.2090 N   0  3  1  0  0  0
  -10.7340   17.5520   26.6530 C   0  0  1  0  0  0
  -11.5120   16.7700   25.5720 C   0  0  0  0  0  0
  -11.1870   17.1440   28.0890 C   0  0  0  0  0  0
  -10.8830   17.8630   29.0480 O   0  0  0  0  0  0
  -11.9160   16.0210   28.2460 N   0  0  0  0  0  0
  -12.4280   15.5100   29.5150 C   0  0  1  0  0  0
  -13.4480   14.3020   29.2470 C   0  0  0  0  0  0
  -14.2960   14.1470   30.4660 C   0  0  0  0  0  0
  -12.7940   12.9710   28.9620 C   0  0  0  0  0  0
  -11.2970   15.0750   30.4500 C   0  0  0  0  0  0
  -10.3540   14.3820   30.0320 O   0  0  0  0  0  0
  -11.4050   15.4490   31.7110 N   0  0  0  0  0  0
  -10.4580   15.0950   32.7660 C   0  0  1  0  0  0
   -9.2350   16.0340   33.0340 C   0  0  0  0  0  0
   -8.8090   16.9480   31.9160 C   0  0  0  0  0  0
   -8.0810   15.0700   33.1780 C   0  0  0  0  0  0
  -11.3900   15.2500   33.9910 C   0  0  0  0  0  0
  -12.0240   16.3120   34.1420 O   0  0  0  0  0  0
  -11.8900   14.1670   34.6250 O   0  0  0  0  0  0
  -12.4540   13.1010   33.7960 C   0  0  0  0  0  0
   -3.4353   16.4177   18.5823 H   0  0  0  0  0  0
   -4.7360   17.6146   18.2628 H   0  0  0  0  0  0
   -5.1567   15.9529   18.7999 H   0  0  0  0  0  0
   -4.0507   16.3721   20.9555 H   0  0  0  0  0  0
   -2.3595   18.0236   20.1858 H   0  0  0  0  0  0
   -3.3444   18.7121   21.5210 H   0  0  0  0  0  0
   -3.6626   19.2057   19.8233 H   0  0  0  0  0  0
   -5.8146   16.3699   22.3248 H   0  0  0  0  0  0
   -7.8926   18.6187   21.9862 H   0  0  0  0  0  0
   -8.6390   16.9274   20.3943 H   0  0  0  0  0  0
   -9.7156   16.9603   21.8319 H   0  0  0  0  0  0
   -8.4987   15.6514   21.6508 H   0  0  0  0  0  0
   -6.5534   19.1454   24.1054 H   0  0  0  0  0  0
   -6.7935   17.0779   26.3307 H   0  0  0  0  0  0
   -6.0627   20.0595   26.3260 H   0  0  0  0  0  0
   -5.9041   18.9721   27.7469 H   0  0  0  0  0  0
   -4.0974   20.2801   25.0578 H   0  0  0  0  0  0
   -2.1050   19.3053   23.9320 H   0  0  0  0  0  0
   -1.5321   16.9186   24.2885 H   0  0  0  0  0  0
   -2.9165   15.5200   25.7899 H   0  0  0  0  0  0
   -4.8940   16.4764   26.9399 H   0  0  0  0  0  0
   -8.2359   18.3182   27.8553 H   0  0  0  0  0  0
   -8.6343   19.4754   26.5405 H   0  0  0  0  0  0
   -9.1676   15.7817   23.6516 H   0  0  0  0  0  0
   -7.5577   15.2667   24.2596 H   0  0  0  0  0  0
   -9.6956   15.4455   25.8465 H   0  0  0  0  0  0
   -8.0425   15.8327   26.4332 H   0  0  0  0  0  0
   -9.4131   17.9800   25.2397 H   0  0  0  0  0  0
  -10.8884   18.6385   26.7289 H   0  0  0  0  0  0
  -11.1680   17.0820   24.5749 H   0  0  0  0  0  0
  -12.5874   16.9791   25.6709 H   0  0  0  0  0  0
  -11.3347   15.6920   25.7004 H   0  0  0  0  0  0
  -12.1177   15.4760   27.3121 H   0  0  0  0  0  0
  -12.9088   16.3835   29.9795 H   0  0  0  0  0  0
  -14.0600   14.5080   28.3565 H   0  0  0  0  0  0
  -14.7853   15.1048   30.6964 H   0  0  0  0  0  0
  -13.6657   13.8436   31.3149 H   0  0  0  0  0  0
  -15.0617   13.3783   30.2847 H   0  0  0  0  0  0
  -12.1616   13.0576   28.0661 H   0  0  0  0  0  0
  -13.5700   12.2103   28.7910 H   0  0  0  0  0  0
  -12.1740   12.6756   29.8213 H   0  0  0  0  0  0
  -12.2825   16.0697   31.9451 H   0  0  0  0  0  0
  -10.0204   14.1290   32.4738 H   0  0  0  0  0  0
   -9.4763   16.7025   33.8735 H   0  0  0  0  0  0
   -9.5951   17.6957   31.7340 H   0  0  0  0  0  0
   -8.6455   16.3579   31.0022 H   0  0  0  0  0  0
   -7.8753   17.4581   32.1951 H   0  0  0  0  0  0
   -8.3010   14.3522   33.9820 H   0  0  0  0  0  0
   -7.1658   15.6280   33.4249 H   0  0  0  0  0  0
   -7.9360   14.5278   32.2320 H   0  0  0  0  0  0
  -12.8203   12.2893   34.4417 H   0  0  0  0  0  0
  -11.6773   12.7110   33.1218 H   0  0  0  0  0  0
  -13.2883   13.5015   33.2014 H   0  0  0  0  0  0
  1  2  1  0  0  0
  1 43  1  0  0  0
  1 44  1  0  0  0
  1 45  1  0  0  0
  2  3  1  0  0  0
  2  4  1  0  0  0
  2 46  1  0  0  0
  3 47  1  0  0  0
  3 48  1  0  0  0
  3 49  1  0  0  0
  4  5  2  0  0  0
  4  6  1  0  0  0
  6  7  1  0  0  0
  6 50  1  0  0  0
  7  8  1  0  0  0
  7  9  1  0  0  0
  7 51  1  0  0  0
  8 52  1  0  0  0
  8 53  1  0  0  0
  8 54  1  0  0  0
  9 10  2  0  0  0
  9 20  1  0  0  0
 10 11  1  0  0  0
 10 55  1  0  0  0
 11 12  1  0  0  0
 11 19  1  0  0  0
 11 56  1  0  0  0
 12 13  1  0  0  0
 12 57  1  0  0  0
 12 58  1  0  0  0
 13 14  2  0  0  0
 13 18  1  0  0  0
 14 15  1  0  0  0
 14 59  1  0  0  0
 15 16  2  0  0  0
 15 60  1  0  0  0
 16 17  1  0  0  0
 16 61  1  0  0  0
 17 18  2  0  0  0
 17 62  1  0  0  0
 18 63  1  0  0  0
 19 22  1  0  0  0
 19 64  1  0  0  0
 19 65  1  0  0  0
 20 21  1  0  0  0
 20 66  1  0  0  0
 20 67  1  0  0  0
 21 22  1  0  0  0
 21 68  1  0  0  0
 21 69  1  0  0  0
 22 23  1  0  0  0
 22 70  1  0  0  0
 23 24  1  0  0  0
 23 25  1  0  0  0
 23 71  1  0  0  0
 24 72  1  0  0  0
 24 73  1  0  0  0
 24 74  1  0  0  0
 25 26  2  0  0  0
 25 27  1  0  0  0
 27 28  1  0  0  0
 27 75  1  0  0  0
 28 29  1  0  0  0
 28 32  1  0  0  0
 28 76  1  0  0  0
 29 30  1  0  0  0
 29 31  1  0  0  0
 29 77  1  0  0  0
 30 78  1  0  0  0
 30 79  1  0  0  0
 30 80  1  0  0  0
 31 81  1  0  0  0
 31 82  1  0  0  0
 31 83  1  0  0  0
 32 33  2  0  0  0
 32 34  1  0  0  0
 34 35  1  0  0  0
 34 84  1  0  0  0
 35 36  1  0  0  0
 35 39  1  0  0  0
 35 85  1  0  0  0
 36 37  1  0  0  0
 36 38  1  0  0  0
 36 86  1  0  0  0
 37 87  1  0  0  0
 37 88  1  0  0  0
 37 89  1  0  0  0
 38 90  1  0  0  0
 38 91  1  0  0  0
 38 92  1  0  0  0
 39 40  2  0  0  0
 39 41  1  0  0  0
 41 42  1  0  0  0
 42 93  1  0  0  0
 42 94  1  0  0  0
 42 95  1  0  0  0
M  CHG  2   1   1  22   1
M  END
> <s_m_source_file>
../1hbv_ligand.sdf

> <i_m_source_file_index>
1

> <s_epik_input>
W05IMytdW0NAQEhdKFtDSDNdKUMoPU8pW05IXVtDQEBIXShbQ0gzXSlDMT1bQ0hdW0NAQEhdKFtDSDJdYzJbY0hdW2NIXVtjSF1bY0hdW2NIXTIpW0NIMl1bTkBASCtdKFtDSDJdW0NIMl0xKVtDQEBIXShbQ0gzXSlDKD1PKVtOSF1bQ0BASF0oW0NIXShbQ0gzXSlbQ0gzXSlDKD1PKVtOSF1bQ0BASF0oW0NIXShbQ0gzXSlbQ0gzXSlDKD1PKU9bQ0gzXQ==

> <s_epik_cmdline>
J2VwaWtfYXBwJywgJy1pbWFlJywgJ2xpZ2FuZF9wcm8ubWFlJywgJy1vbWFlJywgJ2xpZ2FuZF9wcmVwLm1hZScsICctbXMnLCAnMScsICctcGgnLCAnNycsICctcGh0JywgJzAuNScsICctbnQn

> <r_lp_tautomer_probability>
1

> <r_epik_Ionization_Penalty>
  0.1916

> <r_epik_Ionization_Penalty_Charging>
  0.1916

> <r_epik_Ionization_Penalty_Neutral>
  0.0001

> <r_epik_State_Penalty>
 -0.0000

> <r_epik_Charging_Adjusted_Penalty>
0.19157055056558

> <i_epik_Tot_Q>
2

> <i_epik_Tot_abs_Q>
2

> <s_epik_Chemistry_Notes>
This compound has an ester and may undergo hydrolysis at high or low pH.

$$$$
