1hc9_ligand
                    3D
 Schrodinger Suite 2020-3.
230236  0  0  1  0            999 V2000
   -0.1630   45.3100    5.7140 N   0  3  0  0  0  0
    0.6860   46.4680    5.3280 C   0  0  2  0  0  0
    2.1670   46.1500    5.5030 C   0  0  0  0  0  0
    2.5400   45.1440    6.1060 O   0  0  0  0  0  0
    0.3170   47.6960    6.1660 C   0  0  0  0  0  0
    0.1950   47.4050    7.6370 C   0  0  0  0  0  0
    1.1940   47.0230    8.4890 C   0  0  0  0  0  0
   -1.0070   47.4410    8.4170 C   0  0  0  0  0  0
    0.6840   46.8160    9.7540 N   0  0  0  0  0  0
   -0.6640   47.0650    9.7350 C   0  0  0  0  0  0
   -2.3430   47.7550    8.1290 C   0  0  0  0  0  0
   -1.6080   46.9920   10.7640 C   0  0  0  0  0  0
   -3.2840   47.6840    9.1540 C   0  0  0  0  0  0
   -2.9090   47.3040   10.4550 C   0  0  0  0  0  0
    3.0060   47.0250    4.9720 N   0  0  0  0  0  0
    4.4440   46.8420    5.0530 C   0  0  2  0  0  0
    5.1040   48.1800    5.3290 C   0  0  0  0  0  0
    4.7150   49.2010    4.7580 O   0  0  0  0  0  0
    4.9640   46.2530    3.7380 C   0  0  0  0  0  0
    6.4750   46.3170    3.5750 C   0  0  0  0  0  0
    6.9530   45.5060    2.3730 C   0  0  0  0  0  0
    6.7700   44.0720    2.5840 N   0  0  0  0  0  0
    7.3230   43.1240    1.8330 C   0  0  0  0  0  0
    8.1040   43.4490    0.8080 N   0  0  0  0  0  0
    7.1020   41.8470    2.1160 N   0  0  0  0  0  0
    6.0910   48.1790    6.2170 N   0  0  0  0  0  0
    6.8050   49.4040    6.5430 C   0  0  2  0  0  0
    8.1640   49.4500    5.8500 C   0  0  0  0  0  0
    8.7860   48.4150    5.6000 O   0  0  0  0  0  0
    7.0420   49.5240    8.0510 C   0  0  0  0  0  0
    5.8090   49.8300    8.8640 C   0  0  0  0  0  0
    5.0180   48.8040    9.3950 C   0  0  0  0  0  0
    5.4400   51.1490    9.1160 C   0  0  0  0  0  0
    3.8810   49.0950   10.1670 C   0  0  0  0  0  0
    4.3180   51.4500    9.8750 C   0  0  0  0  0  0
    3.5450   50.4260   10.4000 C   0  0  0  0  0  0
    2.4450   50.7470   11.1610 O   0  0  0  0  0  0
    8.6000   50.6610    5.5320 N   0  0  0  0  0  0
    9.9020   50.8870    4.9200 C   0  0  2  0  0  0
   10.6020   51.9090    5.8070 C   0  0  0  0  0  0
    9.9460   52.6950    6.4950 O   0  0  0  0  0  0
    9.7630   51.4130    3.4860 C   0  0  0  0  0  0
    9.1950   50.3880    2.5280 C   0  0  0  0  0  0
    7.8180   50.1980    2.4120 C   0  0  0  0  0  0
   10.0410   49.5720    1.7690 C   0  0  0  0  0  0
    7.2930   49.2170    1.5630 C   0  0  0  0  0  0
    9.5290   48.5910    0.9210 C   0  0  0  0  0  0
    8.1540   48.4170    0.8230 C   0  0  0  0  0  0
    7.6450   47.4350   -0.0050 O   0  0  0  0  0  0
   11.9300   51.9070    5.7980 N   0  0  0  0  0  0
   12.6700   52.8270    6.6480 C   0  0  2  0  0  0
   12.4070   54.2970    6.3310 C   0  0  0  0  0  0
   12.6700   55.1660    7.1580 O   0  0  0  0  0  0
   14.1750   52.5310    6.5650 C   0  0  0  0  0  0
   14.8140   52.7950    5.2120 C   0  0  0  0  0  0
   16.2840   52.4080    5.1870 C   0  0  0  0  0  0
   16.6300   51.4020    4.5270 O   0  0  0  0  0  0
   17.0930   53.1000    5.8410 O   0  0  0  0  0  0
   11.8640   54.5710    5.1500 N   0  0  0  0  0  0
   11.5970   55.9480    4.7430 C   0  0  2  0  0  0
   10.3780   56.6120    5.3880 C   0  0  0  0  0  0
   10.2340   57.8340    5.3250 O   0  0  0  0  0  0
   11.4710   56.0250    3.2160 C   0  0  0  0  0  0
   10.4590   55.1580    2.7300 O   0  0  0  0  0  0
    9.5010   55.8340    6.0160 N   0  0  0  0  0  0
    8.3230   56.4380    6.6340 C   0  0  2  0  0  0
    7.7250   55.6540    7.7910 C   0  0  0  0  0  0
    7.7640   54.4270    7.8120 O   0  0  0  0  0  0
    7.2370   56.6650    5.5780 C   0  0  0  0  0  0
    6.0750   57.2200    6.1690 O   0  0  0  0  0  0
    7.1780   56.3820    8.7580 N   0  0  0  0  0  0
    6.5300   55.7660    9.9080 C   0  0  2  0  0  0
    5.1280   55.3220    9.5000 C   0  0  0  0  0  0
    4.4340   54.6460   10.2570 O   0  0  0  0  0  0
    6.4490   56.7570   11.0720 C   0  0  0  0  0  0
    7.7650   56.9720   11.8230 C   0  0  0  0  0  0
    7.5970   58.0680   12.8680 C   0  0  0  0  0  0
    8.1930   55.6620   12.4760 C   0  0  0  0  0  0
    4.7170   55.7160    8.2980 N   0  0  0  0  0  0
    3.4110   55.3440    7.7740 C   0  0  2  0  0  0
    3.5850   54.0820    6.9320 C   0  0  0  0  0  0
    4.4800   54.0050    6.0930 O   0  0  0  0  0  0
    2.8390   56.4730    6.9100 C   0  0  0  0  0  0
    2.6210   57.8190    7.6090 C   0  0  0  0  0  0
    2.0790   58.8330    6.6100 C   0  0  0  0  0  0
    1.6520   57.6460    8.7720 C   0  0  0  0  0  0
    2.7330   53.0720    7.1510 N   0  0  0  0  0  0
    2.8190   51.8180    6.3980 C   0  0  2  0  0  0
    2.2930   51.8930    4.9660 C   0  0  0  0  0  0
    1.4290   52.7100    4.6480 O   0  0  0  0  0  0
    2.0080   50.8550    7.2580 C   0  0  0  0  0  0
    0.9320   51.7400    7.7870 C   0  0  0  0  0  0
    1.6980   52.9820    8.1970 C   0  0  0  0  0  0
    2.8310   51.0340    4.1070 N   0  0  0  0  0  0
    2.4110   50.9660    2.7130 C   0  0  2  0  0  0
    1.4940   49.7640    2.5450 C   0  0  0  0  0  0
    1.5340   48.8280    3.3450 O   0  0  0  0  0  0
    3.6130   50.7940    1.7830 C   0  0  0  0  0  0
    4.4090   52.0480    1.5270 C   0  0  0  0  0  0
    5.2370   52.5890    2.5080 C   0  0  0  0  0  0
    4.3430   52.6900    0.2900 C   0  0  0  0  0  0
    5.9840   53.7390    2.2630 C   0  0  0  0  0  0
    5.0830   53.8360    0.0340 C   0  0  0  0  0  0
    5.9010   54.3550    1.0220 C   0  0  0  0  0  0
    6.6360   55.4860    0.7600 O   0  0  0  0  0  0
    0.6540   49.7730    1.5000 N   0  0  0  0  0  0
   -0.2650   48.6580    1.2500 C   0  0  2  0  0  0
    0.4830   47.3290    1.1090 C   0  0  0  0  0  0
    1.7120   47.3100    1.0200 O   0  0  0  0  0  0
   -0.9600   49.0740   -0.0440 C   0  0  0  0  0  0
   -0.9900   50.5660    0.0690 C   0  0  0  0  0  0
    0.4040   50.8780    0.5580 C   0  0  0  0  0  0
   -0.2730   46.2320    1.0900 N   0  0  0  0  0  0
    0.2690   44.8760    0.9660 C   0  0  2  0  0  0
    0.7630   44.3500    2.3080 C   0  0  0  0  0  0
    0.1640   43.3800    2.8190 O   0  0  0  0  0  0
    1.4180   44.8360   -0.0510 C   0  0  0  0  0  0
    1.0010   45.3260   -1.4230 C   0  0  0  0  0  0
    1.8630   45.3610   -2.3260 O   0  0  0  0  0  0
   -0.1850   45.6760   -1.6010 O   0  0  0  0  0  0
    1.7420   44.9170    2.8360 O   0  0  0  0  0  0
    0.1113   44.4354    5.1059 H   0  0  0  0  0  0
   -1.2210   45.5580    5.5433 H   0  0  0  0  0  0
   -0.0074   45.0799    6.7784 H   0  0  0  0  0  0
    0.4858   46.6568    4.2630 H   0  0  0  0  0  0
    1.0917   48.4677    6.0465 H   0  0  0  0  0  0
   -0.6514   48.0932    5.8278 H   0  0  0  0  0  0
    2.2404   46.9000    8.2095 H   0  0  0  0  0  0
   -2.6397   48.0491    7.1222 H   0  0  0  0  0  0
   -1.3217   46.6983   11.7739 H   0  0  0  0  0  0
   -4.3258   47.9265    8.9445 H   0  0  0  0  0  0
   -3.6682   47.2561   11.2357 H   0  0  0  0  0  0
    2.5917   47.9064    4.4606 H   0  0  0  0  0  0
    4.6358   46.1492    5.8856 H   0  0  0  0  0  0
    4.6789   45.1926    3.6732 H   0  0  0  0  0  0
    4.5264   46.8027    2.8916 H   0  0  0  0  0  0
    6.7842   47.3626    3.4298 H   0  0  0  0  0  0
    6.9585   45.9135    4.4769 H   0  0  0  0  0  0
    6.3813   45.8012    1.4808 H   0  0  0  0  0  0
    8.0227   45.6980    2.2031 H   0  0  0  0  0  0
    6.1386   43.7138    3.4105 H   0  0  0  0  0  0
    8.2888   44.5072    0.5712 H   0  0  0  0  0  0
    8.5656   42.6598    0.1964 H   0  0  0  0  0  0
    6.4560   41.5754    2.9639 H   0  0  0  0  0  0
    6.3665   47.2344    6.7087 H   0  0  0  0  0  0
    6.1416   50.2006    6.1752 H   0  0  0  0  0  0
    7.4471   48.5762    8.4350 H   0  0  0  0  0  0
    7.7590   50.3350    8.2461 H   0  0  0  0  0  0
    5.2882   47.7649    9.2067 H   0  0  0  0  0  0
    6.0439   51.9602    8.7094 H   0  0  0  0  0  0
    3.2707   48.2906   10.5776 H   0  0  0  0  0  0
    4.0451   52.4893   10.0580 H   0  0  0  0  0  0
    1.8188   49.9490   11.5866 H   0  0  0  0  0  0
    7.9380   51.5128    5.7469 H   0  0  0  0  0  0
   10.4393   49.9283    4.8729 H   0  0  0  0  0  0
    9.0907   52.2836    3.4784 H   0  0  0  0  0  0
   10.7519   51.7101    3.1069 H   0  0  0  0  0  0
    7.1397   50.8238    2.9921 H   0  0  0  0  0  0
   11.1203   49.7058    1.8421 H   0  0  0  0  0  0
    6.2144   49.0816    1.4830 H   0  0  0  0  0  0
   10.2037   47.9640    0.3381 H   0  0  0  0  0  0
    6.5572   47.2933   -0.0860 H   0  0  0  0  0  0
   12.4704   51.2062    5.1446 H   0  0  0  0  0  0
   12.2672   52.6232    7.6511 H   0  0  0  0  0  0
   14.7125   53.1574    7.2921 H   0  0  0  0  0  0
   14.3531   51.4697    6.7930 H   0  0  0  0  0  0
   14.2930   52.2097    4.4400 H   0  0  0  0  0  0
   14.7382   53.8661    4.9734 H   0  0  0  0  0  0
   17.6880   51.1029    4.4943 H   0  0  0  0  0  0
   11.6148   53.7396    4.4742 H   0  0  0  0  0  0
   12.4828   56.4706    5.1333 H   0  0  0  0  0  0
   11.2175   57.0538    2.9204 H   0  0  0  0  0  0
   12.4265   55.7357    2.7542 H   0  0  0  0  0  0
   10.2522   55.1044    1.6509 H   0  0  0  0  0  0
    9.6553   54.7464    6.0730 H   0  0  0  0  0  0
    8.7299   57.3716    7.0497 H   0  0  0  0  0  0
    7.6116   57.3576    4.8098 H   0  0  0  0  0  0
    6.9747   55.7049    5.1095 H   0  0  0  0  0  0
    5.1961   57.4460    5.5473 H   0  0  0  0  0  0
    7.2236   57.4778    8.6740 H   0  0  0  0  0  0
    7.1485   54.9045   10.1999 H   0  0  0  0  0  0
    6.1345   57.7411   10.6944 H   0  0  0  0  0  0
    5.7174   56.3966   11.8102 H   0  0  0  0  0  0
    8.5489   57.2904   11.1200 H   0  0  0  0  0  0
    7.2887   59.0013   12.3742 H   0  0  0  0  0  0
    8.5525   58.2273   13.3892 H   0  0  0  0  0  0
    6.8285   57.7667   13.5951 H   0  0  0  0  0  0
    8.3076   54.8875   11.7034 H   0  0  0  0  0  0
    7.4280   55.3465   13.2008 H   0  0  0  0  0  0
    9.1520   55.8071   12.9948 H   0  0  0  0  0  0
    5.3940   56.3395    7.6957 H   0  0  0  0  0  0
    2.7493   55.1698    8.6353 H   0  0  0  0  0  0
    3.5217   56.6748    6.0714 H   0  0  0  0  0  0
    1.8559   56.1729    6.5184 H   0  0  0  0  0  0
    3.5771   58.1924    8.0046 H   0  0  0  0  0  0
    2.7905   58.9449    5.7786 H   0  0  0  0  0  0
    1.9434   59.8035    7.1097 H   0  0  0  0  0  0
    1.1118   58.4828    6.2203 H   0  0  0  0  0  0
    2.0591   56.9113    9.4823 H   0  0  0  0  0  0
    0.6829   57.2905    8.3920 H   0  0  0  0  0  0
    1.5145   58.6112    9.2813 H   0  0  0  0  0  0
    3.8763   51.5461    6.2635 H   0  0  0  0  0  0
    1.6233   50.0378    6.6302 H   0  0  0  0  0  0
    2.6504   50.4390    8.0481 H   0  0  0  0  0  0
    0.1954   51.9359    6.9939 H   0  0  0  0  0  0
    0.4350   51.2463    8.6351 H   0  0  0  0  0  0
    2.1791   52.8834    9.1813 H   0  0  0  0  0  0
    1.0799   53.8918    8.1805 H   0  0  0  0  0  0
    3.6174   50.3603    4.4780 H   0  0  0  0  0  0
    1.8986   51.9153    2.4979 H   0  0  0  0  0  0
    4.3107   50.0627    2.2170 H   0  0  0  0  0  0
    3.2690   50.4350    0.8018 H   0  0  0  0  0  0
    5.3014   52.1049    3.4825 H   0  0  0  0  0  0
    3.6984   52.2841   -0.4897 H   0  0  0  0  0  0
    6.6283   54.1516    3.0394 H   0  0  0  0  0  0
    5.0202   54.3238   -0.9387 H   0  0  0  0  0  0
    7.2902   55.9089    1.5366 H   0  0  0  0  0  0
   -0.9566   48.5143    2.0932 H   0  0  0  0  0  0
   -0.3723   48.7230   -0.9050 H   0  0  0  0  0  0
   -1.9651   48.6285   -0.0800 H   0  0  0  0  0  0
   -1.2071   51.0040   -0.9164 H   0  0  0  0  0  0
   -1.7719   50.8640    0.7830 H   0  0  0  0  0  0
    0.4681   51.8372    1.0927 H   0  0  0  0  0  0
    1.1569   50.8540   -0.2436 H   0  0  0  0  0  0
   -1.3591   46.3846    1.1737 H   0  0  0  0  0  0
   -0.5794   44.2673    0.6200 H   0  0  0  0  0  0
    0.4959   42.9766    3.7871 H   0  0  0  0  0  0
    2.2407   45.4762    0.3000 H   0  0  0  0  0  0
    1.7778   43.8020   -0.1573 H   0  0  0  0  0  0
   -0.5102   46.0350   -2.5886 H   0  0  0  0  0  0
  1  2  1  0  0  0
  1122  1  0  0  0
  1123  1  0  0  0
  1124  1  0  0  0
  2  3  1  0  0  0
  2  5  1  0  0  0
  2125  1  0  0  0
  3  4  2  0  0  0
  3 15  1  0  0  0
  5  6  1  0  0  0
  5126  1  0  0  0
  5127  1  0  0  0
  6  7  2  0  0  0
  6  8  1  0  0  0
  7  9  1  0  0  0
  7128  1  0  0  0
  8 10  2  0  0  0
  8 11  1  0  0  0
  9 10  1  0  0  0
 10 12  1  0  0  0
 11 13  2  0  0  0
 11129  1  0  0  0
 12 14  2  0  0  0
 12130  1  0  0  0
 13 14  1  0  0  0
 13131  1  0  0  0
 14132  1  0  0  0
 15 16  1  0  0  0
 15133  1  0  0  0
 16 17  1  0  0  0
 16 19  1  0  0  0
 16134  1  0  0  0
 17 18  2  0  0  0
 17 26  1  0  0  0
 19 20  1  0  0  0
 19135  1  0  0  0
 19136  1  0  0  0
 20 21  1  0  0  0
 20137  1  0  0  0
 20138  1  0  0  0
 21 22  1  0  0  0
 21139  1  0  0  0
 21140  1  0  0  0
 22 23  1  0  0  0
 22141  1  0  0  0
 23 24  1  0  0  0
 23 25  2  0  0  0
 24142  1  0  0  0
 24143  1  0  0  0
 25144  1  0  0  0
 26 27  1  0  0  0
 26145  1  0  0  0
 27 28  1  0  0  0
 27 30  1  0  0  0
 27146  1  0  0  0
 28 29  2  0  0  0
 28 38  1  0  0  0
 30 31  1  0  0  0
 30147  1  0  0  0
 30148  1  0  0  0
 31 32  2  0  0  0
 31 33  1  0  0  0
 32 34  1  0  0  0
 32149  1  0  0  0
 33 35  2  0  0  0
 33150  1  0  0  0
 34 36  2  0  0  0
 34151  1  0  0  0
 35 36  1  0  0  0
 35152  1  0  0  0
 36 37  1  0  0  0
 37153  1  0  0  0
 38 39  1  0  0  0
 38154  1  0  0  0
 39 40  1  0  0  0
 39 42  1  0  0  0
 39155  1  0  0  0
 40 41  2  0  0  0
 40 50  1  0  0  0
 42 43  1  0  0  0
 42156  1  0  0  0
 42157  1  0  0  0
 43 44  2  0  0  0
 43 45  1  0  0  0
 44 46  1  0  0  0
 44158  1  0  0  0
 45 47  2  0  0  0
 45159  1  0  0  0
 46 48  2  0  0  0
 46160  1  0  0  0
 47 48  1  0  0  0
 47161  1  0  0  0
 48 49  1  0  0  0
 49162  1  0  0  0
 50 51  1  0  0  0
 50163  1  0  0  0
 51 52  1  0  0  0
 51 54  1  0  0  0
 51164  1  0  0  0
 52 53  2  0  0  0
 52 59  1  0  0  0
 54 55  1  0  0  0
 54165  1  0  0  0
 54166  1  0  0  0
 55 56  1  0  0  0
 55167  1  0  0  0
 55168  1  0  0  0
 56 57  1  0  0  0
 56 58  2  0  0  0
 57169  1  0  0  0
 59 60  1  0  0  0
 59170  1  0  0  0
 60 61  1  0  0  0
 60 63  1  0  0  0
 60171  1  0  0  0
 61 62  2  0  0  0
 61 65  1  0  0  0
 63 64  1  0  0  0
 63172  1  0  0  0
 63173  1  0  0  0
 64174  1  0  0  0
 65 66  1  0  0  0
 65175  1  0  0  0
 66 67  1  0  0  0
 66 69  1  0  0  0
 66176  1  0  0  0
 67 68  2  0  0  0
 67 71  1  0  0  0
 69 70  1  0  0  0
 69177  1  0  0  0
 69178  1  0  0  0
 70179  1  0  0  0
 71 72  1  0  0  0
 71180  1  0  0  0
 72 73  1  0  0  0
 72 75  1  0  0  0
 72181  1  0  0  0
 73 74  2  0  0  0
 73 79  1  0  0  0
 75 76  1  0  0  0
 75182  1  0  0  0
 75183  1  0  0  0
 76 77  1  0  0  0
 76 78  1  0  0  0
 76184  1  0  0  0
 77185  1  0  0  0
 77186  1  0  0  0
 77187  1  0  0  0
 78188  1  0  0  0
 78189  1  0  0  0
 78190  1  0  0  0
 79 80  1  0  0  0
 79191  1  0  0  0
 80 81  1  0  0  0
 80 83  1  0  0  0
 80192  1  0  0  0
 81 82  2  0  0  0
 81 87  1  0  0  0
 83 84  1  0  0  0
 83193  1  0  0  0
 83194  1  0  0  0
 84 85  1  0  0  0
 84 86  1  0  0  0
 84195  1  0  0  0
 85196  1  0  0  0
 85197  1  0  0  0
 85198  1  0  0  0
 86199  1  0  0  0
 86200  1  0  0  0
 86201  1  0  0  0
 87 88  1  0  0  0
 87 93  1  0  0  0
 88 89  1  0  0  0
 88 91  1  0  0  0
 88202  1  0  0  0
 89 90  2  0  0  0
 89 94  1  0  0  0
 91 92  1  0  0  0
 91203  1  0  0  0
 91204  1  0  0  0
 92 93  1  0  0  0
 92205  1  0  0  0
 92206  1  0  0  0
 93207  1  0  0  0
 93208  1  0  0  0
 94 95  1  0  0  0
 94209  1  0  0  0
 95 96  1  0  0  0
 95 98  1  0  0  0
 95210  1  0  0  0
 96 97  2  0  0  0
 96106  1  0  0  0
 98 99  1  0  0  0
 98211  1  0  0  0
 98212  1  0  0  0
 99100  2  0  0  0
 99101  1  0  0  0
100102  1  0  0  0
100213  1  0  0  0
101103  2  0  0  0
101214  1  0  0  0
102104  2  0  0  0
102215  1  0  0  0
103104  1  0  0  0
103216  1  0  0  0
104105  1  0  0  0
105217  1  0  0  0
106107  1  0  0  0
106112  1  0  0  0
107108  1  0  0  0
107110  1  0  0  0
107218  1  0  0  0
108109  2  0  0  0
108113  1  0  0  0
110111  1  0  0  0
110219  1  0  0  0
110220  1  0  0  0
111112  1  0  0  0
111221  1  0  0  0
111222  1  0  0  0
112223  1  0  0  0
112224  1  0  0  0
113114  1  0  0  0
113225  1  0  0  0
114115  1  0  0  0
114117  1  0  0  0
114226  1  0  0  0
115116  1  0  0  0
115121  2  0  0  0
116227  1  0  0  0
117118  1  0  0  0
117228  1  0  0  0
117229  1  0  0  0
118119  2  0  0  0
118120  1  0  0  0
120230  1  0  0  0
M  CHG  1   1   1
M  END
> <s_m_source_file>
../1hc9_ligand.sdf

> <i_m_source_file_index>
1

> <s_epik_input>
W2NIXTFbY0hdW2NIXVtjSF1jKGMxMilbbkhdW2NIXWMyW0NIMl1bQ0BIXShbTkgzK10pQyg9TylbTkhdW0NAQEhdKFtDSDJdW0NIMl1bQ0gyXVtOSF0vQyhbTkgyXSk9TlxbSF0pQyg9TylbTkhdW0NAQEhdKFtDSDJdYzNbY0hdW2NIXWMoW09IXSlbY0hdW2NIXTMpQyg9TylbTkhdW0NAQEhdKFtDSDJdYzRbY0hdW2NIXWMoW09IXSlbY0hdW2NIXTQpQyg9TylbTkhdW0NAQEhdKFtDSDJdW0NIMl1DKD1PKVtPSF0pQyg9TylbTkhdW0NAQEhdKFtDSDJdW09IXSlDKD1PKVtOSF1bQ0BASF0oW0NIMl1bT0hdKUMoPU8pW05IXVtDQEBIXShbQ0gyXVtDSF0oW0NIM10pW0NIM10pQyg9TylbTkhdW0NAQEhdKFtDSDJdW0NIXShbQ0gzXSlbQ0gzXSlDKD1PKU41W0NAQEhdKFtDSDJdW0NIMl1bQ0gyXTUpQyg9TylbTkhdW0NAQEhdKFtDSDJdYzZbY0hdW2NIXWMoW09IXSlbY0hdW2NIXTYpQyg9TylON1tDQEBIXShbQ0gyXVtDSDJdW0NIMl03KUMoPU8pW05IXVtDQEhdKEMoPU8pW09IXSlbQ0gyXUMoPU8pW09IXQ==

> <s_epik_cmdline>
J2VwaWtfYXBwJywgJy1pbWFlJywgJ2xpZ2FuZF9wcm8ubWFlJywgJy1vbWFlJywgJ2xpZ2FuZF9wcmVwLm1hZScsICctbXMnLCAnMScsICctcGgnLCAnNycsICctcGh0JywgJzAuNScsICctbnQn

> <s_epik_pKa_notes>
Molecule size exceeds maximum supported for generating protonation states

> <s_epik_Chemistry_Notes>
This compound has an imine and may undergo hydrolysis.

$$$$
