1hdq_ligand
                    3D
 Schrodinger Suite 2020-3.
 27 27  0  0  1  0            999 V2000
   -2.1330   30.7500   -6.0920 N   0  0  0  0  0  0
   -1.2390   31.8850   -6.3600 C   0  0  1  0  0  0
    0.1820   31.3410   -6.6460 C   0  0  0  0  0  0
    1.1610   32.0170   -6.6550 O   0  0  0  0  0  0
   -1.7560   32.7370   -7.5670 C   0  0  0  0  0  0
   -2.0310   31.9920   -8.8700 C   0  0  0  0  0  0
   -1.0350   31.9510   -9.8930 C   0  0  0  0  0  0
   -3.2670   31.3260   -9.1020 C   0  0  0  0  0  0
   -1.2660   31.2640  -11.1080 C   0  0  0  0  0  0
   -3.5010   30.6360  -10.3200 C   0  0  0  0  0  0
   -2.5000   30.6030  -11.3240 C   0  0  0  0  0  0
    0.2080   30.0210   -6.9010 O   0  5  0  0  0  0
   -2.7510   30.5360   -4.9140 C   0  0  0  0  0  0
   -2.6390   31.2580   -3.9310 O   0  0  0  0  0  0
   -3.5200   29.4380   -4.9230 N   0  0  0  0  0  0
   -3.6170   28.6530   -6.0850 O   0  0  0  0  0  0
   -2.3327   30.0091   -6.8802 H   0  0  0  0  0  0
   -1.2464   32.5005   -5.4483 H   0  0  0  0  0  0
   -2.7063   33.2195   -7.2948 H   0  0  0  0  0  0
   -1.0120   33.5077   -7.8172 H   0  0  0  0  0  0
   -0.0824   32.4567   -9.7352 H   0  0  0  0  0  0
   -4.0423   31.3460   -8.3361 H   0  0  0  0  0  0
   -0.4945   31.2434  -11.8777 H   0  0  0  0  0  0
   -4.4525   30.1302  -10.4841 H   0  0  0  0  0  0
   -2.6795   30.0710  -12.2583 H   0  0  0  0  0  0
   -4.0759   29.1519   -4.0180 H   0  0  0  0  0  0
   -4.2488   27.7526   -6.0893 H   0  0  0  0  0  0
  1  2  1  0  0  0
  1 13  1  0  0  0
  1 17  1  0  0  0
  2  5  1  0  0  0
  2  3  1  0  0  0
  2 18  1  0  0  0
  3  4  2  0  0  0
  3 12  1  0  0  0
  5  6  1  0  0  0
  5 19  1  0  0  0
  5 20  1  0  0  0
  6  7  2  0  0  0
  6  8  1  0  0  0
  7  9  1  0  0  0
  7 21  1  0  0  0
  8 10  2  0  0  0
  8 22  1  0  0  0
  9 11  2  0  0  0
  9 23  1  0  0  0
 10 11  1  0  0  0
 10 24  1  0  0  0
 11 25  1  0  0  0
 13 15  1  0  0  0
 13 14  2  0  0  0
 15 16  1  0  0  0
 15 26  1  0  0  0
 16 27  1  0  0  0
M  CHG  1  12  -1
M  END
> <s_m_source_file>
../1hdq_ligand.sdf

> <i_m_source_file_index>
1

> <s_epik_input>
W09IXVtOSF1DKD1PKVtOSF1bQ0BASF0oQyg9TylbT0hdKVtDSDJdYzFbY0hdW2NIXVtjSF1bY0hdW2NIXTE=

> <s_epik_cmdline>
J2VwaWtfYXBwJywgJy1pbWFlJywgJ2xpZ2FuZF9wcm8ubWFlJywgJy1vbWFlJywgJ2xpZ2FuZF9wcmVwLm1hZScsICctbXMnLCAnMScsICctcGgnLCAnNycsICctcGh0JywgJzAuNScsICctbnQn

> <r_lp_tautomer_probability>
1

> <r_epik_Ionization_Penalty>
  0.0017

> <r_epik_Ionization_Penalty_Charging>
  0.0004

> <r_epik_Ionization_Penalty_Neutral>
  0.0013

> <r_epik_State_Penalty>
 -0.0000

> <r_epik_Charging_Adjusted_Penalty>
0.000380956912267887

> <i_epik_Tot_Q>
-1

> <i_epik_Tot_abs_Q>
1

> <s_epik_Chemistry_Notes>
This compound has a N-S or N-O group and may undergo hydrolysis at high or low pH.

$$$$
