1hdt_ligand
                    3D
 Schrodinger Suite 2020-3.
 75 76  0  0  1  0            999 V2000
   14.5380   38.0800    6.2290 C   0  0  0  0  0  0
   13.5820   38.8710    6.0680 O   0  0  0  0  0  0
   15.3060   38.0060    7.5550 C   0  0  0  0  0  0
   14.4600   37.9850    8.8120 C   0  0  0  0  0  0
   13.5690   36.7840    8.9630 C   0  0  0  0  0  0
   12.3770   36.9620    8.1500 N   0  0  0  0  0  0
   11.1390   36.9780    8.5920 C   0  0  0  0  0  0
   10.8400   36.8070    9.8790 N   0  0  0  0  0  0
   10.1950   37.2230    7.7240 N   0  3  0  0  0  0
   14.9380   37.1840    5.3260 N   0  0  0  0  0  0
   14.3710   36.9670    3.9880 C   0  0  2  0  0  0
   12.8700   36.5940    4.0290 C   0  0  0  0  0  0
   12.3910   36.0070    5.0170 O   0  0  0  0  0  0
   15.1580   35.8030    3.3620 C   0  0  0  0  0  0
   14.9330   35.6220    1.8990 C   0  0  0  0  0  0
   15.6840   36.3790    0.9680 C   0  0  0  0  0  0
   13.9330   34.7240    1.4200 C   0  0  0  0  0  0
   15.4420   36.2550   -0.4280 C   0  0  0  0  0  0
   13.6770   34.5930    0.0230 C   0  0  0  0  0  0
   14.4290   35.3630   -0.8980 C   0  0  0  0  0  0
   12.1180   36.9680    2.9910 N   0  0  0  0  0  0
   10.6920   36.6120    2.9150 C   0  0  1  0  0  0
    9.7180   37.8380    3.0200 C   0  0  2  0  0  0
    9.9170   38.6150    4.3390 C   0  0  0  0  0  0
    8.3550   37.3790    2.9840 O   0  0  0  0  0  0
   10.3760   35.7570    1.6820 C   0  0  0  0  0  0
   10.9360   35.9630    0.6120 O   0  0  0  0  0  0
    9.5290   34.7500    1.8890 N   0  0  0  0  0  0
    9.0700   33.8230    0.8650 C   0  0  2  0  0  0
    7.5750   34.0580    0.7040 C   0  0  0  0  0  0
    7.0380   33.9540   -0.4080 O   0  0  0  0  0  0
    9.2660   32.3760    1.3190 C   0  0  0  0  0  0
   10.6410   31.8170    1.0730 C   0  0  0  0  0  0
   11.0530   31.4530   -0.2470 C   0  0  0  0  0  0
   11.5250   31.5940    2.1650 C   0  0  0  0  0  0
   12.3440   30.8610   -0.4770 C   0  0  0  0  0  0
   12.8180   31.0050    1.9640 C   0  0  0  0  0  0
   13.2300   30.6370    0.6350 C   0  0  0  0  0  0
    6.6830   34.3200    1.8360 O   0  5  0  0  0  0
   15.9101   37.0870    7.5780 H   0  0  0  0  0  0
   15.9662   38.8812    7.6457 H   0  0  0  0  0  0
   15.1153   38.0020    9.6953 H   0  0  0  0  0  0
   13.8025   38.8667    8.8262 H   0  0  0  0  0  0
   14.1080   35.8838    8.6327 H   0  0  0  0  0  0
   13.2804   36.6719   10.0185 H   0  0  0  0  0  0
   12.4685   37.0993    7.0624 H   0  0  0  0  0  0
   11.6388   36.6008   10.6065 H   0  0  0  0  0  0
    9.7943   36.8720   10.2141 H   0  0  0  0  0  0
   10.4468   37.3635    6.6625 H   0  0  0  0  0  0
   15.7833   36.5706    5.6712 H   0  0  0  0  0  0
   14.4769   37.9180    3.4455 H   0  0  0  0  0  0
   16.2359   35.9721    3.5018 H   0  0  0  0  0  0
   14.8685   34.8604    3.8496 H   0  0  0  0  0  0
   16.4544   37.0629    1.3241 H   0  0  0  0  0  0
   13.3575   34.1307    2.1306 H   0  0  0  0  0  0
   16.0278   36.8390   -1.1379 H   0  0  0  0  0  0
   12.9091   33.9061   -0.3330 H   0  0  0  0  0  0
   14.2348   35.2751   -1.9669 H   0  0  0  0  0  0
   12.5827   37.5526    2.1834 H   0  0  0  0  0  0
   10.5757   35.9901    3.8149 H   0  0  0  0  0  0
    9.8574   38.5041    2.1558 H   0  0  0  0  0  0
   10.9530   38.9802    4.3967 H   0  0  0  0  0  0
    9.7150   37.9490    5.1909 H   0  0  0  0  0  0
    9.2248   39.4693    4.3693 H   0  0  0  0  0  0
    7.9931   36.7972    2.1234 H   0  0  0  0  0  0
    9.1734   34.6456    2.9247 H   0  0  0  0  0  0
    9.6519   34.0204   -0.0474 H   0  0  0  0  0  0
    9.0838   32.3035    2.4014 H   0  0  0  0  0  0
    8.5592   31.7248    0.7838 H   0  0  0  0  0  0
   10.3817   31.6259   -1.0882 H   0  0  0  0  0  0
   11.2150   31.8753    3.1714 H   0  0  0  0  0  0
   12.6489   30.5841   -1.4862 H   0  0  0  0  0  0
   13.4830   30.8376    2.8113 H   0  0  0  0  0  0
   14.2104   30.1898    0.4710 H   0  0  0  0  0  0
    9.1478   37.2890    8.0542 H   0  0  0  0  0  0
  1  2  2  0  0  0
  1  3  1  0  0  0
  1 10  1  0  0  0
  3  4  1  0  0  0
  3 40  1  0  0  0
  3 41  1  0  0  0
  4  5  1  0  0  0
  4 42  1  0  0  0
  4 43  1  0  0  0
  5  6  1  0  0  0
  5 44  1  0  0  0
  5 45  1  0  0  0
  6  7  1  0  0  0
  6 46  1  0  0  0
  7  8  1  0  0  0
  7  9  2  0  0  0
  8 47  1  0  0  0
  8 48  1  0  0  0
  9 49  1  0  0  0
  9 75  1  0  0  0
 10 11  1  0  0  0
 10 50  1  0  0  0
 11 12  1  0  0  0
 11 14  1  0  0  0
 11 51  1  0  0  0
 12 13  2  0  0  0
 12 21  1  0  0  0
 14 15  1  0  0  0
 14 52  1  0  0  0
 14 53  1  0  0  0
 15 16  2  0  0  0
 15 17  1  0  0  0
 16 18  1  0  0  0
 16 54  1  0  0  0
 17 19  2  0  0  0
 17 55  1  0  0  0
 18 20  2  0  0  0
 18 56  1  0  0  0
 19 20  1  0  0  0
 19 57  1  0  0  0
 20 58  1  0  0  0
 21 22  1  0  0  0
 21 59  1  0  0  0
 22 23  1  0  0  0
 22 26  1  0  0  0
 22 60  1  0  0  0
 23 24  1  0  0  0
 23 25  1  0  0  0
 23 61  1  0  0  0
 24 62  1  0  0  0
 24 63  1  0  0  0
 24 64  1  0  0  0
 25 65  1  0  0  0
 26 27  2  0  0  0
 26 28  1  0  0  0
 28 29  1  0  0  0
 28 66  1  0  0  0
 29 30  1  0  0  0
 29 32  1  0  0  0
 29 67  1  0  0  0
 30 31  2  0  0  0
 30 39  1  0  0  0
 32 33  1  0  0  0
 32 68  1  0  0  0
 32 69  1  0  0  0
 33 34  2  0  0  0
 33 35  1  0  0  0
 34 36  1  0  0  0
 34 70  1  0  0  0
 35 37  2  0  0  0
 35 71  1  0  0  0
 36 38  2  0  0  0
 36 72  1  0  0  0
 37 38  1  0  0  0
 37 73  1  0  0  0
 38 74  1  0  0  0
M  CHG  2   9   1  39  -1
M  END
> <s_m_source_file>
../1hdt_ligand.sdf

> <i_m_source_file_index>
1

> <s_epik_input>
W0hdXE49QyhbTkgyXSlcW05IXVtDSDJdW0NIMl1bQ0gyXUMoPU8pW05IXVtDQEBIXShbQ0gyXWMxW2NIXVtjSF1bY0hdW2NIXVtjSF0xKUMoPU8pW05IXVtDQEBIXShbQ0BIXShbQ0gzXSlbT0hdKUMoPU8pW05IXVtDQEhdKEMoPU8pW09IXSlbQ0gyXWMyW2NIXVtjSF1bY0hdW2NIXVtjSF0y

> <s_epik_cmdline>
J2VwaWtfYXBwJywgJy1pbWFlJywgJ2xpZ2FuZF9wcm8ubWFlJywgJy1vbWFlJywgJ2xpZ2FuZF9wcmVwLm1hZScsICctbXMnLCAnMScsICctcGgnLCAnNycsICctcGh0JywgJzAuNScsICctbnQn

> <r_lp_tautomer_probability>
1

> <r_epik_Ionization_Penalty>
  0.0002

> <r_epik_Ionization_Penalty_Charging>
  0.0002

> <r_epik_Ionization_Penalty_Neutral>
  0.0000

> <r_epik_State_Penalty>
 -0.0000

> <r_epik_Charging_Adjusted_Penalty>
0.000174493314552706

> <i_epik_Tot_Q>
0

> <i_epik_Tot_abs_Q>
2

> <s_epik_Chemistry_Notes>
This compound has an imine and may undergo hydrolysis.

$$$$
