1hee_ligand
                    3D
 Schrodinger Suite 2020-3.
 27 27  0  0  1  0            999 V2000
    6.0920    9.5800   -0.9080 N   0  0  0  0  0  0
    5.6080    9.2310   -2.2740 C   0  0  2  0  0  0
    6.8130    8.8410   -3.1520 C   0  0  0  0  0  0
    7.8680    9.3910   -3.1030 O   0  0  0  0  0  0
    4.8580   10.4090   -2.9440 C   0  0  0  0  0  0
    3.9950    9.9490   -4.0980 C   0  0  0  0  0  0
    2.7150    9.3780   -3.8580 C   0  0  0  0  0  0
    4.4530   10.0720   -5.4400 C   0  0  0  0  0  0
    1.9110    8.9400   -4.9380 C   0  0  0  0  0  0
    3.6470    9.6310   -6.5190 C   0  0  0  0  0  0
    2.3800    9.0660   -6.2680 C   0  0  0  0  0  0
    6.5240    7.8230   -3.9790 O   0  5  0  0  0  0
    6.8460    8.7450   -0.1460 C   0  0  0  0  0  0
    7.1910    7.6520   -0.5320 O   0  0  0  0  0  0
    7.2110    9.1660    1.0850 N   0  0  0  0  0  0
    6.7810   10.4360    1.4870 O   0  0  0  0  0  0
    5.8413   10.5568   -0.4686 H   0  0  0  0  0  0
    4.9128    8.3892   -2.1393 H   0  0  0  0  0  0
    4.2084   10.8987   -2.2035 H   0  0  0  0  0  0
    5.5876   11.1363   -3.3296 H   0  0  0  0  0  0
    2.3504    9.2768   -2.8358 H   0  0  0  0  0  0
    5.4315   10.5089   -5.6394 H   0  0  0  0  0  0
    0.9301    8.5054   -4.7454 H   0  0  0  0  0  0
    4.0068    9.7287   -7.5433 H   0  0  0  0  0  0
    1.7611    8.7260   -7.0983 H   0  0  0  0  0  0
    7.8222    8.5521    1.7630 H   0  0  0  0  0  0
    7.0542   10.8201    2.4809 H   0  0  0  0  0  0
  1  2  1  0  0  0
  1 13  1  0  0  0
  1 17  1  0  0  0
  2  5  1  0  0  0
  2  3  1  0  0  0
  2 18  1  0  0  0
  3  4  2  0  0  0
  3 12  1  0  0  0
  5  6  1  0  0  0
  5 19  1  0  0  0
  5 20  1  0  0  0
  6  7  2  0  0  0
  6  8  1  0  0  0
  7  9  1  0  0  0
  7 21  1  0  0  0
  8 10  2  0  0  0
  8 22  1  0  0  0
  9 11  2  0  0  0
  9 23  1  0  0  0
 10 11  1  0  0  0
 10 24  1  0  0  0
 11 25  1  0  0  0
 13 15  1  0  0  0
 13 14  2  0  0  0
 15 16  1  0  0  0
 15 26  1  0  0  0
 16 27  1  0  0  0
M  CHG  1  12  -1
M  END
> <s_m_source_file>
../1hee_ligand.sdf

> <i_m_source_file_index>
1

> <s_epik_input>
W09IXVtOSF1DKD1PKVtOSF1bQ0BIXShDKD1PKVtPSF0pW0NIMl1jMVtjSF1bY0hdW2NIXVtjSF1bY0hdMQ==

> <s_epik_cmdline>
J2VwaWtfYXBwJywgJy1pbWFlJywgJ2xpZ2FuZF9wcm8ubWFlJywgJy1vbWFlJywgJ2xpZ2FuZF9wcmVwLm1hZScsICctbXMnLCAnMScsICctcGgnLCAnNycsICctcGh0JywgJzAuNScsICctbnQn

> <r_lp_tautomer_probability>
1

> <r_epik_Ionization_Penalty>
  0.0017

> <r_epik_Ionization_Penalty_Charging>
  0.0004

> <r_epik_Ionization_Penalty_Neutral>
  0.0013

> <r_epik_State_Penalty>
 -0.0000

> <r_epik_Charging_Adjusted_Penalty>
0.000380956912267887

> <i_epik_Tot_Q>
-1

> <i_epik_Tot_abs_Q>
1

> <s_epik_Chemistry_Notes>
This compound has a N-S or N-O group and may undergo hydrolysis at high or low pH.

$$$$
