1hef_ligand
                    3D
 Schrodinger Suite 2020-3.
102103  0  0  1  0            999 V2000
  -13.6420   13.6160   34.9830 N   0  3  0  0  0  0
  -12.2960   13.8890   34.5570 C   0  0  2  0  0  0
  -12.2520   14.5870   33.1620 C   0  0  0  0  0  0
  -13.2750   14.4360   32.4770 O   0  0  0  0  0  0
  -11.3990   12.6720   34.5400 C   0  0  0  0  0  0
  -11.1350   15.2080   32.9240 N   0  0  0  0  0  0
  -10.3340   16.0110   32.1250 C   0  0  2  0  0  0
  -10.0430   15.3530   30.7410 C   0  0  0  0  0  0
   -9.3330   14.3720   30.6820 O   0  0  0  0  0  0
   -9.0600   16.4730   32.8210 C   0  0  0  0  0  0
  -10.5900   16.0090   29.7450 N   0  0  0  0  0  0
  -10.8310   16.1070   28.3570 C   0  0  1  0  0  0
  -12.3720   15.9770   28.1020 C   0  0  0  0  0  0
  -12.9550   14.6590   28.6170 C   0  0  0  0  0  0
  -12.2870   13.4330   28.3470 C   0  0  0  0  0  0
  -14.1280   14.6950   29.3820 C   0  0  0  0  0  0
  -12.8240   12.2320   28.8470 C   0  0  0  0  0  0
  -14.6620   13.4730   29.8700 C   0  0  0  0  0  0
  -14.0220   12.2730   29.5870 C   0  0  0  0  0  0
  -10.4180   17.4730   27.7490 C   0  0  1  0  0  0
  -11.2920   18.4600   28.2800 O   0  0  0  0  0  0
   -8.9690   17.7830   28.0620 C   0  0  0  0  0  0
   -7.9460   18.0530   26.9910 C   0  0  2  0  0  0
   -7.7610   17.0710   25.8550 C   0  0  0  0  0  0
   -7.1550   16.0070   26.0380 O   0  0  0  0  0  0
   -6.5570   18.0280   27.7500 C   0  0  0  0  0  0
   -5.4470   18.1850   26.8670 C   0  0  0  0  0  0
   -5.3220   19.3400   26.0520 C   0  0  0  0  0  0
   -4.4870   17.1600   26.7730 C   0  0  0  0  0  0
   -4.2260   19.4600   25.1770 C   0  0  0  0  0  0
   -3.3940   17.2830   25.8920 C   0  0  0  0  0  0
   -3.2590   18.4530   25.1030 C   0  0  0  0  0  0
   -8.2070   17.3680   24.6220 N   0  0  0  0  0  0
   -7.9530   16.4320   23.5160 C   0  0  2  0  0  0
   -7.1290   17.2710   22.4950 C   0  0  0  0  0  0
   -7.5590   18.3710   22.1260 O   0  0  0  0  0  0
   -9.1200   15.7860   22.8240 C   0  0  0  0  0  0
   -8.8110   14.3880   22.2450 C   0  0  0  0  0  0
  -10.4520   15.7510   23.5360 C   0  0  0  0  0  0
   -6.0500   16.6410   22.1220 N   0  0  0  0  0  0
   -4.9650   16.8370   21.2520 C   0  0  2  0  0  0
   -3.9780   17.8990   21.7610 C   0  0  0  0  0  0
   -4.1100   18.1740   22.9550 O   0  0  0  0  0  0
   -5.3750   17.2340   19.8230 C   0  0  0  0  0  0
   -5.6010   18.7340   19.7330 C   0  0  0  0  0  0
   -4.3190   16.6550   18.8580 C   0  0  0  0  0  0
   -3.5390   19.4440   19.9810 C   0  0  0  0  0  0
   -3.0530   18.5280   20.9390 O   0  0  0  0  0  0
  -13.6227   13.1257   35.9675 H   0  0  0  0  0  0
  -14.1304   12.9537   34.2530 H   0  0  0  0  0  0
  -14.2025   14.5598   35.0544 H   0  0  0  0  0  0
  -11.9605   14.5450   35.3737 H   0  0  0  0  0  0
  -11.4300   12.1799   35.5233 H   0  0  0  0  0  0
  -10.3670   12.9803   34.3166 H   0  0  0  0  0  0
  -11.7475   11.9704   33.7677 H   0  0  0  0  0  0
  -10.7513   14.8290   33.8827 H   0  0  0  0  0  0
  -10.9996   16.8814   32.0283 H   0  0  0  0  0  0
   -9.3156   16.9285   33.7891 H   0  0  0  0  0  0
   -8.5463   17.2143   32.1912 H   0  0  0  0  0  0
   -8.3982   15.6098   32.9852 H   0  0  0  0  0  0
  -10.9901   16.7729   30.4280 H   0  0  0  0  0  0
  -10.1955   15.2917   27.9809 H   0  0  0  0  0  0
  -12.8985   16.7969   28.6124 H   0  0  0  0  0  0
  -12.5706   16.0302   27.0214 H   0  0  0  0  0  0
  -11.3691   13.4235   27.7592 H   0  0  0  0  0  0
  -14.6212   15.6426   29.5985 H   0  0  0  0  0  0
  -12.3198   11.2831   28.6642 H   0  0  0  0  0  0
  -15.5742   13.4766   30.4667 H   0  0  0  0  0  0
  -14.4573   11.3405   29.9462 H   0  0  0  0  0  0
  -10.5398   17.5249   26.6570 H   0  0  0  0  0  0
  -12.3783   18.3695   28.1324 H   0  0  0  0  0  0
   -8.9136   18.6917   28.6794 H   0  0  0  0  0  0
   -8.5237   16.9396   28.6101 H   0  0  0  0  0  0
   -8.3359   18.9567   26.4999 H   0  0  0  0  0  0
   -6.5247   18.8479   28.4826 H   0  0  0  0  0  0
   -6.4410   17.0661   28.2709 H   0  0  0  0  0  0
   -6.0710   20.1303   26.1033 H   0  0  0  0  0  0
   -4.5897   16.2646   27.3861 H   0  0  0  0  0  0
   -4.1302   20.3470   24.5508 H   0  0  0  0  0  0
   -2.6569   16.4834   25.8177 H   0  0  0  0  0  0
   -2.4020   18.5674   24.4392 H   0  0  0  0  0  0
   -8.7578   18.3019   24.4366 H   0  0  0  0  0  0
   -7.4886   15.5537   23.9882 H   0  0  0  0  0  0
   -9.2578   16.5393   22.0343 H   0  0  0  0  0  0
   -7.8413   14.4121   21.7263 H   0  0  0  0  0  0
   -9.6003   14.1031   21.5338 H   0  0  0  0  0  0
   -8.7713   13.6531   23.0626 H   0  0  0  0  0  0
  -10.6733   16.7463   23.9489 H   0  0  0  0  0  0
  -10.4118   15.0157   24.3531 H   0  0  0  0  0  0
  -11.2407   15.4656   22.8244 H   0  0  0  0  0  0
   -6.1171   15.7192   22.7185 H   0  0  0  0  0  0
   -4.5548   15.8171   21.2924 H   0  0  0  0  0  0
   -6.3513   16.8214   19.5285 H   0  0  0  0  0  0
   -6.3692   19.0334   20.4612 H   0  0  0  0  0  0
   -5.9366   18.9940   18.7182 H   0  0  0  0  0  0
   -4.6608   19.2604   19.9544 H   0  0  0  0  0  0
   -4.2397   15.5685   19.0103 H   0  0  0  0  0  0
   -3.3444   17.1251   19.0561 H   0  0  0  0  0  0
   -4.6202   16.8587   17.8198 H   0  0  0  0  0  0
   -2.6957   19.8583   19.4090 H   0  0  0  0  0  0
   -4.0721   20.2598   20.4912 H   0  0  0  0  0  0
   -4.2279   18.9276   19.2964 H   0  0  0  0  0  0
  1  2  1  0  0  0
  1 49  1  0  0  0
  1 50  1  0  0  0
  1 51  1  0  0  0
  2  5  1  0  0  0
  2  3  1  0  0  0
  2 52  1  0  0  0
  3  4  2  0  0  0
  3  6  1  0  0  0
  5 53  1  0  0  0
  5 54  1  0  0  0
  5 55  1  0  0  0
  6  7  1  0  0  0
  6 56  1  0  0  0
  7 10  1  0  0  0
  7  8  1  0  0  0
  7 57  1  0  0  0
  8  9  2  0  0  0
  8 11  1  0  0  0
 10 58  1  0  0  0
 10 59  1  0  0  0
 10 60  1  0  0  0
 11 12  1  0  0  0
 11 61  1  0  0  0
 12 13  1  0  0  0
 12 20  1  0  0  0
 12 62  1  0  0  0
 13 14  1  0  0  0
 13 63  1  0  0  0
 13 64  1  0  0  0
 14 15  2  0  0  0
 14 16  1  0  0  0
 15 17  1  0  0  0
 15 65  1  0  0  0
 16 18  2  0  0  0
 16 66  1  0  0  0
 17 19  2  0  0  0
 17 67  1  0  0  0
 18 19  1  0  0  0
 18 68  1  0  0  0
 19 69  1  0  0  0
 20 21  1  0  0  0
 20 22  1  0  0  0
 20 70  1  0  0  0
 21 71  1  0  0  0
 22 23  1  0  0  0
 22 72  1  0  0  0
 22 73  1  0  0  0
 23 26  1  0  0  0
 23 24  1  0  0  0
 23 74  1  0  0  0
 24 25  2  0  0  0
 24 33  1  0  0  0
 26 27  1  0  0  0
 26 75  1  0  0  0
 26 76  1  0  0  0
 27 28  2  0  0  0
 27 29  1  0  0  0
 28 30  1  0  0  0
 28 77  1  0  0  0
 29 31  2  0  0  0
 29 78  1  0  0  0
 30 32  2  0  0  0
 30 79  1  0  0  0
 31 32  1  0  0  0
 31 80  1  0  0  0
 32 81  1  0  0  0
 33 34  1  0  0  0
 33 82  1  0  0  0
 34 37  1  0  0  0
 34 35  1  0  0  0
 34 83  1  0  0  0
 35 36  2  0  0  0
 35 40  1  0  0  0
 37 39  1  0  0  0
 37 38  1  0  0  0
 37 84  1  0  0  0
 38 85  1  0  0  0
 38 86  1  0  0  0
 38 87  1  0  0  0
 39 88  1  0  0  0
 39 89  1  0  0  0
 39 90  1  0  0  0
 40 41  1  0  0  0
 40 91  1  0  0  0
 41 44  1  0  0  0
 41 42  1  0  0  0
 41 92  1  0  0  0
 42 43  2  0  0  0
 42 48  1  0  0  0
 44 46  1  0  0  0
 44 45  1  0  0  0
 44 93  1  0  0  0
 45 94  1  0  0  0
 45 95  1  0  0  0
 45 96  1  0  0  0
 46 97  1  0  0  0
 46 98  1  0  0  0
 46 99  1  0  0  0
 47 48  1  0  0  0
 47100  1  0  0  0
 47101  1  0  0  0
 47102  1  0  0  0
M  CHG  1   1   1
M  END
> <s_m_source_file>
../1hef_ligand.sdf

> <i_m_source_file_index>
1

> <s_epik_input>
W05IMytdW0NAQEhdKFtDSDNdKUMoPU8pW05IXVtDQEBIXShbQ0gzXSlDKD1PKVtOSF1bQ0BASF0oW0NIMl1jMVtjSF1bY0hdW2NIXVtjSF1bY0hdMSlbQ0BASF0oW09IXSlbQ0gyXVtDQEBIXShbQ0gyXWMyW2NIXVtjSF1bY0hdW2NIXVtjSF0yKUMoPU8pW05IXVtDQEBIXShbQ0hdKFtDSDNdKVtDSDNdKUMoPU8pW05IXVtDQEBIXShbQ0hdKFtDSDNdKVtDSDNdKUMoPU8pT1tDSDNd

> <s_epik_cmdline>
J2VwaWtfYXBwJywgJy1pbWFlJywgJ2xpZ2FuZF9wcm8ubWFlJywgJy1vbWFlJywgJ2xpZ2FuZF9wcmVwLm1hZScsICctbXMnLCAnMScsICctcGgnLCAnNycsICctcGh0JywgJzAuNScsICctbnQn

> <r_epik_Ionization_Penalty>
  0.1223

> <r_epik_Ionization_Penalty_Charging>
  0.1223

> <r_epik_Ionization_Penalty_Neutral>
  0.0000

> <r_epik_State_Penalty>
  0.1119

> <r_epik_Charging_Adjusted_Penalty>
0.234190287511832

> <i_epik_Tot_Q>
1

> <i_epik_Tot_abs_Q>
1

> <s_epik_Chemistry_Notes>
This compound has an ester and may undergo hydrolysis at high or low pH.

$$$$
