1heg_ligand
                    3D
 Schrodinger Suite 2020-3.
 89 89  0  0  1  0            999 V2000
  -13.8230   14.4740   35.2070 N   0  3  0  0  0  0
  -12.5640   14.2090   34.5660 C   0  0  2  0  0  0
  -12.3220   15.0960   33.3430 C   0  0  0  0  0  0
  -13.0380   15.2390   32.3750 O   0  0  0  0  0  0
  -12.2500   12.7420   34.3720 C   0  0  0  0  0  0
  -11.1640   15.7690   33.4360 N   0  0  0  0  0  0
  -10.5980   16.6900   32.5180 C   0  0  2  0  0  0
  -10.5140   16.1130   31.1200 C   0  0  0  0  0  0
   -9.8530   15.1410   30.7800 O   0  0  0  0  0  0
   -9.2620   17.1870   33.1080 C   0  0  0  0  0  0
  -11.2340   16.8020   30.1970 N   0  0  0  0  0  0
  -11.2840   16.4970   28.7790 C   0  0  1  0  0  0
  -12.6700   16.0790   28.3220 C   0  0  0  0  0  0
  -13.4320   14.9710   29.0480 C   0  0  0  0  0  0
  -13.0760   13.6290   28.9830 C   0  0  0  0  0  0
  -14.5600   15.3730   29.8070 C   0  0  0  0  0  0
  -13.8180   12.6380   29.6610 C   0  0  0  0  0  0
  -15.3000   14.3800   30.4830 C   0  0  0  0  0  0
  -14.9170   13.0430   30.4120 C   0  0  0  0  0  0
  -10.8180   17.7530   28.0100 C   0  0  1  0  0  0
  -11.6970   18.8220   28.2490 O   0  0  0  0  0  0
   -9.4050   18.1960   28.5460 C   0  0  0  0  0  0
   -8.6050   18.8260   27.3980 C   0  0  0  0  0  0
   -8.1830   17.8170   26.3600 C   0  0  0  0  0  0
   -7.4700   16.8490   26.6960 O   0  0  0  0  0  0
   -8.5850   17.9710   25.1030 N   0  0  0  0  0  0
   -8.2530   17.0230   24.0680 C   0  0  2  0  0  0
   -7.3120   17.7050   23.0540 C   0  0  0  0  0  0
   -7.5440   18.7990   22.5960 O   0  0  0  0  0  0
   -9.4570   16.3770   23.3870 C   0  0  0  0  0  0
   -9.2640   14.9020   23.0550 C   0  0  0  0  0  0
  -10.7390   16.5330   24.2240 C   0  0  0  0  0  0
   -6.2770   16.9100   22.7550 N   0  0  0  0  0  0
   -5.1960   17.1430   21.8630 C   0  0  2  0  0  0
   -4.2530   18.1990   22.4730 C   0  0  0  0  0  0
   -4.4340   18.6540   23.6000 O   0  0  0  0  0  0
   -5.5890   17.4860   20.4370 C   0  0  0  0  0  0
   -7.0590   17.8530   20.2000 C   0  0  0  0  0  0
   -4.6720   18.5350   19.8020 C   0  0  0  0  0  0
   -3.5630   18.4470   20.2780 C   0  0  0  0  0  0
   -3.1720   18.6000   21.6520 O   0  0  0  0  0  0
  -13.9396   13.8087   36.0752 H   0  0  0  0  0  0
  -14.6419   14.2945   34.4949 H   0  0  0  0  0  0
  -13.8509   15.5216   35.5414 H   0  0  0  0  0  0
  -11.8568   14.5259   35.3467 H   0  0  0  0  0  0
  -12.4569   12.1963   35.3044 H   0  0  0  0  0  0
  -11.1887   12.6261   34.1071 H   0  0  0  0  0  0
  -12.8761   12.3368   33.5634 H   0  0  0  0  0  0
  -10.6354   15.5283   34.3701 H   0  0  0  0  0  0
  -11.3095   17.5239   32.4264 H   0  0  0  0  0  0
   -9.4330   17.5841   34.1195 H   0  0  0  0  0  0
   -8.8509   17.9809   32.4671 H   0  0  0  0  0  0
   -8.5495   16.3504   33.1581 H   0  0  0  0  0  0
  -11.8094   17.6494   30.5979 H   0  0  0  0  0  0
  -10.6236   15.6294   28.6333 H   0  0  0  0  0  0
  -13.3508   16.9410   28.3804 H   0  0  0  0  0  0
  -12.6209   15.7202   27.2833 H   0  0  0  0  0  0
  -12.2056   13.3357   28.3961 H   0  0  0  0  0  0
  -14.8482   16.4225   29.8668 H   0  0  0  0  0  0
  -13.5383   11.5864   29.5981 H   0  0  0  0  0  0
  -16.1777   14.6613   31.0649 H   0  0  0  0  0  0
  -15.4923   12.2955   30.9582 H   0  0  0  0  0  0
  -10.8657   17.5732   26.9258 H   0  0  0  0  0  0
  -12.7539   18.7413   27.9548 H   0  0  0  0  0  0
   -9.5334   18.9315   29.3538 H   0  0  0  0  0  0
   -8.8674   17.3175   28.9321 H   0  0  0  0  0  0
   -9.2206   19.5874   26.8967 H   0  0  0  0  0  0
   -7.6954   19.2963   27.7998 H   0  0  0  0  0  0
   -9.1904   18.8575   24.8632 H   0  0  0  0  0  0
   -7.7594   16.2066   24.6156 H   0  0  0  0  0  0
   -9.5494   16.9180   22.4337 H   0  0  0  0  0  0
   -8.3497   14.7775   22.4562 H   0  0  0  0  0  0
  -10.1299   14.5388   22.4820 H   0  0  0  0  0  0
   -9.1731   14.3252   23.9872 H   0  0  0  0  0  0
  -10.8893   17.5945   24.4702 H   0  0  0  0  0  0
  -10.6436   15.9512   25.1526 H   0  0  0  0  0  0
  -11.6004   16.1648   23.6474 H   0  0  0  0  0  0
   -6.3358   15.9636   23.3126 H   0  0  0  0  0  0
   -4.7409   16.1437   21.7979 H   0  0  0  0  0  0
   -5.4445   16.5171   19.9367 H   0  0  0  0  0  0
   -7.7058   17.0919   20.6609 H   0  0  0  0  0  0
   -7.2564   17.8960   19.1187 H   0  0  0  0  0  0
   -7.2691   18.8343   20.6504 H   0  0  0  0  0  0
   -3.6219   18.2596   19.9794 H   0  0  0  0  0  0
   -4.8740   19.5186   20.2511 H   0  0  0  0  0  0
   -4.8613   18.5803   18.7194 H   0  0  0  0  0  0
   -2.7335   18.7546   19.6243 H   0  0  0  0  0  0
   -4.4425   19.0757   20.0749 H   0  0  0  0  0  0
   -3.8124   17.3936   20.0829 H   0  0  0  0  0  0
  1  2  1  0  0  0
  1 42  1  0  0  0
  1 43  1  0  0  0
  1 44  1  0  0  0
  2  5  1  0  0  0
  2  3  1  0  0  0
  2 45  1  0  0  0
  3  4  2  0  0  0
  3  6  1  0  0  0
  5 46  1  0  0  0
  5 47  1  0  0  0
  5 48  1  0  0  0
  6  7  1  0  0  0
  6 49  1  0  0  0
  7 10  1  0  0  0
  7  8  1  0  0  0
  7 50  1  0  0  0
  8  9  2  0  0  0
  8 11  1  0  0  0
 10 51  1  0  0  0
 10 52  1  0  0  0
 10 53  1  0  0  0
 11 12  1  0  0  0
 11 54  1  0  0  0
 12 13  1  0  0  0
 12 20  1  0  0  0
 12 55  1  0  0  0
 13 14  1  0  0  0
 13 56  1  0  0  0
 13 57  1  0  0  0
 14 15  2  0  0  0
 14 16  1  0  0  0
 15 17  1  0  0  0
 15 58  1  0  0  0
 16 18  2  0  0  0
 16 59  1  0  0  0
 17 19  2  0  0  0
 17 60  1  0  0  0
 18 19  1  0  0  0
 18 61  1  0  0  0
 19 62  1  0  0  0
 20 21  1  0  0  0
 20 22  1  0  0  0
 20 63  1  0  0  0
 21 64  1  0  0  0
 22 23  1  0  0  0
 22 65  1  0  0  0
 22 66  1  0  0  0
 23 24  1  0  0  0
 23 67  1  0  0  0
 23 68  1  0  0  0
 24 25  2  0  0  0
 24 26  1  0  0  0
 26 27  1  0  0  0
 26 69  1  0  0  0
 27 30  1  0  0  0
 27 28  1  0  0  0
 27 70  1  0  0  0
 28 29  2  0  0  0
 28 33  1  0  0  0
 30 32  1  0  0  0
 30 31  1  0  0  0
 30 71  1  0  0  0
 31 72  1  0  0  0
 31 73  1  0  0  0
 31 74  1  0  0  0
 32 75  1  0  0  0
 32 76  1  0  0  0
 32 77  1  0  0  0
 33 34  1  0  0  0
 33 78  1  0  0  0
 34 37  1  0  0  0
 34 35  1  0  0  0
 34 79  1  0  0  0
 35 36  2  0  0  0
 35 41  1  0  0  0
 37 39  1  0  0  0
 37 38  1  0  0  0
 37 80  1  0  0  0
 38 81  1  0  0  0
 38 82  1  0  0  0
 38 83  1  0  0  0
 39 84  1  0  0  0
 39 85  1  0  0  0
 39 86  1  0  0  0
 40 41  1  0  0  0
 40 87  1  0  0  0
 40 88  1  0  0  0
 40 89  1  0  0  0
M  CHG  1   1   1
M  END
> <s_m_source_file>
../1heg_ligand.sdf

> <i_m_source_file_index>
1

> <s_epik_input>
W05IMytdW0NAQEhdKFtDSDNdKUMoPU8pW05IXVtDQEBIXShbQ0gzXSlDKD1PKVtOSF1bQ0BASF0oW0NIMl1jMVtjSF1bY0hdW2NIXVtjSF1bY0hdMSlbQ0BASF0oW09IXSlbQ0gyXVtDSDJdQyg9TylbTkhdW0NAQEhdKFtDSF0oW0NIM10pW0NIM10pQyg9TylbTkhdW0NAQEhdKFtDSF0oW0NIM10pW0NIM10pQyg9TylPW0NIM10=

> <s_epik_cmdline>
J2VwaWtfYXBwJywgJy1pbWFlJywgJ2xpZ2FuZF9wcm8ubWFlJywgJy1vbWFlJywgJ2xpZ2FuZF9wcmVwLm1hZScsICctbXMnLCAnMScsICctcGgnLCAnNycsICctcGh0JywgJzAuNScsICctbnQn

> <r_epik_Ionization_Penalty>
  0.1223

> <r_epik_Ionization_Penalty_Charging>
  0.1223

> <r_epik_Ionization_Penalty_Neutral>
  0.0000

> <r_epik_State_Penalty>
  0.1119

> <r_epik_Charging_Adjusted_Penalty>
0.234190287511832

> <i_epik_Tot_Q>
1

> <i_epik_Tot_abs_Q>
1

> <s_epik_Chemistry_Notes>
This compound has an ester and may undergo hydrolysis at high or low pH.

$$$$
