1hge_ligand
                    3D
 Schrodinger Suite 2020-3.
 42 42  0  0  1  0            999 V2000
   -7.4970   71.9520   28.2680 C   0  0  0  0  0  0
   -8.1760   73.2210   27.7170 C   0  0  2  0  0  0
   -8.1230   74.3800   28.7340 C   0  0  0  0  0  0
   -6.7000   74.9400   28.8760 C   0  0  1  0  0  0
   -6.1830   75.4010   27.5000 C   0  0  2  0  0  0
   -6.2720   74.1980   26.5390 C   0  0  2  0  0  0
   -5.9650   74.4730   25.0950 C   0  0  1  0  0  0
   -6.0990   73.2090   24.2180 C   0  0  1  0  0  0
   -5.6300   73.4890   22.7960 C   0  0  0  0  0  0
   -4.2570   76.7850   26.9460 C   0  0  0  0  0  0
   -2.8270   77.2330   27.2400 C   0  0  0  0  0  0
   -9.7480   71.8280   26.4860 C   0  0  0  0  0  0
   -4.8190   75.8610   27.7130 N   0  0  0  0  0  0
   -7.8210   71.5230   29.3760 O   0  5  0  0  0  0
   -6.6600   71.3620   27.5950 O   0  0  0  0  0  0
   -9.5390   72.8880   27.4540 O   0  0  0  0  0  0
   -6.6260   76.0340   29.8050 O   0  0  0  0  0  0
   -7.5800   73.6700   26.5030 O   0  0  0  0  0  0
   -6.9210   75.4230   24.6800 O   0  0  0  0  0  0
   -5.3260   72.1510   24.7320 O   0  0  0  0  0  0
   -5.4080   72.2420   22.1810 O   0  0  0  0  0  0
   -4.8700   77.2420   25.9810 O   0  0  0  0  0  0
   -8.7848   75.1923   28.3990 H   0  0  0  0  0  0
   -8.4549   74.0192   29.7187 H   0  0  0  0  0  0
   -6.0575   74.1717   29.3308 H   0  0  0  0  0  0
   -6.7191   76.2526   27.0558 H   0  0  0  0  0  0
   -5.5633   73.4597   26.9423 H   0  0  0  0  0  0
   -4.9565   74.8982   24.9853 H   0  0  0  0  0  0
   -7.1360   72.8427   24.2414 H   0  0  0  0  0  0
   -6.4058   74.0541   22.2586 H   0  0  0  0  0  0
   -4.7015   74.0780   22.8254 H   0  0  0  0  0  0
   -2.4572   76.7140   28.1366 H   0  0  0  0  0  0
   -2.8112   78.3193   27.4124 H   0  0  0  0  0  0
   -2.1826   76.9884   26.3828 H   0  0  0  0  0  0
  -10.8268   71.6539   26.3601 H   0  0  0  0  0  0
   -9.2669   70.9054   26.8429 H   0  0  0  0  0  0
   -9.3088   72.1209   25.5210 H   0  0  0  0  0  0
   -4.2182   75.4399   28.5326 H   0  0  0  0  0  0
   -6.9539   75.8949   30.8457 H   0  0  0  0  0  0
   -6.9842   76.3973   25.1868 H   0  0  0  0  0  0
   -5.5030   71.7869   25.7548 H   0  0  0  0  0  0
   -5.0606   72.1971   21.1383 H   0  0  0  0  0  0
  1  2  1  0  0  0
  1 14  1  0  0  0
  1 15  2  0  0  0
  2  3  1  0  0  0
  2 16  1  0  0  0
  2 18  1  0  0  0
  3  4  1  0  0  0
  3 23  1  0  0  0
  3 24  1  0  0  0
  4  5  1  0  0  0
  4 17  1  0  0  0
  4 25  1  0  0  0
  5  6  1  0  0  0
  5 13  1  0  0  0
  5 26  1  0  0  0
  6  7  1  0  0  0
  6 18  1  0  0  0
  6 27  1  0  0  0
  7  8  1  0  0  0
  7 19  1  0  0  0
  7 28  1  0  0  0
  8  9  1  0  0  0
  8 20  1  0  0  0
  8 29  1  0  0  0
  9 21  1  0  0  0
  9 30  1  0  0  0
  9 31  1  0  0  0
 10 11  1  0  0  0
 10 13  1  0  0  0
 10 22  2  0  0  0
 11 32  1  0  0  0
 11 33  1  0  0  0
 11 34  1  0  0  0
 12 16  1  0  0  0
 12 35  1  0  0  0
 12 36  1  0  0  0
 12 37  1  0  0  0
 13 38  1  0  0  0
 17 39  1  0  0  0
 19 40  1  0  0  0
 20 41  1  0  0  0
 21 42  1  0  0  0
M  CHG  1  14  -1
M  END
> <s_m_source_file>
../1hge_ligand.sdf

> <i_m_source_file_index>
1

> <s_epik_input>
W0NIM11PW0NAXTEoQyg9TylbT0hdKVtDSDJdW0NASF0oW09IXSlbQ0BASF0oW05IXUMoPU8pW0NIM10pW0NAQEhdKE8xKVtDQEhdKFtPSF0pW0NASF0oW09IXSlbQ0gyXVtPSF0=

> <s_epik_cmdline>
J2VwaWtfYXBwJywgJy1pbWFlJywgJ2xpZ2FuZF9wcm8ubWFlJywgJy1vbWFlJywgJ2xpZ2FuZF9wcmVwLm1hZScsICctbXMnLCAnMScsICctcGgnLCAnNycsICctcGh0JywgJzAuNScsICctbnQn

> <r_lp_tautomer_probability>
1

> <r_epik_Ionization_Penalty>
  0.0000

> <r_epik_Ionization_Penalty_Charging>
  0.0000

> <r_epik_Ionization_Penalty_Neutral>
  0.0000

> <r_epik_State_Penalty>
 -0.0000

> <r_epik_Charging_Adjusted_Penalty>
1.80962144140925e-05

> <i_epik_Tot_Q>
-1

> <i_epik_Tot_abs_Q>
1

$$$$
