1hgi_ligand
                    3D
 Schrodinger Suite 2020-3.
 47 47  0  0  1  0            999 V2000
   -7.5140   71.6350   28.1390 C   0  0  0  0  0  0
   -8.2370   72.9020   27.6560 C   0  0  2  0  0  0
   -8.1790   74.0100   28.7110 C   0  0  0  0  0  0
   -6.7690   74.5550   28.8370 C   0  0  1  0  0  0
   -6.3190   75.0860   27.4810 C   0  0  2  0  0  0
   -6.3410   73.9550   26.4600 C   0  0  2  0  0  0
   -5.9570   74.3300   25.0330 C   0  0  1  0  0  0
   -6.1310   73.1110   24.1080 C   0  0  1  0  0  0
   -5.5280   73.4090   22.7380 C   0  0  0  0  0  0
   -4.4950   76.6390   27.0280 C   0  0  0  0  0  0
   -3.0490   77.0410   27.2650 C   0  0  0  0  0  0
   -9.8620   71.5390   26.4670 C   0  0  0  0  0  0
   -6.8080   75.2060   31.1970 C   0  0  0  0  0  0
   -8.0340   75.6950   31.9280 C   0  0  0  0  0  0
   -4.9680   75.5860   27.6600 N   0  0  0  0  0  0
   -7.8140   71.1280   29.2190 O   0  5  0  0  0  0
   -6.6280   71.1390   27.4570 O   0  0  0  0  0  0
   -9.6080   72.5550   27.4610 O   0  0  0  0  0  0
   -6.5930   75.5930   29.8380 O   0  0  0  0  0  0
   -7.6600   73.4020   26.4290 O   0  0  0  0  0  0
   -6.7660   75.3990   24.5890 O   0  0  0  0  0  0
   -5.5090   71.9820   24.6680 O   0  0  0  0  0  0
   -5.4070   72.2350   21.9630 O   0  0  0  0  0  0
   -5.2200   77.2380   26.2370 O   0  0  0  0  0  0
   -6.0560   74.4070   31.7540 O   0  0  0  0  0  0
   -8.8527   74.8293   28.4197 H   0  0  0  0  0  0
   -8.4929   73.6059   29.6848 H   0  0  0  0  0  0
   -6.1425   73.7367   29.2214 H   0  0  0  0  0  0
   -6.9448   75.9133   27.1151 H   0  0  0  0  0  0
   -5.6186   73.2010   26.8058 H   0  0  0  0  0  0
   -4.9309   74.7241   24.9895 H   0  0  0  0  0  0
   -7.1877   72.8179   24.0211 H   0  0  0  0  0  0
   -6.1739   74.1181   22.1995 H   0  0  0  0  0  0
   -4.5276   73.8482   22.8654 H   0  0  0  0  0  0
   -2.5986   76.3678   28.0092 H   0  0  0  0  0  0
   -3.0123   78.0756   27.6367 H   0  0  0  0  0  0
   -2.4894   76.9706   26.3206 H   0  0  0  0  0  0
  -10.9441   71.3528   26.4013 H   0  0  0  0  0  0
   -9.3467   70.6100   26.7523 H   0  0  0  0  0  0
   -9.4887   71.8803   25.4902 H   0  0  0  0  0  0
   -8.5871   76.3974   31.2872 H   0  0  0  0  0  0
   -7.7297   76.2050   32.8539 H   0  0  0  0  0  0
   -8.6789   74.8390   32.1758 H   0  0  0  0  0  0
   -4.2812   75.0787   28.3535 H   0  0  0  0  0  0
   -6.7654   76.3533   25.1361 H   0  0  0  0  0  0
   -5.8180   71.6188   25.6593 H   0  0  0  0  0  0
   -4.9877   72.2872   20.9474 H   0  0  0  0  0  0
  1  2  1  0  0  0
  1 16  1  0  0  0
  1 17  2  0  0  0
  2  3  1  0  0  0
  2 18  1  0  0  0
  2 20  1  0  0  0
  3  4  1  0  0  0
  3 26  1  0  0  0
  3 27  1  0  0  0
  4  5  1  0  0  0
  4 19  1  0  0  0
  4 28  1  0  0  0
  5  6  1  0  0  0
  5 15  1  0  0  0
  5 29  1  0  0  0
  6  7  1  0  0  0
  6 20  1  0  0  0
  6 30  1  0  0  0
  7  8  1  0  0  0
  7 21  1  0  0  0
  7 31  1  0  0  0
  8  9  1  0  0  0
  8 22  1  0  0  0
  8 32  1  0  0  0
  9 23  1  0  0  0
  9 33  1  0  0  0
  9 34  1  0  0  0
 10 11  1  0  0  0
 10 15  1  0  0  0
 10 24  2  0  0  0
 11 35  1  0  0  0
 11 36  1  0  0  0
 11 37  1  0  0  0
 12 18  1  0  0  0
 12 38  1  0  0  0
 12 39  1  0  0  0
 12 40  1  0  0  0
 13 14  1  0  0  0
 13 19  1  0  0  0
 13 25  2  0  0  0
 14 41  1  0  0  0
 14 42  1  0  0  0
 14 43  1  0  0  0
 15 44  1  0  0  0
 21 45  1  0  0  0
 22 46  1  0  0  0
 23 47  1  0  0  0
M  CHG  1  16  -1
M  END
> <s_m_source_file>
../1hgi_ligand.sdf

> <i_m_source_file_index>
1

> <s_epik_input>
W0NIM11PW0NAXTEoQyg9TylbT0hdKVtDSDJdW0NASF0oT0MoPU8pW0NIM10pW0NAQEhdKFtOSF1DKD1PKVtDSDNdKVtDQEBIXShPMSlbQ0BIXShbT0hdKVtDQEhdKFtPSF0pW0NIMl1bT0hd

> <s_epik_cmdline>
J2VwaWtfYXBwJywgJy1pbWFlJywgJ2xpZ2FuZF9wcm8ubWFlJywgJy1vbWFlJywgJ2xpZ2FuZF9wcmVwLm1hZScsICctbXMnLCAnMScsICctcGgnLCAnNycsICctcGh0JywgJzAuNScsICctbnQn

> <r_lp_tautomer_probability>
1

> <r_epik_Ionization_Penalty>
  0.0000

> <r_epik_Ionization_Penalty_Charging>
  0.0000

> <r_epik_Ionization_Penalty_Neutral>
  0.0000

> <r_epik_State_Penalty>
 -0.0000

> <r_epik_Charging_Adjusted_Penalty>
1.42529598563054e-05

> <i_epik_Tot_Q>
-1

> <i_epik_Tot_abs_Q>
1

> <s_epik_Chemistry_Notes>
This compound has an ester and may undergo hydrolysis at high or low pH.

$$$$
