1hgj_ligand
                    3D
 Schrodinger Suite 2020-3.
 44 44  0  0  1  0            999 V2000
   -7.6260   72.3680   28.8040 C   0  0  0  0  0  0
   -8.2630   73.6760   28.2840 C   0  0  2  0  0  0
   -8.0700   74.8110   29.3200 C   0  0  0  0  0  0
   -6.6270   75.2970   29.3750 C   0  0  1  0  0  0
   -6.1930   75.7220   27.9490 C   0  0  2  0  0  0
   -6.3400   74.5170   27.0180 C   0  0  2  0  0  0
   -5.9790   74.6750   25.5450 C   0  0  1  0  0  0
   -6.4190   73.4360   24.7480 C   0  0  1  0  0  0
   -6.0190   73.5480   23.2830 C   0  0  0  0  0  0
   -4.3420   77.2200   27.4080 C   0  0  0  0  0  0
   -2.9150   77.6600   27.7030 C   0  0  0  0  0  0
   -9.9920   72.4180   27.1150 C   0  0  0  0  0  0
   -4.8150   76.1660   28.0560 N   0  0  0  0  0  0
   -6.2100   72.1690   22.7750 N   0  3  0  0  0  0
   -7.8530   72.0310   29.9600 O   0  0  0  0  0  0
   -6.8960   71.6750   28.0820 O   0  5  0  0  0  0
   -9.6630   73.4300   28.0860 O   0  0  0  0  0  0
   -6.4270   76.3690   30.3050 O   0  0  0  0  0  0
   -7.6870   74.0810   27.0330 O   0  0  0  0  0  0
   -6.6310   75.8090   25.0200 O   0  0  0  0  0  0
   -5.8880   72.2380   25.2440 O   0  0  0  0  0  0
   -5.0290   77.7790   26.5580 O   0  0  0  0  0  0
   -8.7092   75.6650   29.0516 H   0  0  0  0  0  0
   -8.3469   74.4457   30.3199 H   0  0  0  0  0  0
   -5.9946   74.5067   29.8057 H   0  0  0  0  0  0
   -6.7584   76.5634   27.5219 H   0  0  0  0  0  0
   -5.6598   73.7655   27.4452 H   0  0  0  0  0  0
   -4.9022   74.8699   25.4331 H   0  0  0  0  0  0
   -7.5038   73.3149   24.8841 H   0  0  0  0  0  0
   -6.6712   74.2768   22.7795 H   0  0  0  0  0  0
   -4.9733   73.8820   23.2129 H   0  0  0  0  0  0
   -2.4915   77.0242   28.4945 H   0  0  0  0  0  0
   -2.9160   78.7084   28.0361 H   0  0  0  0  0  0
   -2.3063   77.5654   26.7916 H   0  0  0  0  0  0
  -11.0852   72.3160   27.0477 H   0  0  0  0  0  0
   -9.5524   71.4578   27.4229 H   0  0  0  0  0  0
   -9.5896   72.7075   26.1330 H   0  0  0  0  0  0
   -4.1093   75.6193   28.6987 H   0  0  0  0  0  0
   -5.9463   72.1316   21.7077 H   0  0  0  0  0  0
   -7.2617   71.8734   22.9034 H   0  0  0  0  0  0
   -5.5638   71.4785   23.3368 H   0  0  0  0  0  0
   -6.6854   76.2325   31.3655 H   0  0  0  0  0  0
   -6.4470   76.8011   25.4580 H   0  0  0  0  0  0
   -6.0574   71.9540   26.2931 H   0  0  0  0  0  0
  1  2  1  0  0  0
  1 15  2  0  0  0
  1 16  1  0  0  0
  2  3  1  0  0  0
  2 17  1  0  0  0
  2 19  1  0  0  0
  3  4  1  0  0  0
  3 23  1  0  0  0
  3 24  1  0  0  0
  4  5  1  0  0  0
  4 18  1  0  0  0
  4 25  1  0  0  0
  5  6  1  0  0  0
  5 13  1  0  0  0
  5 26  1  0  0  0
  6  7  1  0  0  0
  6 19  1  0  0  0
  6 27  1  0  0  0
  7  8  1  0  0  0
  7 20  1  0  0  0
  7 28  1  0  0  0
  8  9  1  0  0  0
  8 21  1  0  0  0
  8 29  1  0  0  0
  9 14  1  0  0  0
  9 30  1  0  0  0
  9 31  1  0  0  0
 10 11  1  0  0  0
 10 13  1  0  0  0
 10 22  2  0  0  0
 11 32  1  0  0  0
 11 33  1  0  0  0
 11 34  1  0  0  0
 12 17  1  0  0  0
 12 35  1  0  0  0
 12 36  1  0  0  0
 12 37  1  0  0  0
 13 38  1  0  0  0
 14 39  1  0  0  0
 14 40  1  0  0  0
 14 41  1  0  0  0
 18 42  1  0  0  0
 20 43  1  0  0  0
 21 44  1  0  0  0
M  CHG  2  14   1  16  -1
M  END
> <s_m_source_file>
../1hgj_ligand.sdf

> <i_m_source_file_index>
1

> <s_epik_input>
W0NIM11PW0NAXTEoQyg9TylbT0hdKVtDSDJdW0NASF0oW09IXSlbQ0BASF0oW05IXUMoPU8pW0NIM10pW0NAQEhdKE8xKVtDQEhdKFtPSF0pW0NASF0oW09IXSlbQ0gyXVtOSDMrXQ==

> <s_epik_cmdline>
J2VwaWtfYXBwJywgJy1pbWFlJywgJ2xpZ2FuZF9wcm8ubWFlJywgJy1vbWFlJywgJ2xpZ2FuZF9wcmVwLm1hZScsICctbXMnLCAnMScsICctcGgnLCAnNycsICctcGh0JywgJzAuNScsICctbnQn

> <r_epik_Ionization_Penalty>
  0.0114

> <r_epik_Ionization_Penalty_Charging>
  0.0114

> <r_epik_Ionization_Penalty_Neutral>
  0.0000

> <r_epik_State_Penalty>
  0.0088

> <r_epik_Charging_Adjusted_Penalty>
0.0201980707952343

> <i_epik_Tot_Q>
0

> <i_epik_Tot_abs_Q>
2

$$$$
