1hi4_ligand
                    3D
 Schrodinger Suite 2020-3.
 38 40  0  0  1  0            999 V2000
   10.0960   17.7550   12.3850 P   0  0  0  0  0  0
   10.5140   16.3440   12.6620 O   0  5  0  0  0  0
    9.4380   17.9850   11.0560 O   0  5  0  0  0  0
    9.7920   18.6320   13.5340 O   0  0  0  0  0  0
   14.4390   14.6320    9.6390 P   0  0  0  0  0  0
   15.6900   13.9260   10.0510 O   0  5  0  0  0  0
   13.2800   13.7430    9.3380 O   0  5  0  0  0  0
   14.5180   15.9220    8.9550 O   0  0  0  0  0  0
   13.9260   15.1580   11.1170 O   0  0  0  0  0  0
   14.6380   16.0680   11.9950 C   0  0  0  0  0  0
   13.7740   17.3130   12.3940 C   0  0  1  0  0  0
   14.7050   18.4580   12.4880 O   0  0  0  0  0  0
   12.6980   17.7600   11.3500 C   0  0  1  0  0  0
   11.5320   18.3890   12.0040 O   0  0  0  0  0  0
   13.4860   18.7190   10.4930 C   0  0  1  0  0  0
   12.7340   19.5170    9.5820 O   0  0  0  0  0  0
   14.2460   19.5000   11.5870 C   0  0  2  0  0  0
   15.3870   20.3150   11.0430 N   0  0  0  0  0  0
   15.5640   20.8240    9.7590 C   0  0  0  0  0  0
   16.6740   21.5130    9.5740 N   0  0  0  0  0  0
   17.3000   21.4780   10.8110 C   0  0  0  0  0  0
   18.5420   22.0350   11.2950 C   0  0  0  0  0  0
   19.3540   22.7430   10.5240 N   0  0  0  0  0  0
   18.8970   21.8150   12.6350 N   0  0  0  0  0  0
   18.0650   21.0780   13.4610 C   0  0  0  0  0  0
   16.8540   20.4930   13.1120 N   0  0  0  0  0  0
   16.5270   20.7350   11.7620 C   0  0  0  0  0  0
   14.9203   15.5409   12.9183 H   0  0  0  0  0  0
   15.5443   16.4320   11.4889 H   0  0  0  0  0  0
   13.2695   17.0695   13.3406 H   0  0  0  0  0  0
   12.2120   16.9656   10.7645 H   0  0  0  0  0  0
   14.0817   18.2455    9.6987 H   0  0  0  0  0  0
   12.1636   19.0380    8.7726 H   0  0  0  0  0  0
   13.6320   20.2368   12.1257 H   0  0  0  0  0  0
   14.8368   20.6645    8.9628 H   0  0  0  0  0  0
   19.0924   22.9257    9.4713 H   0  0  0  0  0  0
   20.2898   23.1481   10.9365 H   0  0  0  0  0  0
   18.3941   20.9429   14.4913 H   0  0  0  0  0  0
  1  2  1  0  0  0
  1  3  1  0  0  0
  1  4  2  0  0  0
  1 14  1  0  0  0
  5  6  1  0  0  0
  5  7  1  0  0  0
  5  8  2  0  0  0
  5  9  1  0  0  0
  9 10  1  0  0  0
 10 11  1  0  0  0
 10 28  1  0  0  0
 10 29  1  0  0  0
 11 12  1  0  0  0
 11 13  1  0  0  0
 11 30  1  0  0  0
 12 17  1  0  0  0
 13 14  1  0  0  0
 13 15  1  0  0  0
 13 31  1  0  0  0
 15 16  1  0  0  0
 15 17  1  0  0  0
 15 32  1  0  0  0
 16 33  1  0  0  0
 17 18  1  0  0  0
 17 34  1  0  0  0
 18 19  1  0  0  0
 18 27  1  0  0  0
 19 20  2  0  0  0
 19 35  1  0  0  0
 20 21  1  0  0  0
 21 22  2  0  0  0
 21 27  1  0  0  0
 22 23  1  0  0  0
 22 24  1  0  0  0
 23 36  1  0  0  0
 23 37  1  0  0  0
 24 25  2  0  0  0
 25 26  1  0  0  0
 25 38  1  0  0  0
 26 27  2  0  0  0
M  CHG  4   2  -1   3  -1   6  -1   7  -1
M  END
> <s_m_source_file>
../1hi4_ligand.sdf

> <i_m_source_file_index>
1

> <s_epik_input>
W09IXVAoPU8pKFtPSF0pT1tDSDJdW0NASF0xT1tDQEhdKFtDQEhdKFtPSF0pW0NAQEhdMU9QKD1PKShbT0hdKVtPSF0pbihbY0hdbjIpYyhjMjMpbltjSF1uYzNbTkgyXQ==

> <s_epik_cmdline>
J2VwaWtfYXBwJywgJy1pbWFlJywgJ2xpZ2FuZF9wcm8ubWFlJywgJy1vbWFlJywgJ2xpZ2FuZF9wcmVwLm1hZScsICctbXMnLCAnMScsICctcGgnLCAnNycsICctcGh0JywgJzAuNScsICctbnQn

> <r_lp_tautomer_probability>
1

> <r_epik_Ionization_Penalty>
  0.1805

> <r_epik_Ionization_Penalty_Charging>
  0.1800

> <r_epik_Ionization_Penalty_Neutral>
  0.0005

> <r_epik_State_Penalty>
 -0.0000

> <r_epik_Charging_Adjusted_Penalty>
0.180046212178254

> <i_epik_Tot_Q>
-4

> <i_epik_Tot_abs_Q>
4

> <s_epik_Chemistry_Notes>
This compound contains an acetal/aminal-like group ( X-CH(R)-Y where X, Y are N, S, or O) that may be acid/base labile, releasing an aldehyde.

$$$$
