1hih_ligand
                    3D
 Schrodinger Suite 2020-3.
 92 93  0  0  1  0            999 V2000
    6.7720   -7.7770   17.7370 C   0  0  0  0  0  0
    7.1810   -6.3010   17.7280 C   0  0  0  0  0  0
    7.3320   -5.6920   18.7870 O   0  0  0  0  0  0
    7.3370   -5.7360   16.5290 N   0  0  0  0  0  0
    7.7120   -4.3250   16.3100 C   0  0  1  0  0  0
    9.0510   -4.2240   15.5240 C   0  0  0  0  0  0
    9.4450   -2.7780   15.2470 C   0  0  0  0  0  0
   10.1660   -4.9490   16.2940 C   0  0  0  0  0  0
    6.5980   -3.6290   15.5190 C   0  0  0  0  0  0
    6.4990   -3.8030   14.3070 O   0  0  0  0  0  0
    5.8130   -2.8010   16.1990 N   0  0  0  0  0  0
    4.6990   -2.1070   15.5770 C   0  0  1  0  0  0
    3.4080   -2.5770   16.2330 C   0  0  0  0  0  0
    3.2970   -4.0860   16.2750 C   0  0  0  0  0  0
    3.3920   -4.8290   17.5510 C   0  0  0  0  0  0
    3.2150   -6.1850   17.5400 C   0  0  0  0  0  0
    2.9490   -6.8680   16.3470 C   0  0  0  0  0  0
    2.8520   -6.2050   15.1350 C   0  0  0  0  0  0
    3.0200   -4.8340   15.0600 C   0  0  0  0  0  0
    4.8100   -0.5720   15.6880 C   0  0  1  0  0  0
    5.0810   -0.1840   17.0370 O   0  0  0  0  0  0
    5.9520   -0.0500   14.8420 C   0  0  0  0  0  0
    5.6940   -0.2190   13.4260 N   0  0  2  0  0  0
    6.9760    0.2000   12.8490 C   0  0  0  0  0  0
    7.0550    0.7770   11.4470 C   0  0  0  0  0  0
    8.5770    0.7750   11.2470 C   0  0  0  0  0  0
    9.0840    1.7400   10.1890 C   0  0  0  0  0  0
    8.5960    3.1430   10.4910 C   0  0  0  0  0  0
    7.0770    3.1630   10.5400 C   0  0  0  0  0  0
    6.5680    2.2170   11.5930 C   0  0  0  0  0  0
    4.5240    0.5620   13.0690 N   0  0  0  0  0  0
    3.6110    0.1480   12.1910 C   0  0  0  0  0  0
    3.5990   -0.9970   11.7100 O   0  0  0  0  0  0
    2.5780    1.1960   11.7700 C   0  0  1  0  0  0
    2.9860    1.8490   10.5200 N   0  0  0  0  0  0
    1.1670    0.5740   11.6480 C   0  0  0  0  0  0
    0.7830   -0.1610   12.9230 C   0  0  0  0  0  0
    0.1340    1.6920   11.3430 C   0  0  0  0  0  0
    3.2180    3.1540   10.4490 C   0  0  0  0  0  0
    3.0360    3.9100   11.4080 O   0  0  0  0  0  0
    3.7090    3.7320    9.1480 C   0  0  0  0  0  0
    6.6886   -8.1407   16.7022 H   0  0  0  0  0  0
    5.8014   -7.8854   18.2432 H   0  0  0  0  0  0
    7.5323   -8.3649   18.2721 H   0  0  0  0  0  0
    7.1657   -6.3995   15.6685 H   0  0  0  0  0  0
    7.8222   -3.8741   17.3073 H   0  0  0  0  0  0
    8.9204   -4.7004   14.5412 H   0  0  0  0  0  0
    8.6357   -2.2766   14.6961 H   0  0  0  0  0  0
   10.3656   -2.7577   14.6452 H   0  0  0  0  0  0
    9.6181   -2.2562   16.1998 H   0  0  0  0  0  0
    9.8635   -5.9894   16.4842 H   0  0  0  0  0  0
   10.3425   -4.4375   17.2517 H   0  0  0  0  0  0
   11.0900   -4.9390   15.6972 H   0  0  0  0  0  0
    6.0289   -2.6484   17.2668 H   0  0  0  0  0  0
    4.7494   -2.3906   14.5154 H   0  0  0  0  0  0
    3.3657   -2.2048   17.2673 H   0  0  0  0  0  0
    2.5474   -2.1891   15.6683 H   0  0  0  0  0  0
    3.5995   -4.3046   18.4837 H   0  0  0  0  0  0
    3.2820   -6.7426   18.4742 H   0  0  0  0  0  0
    2.8148   -7.9494   16.3729 H   0  0  0  0  0  0
    2.6404   -6.7711   14.2279 H   0  0  0  0  0  0
    2.9455   -4.3208   14.1012 H   0  0  0  0  0  0
    3.8530   -0.1126   15.3999 H   0  0  0  0  0  0
    4.3794   -0.4565   17.8392 H   0  0  0  0  0  0
    6.0956    1.0222   15.0412 H   0  0  0  0  0  0
    6.8734   -0.5961   15.0926 H   0  0  0  0  0  0
    7.4188    0.9894   13.4740 H   0  0  0  0  0  0
    7.6588   -0.6615   12.8081 H   0  0  0  0  0  0
    6.4907    0.2687   10.6513 H   0  0  0  0  0  0
    9.0711    1.0517   12.1900 H   0  0  0  0  0  0
    8.9054   -0.2295   10.9420 H   0  0  0  0  0  0
   10.1840    1.7327   10.1830 H   0  0  0  0  0  0
    8.7100    1.4313    9.2017 H   0  0  0  0  0  0
    8.9947    3.4685   11.4632 H   0  0  0  0  0  0
    8.9427    3.8291    9.7042 H   0  0  0  0  0  0
    6.7312    4.1798   10.7777 H   0  0  0  0  0  0
    6.6745    2.8579    9.5628 H   0  0  0  0  0  0
    5.4697    2.2401   11.5367 H   0  0  0  0  0  0
    6.8938    2.6176   12.5643 H   0  0  0  0  0  0
    4.3583    1.5467   13.5304 H   0  0  0  0  0  0
    2.5543    1.9993   12.5211 H   0  0  0  0  0  0
    3.1084    1.2538    9.6031 H   0  0  0  0  0  0
    1.1714   -0.1709   10.8386 H   0  0  0  0  0  0
    1.5217   -0.9498   13.1282 H   0  0  0  0  0  0
   -0.2120   -0.6135   12.7998 H   0  0  0  0  0  0
    0.7616    0.5488   13.7631 H   0  0  0  0  0  0
    0.4224    2.2157   10.4196 H   0  0  0  0  0  0
    0.1106    2.4074   12.1783 H   0  0  0  0  0  0
   -0.8629    1.2451   11.2150 H   0  0  0  0  0  0
    3.8162    2.9268    8.4063 H   0  0  0  0  0  0
    4.6837    4.2165    9.3067 H   0  0  0  0  0  0
    2.9857    4.4749    8.7807 H   0  0  0  0  0  0
  1  2  1  0  0  0
  1 42  1  0  0  0
  1 43  1  0  0  0
  1 44  1  0  0  0
  2  4  1  0  0  0
  2  3  2  0  0  0
  4  5  1  0  0  0
  4 45  1  0  0  0
  5  9  1  0  0  0
  5  6  1  0  0  0
  5 46  1  0  0  0
  6  8  1  0  0  0
  6  7  1  0  0  0
  6 47  1  0  0  0
  7 48  1  0  0  0
  7 49  1  0  0  0
  7 50  1  0  0  0
  8 51  1  0  0  0
  8 52  1  0  0  0
  8 53  1  0  0  0
  9 11  1  0  0  0
  9 10  2  0  0  0
 11 12  1  0  0  0
 11 54  1  0  0  0
 12 20  1  0  0  0
 12 13  1  0  0  0
 12 55  1  0  0  0
 13 14  1  0  0  0
 13 56  1  0  0  0
 13 57  1  0  0  0
 14 19  2  0  0  0
 14 15  1  0  0  0
 15 16  2  0  0  0
 15 58  1  0  0  0
 16 17  1  0  0  0
 16 59  1  0  0  0
 17 18  2  0  0  0
 17 60  1  0  0  0
 18 19  1  0  0  0
 18 61  1  0  0  0
 19 62  1  0  0  0
 20 22  1  0  0  0
 20 21  1  0  0  0
 20 63  1  0  0  0
 21 64  1  0  0  0
 22 23  1  0  0  0
 22 65  1  0  0  0
 22 66  1  0  0  0
 23 31  1  0  0  0
 23 24  1  0  0  0
 24 25  1  0  0  0
 24 67  1  0  0  0
 24 68  1  0  0  0
 25 30  1  0  0  0
 25 26  1  0  0  0
 25 69  1  0  0  0
 26 27  1  0  0  0
 26 70  1  0  0  0
 26 71  1  0  0  0
 27 28  1  0  0  0
 27 72  1  0  0  0
 27 73  1  0  0  0
 28 29  1  0  0  0
 28 74  1  0  0  0
 28 75  1  0  0  0
 29 30  1  0  0  0
 29 76  1  0  0  0
 29 77  1  0  0  0
 30 78  1  0  0  0
 30 79  1  0  0  0
 31 32  1  0  0  0
 31 80  1  0  0  0
 32 34  1  0  0  0
 32 33  2  0  0  0
 34 36  1  0  0  0
 34 35  1  0  0  0
 34 81  1  0  0  0
 35 39  1  0  0  0
 35 82  1  0  0  0
 36 38  1  0  0  0
 36 37  1  0  0  0
 36 83  1  0  0  0
 37 84  1  0  0  0
 37 85  1  0  0  0
 37 86  1  0  0  0
 38 87  1  0  0  0
 38 88  1  0  0  0
 38 89  1  0  0  0
 39 41  1  0  0  0
 39 40  2  0  0  0
 41 90  1  0  0  0
 41 91  1  0  0  0
 41 92  1  0  0  0
M  END
> <s_m_source_file>
../1hih_ligand.sdf

> <i_m_source_file_index>
1

> <s_epik_input>
W2NIXTFbY0hdW2NIXVtjSF1bY0hdYzFbQ0gyXVtDQEhdKFtOSF1DKD1PKVtDQEhdKFtDSF0oW0NIM10pW0NIM10pW05IXUMoPU8pW0NIM10pW0NAQEhdKFtPSF0pW0NIMl1bTkBASCtdKFtOSF1DKD1PKVtDQEhdKFtDSF0oW0NIM10pW0NIM10pW05IXUMoPU8pW0NIM10pW0NIMl1bQ0hdMltDSDJdW0NIMl1bQ0gyXVtDSDJdW0NIMl0y

> <s_epik_cmdline>
J2VwaWtfYXBwJywgJy1pbWFlJywgJ2xpZ2FuZF9wcm8ubWFlJywgJy1vbWFlJywgJ2xpZ2FuZF9wcmVwLm1hZScsICctbXMnLCAnMScsICctcGgnLCAnNycsICctcGh0JywgJzAuNScsICctbnQn

> <r_lp_tautomer_probability>
1

> <r_epik_Ionization_Penalty>
  0.0001

> <r_epik_Ionization_Penalty_Charging>
  0.0000

> <r_epik_Ionization_Penalty_Neutral>
  0.0001

> <r_epik_State_Penalty>
 -0.0000

> <r_epik_Charging_Adjusted_Penalty>
0

> <i_epik_Tot_Q>
0

> <i_epik_Tot_abs_Q>
0

$$$$
