1hii_ligand
                    3D
 Schrodinger Suite 2020-3.
 92 93  0  0  1  0            999 V2000
   18.5420   37.2270   14.9940 C   0  0  0  0  0  0
   18.3210   35.7700   15.4160 C   0  0  0  0  0  0
   19.2440   35.1110   15.9210 O   0  0  0  0  0  0
   17.0980   35.2760   15.2240 N   0  0  0  0  0  0
   16.7940   33.8680   15.4550 C   0  0  1  0  0  0
   15.7730   33.7170   16.6220 C   0  0  0  0  0  0
   15.4020   32.2400   16.8690 C   0  0  0  0  0  0
   16.3580   34.3410   17.9120 C   0  0  0  0  0  0
   16.3040   33.1480   14.1830 C   0  0  0  0  0  0
   15.1630   33.3560   13.7360 O   0  0  0  0  0  0
   17.1730   32.3130   13.6100 N   0  0  0  0  0  0
   16.8530   31.5330   12.4160 C   0  0  1  0  0  0
   17.7130   31.9960   11.2530 C   0  0  0  0  0  0
   17.6700   33.4940   11.0540 C   0  0  0  0  0  0
   18.4790   34.3980   11.9090 C   0  0  0  0  0  0
   18.3810   35.7740   11.6930 C   0  0  0  0  0  0
   17.5500   36.2990   10.6790 C   0  0  0  0  0  0
   16.7770   35.4720    9.8500 C   0  0  0  0  0  0
   16.8120   34.0850    9.9990 C   0  0  0  0  0  0
   17.0720   30.0150   12.6290 C   0  0  1  0  0  0
   18.3390   29.7460   13.2150 O   0  0  0  0  0  0
   16.1060   29.4240   13.6140 C   0  0  0  0  0  0
   14.8080   29.2300   13.0570 N   0  0  2  0  0  0
   14.1370   28.4210   14.0490 C   0  0  0  0  0  0
   12.6830   28.3790   13.6560 C   0  0  0  0  0  0
   11.7870   28.8730   14.7750 C   0  0  0  0  0  0
   10.3390   28.7930   14.4040 C   0  0  0  0  0  0
    9.9760   27.3850   14.0500 C   0  0  0  0  0  0
   10.8670   26.8390   12.9540 C   0  0  0  0  0  0
   12.2990   26.9450   13.3510 C   0  0  0  0  0  0
   14.9400   28.5650   11.7760 N   0  0  0  0  0  0
   14.2880   28.9960   10.6920 C   0  0  0  0  0  0
   13.7430   30.1070   10.6230 O   0  0  0  0  0  0
   14.2410   28.0360    9.5010 C   0  0  1  0  0  0
   12.9790   27.3040    9.4800 N   0  0  0  0  0  0
   14.4680   28.8090    8.1670 C   0  0  0  0  0  0
   15.7200   29.6820    8.2410 C   0  0  0  0  0  0
   14.6300   27.8130    7.0280 C   0  0  0  0  0  0
   12.9290   25.9810    9.6210 C   0  0  0  0  0  0
   13.9430   25.2760    9.7600 O   0  0  0  0  0  0
   11.5790   25.2880    9.5900 C   0  0  0  0  0  0
   17.6104   37.6318   14.5718 H   0  0  0  0  0  0
   19.3381   37.2725   14.2363 H   0  0  0  0  0  0
   18.8361   37.8222   15.8711 H   0  0  0  0  0  0
   16.3076   35.9604   14.8822 H   0  0  0  0  0  0
   17.7680   33.4347   15.7261 H   0  0  0  0  0  0
   14.8476   34.2430   16.3447 H   0  0  0  0  0  0
   14.9877   31.8069   15.9467 H   0  0  0  0  0  0
   14.6521   32.1796   17.6715 H   0  0  0  0  0  0
   16.3017   31.6805   17.1649 H   0  0  0  0  0  0
   16.6188   35.3931   17.7247 H   0  0  0  0  0  0
   17.2602   33.7871   18.2107 H   0  0  0  0  0  0
   15.6107   34.2862   18.7173 H   0  0  0  0  0  0
   18.1662   32.2251   14.0745 H   0  0  0  0  0  0
   15.7891   31.7421   12.2304 H   0  0  0  0  0  0
   18.7597   31.7107   11.4346 H   0  0  0  0  0  0
   17.3599   31.5231   10.3248 H   0  0  0  0  0  0
   19.1322   33.9985   12.6848 H   0  0  0  0  0  0
   18.9568   36.4558   12.3188 H   0  0  0  0  0  0
   17.5079   37.3788   10.5361 H   0  0  0  0  0  0
   16.1435   35.9170    9.0827 H   0  0  0  0  0  0
   16.2165   33.4445    9.3484 H   0  0  0  0  0  0
   17.0123   29.5361   11.6405 H   0  0  0  0  0  0
   19.2596   30.0696   12.7073 H   0  0  0  0  0  0
   16.4791   28.4459   13.9517 H   0  0  0  0  0  0
   16.0063   30.0967   14.4786 H   0  0  0  0  0  0
   14.5720   27.4107   14.0535 H   0  0  0  0  0  0
   14.2626   28.8786   15.0414 H   0  0  0  0  0  0
   12.5566   29.0313   12.7793 H   0  0  0  0  0  0
   11.9481   28.2576   15.6724 H   0  0  0  0  0  0
   12.0280   29.9221   15.0017 H   0  0  0  0  0  0
    9.7239   29.1214   15.2547 H   0  0  0  0  0  0
   10.1456   29.4441   13.5387 H   0  0  0  0  0  0
   10.0845   26.7442   14.9375 H   0  0  0  0  0  0
    8.9339   27.3521   13.6992 H   0  0  0  0  0  0
   10.6215   25.7819   12.7744 H   0  0  0  0  0  0
   10.7069   27.4146   12.0304 H   0  0  0  0  0  0
   12.9193   26.5671   12.5249 H   0  0  0  0  0  0
   12.4606   26.3241   14.2446 H   0  0  0  0  0  0
   15.5894   27.6825   11.6788 H   0  0  0  0  0  0
   15.0085   27.2584    9.6284 H   0  0  0  0  0  0
   12.0312   27.8456    9.3446 H   0  0  0  0  0  0
   13.6041   29.4611    7.9712 H   0  0  0  0  0  0
   15.6138   30.4065    9.0618 H   0  0  0  0  0  0
   15.8480   30.2208    7.2906 H   0  0  0  0  0  0
   16.5994   29.0470    8.4238 H   0  0  0  0  0  0
   13.7335   27.1786    6.9654 H   0  0  0  0  0  0
   15.5125   27.1833    7.2143 H   0  0  0  0  0  0
   14.7610   28.3571    6.0810 H   0  0  0  0  0  0
   10.7846   26.0381    9.4624 H   0  0  0  0  0  0
   11.4233   24.7460   10.5345 H   0  0  0  0  0  0
   11.5507   24.5776    8.7506 H   0  0  0  0  0  0
  1  2  1  0  0  0
  1 42  1  0  0  0
  1 43  1  0  0  0
  1 44  1  0  0  0
  2  4  1  0  0  0
  2  3  2  0  0  0
  4  5  1  0  0  0
  4 45  1  0  0  0
  5  9  1  0  0  0
  5  6  1  0  0  0
  5 46  1  0  0  0
  6  8  1  0  0  0
  6  7  1  0  0  0
  6 47  1  0  0  0
  7 48  1  0  0  0
  7 49  1  0  0  0
  7 50  1  0  0  0
  8 51  1  0  0  0
  8 52  1  0  0  0
  8 53  1  0  0  0
  9 11  1  0  0  0
  9 10  2  0  0  0
 11 12  1  0  0  0
 11 54  1  0  0  0
 12 20  1  0  0  0
 12 13  1  0  0  0
 12 55  1  0  0  0
 13 14  1  0  0  0
 13 56  1  0  0  0
 13 57  1  0  0  0
 14 19  2  0  0  0
 14 15  1  0  0  0
 15 16  2  0  0  0
 15 58  1  0  0  0
 16 17  1  0  0  0
 16 59  1  0  0  0
 17 18  2  0  0  0
 17 60  1  0  0  0
 18 19  1  0  0  0
 18 61  1  0  0  0
 19 62  1  0  0  0
 20 22  1  0  0  0
 20 21  1  0  0  0
 20 63  1  0  0  0
 21 64  1  0  0  0
 22 23  1  0  0  0
 22 65  1  0  0  0
 22 66  1  0  0  0
 23 31  1  0  0  0
 23 24  1  0  0  0
 24 25  1  0  0  0
 24 67  1  0  0  0
 24 68  1  0  0  0
 25 30  1  0  0  0
 25 26  1  0  0  0
 25 69  1  0  0  0
 26 27  1  0  0  0
 26 70  1  0  0  0
 26 71  1  0  0  0
 27 28  1  0  0  0
 27 72  1  0  0  0
 27 73  1  0  0  0
 28 29  1  0  0  0
 28 74  1  0  0  0
 28 75  1  0  0  0
 29 30  1  0  0  0
 29 76  1  0  0  0
 29 77  1  0  0  0
 30 78  1  0  0  0
 30 79  1  0  0  0
 31 32  1  0  0  0
 31 80  1  0  0  0
 32 34  1  0  0  0
 32 33  2  0  0  0
 34 36  1  0  0  0
 34 35  1  0  0  0
 34 81  1  0  0  0
 35 39  1  0  0  0
 35 82  1  0  0  0
 36 38  1  0  0  0
 36 37  1  0  0  0
 36 83  1  0  0  0
 37 84  1  0  0  0
 37 85  1  0  0  0
 37 86  1  0  0  0
 38 87  1  0  0  0
 38 88  1  0  0  0
 38 89  1  0  0  0
 39 41  1  0  0  0
 39 40  2  0  0  0
 41 90  1  0  0  0
 41 91  1  0  0  0
 41 92  1  0  0  0
M  END
> <s_m_source_file>
../1hii_ligand.sdf

> <i_m_source_file_index>
1

> <s_epik_input>
W2NIXTFbY0hdW2NIXVtjSF1bY0hdYzFbQ0gyXVtDQEhdKFtOSF1DKD1PKVtDQEhdKFtDSF0oW0NIM10pW0NIM10pW05IXUMoPU8pW0NIM10pW0NAQEhdKFtPSF0pW0NIMl1bTkBASCtdKFtOSF1DKD1PKVtDQEhdKFtDSF0oW0NIM10pW0NIM10pW05IXUMoPU8pW0NIM10pW0NIMl1bQ0hdMltDSDJdW0NIMl1bQ0gyXVtDSDJdW0NIMl0y

> <s_epik_cmdline>
J2VwaWtfYXBwJywgJy1pbWFlJywgJ2xpZ2FuZF9wcm8ubWFlJywgJy1vbWFlJywgJ2xpZ2FuZF9wcmVwLm1hZScsICctbXMnLCAnMScsICctcGgnLCAnNycsICctcGh0JywgJzAuNScsICctbnQn

> <r_lp_tautomer_probability>
1

> <r_epik_Ionization_Penalty>
  0.0001

> <r_epik_Ionization_Penalty_Charging>
  0.0000

> <r_epik_Ionization_Penalty_Neutral>
  0.0001

> <r_epik_State_Penalty>
 -0.0000

> <r_epik_Charging_Adjusted_Penalty>
0

> <i_epik_Tot_Q>
0

> <i_epik_Tot_abs_Q>
0

$$$$
