1him_ligand
                    3D
 Schrodinger Suite 2020-3.
122124  0  0  1  0            999 V2000
   -9.0710   28.1080  -33.5750 N   0  3  0  0  0  0
  -10.4490   28.0310  -33.1360 C   0  0  2  0  0  0
  -10.2130   27.5100  -31.7190 C   0  0  0  0  0  0
   -9.2180   26.8230  -31.5070 O   0  0  0  0  0  0
  -11.1300   27.0790  -34.1570 C   0  0  0  0  0  0
  -12.5830   26.6380  -33.9680 C   0  0  0  0  0  0
  -13.5510   27.4600  -33.4030 C   0  0  0  0  0  0
  -12.9210   25.3540  -34.3640 C   0  0  0  0  0  0
  -14.8460   26.9910  -33.2360 C   0  0  0  0  0  0
  -14.2160   24.8800  -34.1950 C   0  0  0  0  0  0
  -15.1730   25.7040  -33.6310 C   0  0  0  0  0  0
  -16.4710   25.2530  -33.4680 O   0  0  0  0  0  0
  -11.0040   27.8860  -30.7240 N   0  0  0  0  0  0
  -10.7880   27.5170  -29.3330 C   0  0  2  0  0  0
  -12.1370   27.2420  -28.7690 C   0  0  0  0  0  0
  -12.9460   28.1480  -28.6740 O   0  0  0  0  0  0
  -10.1970   28.6390  -28.5130 C   0  0  0  0  0  0
   -9.9400   28.2310  -27.0780 C   0  0  0  0  0  0
   -9.8730   27.0400  -26.8080 O   0  0  0  0  0  0
   -9.7800   29.1000  -26.2300 O   0  5  0  0  0  0
  -12.3440   26.0210  -28.3640 N   0  0  0  0  0  0
  -13.6730   25.6250  -27.9490 C   0  0  2  0  0  0
  -13.8590   25.4290  -26.4420 C   0  0  0  0  0  0
  -12.8960   25.1820  -25.7080 O   0  0  0  0  0  0
  -14.0740   24.3260  -28.7820 C   0  0  0  0  0  0
  -14.3980   24.7940  -30.1920 C   0  0  0  0  0  0
  -12.9600   23.2720  -28.8700 C   0  0  0  0  0  0
  -15.0610   25.6500  -25.9210 N   0  0  0  0  0  0
  -15.4200   25.3330  -24.5450 C   0  0  2  0  0  0
  -15.3490   23.8430  -24.2230 C   0  0  0  0  0  0
  -15.4610   23.0150  -25.1250 O   0  0  0  0  0  0
  -16.8420   25.9310  -24.3920 C   0  0  0  0  0  0
  -17.4110   25.9120  -25.7930 C   0  0  0  0  0  0
  -16.1610   26.3410  -26.5780 C   0  0  0  0  0  0
  -15.2320   23.4260  -22.9750 N   0  0  0  0  0  0
  -15.2610   22.0030  -22.6920 C   0  0  2  0  0  0
  -16.6890   21.5000  -22.7960 C   0  0  0  0  0  0
  -17.6310   22.1940  -22.4260 O   0  0  0  0  0  0
  -14.7590   21.7400  -21.3050 C   0  0  0  0  0  0
  -14.4090   20.3020  -21.0710 C   0  0  0  0  0  0
  -13.3130   19.9640  -21.4610 O   0  0  0  0  0  0
  -15.1810   19.5580  -20.4880 O   0  5  0  0  0  0
  -16.9090   20.2620  -23.2120 N   0  0  0  0  0  0
  -18.2650   19.7260  -23.3430 C   0  0  2  0  0  0
  -18.9810   19.6340  -22.0090 C   0  0  0  0  0  0
  -20.2050   19.6530  -21.9180 O   0  0  0  0  0  0
  -18.2310   18.3140  -24.0360 C   0  0  0  0  0  0
  -17.2190   17.2170  -23.6080 C   0  0  0  0  0  0
  -15.8950   17.3040  -23.9690 C   0  0  0  0  0  0
  -17.6540   16.1640  -22.8380 C   0  0  0  0  0  0
  -15.0340   16.3610  -23.5420 C   0  0  0  0  0  0
  -16.7880   15.2110  -22.4210 C   0  0  0  0  0  0
  -15.4910   15.3180  -22.7700 C   0  0  0  0  0  0
  -14.5930   14.3580  -22.3350 O   0  0  0  0  0  0
  -18.1920   19.5270  -20.9580 N   0  0  0  0  0  0
  -18.7740   19.3680  -19.6570 C   0  0  2  0  0  0
  -18.9860   20.7570  -18.9540 C   0  0  0  0  0  0
  -19.3070   20.8710  -17.7600 O   0  0  0  0  0  0
  -17.7880   18.3710  -19.0120 C   0  0  0  0  0  0
  -18.7920   21.8890  -19.6310 N   0  0  0  0  0  0
  -18.9300   23.2320  -19.0590 C   0  0  2  0  0  0
  -20.4220   23.6040  -19.1410 C   0  0  0  0  0  0
  -21.1980   23.2690  -18.2330 O   0  0  0  0  0  0
  -18.0160   24.1420  -19.8950 C   0  0  0  0  0  0
  -18.2930   25.5220  -19.9700 O   0  0  0  0  0  0
  -20.8170   24.1860  -20.1490 N   0  0  0  0  0  0
   -8.5078   28.7698  -32.9006 H   0  0  0  0  0  0
   -9.0341   28.5099  -34.5983 H   0  0  0  0  0  0
   -8.6245   27.1028  -33.5595 H   0  0  0  0  0  0
  -11.0600   28.9452  -33.1078 H   0  0  0  0  0  0
  -11.1302   27.5481  -35.1520 H   0  0  0  0  0  0
  -10.5759   26.1297  -34.1993 H   0  0  0  0  0  0
  -13.2929   28.4721  -33.0914 H   0  0  0  0  0  0
  -12.1642   24.7101  -34.8121 H   0  0  0  0  0  0
  -15.6062   27.6351  -32.7940 H   0  0  0  0  0  0
  -14.4755   23.8675  -34.5042 H   0  0  0  0  0  0
  -17.2296   25.9110  -33.0191 H   0  0  0  0  0  0
  -11.8649   28.5128  -30.9994 H   0  0  0  0  0  0
  -10.1003   26.6585  -29.3281 H   0  0  0  0  0  0
   -9.2388   28.9505  -28.9545 H   0  0  0  0  0  0
  -10.8914   29.4921  -28.5046 H   0  0  0  0  0  0
  -11.5194   25.2935  -28.3358 H   0  0  0  0  0  0
  -14.2771   26.5198  -28.1599 H   0  0  0  0  0  0
  -14.9252   23.8164  -28.3067 H   0  0  0  0  0  0
  -15.1952   25.5509  -30.1530 H   0  0  0  0  0  0
  -14.7349   23.9374  -30.7943 H   0  0  0  0  0  0
  -13.4983   25.2322  -30.6487 H   0  0  0  0  0  0
  -12.7090   22.9186  -27.8590 H   0  0  0  0  0  0
  -12.0684   23.7188  -29.3342 H   0  0  0  0  0  0
  -13.3050   22.4240  -29.4798 H   0  0  0  0  0  0
  -14.6717   25.7667  -23.8653 H   0  0  0  0  0  0
  -17.4294   25.3081  -23.7014 H   0  0  0  0  0  0
  -16.7689   26.9531  -23.9919 H   0  0  0  0  0  0
  -17.7675   24.8988  -26.0302 H   0  0  0  0  0  0
  -18.2500   26.6204  -25.8577 H   0  0  0  0  0  0
  -15.9961   27.4272  -26.5240 H   0  0  0  0  0  0
  -16.2123   26.0299  -27.6318 H   0  0  0  0  0  0
  -15.1133   24.1478  -22.1535 H   0  0  0  0  0  0
  -14.6012   21.5197  -23.4276 H   0  0  0  0  0  0
  -13.8536   22.3377  -21.1233 H   0  0  0  0  0  0
  -15.5342   22.0178  -20.5757 H   0  0  0  0  0  0
  -16.0422   19.6324  -23.4617 H   0  0  0  0  0  0
  -18.7909   20.4813  -23.9454 H   0  0  0  0  0  0
  -19.2040   17.8179  -23.9052 H   0  0  0  0  0  0
  -18.0235   18.4372  -25.1092 H   0  0  0  0  0  0
  -15.5466   18.1267  -24.5935 H   0  0  0  0  0  0
  -18.7060   16.0961  -22.5609 H   0  0  0  0  0  0
  -13.9786   16.4237  -23.8071 H   0  0  0  0  0  0
  -17.1331   14.3734  -21.8148 H   0  0  0  0  0  0
  -13.5311   14.4325  -22.6121 H   0  0  0  0  0  0
  -17.0983   19.5586  -21.0711 H   0  0  0  0  0  0
  -19.7926   18.9541  -19.6923 H   0  0  0  0  0  0
  -17.7483   17.4522  -19.6156 H   0  0  0  0  0  0
  -18.1267   18.1268  -17.9943 H   0  0  0  0  0  0
  -16.7864   18.8234  -18.9665 H   0  0  0  0  0  0
  -18.5106   21.7674  -20.6874 H   0  0  0  0  0  0
  -18.6187   23.2752  -18.0048 H   0  0  0  0  0  0
  -16.9900   24.0923  -19.5015 H   0  0  0  0  0  0
  -18.0235   23.8065  -20.9426 H   0  0  0  0  0  0
  -17.6448   26.1815  -20.5657 H   0  0  0  0  0  0
  -20.1026   24.4694  -20.9360 H   0  0  0  0  0  0
  -21.8849   24.4235  -20.2641 H   0  0  0  0  0  0
  1  2  1  0  0  0
  1 67  1  0  0  0
  1 68  1  0  0  0
  1 69  1  0  0  0
  2  3  1  0  0  0
  2  5  1  0  0  0
  2 70  1  0  0  0
  3  4  2  0  0  0
  3 13  1  0  0  0
  5  6  1  0  0  0
  5 71  1  0  0  0
  5 72  1  0  0  0
  6  7  2  0  0  0
  6  8  1  0  0  0
  7  9  1  0  0  0
  7 73  1  0  0  0
  8 10  2  0  0  0
  8 74  1  0  0  0
  9 11  2  0  0  0
  9 75  1  0  0  0
 10 11  1  0  0  0
 10 76  1  0  0  0
 11 12  1  0  0  0
 12 77  1  0  0  0
 13 14  1  0  0  0
 13 78  1  0  0  0
 14 15  1  0  0  0
 14 17  1  0  0  0
 14 79  1  0  0  0
 15 16  2  0  0  0
 15 21  1  0  0  0
 17 18  1  0  0  0
 17 80  1  0  0  0
 17 81  1  0  0  0
 18 19  2  0  0  0
 18 20  1  0  0  0
 21 22  1  0  0  0
 21 82  1  0  0  0
 22 23  1  0  0  0
 22 25  1  0  0  0
 22 83  1  0  0  0
 23 24  2  0  0  0
 23 28  1  0  0  0
 25 26  1  0  0  0
 25 27  1  0  0  0
 25 84  1  0  0  0
 26 85  1  0  0  0
 26 86  1  0  0  0
 26 87  1  0  0  0
 27 88  1  0  0  0
 27 89  1  0  0  0
 27 90  1  0  0  0
 28 29  1  0  0  0
 28 34  1  0  0  0
 29 30  1  0  0  0
 29 32  1  0  0  0
 29 91  1  0  0  0
 30 31  2  0  0  0
 30 35  1  0  0  0
 32 33  1  0  0  0
 32 92  1  0  0  0
 32 93  1  0  0  0
 33 34  1  0  0  0
 33 94  1  0  0  0
 33 95  1  0  0  0
 34 96  1  0  0  0
 34 97  1  0  0  0
 35 36  1  0  0  0
 35 98  1  0  0  0
 36 37  1  0  0  0
 36 39  1  0  0  0
 36 99  1  0  0  0
 37 38  2  0  0  0
 37 43  1  0  0  0
 39 40  1  0  0  0
 39100  1  0  0  0
 39101  1  0  0  0
 40 41  2  0  0  0
 40 42  1  0  0  0
 43 44  1  0  0  0
 43102  1  0  0  0
 44 45  1  0  0  0
 44 47  1  0  0  0
 44103  1  0  0  0
 45 46  2  0  0  0
 45 55  1  0  0  0
 47 48  1  0  0  0
 47104  1  0  0  0
 47105  1  0  0  0
 48 49  2  0  0  0
 48 50  1  0  0  0
 49 51  1  0  0  0
 49106  1  0  0  0
 50 52  2  0  0  0
 50107  1  0  0  0
 51 53  2  0  0  0
 51108  1  0  0  0
 52 53  1  0  0  0
 52109  1  0  0  0
 53 54  1  0  0  0
 54110  1  0  0  0
 55 56  1  0  0  0
 55111  1  0  0  0
 56 57  1  0  0  0
 56 59  1  0  0  0
 56112  1  0  0  0
 57 58  2  0  0  0
 57 60  1  0  0  0
 59113  1  0  0  0
 59114  1  0  0  0
 59115  1  0  0  0
 60 61  1  0  0  0
 60116  1  0  0  0
 61 62  1  0  0  0
 61 64  1  0  0  0
 61117  1  0  0  0
 62 63  2  0  0  0
 62 66  1  0  0  0
 64 65  1  0  0  0
 64118  1  0  0  0
 64119  1  0  0  0
 65120  1  0  0  0
 66121  1  0  0  0
 66122  1  0  0  0
M  CHG  3   1   1  20  -1  42  -1
M  END
> <s_m_source_file>
../1him_ligand.sdf

> <i_m_source_file_index>
1

> <s_epik_input>
W2NIXTFbY0hdYyhbT0hdKVtjSF1bY0hdYzFbQ0gyXVtDQEhdKFtOSDMrXSlDKD1PKVtOSF1bQ0BASF0oW0NIMl1DKD1PKVtPSF0pQyg9TylbTkhdW0NAQEhdKFtDSF0oW0NIM10pW0NIM10pQyg9TylOMltDQEBIXShbQ0gyXVtDSDJdW0NIMl0yKUMoPU8pW05IXVtDQEBIXShbQ0gyXUMoPU8pW09IXSlDKD1PKVtOSF1bQ0BASF0oW0NIMl1jM1tjSF1bY0hdYyhbT0hdKVtjSF1bY0hdMylDKD1PKVtOSF1bQ0BASF0oW0NIM10pQyg9TylbTkhdW0NASF0oQyg9TylbTkgyXSlbQ0gyXVtPSF0=

> <s_epik_cmdline>
J2VwaWtfYXBwJywgJy1pbWFlJywgJ2xpZ2FuZF9wcm8ubWFlJywgJy1vbWFlJywgJ2xpZ2FuZF9wcmVwLm1hZScsICctbXMnLCAnMScsICctcGgnLCAnNycsICctcGh0JywgJzAuNScsICctbnQn

> <r_lp_tautomer_probability>
0.99999999999473

> <r_epik_Ionization_Penalty>
  0.2100

> <r_epik_Ionization_Penalty_Charging>
  0.2064

> <r_epik_Ionization_Penalty_Neutral>
  0.0036

> <r_epik_State_Penalty>
  0.1939

> <r_epik_Charging_Adjusted_Penalty>
0.400369723807099

> <i_epik_Tot_Q>
-1

> <i_epik_Tot_abs_Q>
3

$$$$
