1hiv_ligand
                    3D
 Schrodinger Suite 2020-3.
120124  0  0  1  0            999 V2000
    3.9460    3.5200   10.8610 C   0  0  0  0  0  0
    4.8560    4.2820    9.9310 C   0  0  0  0  0  0
    6.3080    3.8240    8.0360 C   0  0  0  0  0  0
    6.7700    5.0990    8.0190 C   0  0  0  0  0  0
    7.8050    5.4840    7.1420 C   0  0  0  0  0  0
    8.3630    4.5900    6.2840 C   0  0  0  0  0  0
    7.8850    3.2770    6.2080 C   0  0  0  0  0  0
    8.4690    2.3450    5.3180 C   0  0  0  0  0  0
    7.9860    1.0720    5.3220 C   0  0  0  0  0  0
    6.9490    0.6820    6.1900 C   0  0  0  0  0  0
    6.3980    1.5480    7.0740 C   0  0  0  0  0  0
    6.8240    2.8820    7.1170 C   0  0  0  0  0  0
    3.2240    4.2130   11.5650 O   0  0  0  0  0  0
    5.3310    3.4760    8.9040 O   0  0  0  0  0  0
    3.8550    2.2010   10.7900 N   0  0  0  0  0  0
    3.0770    1.3460   11.6440 C   0  0  2  0  0  0
    4.0180    0.2690   12.1830 C   0  0  0  0  0  0
    4.2030   -0.8100   11.6510 O   0  0  0  0  0  0
    1.8560    0.7120   11.0490 C   0  0  0  0  0  0
    1.0150    1.8450   10.5110 C   0  0  0  0  0  0
    1.4670    2.4390    9.3210 N   0  3  0  0  0  0
   -0.1050    2.4790   10.8870 C   0  0  0  0  0  0
    0.6380    3.4280    9.0020 C   0  0  0  0  0  0
   -0.3720    3.4610    9.8810 N   0  0  0  0  0  0
    4.8140    0.7190   13.1730 N   0  0  0  0  0  0
    5.8810   -0.0010   13.8080 C   0  0  1  0  0  0
    7.1400    0.8600   13.7430 C   0  0  0  0  0  0
    7.5030    1.3240   12.2990 C   0  0  0  0  0  0
    8.1850    0.1420   11.5070 C   0  0  0  0  0  0
    8.4200    2.5370   12.3250 C   0  0  0  0  0  0
    8.3810    0.6890   10.0660 C   0  0  0  0  0  0
    8.9070    2.9790   10.9220 C   0  0  0  0  0  0
    9.4090    1.8070   10.0750 C   0  0  0  0  0  0
    5.5920   -0.5110   15.2040 C   0  0  1  0  0  0
    5.2250    0.3770   16.2380 O   0  0  0  0  0  0
    4.4260   -1.5430   15.1700 C   0  0  1  0  0  0
    4.4510   -2.7300   16.1520 C   0  0  1  0  0  0
    3.1240   -3.4410   16.2810 C   0  0  0  0  0  0
    2.5530   -3.9860   14.9330 C   0  0  0  0  0  0
    3.2040   -4.5860   17.3450 C   0  0  0  0  0  0
    3.2490   -0.8750   15.1340 O   0  0  0  0  0  0
    5.6030   -3.6550   15.7820 C   0  0  0  0  0  0
    5.7480   -4.0440   14.6120 O   0  0  0  0  0  0
    6.4780   -3.9580   16.7510 N   0  0  0  0  0  0
    7.5920   -4.8670   16.6030 C   0  0  2  0  0  0
    7.2740   -5.9470   17.6910 C   0  0  0  0  0  0
    7.3110   -5.6670   18.8800 O   0  0  0  0  0  0
    8.9860   -4.3510   16.8030 C   0  0  2  0  0  0
    9.4880   -3.1080   16.0160 C   0  0  0  0  0  0
   10.0000   -5.4610   16.4720 C   0  0  0  0  0  0
    9.0990   -3.2570   14.5710 C   0  0  0  0  0  0
    6.8710   -7.1360   17.3320 N   0  0  0  0  0  0
    6.5870   -8.2860   18.1060 C   0  0  0  0  0  0
    5.1260   -8.5570   18.1790 C   0  0  0  0  0  0
    4.4130   -7.8110   19.1170 C   0  0  0  0  0  0
    3.0450   -7.9800   19.2870 C   0  0  0  0  0  0
    2.4230   -8.9110   18.4560 C   0  0  0  0  0  0
    3.1640   -9.6310   17.5180 C   0  0  0  0  0  0
    4.4970   -9.4590   17.3860 N   0  0  0  0  0  0
    4.3040    5.1224    9.4850 H   0  0  0  0  0  0
    5.7176    4.6677   10.4956 H   0  0  0  0  0  0
    6.3350    5.8369    8.6931 H   0  0  0  0  0  0
    8.1626    6.5136    7.1525 H   0  0  0  0  0  0
    9.1923    4.8992    5.6478 H   0  0  0  0  0  0
    9.2797    2.6368    4.6504 H   0  0  0  0  0  0
    8.4120    0.3384    4.6376 H   0  0  0  0  0  0
    6.5799   -0.3428    6.1499 H   0  0  0  0  0  0
    5.6193    1.2052    7.7553 H   0  0  0  0  0  0
    4.4558    1.7670    9.9772 H   0  0  0  0  0  0
    2.6697    2.0461   12.3883 H   0  0  0  0  0  0
    2.1552    0.0239   10.2446 H   0  0  0  0  0  0
    1.3165    0.1531   11.8278 H   0  0  0  0  0  0
   -0.6956    2.2847   11.7823 H   0  0  0  0  0  0
    0.7610    4.1059    8.1574 H   0  0  0  0  0  0
    4.5798    1.7465   13.4884 H   0  0  0  0  0  0
    5.9643   -0.9207   13.2103 H   0  0  0  0  0  0
    6.9978    1.7641   14.3532 H   0  0  0  0  0  0
    7.9961    0.2876   14.1297 H   0  0  0  0  0  0
    6.5811    1.6470   11.7933 H   0  0  0  0  0  0
    9.1450   -0.1109   11.9807 H   0  0  0  0  0  0
    7.5255   -0.7382   11.5223 H   0  0  0  0  0  0
    7.8872    3.3899   12.7707 H   0  0  0  0  0  0
    9.3132    2.3086   12.9250 H   0  0  0  0  0  0
    8.7315   -0.1219    9.4105 H   0  0  0  0  0  0
    7.4240    1.0781    9.6882 H   0  0  0  0  0  0
    8.0775    3.4560   10.3794 H   0  0  0  0  0  0
    9.7346    3.6956   11.0300 H   0  0  0  0  0  0
   10.3527    1.4339   10.4995 H   0  0  0  0  0  0
    9.5820    2.1544    9.0457 H   0  0  0  0  0  0
    6.6013   -0.8079   15.5253 H   0  0  0  0  0  0
    5.8771    1.2260   16.4912 H   0  0  0  0  0  0
    4.4121   -2.0531   14.1955 H   0  0  0  0  0  0
    4.6179   -2.3553   17.1727 H   0  0  0  0  0  0
    2.4438   -2.6445   16.6170 H   0  0  0  0  0  0
    2.5041   -3.1687   14.1984 H   0  0  0  0  0  0
    1.5437   -4.3906   15.0992 H   0  0  0  0  0  0
    3.2092   -4.7825   14.5522 H   0  0  0  0  0  0
    3.6076   -4.1844   18.2862 H   0  0  0  0  0  0
    3.8630   -5.3851   16.9748 H   0  0  0  0  0  0
    2.1976   -4.9932   17.5218 H   0  0  0  0  0  0
    3.1275   -0.0105   14.4647 H   0  0  0  0  0  0
    6.3008   -3.4575   17.7144 H   0  0  0  0  0  0
    7.6203   -5.1239   15.5338 H   0  0  0  0  0  0
    8.8886   -4.0453   17.8552 H   0  0  0  0  0  0
    9.0285   -2.1998   16.4331 H   0  0  0  0  0  0
   10.5824   -3.0375   16.1012 H   0  0  0  0  0  0
    9.7150   -6.3858   16.9950 H   0  0  0  0  0  0
   11.0035   -5.1499   16.7978 H   0  0  0  0  0  0
   10.0060   -5.6404   15.3867 H   0  0  0  0  0  0
    9.4499   -2.3817   14.0047 H   0  0  0  0  0  0
    8.0043   -3.3303   14.4917 H   0  0  0  0  0  0
    9.5582   -4.1680   14.1597 H   0  0  0  0  0  0
    6.7580   -7.1675   16.2383 H   0  0  0  0  0  0
    7.0781   -9.1613   17.6559 H   0  0  0  0  0  0
    6.9625   -8.1409   19.1297 H   0  0  0  0  0  0
    4.9405   -7.0799   19.7296 H   0  0  0  0  0  0
    2.4861   -7.4137   20.0320 H   0  0  0  0  0  0
    1.3491   -9.0778   18.5397 H   0  0  0  0  0  0
    2.6545  -10.3498   16.8762 H   0  0  0  0  0  0
    2.3729    2.0590    8.8262 H   0  0  0  0  0  0
  1 13  2  0  0  0
  1  2  1  0  0  0
  1 15  1  0  0  0
  2 14  1  0  0  0
  2 60  1  0  0  0
  2 61  1  0  0  0
  3 14  1  0  0  0
  3 12  2  0  0  0
  3  4  1  0  0  0
  4  5  2  0  0  0
  4 62  1  0  0  0
  5  6  1  0  0  0
  5 63  1  0  0  0
  6  7  2  0  0  0
  6 64  1  0  0  0
  7 12  1  0  0  0
  7  8  1  0  0  0
  8  9  2  0  0  0
  8 65  1  0  0  0
  9 10  1  0  0  0
  9 66  1  0  0  0
 10 11  2  0  0  0
 10 67  1  0  0  0
 11 12  1  0  0  0
 11 68  1  0  0  0
 15 16  1  0  0  0
 15 69  1  0  0  0
 16 17  1  0  0  0
 16 19  1  0  0  0
 16 70  1  0  0  0
 17 18  2  0  0  0
 17 25  1  0  0  0
 19 20  1  0  0  0
 19 71  1  0  0  0
 19 72  1  0  0  0
 20 22  2  0  0  0
 20 21  1  0  0  0
 21 23  2  0  0  0
 21120  1  0  0  0
 22 24  1  0  0  0
 22 73  1  0  0  0
 23 24  1  0  0  0
 23 74  1  0  0  0
 25 26  1  0  0  0
 25 75  1  0  0  0
 26 34  1  0  0  0
 26 27  1  0  0  0
 26 76  1  0  0  0
 27 28  1  0  0  0
 27 77  1  0  0  0
 27 78  1  0  0  0
 28 30  1  0  0  0
 28 29  1  0  0  0
 28 79  1  0  0  0
 29 31  1  0  0  0
 29 80  1  0  0  0
 29 81  1  0  0  0
 30 32  1  0  0  0
 30 82  1  0  0  0
 30 83  1  0  0  0
 31 33  1  0  0  0
 31 84  1  0  0  0
 31 85  1  0  0  0
 32 33  1  0  0  0
 32 86  1  0  0  0
 32 87  1  0  0  0
 33 88  1  0  0  0
 33 89  1  0  0  0
 34 36  1  0  0  0
 34 35  1  0  0  0
 34 90  1  0  0  0
 35 91  1  0  0  0
 36 41  1  0  0  0
 36 37  1  0  0  0
 36 92  1  0  0  0
 37 42  1  0  0  0
 37 38  1  0  0  0
 37 93  1  0  0  0
 38 40  1  0  0  0
 38 39  1  0  0  0
 38 94  1  0  0  0
 39 95  1  0  0  0
 39 96  1  0  0  0
 39 97  1  0  0  0
 40 98  1  0  0  0
 40 99  1  0  0  0
 40100  1  0  0  0
 41101  1  0  0  0
 42 43  2  0  0  0
 42 44  1  0  0  0
 44 45  1  0  0  0
 44102  1  0  0  0
 45 46  1  0  0  0
 45 48  1  0  0  0
 45103  1  0  0  0
 46 47  2  0  0  0
 46 52  1  0  0  0
 48 49  1  0  0  0
 48 50  1  0  0  0
 48104  1  0  0  0
 49 51  1  0  0  0
 49105  1  0  0  0
 49106  1  0  0  0
 50107  1  0  0  0
 50108  1  0  0  0
 50109  1  0  0  0
 51110  1  0  0  0
 51111  1  0  0  0
 51112  1  0  0  0
 52 53  1  0  0  0
 52113  1  0  0  0
 53 54  1  0  0  0
 53114  1  0  0  0
 53115  1  0  0  0
 54 59  2  0  0  0
 54 55  1  0  0  0
 55 56  2  0  0  0
 55116  1  0  0  0
 56 57  1  0  0  0
 56117  1  0  0  0
 57 58  2  0  0  0
 57118  1  0  0  0
 58 59  1  0  0  0
 58119  1  0  0  0
M  CHG  1  21   1
M  END
> <s_m_source_file>
../1hiv_ligand.sdf

> <i_m_source_file_index>
1

> <s_epik_input>
W2NIXTFbY0hdW2NIXVtjSF1jKGMxMiljKFtjSF1bY0hdW2NIXTIpT1tDSDJdQyg9TylbTkhdW0NAQEhdKFtDSDJdYzNuW2NIXVtuSF1bY0hdMylDKD1PKVtOSF1bQ0BASF0oW0NIMl1bQ0hdNFtDSDJdW0NIMl1bQ0gyXVtDSDJdW0NIMl00KVtDQEBIXShbT0hdKVtDQEhdKFtPSF0pW0NAQEhdKFtDSF0oW0NIM10pW0NIM10pQyg9TylbTkhdW0NAQEhdKFtDQEBIXShbQ0gzXSlbQ0gyXVtDSDNdKUMoPU8pW05IXVtDSDJdYzVbY0hdW2NIXVtjSF1bY0hdbjU=

> <s_epik_cmdline>
J2VwaWtfYXBwJywgJy1pbWFlJywgJ2xpZ2FuZF9wcm8ubWFlJywgJy1vbWFlJywgJ2xpZ2FuZF9wcmVwLm1hZScsICctbXMnLCAnMScsICctcGgnLCAnNycsICctcGh0JywgJzAuNScsICctbnQn

> <r_epik_Ionization_Penalty>
  0.5625

> <r_epik_Ionization_Penalty_Charging>
  0.0000

> <r_epik_Ionization_Penalty_Neutral>
  0.5625

> <r_epik_State_Penalty>
  0.0002

> <r_epik_Charging_Adjusted_Penalty>
0.000163601432485841

> <i_epik_Tot_Q>
1

> <i_epik_Tot_abs_Q>
1

$$$$
