1hiy_ligand
                    3D
 Schrodinger Suite 2020-3.
 41 43  0  0  1  0            999 V2000
   66.5580   29.0320    0.2740 P   0  0  0  0  0  0
   67.2840   29.8220    1.2780 O   0  0  0  0  0  0
   67.3810   27.9470   -0.3620 O   0  5  0  0  0  0
   65.1940   28.5920    0.6330 O   0  5  0  0  0  0
   67.1250   30.3870   -2.2140 P   0  0  1  0  0  0
   67.5610   29.0140   -2.6840 O   0  5  0  0  0  0
   66.3490   31.2950   -3.0720 O   0  0  0  0  0  0
   66.3150   30.1500   -0.8530 O   0  0  0  0  0  0
   68.3810   31.2170   -1.7210 O   0  0  0  0  0  0
   68.2160   32.5920   -1.5790 C   0  0  0  0  0  0
   68.5720   33.2060   -0.1860 C   0  0  1  0  0  0
   68.9770   34.5750   -0.3230 O   0  0  0  0  0  0
   67.3240   33.2810    0.6740 C   0  0  1  0  0  0
   67.4270   32.4320    1.6810 N   0  3  0  0  0  0
   67.1610   34.7530    1.0500 C   0  0  1  0  0  0
   67.9140   35.2830    2.1980 O   0  0  0  0  0  0
   67.8070   35.4070   -0.1610 C   0  0  2  0  0  0
   66.9920   35.7140   -1.4080 N   0  0  0  0  0  0
   66.3430   34.8820   -2.3230 C   0  0  0  0  0  0
   65.5100   35.4630   -3.1230 N   0  0  0  0  0  0
   65.5930   36.8020   -2.7420 C   0  0  0  0  0  0
   64.9120   37.9340   -3.2190 C   0  0  0  0  0  0
   63.7790   37.7310   -3.8620 N   0  0  0  0  0  0
   65.2020   39.1680   -2.6830 N   0  0  0  0  0  0
   66.1000   39.2190   -1.6620 C   0  0  0  0  0  0
   66.7920   38.1950   -1.0750 N   0  0  0  0  0  0
   66.4810   36.9830   -1.7000 C   0  0  0  0  0  0
   68.8547   33.1149   -2.3060 H   0  0  0  0  0  0
   67.1634   32.8556   -1.7594 H   0  0  0  0  0  0
   69.3938   32.6371    0.2732 H   0  0  0  0  0  0
   66.3965   32.8532    0.2657 H   0  0  0  0  0  0
   67.5392   31.4103    1.2892 H   0  0  0  0  0  0
   66.5213   32.4889    2.3027 H   0  0  0  0  0  0
   68.3063   32.6899    2.2896 H   0  0  0  0  0  0
   66.1183   34.9452    1.3430 H   0  0  0  0  0  0
   67.6522   34.9698    3.2194 H   0  0  0  0  0  0
   68.0672   36.4610    0.0160 H   0  0  0  0  0  0
   66.5275   33.8084   -2.3603 H   0  0  0  0  0  0
   63.5573   36.7407   -4.2865 H   0  0  0  0  0  0
   63.0554   38.5519   -3.9740 H   0  0  0  0  0  0
   66.2948   40.2117   -1.2561 H   0  0  0  0  0  0
  1  2  2  0  0  0
  1  3  1  0  0  0
  1  4  1  0  0  0
  1  8  1  0  0  0
  5  6  1  0  0  0
  5  7  2  0  0  0
  5  8  1  0  0  0
  5  9  1  0  0  0
  9 10  1  0  0  0
 10 11  1  0  0  0
 10 28  1  0  0  0
 10 29  1  0  0  0
 11 12  1  0  0  0
 11 13  1  0  0  0
 11 30  1  0  0  0
 12 17  1  0  0  0
 13 14  1  0  0  0
 13 15  1  0  0  0
 13 31  1  0  0  0
 14 32  1  0  0  0
 14 33  1  0  0  0
 14 34  1  0  0  0
 15 16  1  0  0  0
 15 17  1  0  0  0
 15 35  1  0  0  0
 16 36  1  0  0  0
 17 18  1  0  0  0
 17 37  1  0  0  0
 18 19  1  0  0  0
 18 27  1  0  0  0
 19 20  2  0  0  0
 19 38  1  0  0  0
 20 21  1  0  0  0
 21 22  2  0  0  0
 21 27  1  0  0  0
 22 23  1  0  0  0
 22 24  1  0  0  0
 23 39  1  0  0  0
 23 40  1  0  0  0
 24 25  2  0  0  0
 25 26  1  0  0  0
 25 41  1  0  0  0
 26 27  2  0  0  0
M  CHG  4   3  -1   4  -1   6  -1  14   1
M  END
> <s_m_source_file>
../1hiy_ligand.sdf

> <i_m_source_file_index>
1

> <s_epik_input>
Tz1QKFtPSF0pKFtPSF0pT1tQQF0oPU8pKFtPSF0pT1tDSDJdW0NASF0xT1tDQEhdKFtDQEhdKFtPSF0pW0NAQEhdMVtOSDMrXSluKFtjSF1uMiljKGMyMyluW2NIXW5jM1tOSDJd

> <s_epik_cmdline>
J2VwaWtfYXBwJywgJy1pbWFlJywgJ2xpZ2FuZF9wcm8ubWFlJywgJy1vbWFlJywgJ2xpZ2FuZF9wcmVwLm1hZScsICctbXMnLCAnMScsICctcGgnLCAnNycsICctcGh0JywgJzAuNScsICctbnQn

> <r_lp_tautomer_probability>
1

> <r_epik_Ionization_Penalty>
  0.3033

> <r_epik_Ionization_Penalty_Charging>
  0.3029

> <r_epik_Ionization_Penalty_Neutral>
  0.0004

> <r_epik_State_Penalty>
 -0.0000

> <r_epik_Charging_Adjusted_Penalty>
0.302894060663144

> <i_epik_Tot_Q>
-2

> <i_epik_Tot_abs_Q>
4

> <s_epik_Chemistry_Notes>
This compound contains an acetal/aminal-like group ( X-CH(R)-Y where X, Y are N, S, or O) that may be acid/base labile, releasing an aldehyde.

$$$$
