1hk1_ligand
                    3D
 Schrodinger Suite 2020-3.
 34 35  0  0  1  0            999 V2000
   -8.8380    0.4350   16.1240 C   0  0  0  0  0  0
   -8.5030   -0.8960   15.9270 C   0  0  0  0  0  0
   -8.7710   -1.5650   14.7400 C   0  0  0  0  0  0
   -9.4150   -0.8670   13.6630 C   0  0  0  0  0  0
   -9.7690    0.4540   13.8660 C   0  0  0  0  0  0
   -9.4990    1.1350   15.0750 C   0  0  0  0  0  0
   -8.4600    1.0780   17.4500 C   0  0  0  0  0  0
   -6.9520    1.2850   17.7520 C   0  0  1  0  0  0
   -5.9370    1.2820   16.5510 C   0  0  0  0  0  0
   -8.5950   -1.3360   11.4930 C   0  0  0  0  0  0
   -8.9690   -1.2970   10.1510 C   0  0  0  0  0  0
   -7.9560   -1.1160    9.1870 C   0  0  0  0  0  0
   -6.5240   -0.9600    9.5080 C   0  0  0  0  0  0
   -6.2470   -1.0120   10.8780 C   0  0  0  0  0  0
   -7.2150   -1.1930   11.8700 C   0  0  0  0  0  0
   -6.7950    2.6050   18.4820 N   0  3  0  0  0  0
   -9.6400   -1.5140   12.4670 O   0  0  0  0  0  0
   -5.5950   -0.7910    8.6000 O   0  5  0  0  0  0
   -5.9910    2.2340   15.7580 O   0  5  0  0  0  0
   -5.1460    0.3320   16.4750 O   0  0  0  0  0  0
   -8.1980   -3.5550   14.5810 I   0  0  0  0  0  0
   -8.5320   -1.0760    7.1830 I   0  0  0  0  0  0
  -10.7310    1.5180   12.3380 I   0  0  0  0  0  0
   -4.2520   -0.8100   11.4730 I   0  0  0  0  0  0
   -8.0106   -1.4378   16.7345 H   0  0  0  0  0  0
   -9.7916    2.1773   15.2019 H   0  0  0  0  0  0
   -8.9054    2.0820   17.5108 H   0  0  0  0  0  0
   -8.8362    0.4593   18.2780 H   0  0  0  0  0  0
   -6.6868    0.4089   18.3621 H   0  0  0  0  0  0
  -10.0128   -1.4032    9.8556 H   0  0  0  0  0  0
   -6.9260   -1.2255   12.9205 H   0  0  0  0  0  0
   -7.4934    2.6397   19.3311 H   0  0  0  0  0  0
   -7.0144    3.4336   17.7926 H   0  0  0  0  0  0
   -5.7633    2.6990   18.8518 H   0  0  0  0  0  0
  1  2  2  0  0  0
  1  6  1  0  0  0
  1  7  1  0  0  0
  2  3  1  0  0  0
  2 25  1  0  0  0
  3  4  2  0  0  0
  3 21  1  0  0  0
  4  5  1  0  0  0
  4 17  1  0  0  0
  5  6  2  0  0  0
  5 23  1  0  0  0
  6 26  1  0  0  0
  7  8  1  0  0  0
  7 27  1  0  0  0
  7 28  1  0  0  0
  8  9  1  0  0  0
  8 16  1  0  0  0
  8 29  1  0  0  0
  9 19  1  0  0  0
  9 20  2  0  0  0
 10 11  2  0  0  0
 10 15  1  0  0  0
 10 17  1  0  0  0
 11 12  1  0  0  0
 11 30  1  0  0  0
 12 13  2  0  0  0
 12 22  1  0  0  0
 13 14  1  0  0  0
 13 18  1  0  0  0
 14 15  2  0  0  0
 14 24  1  0  0  0
 15 31  1  0  0  0
 16 32  1  0  0  0
 16 33  1  0  0  0
 16 34  1  0  0  0
M  CHG  3  16   1  18  -1  19  -1
M  END
> <s_m_source_file>
../1hk1_ligand.sdf

> <i_m_source_file_index>
1

> <s_epik_input>
W09IXUMoPU8pW0NAQEhdKFtOSDMrXSlbQ0gyXWMxW2NIXWMoSSljKGMoSSlbY0hdMSlPYzJbY0hdYyhJKWMoW09IXSljKEkpW2NIXTI=

> <s_epik_cmdline>
J2VwaWtfYXBwJywgJy1pbWFlJywgJ2xpZ2FuZF9wcm8ubWFlJywgJy1vbWFlJywgJ2xpZ2FuZF9wcmVwLm1hZScsICctbXMnLCAnMScsICctcGgnLCAnNycsICctcGh0JywgJzAuNScsICctbnQn

> <r_lp_tautomer_probability>
1

> <r_epik_Ionization_Penalty>
  0.1375

> <r_epik_Ionization_Penalty_Charging>
  0.1375

> <r_epik_Ionization_Penalty_Neutral>
  0.0000

> <r_epik_State_Penalty>
  0.1238

> <r_epik_Charging_Adjusted_Penalty>
0.261359179817534

> <i_epik_Tot_Q>
-1

> <i_epik_Tot_abs_Q>
3

$$$$
