1hk2_ligand
                    3D
 Schrodinger Suite 2020-3.
 34 35  0  0  1  0            999 V2000
   -8.7150   -0.1570   16.5320 C   0  0  0  0  0  0
   -8.5080   -1.4940   16.1720 C   0  0  0  0  0  0
   -8.8450   -1.9840   14.9110 C   0  0  0  0  0  0
   -9.4150   -1.1090   13.9540 C   0  0  0  0  0  0
   -9.6370    0.1970   14.3100 C   0  0  0  0  0  0
   -9.3070    0.7180   15.5810 C   0  0  0  0  0  0
   -8.2670    0.2920   17.9120 C   0  0  0  0  0  0
   -6.7280    0.2350   18.1060 C   0  0  1  0  0  0
   -5.8500    0.6800   16.8810 C   0  0  0  0  0  0
   -8.6940   -1.4100   11.6970 C   0  0  0  0  0  0
   -9.1040   -1.3580   10.3750 C   0  0  0  0  0  0
   -8.1130   -1.1890    9.3940 C   0  0  0  0  0  0
   -6.6900   -1.0540    9.6440 C   0  0  0  0  0  0
   -6.3830   -1.1150   11.0130 C   0  0  0  0  0  0
   -7.3150   -1.2810   12.0310 C   0  0  0  0  0  0
   -6.3320    1.1290   19.2500 N   0  3  0  0  0  0
   -9.7110   -1.5800   12.6920 O   0  0  0  0  0  0
   -5.8010   -0.8980    8.6630 O   0  5  0  0  0  0
   -6.0440    1.8240   16.4390 O   0  0  0  0  0  0
   -5.0340   -0.1400   16.4240 O   0  5  0  0  0  0
   -8.5100   -3.9720   14.4470 I   0  0  0  0  0  0
   -8.6610   -1.1050    7.4410 I   0  0  0  0  0  0
  -10.5080    1.4510   12.8940 I   0  0  0  0  0  0
   -4.4250   -0.9230   11.5640 I   0  0  0  0  0  0
   -8.0689   -2.1743   16.9017 H   0  0  0  0  0  0
   -9.5010    1.7623   15.8257 H   0  0  0  0  0  0
   -8.5840    1.3318   18.0801 H   0  0  0  0  0  0
   -8.7215   -0.3577   18.6745 H   0  0  0  0  0  0
   -6.5266   -0.8260   18.3150 H   0  0  0  0  0  0
  -10.1567   -1.4450   10.1059 H   0  0  0  0  0  0
   -6.9946   -1.3121   13.0724 H   0  0  0  0  0  0
   -6.9174    0.8633   20.1426 H   0  0  0  0  0  0
   -6.5287    2.1773   18.9812 H   0  0  0  0  0  0
   -5.2605    0.9998   19.4624 H   0  0  0  0  0  0
  1  2  2  0  0  0
  1  6  1  0  0  0
  1  7  1  0  0  0
  2  3  1  0  0  0
  2 25  1  0  0  0
  3  4  2  0  0  0
  3 21  1  0  0  0
  4  5  1  0  0  0
  4 17  1  0  0  0
  5  6  2  0  0  0
  5 23  1  0  0  0
  6 26  1  0  0  0
  7  8  1  0  0  0
  7 27  1  0  0  0
  7 28  1  0  0  0
  8  9  1  0  0  0
  8 16  1  0  0  0
  8 29  1  0  0  0
  9 19  2  0  0  0
  9 20  1  0  0  0
 10 11  2  0  0  0
 10 15  1  0  0  0
 10 17  1  0  0  0
 11 12  1  0  0  0
 11 30  1  0  0  0
 12 13  2  0  0  0
 12 22  1  0  0  0
 13 14  1  0  0  0
 13 18  1  0  0  0
 14 15  2  0  0  0
 14 24  1  0  0  0
 15 31  1  0  0  0
 16 32  1  0  0  0
 16 33  1  0  0  0
 16 34  1  0  0  0
M  CHG  3  16   1  18  -1  20  -1
M  END
> <s_m_source_file>
../1hk2_ligand.sdf

> <i_m_source_file_index>
1

> <s_epik_input>
Tz1DKFtPSF0pW0NAQEhdKFtOSDMrXSlbQ0gyXWMxW2NIXWMoSSljKGMoSSlbY0hdMSlPYzJbY0hdYyhJKWMoW09IXSljKEkpW2NIXTI=

> <s_epik_cmdline>
J2VwaWtfYXBwJywgJy1pbWFlJywgJ2xpZ2FuZF9wcm8ubWFlJywgJy1vbWFlJywgJ2xpZ2FuZF9wcmVwLm1hZScsICctbXMnLCAnMScsICctcGgnLCAnNycsICctcGh0JywgJzAuNScsICctbnQn

> <r_lp_tautomer_probability>
1

> <r_epik_Ionization_Penalty>
  0.1375

> <r_epik_Ionization_Penalty_Charging>
  0.1375

> <r_epik_Ionization_Penalty_Neutral>
  0.0000

> <r_epik_State_Penalty>
  0.1238

> <r_epik_Charging_Adjusted_Penalty>
0.261359179817534

> <i_epik_Tot_Q>
-1

> <i_epik_Tot_abs_Q>
3

$$$$
