1hk3_ligand
                    3D
 Schrodinger Suite 2020-3.
 34 35  0  0  1  0            999 V2000
   -8.5170   -0.0260   16.9190 C   0  0  0  0  0  0
   -8.2480   -1.3730   16.6270 C   0  0  0  0  0  0
   -8.5270   -1.9240   15.3750 C   0  0  0  0  0  0
   -9.0770   -1.1180   14.3850 C   0  0  0  0  0  0
   -9.3550    0.1940   14.6570 C   0  0  0  0  0  0
   -9.0910    0.7910   15.9090 C   0  0  0  0  0  0
   -8.1390    0.4980   18.2920 C   0  0  0  0  0  0
   -6.6360    0.3710   18.6580 C   0  0  1  0  0  0
   -5.6060    0.4660   17.5110 C   0  0  0  0  0  0
   -8.2890   -1.5180   12.1780 C   0  0  0  0  0  0
   -8.7090   -1.4520   10.8500 C   0  0  0  0  0  0
   -7.6890   -1.2930    9.8590 C   0  0  0  0  0  0
   -6.2760   -1.1940   10.1620 C   0  0  0  0  0  0
   -5.9750   -1.2720   11.5200 C   0  0  0  0  0  0
   -6.9260   -1.4300   12.5280 C   0  0  0  0  0  0
   -6.2710    1.4650   19.6170 N   0  3  0  0  0  0
   -9.3060   -1.6660   13.1550 O   0  0  0  0  0  0
   -5.3610   -1.0430    9.2120 O   0  5  0  0  0  0
   -5.6890    1.4750   16.7690 O   0  5  0  0  0  0
   -4.7340   -0.3990   17.4750 O   0  0  0  0  0  0
   -8.0790   -3.9310   14.9420 I   0  0  0  0  0  0
   -8.1820   -1.1870    7.8380 I   0  0  0  0  0  0
  -10.1670    1.3750   13.1120 I   0  0  0  0  0  0
   -3.9800   -1.1310   12.0440 I   0  0  0  0  0  0
   -7.8095   -2.0055   17.3988 H   0  0  0  0  0  0
   -9.3194    1.8407   16.0936 H   0  0  0  0  0  0
   -8.3875    1.5676   18.3574 H   0  0  0  0  0  0
   -8.6963   -0.0557   19.0620 H   0  0  0  0  0  0
   -6.5530   -0.6399   19.0836 H   0  0  0  0  0  0
   -9.7629   -1.5183   10.5799 H   0  0  0  0  0  0
   -6.6195   -1.4847   13.5726 H   0  0  0  0  0  0
   -6.9697    1.4561   20.4666 H   0  0  0  0  0  0
   -6.3294    2.4365   19.1044 H   0  0  0  0  0  0
   -5.2462    1.3047   19.9833 H   0  0  0  0  0  0
  1  2  2  0  0  0
  1  6  1  0  0  0
  1  7  1  0  0  0
  2  3  1  0  0  0
  2 25  1  0  0  0
  3  4  2  0  0  0
  3 21  1  0  0  0
  4  5  1  0  0  0
  4 17  1  0  0  0
  5  6  2  0  0  0
  5 23  1  0  0  0
  6 26  1  0  0  0
  7  8  1  0  0  0
  7 27  1  0  0  0
  7 28  1  0  0  0
  8  9  1  0  0  0
  8 16  1  0  0  0
  8 29  1  0  0  0
  9 19  1  0  0  0
  9 20  2  0  0  0
 10 11  2  0  0  0
 10 15  1  0  0  0
 10 17  1  0  0  0
 11 12  1  0  0  0
 11 30  1  0  0  0
 12 13  2  0  0  0
 12 22  1  0  0  0
 13 14  1  0  0  0
 13 18  1  0  0  0
 14 15  2  0  0  0
 14 24  1  0  0  0
 15 31  1  0  0  0
 16 32  1  0  0  0
 16 33  1  0  0  0
 16 34  1  0  0  0
M  CHG  3  16   1  18  -1  19  -1
M  END
> <s_m_source_file>
../1hk3_ligand.sdf

> <i_m_source_file_index>
1

> <s_epik_input>
W09IXUMoPU8pW0NAQEhdKFtOSDMrXSlbQ0gyXWMxW2NIXWMoSSljKGMoSSlbY0hdMSlPYzJbY0hdYyhJKWMoW09IXSljKEkpW2NIXTI=

> <s_epik_cmdline>
J2VwaWtfYXBwJywgJy1pbWFlJywgJ2xpZ2FuZF9wcm8ubWFlJywgJy1vbWFlJywgJ2xpZ2FuZF9wcmVwLm1hZScsICctbXMnLCAnMScsICctcGgnLCAnNycsICctcGh0JywgJzAuNScsICctbnQn

> <r_lp_tautomer_probability>
1

> <r_epik_Ionization_Penalty>
  0.1375

> <r_epik_Ionization_Penalty_Charging>
  0.1375

> <r_epik_Ionization_Penalty_Neutral>
  0.0000

> <r_epik_State_Penalty>
  0.1238

> <r_epik_Charging_Adjusted_Penalty>
0.261359179817534

> <i_epik_Tot_Q>
-1

> <i_epik_Tot_abs_Q>
3

$$$$
