1hk4_ligand
                    3D
 Schrodinger Suite 2020-3.
 34 35  0  0  1  0            999 V2000
   19.9390   10.5710   28.4700 C   0  0  0  0  0  0
   21.1460   10.1870   27.8620 C   0  0  0  0  0  0
   21.3810   10.3590   26.4820 C   0  0  0  0  0  0
   20.3590   10.9500   25.6550 C   0  0  0  0  0  0
   19.1670   11.3290   26.2560 C   0  0  0  0  0  0
   18.9280   11.1580   27.6480 C   0  0  0  0  0  0
   19.7550   10.3650   29.9740 C   0  0  0  0  0  0
   20.0590    8.9880   30.5470 C   0  0  1  0  0  0
   20.2560    8.9390   32.0910 C   0  0  0  0  0  0
   21.2590   12.2440   23.7610 C   0  0  0  0  0  0
   21.4640   12.2220   22.3660 C   0  0  0  0  0  0
   22.1220   13.3170   21.7680 C   0  0  0  0  0  0
   22.6000   14.4820   22.5190 C   0  0  0  0  0  0
   22.3470   14.4070   23.9110 C   0  0  0  0  0  0
   21.6970   13.3410   24.5500 C   0  0  0  0  0  0
   18.9170    8.0720   30.2060 N   0  3  0  0  0  0
   20.5960   11.1190   24.2950 O   0  0  0  0  0  0
   23.2050   15.4860   21.9370 O   0  5  0  0  0  0
   19.5000    9.6380   32.7860 O   0  5  0  0  0  0
   21.1510    8.2040   32.5210 O   0  0  0  0  0  0
   23.2130    9.7650   25.6740 I   0  0  0  0  0  0
   22.4340   13.3230   19.6990 I   0  0  0  0  0  0
   17.6480   12.2010   25.0820 I   0  0  0  0  0  0
   22.9680   15.9870   25.1110 I   0  0  0  0  0  0
   21.9272    9.7411   28.4776 H   0  0  0  0  0  0
   17.9801   11.4726   28.0846 H   0  0  0  0  0  0
   20.4134   11.0552   30.5219 H   0  0  0  0  0  0
   18.7078   10.5638   30.2459 H   0  0  0  0  0  0
   21.0011    8.6772   30.0718 H   0  0  0  0  0  0
   21.1224   11.3795   21.7646 H   0  0  0  0  0  0
   21.5317   13.3540   25.6273 H   0  0  0  0  0  0
   18.7503    8.0829   29.1188 H   0  0  0  0  0  0
   18.0066    8.4140   30.7200 H   0  0  0  0  0  0
   19.1584    7.0488   30.5297 H   0  0  0  0  0  0
  1  2  2  0  0  0
  1  6  1  0  0  0
  1  7  1  0  0  0
  2  3  1  0  0  0
  2 25  1  0  0  0
  3  4  2  0  0  0
  3 21  1  0  0  0
  4  5  1  0  0  0
  4 17  1  0  0  0
  5  6  2  0  0  0
  5 23  1  0  0  0
  6 26  1  0  0  0
  7  8  1  0  0  0
  7 27  1  0  0  0
  7 28  1  0  0  0
  8  9  1  0  0  0
  8 16  1  0  0  0
  8 29  1  0  0  0
  9 19  1  0  0  0
  9 20  2  0  0  0
 10 11  2  0  0  0
 10 15  1  0  0  0
 10 17  1  0  0  0
 11 12  1  0  0  0
 11 30  1  0  0  0
 12 13  2  0  0  0
 12 22  1  0  0  0
 13 14  1  0  0  0
 13 18  1  0  0  0
 14 15  2  0  0  0
 14 24  1  0  0  0
 15 31  1  0  0  0
 16 32  1  0  0  0
 16 33  1  0  0  0
 16 34  1  0  0  0
M  CHG  3  16   1  18  -1  19  -1
M  END
> <s_m_source_file>
../1hk4_ligand.sdf

> <i_m_source_file_index>
1

> <s_epik_input>
W09IXUMoPU8pW0NAQEhdKFtOSDMrXSlbQ0gyXWMxW2NIXWMoSSljKGMoSSlbY0hdMSlPYzJbY0hdYyhJKWMoW09IXSljKEkpW2NIXTI=

> <s_epik_cmdline>
J2VwaWtfYXBwJywgJy1pbWFlJywgJ2xpZ2FuZF9wcm8ubWFlJywgJy1vbWFlJywgJ2xpZ2FuZF9wcmVwLm1hZScsICctbXMnLCAnMScsICctcGgnLCAnNycsICctcGh0JywgJzAuNScsICctbnQn

> <r_lp_tautomer_probability>
1

> <r_epik_Ionization_Penalty>
  0.1375

> <r_epik_Ionization_Penalty_Charging>
  0.1375

> <r_epik_Ionization_Penalty_Neutral>
  0.0000

> <r_epik_State_Penalty>
  0.1238

> <r_epik_Charging_Adjusted_Penalty>
0.261359179817535

> <i_epik_Tot_Q>
-1

> <i_epik_Tot_abs_Q>
3

$$$$
