1hk5_ligand
                    3D
 Schrodinger Suite 2020-3.
 34 35  0  0  1  0            999 V2000
   20.1330   10.6090   28.6660 C   0  0  0  0  0  0
   21.3270   10.1840   28.0590 C   0  0  0  0  0  0
   21.5560   10.3250   26.6700 C   0  0  0  0  0  0
   20.5570   10.9130   25.8390 C   0  0  0  0  0  0
   19.3850   11.3270   26.4330 C   0  0  0  0  0  0
   19.1360   11.1940   27.8270 C   0  0  0  0  0  0
   19.9460   10.4410   30.1810 C   0  0  0  0  0  0
   20.1380    9.0470   30.7770 C   0  0  1  0  0  0
   19.8630    8.9210   32.3160 C   0  0  0  0  0  0
   21.4480   12.2100   23.9490 C   0  0  0  0  0  0
   21.6110   12.2340   22.5600 C   0  0  0  0  0  0
   22.2530   13.3490   21.9790 C   0  0  0  0  0  0
   22.7570   14.4910   22.7330 C   0  0  0  0  0  0
   22.5470   14.3770   24.1240 C   0  0  0  0  0  0
   21.9120   13.2880   24.7570 C   0  0  0  0  0  0
   19.2120    8.0910   30.0630 N   0  3  0  0  0  0
   20.7970   11.0580   24.4730 O   0  0  0  0  0  0
   23.3510   15.5100   22.1520 O   0  5  0  0  0  0
   18.8240    9.4440   32.7560 O   0  5  0  0  0  0
   20.7020    8.3070   32.9980 O   0  0  0  0  0  0
   23.3470    9.6790   25.8460 I   0  0  0  0  0  0
   22.5010   13.3930   19.9130 I   0  0  0  0  0  0
   17.9040   12.1940   25.2380 I   0  0  0  0  0  0
   23.2150   15.9280   25.3310 I   0  0  0  0  0  0
   22.1015    9.7312   28.6781 H   0  0  0  0  0  0
   18.1920   11.5357   28.2516 H   0  0  0  0  0  0
   20.6659   11.0808   30.7125 H   0  0  0  0  0  0
   18.9222   10.7321   30.4586 H   0  0  0  0  0  0
   21.1979    8.8096   30.6028 H   0  0  0  0  0  0
   21.2511   11.4119   21.9413 H   0  0  0  0  0  0
   21.7794   13.2716   25.8388 H   0  0  0  0  0  0
   19.3822    8.1570   28.9783 H   0  0  0  0  0  0
   18.1681    8.3555   30.2872 H   0  0  0  0  0  0
   19.4114    7.0642   30.4036 H   0  0  0  0  0  0
  1  2  2  0  0  0
  1  6  1  0  0  0
  1  7  1  0  0  0
  2  3  1  0  0  0
  2 25  1  0  0  0
  3  4  2  0  0  0
  3 21  1  0  0  0
  4  5  1  0  0  0
  4 17  1  0  0  0
  5  6  2  0  0  0
  5 23  1  0  0  0
  6 26  1  0  0  0
  7  8  1  0  0  0
  7 27  1  0  0  0
  7 28  1  0  0  0
  8  9  1  0  0  0
  8 16  1  0  0  0
  8 29  1  0  0  0
  9 19  1  0  0  0
  9 20  2  0  0  0
 10 11  2  0  0  0
 10 15  1  0  0  0
 10 17  1  0  0  0
 11 12  1  0  0  0
 11 30  1  0  0  0
 12 13  2  0  0  0
 12 22  1  0  0  0
 13 14  1  0  0  0
 13 18  1  0  0  0
 14 15  2  0  0  0
 14 24  1  0  0  0
 15 31  1  0  0  0
 16 32  1  0  0  0
 16 33  1  0  0  0
 16 34  1  0  0  0
M  CHG  3  16   1  18  -1  19  -1
M  END
> <s_m_source_file>
../1hk5_ligand.sdf

> <i_m_source_file_index>
1

> <s_epik_input>
W09IXUMoPU8pW0NAQEhdKFtOSDMrXSlbQ0gyXWMxW2NIXWMoSSljKGMoSSlbY0hdMSlPYzJbY0hdYyhJKWMoW09IXSljKEkpW2NIXTI=

> <s_epik_cmdline>
J2VwaWtfYXBwJywgJy1pbWFlJywgJ2xpZ2FuZF9wcm8ubWFlJywgJy1vbWFlJywgJ2xpZ2FuZF9wcmVwLm1hZScsICctbXMnLCAnMScsICctcGgnLCAnNycsICctcGh0JywgJzAuNScsICctbnQn

> <r_lp_tautomer_probability>
1

> <r_epik_Ionization_Penalty>
  0.1375

> <r_epik_Ionization_Penalty_Charging>
  0.1375

> <r_epik_Ionization_Penalty_Neutral>
  0.0000

> <r_epik_State_Penalty>
  0.1238

> <r_epik_Charging_Adjusted_Penalty>
0.261359179817535

> <i_epik_Tot_Q>
-1

> <i_epik_Tot_abs_Q>
3

$$$$
