1hkj_ligand
                    3D
 Schrodinger Suite 2020-3.
 91 94  0  0  1  0            999 V2000
    0.7700   61.5540   -2.1230 C   0  0  1  0  0  0
   -0.6440   61.7040   -2.6760 C   0  0  1  0  0  0
   -1.3800   60.3760   -2.6480 C   0  0  1  0  0  0
   -0.5310   59.3040   -3.3630 C   0  0  1  0  0  0
    0.8580   59.2270   -2.7150 C   0  0  1  0  0  0
    1.7190   58.1550   -3.3960 C   0  0  0  0  0  0
   -1.4260   64.0030   -2.3490 C   0  0  0  0  0  0
   -2.1470   64.9810   -1.4090 C   0  0  0  0  0  0
   -1.3310   62.7410   -1.8960 N   0  0  0  0  0  0
   -1.5920   60.0040   -1.2940 O   0  0  0  0  0  0
   -1.1690   58.0220   -3.3070 O   0  0  0  0  0  0
    1.4990   60.5170   -2.8210 O   0  0  0  0  0  0
    3.0690   58.1200   -2.8550 O   0  0  0  0  0  0
    3.0680   57.7650   -1.4640 C   0  0  0  0  0  0
   -1.0120   64.3770   -3.4560 O   0  0  0  0  0  0
    5.2880   63.8540   -1.1050 C   0  0  1  0  0  0
    5.0380   62.3480   -1.3400 C   0  0  1  0  0  0
    3.7770   62.1260   -2.1740 C   0  0  1  0  0  0
    2.5890   62.9210   -1.5820 C   0  0  1  0  0  0
    2.9620   64.3940   -1.4370 C   0  0  1  0  0  0
    1.7890   65.1420   -0.8120 C   0  0  0  0  0  0
    7.0570   60.9810   -1.4900 C   0  0  0  0  0  0
    8.2570   60.4780   -2.2870 C   0  0  0  0  0  0
    6.1890   61.7980   -2.0710 N   0  0  0  0  0  0
    4.0190   62.4960   -3.5380 O   0  0  0  0  0  0
    1.4040   62.8030   -2.3570 O   0  0  0  0  0  0
    4.1110   64.5000   -0.5540 O   0  0  0  0  0  0
    2.1550   66.5020   -0.6270 O   0  0  0  0  0  0
    6.9160   60.6500   -0.3130 O   0  0  0  0  0  0
    8.6170   66.6900    1.0410 C   0  0  2  0  0  0
    7.2370   67.3860    1.0800 C   0  0  1  0  0  0
    6.2000   66.2900    0.7770 C   0  0  2  0  0  0
    6.9390   65.2840   -0.1190 C   0  0  1  0  0  0
    8.2580   65.2600    0.6310 C   0  0  1  0  0  0
    9.3770   64.4890   -0.0700 C   0  0  0  0  0  0
    8.2200   67.4220    3.1490 C   0  0  3  0  0  0
    7.4750   68.5390    5.1980 C   0  0  0  0  0  0
    9.6560   67.2370    5.1170 C   0  0  0  0  0  0
    7.1590   67.8300    2.4680 N   0  0  2  0  0  0
    8.4440   67.7280    4.4410 N   0  3  0  0  0  0
    5.1160   66.8670    0.0420 O   0  0  0  0  0  0
    6.3620   63.9650   -0.1640 O   0  0  0  0  0  0
    9.5740   65.0100   -1.3790 O   0  0  0  0  0  0
    9.1030   66.6900    2.4290 O   0  0  0  0  0  0
    0.8067   61.2936   -1.0549 H   0  0  0  0  0  0
   -0.6371   62.0431   -3.7224 H   0  0  0  0  0  0
   -2.3820   60.4607   -3.0939 H   0  0  0  0  0  0
   -0.4567   59.5216   -4.4387 H   0  0  0  0  0  0
    0.7734   59.0062   -1.6407 H   0  0  0  0  0  0
    1.2612   57.1663   -3.2445 H   0  0  0  0  0  0
    1.7848   58.3674   -4.4733 H   0  0  0  0  0  0
   -2.4326   64.4578   -0.4845 H   0  0  0  0  0  0
   -3.0493   65.3683   -1.9049 H   0  0  0  0  0  0
   -1.4753   65.8171   -1.1646 H   0  0  0  0  0  0
   -1.7790   62.4910   -0.9230 H   0  0  0  0  0  0
   -2.1801   60.6550   -0.6304 H   0  0  0  0  0  0
   -2.1771   57.8905   -3.7270 H   0  0  0  0  0  0
    4.1020   57.7483   -1.0891 H   0  0  0  0  0  0
    2.6169   56.7695   -1.3400 H   0  0  0  0  0  0
    2.4844   58.5053   -0.8971 H   0  0  0  0  0  0
    5.5460   64.4014   -2.0236 H   0  0  0  0  0  0
    4.9371   61.8187   -0.3810 H   0  0  0  0  0  0
    3.5336   61.0543   -2.2219 H   0  0  0  0  0  0
    2.2927   62.4797   -0.6190 H   0  0  0  0  0  0
    3.2440   64.8337   -2.4051 H   0  0  0  0  0  0
    0.9169   65.0796   -1.4795 H   0  0  0  0  0  0
    1.5407   64.6889    0.1591 H   0  0  0  0  0  0
    8.2105   60.8773   -3.3109 H   0  0  0  0  0  0
    8.2398   59.3787   -2.3210 H   0  0  0  0  0  0
    9.1857   60.8154   -1.8036 H   0  0  0  0  0  0
    6.3470   62.0620   -3.1271 H   0  0  0  0  0  0
    4.8339   62.0179   -4.1013 H   0  0  0  0  0  0
    1.4378   67.2094   -0.1852 H   0  0  0  0  0  0
    9.3944   67.1454    0.4100 H   0  0  0  0  0  0
    7.0682   68.2448    0.4136 H   0  0  0  0  0  0
    5.7357   65.8424    1.6681 H   0  0  0  0  0  0
    6.9370   65.5106   -1.1954 H   0  0  0  0  0  0
    8.1187   64.6614    1.5433 H   0  0  0  0  0  0
   10.3087   64.5904    0.5060 H   0  0  0  0  0  0
    9.1025   63.4261   -0.1390 H   0  0  0  0  0  0
    7.7972   67.5875    4.1509 H   0  0  0  0  0  0
    6.6375   68.8172    4.5414 H   0  0  0  0  0  0
    7.9689   69.4496    5.5681 H   0  0  0  0  0  0
    7.0951   67.9559    6.0498 H   0  0  0  0  0  0
   10.2611   66.6540    4.4071 H   0  0  0  0  0  0
    9.3693   66.5982    5.9654 H   0  0  0  0  0  0
   10.2431   68.0919    5.4837 H   0  0  0  0  0  0
    7.1164   68.9287    2.4996 H   0  0  0  0  0  0
    4.4655   67.6155    0.5181 H   0  0  0  0  0  0
   10.3436   64.5754   -2.0339 H   0  0  0  0  0  0
    8.9698   68.6438    4.1329 H   0  0  0  0  0  0
  1  2  1  0  0  0
  1 12  1  0  0  0
  1 26  1  0  0  0
  1 45  1  0  0  0
  2  3  1  0  0  0
  2  9  1  0  0  0
  2 46  1  0  0  0
  3  4  1  0  0  0
  3 10  1  0  0  0
  3 47  1  0  0  0
  4  5  1  0  0  0
  4 11  1  0  0  0
  4 48  1  0  0  0
  5  6  1  0  0  0
  5 12  1  0  0  0
  5 49  1  0  0  0
  6 13  1  0  0  0
  6 50  1  0  0  0
  6 51  1  0  0  0
  7  8  1  0  0  0
  7  9  1  0  0  0
  7 15  2  0  0  0
  8 52  1  0  0  0
  8 53  1  0  0  0
  8 54  1  0  0  0
  9 55  1  0  0  0
 10 56  1  0  0  0
 11 57  1  0  0  0
 13 14  1  0  0  0
 14 58  1  0  0  0
 14 59  1  0  0  0
 14 60  1  0  0  0
 16 17  1  0  0  0
 16 27  1  0  0  0
 16 42  1  0  0  0
 16 61  1  0  0  0
 17 18  1  0  0  0
 17 24  1  0  0  0
 17 62  1  0  0  0
 18 19  1  0  0  0
 18 25  1  0  0  0
 18 63  1  0  0  0
 19 20  1  0  0  0
 19 26  1  0  0  0
 19 64  1  0  0  0
 20 21  1  0  0  0
 20 27  1  0  0  0
 20 65  1  0  0  0
 21 28  1  0  0  0
 21 66  1  0  0  0
 21 67  1  0  0  0
 22 23  1  0  0  0
 22 24  1  0  0  0
 22 29  2  0  0  0
 23 68  1  0  0  0
 23 69  1  0  0  0
 23 70  1  0  0  0
 24 71  1  0  0  0
 25 72  1  0  0  0
 28 73  1  0  0  0
 30 31  1  0  0  0
 30 34  1  0  0  0
 30 44  1  0  0  0
 30 74  1  0  0  0
 31 32  1  0  0  0
 31 39  1  0  0  0
 31 75  1  0  0  0
 32 33  1  0  0  0
 32 41  1  0  0  0
 32 76  1  0  0  0
 33 34  1  0  0  0
 33 42  1  0  0  0
 33 77  1  0  0  0
 34 35  1  0  0  0
 34 78  1  0  0  0
 35 43  1  0  0  0
 35 79  1  0  0  0
 35 80  1  0  0  0
 36 39  1  0  0  0
 36 40  1  0  0  0
 36 44  1  0  0  0
 36 81  1  0  0  0
 37 40  1  0  0  0
 37 82  1  0  0  0
 37 83  1  0  0  0
 37 84  1  0  0  0
 38 40  1  0  0  0
 38 85  1  0  0  0
 38 86  1  0  0  0
 38 87  1  0  0  0
 39 88  1  0  0  0
 40 91  1  0  0  0
 41 89  1  0  0  0
 43 90  1  0  0  0
M  CHG  1  40   1
M  END
> <s_m_source_file>
../1hkj_ligand.sdf

> <i_m_source_file_index>
1

> <s_epik_input>
W0NIM11PW0NIMl1bQ0BASF0oTzEpW0NAQEhdKFtPSF0pW0NAQEhdKFtPSF0pW0NAQEhdKFtOSF1DKD1PKVtDSDNdKVtDQEBIXTFPW0NASF0oW0NASF0oTzIpW0NIMl1bT0hdKVtDQEBIXShbT0hdKVtDQEBIXShbTkhdQyg9TylbQ0gzXSlbQ0BASF0yT1tDQEhdKFtDQEhdM1tDSDJdW09IXSlbQ0BIXShbT0hdKVtDQEhdKFtDQEhdMzQpW05IXVtDSF0oTzQpTihbQ0gzXSlbQ0gzXQ==

> <s_epik_cmdline>
J2VwaWtfYXBwJywgJy1pbWFlJywgJ2xpZ2FuZF9wcm8ubWFlJywgJy1vbWFlJywgJ2xpZ2FuZF9wcmVwLm1hZScsICctbXMnLCAnMScsICctcGgnLCAnNycsICctcGh0JywgJzAuNScsICctbnQn

> <r_epik_Ionization_Penalty>
  0.1965

> <r_epik_Ionization_Penalty_Charging>
  0.1965

> <r_epik_Ionization_Penalty_Neutral>
  0.0000

> <r_epik_State_Penalty>
  0.2095

> <r_epik_Charging_Adjusted_Penalty>
0.405973575352843

> <i_epik_Tot_Q>
1

> <i_epik_Tot_abs_Q>
1

> <s_epik_Chemistry_Notes>
This compound contains an acetal/aminal-like group ( X-CH(R)-Y where X, Y are N, S, or O) that may be acid/base labile, releasing an aldehyde.

$$$$
