1hkk_ligand
                    3D
 Schrodinger Suite 2020-3.
 88 91  0  0  1  0            999 V2000
    0.6930   62.5800   -2.8850 C   0  0  1  0  0  0
   -0.8410   62.7890   -2.9520 C   0  0  1  0  0  0
   -1.5520   61.4420   -3.1870 C   0  0  1  0  0  0
   -0.8990   60.6600   -4.3570 C   0  0  1  0  0  0
    0.6210   60.5090   -4.1230 C   0  0  1  0  0  0
    1.3280   59.8670   -5.3350 C   0  0  0  0  0  0
   -1.6410   64.6470   -1.4830 C   0  0  0  0  0  0
   -2.0710   64.9850   -0.0530 C   0  0  0  0  0  0
   -1.3050   63.3680   -1.6660 N   0  0  0  0  0  0
   -1.4840   60.6590   -1.9890 O   0  0  0  0  0  0
   -1.4910   59.3680   -4.4290 O   0  0  0  0  0  0
    1.1880   61.8220   -4.0090 O   0  0  0  0  0  0
    1.3230   60.8050   -6.4400 O   0  0  0  0  0  0
   -1.6330   65.5090   -2.3620 O   0  0  0  0  0  0
    5.2220   64.8900   -1.8860 C   0  0  1  0  0  0
    5.0280   63.3850   -2.1500 C   0  0  1  0  0  0
    3.7250   63.1440   -2.9480 C   0  0  1  0  0  0
    2.5380   63.8980   -2.2630 C   0  0  1  0  0  0
    2.9000   65.3730   -2.1160 C   0  0  1  0  0  0
    1.7690   66.1190   -1.4310 C   0  0  0  0  0  0
    7.1340   62.1230   -2.3840 C   0  0  0  0  0  0
    8.3730   61.7320   -3.2110 C   0  0  0  0  0  0
    6.2070   62.9250   -2.9210 N   0  0  0  0  0  0
    3.8980   63.5900   -4.3070 O   0  0  0  0  0  0
    1.3030   63.8400   -2.9760 O   0  0  0  0  0  0
    4.0520   65.4940   -1.2880 O   0  0  0  0  0  0
    2.1090   67.5010   -1.3420 O   0  0  0  0  0  0
    7.0250   61.7280   -1.2240 O   0  0  0  0  0  0
    8.5580   67.6390    0.2700 C   0  0  2  0  0  0
    7.1820   68.3720    0.3020 C   0  0  1  0  0  0
    6.1470   67.2730    0.0450 C   0  0  2  0  0  0
    6.8430   66.3050   -0.9120 C   0  0  1  0  0  0
    8.1940   66.2240   -0.2160 C   0  0  1  0  0  0
    9.2960   65.5640   -1.0820 C   0  0  0  0  0  0
    8.1430   68.3670    2.3680 C   0  0  1  0  0  0
    7.3550   69.4470    4.4150 C   0  0  0  0  0  0
    9.5360   68.1280    4.3590 C   0  0  0  0  0  0
    7.1130   68.8400    1.6730 N   0  0  2  0  0  0
    8.3270   68.6240    3.6710 N   0  3  0  0  0  0
    4.9740   67.8330   -0.5540 O   0  0  0  0  0  0
    6.3020   64.9960   -0.9770 O   0  0  0  0  0  0
    9.5290   66.3560   -2.2650 O   0  0  0  0  0  0
    8.9970   67.5680    1.6600 O   0  0  0  0  0  0
    1.0019   62.0680   -1.9618 H   0  0  0  0  0  0
   -1.0995   63.4926   -3.7571 H   0  0  0  0  0  0
   -2.6220   61.6049   -3.3835 H   0  0  0  0  0  0
   -1.0990   61.1408   -5.3259 H   0  0  0  0  0  0
    0.7918   59.9383   -3.1983 H   0  0  0  0  0  0
    2.3652   59.6190   -5.0654 H   0  0  0  0  0  0
    0.7956   58.9496   -5.6265 H   0  0  0  0  0  0
   -2.0072   64.0821    0.5721 H   0  0  0  0  0  0
   -3.1072   65.3542   -0.0593 H   0  0  0  0  0  0
   -1.4075   65.7615    0.3555 H   0  0  0  0  0  0
   -1.3919   62.7292   -0.7747 H   0  0  0  0  0  0
   -1.8996   61.0533   -1.0499 H   0  0  0  0  0  0
   -2.5741   59.2676   -4.5928 H   0  0  0  0  0  0
    1.7843   60.5273   -7.3992 H   0  0  0  0  0  0
    5.4299   65.4720   -2.7960 H   0  0  0  0  0  0
    4.9778   62.8086   -1.2144 H   0  0  0  0  0  0
    3.5095   62.0693   -3.0405 H   0  0  0  0  0  0
    2.2998   63.3951   -1.3141 H   0  0  0  0  0  0
    3.1446   65.8091   -3.0958 H   0  0  0  0  0  0
    0.8451   66.0019   -2.0164 H   0  0  0  0  0  0
    1.6178   65.7091   -0.4215 H   0  0  0  0  0  0
    8.2971   62.1728   -4.2159 H   0  0  0  0  0  0
    8.4274   60.6365   -3.2943 H   0  0  0  0  0  0
    9.2794   62.1074   -2.7134 H   0  0  0  0  0  0
    6.3390   63.2427   -3.9658 H   0  0  0  0  0  0
    4.6939   63.1571   -4.9308 H   0  0  0  0  0  0
    1.4107   68.2101   -0.8734 H   0  0  0  0  0  0
    9.3662   68.1068   -0.3114 H   0  0  0  0  0  0
    7.0122   69.2235   -0.3734 H   0  0  0  0  0  0
    5.7569   66.7900    0.9530 H   0  0  0  0  0  0
    6.7669   66.5868   -1.9726 H   0  0  0  0  0  0
    8.1015   65.5515    0.6496 H   0  0  0  0  0  0
   10.2275   65.4962   -0.5009 H   0  0  0  0  0  0
    8.9743   64.5546   -1.3781 H   0  0  0  0  0  0
    8.7286   69.2614    2.1089 H   0  0  0  0  0  0
    6.5244   69.7247    3.7495 H   0  0  0  0  0  0
    7.8508   70.3577    4.7823 H   0  0  0  0  0  0
    6.9650   68.8724    5.2680 H   0  0  0  0  0  0
   10.1415   67.5370    3.6560 H   0  0  0  0  0  0
    9.2406   67.4961    5.2096 H   0  0  0  0  0  0
   10.1264   68.9814    4.7238 H   0  0  0  0  0  0
    7.1417   69.9395    1.6870 H   0  0  0  0  0  0
    4.3588   68.5511    0.0080 H   0  0  0  0  0  0
   10.2827   66.0378   -3.0003 H   0  0  0  0  0  0
    7.9534   68.1306    2.7616 H   0  0  0  0  0  0
  1  2  1  0  0  0
  1 12  1  0  0  0
  1 25  1  0  0  0
  1 44  1  0  0  0
  2  3  1  0  0  0
  2  9  1  0  0  0
  2 45  1  0  0  0
  3  4  1  0  0  0
  3 10  1  0  0  0
  3 46  1  0  0  0
  4  5  1  0  0  0
  4 11  1  0  0  0
  4 47  1  0  0  0
  5  6  1  0  0  0
  5 12  1  0  0  0
  5 48  1  0  0  0
  6 13  1  0  0  0
  6 49  1  0  0  0
  6 50  1  0  0  0
  7  8  1  0  0  0
  7  9  1  0  0  0
  7 14  2  0  0  0
  8 51  1  0  0  0
  8 52  1  0  0  0
  8 53  1  0  0  0
  9 54  1  0  0  0
 10 55  1  0  0  0
 11 56  1  0  0  0
 13 57  1  0  0  0
 15 16  1  0  0  0
 15 26  1  0  0  0
 15 41  1  0  0  0
 15 58  1  0  0  0
 16 17  1  0  0  0
 16 23  1  0  0  0
 16 59  1  0  0  0
 17 18  1  0  0  0
 17 24  1  0  0  0
 17 60  1  0  0  0
 18 19  1  0  0  0
 18 25  1  0  0  0
 18 61  1  0  0  0
 19 20  1  0  0  0
 19 26  1  0  0  0
 19 62  1  0  0  0
 20 27  1  0  0  0
 20 63  1  0  0  0
 20 64  1  0  0  0
 21 22  1  0  0  0
 21 23  1  0  0  0
 21 28  2  0  0  0
 22 65  1  0  0  0
 22 66  1  0  0  0
 22 67  1  0  0  0
 23 68  1  0  0  0
 24 69  1  0  0  0
 27 70  1  0  0  0
 29 30  1  0  0  0
 29 33  1  0  0  0
 29 43  1  0  0  0
 29 71  1  0  0  0
 30 31  1  0  0  0
 30 38  1  0  0  0
 30 72  1  0  0  0
 31 32  1  0  0  0
 31 40  1  0  0  0
 31 73  1  0  0  0
 32 33  1  0  0  0
 32 41  1  0  0  0
 32 74  1  0  0  0
 33 34  1  0  0  0
 33 75  1  0  0  0
 34 42  1  0  0  0
 34 76  1  0  0  0
 34 77  1  0  0  0
 35 38  1  0  0  0
 35 39  1  0  0  0
 35 43  1  0  0  0
 35 78  1  0  0  0
 36 39  1  0  0  0
 36 79  1  0  0  0
 36 80  1  0  0  0
 36 81  1  0  0  0
 37 39  1  0  0  0
 37 82  1  0  0  0
 37 83  1  0  0  0
 37 84  1  0  0  0
 38 85  1  0  0  0
 39 88  1  0  0  0
 40 86  1  0  0  0
 42 87  1  0  0  0
M  CHG  1  39   1
M  END
> <s_m_source_file>
../1hkk_ligand.sdf

> <i_m_source_file_index>
1

> <s_epik_input>
W09IXVtDSDJdW0NAQEhdKE8xKVtDQEBIXShbT0hdKVtDQEBIXShbT0hdKVtDQEBIXShbTkhdQyg9TylbQ0gzXSlbQ0BASF0xT1tDQEhdKFtDQEhdKE8yKVtDSDJdW09IXSlbQ0BASF0oW09IXSlbQ0BASF0oW05IXUMoPU8pW0NIM10pW0NAQEhdMk9bQ0BIXShbQ0BIXTNbQ0gyXVtPSF0pW0NASF0oW09IXSlbQ0BIXShbQ0BIXTM0KVtOSF1bQ0hdKE80KU4oW0NIM10pW0NIM10=

> <s_epik_cmdline>
J2VwaWtfYXBwJywgJy1pbWFlJywgJ2xpZ2FuZF9wcm8ubWFlJywgJy1vbWFlJywgJ2xpZ2FuZF9wcmVwLm1hZScsICctbXMnLCAnMScsICctcGgnLCAnNycsICctcGh0JywgJzAuNScsICctbnQn

> <r_epik_Ionization_Penalty>
  0.1965

> <r_epik_Ionization_Penalty_Charging>
  0.1965

> <r_epik_Ionization_Penalty_Neutral>
  0.0000

> <r_epik_State_Penalty>
  0.2095

> <r_epik_Charging_Adjusted_Penalty>
0.405973575352843

> <i_epik_Tot_Q>
1

> <i_epik_Tot_abs_Q>
1

> <s_epik_Chemistry_Notes>
This compound contains an acetal/aminal-like group ( X-CH(R)-Y where X, Y are N, S, or O) that may be acid/base labile, releasing an aldehyde.

$$$$
