1hkm_ligand
                    3D
 Schrodinger Suite 2020-3.
 81 84  0  0  1  0            999 V2000
    0.9970   61.4230   -2.2450 C   0  0  1  0  0  0
   -0.4980   61.6380   -2.5360 C   0  0  1  0  0  0
   -1.2290   60.3050   -2.6830 C   0  0  1  0  0  0
   -0.4830   59.3850   -3.6690 C   0  0  1  0  0  0
    0.9700   59.2130   -3.2130 C   0  0  1  0  0  0
    1.7170   58.2780   -4.1720 C   0  0  0  0  0  0
   -1.2340   63.7460   -1.4990 C   0  0  0  0  0  0
   -1.8510   64.3870   -0.2500 C   0  0  0  0  0  0
   -1.0850   62.4200   -1.4390 N   0  0  0  0  0  0
   -1.3140   59.6850   -1.4080 O   0  0  0  0  0  0
   -1.1200   58.1040   -3.7350 O   0  0  0  0  0  0
    1.6010   60.5190   -3.2100 O   0  0  0  0  0  0
    3.0210   57.9890   -3.6520 O   0  0  0  0  0  0
   -0.9290   64.4310   -2.4760 O   0  0  0  0  0  0
    5.4840   63.7600   -0.9810 C   0  0  1  0  0  0
    5.2580   62.2630   -1.2560 C   0  0  1  0  0  0
    4.0070   62.0410   -2.1310 C   0  0  1  0  0  0
    2.7910   62.7900   -1.5310 C   0  0  1  0  0  0
    3.1600   64.2630   -1.3560 C   0  0  1  0  0  0
    1.9670   65.0290   -0.7860 C   0  0  0  0  0  0
    7.3140   60.9160   -1.3110 C   0  0  0  0  0  0
    8.5520   60.4170   -2.0540 C   0  0  0  0  0  0
    6.4520   61.7270   -1.9380 N   0  0  0  0  0  0
    4.2560   62.5040   -3.4610 O   0  0  0  0  0  0
    1.6240   62.6980   -2.3520 O   0  0  0  0  0  0
    4.2860   64.3590   -0.4310 O   0  0  0  0  0  0
    2.3290   66.3970   -0.6230 O   0  0  0  0  0  0
    7.1320   60.5830   -0.1380 O   0  0  0  0  0  0
    8.7940   66.6060    1.2020 C   0  0  2  0  0  0
    7.4200   67.3200    1.1560 C   0  0  1  0  0  0
    6.3880   66.2290    0.8630 C   0  0  2  0  0  0
    7.1310   65.1950    0.0180 C   0  0  1  0  0  0
    8.4580   65.1770    0.7670 C   0  0  1  0  0  0
    9.5920   64.5070   -0.0160 C   0  0  0  0  0  0
    8.2880   67.4100    3.2590 C   0  0  0  0  0  0
    9.4440   67.3110    5.2600 C   0  0  0  0  0  0
    7.2880   67.8280    2.5110 N   0  0  0  0  0  0
    8.4220   67.7550    4.5450 N   0  3  0  0  0  0
    5.3080   66.7820    0.1060 O   0  0  0  0  0  0
    6.5510   63.8720   -0.0350 O   0  0  0  0  0  0
    9.8250   65.2140   -1.2280 O   0  0  0  0  0  0
    9.1870   66.6130    2.6140 O   0  0  0  0  0  0
    1.1897   60.9952   -1.2501 H   0  0  0  0  0  0
   -0.6305   62.2116   -3.4652 H   0  0  0  0  0  0
   -2.2683   60.4596   -3.0085 H   0  0  0  0  0  0
   -0.5351   59.7819   -4.6936 H   0  0  0  0  0  0
    1.0245   58.8187   -2.1876 H   0  0  0  0  0  0
    1.1536   57.3397   -4.2824 H   0  0  0  0  0  0
    1.8167   58.7635   -5.1540 H   0  0  0  0  0  0
   -2.0482   63.6089    0.5021 H   0  0  0  0  0  0
   -2.7948   64.8830   -0.5206 H   0  0  0  0  0  0
   -1.1525   65.1289    0.1644 H   0  0  0  0  0  0
   -1.4222   61.9143   -0.5222 H   0  0  0  0  0  0
   -1.8170   60.2020   -0.5775 H   0  0  0  0  0  0
   -2.1725   58.0285   -4.0456 H   0  0  0  0  0  0
    3.7021   57.3300   -4.2103 H   0  0  0  0  0  0
    5.7466   64.3382   -1.8792 H   0  0  0  0  0  0
    5.1332   61.7172   -0.3092 H   0  0  0  0  0  0
    3.7943   60.9672   -2.2396 H   0  0  0  0  0  0
    2.4757   62.3133   -0.5911 H   0  0  0  0  0  0
    3.4758   64.7056   -2.3122 H   0  0  0  0  0  0
    1.1161   64.9505   -1.4787 H   0  0  0  0  0  0
    1.6877   64.6007    0.1879 H   0  0  0  0  0  0
    8.5475   60.8120   -3.0806 H   0  0  0  0  0  0
    8.5431   59.3174   -2.0841 H   0  0  0  0  0  0
    9.4567   60.7623   -1.5322 H   0  0  0  0  0  0
    6.6515   61.9916   -2.9869 H   0  0  0  0  0  0
    5.0870   62.0806   -4.0442 H   0  0  0  0  0  0
    1.5987   67.1151   -0.2218 H   0  0  0  0  0  0
    9.6165   67.0481    0.6206 H   0  0  0  0  0  0
    7.2856   68.1501    0.4469 H   0  0  0  0  0  0
    5.9110   65.8103    1.7614 H   0  0  0  0  0  0
    7.1282   65.4099   -1.0608 H   0  0  0  0  0  0
    8.3416   64.5448    1.6596 H   0  0  0  0  0  0
   10.5097   64.5131    0.5904 H   0  0  0  0  0  0
    9.3133   63.4687   -0.2488 H   0  0  0  0  0  0
   10.1935   66.6517    4.7978 H   0  0  0  0  0  0
    9.5437   67.6014    6.3163 H   0  0  0  0  0  0
    4.6576   67.5476    0.5541 H   0  0  0  0  0  0
   10.6083   64.8738   -1.9213 H   0  0  0  0  0  0
    7.6725   68.4143    5.0072 H   0  0  0  0  0  0
  1  2  1  0  0  0
  1 12  1  0  0  0
  1 25  1  0  0  0
  1 43  1  0  0  0
  2  3  1  0  0  0
  2  9  1  0  0  0
  2 44  1  0  0  0
  3  4  1  0  0  0
  3 10  1  0  0  0
  3 45  1  0  0  0
  4  5  1  0  0  0
  4 11  1  0  0  0
  4 46  1  0  0  0
  5  6  1  0  0  0
  5 12  1  0  0  0
  5 47  1  0  0  0
  6 13  1  0  0  0
  6 48  1  0  0  0
  6 49  1  0  0  0
  7  8  1  0  0  0
  7  9  1  0  0  0
  7 14  2  0  0  0
  8 50  1  0  0  0
  8 51  1  0  0  0
  8 52  1  0  0  0
  9 53  1  0  0  0
 10 54  1  0  0  0
 11 55  1  0  0  0
 13 56  1  0  0  0
 15 16  1  0  0  0
 15 26  1  0  0  0
 15 40  1  0  0  0
 15 57  1  0  0  0
 16 17  1  0  0  0
 16 23  1  0  0  0
 16 58  1  0  0  0
 17 18  1  0  0  0
 17 24  1  0  0  0
 17 59  1  0  0  0
 18 19  1  0  0  0
 18 25  1  0  0  0
 18 60  1  0  0  0
 19 20  1  0  0  0
 19 26  1  0  0  0
 19 61  1  0  0  0
 20 27  1  0  0  0
 20 62  1  0  0  0
 20 63  1  0  0  0
 21 22  1  0  0  0
 21 23  1  0  0  0
 21 28  2  0  0  0
 22 64  1  0  0  0
 22 65  1  0  0  0
 22 66  1  0  0  0
 23 67  1  0  0  0
 24 68  1  0  0  0
 27 69  1  0  0  0
 29 30  1  0  0  0
 29 33  1  0  0  0
 29 42  1  0  0  0
 29 70  1  0  0  0
 30 31  1  0  0  0
 30 37  1  0  0  0
 30 71  1  0  0  0
 31 32  1  0  0  0
 31 39  1  0  0  0
 31 72  1  0  0  0
 32 33  1  0  0  0
 32 40  1  0  0  0
 32 73  1  0  0  0
 33 34  1  0  0  0
 33 74  1  0  0  0
 34 41  1  0  0  0
 34 75  1  0  0  0
 34 76  1  0  0  0
 35 37  2  0  0  0
 35 38  1  0  0  0
 35 42  1  0  0  0
 36 38  2  0  0  0
 36 77  1  0  0  0
 36 78  1  0  0  0
 38 81  1  0  0  0
 39 79  1  0  0  0
 41 80  1  0  0  0
M  CHG  1  38   1
M  END
> <s_m_source_file>
../1hkm_ligand.sdf

> <i_m_source_file_index>
1

> <s_epik_input>
W09IXVtDSDJdW0NAQEhdKE8xKVtDQEBIXShbT0hdKVtDQEBIXShbT0hdKVtDQEBIXShbTkhdQyg9TylbQ0gzXSlbQ0BASF0xT1tDQEhdKFtDQEhdKE8yKVtDSDJdW09IXSlbQ0BASF0oW09IXSlbQ0BASF0oW05IXUMoPU8pW0NIM10pW0NAQEhdMk9bQ0BIXShbQ0BIXTNbQ0gyXVtPSF0pW0NASF0oW09IXSlbQ0BIXShbQ0BIXTM0KU49QyhPNClOPVtDSDJd

> <s_epik_cmdline>
J2VwaWtfYXBwJywgJy1pbWFlJywgJ2xpZ2FuZF9wcm8ubWFlJywgJy1vbWFlJywgJ2xpZ2FuZF9wcmVwLm1hZScsICctbXMnLCAnMScsICctcGgnLCAnNycsICctcGh0JywgJzAuNScsICctbnQn

> <r_epik_Ionization_Penalty>
  0.0361

> <r_epik_Ionization_Penalty_Charging>
  0.0361

> <r_epik_Ionization_Penalty_Neutral>
  0.0000

> <r_epik_State_Penalty>
  0.1474

> <r_epik_Charging_Adjusted_Penalty>
0.183452076341144

> <i_epik_Tot_Q>
1

> <i_epik_Tot_abs_Q>
1

> <s_epik_Chemistry_Notes>
This compound has an imine and may undergo hydrolysis. This compound contains an acetal/aminal-like group ( X-CH(R)-Y where X, Y are N, S, or O) that may be acid/base labile, releasing an aldehyde.

$$$$
