1hlf_ligand
                    3D
 Schrodinger Suite 2020-3.
 28 29  0  0  1  0            999 V2000
   33.9140   22.7470   27.8160 C   0  0  1  0  0  0
   33.9590   23.1090   26.2940 C   0  0  2  0  0  0
   34.0230   24.5300   26.1100 O   0  0  0  0  0  0
   32.6840   22.5620   25.5680 C   0  0  1  0  0  0
   32.8740   22.7290   24.1700 O   0  0  0  0  0  0
   32.4650   21.0480   25.8970 C   0  0  2  0  0  0
   31.2700   20.6050   25.3200 O   0  0  0  0  0  0
   32.4260   20.8230   27.4610 C   0  0  1  0  0  0
   32.3420   19.3660   27.8420 C   0  0  0  0  0  0
   33.4520   18.6970   27.2850 O   0  0  0  0  0  0
   33.6310   21.3600   28.0650 O   0  0  0  0  0  0
   35.2420   23.1450   28.3750 N   0  0  0  0  0  0
   35.0320   24.0940   29.2830 C   0  0  0  0  0  0
   36.3110   24.7340   30.1710 S   0  0  0  0  0  0
   33.7580   24.4600   29.4730 N   0  0  0  0  0  0
   33.0470   23.6770   28.6300 C   0  0  0  0  0  0
   31.8210   23.7490   28.6050 O   0  5  0  0  0  0
   34.8875   22.7305   25.8416 H   0  0  0  0  0  0
   34.8526   25.1045   26.5478 H   0  0  0  0  0  0
   31.7822   23.1410   25.8162 H   0  0  0  0  0  0
   33.0433   23.7331   23.7540 H   0  0  0  0  0  0
   33.2214   20.4176   25.4067 H   0  0  0  0  0  0
   31.1213   20.6849   24.2330 H   0  0  0  0  0  0
   31.5586   21.3427   27.8940 H   0  0  0  0  0  0
   32.3564   19.2722   28.9379 H   0  0  0  0  0  0
   31.4079   18.9376   27.4496 H   0  0  0  0  0  0
   33.5805   17.6165   27.4460 H   0  0  0  0  0  0
   36.1596   22.6590   28.0119 H   0  0  0  0  0  0
  1  2  1  0  0  0
  1 11  1  0  0  0
  1 12  1  0  0  0
  1 16  1  0  0  0
  2  3  1  0  0  0
  2  4  1  0  0  0
  2 18  1  0  0  0
  3 19  1  0  0  0
  4  5  1  0  0  0
  4  6  1  0  0  0
  4 20  1  0  0  0
  5 21  1  0  0  0
  6  7  1  0  0  0
  6  8  1  0  0  0
  6 22  1  0  0  0
  7 23  1  0  0  0
  8  9  1  0  0  0
  8 11  1  0  0  0
  8 24  1  0  0  0
  9 10  1  0  0  0
  9 25  1  0  0  0
  9 26  1  0  0  0
 10 27  1  0  0  0
 12 13  1  0  0  0
 12 28  1  0  0  0
 13 14  2  0  0  0
 13 15  1  0  0  0
 15 16  2  0  0  0
 16 17  1  0  0  0
M  CHG  1  17  -1
M  END
> <s_m_source_file>
../1hlf_ligand.sdf

> <i_m_source_file_index>
1

> <s_epik_input>
Tz1DMVtOSF1DKD1TKVtOSF1bQ0BdMTJbQ0BIXShbT0hdKVtDQEBIXShbT0hdKVtDQEhdKFtPSF0pW0NASF0oTzIpW0NIMl1bT0hd

> <s_epik_cmdline>
J2VwaWtfYXBwJywgJy1pbWFlJywgJ2xpZ2FuZF9wcm8ubWFlJywgJy1vbWFlJywgJ2xpZ2FuZF9wcmVwLm1hZScsICctbXMnLCAnMScsICctcGgnLCAnNycsICctcGh0JywgJzAuNScsICctbnQn

> <r_lp_tautomer_probability>
0.99996852098836

> <r_epik_Ionization_Penalty>
  0.1982

> <r_epik_Ionization_Penalty_Charging>
  0.1982

> <r_epik_Ionization_Penalty_Neutral>
  0.0000

> <r_epik_State_Penalty>
  0.1879

> <r_epik_Charging_Adjusted_Penalty>
0.386099816447854

> <i_epik_Tot_Q>
-1

> <i_epik_Tot_abs_Q>
1

$$$$
