1hlk_ligand
                    3D
 Schrodinger Suite 2020-3.
 36 38  0  0  1  0            999 V2000
   -8.3060  -25.2130   16.7850 C   0  0  0  0  0  0
   -8.7670  -26.2360   15.9550 C   0  0  0  0  0  0
   -8.9710  -27.5030   16.4990 C   0  0  0  0  0  0
   -8.6530  -27.7580   17.8470 C   0  0  0  0  0  0
   -7.8630  -26.8110   18.5520 C   0  0  0  0  0  0
   -7.7670  -25.4980   18.0380 C   0  0  0  0  0  0
   -9.4950  -28.4970   15.7000 O   0  0  0  0  0  0
   -9.6990  -29.7770   16.1730 C   0  0  0  0  0  0
   -9.5880  -30.0980   17.4850 C   0  0  0  0  0  0
   -9.1800  -29.0070   18.4390 C   0  0  0  0  0  0
  -10.0500  -30.7850   15.1080 C   0  0  0  0  0  0
   -9.7150  -32.2130   15.5650 C   0  0  1  0  0  0
  -10.1670  -32.4430   16.9040 O   0  0  0  0  0  0
   -9.8730  -31.5190   17.9600 C   0  0  1  0  0  0
   -7.1640  -24.4370   18.6950 O   0  0  0  0  0  0
   -8.3700  -23.8850   16.4150 O   0  0  0  0  0  0
   -7.1330  -27.1420   19.7910 C   0  0  0  0  0  0
   -7.7360  -26.7540   20.9260 O   0  5  0  0  0  0
   -8.8770  -32.0280   18.8460 O   0  0  0  0  0  0
   -7.6540  -32.5450   18.3690 C   0  0  0  0  0  0
  -10.3340  -33.2880   14.6620 C   0  0  0  0  0  0
   -6.0750  -27.7270   19.7820 O   0  0  0  0  0  0
   -9.3190  -29.1950   19.6260 O   0  0  0  0  0  0
   -8.9641  -26.0474   14.8997 H   0  0  0  0  0  0
  -11.1269  -30.7290   14.8908 H   0  0  0  0  0  0
   -9.4796  -30.5658   14.1933 H   0  0  0  0  0  0
   -8.6193  -32.3089   15.5814 H   0  0  0  0  0  0
  -10.7938  -31.5078   18.5617 H   0  0  0  0  0  0
   -7.1324  -23.4441   18.2227 H   0  0  0  0  0  0
   -8.7869  -23.6063   15.4359 H   0  0  0  0  0  0
   -7.0409  -32.8793   19.2189 H   0  0  0  0  0  0
   -7.1162  -31.7618   17.8145 H   0  0  0  0  0  0
   -7.8514  -33.3969   17.7017 H   0  0  0  0  0  0
  -10.0008  -33.1323   13.6253 H   0  0  0  0  0  0
  -11.4308  -33.2192   14.7089 H   0  0  0  0  0  0
  -10.0141  -34.2832   15.0044 H   0  0  0  0  0  0
  1  2  2  0  0  0
  1  6  1  0  0  0
  1 16  1  0  0  0
  2  3  1  0  0  0
  2 24  1  0  0  0
  3  4  2  0  0  0
  3  7  1  0  0  0
  4  5  1  0  0  0
  4 10  1  0  0  0
  5  6  2  0  0  0
  5 17  1  0  0  0
  6 15  1  0  0  0
  7  8  1  0  0  0
  8  9  2  0  0  0
  8 11  1  0  0  0
  9 10  1  0  0  0
  9 14  1  0  0  0
 10 23  2  0  0  0
 11 12  1  0  0  0
 11 25  1  0  0  0
 11 26  1  0  0  0
 12 13  1  0  0  0
 12 21  1  0  0  0
 12 27  1  0  0  0
 13 14  1  0  0  0
 14 19  1  0  0  0
 14 28  1  0  0  0
 15 29  1  0  0  0
 16 30  1  0  0  0
 17 18  1  0  0  0
 17 22  2  0  0  0
 19 20  1  0  0  0
 20 31  1  0  0  0
 20 32  1  0  0  0
 20 33  1  0  0  0
 21 34  1  0  0  0
 21 35  1  0  0  0
 21 36  1  0  0  0
M  CHG  1  18  -1
M  END
> <s_m_source_file>
../1hlk_ligand.sdf

> <i_m_source_file_index>
1

> <s_epik_input>
W2NIXTFjKFtPSF0pYyhbT0hdKWMoQyg9TylbT0hdKWMoYzEyKWMoPU8pYzNjKG8yKVtDSDJdW0NASF0oW0NIM10pT1tDQEhdM09bQ0gzXQ==

> <s_epik_cmdline>
J2VwaWtfYXBwJywgJy1pbWFlJywgJ2xpZ2FuZF9wcm8ubWFlJywgJy1vbWFlJywgJ2xpZ2FuZF9wcmVwLm1hZScsICctbXMnLCAnMScsICctcGgnLCAnNycsICctcGh0JywgJzAuNScsICctbnQn

> <r_epik_Ionization_Penalty>
  0.0188

> <r_epik_Ionization_Penalty_Charging>
  0.0000

> <r_epik_Ionization_Penalty_Neutral>
  0.0188

> <r_epik_State_Penalty>
  0.0150

> <r_epik_Charging_Adjusted_Penalty>
0.0149674361163849

> <i_epik_Tot_Q>
-1

> <i_epik_Tot_abs_Q>
1

> <s_epik_Chemistry_Notes>
This compound contains an acetal/aminal-like group ( X-CH(R)-Y where X, Y are N, S, or O) that may be acid/base labile, releasing an aldehyde.

$$$$
