1hmr_ligand
                    3D
 Schrodinger Suite 2020-3.
 55 54  0  0  1  0            999 V2000
   19.6520   33.3030   53.6450 C   0  0  0  0  0  0
   18.9220   33.3060   52.3730 C   0  0  0  0  0  0
   19.0110   34.3390   51.7310 O   0  5  0  0  0  0
   18.2470   32.3160   52.1830 O   0  0  0  0  0  0
   20.8140   34.2570   53.8010 C   0  0  0  0  0  0
   21.6480   34.1750   54.9910 C   0  0  0  0  0  0
   22.7520   35.1680   55.1020 C   0  0  0  0  0  0
   23.1580   35.5220   56.5270 C   0  0  0  0  0  0
   23.7060   34.4290   57.3550 C   0  0  0  0  0  0
   23.3620   34.6370   58.8590 C   0  0  0  0  0  0
   21.9690   34.3740   59.1720 C   0  0  0  0  0  0
   21.5120   34.6910   60.4940 C   0  0  0  0  0  0
   20.0350   34.5380   60.6500 C   0  0  0  0  0  0
   19.2440   34.8740   59.4230 C   0  0  0  0  0  0
   17.9140   34.2150   59.3610 C   0  0  0  0  0  0
   17.1850   34.3750   58.0750 C   0  0  0  0  0  0
   17.0930   35.7700   57.5950 C   0  0  0  0  0  0
   16.2220   35.9090   56.3530 C   0  0  0  0  0  0
   15.9690   37.3870   56.0920 C   0  0  0  0  0  0
   17.1450   38.1910   56.5440 C   0  0  0  0  0  0
   20.0075   32.2692   53.7670 H   0  0  0  0  0  0
   18.8924   33.5222   54.4098 H   0  0  0  0  0  0
   21.5163   34.1191   52.9656 H   0  0  0  0  0  0
   20.4414   35.2920   53.7998 H   0  0  0  0  0  0
   21.0249   34.3190   55.8860 H   0  0  0  0  0  0
   22.1290   33.1867   55.0343 H   0  0  0  0  0  0
   23.6514   34.7732   54.6068 H   0  0  0  0  0  0
   22.4496   36.1082   54.6176 H   0  0  0  0  0  0
   23.9380   36.2973   56.5041 H   0  0  0  0  0  0
   22.2820   35.8993   57.0749 H   0  0  0  0  0  0
   23.2786   33.4703   57.0262 H   0  0  0  0  0  0
   24.8002   34.3994   57.2457 H   0  0  0  0  0  0
   23.9728   33.9580   59.4721 H   0  0  0  0  0  0
   23.5741   35.6783   59.1431 H   0  0  0  0  0  0
   21.3252   34.9562   58.4963 H   0  0  0  0  0  0
   21.7605   33.3016   59.0436 H   0  0  0  0  0  0
   21.9968   34.0216   61.2199 H   0  0  0  0  0  0
   21.7676   35.7345   60.7300 H   0  0  0  0  0  0
   19.7996   33.4947   60.9072 H   0  0  0  0  0  0
   19.6802   35.2023   61.4518 H   0  0  0  0  0  0
   19.0701   35.9595   59.3847 H   0  0  0  0  0  0
   19.8031   34.5605   58.5290 H   0  0  0  0  0  0
   18.0331   33.1331   59.5198 H   0  0  0  0  0  0
   17.2619   34.6308   60.1433 H   0  0  0  0  0  0
   17.6959   33.7985   57.2897 H   0  0  0  0  0  0
   16.1549   34.0063   58.1891 H   0  0  0  0  0  0
   16.6577   36.4012   58.3837 H   0  0  0  0  0  0
   18.0986   36.1384   57.3438 H   0  0  0  0  0  0
   16.7387   35.4621   55.4909 H   0  0  0  0  0  0
   15.2655   35.3909   56.5161 H   0  0  0  0  0  0
   15.8116   37.5475   55.0152 H   0  0  0  0  0  0
   15.0745   37.7092   56.6453 H   0  0  0  0  0  0
   16.9554   39.2575   56.3525 H   0  0  0  0  0  0
   18.0411   37.8728   55.9910 H   0  0  0  0  0  0
   17.3040   38.0345   57.6211 H   0  0  0  0  0  0
  1  5  1  0  0  0
  1  2  1  0  0  0
  1 21  1  0  0  0
  1 22  1  0  0  0
  2  4  2  0  0  0
  2  3  1  0  0  0
  5  6  1  0  0  0
  5 23  1  0  0  0
  5 24  1  0  0  0
  6  7  1  0  0  0
  6 25  1  0  0  0
  6 26  1  0  0  0
  7  8  1  0  0  0
  7 27  1  0  0  0
  7 28  1  0  0  0
  8  9  1  0  0  0
  8 29  1  0  0  0
  8 30  1  0  0  0
  9 10  1  0  0  0
  9 31  1  0  0  0
  9 32  1  0  0  0
 10 11  1  0  0  0
 10 33  1  0  0  0
 10 34  1  0  0  0
 11 12  1  0  0  0
 11 35  1  0  0  0
 11 36  1  0  0  0
 12 13  1  0  0  0
 12 37  1  0  0  0
 12 38  1  0  0  0
 13 14  1  0  0  0
 13 39  1  0  0  0
 13 40  1  0  0  0
 14 15  1  0  0  0
 14 41  1  0  0  0
 14 42  1  0  0  0
 15 16  1  0  0  0
 15 43  1  0  0  0
 15 44  1  0  0  0
 16 17  1  0  0  0
 16 45  1  0  0  0
 16 46  1  0  0  0
 17 18  1  0  0  0
 17 47  1  0  0  0
 17 48  1  0  0  0
 18 19  1  0  0  0
 18 49  1  0  0  0
 18 50  1  0  0  0
 19 20  1  0  0  0
 19 51  1  0  0  0
 19 52  1  0  0  0
 20 53  1  0  0  0
 20 54  1  0  0  0
 20 55  1  0  0  0
M  CHG  1   3  -1
M  END
> <s_m_source_file>
../1hmr_ligand.sdf

> <i_m_source_file_index>
1

> <s_epik_input>
W09IXUMoPU8pW0NIMl1bQ0gyXVtDSDJdW0NIMl1bQ0gyXVtDSDJdW0NIMl1bQ0gyXVtDSDJdW0NIMl1bQ0gyXVtDSDJdW0NIMl1bQ0gyXVtDSDJdW0NIMl1bQ0gzXQ==

> <s_epik_cmdline>
J2VwaWtfYXBwJywgJy1pbWFlJywgJ2xpZ2FuZF9wcm8ubWFlJywgJy1vbWFlJywgJ2xpZ2FuZF9wcmVwLm1hZScsICctbXMnLCAnMScsICctcGgnLCAnNycsICctcGh0JywgJzAuNScsICctbnQn

> <r_lp_tautomer_probability>
1

> <r_epik_Ionization_Penalty>
  0.0049

> <r_epik_Ionization_Penalty_Charging>
  0.0049

> <r_epik_Ionization_Penalty_Neutral>
  0.0000

> <r_epik_State_Penalty>
 -0.0000

> <r_epik_Charging_Adjusted_Penalty>
0.00486649495677768

> <i_epik_Tot_Q>
-1

> <i_epik_Tot_abs_Q>
1

$$$$
