1hms_ligand
                    3D
 Schrodinger Suite 2020-3.
 53 52  0  0  1  0            999 V2000
   20.0020   33.2660   53.5770 C   0  0  0  0  0  0
   19.0300   33.3380   52.4920 C   0  0  0  0  0  0
   19.0140   34.4160   51.9100 O   0  0  0  0  0  0
   18.3210   32.3340   52.4110 O   0  5  0  0  0  0
   20.6000   34.5030   54.1250 C   0  0  0  0  0  0
   21.8030   34.2750   55.0600 C   0  0  0  0  0  0
   22.3410   35.6020   55.5610 C   0  0  0  0  0  0
   23.5690   35.5340   56.4000 C   0  0  0  0  0  0
   23.5370   34.5310   57.5140 C   0  0  0  0  0  0
   22.6930   35.0320   58.6870 C   0  0  0  0  0  0
   22.6420   34.0520   59.8040 C   0  0  0  0  0  0
   21.7210   34.1380   60.8600 C   0  0  0  0  0  0
   20.7780   35.2360   61.0590 C   0  0  0  0  0  0
   19.3360   34.9930   60.9030 C   0  0  0  0  0  0
   18.9230   34.6100   59.4960 C   0  0  0  0  0  0
   17.5060   34.0840   59.4840 C   0  0  0  0  0  0
   16.7310   34.5080   58.2780 C   0  0  0  0  0  0
   17.3270   35.6680   57.5660 C   0  0  0  0  0  0
   16.3040   36.4260   56.7320 C   0  0  0  0  0  0
   16.7280   37.8920   56.6480 C   0  0  0  0  0  0
   20.7974   32.6209   53.1755 H   0  0  0  0  0  0
   19.4658   32.7328   54.3759 H   0  0  0  0  0  0
   20.9545   35.1362   53.2984 H   0  0  0  0  0  0
   19.8433   35.0495   54.7070 H   0  0  0  0  0  0
   21.4880   33.6676   55.9213 H   0  0  0  0  0  0
   22.5988   33.7493   54.5120 H   0  0  0  0  0  0
   22.5926   36.2430   54.7032 H   0  0  0  0  0  0
   21.5771   36.0980   56.1778 H   0  0  0  0  0  0
   24.4299   35.2683   55.7690 H   0  0  0  0  0  0
   23.7468   36.5126   56.8697 H   0  0  0  0  0  0
   23.1029   33.5892   57.1471 H   0  0  0  0  0  0
   24.5608   34.3479   57.8720 H   0  0  0  0  0  0
   23.1222   35.9679   59.0741 H   0  0  0  0  0  0
   21.6631   35.2143   58.3463 H   0  0  0  0  0  0
   23.3724   33.2300   59.7768 H   0  0  0  0  0  0
   21.6740   33.3396   61.6152 H   0  0  0  0  0  0
   20.8768   35.6230   62.0839 H   0  0  0  0  0  0
   20.9950   36.0405   60.3409 H   0  0  0  0  0  0
   19.0289   34.1708   61.5661 H   0  0  0  0  0  0
   18.7798   35.9045   61.1673 H   0  0  0  0  0  0
   18.9813   35.4936   58.8434 H   0  0  0  0  0  0
   19.5972   33.8283   59.1159 H   0  0  0  0  0  0
   17.5230   32.9842   59.4983 H   0  0  0  0  0  0
   16.9700   34.4540   60.3705 H   0  0  0  0  0  0
   16.6806   33.6739   57.5626 H   0  0  0  0  0  0
   15.7126   34.7950   58.5788 H   0  0  0  0  0  0
   17.7533   36.3686   58.2991 H   0  0  0  0  0  0
   18.1209   35.3155   56.8911 H   0  0  0  0  0  0
   16.2599   35.9918   55.7223 H   0  0  0  0  0  0
   15.3148   36.3502   57.2072 H   0  0  0  0  0  0
   15.9960   38.4515   56.0471 H   0  0  0  0  0  0
   17.7191   37.9605   56.1757 H   0  0  0  0  0  0
   16.7740   38.3190   57.6607 H   0  0  0  0  0  0
  1  5  1  0  0  0
  1  2  1  0  0  0
  1 21  1  0  0  0
  1 22  1  0  0  0
  2  4  1  0  0  0
  2  3  2  0  0  0
  5  6  1  0  0  0
  5 23  1  0  0  0
  5 24  1  0  0  0
  6  7  1  0  0  0
  6 25  1  0  0  0
  6 26  1  0  0  0
  7  8  1  0  0  0
  7 27  1  0  0  0
  7 28  1  0  0  0
  8  9  1  0  0  0
  8 29  1  0  0  0
  8 30  1  0  0  0
  9 10  1  0  0  0
  9 31  1  0  0  0
  9 32  1  0  0  0
 10 11  1  0  0  0
 10 33  1  0  0  0
 10 34  1  0  0  0
 11 12  2  0  0  0
 11 35  1  0  0  0
 12 13  1  0  0  0
 12 36  1  0  0  0
 13 14  1  0  0  0
 13 37  1  0  0  0
 13 38  1  0  0  0
 14 15  1  0  0  0
 14 39  1  0  0  0
 14 40  1  0  0  0
 15 16  1  0  0  0
 15 41  1  0  0  0
 15 42  1  0  0  0
 16 17  1  0  0  0
 16 43  1  0  0  0
 16 44  1  0  0  0
 17 18  1  0  0  0
 17 45  1  0  0  0
 17 46  1  0  0  0
 18 19  1  0  0  0
 18 47  1  0  0  0
 18 48  1  0  0  0
 19 20  1  0  0  0
 19 49  1  0  0  0
 19 50  1  0  0  0
 20 51  1  0  0  0
 20 52  1  0  0  0
 20 53  1  0  0  0
M  CHG  1   4  -1
M  END
> <s_m_source_file>
../1hms_ligand.sdf

> <i_m_source_file_index>
1

> <s_epik_input>
Tz1DKFtPSF0pW0NIMl1bQ0gyXVtDSDJdW0NIMl1bQ0gyXVtDSDJdW0NIMl0vW0NIXT1bQ0hdXFtDSDJdW0NIMl1bQ0gyXVtDSDJdW0NIMl1bQ0gyXVtDSDJdW0NIM10=

> <s_epik_cmdline>
J2VwaWtfYXBwJywgJy1pbWFlJywgJ2xpZ2FuZF9wcm8ubWFlJywgJy1vbWFlJywgJ2xpZ2FuZF9wcmVwLm1hZScsICctbXMnLCAnMScsICctcGgnLCAnNycsICctcGh0JywgJzAuNScsICctbnQn

> <r_lp_tautomer_probability>
1

> <r_epik_Ionization_Penalty>
  0.0049

> <r_epik_Ionization_Penalty_Charging>
  0.0049

> <r_epik_Ionization_Penalty_Neutral>
  0.0000

> <r_epik_State_Penalty>
 -0.0000

> <r_epik_Charging_Adjusted_Penalty>
0.00485124679394524

> <i_epik_Tot_Q>
-1

> <i_epik_Tot_abs_Q>
1

$$$$
