1hn4_ligand
                    3D
 Schrodinger Suite 2020-3.
 75 74  0  0  1  0            999 V2000
   17.6620   14.6390   11.8510 C   0  0  0  0  0  0
   16.9590   15.7970   12.2200 O   0  0  0  0  0  0
   18.5690   14.9360   10.6840 C   0  0  1  0  0  0
   17.8760   15.7120    9.6740 O   0  0  0  0  0  0
   19.7820   15.7060   11.1580 C   0  0  0  0  0  0
   20.3930   16.3550   10.0710 O   0  0  0  0  0  0
   21.2720   15.5020    9.3740 C   0  0  0  0  0  0
   22.2780   16.2960    8.5760 C   0  0  0  0  0  0
   17.3330   15.0270    8.3220 P   0  0  1  0  0  0
   16.9210   16.1210    7.3690 O   0  5  0  0  0  0
   18.3060   13.9770    7.8640 O   0  0  0  0  0  0
   14.9090   15.0020    9.3820 C   0  0  0  0  0  0
   16.0110   14.2710    8.8210 O   0  0  0  0  0  0
   16.2080   15.5770   13.3760 C   0  0  0  0  0  0
   15.0100   16.5060   13.3670 C   0  0  0  0  0  0
   15.1650   17.5470   14.4680 C   0  0  0  0  0  0
   14.6940   16.9670   15.7980 C   0  0  0  0  0  0
   15.4660   17.6210   16.9300 C   0  0  0  0  0  0
   15.9530   16.5510   17.8950 C   0  0  0  0  0  0
   17.4350   16.7440   18.1550 C   0  0  0  0  0  0
   17.6320   17.6610   19.3530 C   0  0  0  0  0  0
   17.9330   16.8190   20.5840 C   0  0  0  0  0  0
   19.3920   17.0010   20.9750 C   0  0  0  0  0  0
   19.6970   16.1470   22.2010 C   0  0  0  0  0  0
   20.3430   14.8360   21.7700 C   0  0  0  0  0  0
   21.1280   14.2540   22.9380 C   0  0  0  0  0  0
   21.1420   12.7340   22.8470 C   0  0  0  0  0  0
   21.7390   12.1570   24.1270 C   0  0  0  0  0  0
   22.2030   10.7240   23.8760 C   0  0  0  0  0  0
   23.0220   17.1620    9.3250 F   0  0  0  0  0  0
   21.7440   17.0130    7.5610 F   0  0  0  0  0  0
   23.1200   15.4470    8.0230 F   0  0  0  0  0  0
   16.9444   13.8551   11.5674 H   0  0  0  0  0  0
   18.2638   14.2937   12.7046 H   0  0  0  0  0  0
   18.8622   13.9897   10.2059 H   0  0  0  0  0  0
   19.4729   16.4562   11.9007 H   0  0  0  0  0  0
   20.5013   15.0113   11.6161 H   0  0  0  0  0  0
   21.8129   14.8674   10.0914 H   0  0  0  0  0  0
   20.6967   14.8671    8.6840 H   0  0  0  0  0  0
   14.1073   14.3015    9.6588 H   0  0  0  0  0  0
   14.5290   15.7193    8.6397 H   0  0  0  0  0  0
   15.2468   15.5449   10.2771 H   0  0  0  0  0  0
   15.8676   14.5312   13.3986 H   0  0  0  0  0  0
   16.8292   15.7796   14.2609 H   0  0  0  0  0  0
   14.9450   17.0110   12.3920 H   0  0  0  0  0  0
   14.0930   15.9236   13.5401 H   0  0  0  0  0  0
   16.2227   17.8371   14.5520 H   0  0  0  0  0  0
   14.5603   18.4326   14.2230 H   0  0  0  0  0  0
   13.6189   17.1629   15.9232 H   0  0  0  0  0  0
   14.8725   15.8816   15.8085 H   0  0  0  0  0  0
   16.3293   18.1647   16.5189 H   0  0  0  0  0  0
   14.8096   18.3246   17.4630 H   0  0  0  0  0  0
   15.4001   16.6327   18.8424 H   0  0  0  0  0  0
   15.7834   15.5567   17.4561 H   0  0  0  0  0  0
   17.9009   15.7693   18.3621 H   0  0  0  0  0  0
   17.9069   17.1952   17.2697 H   0  0  0  0  0  0
   18.4725   18.3433   19.1581 H   0  0  0  0  0  0
   16.7160   18.2463   19.5213 H   0  0  0  0  0  0
   17.2870   17.1398   21.4145 H   0  0  0  0  0  0
   17.7420   15.7593   20.3591 H   0  0  0  0  0  0
   20.0369   16.6894   20.1401 H   0  0  0  0  0  0
   19.5798   18.0595   21.2082 H   0  0  0  0  0  0
   20.3857   16.6907   22.8644 H   0  0  0  0  0  0
   18.7624   15.9318   22.7397 H   0  0  0  0  0  0
   19.5614   14.1262   21.4614 H   0  0  0  0  0  0
   21.0230   15.0224   20.9257 H   0  0  0  0  0  0
   22.1618   14.6288   22.9080 H   0  0  0  0  0  0
   20.6557   14.5565   23.8843 H   0  0  0  0  0  0
   20.1135   12.3647   22.7216 H   0  0  0  0  0  0
   21.7506   12.4239   21.9847 H   0  0  0  0  0  0
   22.5976   12.7695   24.4397 H   0  0  0  0  0  0
   20.9776   12.1606   24.9209 H   0  0  0  0  0  0
   22.6329   10.3106   24.8003 H   0  0  0  0  0  0
   22.9652   10.7190   23.0829 H   0  0  0  0  0  0
   21.3452   10.1102   23.5640 H   0  0  0  0  0  0
  1  3  1  0  0  0
  1  2  1  0  0  0
  1 33  1  0  0  0
  1 34  1  0  0  0
  2 14  1  0  0  0
  3  5  1  0  0  0
  3  4  1  0  0  0
  3 35  1  0  0  0
  4  9  1  0  0  0
  5  6  1  0  0  0
  5 36  1  0  0  0
  5 37  1  0  0  0
  6  7  1  0  0  0
  7  8  1  0  0  0
  7 38  1  0  0  0
  7 39  1  0  0  0
  8 30  1  0  0  0
  8 32  1  0  0  0
  8 31  1  0  0  0
  9 13  1  0  0  0
  9 11  2  0  0  0
  9 10  1  0  0  0
 12 13  1  0  0  0
 12 40  1  0  0  0
 12 41  1  0  0  0
 12 42  1  0  0  0
 14 15  1  0  0  0
 14 43  1  0  0  0
 14 44  1  0  0  0
 15 16  1  0  0  0
 15 45  1  0  0  0
 15 46  1  0  0  0
 16 17  1  0  0  0
 16 47  1  0  0  0
 16 48  1  0  0  0
 17 18  1  0  0  0
 17 49  1  0  0  0
 17 50  1  0  0  0
 18 19  1  0  0  0
 18 51  1  0  0  0
 18 52  1  0  0  0
 19 20  1  0  0  0
 19 53  1  0  0  0
 19 54  1  0  0  0
 20 21  1  0  0  0
 20 55  1  0  0  0
 20 56  1  0  0  0
 21 22  1  0  0  0
 21 57  1  0  0  0
 21 58  1  0  0  0
 22 23  1  0  0  0
 22 59  1  0  0  0
 22 60  1  0  0  0
 23 24  1  0  0  0
 23 61  1  0  0  0
 23 62  1  0  0  0
 24 25  1  0  0  0
 24 63  1  0  0  0
 24 64  1  0  0  0
 25 26  1  0  0  0
 25 65  1  0  0  0
 25 66  1  0  0  0
 26 27  1  0  0  0
 26 67  1  0  0  0
 26 68  1  0  0  0
 27 28  1  0  0  0
 27 69  1  0  0  0
 27 70  1  0  0  0
 28 29  1  0  0  0
 28 71  1  0  0  0
 28 72  1  0  0  0
 29 73  1  0  0  0
 29 74  1  0  0  0
 29 75  1  0  0  0
M  CHG  1  10  -1
M  END
> <s_m_source_file>
../1hn4_ligand.sdf

> <i_m_source_file_index>
1

> <s_epik_input>
RkMoRikoRilbQ0gyXU9bQ0gyXVtDQEhdKE9bUEBdKD1PKShbT0hdKU9bQ0gzXSlbQ0gyXU9bQ0gyXVtDSDJdW0NIMl1bQ0gyXVtDSDJdW0NIMl1bQ0gyXVtDSDJdW0NIMl1bQ0gyXVtDSDJdW0NIMl1bQ0gyXVtDSDJdW0NIMl1bQ0gzXQ==

> <s_epik_cmdline>
J2VwaWtfYXBwJywgJy1pbWFlJywgJ2xpZ2FuZF9wcm8ubWFlJywgJy1vbWFlJywgJ2xpZ2FuZF9wcmVwLm1hZScsICctbXMnLCAnMScsICctcGgnLCAnNycsICctcGh0JywgJzAuNScsICctbnQn

> <r_lp_tautomer_probability>
1

> <r_epik_Ionization_Penalty>
  0.0004

> <r_epik_Ionization_Penalty_Charging>
  0.0004

> <r_epik_Ionization_Penalty_Neutral>
  0.0000

> <r_epik_State_Penalty>
 -0.0000

> <r_epik_Charging_Adjusted_Penalty>
0.000384237566384436

> <i_epik_Tot_Q>
-1

> <i_epik_Tot_abs_Q>
1

$$$$
