1hp0_ligand
                    3D
 Schrodinger Suite 2020-3.
 34 36  0  0  1  0            999 V2000
   15.6700   23.5980   10.0340 O   0  0  0  0  0  0
   16.2980   24.8650    9.8470 C   0  0  0  0  0  0
   15.4040   26.0780   10.2040 C   0  0  1  0  0  0
   15.2460   25.8080   11.6320 O   0  0  0  0  0  0
   16.5030   27.1360   10.0180 C   0  0  1  0  0  0
   15.9340   28.1520    9.1910 O   0  0  0  0  0  0
   16.9130   27.5680   11.4550 C   0  0  1  0  0  0
   16.8170   28.9510   11.8080 O   0  0  0  0  0  0
   16.0220   26.7420   12.3880 C   0  0  2  0  0  0
   16.6310   26.2200   13.6550 N   0  0  0  0  0  0
   17.2020   26.9880   14.7000 C   0  0  0  0  0  0
   17.6920   26.2980   15.7120 N   0  0  0  0  0  0
   17.4420   24.9680   15.3340 C   0  0  0  0  0  0
   17.7230   23.6890   15.9660 C   0  0  0  0  0  0
   18.3310   23.5710   17.1430 N   0  0  0  0  0  0
   17.3320   22.5450   15.2950 N   0  3  0  0  0  0
   16.7060   22.6260   14.0880 C   0  0  0  0  0  0
   16.3840   23.7440   13.3880 C   0  0  0  0  0  0
   16.7870   24.9050   14.0730 C   0  0  0  0  0  0
   16.2205   22.6727    9.8088 H   0  0  0  0  0  0
   17.1939   24.9275   10.4822 H   0  0  0  0  0  0
   16.5880   24.9784    8.7920 H   0  0  0  0  0  0
   14.4341   26.3026    9.7362 H   0  0  0  0  0  0
   17.4022   26.8572    9.4490 H   0  0  0  0  0  0
   15.6221   27.9140    8.1633 H   0  0  0  0  0  0
   18.0023   27.4705   11.5727 H   0  0  0  0  0  0
   17.3900   29.7032   11.2459 H   0  0  0  0  0  0
   15.2624   27.4030   12.8308 H   0  0  0  0  0  0
   17.2342   28.0771   14.6697 H   0  0  0  0  0  0
   18.6488   24.4706   17.6905 H   0  0  0  0  0  0
   18.5161   22.5738   17.5689 H   0  0  0  0  0  0
   16.4298   21.6773   13.6278 H   0  0  0  0  0  0
   15.8794   23.7423   12.4219 H   0  0  0  0  0  0
   17.5257   21.5558   15.7353 H   0  0  0  0  0  0
  1  2  1  0  0  0
  1 20  1  0  0  0
  2  3  1  0  0  0
  2 21  1  0  0  0
  2 22  1  0  0  0
  3  5  1  0  0  0
  3  4  1  0  0  0
  3 23  1  0  0  0
  4  9  1  0  0  0
  5  7  1  0  0  0
  5  6  1  0  0  0
  5 24  1  0  0  0
  6 25  1  0  0  0
  7  9  1  0  0  0
  7  8  1  0  0  0
  7 26  1  0  0  0
  8 27  1  0  0  0
  9 10  1  0  0  0
  9 28  1  0  0  0
 10 19  1  0  0  0
 10 11  1  0  0  0
 11 12  2  0  0  0
 11 29  1  0  0  0
 12 13  1  0  0  0
 13 19  2  0  0  0
 13 14  1  0  0  0
 14 16  2  0  0  0
 14 15  1  0  0  0
 15 30  1  0  0  0
 15 31  1  0  0  0
 16 17  1  0  0  0
 16 34  1  0  0  0
 17 18  2  0  0  0
 17 32  1  0  0  0
 18 19  1  0  0  0
 18 33  1  0  0  0
M  CHG  1  16   1
M  END
> <s_m_source_file>
../1hp0_ligand.sdf

> <i_m_source_file_index>
1

> <s_epik_input>
W09IXVtDSDJdW0NASF0xT1tDQEhdKFtDQEhdKFtPSF0pW0NAQEhdMVtPSF0pbihbY0hdbjIpYyhjMjMpW2NIXVtjSF1uYzNbTkgyXQ==

> <s_epik_cmdline>
J2VwaWtfYXBwJywgJy1pbWFlJywgJ2xpZ2FuZF9wcm8ubWFlJywgJy1vbWFlJywgJ2xpZ2FuZF9wcmVwLm1hZScsICctbXMnLCAnMScsICctcGgnLCAnNycsICctcGh0JywgJzAuNScsICctbnQn

> <r_epik_Ionization_Penalty>
  0.2115

> <r_epik_Ionization_Penalty_Charging>
  0.0000

> <r_epik_Ionization_Penalty_Neutral>
  0.2115

> <r_epik_State_Penalty>
  0.2014

> <r_epik_Charging_Adjusted_Penalty>
0.201437670123398

> <i_epik_Tot_Q>
1

> <i_epik_Tot_abs_Q>
1

> <s_epik_Chemistry_Notes>
This compound contains an acetal/aminal-like group ( X-CH(R)-Y where X, Y are N, S, or O) that may be acid/base labile, releasing an aldehyde.

$$$$
