1hp5_ligand
                    3D
 Schrodinger Suite 2020-3.
 27 28  0  0  1  0            999 V2000
   -5.8060   65.5590    9.9600 C   0  0  1  0  0  0
   -6.5790   66.4760    8.9660 C   0  0  1  0  0  0
   -5.6020   67.2660    8.0300 C   0  0  2  0  0  0
   -4.3700   67.8090    8.7750 C   0  0  1  0  0  0
   -3.6630   66.6680    9.5380 C   0  0  1  0  0  0
   -2.4400   67.1200   10.3320 C   0  0  0  0  0  0
   -7.0380   64.4310    8.0570 C   0  0  0  0  0  0
   -7.6950   63.3350    7.2510 C   0  0  0  0  0  0
   -7.4390   65.6240    8.1550 N   0  0  0  0  0  0
   -5.5870   64.0020    8.9670 S   0  0  0  0  0  0
   -6.3010   68.3240    7.3920 O   0  0  0  0  0  0
   -3.4830   68.3940    7.8380 O   0  0  0  0  0  0
   -4.6030   66.0340   10.4880 O   0  0  0  0  0  0
   -1.7400   65.9970   10.8690 O   0  0  0  0  0  0
   -6.2507   65.6721   10.9597 H   0  0  0  0  0  0
   -7.2221   67.1834    9.5101 H   0  0  0  0  0  0
   -5.2516   66.6260    7.2069 H   0  0  0  0  0  0
   -4.6395   68.6271    9.4591 H   0  0  0  0  0  0
   -3.3382   65.9333    8.7865 H   0  0  0  0  0  0
   -1.7602   67.6787    9.6719 H   0  0  0  0  0  0
   -2.7602   67.7677   11.1614 H   0  0  0  0  0  0
   -8.5810   63.7377    6.7383 H   0  0  0  0  0  0
   -7.9993   62.5184    7.9222 H   0  0  0  0  0  0
   -6.9830   62.9509    6.5056 H   0  0  0  0  0  0
   -7.2111   68.1109    6.8120 H   0  0  0  0  0  0
   -3.8229   69.2265    7.2044 H   0  0  0  0  0  0
   -0.8315   66.1511   11.4697 H   0  0  0  0  0  0
  1  2  1  0  0  0
  1 10  1  0  0  0
  1 13  1  0  0  0
  1 15  1  0  0  0
  2  3  1  0  0  0
  2  9  1  0  0  0
  2 16  1  0  0  0
  3  4  1  0  0  0
  3 11  1  0  0  0
  3 17  1  0  0  0
  4  5  1  0  0  0
  4 12  1  0  0  0
  4 18  1  0  0  0
  5  6  1  0  0  0
  5 13  1  0  0  0
  5 19  1  0  0  0
  6 14  1  0  0  0
  6 20  1  0  0  0
  6 21  1  0  0  0
  7  8  1  0  0  0
  7  9  2  0  0  0
  7 10  1  0  0  0
  8 22  1  0  0  0
  8 23  1  0  0  0
  8 24  1  0  0  0
 11 25  1  0  0  0
 12 26  1  0  0  0
 14 27  1  0  0  0
M  END
> <s_m_source_file>
../1hp5_ligand.sdf

> <i_m_source_file_index>
1

> <s_epik_input>
W0NIM11DKFMxKT1OW0NAQEhdKFtDQEBIXTEyKVtDQEBIXShbT0hdKVtDQEhdKFtPSF0pW0NASF0oTzIpW0NIMl1bT0hd

> <s_epik_cmdline>
J2VwaWtfYXBwJywgJy1pbWFlJywgJ2xpZ2FuZF9wcm8ubWFlJywgJy1vbWFlJywgJ2xpZ2FuZF9wcmVwLm1hZScsICctbXMnLCAnMScsICctcGgnLCAnNycsICctcGh0JywgJzAuNScsICctbnQn

> <r_lp_tautomer_probability>
1

> <r_epik_Ionization_Penalty>
  0.0003

> <r_epik_Ionization_Penalty_Charging>
  0.0000

> <r_epik_Ionization_Penalty_Neutral>
  0.0003

> <r_epik_State_Penalty>
 -0.0000

> <r_epik_Charging_Adjusted_Penalty>
0

> <i_epik_Tot_Q>
0

> <i_epik_Tot_abs_Q>
0

> <s_epik_Chemistry_Notes>
This compound has an imine and may undergo hydrolysis. This compound contains an acetal/aminal-like group ( X-CH(R)-Y where X, Y are N, S, or O) that may be acid/base labile, releasing an aldehyde.

$$$$
