1hpo_ligand
                    3D
 Schrodinger Suite 2020-3.
 64 68  0  0  1  0            999 V2000
   13.6440   23.0550    5.7580 C   0  0  0  0  0  0
   12.4620   22.4300    6.2330 C   0  0  0  0  0  0
   12.5220   21.3710    6.7520 O   0  0  0  0  0  0
   11.2320   22.9530    6.0750 O   0  0  0  0  0  0
   11.1730   24.1780    5.3710 C   0  0  0  0  0  0
   12.2830   24.8340    4.8700 C   0  0  0  0  0  0
   13.5440   24.2550    5.0790 C   0  0  0  0  0  0
   14.7200   24.8210    4.7030 O   0  0  0  0  0  0
   15.3970   21.2880    5.0660 C   0  0  0  0  0  0
   15.1540   21.3690    3.6670 C   0  0  0  0  0  0
   15.5220   20.2830    2.8340 C   0  0  0  0  0  0
   16.1290   19.1410    3.3570 C   0  0  0  0  0  0
   16.3510   19.0480    4.7530 C   0  0  0  0  0  0
   15.9960   20.1240    5.5870 C   0  0  0  0  0  0
   15.0550   22.4530    5.9880 C   0  0  2  0  0  0
   15.5140   22.2140    7.4440 C   0  0  0  0  0  0
   15.4090   23.3410    8.4740 C   0  0  0  0  0  0
   16.7720   22.9310    7.9340 C   0  0  0  0  0  0
    9.7560   24.7210    5.2000 C   0  0  0  0  0  0
    9.0920   24.5760    3.8190 C   0  0  0  0  0  0
    9.8770   23.8900    2.7510 C   0  0  0  0  0  0
   11.0450   24.6630    2.1980 C   0  0  0  0  0  0
   11.2850   26.0690    2.7980 C   0  0  0  0  0  0
   12.1320   26.1330    4.1020 C   0  0  0  0  0  0
   16.9830   17.9420    5.3080 N   0  0  0  0  0  0
   18.5350   18.0980    5.4930 S   0  0  0  0  0  0
   18.8700   16.6830    5.5030 O   0  0  0  0  0  0
   18.9170   18.8390    4.2920 O   0  0  0  0  0  0
   19.1800   18.9950    6.8380 C   0  0  0  0  0  0
   19.1190   18.5400    8.1890 C   0  0  0  0  0  0
   19.6730   19.3400    9.2240 C   0  0  0  0  0  0
   20.2810   20.5780    8.8980 C   0  0  0  0  0  0
   20.3310   21.0200    7.5600 C   0  0  0  0  0  0
   19.7850   20.2350    6.5360 C   0  0  0  0  0  0
   20.8740   21.3540    9.8890 C   0  0  0  0  0  0
   21.3780   22.0050   10.7220 N   0  0  0  0  0  0
   15.6690   24.3021    4.9032 H   0  0  0  0  0  0
   14.6893   22.2576    3.2397 H   0  0  0  0  0  0
   15.3268   20.3412    1.7632 H   0  0  0  0  0  0
   16.4299   18.3273    2.6972 H   0  0  0  0  0  0
   16.1882   20.0558    6.6577 H   0  0  0  0  0  0
   15.6925   23.2912    5.6703 H   0  0  0  0  0  0
   15.1664   21.1708    7.4119 H   0  0  0  0  0  0
   14.7859   24.1516    8.0683 H   0  0  0  0  0  0
   14.9516   22.9534    9.3962 H   0  0  0  0  0  0
   17.4473   22.2037    8.4084 H   0  0  0  0  0  0
   17.2816   23.4019    7.0805 H   0  0  0  0  0  0
    9.0797   24.2074    5.8991 H   0  0  0  0  0  0
    9.7493   25.8008    5.4099 H   0  0  0  0  0  0
    8.1629   23.9955    3.9180 H   0  0  0  0  0  0
    8.8601   25.5733    3.4171 H   0  0  0  0  0  0
   10.2896   22.9499    3.1458 H   0  0  0  0  0  0
    9.2202   23.6717    1.8960 H   0  0  0  0  0  0
   11.9732   24.0987    2.3712 H   0  0  0  0  0  0
   10.9051   24.8159    1.1177 H   0  0  0  0  0  0
   11.8149   26.6949    2.0649 H   0  0  0  0  0  0
   10.3183   26.5322    3.0449 H   0  0  0  0  0  0
   11.6448   26.8830    4.7424 H   0  0  0  0  0  0
   13.1248   26.4980    3.8000 H   0  0  0  0  0  0
   16.4840   17.0095    5.6104 H   0  0  0  0  0  0
   18.6503   17.5847    8.4254 H   0  0  0  0  0  0
   19.6308   19.0045   10.2602 H   0  0  0  0  0  0
   20.7963   21.9763    7.3213 H   0  0  0  0  0  0
   19.8272   20.5821    5.5036 H   0  0  0  0  0  0
  1 15  1  0  0  0
  1  7  2  0  0  0
  1  2  1  0  0  0
  2  4  1  0  0  0
  2  3  2  0  0  0
  4  5  1  0  0  0
  5 19  1  0  0  0
  5  6  2  0  0  0
  6 24  1  0  0  0
  6  7  1  0  0  0
  7  8  1  0  0  0
  8 37  1  0  0  0
  9 15  1  0  0  0
  9 14  2  0  0  0
  9 10  1  0  0  0
 10 11  2  0  0  0
 10 38  1  0  0  0
 11 12  1  0  0  0
 11 39  1  0  0  0
 12 13  2  0  0  0
 12 40  1  0  0  0
 13 25  1  0  0  0
 13 14  1  0  0  0
 14 41  1  0  0  0
 15 16  1  0  0  0
 15 42  1  0  0  0
 16 18  1  0  0  0
 16 17  1  0  0  0
 16 43  1  0  0  0
 17 18  1  0  0  0
 17 44  1  0  0  0
 17 45  1  0  0  0
 18 46  1  0  0  0
 18 47  1  0  0  0
 19 20  1  0  0  0
 19 48  1  0  0  0
 19 49  1  0  0  0
 20 21  1  0  0  0
 20 50  1  0  0  0
 20 51  1  0  0  0
 21 22  1  0  0  0
 21 52  1  0  0  0
 21 53  1  0  0  0
 22 23  1  0  0  0
 22 54  1  0  0  0
 22 55  1  0  0  0
 23 24  1  0  0  0
 23 56  1  0  0  0
 23 57  1  0  0  0
 24 58  1  0  0  0
 24 59  1  0  0  0
 25 26  1  0  0  0
 25 60  1  0  0  0
 26 29  1  0  0  0
 26 28  2  0  0  0
 26 27  2  0  0  0
 29 34  2  0  0  0
 29 30  1  0  0  0
 30 31  2  0  0  0
 30 61  1  0  0  0
 31 32  1  0  0  0
 31 62  1  0  0  0
 32 35  1  0  0  0
 32 33  2  0  0  0
 33 34  1  0  0  0
 33 63  1  0  0  0
 34 64  1  0  0  0
 35 36  3  0  0  0
M  END
> <s_m_source_file>
../1hpo_ligand.sdf

> <i_m_source_file_index>
1

> <s_epik_input>
W0NIMl0xW0NIMl1bQ0gyXVtDSDJdW0NIMl1bQ0gyXWMoYzEyKWMoW09IXSljKGMoPU8pbzIpW0NAQEhdKFtDSF0zW0NIMl1bQ0gyXTMpYzRbY0hdW2NIXVtjSF1jKFtjSF00KVtOSF1TKD1PKSg9TyljNVtjSF1bY0hdYyhDI04pW2NIXVtjSF01

> <s_epik_cmdline>
J2VwaWtfYXBwJywgJy1pbWFlJywgJ2xpZ2FuZF9wcm8ubWFlJywgJy1vbWFlJywgJ2xpZ2FuZF9wcmVwLm1hZScsICctbXMnLCAnMScsICctcGgnLCAnNycsICctcGh0JywgJzAuNScsICctbnQn

> <r_lp_tautomer_probability>
0.9999995

> <r_epik_Ionization_Penalty>
  0.2784

> <r_epik_Ionization_Penalty_Charging>
  0.0000

> <r_epik_Ionization_Penalty_Neutral>
  0.2784

> <r_epik_State_Penalty>
  0.2318

> <r_epik_Charging_Adjusted_Penalty>
0.23175507185489

> <i_epik_Tot_Q>
0

> <i_epik_Tot_abs_Q>
0

$$$$
