1hpv_ligand
                    3D
 Schrodinger Suite 2020-3.
 70 72  0  0  1  0            999 V2000
   11.1690   14.9770    2.4450 C   0  0  0  0  0  0
    9.1760   16.2240    2.9970 C   0  0  0  0  0  0
   10.1490   15.7020    5.9990 C   0  0  0  0  0  0
   10.1130   15.1490    3.5480 C   0  0  2  0  0  0
   10.9600   16.6620    8.1450 C   0  0  2  0  0  0
   10.3870   18.1190    8.4840 C   0  0  1  0  0  0
   12.4160   16.2780    8.6520 C   0  0  0  0  0  0
   12.8310   14.9140    8.1700 C   0  0  0  0  0  0
   13.6360   14.8250    6.9780 C   0  0  0  0  0  0
   12.2990   13.7060    8.7650 C   0  0  0  0  0  0
   13.8910   13.5660    6.3310 C   0  0  0  0  0  0
   12.5740   12.4340    8.1160 C   0  0  0  0  0  0
   13.3710   12.3570    6.8870 C   0  0  0  0  0  0
    9.6950   18.4110    9.8910 C   0  0  0  0  0  0
    7.3810   17.6970    9.1700 C   0  0  0  0  0  0
    6.1860   18.4060    9.7900 C   0  0  0  0  0  0
    8.8320   16.3810   12.8860 C   0  0  0  0  0  0
   10.0730   16.3630   13.6040 C   0  0  0  0  0  0
   10.0920   16.6920   14.9920 C   0  0  0  0  0  0
    8.8650   17.0540   15.6200 C   0  0  0  0  0  0
    7.6520   17.0060   14.9260 C   0  0  0  0  0  0
    7.6390   16.6690   13.5550 C   0  0  0  0  0  0
    6.1460   19.9370    9.6140 C   0  0  0  0  0  0
    4.8220   17.6950    9.7310 C   0  0  0  0  0  0
    9.7510   16.6260    1.6330 C   0  0  0  0  0  0
   10.9400   16.4720    6.7130 N   0  0  0  0  0  0
    8.5160   17.5800   10.2280 N   0  0  1  0  0  0
    8.8400   17.3220   16.8980 N   0  0  0  0  0  0
   10.7260   15.6620    4.7310 O   0  0  0  0  0  0
    9.0810   15.3130    6.2870 O   0  0  0  0  0  0
   11.4320   19.0300    8.4660 O   0  0  0  0  0  0
   10.0510   15.5110   10.8470 O   0  0  0  0  0  0
    7.7070   15.1600   11.0710 O   0  0  0  0  0  0
   11.0530   16.0820    1.5150 O   0  0  0  0  0  0
    8.7650   16.1120   11.2000 S   0  0  0  0  0  0
   12.1724   14.9716    2.8957 H   0  0  0  0  0  0
   10.9982   14.0262    1.9189 H   0  0  0  0  0  0
    9.1483   17.1037    3.6569 H   0  0  0  0  0  0
    8.1565   15.8329    2.8643 H   0  0  0  0  0  0
    9.6286   14.2119    3.8597 H   0  0  0  0  0  0
   10.2654   15.9513    8.6166 H   0  0  0  0  0  0
    9.6711   18.3154    7.6722 H   0  0  0  0  0  0
   13.1414   17.0140    8.2752 H   0  0  0  0  0  0
   12.4328   16.2766    9.7519 H   0  0  0  0  0  0
   14.0625   15.7350    6.5560 H   0  0  0  0  0  0
   11.7059   13.7490    9.6785 H   0  0  0  0  0  0
   14.4816   13.5342    5.4154 H   0  0  0  0  0  0
   12.1788   11.5169    8.5528 H   0  0  0  0  0  0
   13.5626   11.3970    6.4077 H   0  0  0  0  0  0
   10.4227   18.2450   10.6990 H   0  0  0  0  0  0
    9.3475   19.4543    9.9192 H   0  0  0  0  0  0
    7.0802   16.6916    8.8402 H   0  0  0  0  0  0
    7.7417   18.2738    8.3056 H   0  0  0  0  0  0
    6.4451   18.2684   10.8501 H   0  0  0  0  0  0
   10.9980   16.0990   13.0914 H   0  0  0  0  0  0
   11.0228   16.6671   15.5587 H   0  0  0  0  0  0
    6.7182   17.2283   15.4425 H   0  0  0  0  0  0
    6.6929   16.6332   13.0150 H   0  0  0  0  0  0
    7.1680   20.3396    9.6728 H   0  0  0  0  0  0
    5.5304   20.3816   10.4098 H   0  0  0  0  0  0
    5.7111   20.1821    8.6338 H   0  0  0  0  0  0
    4.9663   16.6130    9.8672 H   0  0  0  0  0  0
    4.3529   17.8822    8.7538 H   0  0  0  0  0  0
    4.1721   18.0817   10.5298 H   0  0  0  0  0  0
    9.1064   16.2328    0.8331 H   0  0  0  0  0  0
    9.7951   17.7229    1.5625 H   0  0  0  0  0  0
   11.6551   17.0135    6.0763 H   0  0  0  0  0  0
    9.7791   17.3662   17.4692 H   0  0  0  0  0  0
    7.8799   17.5035   17.4032 H   0  0  0  0  0  0
   12.1096   19.0727    7.6005 H   0  0  0  0  0  0
  1  4  1  0  0  0
  1 34  1  0  0  0
  1 36  1  0  0  0
  1 37  1  0  0  0
  2 25  1  0  0  0
  2  4  1  0  0  0
  2 38  1  0  0  0
  2 39  1  0  0  0
  3 30  2  0  0  0
  3 29  1  0  0  0
  3 26  1  0  0  0
  4 29  1  0  0  0
  4 40  1  0  0  0
  5  6  1  0  0  0
  5  7  1  0  0  0
  5 26  1  0  0  0
  5 41  1  0  0  0
  6 14  1  0  0  0
  6 31  1  0  0  0
  6 42  1  0  0  0
  7  8  1  0  0  0
  7 43  1  0  0  0
  7 44  1  0  0  0
  8  9  2  0  0  0
  8 10  1  0  0  0
  9 11  1  0  0  0
  9 45  1  0  0  0
 10 12  2  0  0  0
 10 46  1  0  0  0
 11 13  2  0  0  0
 11 47  1  0  0  0
 12 13  1  0  0  0
 12 48  1  0  0  0
 13 49  1  0  0  0
 14 27  1  0  0  0
 14 50  1  0  0  0
 14 51  1  0  0  0
 15 16  1  0  0  0
 15 27  1  0  0  0
 15 52  1  0  0  0
 15 53  1  0  0  0
 16 23  1  0  0  0
 16 24  1  0  0  0
 16 54  1  0  0  0
 17 18  2  0  0  0
 17 22  1  0  0  0
 17 35  1  0  0  0
 18 19  1  0  0  0
 18 55  1  0  0  0
 19 20  2  0  0  0
 19 56  1  0  0  0
 20 21  1  0  0  0
 20 28  1  0  0  0
 21 22  2  0  0  0
 21 57  1  0  0  0
 22 58  1  0  0  0
 23 59  1  0  0  0
 23 60  1  0  0  0
 23 61  1  0  0  0
 24 62  1  0  0  0
 24 63  1  0  0  0
 24 64  1  0  0  0
 25 34  1  0  0  0
 25 65  1  0  0  0
 25 66  1  0  0  0
 26 67  1  0  0  0
 27 35  1  0  0  0
 28 68  1  0  0  0
 28 69  1  0  0  0
 31 70  1  0  0  0
 32 35  2  0  0  0
 33 35  2  0  0  0
M  END
> <s_m_source_file>
../1hpv_ligand.sdf

> <i_m_source_file_index>
1

> <s_epik_input>
W0NIMl0xW0NIMl1PW0NIMl1bQ0BIXTFPQyg9TylbTkhdW0NAQEhdKFtDSDJdYzJbY0hdW2NIXVtjSF1bY0hdW2NIXTIpW0NASF0oW09IXSlbQ0gyXU4oW0NIMl1bQ0hdKFtDSDNdKVtDSDNdKVMoPU8pKD1PKWMzW2NIXVtjSF1jKFtOSDJdKVtjSF1bY0hdMw==

> <s_epik_cmdline>
J2VwaWtfYXBwJywgJy1pbWFlJywgJ2xpZ2FuZF9wcm8ubWFlJywgJy1vbWFlJywgJ2xpZ2FuZF9wcmVwLm1hZScsICctbXMnLCAnMScsICctcGgnLCAnNycsICctcGh0JywgJzAuNScsICctbnQn

> <r_lp_tautomer_probability>
1

> <r_epik_Ionization_Penalty>
  0.0000

> <r_epik_Ionization_Penalty_Charging>
  0.0000

> <r_epik_Ionization_Penalty_Neutral>
  0.0000

> <r_epik_State_Penalty>
 -0.0000

> <r_epik_Charging_Adjusted_Penalty>
0

> <i_epik_Tot_Q>
0

> <i_epik_Tot_abs_Q>
0

> <s_epik_Chemistry_Notes>
This compound has an ester and may undergo hydrolysis at high or low pH.

$$$$
