1hpx_ligand
                    3D
 Schrodinger Suite 2020-3.
 87 90  0  0  1  0            999 V2000
    6.8480    1.1810    6.1590 C   0  0  0  0  0  0
    6.3030    2.0170    7.1160 C   0  0  0  0  0  0
    6.8860    3.2730    7.3630 C   0  0  0  0  0  0
    7.9910    3.5920    6.6130 C   0  0  0  0  0  0
    8.4680    2.6490    5.6450 C   0  0  0  0  0  0
    6.3520    4.1700    8.3470 C   0  0  0  0  0  0
    7.0000    5.3880    8.5210 C   0  0  0  0  0  0
    8.1090    5.7150    7.7740 C   0  0  0  0  0  0
    8.6290    4.8460    6.8160 C   0  0  0  0  0  0
    5.1400    4.3750   10.3520 C   0  0  0  0  0  0
    4.0670    3.6830   11.1060 C   0  0  0  0  0  0
    1.9440    1.0010   10.8350 C   0  0  0  0  0  0
    3.7830    0.5420   12.4570 C   0  0  0  0  0  0
    5.3500    0.0820   14.2740 C   0  0  2  0  0  0
    4.7050   -0.1800   15.6420 C   0  0  1  0  0  0
    6.7750    0.6540   14.3470 C   0  0  0  0  0  0
    5.3390   -1.3860   16.3300 C   0  0  0  0  0  0
    5.3730   -3.8190   16.5060 C   0  0  1  0  0  0
    4.4270   -4.9930   16.2580 C   0  0  0  0  0  0
    3.5440   -2.6640   15.2240 C   0  0  0  0  0  0
    6.6530   -3.9790   15.7410 C   0  0  0  0  0  0
    9.0130   -4.6390   15.8920 C   0  0  0  0  0  0
    9.5560   -3.2490   15.5420 C   0  0  0  0  0  0
    9.0970   -5.5670   14.6780 C   0  0  0  0  0  0
    9.8800   -5.1830   17.0210 C   0  0  0  0  0  0
    3.0280    1.6030   11.6960 C   0  0  1  0  0  0
   -0.1580    2.0560   12.1600 C   0  0  0  0  0  0
    7.3720    0.9000   12.9760 C   0  0  0  0  0  0
    7.4010    2.1660   12.4260 C   0  0  0  0  0  0
    7.9490    2.3680   11.1710 C   0  0  0  0  0  0
    8.4650    1.3190   10.4460 C   0  0  0  0  0  0
    8.4370    0.0660   10.9930 C   0  0  0  0  0  0
    7.8990   -0.1460   12.2450 C   0  0  0  0  0  0
    7.9070    1.4590    5.4270 N   0  0  0  0  0  0
    3.9550    2.3840   10.8930 N   0  0  0  0  0  0
    4.4960    0.9820   13.4920 N   0  0  0  0  0  0
    4.7420   -2.5650   16.0640 N   0  0  0  0  0  0
    7.6370   -4.5750   16.4030 N   0  0  0  0  0  0
    5.2350    3.7910    9.0820 O   0  0  0  0  0  0
    4.9490    0.9340   16.4270 O   0  0  0  0  0  0
    3.3270    4.2970   11.8520 O   0  0  0  0  0  0
    6.3240   -1.2340   17.0450 O   0  0  0  0  0  0
    6.7460   -3.5740   14.5880 O   0  0  0  0  0  0
    3.7580   -0.6290   12.1110 O   0  0  0  0  0  0
    0.6680    0.4350   11.9930 S   0  0  0  0  0  0
    3.2630   -4.4400   14.9730 S   0  0  0  0  0  0
    6.3639    0.2177    5.9980 H   0  0  0  0  0  0
    5.4233    1.7033    7.6779 H   0  0  0  0  0  0
    9.3412    2.9206    5.0517 H   0  0  0  0  0  0
    6.6239    6.0949    9.2605 H   0  0  0  0  0  0
    8.5930    6.6782    7.9357 H   0  0  0  0  0  0
    9.5079    5.1228    6.2338 H   0  0  0  0  0  0
    6.0999    4.2665   10.8782 H   0  0  0  0  0  0
    4.8979    5.4429   10.2474 H   0  0  0  0  0  0
    1.5536    1.7666   10.1484 H   0  0  0  0  0  0
    2.3596    0.1648   10.2536 H   0  0  0  0  0  0
    5.4090   -0.8826   13.7486 H   0  0  0  0  0  0
    3.6143   -0.3017   15.5668 H   0  0  0  0  0  0
    6.7581    1.6127   14.8862 H   0  0  0  0  0  0
    7.4276   -0.0542   14.8786 H   0  0  0  0  0  0
    5.5927   -3.7598   17.5822 H   0  0  0  0  0  0
    5.0058   -5.8652   15.9201 H   0  0  0  0  0  0
    3.8994   -5.2421   17.1905 H   0  0  0  0  0  0
    2.6941   -2.1942   15.7407 H   0  0  0  0  0  0
    3.7225   -2.1489   14.2686 H   0  0  0  0  0  0
    9.4882   -2.5960   16.4246 H   0  0  0  0  0  0
    8.9625   -2.8194   14.7215 H   0  0  0  0  0  0
   10.6070   -3.3341   15.2288 H   0  0  0  0  0  0
    8.7038   -6.5586   14.9466 H   0  0  0  0  0  0
   10.1461   -5.6621   14.3611 H   0  0  0  0  0  0
    8.5015   -5.1473   13.8538 H   0  0  0  0  0  0
    9.5248   -6.1843   17.3062 H   0  0  0  0  0  0
    9.8162   -4.5103   17.8890 H   0  0  0  0  0  0
   10.9247   -5.2471   16.6827 H   0  0  0  0  0  0
    2.5571    2.2976   12.4071 H   0  0  0  0  0  0
   -1.0101    1.9640   12.8495 H   0  0  0  0  0  0
   -0.5177    2.3875   11.1747 H   0  0  0  0  0  0
    0.5565    2.7925   12.5563 H   0  0  0  0  0  0
    6.9910    3.0092   12.9818 H   0  0  0  0  0  0
    7.9720    3.3735   10.7509 H   0  0  0  0  0  0
    8.8879    1.4833    9.4549 H   0  0  0  0  0  0
    8.8448   -0.7753   10.4327 H   0  0  0  0  0  0
    7.8897   -1.1526   12.6630 H   0  0  0  0  0  0
    4.5571    1.8928   10.1144 H   0  0  0  0  0  0
    4.4336    2.0481   13.7557 H   0  0  0  0  0  0
    7.3882   -5.0328   17.3718 H   0  0  0  0  0  0
    4.5760    1.9202   16.1134 H   0  0  0  0  0  0
  1 34  2  0  0  0
  1  2  1  0  0  0
  1 47  1  0  0  0
  2  3  2  0  0  0
  2 48  1  0  0  0
  3  6  1  0  0  0
  3  4  1  0  0  0
  4  9  1  0  0  0
  4  5  2  0  0  0
  5 34  1  0  0  0
  5 49  1  0  0  0
  6  7  2  0  0  0
  6 39  1  0  0  0
  7  8  1  0  0  0
  7 50  1  0  0  0
  8  9  2  0  0  0
  8 51  1  0  0  0
  9 52  1  0  0  0
 10 39  1  0  0  0
 10 11  1  0  0  0
 10 53  1  0  0  0
 10 54  1  0  0  0
 11 41  2  0  0  0
 11 35  1  0  0  0
 12 26  1  0  0  0
 12 45  1  0  0  0
 12 55  1  0  0  0
 12 56  1  0  0  0
 13 26  1  0  0  0
 13 36  1  0  0  0
 13 44  2  0  0  0
 14 36  1  0  0  0
 14 16  1  0  0  0
 14 15  1  0  0  0
 14 57  1  0  0  0
 15 40  1  0  0  0
 15 17  1  0  0  0
 15 58  1  0  0  0
 16 28  1  0  0  0
 16 59  1  0  0  0
 16 60  1  0  0  0
 17 37  1  0  0  0
 17 42  2  0  0  0
 18 37  1  0  0  0
 18 19  1  0  0  0
 18 21  1  0  0  0
 18 61  1  0  0  0
 19 46  1  0  0  0
 19 62  1  0  0  0
 19 63  1  0  0  0
 20 37  1  0  0  0
 20 46  1  0  0  0
 20 64  1  0  0  0
 20 65  1  0  0  0
 21 38  1  0  0  0
 21 43  2  0  0  0
 22 38  1  0  0  0
 22 25  1  0  0  0
 22 24  1  0  0  0
 22 23  1  0  0  0
 23 66  1  0  0  0
 23 67  1  0  0  0
 23 68  1  0  0  0
 24 69  1  0  0  0
 24 70  1  0  0  0
 24 71  1  0  0  0
 25 72  1  0  0  0
 25 73  1  0  0  0
 25 74  1  0  0  0
 26 35  1  0  0  0
 26 75  1  0  0  0
 27 45  1  0  0  0
 27 76  1  0  0  0
 27 77  1  0  0  0
 27 78  1  0  0  0
 28 33  2  0  0  0
 28 29  1  0  0  0
 29 30  2  0  0  0
 29 79  1  0  0  0
 30 31  1  0  0  0
 30 80  1  0  0  0
 31 32  2  0  0  0
 31 81  1  0  0  0
 32 33  1  0  0  0
 32 82  1  0  0  0
 33 83  1  0  0  0
 35 84  1  0  0  0
 36 85  1  0  0  0
 38 86  1  0  0  0
 40 87  1  0  0  0
M  END
> <s_m_source_file>
../1hpx_ligand.sdf

> <i_m_source_file_index>
1

> <s_epik_input>
W2NIXTFbY0hdbltjSF1jKGMxMilbY0hdW2NIXVtjSF1jMk9bQ0gyXUMoPU8pW05IXVtDQEBIXShbQ0gyXVNbQ0gzXSlDKD1PKVtOSF1bQ0BASF0oW0NIMl1jM1tjSF1bY0hdW2NIXVtjSF1bY0hdMylbQ0BIXShbT0hdKUMoPU8pTjRbQ0gyXVNbQ0gyXVtDQEhdNEMoPU8pW05IXUMoW0NIM10pKFtDSDNdKVtDSDNd

> <s_epik_cmdline>
J2VwaWtfYXBwJywgJy1pbWFlJywgJ2xpZ2FuZF9wcm8ubWFlJywgJy1vbWFlJywgJ2xpZ2FuZF9wcmVwLm1hZScsICctbXMnLCAnMScsICctcGgnLCAnNycsICctcGh0JywgJzAuNScsICctbnQn

> <r_epik_Ionization_Penalty>
  0.0188

> <r_epik_Ionization_Penalty_Charging>
  0.0000

> <r_epik_Ionization_Penalty_Neutral>
  0.0188

> <r_epik_State_Penalty>
  0.0122

> <r_epik_Charging_Adjusted_Penalty>
0.0122105577054416

> <i_epik_Tot_Q>
0

> <i_epik_Tot_abs_Q>
0

> <s_epik_Chemistry_Notes>
This compound contains an acetal/aminal-like group ( X-CH(R)-Y where X, Y are N, S, or O) that may be acid/base labile, releasing an aldehyde.

$$$$
