1hq5_ligand
                    3D
 Schrodinger Suite 2020-3.
 26 25  0  0  1  0            999 V2000
   24.1900   12.9070   -6.6340 O   0  5  0  0  0  0
   23.2770   10.5560   -3.9420 N   0  3  0  0  0  0
   23.0380   11.4710   -5.0910 C   0  0  2  0  0  0
   24.3470   12.2210   -5.4990 C   0  0  0  0  0  0
   25.4030   12.2060   -4.9030 O   0  0  0  0  0  0
   21.9170   12.3870   -4.6300 C   0  0  0  0  0  0
   20.5470   12.3180   -5.7750 S   0  0  0  0  0  0
   19.4250   13.3270   -4.8170 C   0  0  0  0  0  0
   18.4440   14.0030   -5.7530 C   0  0  0  0  0  0
   17.3200   14.8040   -5.0520 B   0  5  0  0  0  0
   17.6150   16.2060   -4.9290 O   0  0  0  0  0  0
   16.1130   14.6930   -5.8120 O   0  0  0  0  0  0
   17.0360   14.2940   -3.7100 O   0  0  0  0  0  0
   24.0833    9.8520   -4.1955 H   0  0  0  0  0  0
   22.3565    9.9954   -3.7221 H   0  0  0  0  0  0
   23.5678   11.1443   -3.0592 H   0  0  0  0  0  0
   22.7207   10.9129   -5.9842 H   0  0  0  0  0  0
   21.5696   12.0696   -3.6357 H   0  0  0  0  0  0
   22.2874   13.4213   -4.5760 H   0  0  0  0  0  0
   18.8787   12.6920   -4.1040 H   0  0  0  0  0  0
   19.9962   14.0890   -4.2664 H   0  0  0  0  0  0
   18.9825   14.7128   -6.3982 H   0  0  0  0  0  0
   17.9491   13.2437   -6.3763 H   0  0  0  0  0  0
   17.8600   16.7971   -5.8238 H   0  0  0  0  0  0
   16.0919   15.0209   -6.8618 H   0  0  0  0  0  0
   17.8281   14.2827   -2.9469 H   0  0  0  0  0  0
  1  4  1  0  0  0
  2  3  1  0  0  0
  2 14  1  0  0  0
  2 15  1  0  0  0
  2 16  1  0  0  0
  3  4  1  0  0  0
  3  6  1  0  0  0
  3 17  1  0  0  0
  4  5  2  0  0  0
  6  7  1  0  0  0
  6 18  1  0  0  0
  6 19  1  0  0  0
  7  8  1  0  0  0
  8  9  1  0  0  0
  8 20  1  0  0  0
  8 21  1  0  0  0
  9 10  1  0  0  0
  9 22  1  0  0  0
  9 23  1  0  0  0
 10 11  1  0  0  0
 10 12  1  0  0  0
 10 13  1  0  0  0
 11 24  1  0  0  0
 12 25  1  0  0  0
 13 26  1  0  0  0
M  CHG  3   1  -1   2   1  10  -1
M  END
> <s_m_source_file>
../1hq5_ligand.sdf

> <i_m_source_file_index>
1

> <s_epik_input>
W09IXUMoPU8pW0NAQEhdKFtOSDMrXSlbQ0gyXVNbQ0gyXVtDSDJdW0ItXShbT0hdKShbT0hdKVtPSF0=

> <s_epik_cmdline>
J2VwaWtfYXBwJywgJy1pbWFlJywgJ2xpZ2FuZF9wcm8ubWFlJywgJy1vbWFlJywgJ2xpZ2FuZF9wcmVwLm1hZScsICctbXMnLCAnMScsICctcGgnLCAnNycsICctcGh0JywgJzAuNScsICctbnQn

> <r_lp_tautomer_probability>
1

> <r_epik_Ionization_Penalty>
  0.0082

> <r_epik_Ionization_Penalty_Charging>
  0.0082

> <r_epik_Ionization_Penalty_Neutral>
  0.0000

> <r_epik_State_Penalty>
 -0.0000

> <r_epik_Charging_Adjusted_Penalty>
0.00824962982093361

> <i_epik_Tot_Q>
-1

> <i_epik_Tot_abs_Q>
3

> <s_epik_Chemistry_Notes>
This compound contains a Lewis acid (boronic acid) which adds nucleophiles to form tetrahedral complexes, lowering the experimental pKa

$$$$
