1hrn_ligand
                    3D
 Schrodinger Suite 2020-3.
 85 87  0  0  1  0            999 V2000
   37.2660   60.5560   45.4540 C   0  0  1  0  0  0
   38.0350   59.4050   46.1530 C   0  0  2  0  0  0
   37.2880   58.9560   47.4240 C   0  0  0  0  0  0
   37.8250   57.5240   47.8780 C   0  0  0  0  0  0
   38.5940   57.4120   48.9840 C   0  0  0  0  0  0
   39.0220   56.1740   49.4070 C   0  0  0  0  0  0
   38.6480   55.0620   48.7560 C   0  0  0  0  0  0
   37.8760   55.1620   47.6640 C   0  0  0  0  0  0
   37.4370   56.3670   47.2250 C   0  0  0  0  0  0
   37.0550   61.5190   46.4760 O   0  0  0  0  0  0
   39.2980   59.9210   46.5790 O   0  0  0  0  0  0
   36.0200   60.9110   42.6980 C   0  0  0  0  0  0
   37.1200   61.8600   43.1630 C   0  0  1  0  0  0
   38.0270   61.2020   44.2660 C   0  0  0  0  0  0
   37.0240   62.8800   40.7610 C   0  0  0  0  0  0
   37.7670   63.8800   39.9700 C   0  0  0  0  0  0
   36.7350   64.3200   40.9160 C   0  0  0  0  0  0
   37.9350   62.3300   41.8910 C   0  0  0  0  0  0
   36.2790   59.8820   42.1120 O   0  0  0  0  0  0
   32.7120   61.3470   41.5830 C   0  0  1  0  0  0
   33.6300   60.4170   42.5220 C   0  0  2  0  0  0
   32.7450   59.9440   43.7480 C   0  0  0  0  0  0
   33.4850   58.9200   44.6630 C   0  0  0  0  0  0
   32.6170   58.5890   45.9230 C   0  0  0  0  0  0
   33.3850   57.5170   46.7800 C   0  0  0  0  0  0
   33.5630   56.1970   45.9630 C   0  0  0  0  0  0
   34.4440   56.5230   44.7310 C   0  0  0  0  0  0
   33.6900   57.5680   43.8820 C   0  0  0  0  0  0
   34.7450   61.2400   43.0080 N   0  0  0  0  0  0
   32.5050   62.6400   42.1880 O   0  0  0  0  0  0
   33.3300   61.5620   40.1730 C   0  0  2  0  0  0
   32.4600   62.5550   39.3510 C   0  0  0  0  0  0
   33.1100   62.8460   37.9900 C   0  0  0  0  0  0
   32.0620   63.4880   37.0740 C   0  0  0  0  0  0
   34.3270   63.7670   38.1090 C   0  0  0  0  0  0
   33.5700   60.3000   39.5330 O   0  0  0  0  0  0
   36.2952   60.2189   45.0617 H   0  0  0  0  0  0
   38.2095   58.5649   45.4647 H   0  0  0  0  0  0
   37.4626   59.6853   48.2288 H   0  0  0  0  0  0
   36.2102   58.8936   47.2131 H   0  0  0  0  0  0
   38.8760   58.3046   49.5425 H   0  0  0  0  0  0
   39.6710   56.0963   50.2793 H   0  0  0  0  0  0
   38.9696   54.0834   49.1125 H   0  0  0  0  0  0
   37.5969   54.2594   47.1204 H   0  0  0  0  0  0
   36.7787   56.4247   46.3581 H   0  0  0  0  0  0
   36.5276   61.2352   47.3987 H   0  0  0  0  0  0
   40.0133   60.3060   45.8373 H   0  0  0  0  0  0
   36.6458   62.7269   43.6464 H   0  0  0  0  0  0
   38.6866   61.9978   44.6424 H   0  0  0  0  0  0
   38.6303   60.4359   43.7569 H   0  0  0  0  0  0
   36.3939   62.0076   40.5330 H   0  0  0  0  0  0
   38.8406   63.8026   40.1966 H   0  0  0  0  0  0
   37.6042   63.6942   38.8981 H   0  0  0  0  0  0
   35.6828   64.5125   40.6594 H   0  0  0  0  0  0
   36.9193   64.6209   41.9579 H   0  0  0  0  0  0
   38.6335   63.1298   42.1780 H   0  0  0  0  0  0
   38.4998   61.4791   41.4824 H   0  0  0  0  0  0
   31.7076   60.9102   41.4817 H   0  0  0  0  0  0
   34.0898   59.5616   42.0054 H   0  0  0  0  0  0
   32.4768   60.8149   44.3642 H   0  0  0  0  0  0
   31.8289   59.4627   43.3749 H   0  0  0  0  0  0
   34.4434   59.3702   44.9608 H   0  0  0  0  0  0
   32.4625   59.5047   46.5126 H   0  0  0  0  0  0
   31.6430   58.1903   45.6029 H   0  0  0  0  0  0
   34.3766   57.9074   47.0526 H   0  0  0  0  0  0
   32.8127   57.2996   47.6939 H   0  0  0  0  0  0
   34.0509   55.4388   46.5931 H   0  0  0  0  0  0
   32.5774   55.8284   45.6425 H   0  0  0  0  0  0
   35.4100   56.9272   45.0677 H   0  0  0  0  0  0
   34.6135   55.6055   44.1483 H   0  0  0  0  0  0
   32.7098   57.1493   43.6103 H   0  0  0  0  0  0
   34.2738   57.7568   42.9690 H   0  0  0  0  0  0
   34.5448   62.1274   43.6264 H   0  0  0  0  0  0
   32.0724   62.7123   43.1968 H   0  0  0  0  0  0
   34.3548   61.9594   40.2157 H   0  0  0  0  0  0
   31.4642   62.1185   39.1839 H   0  0  0  0  0  0
   32.3579   63.4993   39.9059 H   0  0  0  0  0  0
   33.4694   61.8956   37.5686 H   0  0  0  0  0  0
   31.1899   62.8226   36.9918 H   0  0  0  0  0  0
   32.4962   63.6484   36.0761 H   0  0  0  0  0  0
   31.7478   64.4537   37.4967 H   0  0  0  0  0  0
   35.0758   63.3020   38.7671 H   0  0  0  0  0  0
   34.0156   64.7331   38.5330 H   0  0  0  0  0  0
   34.7640   63.9277   37.1124 H   0  0  0  0  0  0
   34.1754   59.5333   40.0386 H   0  0  0  0  0  0
  1 10  1  0  0  0
  1  2  1  0  0  0
  1 14  1  0  0  0
  1 37  1  0  0  0
  2 11  1  0  0  0
  2  3  1  0  0  0
  2 38  1  0  0  0
  3  4  1  0  0  0
  3 39  1  0  0  0
  3 40  1  0  0  0
  4  9  2  0  0  0
  4  5  1  0  0  0
  5  6  2  0  0  0
  5 41  1  0  0  0
  6  7  1  0  0  0
  6 42  1  0  0  0
  7  8  2  0  0  0
  7 43  1  0  0  0
  8  9  1  0  0  0
  8 44  1  0  0  0
  9 45  1  0  0  0
 10 46  1  0  0  0
 11 47  1  0  0  0
 12 19  2  0  0  0
 12 13  1  0  0  0
 12 29  1  0  0  0
 13 18  1  0  0  0
 13 14  1  0  0  0
 13 48  1  0  0  0
 14 49  1  0  0  0
 14 50  1  0  0  0
 15 18  1  0  0  0
 15 17  1  0  0  0
 15 16  1  0  0  0
 15 51  1  0  0  0
 16 17  1  0  0  0
 16 52  1  0  0  0
 16 53  1  0  0  0
 17 54  1  0  0  0
 17 55  1  0  0  0
 18 56  1  0  0  0
 18 57  1  0  0  0
 20 30  1  0  0  0
 20 21  1  0  0  0
 20 31  1  0  0  0
 20 58  1  0  0  0
 21 29  1  0  0  0
 21 22  1  0  0  0
 21 59  1  0  0  0
 22 23  1  0  0  0
 22 60  1  0  0  0
 22 61  1  0  0  0
 23 28  1  0  0  0
 23 24  1  0  0  0
 23 62  1  0  0  0
 24 25  1  0  0  0
 24 63  1  0  0  0
 24 64  1  0  0  0
 25 26  1  0  0  0
 25 65  1  0  0  0
 25 66  1  0  0  0
 26 27  1  0  0  0
 26 67  1  0  0  0
 26 68  1  0  0  0
 27 28  1  0  0  0
 27 69  1  0  0  0
 27 70  1  0  0  0
 28 71  1  0  0  0
 28 72  1  0  0  0
 29 73  1  0  0  0
 30 74  1  0  0  0
 31 36  1  0  0  0
 31 32  1  0  0  0
 31 75  1  0  0  0
 32 33  1  0  0  0
 32 76  1  0  0  0
 32 77  1  0  0  0
 33 35  1  0  0  0
 33 34  1  0  0  0
 33 78  1  0  0  0
 34 79  1  0  0  0
 34 80  1  0  0  0
 34 81  1  0  0  0
 35 82  1  0  0  0
 35 83  1  0  0  0
 35 84  1  0  0  0
 36 85  1  0  0  0
M  END
> <s_m_source_file>
../1hrn_ligand.sdf

> <i_m_source_file_index>
1

> <s_epik_input>
W2NIXTFbY0hdW2NIXVtjSF1bY0hdYzFbQ0gyXVtDQEhdKFtPSF0pW0NAQEhdKFtPSF0pW0NIMl1bQ0BASF0oW0NIMl1bQ0hdMltDSDJdW0NIMl0yKUMoPU8pW05IXVtDQEhdKFtDQEBIXShbT0hdKVtDQEBIXShbT0hdKVtDSDJdW0NIXShbQ0gzXSlbQ0gzXSlbQ0gyXVtDSF0zW0NIMl1bQ0gyXVtDSDJdW0NIMl1bQ0gyXTM=

> <s_epik_cmdline>
J2VwaWtfYXBwJywgJy1pbWFlJywgJ2xpZ2FuZF9wcm8ubWFlJywgJy1vbWFlJywgJ2xpZ2FuZF9wcmVwLm1hZScsICctbXMnLCAnMScsICctcGgnLCAnNycsICctcGh0JywgJzAuNScsICctbnQn

> <r_lp_tautomer_probability>
1

> <r_epik_Ionization_Penalty>
  0.0000

> <r_epik_Ionization_Penalty_Charging>
  0.0000

> <r_epik_Ionization_Penalty_Neutral>
  0.0000

> <r_epik_State_Penalty>
 -0.0000

> <r_epik_Charging_Adjusted_Penalty>
0

> <i_epik_Tot_Q>
0

> <i_epik_Tot_abs_Q>
0

$$$$
