1hs6_ligand
                    3D
 Schrodinger Suite 2020-3.
 46 46  0  0  1  0            999 V2000
   13.7120   41.1860   63.1450 N   0  3  0  0  0  0
   14.4500   41.7330   64.2550 C   0  0  2  0  0  0
   13.7490   42.9390   64.8800 C   0  0  0  0  0  0
   12.3000   42.7270   65.2830 C   0  0  0  0  0  0
   11.2970   43.5710   64.7990 C   0  0  0  0  0  0
   11.9340   41.7170   66.1700 C   0  0  0  0  0  0
    9.9900   43.4540   65.2270 C   0  0  0  0  0  0
   10.6140   41.5800   66.6000 C   0  0  0  0  0  0
    9.6390   42.4510   66.1350 C   0  0  0  0  0  0
   15.8810   42.0650   63.7950 C   0  0  2  0  0  0
   16.3690   41.0040   62.9990 O   0  0  0  0  0  0
   16.7410   42.1560   65.0630 C   0  0  0  0  0  0
   16.9320   41.1850   65.8030 O   0  0  0  0  0  0
   17.2800   43.3760   65.2500 N   0  0  0  0  0  0
   18.1570   43.6130   66.3900 C   0  0  1  0  0  0
   19.5680   43.5950   65.8550 C   0  0  0  0  0  0
   20.6690   42.8120   66.5760 C   0  0  0  0  0  0
   20.2100   41.7700   67.5770 C   0  0  0  0  0  0
   21.6920   42.2870   65.5900 C   0  0  0  0  0  0
   17.8400   45.0000   67.0530 C   0  0  0  0  0  0
   17.1600   45.8480   66.3480 O   0  5  0  0  0  0
   18.2060   45.2260   68.1920 O   0  0  0  0  0  0
   12.6880   40.9467   63.4678 H   0  0  0  0  0  0
   14.2081   40.2705   62.7904 H   0  0  0  0  0  0
   13.6765   41.9232   62.3294 H   0  0  0  0  0  0
   14.4564   40.9369   65.0141 H   0  0  0  0  0  0
   14.2812   43.2390   65.7947 H   0  0  0  0  0  0
   13.7495   43.7747   64.1647 H   0  0  0  0  0  0
   11.5522   44.3381   64.0679 H   0  0  0  0  0  0
   12.6913   41.0226   66.5339 H   0  0  0  0  0  0
    9.2315   44.1438   64.8569 H   0  0  0  0  0  0
   10.3485   40.7888   67.3012 H   0  0  0  0  0  0
    8.6080   42.3538   66.4750 H   0  0  0  0  0  0
   15.9379   42.9583   63.1556 H   0  0  0  0  0  0
   15.8865   40.7700   62.0385 H   0  0  0  0  0  0
   17.0604   44.1922   64.5460 H   0  0  0  0  0  0
   18.0014   42.8012   67.1158 H   0  0  0  0  0  0
   19.5702   43.1690   64.8408 H   0  0  0  0  0  0
   19.9608   44.6219   65.8222 H   0  0  0  0  0  0
   21.1680   43.5405   67.2320 H   0  0  0  0  0  0
   19.4716   42.2169   68.2589 H   0  0  0  0  0  0
   21.0741   41.4119   68.1558 H   0  0  0  0  0  0
   19.7512   40.9251   67.0425 H   0  0  0  0  0  0
   21.9795   43.0912   64.8968 H   0  0  0  0  0  0
   21.2582   41.4509   65.0219 H   0  0  0  0  0  0
   22.5812   41.9377   66.1353 H   0  0  0  0  0  0
  1  2  1  0  0  0
  1 23  1  0  0  0
  1 24  1  0  0  0
  1 25  1  0  0  0
  2  3  1  0  0  0
  2 10  1  0  0  0
  2 26  1  0  0  0
  3  4  1  0  0  0
  3 27  1  0  0  0
  3 28  1  0  0  0
  4  5  2  0  0  0
  4  6  1  0  0  0
  5  7  1  0  0  0
  5 29  1  0  0  0
  6  8  2  0  0  0
  6 30  1  0  0  0
  7  9  2  0  0  0
  7 31  1  0  0  0
  8  9  1  0  0  0
  8 32  1  0  0  0
  9 33  1  0  0  0
 10 11  1  0  0  0
 10 12  1  0  0  0
 10 34  1  0  0  0
 11 35  1  0  0  0
 12 13  2  0  0  0
 12 14  1  0  0  0
 14 15  1  0  0  0
 14 36  1  0  0  0
 15 16  1  0  0  0
 15 20  1  0  0  0
 15 37  1  0  0  0
 16 17  1  0  0  0
 16 38  1  0  0  0
 16 39  1  0  0  0
 17 18  1  0  0  0
 17 19  1  0  0  0
 17 40  1  0  0  0
 18 41  1  0  0  0
 18 42  1  0  0  0
 18 43  1  0  0  0
 19 44  1  0  0  0
 19 45  1  0  0  0
 19 46  1  0  0  0
 20 21  1  0  0  0
 20 22  2  0  0  0
M  CHG  2   1   1  21  -1
M  END
> <s_m_source_file>
../1hs6_ligand.sdf

> <i_m_source_file_index>
1

> <s_epik_input>
W0NIM11bQ0hdKFtDSDNdKVtDSDJdW0NAQEhdKEMoPU8pW09IXSlbTkhdQyg9TylbQ0BASF0oW09IXSlbQ0BIXShbTkgzK10pW0NIMl1jMVtjSF1bY0hdW2NIXVtjSF1bY0hdMQ==

> <s_epik_cmdline>
J2VwaWtfYXBwJywgJy1pbWFlJywgJ2xpZ2FuZF9wcm8ubWFlJywgJy1vbWFlJywgJ2xpZ2FuZF9wcmVwLm1hZScsICctbXMnLCAnMScsICctcGgnLCAnNycsICctcGh0JywgJzAuNScsICctbnQn

> <r_epik_Ionization_Penalty>
  0.0352

> <r_epik_Ionization_Penalty_Charging>
  0.0351

> <r_epik_Ionization_Penalty_Neutral>
  0.0000

> <r_epik_State_Penalty>
  0.0291

> <r_epik_Charging_Adjusted_Penalty>
0.0642799853861943

> <i_epik_Tot_Q>
0

> <i_epik_Tot_abs_Q>
2

$$$$
