1hsg_ligand
                    3D
 Schrodinger Suite 2020-3.
 93 97  0  0  1  0            999 V2000
    9.2800   23.7630    3.0040 N   0  0  1  0  0  0
    9.4980   23.9830    4.4590 C   0  0  0  0  0  0
   10.5910   24.9050    4.9620 C   0  0  1  0  0  0
   10.5910   24.8640    6.4660 C   0  0  0  0  0  0
   10.9370   23.8490    7.0570 O   0  0  0  0  0  0
   10.1930   25.9530    7.0940 N   0  0  0  0  0  0
   10.1450   26.2500    8.4900 C   0  0  0  0  0  0
    9.3790   27.5770    8.6410 C   0  0  0  0  0  0
   11.3980   26.3470    9.0740 C   0  0  0  0  0  0
    9.3640   25.2830    9.2680 C   0  0  0  0  0  0
   11.8190   24.2820    4.3550 N   0  3  1  0  0  0
   11.7530   23.7760    2.9610 C   0  0  0  0  0  0
   10.4400   23.1820    2.4930 C   0  0  0  0  0  0
   13.0830   24.9630    4.5520 C   0  0  0  0  0  0
   14.2030   24.0640    5.0780 C   0  0  1  0  0  0
   15.2420   24.8840    4.6340 O   0  0  0  0  0  0
   14.4400   23.7610    6.5690 C   0  0  0  0  0  0
   15.5730   22.8210    7.0050 C   0  0  1  0  0  0
   15.6440   22.6640    8.5340 C   0  0  0  0  0  0
   16.7330   21.7500    8.9610 C   0  0  0  0  0  0
   18.0580   21.9160    8.5530 C   0  0  0  0  0  0
   19.0370   21.0160    8.9470 C   0  0  0  0  0  0
   18.6730   19.9390    9.7580 C   0  0  0  0  0  0
   17.3470   19.7730   10.1760 C   0  0  0  0  0  0
   16.3740   20.6870    9.7720 C   0  0  0  0  0  0
   15.4470   21.4400    6.3730 C   0  0  0  0  0  0
   14.3670   20.8310    6.3970 O   0  0  0  0  0  0
   16.5830   20.9130    5.9240 N   0  0  0  0  0  0
   16.6920   19.5000    5.6040 C   0  0  2  0  0  0
   18.0670   18.9450    5.9360 C   0  0  2  0  0  0
   19.0610   19.9380    5.7290 O   0  0  0  0  0  0
   18.2260   17.7260    5.0570 C   0  0  0  0  0  0
   17.4760   17.9040    3.7600 C   0  0  0  0  0  0
   17.5000   17.3630    2.4960 C   0  0  0  0  0  0
   16.6130   17.8720    1.5410 C   0  0  0  0  0  0
   15.7220   18.9060    1.8650 C   0  0  0  0  0  0
   15.6830   19.4790    3.1290 C   0  0  0  0  0  0
   16.5040   19.0610    4.1280 C   0  0  0  0  0  0
    8.0330   23.1000    2.6040 C   0  0  0  0  0  0
    6.6660   23.7390    2.8760 C   0  0  0  0  0  0
    6.1580   24.8080    2.1240 C   0  0  0  0  0  0
    4.9110   25.4300    2.3000 N   0  0  0  0  0  0
    4.2070   24.8390    3.3480 C   0  0  0  0  0  0
    4.6540   23.7740    4.1360 C   0  0  0  0  0  0
    5.9050   23.2110    3.8970 C   0  0  0  0  0  0
    8.5862   24.4052    4.9066 H   0  0  0  0  0  0
    9.7342   23.0241    4.9435 H   0  0  0  0  0  0
   10.5004   25.9689    4.6977 H   0  0  0  0  0  0
    9.8614   26.7027    6.3605 H   0  0  0  0  0  0
    8.3879   27.4836    8.1730 H   0  0  0  0  0  0
    9.9423   28.3836    8.1490 H   0  0  0  0  0  0
    9.2595   27.8119    9.7090 H   0  0  0  0  0  0
   11.9316   25.3922    8.9577 H   0  0  0  0  0  0
   11.2870   26.5771   10.1439 H   0  0  0  0  0  0
   11.9699   27.1487    8.5839 H   0  0  0  0  0  0
    9.8453   24.2953    9.2145 H   0  0  0  0  0  0
    8.3461   25.2177    8.8561 H   0  0  0  0  0  0
    9.3148   25.6106   10.3169 H   0  0  0  0  0  0
   11.8522   23.3979    5.0087 H   0  0  0  0  0  0
   11.9652   24.5984    2.2620 H   0  0  0  0  0  0
   12.4976   22.9779    2.8250 H   0  0  0  0  0  0
   10.4724   22.1191    2.7746 H   0  0  0  0  0  0
   10.4424   23.2711    1.3966 H   0  0  0  0  0  0
   13.4272   25.3813    3.5947 H   0  0  0  0  0  0
   12.9518   25.7759    5.2813 H   0  0  0  0  0  0
   14.0899   23.0371    4.7002 H   0  0  0  0  0  0
   15.2668   25.2224    3.5876 H   0  0  0  0  0  0
   14.6593   24.6973    7.1031 H   0  0  0  0  0  0
   13.5388   23.2974    6.9967 H   0  0  0  0  0  0
   16.5014   23.2883    6.6448 H   0  0  0  0  0  0
   15.8253   23.6460    8.9954 H   0  0  0  0  0  0
   14.6929   22.2545    8.9051 H   0  0  0  0  0  0
   18.3256   22.7611    7.9187 H   0  0  0  0  0  0
   20.0715   21.1469    8.6295 H   0  0  0  0  0  0
   19.4300   19.2192   10.0693 H   0  0  0  0  0  0
   17.0761   18.9324   10.8149 H   0  0  0  0  0  0
   15.3392   20.5653   10.0922 H   0  0  0  0  0  0
   17.4527   21.5744    5.7967 H   0  0  0  0  0  0
   15.8570   19.1754    6.2423 H   0  0  0  0  0  0
   18.2328   18.6992    6.9953 H   0  0  0  0  0  0
   19.0405   20.8677    6.3166 H   0  0  0  0  0  0
   19.2919   17.5716    4.8336 H   0  0  0  0  0  0
   17.8293   16.8430    5.5794 H   0  0  0  0  0  0
   18.1917   16.5589    2.2447 H   0  0  0  0  0  0
   16.6143   17.4597    0.5320 H   0  0  0  0  0  0
   15.0379   19.2715    1.0992 H   0  0  0  0  0  0
   14.9757   20.2848    3.3251 H   0  0  0  0  0  0
    8.0295   22.9525    1.5139 H   0  0  0  0  0  0
    7.9591   22.1242    3.1063 H   0  0  0  0  0  0
    6.7921   25.1935    1.3257 H   0  0  0  0  0  0
    3.2201   25.2432    3.5732 H   0  0  0  0  0  0
    4.0242   23.3851    4.9361 H   0  0  0  0  0  0
    6.2710   22.3789    4.4984 H   0  0  0  0  0  0
  1 39  1  0  0  0
  1 13  1  0  0  0
  1  2  1  0  0  0
  2  3  1  0  0  0
  2 46  1  0  0  0
  2 47  1  0  0  0
  3 11  1  0  0  0
  3  4  1  0  0  0
  3 48  1  0  0  0
  4  6  1  0  0  0
  4  5  2  0  0  0
  6  7  1  0  0  0
  6 49  1  0  0  0
  7 10  1  0  0  0
  7  9  1  0  0  0
  7  8  1  0  0  0
  8 50  1  0  0  0
  8 51  1  0  0  0
  8 52  1  0  0  0
  9 53  1  0  0  0
  9 54  1  0  0  0
  9 55  1  0  0  0
 10 56  1  0  0  0
 10 57  1  0  0  0
 10 58  1  0  0  0
 11 14  1  0  0  0
 11 12  1  0  0  0
 11 59  1  0  0  0
 12 13  1  0  0  0
 12 60  1  0  0  0
 12 61  1  0  0  0
 13 62  1  0  0  0
 13 63  1  0  0  0
 14 15  1  0  0  0
 14 64  1  0  0  0
 14 65  1  0  0  0
 15 17  1  0  0  0
 15 16  1  0  0  0
 15 66  1  0  0  0
 16 67  1  0  0  0
 17 18  1  0  0  0
 17 68  1  0  0  0
 17 69  1  0  0  0
 18 26  1  0  0  0
 18 19  1  0  0  0
 18 70  1  0  0  0
 19 20  1  0  0  0
 19 71  1  0  0  0
 19 72  1  0  0  0
 20 25  2  0  0  0
 20 21  1  0  0  0
 21 22  2  0  0  0
 21 73  1  0  0  0
 22 23  1  0  0  0
 22 74  1  0  0  0
 23 24  2  0  0  0
 23 75  1  0  0  0
 24 25  1  0  0  0
 24 76  1  0  0  0
 25 77  1  0  0  0
 26 28  1  0  0  0
 26 27  2  0  0  0
 28 29  1  0  0  0
 28 78  1  0  0  0
 29 38  1  0  0  0
 29 30  1  0  0  0
 29 79  1  0  0  0
 30 32  1  0  0  0
 30 31  1  0  0  0
 30 80  1  0  0  0
 31 81  1  0  0  0
 32 33  1  0  0  0
 32 82  1  0  0  0
 32 83  1  0  0  0
 33 38  2  0  0  0
 33 34  1  0  0  0
 34 35  2  0  0  0
 34 84  1  0  0  0
 35 36  1  0  0  0
 35 85  1  0  0  0
 36 37  2  0  0  0
 36 86  1  0  0  0
 37 38  1  0  0  0
 37 87  1  0  0  0
 39 40  1  0  0  0
 39 88  1  0  0  0
 39 89  1  0  0  0
 40 45  2  0  0  0
 40 41  1  0  0  0
 41 42  2  0  0  0
 41 90  1  0  0  0
 42 43  1  0  0  0
 43 44  2  0  0  0
 43 91  1  0  0  0
 44 45  1  0  0  0
 44 92  1  0  0  0
 45 93  1  0  0  0
M  CHG  1  11   1
M  END
> <s_m_source_file>
../1hsg_ligand.sdf

> <i_m_source_file_index>
1

> <s_epik_input>
W2NIXTFbY0hdW2NIXW5bY0hdYzFbQ0gyXVtOQEgrXTJbQ0gyXVtDQEBIXShDKD1PKVtOSF1DKFtDSDNdKShbQ0gzXSlbQ0gzXSlbTkBASCtdKFtDSDJdW0NIMl0yKVtDSDJdW0NAQEhdKFtPSF0pW0NIMl1bQ0BASF0oW0NIMl1jM1tjSF1bY0hdW2NIXVtjSF1bY0hdMylDKD1PKVtOSF1bQ0BIXShbQ0BIXShbT0hdKVtDSDJdNCljKGM0NSlbY0hdW2NIXVtjSF1bY0hdNQ==

> <s_epik_cmdline>
J2VwaWtfYXBwJywgJy1pbWFlJywgJ2xpZ2FuZF9wcm8ubWFlJywgJy1vbWFlJywgJ2xpZ2FuZF9wcmVwLm1hZScsICctbXMnLCAnMScsICctcGgnLCAnNycsICctcGh0JywgJzAuNScsICctbnQn

> <r_epik_Ionization_Penalty>
  0.1676

> <r_epik_Ionization_Penalty_Charging>
  0.1567

> <r_epik_Ionization_Penalty_Neutral>
  0.0108

> <r_epik_State_Penalty>
  0.3908

> <r_epik_Charging_Adjusted_Penalty>
0.547583055920383

> <i_epik_Tot_Q>
1

> <i_epik_Tot_abs_Q>
1

$$$$
