1hte_ligand
                    3D
 Schrodinger Suite 2020-3.
 57 59  0  0  1  0            999 V2000
   10.1920   24.9880    3.7440 C   0  0  1  0  0  0
    7.8080   25.2740    3.4000 C   0  0  2  0  0  0
    7.1780   26.6710    3.5200 C   0  0  1  0  0  0
    5.8860   26.6480    2.6950 C   0  0  0  0  0  0
   10.0070   22.6620    2.5350 C   0  0  0  0  0  0
   11.1020   24.4610    1.3860 C   0  0  0  0  0  0
   11.1000   24.5730    4.8930 C   0  0  0  0  0  0
   10.0200   24.1590    2.4700 C   0  0  0  0  0  0
    4.9710   27.3210    0.5510 C   0  0  0  0  0  0
    7.5400   28.0510    5.7240 C   0  0  0  0  0  0
    7.1050   27.8090    7.1440 C   0  0  0  0  0  0
    9.1040   26.6490    8.0980 C   0  0  0  0  0  0
    8.3670   27.8260    7.9640 C   0  0  0  0  0  0
    8.7830   28.9400    8.6130 C   0  0  0  0  0  0
    9.9310   28.9340    9.3770 C   0  0  0  0  0  0
   10.6830   27.8300    9.4780 C   0  0  0  0  0  0
   10.2370   26.6550    8.8220 C   0  0  0  0  0  0
    7.4980   27.7670   -2.2250 C   0  0  0  0  0  0
    6.8100   28.4130   -3.2140 C   0  0  0  0  0  0
    5.5020   28.7160   -2.9810 C   0  0  0  0  0  0
    4.9240   28.3680   -1.7850 C   0  0  0  0  0  0
    5.5690   27.7170   -0.8010 C   0  0  0  0  0  0
    6.9150   27.4160   -1.0560 C   0  0  0  0  0  0
    8.8810   25.1710    4.3360 N   0  0  1  0  0  0
    7.0600   27.0320    4.9260 N   0  0  0  0  0  0
    6.0240   27.2380    1.5070 N   0  0  0  0  0  0
    4.8750   26.0970    3.0410 O   0  0  0  0  0  0
    8.2430   29.0150    5.4800 O   0  0  0  0  0  0
   10.8830   23.5290    5.4860 O   0  0  0  0  0  0
   11.9750   25.3320    5.3230 O   0  5  0  0  0  0
    8.4580   24.8950    1.7720 S   0  0  0  0  0  0
   10.6808   25.8899    3.3470 H   0  0  0  0  0  0
    7.0252   24.6187    3.8097 H   0  0  0  0  0  0
    7.7936   27.5068    3.1561 H   0  0  0  0  0  0
   10.9585   22.3050    2.9559 H   0  0  0  0  0  0
    9.8772   22.2522    1.5225 H   0  0  0  0  0  0
    9.1757   22.3300    3.1743 H   0  0  0  0  0  0
   12.0718   24.0586    1.7139 H   0  0  0  0  0  0
   11.1853   25.5486    1.2441 H   0  0  0  0  0  0
   10.8112   23.9885    0.4361 H   0  0  0  0  0  0
    4.2393   28.0801    0.8648 H   0  0  0  0  0  0
    4.4709   26.3456    0.4592 H   0  0  0  0  0  0
    6.4138   28.6056    7.4565 H   0  0  0  0  0  0
    6.5971   26.8356    7.2111 H   0  0  0  0  0  0
    8.7637   25.7309    7.6191 H   0  0  0  0  0  0
    8.2000   29.8572    8.5298 H   0  0  0  0  0  0
   10.2303   29.8391    9.9055 H   0  0  0  0  0  0
   11.6117   27.8350   10.0485 H   0  0  0  0  0  0
   10.8232   25.7399    8.9061 H   0  0  0  0  0  0
    8.5494   27.5272   -2.3834 H   0  0  0  0  0  0
    7.2909   28.6765   -4.1560 H   0  0  0  0  0  0
    4.9166   29.2328   -3.7414 H   0  0  0  0  0  0
    3.8797   28.6355   -1.6236 H   0  0  0  0  0  0
    7.5001   26.8913   -0.3007 H   0  0  0  0  0  0
    8.6505   24.3156    4.9881 H   0  0  0  0  0  0
    6.4646   26.4056    5.6066 H   0  0  0  0  0  0
    7.0084   27.6732    1.2801 H   0  0  0  0  0  0
  1  7  1  0  0  0
  1  8  1  0  0  0
  1 24  1  0  0  0
  1 32  1  0  0  0
  2  3  1  0  0  0
  2 24  1  0  0  0
  2 31  1  0  0  0
  2 33  1  0  0  0
  3  4  1  0  0  0
  3 25  1  0  0  0
  3 34  1  0  0  0
  4 26  1  0  0  0
  4 27  2  0  0  0
  5  8  1  0  0  0
  5 35  1  0  0  0
  5 36  1  0  0  0
  5 37  1  0  0  0
  6  8  1  0  0  0
  6 38  1  0  0  0
  6 39  1  0  0  0
  6 40  1  0  0  0
  7 29  2  0  0  0
  7 30  1  0  0  0
  8 31  1  0  0  0
  9 22  1  0  0  0
  9 26  1  0  0  0
  9 41  1  0  0  0
  9 42  1  0  0  0
 10 11  1  0  0  0
 10 25  1  0  0  0
 10 28  2  0  0  0
 11 13  1  0  0  0
 11 43  1  0  0  0
 11 44  1  0  0  0
 12 13  2  0  0  0
 12 17  1  0  0  0
 12 45  1  0  0  0
 13 14  1  0  0  0
 14 15  2  0  0  0
 14 46  1  0  0  0
 15 16  1  0  0  0
 15 47  1  0  0  0
 16 17  2  0  0  0
 16 48  1  0  0  0
 17 49  1  0  0  0
 18 19  2  0  0  0
 18 23  1  0  0  0
 18 50  1  0  0  0
 19 20  1  0  0  0
 19 51  1  0  0  0
 20 21  2  0  0  0
 20 52  1  0  0  0
 21 22  1  0  0  0
 21 53  1  0  0  0
 22 23  2  0  0  0
 23 54  1  0  0  0
 24 55  1  0  0  0
 25 56  1  0  0  0
 26 57  1  0  0  0
M  CHG  1  30  -1
M  END
> <s_m_source_file>
../1hte_ligand.sdf

> <i_m_source_file_index>
1

> <s_epik_input>
W2NIXTFbY0hdW2NIXVtjSF1bY0hdYzFbQ0gyXVtOSF1DKD1PKVtDQEhdKFtDQEBIXShTMilbTkgyK11bQ0BASF0oQyg9TylbT0hdKUMyKFtDSDNdKVtDSDNdKVtOSF1DKD1PKVtDSDJdYzNbY0hdW2NIXVtjSF1bY0hdW2NIXTM=

> <s_epik_cmdline>
J2VwaWtfYXBwJywgJy1pbWFlJywgJ2xpZ2FuZF9wcm8ubWFlJywgJy1vbWFlJywgJ2xpZ2FuZF9wcmVwLm1hZScsICctbXMnLCAnMScsICctcGgnLCAnNycsICctcGh0JywgJzAuNScsICctbnQn

> <r_lp_tautomer_probability>
1

> <r_epik_Ionization_Penalty>
  0.0017

> <r_epik_Ionization_Penalty_Charging>
  0.0001

> <r_epik_Ionization_Penalty_Neutral>
  0.0016

> <r_epik_State_Penalty>
 -0.0000

> <r_epik_Charging_Adjusted_Penalty>
7.27725162413656e-05

> <i_epik_Tot_Q>
-1

> <i_epik_Tot_abs_Q>
1

> <s_epik_Chemistry_Notes>
This compound contains an acetal/aminal-like group ( X-CH(R)-Y where X, Y are N, S, or O) that may be acid/base labile, releasing an aldehyde.

$$$$
