1htf_ligand
                    3D
 Schrodinger Suite 2020-3.
 79 82  0  0  1  0            999 V2000
   18.5650    4.3310    1.2190 C   0  0  0  0  0  0
   18.4580    3.2440    2.2930 C   0  0  2  0  0  0
   17.5490    5.1160    3.5890 C   0  0  2  0  0  0
   18.4590    5.3740    4.7890 C   0  0  1  0  0  0
   18.4600    6.8680    5.1520 C   0  0  0  0  0  0
   17.4080    4.3540    0.2220 C   0  0  0  0  0  0
   19.9170    4.3570    0.5260 C   0  0  0  0  0  0
   18.2080    1.8540    1.7090 C   0  0  0  0  0  0
   19.2390    0.0440    0.4170 C   0  0  1  0  0  0
   19.6500    8.7030    6.2390 C   0  0  0  0  0  0
   20.3880    0.0370   -0.5970 C   0  0  0  0  0  0
   18.8590    3.4980    6.2450 C   0  0  0  0  0  0
   18.2710    2.4920    7.2150 C   0  0  0  0  0  0
   17.6780    0.9130    5.3720 C   0  0  0  0  0  0
   18.3280    1.1290    6.5770 C   0  0  0  0  0  0
   19.0210    0.0980    7.1770 C   0  0  0  0  0  0
   19.0570   -1.1300    6.5620 C   0  0  0  0  0  0
   18.4150   -1.3290    5.3570 C   0  0  0  0  0  0
   17.7190   -0.3100    4.7600 C   0  0  0  0  0  0
   19.1970   -1.2060    1.3200 C   0  0  0  0  0  0
   18.2030   -4.8560   -0.7260 C   0  0  0  0  0  0
   19.5250   -4.4950   -0.5790 C   0  0  0  0  0  0
   19.8590   -3.3270    0.0720 C   0  0  0  0  0  0
   18.8680   -2.5060    0.5820 C   0  0  0  0  0  0
   17.5550   -2.8900    0.4210 C   0  0  0  0  0  0
   17.2110   -4.0550   -0.2240 C   0  0  0  0  0  0
   19.4510    9.8560    9.8350 C   0  0  0  0  0  0
   18.0980    9.7760   10.0850 C   0  0  0  0  0  0
   17.2430    9.3340    9.0970 C   0  0  0  0  0  0
   17.7420    8.9760    7.8590 C   0  0  0  0  0  0
   19.0980    9.0560    7.6010 C   0  0  0  0  0  0
   19.9470    9.4960    8.5990 C   0  0  0  0  0  0
   17.4500    3.7180    3.2440 N   0  0  1  0  0  0
   19.2830    1.2850    1.1750 N   0  0  0  0  0  0
   18.0550    4.4920    5.8910 N   0  0  0  0  0  0
   19.5100    7.3020    5.8370 N   0  0  0  0  0  0
   17.1220    1.3050    1.7020 O   0  0  0  0  0  0
   17.5570    7.6270    4.8440 O   0  0  0  0  0  0
   20.0010    3.3940    5.8350 O   0  0  0  0  0  0
   21.6500   -0.0540    0.0440 O   0  0  0  0  0  0
   18.3550    5.8670    2.1630 S   0  0  0  0  0  0
   19.3879    3.1059    2.8642 H   0  0  0  0  0  0
   16.5375    5.3593    3.9462 H   0  0  0  0  0  0
   19.5015    5.0929    4.5786 H   0  0  0  0  0  0
   17.4473    3.4518   -0.4061 H   0  0  0  0  0  0
   17.4899    5.2476   -0.4142 H   0  0  0  0  0  0
   16.4536    4.3791    0.7684 H   0  0  0  0  0  0
   20.0523    3.4289   -0.0488 H   0  0  0  0  0  0
   20.7138    4.4410    1.2797 H   0  0  0  0  0  0
   19.9636    5.2199   -0.1546 H   0  0  0  0  0  0
   18.2802    0.0573   -0.1220 H   0  0  0  0  0  0
   20.7160    8.9735    6.2604 H   0  0  0  0  0  0
   19.1231    9.3457    5.5184 H   0  0  0  0  0  0
   20.2777   -0.8259   -1.2702 H   0  0  0  0  0  0
   20.3637    0.9663   -1.1851 H   0  0  0  0  0  0
   18.8553    2.4965    8.1470 H   0  0  0  0  0  0
   17.2275    2.7616    7.4352 H   0  0  0  0  0  0
   17.1263    1.7291    4.9053 H   0  0  0  0  0  0
   19.5331    0.2556    8.1262 H   0  0  0  0  0  0
   19.5969   -1.9534    7.0296 H   0  0  0  0  0  0
   18.4617   -2.3056    4.8752 H   0  0  0  0  0  0
   17.2060   -0.4717    3.8120 H   0  0  0  0  0  0
   20.1780   -1.3466    1.7973 H   0  0  0  0  0  0
   18.4279   -1.0728    2.0951 H   0  0  0  0  0  0
   17.9460   -5.7807   -1.2427 H   0  0  0  0  0  0
   20.3101   -5.1363   -0.9795 H   0  0  0  0  0  0
   20.9068   -3.0489    0.1856 H   0  0  0  0  0  0
   16.7651   -2.2515    0.8166 H   0  0  0  0  0  0
   16.1640   -4.3372   -0.3343 H   0  0  0  0  0  0
   20.1294   10.2038   10.6141 H   0  0  0  0  0  0
   17.7047   10.0612   11.0607 H   0  0  0  0  0  0
   16.1728    9.2670    9.2929 H   0  0  0  0  0  0
   17.0623    8.6284    7.0810 H   0  0  0  0  0  0
   21.0182    9.5591    8.4077 H   0  0  0  0  0  0
   16.4463    3.5678    2.8197 H   0  0  0  0  0  0
   20.2420    1.8011    1.3301 H   0  0  0  0  0  0
   17.0991    4.6609    6.4085 H   0  0  0  0  0  0
   20.2898    6.5730    6.1026 H   0  0  0  0  0  0
   22.5718   -0.0698   -0.5560 H   0  0  0  0  0  0
  1  2  1  0  0  0
  1  6  1  0  0  0
  1  7  1  0  0  0
  1 41  1  0  0  0
  2  8  1  0  0  0
  2 33  1  0  0  0
  2 42  1  0  0  0
  3  4  1  0  0  0
  3 33  1  0  0  0
  3 41  1  0  0  0
  3 43  1  0  0  0
  4  5  1  0  0  0
  4 35  1  0  0  0
  4 44  1  0  0  0
  5 36  1  0  0  0
  5 38  2  0  0  0
  6 45  1  0  0  0
  6 46  1  0  0  0
  6 47  1  0  0  0
  7 48  1  0  0  0
  7 49  1  0  0  0
  7 50  1  0  0  0
  8 34  1  0  0  0
  8 37  2  0  0  0
  9 11  1  0  0  0
  9 20  1  0  0  0
  9 34  1  0  0  0
  9 51  1  0  0  0
 10 36  1  0  0  0
 10 31  1  0  0  0
 10 52  1  0  0  0
 10 53  1  0  0  0
 11 40  1  0  0  0
 11 54  1  0  0  0
 11 55  1  0  0  0
 12 13  1  0  0  0
 12 35  1  0  0  0
 12 39  2  0  0  0
 13 15  1  0  0  0
 13 56  1  0  0  0
 13 57  1  0  0  0
 14 19  2  0  0  0
 14 15  1  0  0  0
 14 58  1  0  0  0
 15 16  2  0  0  0
 16 17  1  0  0  0
 16 59  1  0  0  0
 17 18  2  0  0  0
 17 60  1  0  0  0
 18 19  1  0  0  0
 18 61  1  0  0  0
 19 62  1  0  0  0
 20 24  1  0  0  0
 20 63  1  0  0  0
 20 64  1  0  0  0
 21 22  2  0  0  0
 21 26  1  0  0  0
 21 65  1  0  0  0
 22 23  1  0  0  0
 22 66  1  0  0  0
 23 24  2  0  0  0
 23 67  1  0  0  0
 24 25  1  0  0  0
 25 26  2  0  0  0
 25 68  1  0  0  0
 26 69  1  0  0  0
 27 28  2  0  0  0
 27 32  1  0  0  0
 27 70  1  0  0  0
 28 29  1  0  0  0
 28 71  1  0  0  0
 29 30  2  0  0  0
 29 72  1  0  0  0
 30 31  1  0  0  0
 30 73  1  0  0  0
 31 32  2  0  0  0
 32 74  1  0  0  0
 33 75  1  0  0  0
 34 76  1  0  0  0
 35 77  1  0  0  0
 36 78  1  0  0  0
 40 79  1  0  0  0
M  END
> <s_m_source_file>
../1htf_ligand.sdf

> <i_m_source_file_index>
1

> <s_epik_input>
W2NIXTFbY0hdW2NIXVtjSF1bY0hdYzFbQ0gyXVtDQEhdKFtDSDJdW09IXSlbTkhdQyg9TylbQ0BASF0oQzIoW0NIM10pW0NIM10pW05IMitdW0NASF0oUzIpW0NAQEhdKEMoPU8pW05IXVtDSDJdYzNbY0hdW2NIXVtjSF1bY0hdW2NIXTMpW05IXUMoPU8pW0NIMl1jNFtjSF1bY0hdW2NIXVtjSF1bY0hdNA==

> <s_epik_cmdline>
J2VwaWtfYXBwJywgJy1pbWFlJywgJ2xpZ2FuZF9wcm8ubWFlJywgJy1vbWFlJywgJ2xpZ2FuZF9wcmVwLm1hZScsICctbXMnLCAnMScsICctcGgnLCAnNycsICctcGh0JywgJzAuNScsICctbnQn

> <r_lp_tautomer_probability>
1

> <r_epik_Ionization_Penalty>
  0.0000

> <r_epik_Ionization_Penalty_Charging>
  0.0000

> <r_epik_Ionization_Penalty_Neutral>
  0.0000

> <r_epik_State_Penalty>
 -0.0000

> <r_epik_Charging_Adjusted_Penalty>
0

> <i_epik_Tot_Q>
0

> <i_epik_Tot_abs_Q>
0

> <s_epik_Chemistry_Notes>
This compound contains an acetal/aminal-like group ( X-CH(R)-Y where X, Y are N, S, or O) that may be acid/base labile, releasing an aldehyde.

$$$$
