1htg_ligand
                    3D
 Schrodinger Suite 2020-3.
102107  0  0  1  0            999 V2000
   14.6060   22.9110    3.9500 C   0  0  0  0  0  0
   13.1600   24.0890    5.6660 C   0  0  1  0  0  0
   10.7590   24.1700    5.0360 C   0  0  0  0  0  0
    9.7720   24.8180    4.0710 C   0  0  1  0  0  0
    7.4120   25.1360    3.6000 C   0  0  2  0  0  0
    9.6910   24.0870    2.7320 C   0  0  0  0  0  0
    9.5600   22.5730    2.8480 C   0  0  0  0  0  0
   10.8230   24.4820    1.8210 C   0  0  0  0  0  0
    7.0150   26.5990    3.4860 C   0  0  1  0  0  0
    7.6770   27.9900    5.4610 C   0  0  0  0  0  0
    7.3930   28.1900    6.9650 C   0  0  0  0  0  0
    8.4930   27.5990    7.8310 C   0  0  0  0  0  0
    9.4140   28.4170    8.4500 C   0  0  0  0  0  0
   10.4820   27.8890    9.1340 C   0  0  0  0  0  0
   10.6470   26.5360    9.2250 C   0  0  0  0  0  0
    9.7280   25.6980    8.6400 C   0  0  0  0  0  0
    8.6420   26.2150    7.9540 C   0  0  0  0  0  0
    5.9170   26.6260    2.4350 C   0  0  0  0  0  0
    4.1350   25.5180    3.8700 C   0  0  0  0  0  0
   14.4750   24.1100    4.8540 C   0  0  2  0  0  0
    1.5390   27.1770    6.1210 C   0  0  0  0  0  0
    2.1460   26.5960    5.0090 C   0  0  0  0  0  0
    3.4800   26.1800    5.0810 C   0  0  0  0  0  0
    4.1870   26.3580    6.2780 C   0  0  0  0  0  0
    3.5910   26.9830    7.3650 C   0  0  0  0  0  0
    2.2650   27.3780    7.2960 C   0  0  0  0  0  0
   17.9590   16.7970    2.3830 C   0  0  0  0  0  0
   17.0060   17.7600    2.6320 C   0  0  0  0  0  0
   17.1510   18.5160    3.7780 C   0  0  0  0  0  0
   18.3060   18.3480    4.6790 C   0  0  0  0  0  0
   19.2170   17.3720    4.3960 C   0  0  0  0  0  0
   19.0120   16.5990    3.2730 C   0  0  0  0  0  0
   16.9870   19.7790    5.5020 C   0  0  0  0  0  0
   16.3360   20.7660    6.3940 C   0  0  0  0  0  0
   15.6440   23.9920    7.9000 C   0  0  0  0  0  0
   14.2620   23.9390    7.9320 C   0  0  0  0  0  0
   13.6800   23.0250    8.7780 C   0  0  0  0  0  0
   14.4340   22.1550    9.5490 C   0  0  0  0  0  0
   15.7990   22.1930    9.4810 C   0  0  0  0  0  0
   16.4060   23.1230    8.6650 C   0  0  0  0  0  0
   13.3420   24.7730    7.0300 C   0  0  0  0  0  0
   14.7620   21.7630    4.8710 C   0  0  0  0  0  0
   12.0070   24.5920    4.8720 N   0  0  0  0  0  0
    8.4180   24.9160    4.5850 N   0  0  1  0  0  0
    6.7490   27.2600    4.7920 N   0  0  0  0  0  0
    4.6600   26.3990    2.8020 N   0  0  0  0  0  0
   16.3540   19.4290    4.3900 N   0  3  0  0  0  0
   18.1690   19.1980    5.7280 N   0  0  0  0  0  0
   15.8970   21.8260    5.5120 N   0  0  0  0  0  0
   10.4360   23.3490    5.8760 O   0  0  0  0  0  0
    8.6890   28.4490    4.9480 O   0  0  0  0  0  0
    6.1610   26.8520    1.2570 O   0  0  0  0  0  0
   14.4550   25.2470    4.0590 O   0  0  0  0  0  0
   13.9050   20.9140    5.0660 O   0  0  0  0  0  0
    8.1400   24.6880    2.0090 S   0  0  0  0  0  0
   13.7018   22.8183    3.3305 H   0  0  0  0  0  0
   15.4845   23.0361    3.3000 H   0  0  0  0  0  0
   12.8642   23.0502    5.8741 H   0  0  0  0  0  0
   10.1332   25.8509    3.9581 H   0  0  0  0  0  0
    6.5540   24.6258    4.0621 H   0  0  0  0  0  0
   10.4806   22.1576    3.2838 H   0  0  0  0  0  0
    9.3999   22.1412    1.8490 H   0  0  0  0  0  0
    8.7049   22.3275    3.4949 H   0  0  0  0  0  0
   11.7744   24.1259    2.2428 H   0  0  0  0  0  0
   10.8515   25.5775    1.7253 H   0  0  0  0  0  0
   10.6700   24.0312    0.8294 H   0  0  0  0  0  0
    7.8377   27.2583    3.1721 H   0  0  0  0  0  0
    7.3211   29.2654    7.1847 H   0  0  0  0  0  0
    6.4450   27.6979    7.2278 H   0  0  0  0  0  0
    9.2930   29.4989    8.3959 H   0  0  0  0  0  0
   11.2033   28.5548    9.6078 H   0  0  0  0  0  0
   11.5030   26.1232    9.7588 H   0  0  0  0  0  0
    9.8550   24.6181    8.7167 H   0  0  0  0  0  0
    7.9055   25.5444    7.5112 H   0  0  0  0  0  0
    3.3634   24.8548    3.4519 H   0  0  0  0  0  0
    4.9555   24.9120    4.2818 H   0  0  0  0  0  0
   15.3593   24.1710    5.5054 H   0  0  0  0  0  0
    0.4919   27.4760    6.0728 H   0  0  0  0  0  0
    1.5826   26.4659    4.0850 H   0  0  0  0  0  0
    5.2144   26.0024    6.3562 H   0  0  0  0  0  0
    4.1666   27.1630    8.2730 H   0  0  0  0  0  0
    1.7892   27.8452    8.1582 H   0  0  0  0  0  0
   17.8886   16.1857    1.4833 H   0  0  0  0  0  0
   16.1701   17.9189    1.9508 H   0  0  0  0  0  0
   20.0816   17.2084    5.0392 H   0  0  0  0  0  0
   19.7122   15.7886    3.0705 H   0  0  0  0  0  0
   15.4907   20.2900    6.9125 H   0  0  0  0  0  0
   17.0644   21.1270    7.1350 H   0  0  0  0  0  0
   16.1399   24.7264    7.2652 H   0  0  0  0  0  0
   12.5928   22.9835    8.8443 H   0  0  0  0  0  0
   13.9398   21.4416   10.2085 H   0  0  0  0  0  0
   16.3999   21.4961   10.0652 H   0  0  0  0  0  0
   17.4938   23.1756    8.6209 H   0  0  0  0  0  0
   13.7900   25.7671    6.8848 H   0  0  0  0  0  0
   12.3630   24.8801    7.5201 H   0  0  0  0  0  0
   12.1645   25.3571    4.0975 H   0  0  0  0  0  0
    8.1532   23.9814    5.1011 H   0  0  0  0  0  0
    5.7589   27.1694    5.2627 H   0  0  0  0  0  0
    3.9657   26.9827    2.1797 H   0  0  0  0  0  0
   16.5260   22.7166    5.3669 H   0  0  0  0  0  0
   15.3010   25.4659    3.3908 H   0  0  0  0  0  0
   15.3983   19.7208    3.9302 H   0  0  0  0  0  0
  1 20  1  0  0  0
  1 42  1  0  0  0
  1 56  1  0  0  0
  1 57  1  0  0  0
  2 43  1  0  0  0
  2 41  1  0  0  0
  2 20  1  0  0  0
  2 58  1  0  0  0
  3  4  1  0  0  0
  3 50  2  0  0  0
  3 43  1  0  0  0
  4  6  1  0  0  0
  4 44  1  0  0  0
  4 59  1  0  0  0
  5 55  1  0  0  0
  5 44  1  0  0  0
  5  9  1  0  0  0
  5 60  1  0  0  0
  6  7  1  0  0  0
  6  8  1  0  0  0
  6 55  1  0  0  0
  7 61  1  0  0  0
  7 62  1  0  0  0
  7 63  1  0  0  0
  8 64  1  0  0  0
  8 65  1  0  0  0
  8 66  1  0  0  0
  9 18  1  0  0  0
  9 45  1  0  0  0
  9 67  1  0  0  0
 10 11  1  0  0  0
 10 51  2  0  0  0
 10 45  1  0  0  0
 11 12  1  0  0  0
 11 68  1  0  0  0
 11 69  1  0  0  0
 12 13  2  0  0  0
 12 17  1  0  0  0
 13 14  1  0  0  0
 13 70  1  0  0  0
 14 15  2  0  0  0
 14 71  1  0  0  0
 15 16  1  0  0  0
 15 72  1  0  0  0
 16 17  2  0  0  0
 16 73  1  0  0  0
 17 74  1  0  0  0
 18 52  2  0  0  0
 18 46  1  0  0  0
 19 46  1  0  0  0
 19 23  1  0  0  0
 19 75  1  0  0  0
 19 76  1  0  0  0
 20 53  1  0  0  0
 20 77  1  0  0  0
 21 22  2  0  0  0
 21 26  1  0  0  0
 21 78  1  0  0  0
 22 23  1  0  0  0
 22 79  1  0  0  0
 23 24  2  0  0  0
 24 25  1  0  0  0
 24 80  1  0  0  0
 25 26  2  0  0  0
 25 81  1  0  0  0
 26 82  1  0  0  0
 27 28  2  0  0  0
 27 32  1  0  0  0
 27 83  1  0  0  0
 28 29  1  0  0  0
 28 84  1  0  0  0
 29 30  2  0  0  0
 29 47  1  0  0  0
 30 31  1  0  0  0
 30 48  1  0  0  0
 31 32  2  0  0  0
 31 85  1  0  0  0
 32 86  1  0  0  0
 33 34  1  0  0  0
 33 48  2  0  0  0
 33 47  1  0  0  0
 34 49  1  0  0  0
 34 87  1  0  0  0
 34 88  1  0  0  0
 35 36  2  0  0  0
 35 40  1  0  0  0
 35 89  1  0  0  0
 36 37  1  0  0  0
 36 41  1  0  0  0
 37 38  2  0  0  0
 37 90  1  0  0  0
 38 39  1  0  0  0
 38 91  1  0  0  0
 39 40  2  0  0  0
 39 92  1  0  0  0
 40 93  1  0  0  0
 41 94  1  0  0  0
 41 95  1  0  0  0
 42 49  1  0  0  0
 42 54  2  0  0  0
 43 96  1  0  0  0
 44 97  1  0  0  0
 45 98  1  0  0  0
 46 99  1  0  0  0
 47102  1  0  0  0
 49100  1  0  0  0
 53101  1  0  0  0
M  CHG  1  47   1
M  END
> <s_m_source_file>
../1htg_ligand.sdf

> <i_m_source_file_index>
1

> <s_epik_input>
W2NIXTFbY0hdW2NIXVtjSF1jKGMxMiluYyhbbkhdMilbQ0gyXVtOSF1DKD1PKVtDSDJdW0NAQEhdKFtPSF0pW0NAQEhdKFtDSDJdYzNbY0hdW2NIXVtjSF1bY0hdW2NIXTMpW05IXUMoPU8pW0NAQEhdKEM0KFtDSDNdKVtDSDNdKVtOSDIrXVtDQEhdKFM0KVtDQEBIXShDKD1PKVtOSF1bQ0gyXWM1W2NIXVtjSF1bY0hdW2NIXVtjSF01KVtOSF1DKD1PKVtDSDJdYzZbY0hdW2NIXVtjSF1bY0hdW2NIXTY=

> <s_epik_cmdline>
J2VwaWtfYXBwJywgJy1pbWFlJywgJ2xpZ2FuZF9wcm8ubWFlJywgJy1vbWFlJywgJ2xpZ2FuZF9wcmVwLm1hZScsICctbXMnLCAnMScsICctcGgnLCAnNycsICctcGh0JywgJzAuNScsICctbnQn

> <r_epik_Ionization_Penalty>
  0.0000

> <r_epik_Ionization_Penalty_Charging>
  0.0000

> <r_epik_Ionization_Penalty_Neutral>
  0.0000

> <r_epik_State_Penalty>
  0.0001

> <r_epik_Charging_Adjusted_Penalty>
9.36914285887048e-05

> <i_epik_Tot_Q>
1

> <i_epik_Tot_abs_Q>
1

> <s_epik_Chemistry_Notes>
This compound has an imine and may undergo hydrolysis. This compound contains an acetal/aminal-like group ( X-CH(R)-Y where X, Y are N, S, or O) that may be acid/base labile, releasing an aldehyde.

$$$$
