1hvh_ligand
                    3D
 Schrodinger Suite 2020-3.
 84 88  0  0  1  0            999 V2000
   -7.7330   14.4990   28.2180 N   0  0  3  0  0  0
  -11.2400   18.8550   29.0110 O   0  0  0  0  0  0
   -9.3790   19.5570   27.1380 O   0  0  0  0  0  0
   -8.8930   15.9700   26.9000 N   0  0  3  0  0  0
   -9.5020   15.5750   29.1170 N   0  0  3  0  0  0
   -8.6900   15.3420   28.0700 C   0  0  1  0  0  0
   -9.4320   14.7210   30.3120 C   0  0  0  0  0  0
  -10.5910   16.5490   29.0450 C   0  0  1  0  0  0
  -10.1740   17.9870   28.7120 C   0  0  1  0  0  0
   -9.7940   18.2200   27.2600 C   0  0  2  0  0  0
   -8.6070   17.3900   26.8210 C   0  0  1  0  0  0
   -9.3460   15.2930   25.6750 C   0  0  0  0  0  0
   -9.7070   15.4360   31.6190 C   0  0  0  0  0  0
   -8.8250   16.4080   32.0800 C   0  0  0  0  0  0
   -8.9710   16.9290   33.3620 C   0  0  0  0  0  0
  -10.0620   16.4300   34.2300 C   0  0  0  0  0  0
  -10.9210   15.4600   33.7280 C   0  0  0  0  0  0
  -10.7260   14.9660   32.4490 C   0  0  0  0  0  0
  -11.6470   15.9100   28.1290 C   0  0  0  0  0  0
  -12.2980   14.7000   28.7690 C   0  0  0  0  0  0
  -12.0530   13.3850   28.3830 C   0  0  0  0  0  0
  -12.6890   12.2550   28.8830 C   0  0  0  0  0  0
  -13.6660   12.4320   29.8470 C   0  0  0  0  0  0
  -13.9490   13.7290   30.2650 C   0  0  0  0  0  0
  -13.2860   14.8480   29.7470 C   0  0  0  0  0  0
   -7.3650   17.6340   27.6830 C   0  0  0  0  0  0
   -6.1910   18.1030   26.8580 C   0  0  0  0  0  0
   -6.3830   19.0850   25.8940 C   0  0  0  0  0  0
   -5.4500   19.2490   24.8740 C   0  0  0  0  0  0
   -4.3210   18.4380   24.8280 C   0  0  0  0  0  0
   -4.1240   17.4530   25.7890 C   0  0  0  0  0  0
   -5.0590   17.2890   26.8070 C   0  0  0  0  0  0
   -8.7730   15.8140   24.3550 C   0  0  0  0  0  0
   -7.5240   16.1300   24.1720 C   0  0  0  0  0  0
   -6.9910   16.6000   22.9740 C   0  0  0  0  0  0
   -7.8840   16.7530   21.8110 C   0  0  0  0  0  0
   -9.2130   16.4150   22.0240 C   0  0  0  0  0  0
   -9.6460   15.9480   23.2680 C   0  0  0  0  0  0
   -7.1450   13.9590   27.2000 C   0  0  0  0  0  0
   -6.6260   13.4560   26.2810 N   0  0  0  0  0  0
   -7.3980   17.2570   20.4840 C   0  0  0  0  0  0
  -10.2490   16.9680   35.6200 C   0  0  0  0  0  0
   -5.9890   17.1720   20.3320 O   0  0  0  0  0  0
  -11.2680   16.2950   36.3510 O   0  0  0  0  0  0
   -7.4295   14.2494   29.1593 H   0  0  0  0  0  0
  -11.6810   18.8577   30.0187 H   0  0  0  0  0  0
  -10.0687   20.3730   27.3995 H   0  0  0  0  0  0
   -8.0229   16.1556   28.3910 H   0  0  0  0  0  0
  -10.1743   13.9134   30.2295 H   0  0  0  0  0  0
   -8.4248   14.2863   30.3936 H   0  0  0  0  0  0
  -10.9801   16.7003   30.0627 H   0  0  0  0  0  0
   -9.3166   18.2490   29.3494 H   0  0  0  0  0  0
  -10.6686   18.0239   26.6223 H   0  0  0  0  0  0
   -8.4307   17.6541   25.7678 H   0  0  0  0  0  0
   -9.0726   14.2285   25.7219 H   0  0  0  0  0  0
  -10.4384   15.3874   25.5864 H   0  0  0  0  0  0
   -8.0192   16.7616   31.4367 H   0  0  0  0  0  0
   -8.2883   17.6977   33.7241 H   0  0  0  0  0  0
  -11.7447   15.0895   34.3382 H   0  0  0  0  0  0
  -11.3898   14.1848   32.0785 H   0  0  0  0  0  0
  -12.4340   16.6460   27.9076 H   0  0  0  0  0  0
  -11.1718   15.5878   27.1907 H   0  0  0  0  0  0
  -11.2924   13.2272   27.6183 H   0  0  0  0  0  0
  -12.4262   11.2590   28.5265 H   0  0  0  0  0  0
  -14.1991   11.5792   30.2673 H   0  0  0  0  0  0
  -14.7161   13.8793   31.0247 H   0  0  0  0  0  0
  -13.5424   15.8435   30.1094 H   0  0  0  0  0  0
   -7.5869   18.4047   28.4359 H   0  0  0  0  0  0
   -7.0798   16.6994   28.1881 H   0  0  0  0  0  0
   -7.2633   19.7263   25.9364 H   0  0  0  0  0  0
   -5.6042   20.0127   24.1117 H   0  0  0  0  0  0
   -3.5868   18.5755   24.0342 H   0  0  0  0  0  0
   -3.2427   16.8130   25.7456 H   0  0  0  0  0  0
   -4.9064   16.5223   27.5666 H   0  0  0  0  0  0
   -6.8455   16.0188   25.0178 H   0  0  0  0  0  0
   -5.9328   16.8501   22.8978 H   0  0  0  0  0  0
   -9.9298   16.5152   21.2090 H   0  0  0  0  0  0
  -10.6947   15.6800   23.3962 H   0  0  0  0  0  0
   -7.8542   16.6645   19.6773 H   0  0  0  0  0  0
   -7.6803   18.3137   20.3674 H   0  0  0  0  0  0
   -9.3106   16.8609   36.1839 H   0  0  0  0  0  0
  -10.5259   18.0313   35.5675 H   0  0  0  0  0  0
   -5.5149   17.5122   19.3995 H   0  0  0  0  0  0
  -11.4976   16.6000   37.3826 H   0  0  0  0  0  0
  1 39  1  0  0  0
  1  6  1  0  0  0
  1 45  1  0  0  0
  2  9  1  0  0  0
  2 46  1  0  0  0
  3 10  1  0  0  0
  3 47  1  0  0  0
  4  6  1  0  0  0
  4 11  1  0  0  0
  4 12  1  0  0  0
  5  6  1  0  0  0
  5  7  1  0  0  0
  5  8  1  0  0  0
  6 48  1  0  0  0
  7 13  1  0  0  0
  7 49  1  0  0  0
  7 50  1  0  0  0
  8 19  1  0  0  0
  8  9  1  0  0  0
  8 51  1  0  0  0
  9 10  1  0  0  0
  9 52  1  0  0  0
 10 11  1  0  0  0
 10 53  1  0  0  0
 11 26  1  0  0  0
 11 54  1  0  0  0
 12 33  1  0  0  0
 12 55  1  0  0  0
 12 56  1  0  0  0
 13 18  2  0  0  0
 13 14  1  0  0  0
 14 15  2  0  0  0
 14 57  1  0  0  0
 15 16  1  0  0  0
 15 58  1  0  0  0
 16 42  1  0  0  0
 16 17  2  0  0  0
 17 18  1  0  0  0
 17 59  1  0  0  0
 18 60  1  0  0  0
 19 20  1  0  0  0
 19 61  1  0  0  0
 19 62  1  0  0  0
 20 25  2  0  0  0
 20 21  1  0  0  0
 21 22  2  0  0  0
 21 63  1  0  0  0
 22 23  1  0  0  0
 22 64  1  0  0  0
 23 24  2  0  0  0
 23 65  1  0  0  0
 24 25  1  0  0  0
 24 66  1  0  0  0
 25 67  1  0  0  0
 26 27  1  0  0  0
 26 68  1  0  0  0
 26 69  1  0  0  0
 27 32  2  0  0  0
 27 28  1  0  0  0
 28 29  2  0  0  0
 28 70  1  0  0  0
 29 30  1  0  0  0
 29 71  1  0  0  0
 30 31  2  0  0  0
 30 72  1  0  0  0
 31 32  1  0  0  0
 31 73  1  0  0  0
 32 74  1  0  0  0
 33 38  2  0  0  0
 33 34  1  0  0  0
 34 35  2  0  0  0
 34 75  1  0  0  0
 35 36  1  0  0  0
 35 76  1  0  0  0
 36 41  1  0  0  0
 36 37  2  0  0  0
 37 38  1  0  0  0
 37 77  1  0  0  0
 38 78  1  0  0  0
 39 40  3  0  0  0
 41 43  1  0  0  0
 41 79  1  0  0  0
 41 80  1  0  0  0
 42 44  1  0  0  0
 42 81  1  0  0  0
 42 82  1  0  0  0
 43 83  1  0  0  0
 44 84  1  0  0  0
M  END
> <s_m_source_file>
../1hvh_ligand.sdf

> <i_m_source_file_index>
1

> <s_epik_input>
W2NIXTFbY0hdYyhbQ0gyXVtPSF0pW2NIXVtjSF1jMVtDSDJdTjJbQ0hdKFtOSF1DI04pTihbQ0gyXWMzW2NIXVtjSF1jKFtjSF1bY0hdMylbQ0gyXVtPSF0pW0NASF0oW0NIMl1jNFtjSF1bY0hdW2NIXVtjSF1bY0hdNClbQ0BIXShbT0hdKVtDQEBIXShbT0hdKVtDQEhdMltDSDJdYzVbY0hdW2NIXVtjSF1bY0hdW2NIXTU=

> <s_epik_cmdline>
J2VwaWtfYXBwJywgJy1pbWFlJywgJ2xpZ2FuZF9wcm8ubWFlJywgJy1vbWFlJywgJ2xpZ2FuZF9wcmVwLm1hZScsICctbXMnLCAnMScsICctcGgnLCAnNycsICctcGh0JywgJzAuNScsICctbnQn

> <r_epik_Ionization_Penalty>
  0.0471

> <r_epik_Ionization_Penalty_Charging>
  0.0000

> <r_epik_Ionization_Penalty_Neutral>
  0.0471

> <r_epik_State_Penalty>
  0.0401

> <r_epik_Charging_Adjusted_Penalty>
0.040111295017183

> <i_epik_Tot_Q>
0

> <i_epik_Tot_abs_Q>
0

> <s_epik_Chemistry_Notes>
This compound contains an acetal/aminal-like group ( X-CH(R)-Y where X, Y are N, S, or O) that may be acid/base labile, releasing an aldehyde.

$$$$
