1hvi_ligand
                    3D
 Schrodinger Suite 2020-3.
116119  0  0  1  0            999 V2000
    3.4840    3.3320   10.7440 C   0  0  0  0  0  0
    3.3360    4.0240   11.7300 O   0  0  0  0  0  0
    3.9860    3.8340    9.5980 N   0  0  0  0  0  0
    4.1860    3.0150    8.3970 C   0  0  0  0  0  0
    4.3660    5.2480    9.5330 C   0  0  0  0  0  0
    5.8600    5.4890    9.5740 C   0  0  0  0  0  0
    6.5950    5.5550    8.3900 C   0  0  0  0  0  0
    6.4040    5.6810   10.7780 N   0  0  0  0  0  0
    7.9510    5.8620    8.4900 C   0  0  0  0  0  0
    7.7020    5.9660   10.8620 C   0  0  0  0  0  0
    8.5250    6.0770    9.7510 C   0  0  0  0  0  0
    3.1650    2.0470   10.7480 N   0  0  0  0  0  0
    2.7860    1.2980   11.9600 C   0  0  2  0  0  0
    3.9320    0.3780   12.3800 C   0  0  0  0  0  0
    4.0280   -0.7680   11.9740 O   0  0  0  0  0  0
    1.4690    0.5260   11.7400 C   0  0  0  0  0  0
    1.0410   -0.2680   12.9880 C   0  0  0  0  0  0
    0.3340    1.4570   11.2930 C   0  0  0  0  0  0
    4.8470    0.9370   13.1830 N   0  0  0  0  0  0
    6.1390    0.2940   13.5540 C   0  0  1  0  0  0
    7.2770    1.2140   13.0810 C   0  0  0  0  0  0
    7.5800    1.1300   11.6220 C   0  0  0  0  0  0
    7.1840    2.1490   10.7610 C   0  0  0  0  0  0
    7.4540    2.0420    9.3930 C   0  0  0  0  0  0
    8.1290    0.9290    8.8970 C   0  0  0  0  0  0
    8.5340   -0.0800    9.7830 C   0  0  0  0  0  0
    8.2550    0.0170   11.1470 C   0  0  0  0  0  0
    6.2460    0.1640   15.0760 C   0  0  2  0  0  0
    7.4730   -0.4920   15.3580 O   0  0  0  0  0  0
    5.1290   -0.1720   17.2130 O   0  0  0  0  0  0
    5.0120   -0.4270   15.8130 C   0  0  2  0  0  0
    5.7540   -2.8020   16.2090 N   0  0  0  0  0  0
    4.7380   -1.9260   15.5940 C   0  0  1  0  0  0
    3.3490   -2.3270   16.1270 C   0  0  0  0  0  0
    3.0720   -3.8220   16.0900 C   0  0  0  0  0  0
    3.2530   -4.6130   17.2380 C   0  0  0  0  0  0
    3.0440   -6.0000   17.1780 C   0  0  0  0  0  0
    2.6440   -6.6190   15.9850 C   0  0  0  0  0  0
    2.4420   -5.8380   14.8450 C   0  0  0  0  0  0
    2.6580   -4.4490   14.8990 C   0  0  0  0  0  0
    6.9100   -5.9190   16.6840 N   0  0  0  0  0  0
    7.4180   -4.5880   16.4020 C   0  0  2  0  0  0
    6.4320   -3.7550   15.5590 C   0  0  0  0  0  0
    6.3130   -3.9440   14.3650 O   0  0  0  0  0  0
    8.8090   -4.6600   15.7320 C   0  0  0  0  0  0
    9.3660   -3.2530   15.4630 C   0  0  0  0  0  0
    9.8170   -5.4220   16.5890 C   0  0  0  0  0  0
    6.7680   -6.3930   17.9220 C   0  0  0  0  0  0
    7.1430   -5.7640   18.9010 O   0  0  0  0  0  0
    6.2260   -7.6350   18.0230 N   0  0  0  0  0  0
    5.7910   -8.3920   16.8390 C   0  0  0  0  0  0
    5.9940   -8.2530   19.3450 C   0  0  0  0  0  0
    4.6440   -7.8700   19.9060 C   0  0  0  0  0  0
    3.5550   -8.7340   19.7710 C   0  0  0  0  0  0
    4.5550   -6.6680   20.5110 N   0  0  0  0  0  0
    2.3170   -8.3440   20.2820 C   0  0  0  0  0  0
    3.3550   -6.2960   20.9830 C   0  0  0  0  0  0
    2.2110   -7.0980   20.9010 C   0  0  0  0  0  0
    3.8573    1.9845    8.5970 H   0  0  0  0  0  0
    5.2524    3.0139    8.1274 H   0  0  0  0  0  0
    3.5982    3.4327    7.5663 H   0  0  0  0  0  0
    3.9933    5.6851    8.5949 H   0  0  0  0  0  0
    3.9279    5.7851   10.3872 H   0  0  0  0  0  0
    6.1264    5.3733    7.4228 H   0  0  0  0  0  0
    8.5630    5.9347    7.5910 H   0  0  0  0  0  0
    8.1378    6.1191   11.8493 H   0  0  0  0  0  0
    9.5818    6.3230    9.8547 H   0  0  0  0  0  0
    3.1944    1.5377    9.7734 H   0  0  0  0  0  0
    2.6224    2.0396   12.7558 H   0  0  0  0  0  0
    1.6638   -0.1939   10.9314 H   0  0  0  0  0  0
    1.8612   -0.9315   13.2995 H   0  0  0  0  0  0
    0.1515   -0.8705   12.7520 H   0  0  0  0  0  0
    0.8046    0.4308   13.8039 H   0  0  0  0  0  0
    0.6501    2.0188   10.4017 H   0  0  0  0  0  0
    0.0957    2.1604   12.1044 H   0  0  0  0  0  0
   -0.5574    0.8591   11.0525 H   0  0  0  0  0  0
    4.5960    1.9336   13.5752 H   0  0  0  0  0  0
    6.1716   -0.6999   13.0838 H   0  0  0  0  0  0
    7.0136    2.2610   13.2916 H   0  0  0  0  0  0
    8.2037    0.9547   13.6140 H   0  0  0  0  0  0
    6.6663    3.0255   11.1506 H   0  0  0  0  0  0
    7.1353    2.8319    8.7128 H   0  0  0  0  0  0
    8.3403    0.8431    7.8311 H   0  0  0  0  0  0
    9.0719   -0.9484    9.4026 H   0  0  0  0  0  0
    8.5645   -0.7735   11.8307 H   0  0  0  0  0  0
    6.3479    1.1627   15.5257 H   0  0  0  0  0  0
    8.4033   -0.1461   14.8837 H   0  0  0  0  0  0
    5.3264    0.8490   17.5715 H   0  0  0  0  0  0
    4.1249    0.1109   15.4473 H   0  0  0  0  0  0
    5.9996   -2.6947   17.2759 H   0  0  0  0  0  0
    4.8164   -2.1019   14.5110 H   0  0  0  0  0  0
    3.2523   -2.0078   17.1752 H   0  0  0  0  0  0
    2.5696   -1.8404   15.5222 H   0  0  0  0  0  0
    3.5561   -4.1486   18.1764 H   0  0  0  0  0  0
    3.1949   -6.6048   18.0722 H   0  0  0  0  0  0
    2.4924   -7.6978   15.9479 H   0  0  0  0  0  0
    2.1174   -6.3041   13.9147 H   0  0  0  0  0  0
    2.5022   -3.8476   14.0034 H   0  0  0  0  0  0
    6.6228   -6.5848   15.8568 H   0  0  0  0  0  0
    7.5013   -4.1271   17.3973 H   0  0  0  0  0  0
    8.6778   -5.2008   14.7832 H   0  0  0  0  0  0
    8.6521   -2.6879   14.8457 H   0  0  0  0  0  0
   10.3260   -3.3340   14.9321 H   0  0  0  0  0  0
    9.5185   -2.7302   16.4187 H   0  0  0  0  0  0
    9.4350   -6.4333   16.7923 H   0  0  0  0  0  0
    9.9674   -4.8889   17.5394 H   0  0  0  0  0  0
   10.7748   -5.4928   16.0527 H   0  0  0  0  0  0
    6.0240   -7.8173   15.9304 H   0  0  0  0  0  0
    4.7064   -8.5673   16.8940 H   0  0  0  0  0  0
    6.3173   -9.3574   16.8073 H   0  0  0  0  0  0
    6.0335   -9.3482   19.2498 H   0  0  0  0  0  0
    6.7709   -7.9178   20.0479 H   0  0  0  0  0  0
    3.6706   -9.6974   19.2744 H   0  0  0  0  0  0
    1.4500   -8.9994   20.1994 H   0  0  0  0  0  0
    3.2667   -5.3175   21.4552 H   0  0  0  0  0  0
    1.2601   -6.7575   21.3108 H   0  0  0  0  0  0
  1  2  2  0  0  0
  1  3  1  0  0  0
  1 12  1  0  0  0
  3  4  1  0  0  0
  3  5  1  0  0  0
  4 59  1  0  0  0
  4 60  1  0  0  0
  4 61  1  0  0  0
  5  6  1  0  0  0
  5 62  1  0  0  0
  5 63  1  0  0  0
  6  7  2  0  0  0
  6  8  1  0  0  0
  7  9  1  0  0  0
  7 64  1  0  0  0
  8 10  2  0  0  0
  9 11  2  0  0  0
  9 65  1  0  0  0
 10 11  1  0  0  0
 10 66  1  0  0  0
 11 67  1  0  0  0
 12 13  1  0  0  0
 12 68  1  0  0  0
 13 14  1  0  0  0
 13 16  1  0  0  0
 13 69  1  0  0  0
 14 15  2  0  0  0
 14 19  1  0  0  0
 16 17  1  0  0  0
 16 18  1  0  0  0
 16 70  1  0  0  0
 17 71  1  0  0  0
 17 72  1  0  0  0
 17 73  1  0  0  0
 18 74  1  0  0  0
 18 75  1  0  0  0
 18 76  1  0  0  0
 19 20  1  0  0  0
 19 77  1  0  0  0
 20 21  1  0  0  0
 20 28  1  0  0  0
 20 78  1  0  0  0
 21 22  1  0  0  0
 21 79  1  0  0  0
 21 80  1  0  0  0
 22 23  2  0  0  0
 22 27  1  0  0  0
 23 24  1  0  0  0
 23 81  1  0  0  0
 24 25  2  0  0  0
 24 82  1  0  0  0
 25 26  1  0  0  0
 25 83  1  0  0  0
 26 27  2  0  0  0
 26 84  1  0  0  0
 27 85  1  0  0  0
 28 29  1  0  0  0
 28 31  1  0  0  0
 28 86  1  0  0  0
 29 87  1  0  0  0
 30 31  1  0  0  0
 30 88  1  0  0  0
 31 33  1  0  0  0
 31 89  1  0  0  0
 32 43  1  0  0  0
 32 33  1  0  0  0
 32 90  1  0  0  0
 33 34  1  0  0  0
 33 91  1  0  0  0
 34 35  1  0  0  0
 34 92  1  0  0  0
 34 93  1  0  0  0
 35 36  2  0  0  0
 35 40  1  0  0  0
 36 37  1  0  0  0
 36 94  1  0  0  0
 37 38  2  0  0  0
 37 95  1  0  0  0
 38 39  1  0  0  0
 38 96  1  0  0  0
 39 40  2  0  0  0
 39 97  1  0  0  0
 40 98  1  0  0  0
 41 42  1  0  0  0
 41 48  1  0  0  0
 41 99  1  0  0  0
 42 43  1  0  0  0
 42 45  1  0  0  0
 42100  1  0  0  0
 43 44  2  0  0  0
 45 46  1  0  0  0
 45 47  1  0  0  0
 45101  1  0  0  0
 46102  1  0  0  0
 46103  1  0  0  0
 46104  1  0  0  0
 47105  1  0  0  0
 47106  1  0  0  0
 47107  1  0  0  0
 48 49  2  0  0  0
 48 50  1  0  0  0
 50 51  1  0  0  0
 50 52  1  0  0  0
 51108  1  0  0  0
 51109  1  0  0  0
 51110  1  0  0  0
 52 53  1  0  0  0
 52111  1  0  0  0
 52112  1  0  0  0
 53 54  2  0  0  0
 53 55  1  0  0  0
 54 56  1  0  0  0
 54113  1  0  0  0
 55 57  2  0  0  0
 56 58  2  0  0  0
 56114  1  0  0  0
 57 58  1  0  0  0
 57115  1  0  0  0
 58116  1  0  0  0
M  END
> <s_m_source_file>
../1hvi_ligand.sdf

> <i_m_source_file_index>
1

> <s_epik_input>
bjFbY0hdW2NIXVtjSF1bY0hdYzFbQ0gyXU4oW0NIM10pQyg9TylbTkhdW0NAQEhdKFtDSF0oW0NIM10pW0NIM10pQyg9TylbTkhdW0NAQEhdKFtDSDJdYzJbY0hdW2NIXVtjSF1bY0hdW2NIXTIpW0NASF0oW09IXSlbQ0BIXShbT0hdKVtDQEhdKFtDSDJdYzNbY0hdW2NIXVtjSF1bY0hdW2NIXTMpW05IXUMoPU8pW0NASF0oW0NIXShbQ0gzXSlbQ0gzXSlbTkhdQyg9TylOKFtDSDNdKVtDSDJdYzRbY0hdW2NIXVtjSF1bY0hdbjQ=

> <s_epik_cmdline>
J2VwaWtfYXBwJywgJy1pbWFlJywgJ2xpZ2FuZF9wcm8ubWFlJywgJy1vbWFlJywgJ2xpZ2FuZF9wcmVwLm1hZScsICctbXMnLCAnMScsICctcGgnLCAnNycsICctcGh0JywgJzAuNScsICctbnQn

> <r_lp_tautomer_probability>
1

> <r_epik_Ionization_Penalty>
  0.0005

> <r_epik_Ionization_Penalty_Charging>
  0.0000

> <r_epik_Ionization_Penalty_Neutral>
  0.0005

> <r_epik_State_Penalty>
 -0.0000

> <r_epik_Charging_Adjusted_Penalty>
0

> <i_epik_Tot_Q>
0

> <i_epik_Tot_abs_Q>
0

$$$$
