1hvj_ligand
                    3D
 Schrodinger Suite 2020-3.
115118  0  0  1  0            999 V2000
    3.5270    3.3460   10.7580 C   0  0  0  0  0  0
    3.3350    4.0090   11.7660 O   0  0  0  0  0  0
    4.0100    3.9090    9.6330 N   0  0  0  0  0  0
    4.2050    3.1390    8.4010 C   0  0  0  0  0  0
    4.4000    5.3360    9.6910 C   0  0  0  0  0  0
    5.8860    5.5810    9.5290 C   0  0  0  0  0  0
    6.4060    5.7230    8.2420 C   0  0  0  0  0  0
    6.6350    5.6520   10.6390 N   0  0  0  0  0  0
    7.7800    5.9410    8.1120 C   0  0  0  0  0  0
    7.9520    5.8470   10.5070 C   0  0  0  0  0  0
    8.5730    5.9970    9.2640 C   0  0  0  0  0  0
    3.2690    2.0450   10.7340 N   0  0  0  0  0  0
    2.9070    1.3460   11.9890 C   0  0  2  0  0  0
    4.0640    0.4480   12.4540 C   0  0  0  0  0  0
    4.1130   -0.6900   12.0270 O   0  0  0  0  0  0
    1.5820    0.5560   11.7900 C   0  0  0  0  0  0
    1.1550   -0.2390   13.0310 C   0  0  0  0  0  0
    0.4170    1.4470   11.3060 C   0  0  0  0  0  0
    4.9740    0.9640   13.3080 N   0  0  0  0  0  0
    6.1680    0.2220   13.7830 C   0  0  1  0  0  0
    7.4380    0.9690   13.4190 C   0  0  0  0  0  0
    7.6880    0.9710   11.9480 C   0  0  0  0  0  0
    7.2460    2.0350   11.1560 C   0  0  0  0  0  0
    7.4670    2.0110    9.7730 C   0  0  0  0  0  0
    8.1230    0.9320    9.1940 C   0  0  0  0  0  0
    8.5720   -0.1250    9.9970 C   0  0  0  0  0  0
    8.3570   -0.1110   11.3790 C   0  0  0  0  0  0
    6.2000    0.1220   15.2830 C   0  0  0  0  0  0
    5.1250   -0.2650   17.3020 O   0  0  0  0  0  0
    4.9470   -0.4390   15.9060 C   0  0  2  0  0  0
    5.8120   -2.7360   16.1800 N   0  0  0  0  0  0
    4.7250   -1.9340   15.6160 C   0  0  1  0  0  0
    3.3720   -2.4220   16.1650 C   0  0  0  0  0  0
    3.1250   -3.9070   16.0270 C   0  0  0  0  0  0
    3.3910   -4.7760   17.0980 C   0  0  0  0  0  0
    3.1550   -6.1500   16.9550 C   0  0  0  0  0  0
    2.6560   -6.6690   15.7520 C   0  0  0  0  0  0
    2.3840   -5.8090   14.6860 C   0  0  0  0  0  0
    2.6190   -4.4280   14.8220 C   0  0  0  0  0  0
    7.0530   -5.8530   16.7090 N   0  0  0  0  0  0
    7.4760   -4.4810   16.3820 C   0  0  2  0  0  0
    6.4510   -3.7120   15.5290 C   0  0  0  0  0  0
    6.2670   -3.9610   14.3500 O   0  0  0  0  0  0
    8.8220   -4.4670   15.6440 C   0  0  0  0  0  0
    9.2900   -3.0270   15.3250 C   0  0  0  0  0  0
    9.9000   -5.1910   16.4690 C   0  0  0  0  0  0
    6.9290   -6.3640   17.9260 C   0  0  0  0  0  0
    7.2550   -5.7600   18.9360 O   0  0  0  0  0  0
    6.4020   -7.6110   17.9990 N   0  0  0  0  0  0
    6.0120   -8.3800   16.8120 C   0  0  0  0  0  0
    6.1420   -8.2340   19.2990 C   0  0  0  0  0  0
    4.8150   -7.8110   19.8750 C   0  0  0  0  0  0
    3.7140   -8.6790   19.8170 C   0  0  0  0  0  0
    4.7670   -6.5870   20.4230 N   0  0  0  0  0  0
    2.5000   -8.2420   20.3570 C   0  0  0  0  0  0
    3.5920   -6.1840   20.9340 C   0  0  0  0  0  0
    2.4320   -6.9690   20.9320 C   0  0  0  0  0  0
    3.8569    2.1069    8.5547 H   0  0  0  0  0  0
    5.2734    3.1305    8.1392 H   0  0  0  0  0  0
    3.6311    3.6018    7.5847 H   0  0  0  0  0  0
    3.8925    5.8878    8.8861 H   0  0  0  0  0  0
    4.1080    5.7567   10.6645 H   0  0  0  0  0  0
    5.7606    5.6657    7.3655 H   0  0  0  0  0  0
    8.2284    6.0658    7.1264 H   0  0  0  0  0  0
    8.5662    5.8907   11.4064 H   0  0  0  0  0  0
    9.6493    6.1539    9.1933 H   0  0  0  0  0  0
    3.3228    1.4853    9.7885 H   0  0  0  0  0  0
    2.7559    2.1164   12.7594 H   0  0  0  0  0  0
    1.8027   -0.1765   10.9996 H   0  0  0  0  0  0
    1.9908   -0.8699   13.3677 H   0  0  0  0  0  0
    0.2932   -0.8750   12.7804 H   0  0  0  0  0  0
    0.8749    0.4581   13.8345 H   0  0  0  0  0  0
    0.7327    2.0124   10.4168 H   0  0  0  0  0  0
    0.1351    2.1482   12.1053 H   0  0  0  0  0  0
   -0.4465    0.8150   11.0512 H   0  0  0  0  0  0
    4.7927    1.9928   13.6526 H   0  0  0  0  0  0
    6.0910   -0.7688   13.3115 H   0  0  0  0  0  0
    7.3575    2.0138   13.7535 H   0  0  0  0  0  0
    8.2981    0.4916   13.9113 H   0  0  0  0  0  0
    6.7313    2.8801   11.6131 H   0  0  0  0  0  0
    7.1245    2.8384    9.1515 H   0  0  0  0  0  0
    8.2882    0.9076    8.1169 H   0  0  0  0  0  0
    9.0937   -0.9660    9.5403 H   0  0  0  0  0  0
    8.7075   -0.9341   12.0017 H   0  0  0  0  0  0
    7.0277   -0.5347   15.5891 H   0  0  0  0  0  0
    6.3476    1.1231   15.7142 H   0  0  0  0  0  0
    5.2984    0.7404   17.7132 H   0  0  0  0  0  0
    4.0648    0.1156   15.5536 H   0  0  0  0  0  0
    6.1547   -2.5518   17.2089 H   0  0  0  0  0  0
    4.7591   -2.0930   14.5281 H   0  0  0  0  0  0
    3.3067   -2.1901   17.2383 H   0  0  0  0  0  0
    2.5551   -1.9156   15.6301 H   0  0  0  0  0  0
    3.7798   -4.3829   18.0374 H   0  0  0  0  0  0
    3.3616   -6.8222   17.7878 H   0  0  0  0  0  0
    2.4810   -7.7399   15.6492 H   0  0  0  0  0  0
    1.9905   -6.2064   13.7504 H   0  0  0  0  0  0
    2.4077   -3.7580   13.9886 H   0  0  0  0  0  0
    6.8054   -6.5591   15.9027 H   0  0  0  0  0  0
    7.5562   -4.0176   17.3764 H   0  0  0  0  0  0
    8.6695   -5.0024   14.6953 H   0  0  0  0  0  0
    8.5171   -2.5125   14.7352 H   0  0  0  0  0  0
   10.2262   -3.0649   14.7488 H   0  0  0  0  0  0
    9.4594   -2.4800   16.2642 H   0  0  0  0  0  0
    9.5641   -6.2140   16.6939 H   0  0  0  0  0  0
   10.0699   -4.6458   17.4092 H   0  0  0  0  0  0
   10.8368   -5.2308   15.8938 H   0  0  0  0  0  0
    6.2585   -7.8065   15.9063 H   0  0  0  0  0  0
    4.9296   -8.5738   16.8400 H   0  0  0  0  0  0
    6.5555   -9.3363   16.7998 H   0  0  0  0  0  0
    6.1333   -9.3282   19.1860 H   0  0  0  0  0  0
    6.9313   -7.9449   20.0086 H   0  0  0  0  0  0
    3.8024   -9.6663   19.3637 H   0  0  0  0  0  0
    1.6198   -8.8843   20.3300 H   0  0  0  0  0  0
    3.5381   -5.1889   21.3756 H   0  0  0  0  0  0
    1.5033   -6.5985   21.3660 H   0  0  0  0  0  0
  1  2  2  0  0  0
  1  3  1  0  0  0
  1 12  1  0  0  0
  3  4  1  0  0  0
  3  5  1  0  0  0
  4 58  1  0  0  0
  4 59  1  0  0  0
  4 60  1  0  0  0
  5  6  1  0  0  0
  5 61  1  0  0  0
  5 62  1  0  0  0
  6  7  2  0  0  0
  6  8  1  0  0  0
  7  9  1  0  0  0
  7 63  1  0  0  0
  8 10  2  0  0  0
  9 11  2  0  0  0
  9 64  1  0  0  0
 10 11  1  0  0  0
 10 65  1  0  0  0
 11 66  1  0  0  0
 12 13  1  0  0  0
 12 67  1  0  0  0
 13 14  1  0  0  0
 13 16  1  0  0  0
 13 68  1  0  0  0
 14 15  2  0  0  0
 14 19  1  0  0  0
 16 17  1  0  0  0
 16 18  1  0  0  0
 16 69  1  0  0  0
 17 70  1  0  0  0
 17 71  1  0  0  0
 17 72  1  0  0  0
 18 73  1  0  0  0
 18 74  1  0  0  0
 18 75  1  0  0  0
 19 20  1  0  0  0
 19 76  1  0  0  0
 20 21  1  0  0  0
 20 28  1  0  0  0
 20 77  1  0  0  0
 21 22  1  0  0  0
 21 78  1  0  0  0
 21 79  1  0  0  0
 22 23  2  0  0  0
 22 27  1  0  0  0
 23 24  1  0  0  0
 23 80  1  0  0  0
 24 25  2  0  0  0
 24 81  1  0  0  0
 25 26  1  0  0  0
 25 82  1  0  0  0
 26 27  2  0  0  0
 26 83  1  0  0  0
 27 84  1  0  0  0
 28 30  1  0  0  0
 28 85  1  0  0  0
 28 86  1  0  0  0
 29 30  1  0  0  0
 29 87  1  0  0  0
 30 32  1  0  0  0
 30 88  1  0  0  0
 31 42  1  0  0  0
 31 32  1  0  0  0
 31 89  1  0  0  0
 32 33  1  0  0  0
 32 90  1  0  0  0
 33 34  1  0  0  0
 33 91  1  0  0  0
 33 92  1  0  0  0
 34 35  2  0  0  0
 34 39  1  0  0  0
 35 36  1  0  0  0
 35 93  1  0  0  0
 36 37  2  0  0  0
 36 94  1  0  0  0
 37 38  1  0  0  0
 37 95  1  0  0  0
 38 39  2  0  0  0
 38 96  1  0  0  0
 39 97  1  0  0  0
 40 41  1  0  0  0
 40 47  1  0  0  0
 40 98  1  0  0  0
 41 42  1  0  0  0
 41 44  1  0  0  0
 41 99  1  0  0  0
 42 43  2  0  0  0
 44 45  1  0  0  0
 44 46  1  0  0  0
 44100  1  0  0  0
 45101  1  0  0  0
 45102  1  0  0  0
 45103  1  0  0  0
 46104  1  0  0  0
 46105  1  0  0  0
 46106  1  0  0  0
 47 48  2  0  0  0
 47 49  1  0  0  0
 49 50  1  0  0  0
 49 51  1  0  0  0
 50107  1  0  0  0
 50108  1  0  0  0
 50109  1  0  0  0
 51 52  1  0  0  0
 51110  1  0  0  0
 51111  1  0  0  0
 52 53  2  0  0  0
 52 54  1  0  0  0
 53 55  1  0  0  0
 53112  1  0  0  0
 54 56  2  0  0  0
 55 57  2  0  0  0
 55113  1  0  0  0
 56 57  1  0  0  0
 56114  1  0  0  0
 57115  1  0  0  0
M  END
> <s_m_source_file>
../1hvj_ligand.sdf

> <i_m_source_file_index>
1

> <s_epik_input>
bjFbY0hdW2NIXVtjSF1bY0hdYzFbQ0gyXU4oW0NIM10pQyg9TylbTkhdW0NAQEhdKFtDSF0oW0NIM10pW0NIM10pQyg9TylbTkhdW0NAQEhdKFtDSDJdYzJbY0hdW2NIXVtjSF1bY0hdW2NIXTIpW0NIMl1bQ0BIXShbT0hdKVtDQEhdKFtDSDJdYzNbY0hdW2NIXVtjSF1bY0hdW2NIXTMpW05IXUMoPU8pW0NASF0oW0NIXShbQ0gzXSlbQ0gzXSlbTkhdQyg9TylOKFtDSDNdKVtDSDJdYzRbY0hdW2NIXVtjSF1bY0hdbjQ=

> <s_epik_cmdline>
J2VwaWtfYXBwJywgJy1pbWFlJywgJ2xpZ2FuZF9wcm8ubWFlJywgJy1vbWFlJywgJ2xpZ2FuZF9wcmVwLm1hZScsICctbXMnLCAnMScsICctcGgnLCAnNycsICctcGh0JywgJzAuNScsICctbnQn

> <r_lp_tautomer_probability>
1

> <r_epik_Ionization_Penalty>
  0.0005

> <r_epik_Ionization_Penalty_Charging>
  0.0000

> <r_epik_Ionization_Penalty_Neutral>
  0.0005

> <r_epik_State_Penalty>
 -0.0000

> <r_epik_Charging_Adjusted_Penalty>
0

> <i_epik_Tot_Q>
0

> <i_epik_Tot_abs_Q>
0

$$$$
