1hvl_ligand
                    3D
 Schrodinger Suite 2020-3.
116119  0  0  1  0            999 V2000
    3.3750    3.2130   10.8020 C   0  0  0  0  0  0
    3.0890    3.9150   11.7510 O   0  0  0  0  0  0
    3.9220    3.7490    9.7000 N   0  0  0  0  0  0
    4.2730    2.9460    8.5250 C   0  0  0  0  0  0
    4.2610    5.1730    9.7270 C   0  0  0  0  0  0
    5.7350    5.4640    9.9150 C   0  0  0  0  0  0
    6.5140    5.7190    8.7930 C   0  0  0  0  0  0
    6.2050    5.5480   11.1550 N   0  0  0  0  0  0
    7.8330    6.1030    9.0050 C   0  0  0  0  0  0
    7.4610    5.9250   11.3580 C   0  0  0  0  0  0
    8.3160    6.2230   10.3100 C   0  0  0  0  0  0
    3.1630    1.8950   10.8040 N   0  0  0  0  0  0
    2.7340    1.1600   12.0220 C   0  0  2  0  0  0
    3.8430    0.1720   12.4740 C   0  0  0  0  0  0
    3.9350   -0.9490   12.0140 O   0  0  0  0  0  0
    1.3530    0.4590   11.8050 C   0  0  0  0  0  0
    0.2590    1.4370   11.3390 C   0  0  0  0  0  0
    0.8540   -0.3020   13.0350 C   0  0  0  0  0  0
    4.6950    0.6400   13.4020 N   0  0  0  0  0  0
    5.8630   -0.0780   13.9970 C   0  0  1  0  0  0
    7.1800    0.6630   13.7410 C   0  0  0  0  0  0
    7.4770    0.8150   12.3010 C   0  0  0  0  0  0
    7.9520   -0.2810   11.5950 C   0  0  0  0  0  0
    8.2170   -0.1470   10.2500 C   0  0  0  0  0  0
    8.0000    1.0750    9.6070 C   0  0  0  0  0  0
    7.5430    2.1680   10.3260 C   0  0  0  0  0  0
    7.2770    2.0430   11.6780 C   0  0  0  0  0  0
    5.7690   -0.1850   15.5040 C   0  0  1  0  0  0
    5.7570    1.1590   15.9770 O   0  0  0  0  0  0
    4.6810   -0.7540   17.5020 O   0  0  0  0  0  0
    4.5410   -0.8350   16.0810 C   0  0  2  0  0  0
    5.4660   -3.1000   16.1950 N   0  0  0  0  0  0
    4.3690   -2.2860   15.6750 C   0  0  1  0  0  0
    3.0490   -2.8250   16.2110 C   0  0  0  0  0  0
    2.8640   -4.3070   15.9610 C   0  0  0  0  0  0
    2.4080   -4.7500   14.7120 C   0  0  0  0  0  0
    2.2440   -6.1210   14.4760 C   0  0  0  0  0  0
    2.5400   -7.0460   15.4810 C   0  0  0  0  0  0
    2.9920   -6.6080   16.7270 C   0  0  0  0  0  0
    3.1570   -5.2460   16.9730 C   0  0  0  0  0  0
    6.9480   -5.9900   16.6460 N   0  0  0  0  0  0
    7.3610   -4.6320   16.2660 C   0  0  2  0  0  0
    6.2680   -3.8780   15.4650 C   0  0  0  0  0  0
    6.1760   -3.9420   14.2590 O   0  0  0  0  0  0
    8.7110   -4.6080   15.5100 C   0  0  0  0  0  0
    9.7690   -5.4340   16.2350 C   0  0  0  0  0  0
    9.2260   -3.1700   15.3470 C   0  0  0  0  0  0
    6.7970   -6.4050   17.9020 C   0  0  0  0  0  0
    7.0870   -5.7120   18.8680 O   0  0  0  0  0  0
    6.3110   -7.6600   18.0560 N   0  0  0  0  0  0
    5.8910   -8.5060   16.9340 C   0  0  0  0  0  0
    6.0950   -8.1580   19.4230 C   0  0  0  0  0  0
    4.7000   -7.8490   19.9180 C   0  0  0  0  0  0
    3.6630   -8.7550   19.6540 C   0  0  0  0  0  0
    4.5240   -6.6940   20.5770 N   0  0  0  0  0  0
    2.3780   -8.4410   20.0920 C   0  0  0  0  0  0
    3.2800   -6.3950   20.9820 C   0  0  0  0  0  0
    2.1790   -7.2340   20.7650 C   0  0  0  0  0  0
    3.9445    1.9076    8.6792 H   0  0  0  0  0  0
    5.3629    2.9679    8.3783 H   0  0  0  0  0  0
    3.7749    3.3600    7.6359 H   0  0  0  0  0  0
    3.9616    5.6393    8.7768 H   0  0  0  0  0  0
    3.7302    5.6606   10.5579 H   0  0  0  0  0  0
    6.1069    5.6218    7.7865 H   0  0  0  0  0  0
    8.4867    6.3093    8.1575 H   0  0  0  0  0  0
    7.8309    6.0025   12.3804 H   0  0  0  0  0  0
    9.3406    6.5433   10.4990 H   0  0  0  0  0  0
    3.3170    1.3522    9.8597 H   0  0  0  0  0  0
    2.6087    1.9211   12.8062 H   0  0  0  0  0  0
    1.5245   -0.2834   11.0116 H   0  0  0  0  0  0
    0.6119    1.9875   10.4544 H   0  0  0  0  0  0
    0.0341    2.1479   12.1477 H   0  0  0  0  0  0
   -0.6505    0.8743   11.0819 H   0  0  0  0  0  0
    1.6316   -1.0028   13.3730 H   0  0  0  0  0  0
   -0.0565   -0.8620   12.7753 H   0  0  0  0  0  0
    0.6281    0.4117   13.8410 H   0  0  0  0  0  0
    4.4595    1.6661   13.7210 H   0  0  0  0  0  0
    5.8228   -1.0670   13.5171 H   0  0  0  0  0  0
    7.1264    1.6691   14.1825 H   0  0  0  0  0  0
    8.0098    0.1051   14.1996 H   0  0  0  0  0  0
    8.1132   -1.2346   12.0977 H   0  0  0  0  0  0
    8.5976   -0.9976    9.6846 H   0  0  0  0  0  0
    8.1906    1.1684    8.5379 H   0  0  0  0  0  0
    7.3932    3.1253    9.8268 H   0  0  0  0  0  0
    6.9145    2.8977   12.2492 H   0  0  0  0  0  0
    6.6260   -0.7840   15.8457 H   0  0  0  0  0  0
    6.5630    1.8503   15.6899 H   0  0  0  0  0  0
    4.8166    0.2242   17.9864 H   0  0  0  0  0  0
    3.6418   -0.2937   15.7517 H   0  0  0  0  0  0
    5.6859   -3.1028   17.2728 H   0  0  0  0  0  0
    4.4073   -2.3595   14.5781 H   0  0  0  0  0  0
    3.0012   -2.6631   17.2980 H   0  0  0  0  0  0
    2.2139   -2.2994   15.7249 H   0  0  0  0  0  0
    2.1815   -4.0294   13.9261 H   0  0  0  0  0  0
    1.8849   -6.4670   13.5068 H   0  0  0  0  0  0
    2.4176   -8.1124   15.2914 H   0  0  0  0  0  0
    3.2165   -7.3329   17.5095 H   0  0  0  0  0  0
    3.5120   -4.9065   17.9460 H   0  0  0  0  0  0
    6.7414   -6.7399   15.8682 H   0  0  0  0  0  0
    7.4909   -4.1492   17.2458 H   0  0  0  0  0  0
    8.5430   -5.0509   14.5172 H   0  0  0  0  0  0
    9.4087   -6.4662   16.3563 H   0  0  0  0  0  0
    9.9627   -4.9945   17.2246 H   0  0  0  0  0  0
   10.6985   -5.4369   15.6468 H   0  0  0  0  0  0
    8.4690   -2.5664   14.8248 H   0  0  0  0  0  0
   10.1568   -3.1781   14.7608 H   0  0  0  0  0  0
    9.4209   -2.7357   16.3387 H   0  0  0  0  0  0
    6.1187   -7.9971   15.9858 H   0  0  0  0  0  0
    4.8088   -8.6917   16.9999 H   0  0  0  0  0  0
    6.4306   -9.4637   16.9749 H   0  0  0  0  0  0
    6.2350   -9.2489   19.4422 H   0  0  0  0  0  0
    6.8166   -7.6837   20.1044 H   0  0  0  0  0  0
    3.8576   -9.6841   19.1182 H   0  0  0  0  0  0
    1.5465   -9.1227   19.9132 H   0  0  0  0  0  0
    3.1181   -5.4528   21.5057 H   0  0  0  0  0  0
    1.1865   -6.9499   21.1148 H   0  0  0  0  0  0
  1  2  2  0  0  0
  1  3  1  0  0  0
  1 12  1  0  0  0
  3  4  1  0  0  0
  3  5  1  0  0  0
  4 59  1  0  0  0
  4 60  1  0  0  0
  4 61  1  0  0  0
  5  6  1  0  0  0
  5 62  1  0  0  0
  5 63  1  0  0  0
  6  7  2  0  0  0
  6  8  1  0  0  0
  7  9  1  0  0  0
  7 64  1  0  0  0
  8 10  2  0  0  0
  9 11  2  0  0  0
  9 65  1  0  0  0
 10 11  1  0  0  0
 10 66  1  0  0  0
 11 67  1  0  0  0
 12 13  1  0  0  0
 12 68  1  0  0  0
 13 14  1  0  0  0
 13 16  1  0  0  0
 13 69  1  0  0  0
 14 15  2  0  0  0
 14 19  1  0  0  0
 16 17  1  0  0  0
 16 18  1  0  0  0
 16 70  1  0  0  0
 17 71  1  0  0  0
 17 72  1  0  0  0
 17 73  1  0  0  0
 18 74  1  0  0  0
 18 75  1  0  0  0
 18 76  1  0  0  0
 19 20  1  0  0  0
 19 77  1  0  0  0
 20 21  1  0  0  0
 20 28  1  0  0  0
 20 78  1  0  0  0
 21 22  1  0  0  0
 21 79  1  0  0  0
 21 80  1  0  0  0
 22 23  2  0  0  0
 22 27  1  0  0  0
 23 24  1  0  0  0
 23 81  1  0  0  0
 24 25  2  0  0  0
 24 82  1  0  0  0
 25 26  1  0  0  0
 25 83  1  0  0  0
 26 27  2  0  0  0
 26 84  1  0  0  0
 27 85  1  0  0  0
 28 29  1  0  0  0
 28 31  1  0  0  0
 28 86  1  0  0  0
 29 87  1  0  0  0
 30 31  1  0  0  0
 30 88  1  0  0  0
 31 33  1  0  0  0
 31 89  1  0  0  0
 32 43  1  0  0  0
 32 33  1  0  0  0
 32 90  1  0  0  0
 33 34  1  0  0  0
 33 91  1  0  0  0
 34 35  1  0  0  0
 34 92  1  0  0  0
 34 93  1  0  0  0
 35 36  2  0  0  0
 35 40  1  0  0  0
 36 37  1  0  0  0
 36 94  1  0  0  0
 37 38  2  0  0  0
 37 95  1  0  0  0
 38 39  1  0  0  0
 38 96  1  0  0  0
 39 40  2  0  0  0
 39 97  1  0  0  0
 40 98  1  0  0  0
 41 42  1  0  0  0
 41 48  1  0  0  0
 41 99  1  0  0  0
 42 43  1  0  0  0
 42 45  1  0  0  0
 42100  1  0  0  0
 43 44  2  0  0  0
 45 46  1  0  0  0
 45 47  1  0  0  0
 45101  1  0  0  0
 46102  1  0  0  0
 46103  1  0  0  0
 46104  1  0  0  0
 47105  1  0  0  0
 47106  1  0  0  0
 47107  1  0  0  0
 48 49  2  0  0  0
 48 50  1  0  0  0
 50 51  1  0  0  0
 50 52  1  0  0  0
 51108  1  0  0  0
 51109  1  0  0  0
 51110  1  0  0  0
 52 53  1  0  0  0
 52111  1  0  0  0
 52112  1  0  0  0
 53 54  2  0  0  0
 53 55  1  0  0  0
 54 56  1  0  0  0
 54113  1  0  0  0
 55 57  2  0  0  0
 56 58  2  0  0  0
 56114  1  0  0  0
 57 58  1  0  0  0
 57115  1  0  0  0
 58116  1  0  0  0
M  END
> <s_m_source_file>
../1hvl_ligand.sdf

> <i_m_source_file_index>
1

> <s_epik_input>
bjFbY0hdW2NIXVtjSF1bY0hdYzFbQ0gyXU4oW0NIM10pQyg9TylbTkhdW0NAQEhdKFtDSF0oW0NIM10pW0NIM10pQyg9TylbTkhdW0NAQEhdKFtDSDJdYzJbY0hdW2NIXVtjSF1bY0hdW2NIXTIpW0NAQEhdKFtPSF0pW0NASF0oW09IXSlbQ0BIXShbQ0gyXWMzW2NIXVtjSF1bY0hdW2NIXVtjSF0zKVtOSF1DKD1PKVtDQEhdKFtDSF0oW0NIM10pW0NIM10pW05IXUMoPU8pTihbQ0gzXSlbQ0gyXWM0W2NIXVtjSF1bY0hdW2NIXW40

> <s_epik_cmdline>
J2VwaWtfYXBwJywgJy1pbWFlJywgJ2xpZ2FuZF9wcm8ubWFlJywgJy1vbWFlJywgJ2xpZ2FuZF9wcmVwLm1hZScsICctbXMnLCAnMScsICctcGgnLCAnNycsICctcGh0JywgJzAuNScsICctbnQn

> <r_lp_tautomer_probability>
1

> <r_epik_Ionization_Penalty>
  0.0005

> <r_epik_Ionization_Penalty_Charging>
  0.0000

> <r_epik_Ionization_Penalty_Neutral>
  0.0005

> <r_epik_State_Penalty>
 -0.0000

> <r_epik_Charging_Adjusted_Penalty>
0

> <i_epik_Tot_Q>
0

> <i_epik_Tot_abs_Q>
0

$$$$
