1hvr_ligand
                    3D
 Schrodinger Suite 2020-3.
 84 90  0  0  1  0            999 V2000
   -8.6110   15.0600   27.9540 C   0  0  0  0  0  0
   -7.9390   14.0390   27.9410 O   0  0  0  0  0  0
   -8.4610   15.9230   26.9050 N   0  0  0  0  0  0
   -7.8540   15.3510   25.6960 C   0  0  0  0  0  0
   -8.6270   17.3880   27.0110 C   0  0  1  0  0  0
  -10.0290   17.9100   27.2980 C   0  0  2  0  0  0
   -9.9290   19.2740   26.9980 O   0  0  0  0  0  0
  -10.4610   17.6450   28.7330 C   0  0  1  0  0  0
  -11.6920   18.2540   29.0200 O   0  0  0  0  0  0
  -10.6570   16.1520   28.9640 C   0  0  2  0  0  0
   -9.4610   15.2940   29.0040 N   0  0  0  0  0  0
   -9.2710   14.4910   30.2150 C   0  0  0  0  0  0
   -8.3810   15.7300   24.3360 C   0  0  0  0  0  0
   -9.7690   15.7120   24.0220 C   0  0  0  0  0  0
  -10.1950   15.9190   22.6940 C   0  0  0  0  0  0
   -9.2190   16.1520   21.6930 C   0  0  0  0  0  0
   -9.6080   16.3040   20.3490 C   0  0  0  0  0  0
   -8.6260   16.5080   19.3490 C   0  0  0  0  0  0
   -7.2630   16.5620   19.6620 C   0  0  0  0  0  0
   -6.8600   16.4030   21.0060 C   0  0  0  0  0  0
   -7.8280   16.1920   22.0220 C   0  0  0  0  0  0
   -7.4080   15.9830   23.3460 C   0  0  0  0  0  0
   -7.4760   17.9720   27.8940 C   0  0  0  0  0  0
   -6.1240   17.8900   27.1930 C   0  0  0  0  0  0
   -5.2260   16.8260   27.4940 C   0  0  0  0  0  0
   -4.0290   16.6670   26.7500 C   0  0  0  0  0  0
   -3.7300   17.5850   25.7230 C   0  0  0  0  0  0
   -4.6070   18.6600   25.4320 C   0  0  0  0  0  0
   -5.8030   18.8110   26.1630 C   0  0  0  0  0  0
  -11.7120   15.4510   28.0790 C   0  0  0  0  0  0
  -12.3100   14.2480   28.7790 C   0  0  0  0  0  0
  -13.1670   14.4220   29.8980 C   0  0  0  0  0  0
  -13.7000   13.2810   30.5420 C   0  0  0  0  0  0
  -13.3740   11.9820   30.0580 C   0  0  0  0  0  0
  -12.5290   11.8140   28.9440 C   0  0  0  0  0  0
  -11.9920   12.9540   28.3040 C   0  0  0  0  0  0
   -9.3740   15.1480   31.5710 C   0  0  0  0  0  0
  -10.2280   14.4920   32.4770 C   0  0  0  0  0  0
  -10.2720   14.9260   33.8000 C   0  0  0  0  0  0
  -11.1560   14.2820   34.7090 C   0  0  0  0  0  0
  -11.2450   14.7480   36.0440 C   0  0  0  0  0  0
  -10.4350   15.8370   36.4510 C   0  0  0  0  0  0
   -9.5400   16.4750   35.5530 C   0  0  0  0  0  0
   -9.4550   16.0280   34.2120 C   0  0  0  0  0  0
   -8.6050   16.6910   33.2880 C   0  0  0  0  0  0
   -8.5740   16.2520   31.9620 C   0  0  0  0  0  0
   -6.7898   15.6264   25.6546 H   0  0  0  0  0  0
   -7.9485   14.2554   25.7215 H   0  0  0  0  0  0
   -8.5440   17.7387   25.9717 H   0  0  0  0  0  0
  -10.8231   17.4818   26.6687 H   0  0  0  0  0  0
   -9.6248   19.5947   25.9907 H   0  0  0  0  0  0
   -9.7254   18.1026   29.4109 H   0  0  0  0  0  0
  -11.8016   19.3444   28.9248 H   0  0  0  0  0  0
  -10.9852   16.2163   30.0119 H   0  0  0  0  0  0
  -10.0245   13.6902   30.2459 H   0  0  0  0  0  0
   -8.2645   14.0473   30.2066 H   0  0  0  0  0  0
  -10.5032   15.5381   24.8087 H   0  0  0  0  0  0
  -11.2553   15.9002   22.4418 H   0  0  0  0  0  0
  -10.6631   16.2648   20.0782 H   0  0  0  0  0  0
   -8.9391   16.6257   18.3116 H   0  0  0  0  0  0
   -6.5225   16.7246   18.8789 H   0  0  0  0  0  0
   -5.8017   16.4425   21.2639 H   0  0  0  0  0  0
   -6.3495   16.0157   23.6040 H   0  0  0  0  0  0
   -7.6849   19.0287   28.1168 H   0  0  0  0  0  0
   -7.4114   17.4049   28.8343 H   0  0  0  0  0  0
   -5.4599   16.1306   28.3001 H   0  0  0  0  0  0
   -3.3483   15.8446   26.9698 H   0  0  0  0  0  0
   -2.8132   17.4668   25.1455 H   0  0  0  0  0  0
   -4.3568   19.3696   24.6434 H   0  0  0  0  0  0
   -6.4803   19.6346   25.9370 H   0  0  0  0  0  0
  -12.5224   16.1572   27.8455 H   0  0  0  0  0  0
  -11.2403   15.1122   27.1448 H   0  0  0  0  0  0
  -13.4109   15.4222   30.2561 H   0  0  0  0  0  0
  -14.3569   13.3954   31.4043 H   0  0  0  0  0  0
  -13.7847   11.1045   30.5573 H   0  0  0  0  0  0
  -12.2915   10.8148   28.5790 H   0  0  0  0  0  0
  -11.3326   12.8361   27.4441 H   0  0  0  0  0  0
  -10.8460   13.6565   32.1483 H   0  0  0  0  0  0
  -11.7605   13.4363   34.3811 H   0  0  0  0  0  0
  -11.9281   14.2746   36.7492 H   0  0  0  0  0  0
  -10.5008   16.1935   37.4789 H   0  0  0  0  0  0
   -8.9211   17.3050   35.8939 H   0  0  0  0  0  0
   -7.9863   17.5294   33.6081 H   0  0  0  0  0  0
   -7.9390   16.7548   31.2326 H   0  0  0  0  0  0
  1  2  2  0  0  0
  1  3  1  0  0  0
  1 11  1  0  0  0
  3  4  1  0  0  0
  3  5  1  0  0  0
  4 13  1  0  0  0
  4 47  1  0  0  0
  4 48  1  0  0  0
  5  6  1  0  0  0
  5 23  1  0  0  0
  5 49  1  0  0  0
  6  7  1  0  0  0
  6  8  1  0  0  0
  6 50  1  0  0  0
  7 51  1  0  0  0
  8  9  1  0  0  0
  8 10  1  0  0  0
  8 52  1  0  0  0
  9 53  1  0  0  0
 10 11  1  0  0  0
 10 30  1  0  0  0
 10 54  1  0  0  0
 11 12  1  0  0  0
 12 37  1  0  0  0
 12 55  1  0  0  0
 12 56  1  0  0  0
 13 14  2  0  0  0
 13 22  1  0  0  0
 14 15  1  0  0  0
 14 57  1  0  0  0
 15 16  2  0  0  0
 15 58  1  0  0  0
 16 17  1  0  0  0
 16 21  1  0  0  0
 17 18  2  0  0  0
 17 59  1  0  0  0
 18 19  1  0  0  0
 18 60  1  0  0  0
 19 20  2  0  0  0
 19 61  1  0  0  0
 20 21  1  0  0  0
 20 62  1  0  0  0
 21 22  2  0  0  0
 22 63  1  0  0  0
 23 24  1  0  0  0
 23 64  1  0  0  0
 23 65  1  0  0  0
 24 25  2  0  0  0
 24 29  1  0  0  0
 25 26  1  0  0  0
 25 66  1  0  0  0
 26 27  2  0  0  0
 26 67  1  0  0  0
 27 28  1  0  0  0
 27 68  1  0  0  0
 28 29  2  0  0  0
 28 69  1  0  0  0
 29 70  1  0  0  0
 30 31  1  0  0  0
 30 71  1  0  0  0
 30 72  1  0  0  0
 31 32  2  0  0  0
 31 36  1  0  0  0
 32 33  1  0  0  0
 32 73  1  0  0  0
 33 34  2  0  0  0
 33 74  1  0  0  0
 34 35  1  0  0  0
 34 75  1  0  0  0
 35 36  2  0  0  0
 35 76  1  0  0  0
 36 77  1  0  0  0
 37 38  2  0  0  0
 37 46  1  0  0  0
 38 39  1  0  0  0
 38 78  1  0  0  0
 39 40  2  0  0  0
 39 44  1  0  0  0
 40 41  1  0  0  0
 40 79  1  0  0  0
 41 42  2  0  0  0
 41 80  1  0  0  0
 42 43  1  0  0  0
 42 81  1  0  0  0
 43 44  2  0  0  0
 43 82  1  0  0  0
 44 45  1  0  0  0
 45 46  2  0  0  0
 45 83  1  0  0  0
 46 84  1  0  0  0
M  END
> <s_m_source_file>
../1hvr_ligand.sdf

> <i_m_source_file_index>
1

> <s_epik_input>
W2NIXTFbY0hdW2NIXVtjSF1jKGMxMilbY0hdYyhbY0hdW2NIXTIpW0NIMl1OKEMzPU8pW0NASF0oW0NIMl1jNFtjSF1bY0hdW2NIXVtjSF1bY0hdNClbQ0BIXShbT0hdKVtDQEBIXShbT0hdKVtDQEBIXShbQ0gyXWM1W2NIXVtjSF1bY0hdW2NIXVtjSF01KU4zW0NIMl1jKFtjSF02KVtjSF1bY0hdYyhjNjcpW2NIXVtjSF1bY0hdW2NIXTc=

> <s_epik_cmdline>
J2VwaWtfYXBwJywgJy1pbWFlJywgJ2xpZ2FuZF9wcm8ubWFlJywgJy1vbWFlJywgJ2xpZ2FuZF9wcmVwLm1hZScsICctbXMnLCAnMScsICctcGgnLCAnNycsICctcGh0JywgJzAuNScsICctbnQn

> <r_lp_tautomer_probability>
1

> <r_epik_Ionization_Penalty>
  0.0000

> <r_epik_Ionization_Penalty_Charging>
  0.0000

> <r_epik_Ionization_Penalty_Neutral>
  0.0000

> <r_epik_State_Penalty>
 -0.0000

> <r_epik_Charging_Adjusted_Penalty>
0

> <i_epik_Tot_Q>
0

> <i_epik_Tot_abs_Q>
0

$$$$
