1hvy_ligand
                    3D
 Schrodinger Suite 2020-3.
 52 54  0  0  1  0            999 V2000
   -0.3080    6.6200   19.3640 N   0  0  0  0  0  0
   -1.6030    6.6600   18.9260 C   0  0  0  0  0  0
   -2.6410    5.8470   19.5660 C   0  0  0  0  0  0
   -1.9470    7.4590   17.8800 N   0  0  0  0  0  0
   -1.0230    8.2410   17.2540 C   0  0  0  0  0  0
   -1.4230    9.0040   16.1900 O   0  0  0  0  0  0
    0.3250    8.2490   17.6810 C   0  0  0  0  0  0
    1.3180    9.0650   17.0900 C   0  0  0  0  0  0
    2.6760    9.0370   17.5790 C   0  0  0  0  0  0
    3.0090    8.1690   18.6550 C   0  0  0  0  0  0
    2.0100    7.3490   19.2550 C   0  0  0  0  0  0
    0.6580    7.3820   18.7820 C   0  0  0  0  0  0
    3.7660    9.9050   17.0090 C   0  0  0  0  0  0
    3.3900   10.8370   15.9090 N   0  0  0  0  0  0
    1.0690   13.7040   17.0850 C   0  0  0  0  0  0
    1.8900   12.3420   17.6620 S   0  0  0  0  0  0
    2.5740   11.9240   16.1210 C   0  0  0  0  0  0
    2.1710   12.8340   15.1590 C   0  0  0  0  0  0
    1.2730   13.8930   15.7400 C   0  0  0  0  0  0
    0.2530   14.5550   17.9120 C   0  0  0  0  0  0
    0.1360   14.2850   19.1140 O   0  0  0  0  0  0
   -0.3490   15.6000   17.3470 N   0  0  0  0  0  0
   -1.2180   16.5590   18.0520 C   0  0  1  0  0  0
   -0.5640   17.8810   18.3990 C   0  0  0  0  0  0
   -0.6590   18.4840   19.7620 C   0  0  0  0  0  0
    0.4540   19.5100   19.8900 C   0  0  0  0  0  0
    1.4720   19.2220   20.5240 O   0  0  0  0  0  0
    0.3280   20.6200   19.3580 O   0  5  0  0  0  0
   -2.3990   16.8470   17.1360 C   0  0  0  0  0  0
   -2.2490   16.7750   15.8980 O   0  5  0  0  0  0
   -3.4760   17.1360   17.6490 O   0  0  0  0  0  0
    3.9310   10.5450   14.5740 C   0  0  0  0  0  0
   -2.1967    5.2651   20.3870 H   0  0  0  0  0  0
   -3.0783    5.1613   18.8253 H   0  0  0  0  0  0
   -3.4270    6.5044   19.9660 H   0  0  0  0  0  0
   -2.9877    7.4821   17.5246 H   0  0  0  0  0  0
    1.0558    9.7199   16.2591 H   0  0  0  0  0  0
    4.0343    8.1307   19.0229 H   0  0  0  0  0  0
    2.2769    6.6905   20.0816 H   0  0  0  0  0  0
    4.1810   10.5418   17.8041 H   0  0  0  0  0  0
    4.5625    9.2691   16.5953 H   0  0  0  0  0  0
    2.4672   12.7892   14.1110 H   0  0  0  0  0  0
    0.8379   14.7097   15.1640 H   0  0  0  0  0  0
   -0.1567   15.7203   16.2706 H   0  0  0  0  0  0
   -1.4737   16.0722   19.0047 H   0  0  0  0  0  0
    0.5221   17.8050   18.2423 H   0  0  0  0  0  0
   -0.9730   18.6728   17.7542 H   0  0  0  0  0  0
   -1.6403   18.9663   19.8820 H   0  0  0  0  0  0
   -0.5426   17.6959   20.5205 H   0  0  0  0  0  0
    4.5543    9.6398   14.6209 H   0  0  0  0  0  0
    4.5419   11.3935   14.2323 H   0  0  0  0  0  0
    3.1017   10.3831   13.8697 H   0  0  0  0  0  0
  1  2  2  0  0  0
  1 12  1  0  0  0
  2  3  1  0  0  0
  2  4  1  0  0  0
  3 33  1  0  0  0
  3 34  1  0  0  0
  3 35  1  0  0  0
  4  5  1  0  0  0
  4 36  1  0  0  0
  5  6  2  0  0  0
  5  7  1  0  0  0
  7  8  2  0  0  0
  7 12  1  0  0  0
  8  9  1  0  0  0
  8 37  1  0  0  0
  9 10  2  0  0  0
  9 13  1  0  0  0
 10 11  1  0  0  0
 10 38  1  0  0  0
 11 12  2  0  0  0
 11 39  1  0  0  0
 13 14  1  0  0  0
 13 40  1  0  0  0
 13 41  1  0  0  0
 14 17  1  0  0  0
 14 32  1  0  0  0
 15 16  1  0  0  0
 15 19  2  0  0  0
 15 20  1  0  0  0
 16 17  1  0  0  0
 17 18  2  0  0  0
 18 19  1  0  0  0
 18 42  1  0  0  0
 19 43  1  0  0  0
 20 21  2  0  0  0
 20 22  1  0  0  0
 22 23  1  0  0  0
 22 44  1  0  0  0
 23 24  1  0  0  0
 23 29  1  0  0  0
 23 45  1  0  0  0
 24 25  1  0  0  0
 24 46  1  0  0  0
 24 47  1  0  0  0
 25 26  1  0  0  0
 25 48  1  0  0  0
 25 49  1  0  0  0
 26 27  2  0  0  0
 26 28  1  0  0  0
 29 30  1  0  0  0
 29 31  2  0  0  0
 32 50  1  0  0  0
 32 51  1  0  0  0
 32 52  1  0  0  0
M  CHG  2  28  -1  30  -1
M  END
> <s_m_source_file>
../1hvy_ligand.sdf

> <i_m_source_file_index>
1

> <s_epik_input>
Tz1jMVtuSF1jKFtDSDNdKW5jKGMxMilbY0hdW2NIXWMoW2NIXTIpW0NIMl1OKFtDSDNdKWMoW2NIXVtjSF0zKXNjM0MoPU8pW05IXVtDQEhdKEMoPU8pW09IXSlbQ0gyXVtDSDJdQyg9TylbT0hd

> <s_epik_cmdline>
J2VwaWtfYXBwJywgJy1pbWFlJywgJ2xpZ2FuZF9wcm8ubWFlJywgJy1vbWFlJywgJ2xpZ2FuZF9wcmVwLm1hZScsICctbXMnLCAnMScsICctcGgnLCAnNycsICctcGh0JywgJzAuNScsICctbnQn

> <r_lp_tautomer_probability>
1

> <r_epik_Ionization_Penalty>
  0.0043

> <r_epik_Ionization_Penalty_Charging>
  0.0043

> <r_epik_Ionization_Penalty_Neutral>
  0.0000

> <r_epik_State_Penalty>
 -0.0000

> <r_epik_Charging_Adjusted_Penalty>
0.00433191746367378

> <i_epik_Tot_Q>
-2

> <i_epik_Tot_abs_Q>
2

$$$$
