1hwr_ligand
                    3D
 Schrodinger Suite 2020-3.
 60 62  0  0  1  0            999 V2000
   -8.0280   14.2810   27.7780 O   0  0  0  0  0  0
  -10.1210   19.3420   26.7660 O   0  0  0  0  0  0
  -11.7890   18.3830   28.8790 O   0  0  0  0  0  0
   -8.6520   16.0650   26.7760 N   0  0  0  0  0  0
   -9.4270   15.5680   28.9380 N   0  0  0  0  0  0
   -8.7000   15.2840   27.8370 C   0  0  0  0  0  0
   -8.8280   17.5220   26.8240 C   0  0  1  0  0  0
  -10.2040   18.0170   27.1390 C   0  0  1  0  0  0
  -10.5430   17.8310   28.5730 C   0  0  2  0  0  0
  -10.6770   16.3590   28.9200 C   0  0  1  0  0  0
   -8.2430   15.4760   25.4990 C   0  0  0  0  0  0
   -9.1850   15.8620   24.3840 C   0  0  0  0  0  0
   -8.7490   16.3800   23.2310 C   0  0  0  0  0  0
   -7.6840   18.1830   27.6090 C   0  0  0  0  0  0
   -6.3600   17.9800   26.9280 C   0  0  0  0  0  0
   -5.5520   16.8720   27.2700 C   0  0  0  0  0  0
   -4.3000   16.6710   26.6470 C   0  0  0  0  0  0
   -3.8480   17.5700   25.6680 C   0  0  0  0  0  0
   -4.6680   18.6860   25.3170 C   0  0  0  0  0  0
   -5.9270   18.8980   25.9450 C   0  0  0  0  0  0
  -11.7870   15.5540   28.1750 C   0  0  0  0  0  0
  -12.3910   14.3920   28.9530 C   0  0  0  0  0  0
  -13.2790   14.6880   30.0160 C   0  0  0  0  0  0
  -13.9120   13.6630   30.7380 C   0  0  0  0  0  0
  -13.6380   12.3260   30.3710 C   0  0  0  0  0  0
  -12.7500   12.0180   29.3060 C   0  0  0  0  0  0
  -12.1100   13.0510   28.5850 C   0  0  0  0  0  0
   -9.1190   15.0180   30.2720 C   0  0  0  0  0  0
   -9.0070   16.0630   31.3700 C   0  0  0  0  0  0
   -9.4480   15.8760   32.6200 C   0  0  0  0  0  0
   -9.8759   19.6065   25.7268 H   0  0  0  0  0  0
  -11.9692   19.4564   28.7195 H   0  0  0  0  0  0
   -8.7718   17.8242   25.7678 H   0  0  0  0  0  0
  -11.0298   17.5422   26.5889 H   0  0  0  0  0  0
   -9.7766   18.3714   29.1480 H   0  0  0  0  0  0
  -10.9472   16.4813   29.9793 H   0  0  0  0  0  0
   -7.2338   15.8281   25.2393 H   0  0  0  0  0  0
   -8.2376   14.3795   25.5859 H   0  0  0  0  0  0
  -10.2619   15.7045   24.5439 H   0  0  0  0  0  0
   -7.6721   16.5375   23.0711 H   0  0  0  0  0  0
   -9.4672   16.6487   22.4423 H   0  0  0  0  0  0
   -7.8717   19.2638   27.6902 H   0  0  0  0  0  0
   -7.6286   17.7438   28.6160 H   0  0  0  0  0  0
   -5.8988   16.1644   28.0231 H   0  0  0  0  0  0
   -3.6839   15.8165   26.9269 H   0  0  0  0  0  0
   -2.8841   17.4185   25.1821 H   0  0  0  0  0  0
   -4.3236   19.3862   24.5560 H   0  0  0  0  0  0
   -6.5461   19.7528   25.6728 H   0  0  0  0  0  0
  -12.6214   16.2256   27.9245 H   0  0  0  0  0  0
  -11.3715   15.1251   27.2512 H   0  0  0  0  0  0
  -13.4742   15.7279   30.2779 H   0  0  0  0  0  0
  -14.5941   13.8918   31.5568 H   0  0  0  0  0  0
  -14.1183   11.5139   30.9168 H   0  0  0  0  0  0
  -12.5609   10.9772   29.0430 H   0  0  0  0  0  0
  -11.4214   12.8245   27.7709 H   0  0  0  0  0  0
   -9.9137   14.3196   30.5730 H   0  0  0  0  0  0
   -8.1572   14.4855   30.2359 H   0  0  0  0  0  0
   -8.5325   17.0153   31.0909 H   0  0  0  0  0  0
   -9.9225   14.9237   32.8991 H   0  0  0  0  0  0
   -9.3359   16.6747   33.3680 H   0  0  0  0  0  0
  1  6  2  0  0  0
  2  8  1  0  0  0
  2 31  1  0  0  0
  3  9  1  0  0  0
  3 32  1  0  0  0
  4  6  1  0  0  0
  4  7  1  0  0  0
  4 11  1  0  0  0
  5  6  1  0  0  0
  5 10  1  0  0  0
  5 28  1  0  0  0
  7  8  1  0  0  0
  7 14  1  0  0  0
  7 33  1  0  0  0
  8  9  1  0  0  0
  8 34  1  0  0  0
  9 10  1  0  0  0
  9 35  1  0  0  0
 10 21  1  0  0  0
 10 36  1  0  0  0
 11 12  1  0  0  0
 11 37  1  0  0  0
 11 38  1  0  0  0
 12 13  2  0  0  0
 12 39  1  0  0  0
 13 40  1  0  0  0
 13 41  1  0  0  0
 14 15  1  0  0  0
 14 42  1  0  0  0
 14 43  1  0  0  0
 15 20  2  0  0  0
 15 16  1  0  0  0
 16 17  2  0  0  0
 16 44  1  0  0  0
 17 18  1  0  0  0
 17 45  1  0  0  0
 18 19  2  0  0  0
 18 46  1  0  0  0
 19 20  1  0  0  0
 19 47  1  0  0  0
 20 48  1  0  0  0
 21 22  1  0  0  0
 21 49  1  0  0  0
 21 50  1  0  0  0
 22 27  2  0  0  0
 22 23  1  0  0  0
 23 24  2  0  0  0
 23 51  1  0  0  0
 24 25  1  0  0  0
 24 52  1  0  0  0
 25 26  2  0  0  0
 25 53  1  0  0  0
 26 27  1  0  0  0
 26 54  1  0  0  0
 27 55  1  0  0  0
 28 29  1  0  0  0
 28 56  1  0  0  0
 28 57  1  0  0  0
 29 30  2  0  0  0
 29 58  1  0  0  0
 30 59  1  0  0  0
 30 60  1  0  0  0
M  END
> <s_m_source_file>
../1hwr_ligand.sdf

> <i_m_source_file_index>
1

> <s_epik_input>
W2NIXTFbY0hdW2NIXVtjSF1bY0hdYzFbQ0gyXVtDQEBIXShOKFtDSDJdW0NIXT1bQ0gyXSlDKD1PKU4yW0NIMl1bQ0hdPVtDSDJdKVtDQEhdKFtPSF0pW0NAQEhdKFtPSF0pW0NASF0yW0NIMl1jM1tjSF1bY0hdW2NIXVtjSF1bY0hdMw==

> <s_epik_cmdline>
J2VwaWtfYXBwJywgJy1pbWFlJywgJ2xpZ2FuZF9wcm8ubWFlJywgJy1vbWFlJywgJ2xpZ2FuZF9wcmVwLm1hZScsICctbXMnLCAnMScsICctcGgnLCAnNycsICctcGh0JywgJzAuNScsICctbnQn

> <r_lp_tautomer_probability>
1

> <r_epik_Ionization_Penalty>
  0.0000

> <r_epik_Ionization_Penalty_Charging>
  0.0000

> <r_epik_Ionization_Penalty_Neutral>
  0.0000

> <r_epik_State_Penalty>
 -0.0000

> <r_epik_Charging_Adjusted_Penalty>
0

> <i_epik_Tot_Q>
0

> <i_epik_Tot_abs_Q>
0

$$$$
