1hww_ligand
                    3D
 Schrodinger Suite 2020-3.
 28 29  0  0  1  0            999 V2000
   31.0850   66.8500    6.1040 C   0  0  1  0  0  0
   31.6160   67.9930    5.4120 O   0  0  0  0  0  0
   31.2910   67.0030    7.6490 C   0  0  1  0  0  0
   30.7310   65.8070    8.3070 N   0  3  2  0  0  0
   29.2560   65.6700    8.1360 C   0  0  0  0  0  0
   28.9520   65.4970    6.6230 C   0  0  0  0  0  0
   29.5540   66.6860    5.8180 C   0  0  0  0  0  0
   31.2840   65.7130    9.6520 C   0  0  0  0  0  0
   32.6480   66.4480    9.5970 C   0  0  1  0  0  0
   33.7150   65.5340    9.8330 O   0  0  0  0  0  0
   32.7550   67.0820    8.1610 C   0  0  1  0  0  0
   33.6410   66.3140    7.3190 O   0  0  0  0  0  0
   31.6694   66.0168    5.6867 H   0  0  0  0  0  0
   31.5546   68.0493    4.3152 H   0  0  0  0  0  0
   30.7781   67.9363    7.9246 H   0  0  0  0  0  0
   31.0765   64.8861    7.8146 H   0  0  0  0  0  0
   28.9024   64.7904    8.6939 H   0  0  0  0  0  0
   28.7570   66.5723    8.5193 H   0  0  0  0  0  0
   29.3962   64.5565    6.2650 H   0  0  0  0  0  0
   27.8632   65.4704    6.4684 H   0  0  0  0  0  0
   29.0263   67.6069    6.1070 H   0  0  0  0  0  0
   29.3996   66.4961    4.7456 H   0  0  0  0  0  0
   30.5985   66.1947   10.3648 H   0  0  0  0  0  0
   31.4106   64.6545    9.9233 H   0  0  0  0  0  0
   32.7835   67.1721   10.4139 H   0  0  0  0  0  0
   33.7833   65.0048   10.7949 H   0  0  0  0  0  0
   33.2162   68.0791    8.1058 H   0  0  0  0  0  0
   33.8226   66.6282    6.2806 H   0  0  0  0  0  0
  1  7  1  0  0  0
  1  3  1  0  0  0
  1  2  1  0  0  0
  1 13  1  0  0  0
  2 14  1  0  0  0
  3 11  1  0  0  0
  3  4  1  0  0  0
  3 15  1  0  0  0
  4  8  1  0  0  0
  4  5  1  0  0  0
  4 16  1  0  0  0
  5  6  1  0  0  0
  5 17  1  0  0  0
  5 18  1  0  0  0
  6  7  1  0  0  0
  6 19  1  0  0  0
  6 20  1  0  0  0
  7 21  1  0  0  0
  7 22  1  0  0  0
  8  9  1  0  0  0
  8 23  1  0  0  0
  8 24  1  0  0  0
  9 11  1  0  0  0
  9 10  1  0  0  0
  9 25  1  0  0  0
 10 26  1  0  0  0
 11 12  1  0  0  0
 11 27  1  0  0  0
 12 28  1  0  0  0
M  CHG  1   4   1
M  END
> <s_m_source_file>
../1hww_ligand.sdf

> <i_m_source_file_index>
1

> <s_epik_input>
W09IXVtDQEBIXTFbQ0gyXVtDSDJdW0NIMl1bTkBASCtdKFtDQEhdMTIpW0NIMl1bQ0BASF0oW09IXSlbQ0BIXTJbT0hd

> <s_epik_cmdline>
J2VwaWtfYXBwJywgJy1pbWFlJywgJ2xpZ2FuZF9wcm8ubWFlJywgJy1vbWFlJywgJ2xpZ2FuZF9wcmVwLm1hZScsICctbXMnLCAnMScsICctcGgnLCAnNycsICctcGh0JywgJzAuNScsICctbnQn

> <r_lp_tautomer_probability>
1

> <r_epik_Ionization_Penalty>
  0.0008

> <r_epik_Ionization_Penalty_Charging>
  0.0008

> <r_epik_Ionization_Penalty_Neutral>
  0.0000

> <r_epik_State_Penalty>
 -0.0000

> <r_epik_Charging_Adjusted_Penalty>
0.000826370909000464

> <i_epik_Tot_Q>
1

> <i_epik_Tot_abs_Q>
1

$$$$
