1hxk_ligand
                    3D
 Schrodinger Suite 2020-3.
 25 25  0  0  1  0            999 V2000
   32.6990   66.5410    9.3050 C   0  0  1  0  0  0
   32.7490   66.8930    7.7560 C   0  0  2  0  0  0
   31.4090   66.9840    9.9570 C   0  0  0  0  0  0
   31.4610   66.5350    7.0130 C   0  0  1  0  0  0
   30.2950   67.1800    7.6790 C   0  0  1  0  0  0
   28.9460   66.8610    7.0320 C   0  0  0  0  0  0
   32.9200   65.1540    9.5360 O   0  0  0  0  0  0
   33.8270   66.2100    7.1240 O   0  0  0  0  0  0
   31.5280   66.9670    5.6500 O   0  0  0  0  0  0
   30.1880   66.7560    9.1100 N   0  3  0  0  0  0
   27.7870   66.9630    7.8360 O   0  0  0  0  0  0
   33.5271   67.0221    9.8462 H   0  0  0  0  0  0
   32.9493   67.9663    7.6219 H   0  0  0  0  0  0
   31.2626   66.4283   10.8950 H   0  0  0  0  0  0
   31.4585   68.0614   10.1730 H   0  0  0  0  0  0
   31.3174   65.4450    6.9781 H   0  0  0  0  0  0
   30.5192   68.2530    7.5878 H   0  0  0  0  0  0
   28.7722   67.5465    6.1894 H   0  0  0  0  0  0
   28.9511   65.8238    6.6658 H   0  0  0  0  0  0
   32.9144   64.7597   10.5629 H   0  0  0  0  0  0
   34.8522   66.3295    7.5043 H   0  0  0  0  0  0
   32.3284   66.5947    4.9937 H   0  0  0  0  0  0
   29.9483   65.6826    9.0937 H   0  0  0  0  0  0
   29.3396   67.3148    9.5318 H   0  0  0  0  0  0
   26.7987   66.7417    7.4068 H   0  0  0  0  0  0
  1  7  1  0  0  0
  1  3  1  0  0  0
  1  2  1  0  0  0
  1 12  1  0  0  0
  2  8  1  0  0  0
  2  4  1  0  0  0
  2 13  1  0  0  0
  3 10  1  0  0  0
  3 14  1  0  0  0
  3 15  1  0  0  0
  4  9  1  0  0  0
  4  5  1  0  0  0
  4 16  1  0  0  0
  5 10  1  0  0  0
  5  6  1  0  0  0
  5 17  1  0  0  0
  6 11  1  0  0  0
  6 18  1  0  0  0
  6 19  1  0  0  0
  7 20  1  0  0  0
  8 21  1  0  0  0
  9 22  1  0  0  0
 10 23  1  0  0  0
 10 24  1  0  0  0
 11 25  1  0  0  0
M  CHG  1  10   1
M  END
> <s_m_source_file>
../1hxk_ligand.sdf

> <i_m_source_file_index>
1

> <s_epik_input>
W09IXVtDQEhdMVtDQEBIXShbT0hdKVtDQEhdKFtPSF0pW0NAQEhdKFtDSDJdW09IXSlbTkgyK11bQ0gyXTE=

> <s_epik_cmdline>
J2VwaWtfYXBwJywgJy1pbWFlJywgJ2xpZ2FuZF9wcm8ubWFlJywgJy1vbWFlJywgJ2xpZ2FuZF9wcmVwLm1hZScsICctbXMnLCAnMScsICctcGgnLCAnNycsICctcGh0JywgJzAuNScsICctbnQn

> <r_lp_tautomer_probability>
1

> <r_epik_Ionization_Penalty>
  0.0034

> <r_epik_Ionization_Penalty_Charging>
  0.0034

> <r_epik_Ionization_Penalty_Neutral>
  0.0000

> <r_epik_State_Penalty>
 -0.0000

> <r_epik_Charging_Adjusted_Penalty>
0.00338677877254832

> <i_epik_Tot_Q>
1

> <i_epik_Tot_abs_Q>
1

$$$$
