1hy7_ligand
                    3D
 Schrodinger Suite 2020-3.
 48 49  0  0  1  0            999 V2000
   -4.7390   50.0940   46.4700 C   0  0  0  0  0  0
   -3.4580   49.9780   47.1030 O   0  0  0  0  0  0
   -3.5180   50.3600   48.4840 C   0  0  0  0  0  0
   -2.1650   50.4140   49.1850 C   0  0  0  0  0  0
   -1.1020   50.4290   49.7690 C   0  0  0  0  0  0
    0.2030   50.4460   50.4360 C   0  0  0  0  0  0
    0.7610   49.4910   51.4870 C   0  0  2  0  0  0
    0.0050   49.5450   52.7860 C   0  0  0  0  0  0
    0.2090   50.4150   53.6330 O   0  0  0  0  0  0
   -0.8660   48.5890   53.0210 O   0  5  0  0  0  0
    2.0810   49.9510   51.8400 N   0  0  3  0  0  0
    3.2940   49.0350   52.6110 S   0  0  0  0  0  0
    3.4030   47.6230   51.9970 O   0  0  0  0  0  0
    4.5890   49.9090   52.3640 O   0  0  0  0  0  0
    3.0210   48.7920   54.2990 C   0  0  0  0  0  0
    3.2620   49.8260   55.1990 C   0  0  0  0  0  0
    3.0870   49.6390   56.5710 C   0  0  0  0  0  0
    2.6670   48.4120   57.0600 C   0  0  0  0  0  0
    2.4550   47.3620   56.1510 C   0  0  0  0  0  0
    2.5970   47.5490   54.7780 C   0  0  0  0  0  0
    2.5690   48.2330   58.4290 C   0  0  0  0  0  0
    2.5560   46.9260   58.9250 C   0  0  0  0  0  0
    2.5300   46.6790   60.2830 C   0  0  0  0  0  0
    2.5800   47.7350   61.1610 C   0  0  0  0  0  0
    2.6260   49.0600   60.6950 C   0  0  0  0  0  0
    2.6510   49.3010   59.3280 C   0  0  0  0  0  0
    2.5510   47.4740   62.3710 O   0  0  0  0  0  0
    2.9470   48.4090   63.3140 C   0  0  0  0  0  0
   -4.6552   49.7938   45.4151 H   0  0  0  0  0  0
   -5.0836   51.1370   46.5281 H   0  0  0  0  0  0
   -5.4611   49.4402   46.9811 H   0  0  0  0  0  0
   -3.9618   51.3630   48.5680 H   0  0  0  0  0  0
   -4.1362   49.6380   49.0376 H   0  0  0  0  0  0
    1.0005   50.3561   49.6837 H   0  0  0  0  0  0
    0.3219   51.3917   50.9851 H   0  0  0  0  0  0
    0.7568   48.4729   51.0705 H   0  0  0  0  0  0
    2.4426   50.9215   51.4694 H   0  0  0  0  0  0
    3.5922   50.7959   54.8269 H   0  0  0  0  0  0
    3.2813   50.4607   57.2603 H   0  0  0  0  0  0
    2.1731   46.3791   56.5286 H   0  0  0  0  0  0
    2.3801   46.7358   54.0853 H   0  0  0  0  0  0
    2.5666   46.0881   58.2279 H   0  0  0  0  0  0
    2.4704   45.6563   60.6552 H   0  0  0  0  0  0
    2.6419   49.8909   61.4003 H   0  0  0  0  0  0
    2.7345   50.3220   58.9557 H   0  0  0  0  0  0
    2.8448   47.9795   64.3215 H   0  0  0  0  0  0
    2.3134   49.3044   63.2311 H   0  0  0  0  0  0
    3.9971   48.6853   63.1379 H   0  0  0  0  0  0
  1  2  1  0  0  0
  1 29  1  0  0  0
  1 30  1  0  0  0
  1 31  1  0  0  0
  2  3  1  0  0  0
  3  4  1  0  0  0
  3 32  1  0  0  0
  3 33  1  0  0  0
  4  5  3  0  0  0
  5  6  1  0  0  0
  6  7  1  0  0  0
  6 34  1  0  0  0
  6 35  1  0  0  0
  7 11  1  0  0  0
  7  8  1  0  0  0
  7 36  1  0  0  0
  8 10  1  0  0  0
  8  9  2  0  0  0
 11 12  1  0  0  0
 11 37  1  0  0  0
 12 15  1  0  0  0
 12 14  2  0  0  0
 12 13  2  0  0  0
 15 20  2  0  0  0
 15 16  1  0  0  0
 16 17  2  0  0  0
 16 38  1  0  0  0
 17 18  1  0  0  0
 17 39  1  0  0  0
 18 21  1  0  0  0
 18 19  2  0  0  0
 19 20  1  0  0  0
 19 40  1  0  0  0
 20 41  1  0  0  0
 21 26  2  0  0  0
 21 22  1  0  0  0
 22 23  2  0  0  0
 22 42  1  0  0  0
 23 24  1  0  0  0
 23 43  1  0  0  0
 24 27  1  0  0  0
 24 25  2  0  0  0
 25 26  1  0  0  0
 25 44  1  0  0  0
 26 45  1  0  0  0
 27 28  1  0  0  0
 28 46  1  0  0  0
 28 47  1  0  0  0
 28 48  1  0  0  0
M  CHG  1  10  -1
M  END
> <s_m_source_file>
../1hy7_ligand.sdf

> <i_m_source_file_index>
1

> <s_epik_input>
W0NIM11PW0NIMl1DI0NbQ0gyXVtDQEhdKEMoPU8pW09IXSlbTkhdUyg9TykoPU8pYzFbY0hdW2NIXWMoW2NIXVtjSF0xKS1jMltjSF1bY0hdYyhbY0hdW2NIXTIpT1tDSDNd

> <s_epik_cmdline>
J2VwaWtfYXBwJywgJy1pbWFlJywgJ2xpZ2FuZF9wcm8ubWFlJywgJy1vbWFlJywgJ2xpZ2FuZF9wcmVwLm1hZScsICctbXMnLCAnMScsICctcGgnLCAnNycsICctcGh0JywgJzAuNScsICctbnQn

> <r_lp_tautomer_probability>
1

> <r_epik_Ionization_Penalty>
  0.0001

> <r_epik_Ionization_Penalty_Charging>
  0.0000

> <r_epik_Ionization_Penalty_Neutral>
  0.0000

> <r_epik_State_Penalty>
 -0.0000

> <r_epik_Charging_Adjusted_Penalty>
4.17829157670159e-05

> <i_epik_Tot_Q>
-1

> <i_epik_Tot_abs_Q>
1

$$$$
