1hyo_ligand
                    3D
 Schrodinger Suite 2020-3.
 18 17  0  0  1  0            999 V2000
   47.4330   44.7450   61.8840 O   0  5  0  0  0  0
   47.6030   43.5510   62.1160 C   0  0  0  0  0  0
   47.1170   43.1040   63.1270 O   0  0  0  0  0  0
   48.3800   42.7230   61.1120 C   0  0  0  0  0  0
   47.9740   42.9670   59.6700 C   0  0  0  0  0  0
   48.0730   43.9910   59.0670 O   0  0  0  0  0  0
   47.3170   41.8060   58.9220 C   0  0  0  0  0  0
   45.4820   42.0780   58.9770 P   0  0  2  0  0  0
   45.1150   43.0380   57.9080 O   0  5  0  0  0  0
   45.1120   42.5280   60.3260 O   0  0  0  0  0  0
   44.8680   40.5860   58.7290 C   0  0  0  0  0  0
   49.4514   42.9586   61.1934 H   0  0  0  0  0  0
   48.2230   41.6540   61.3185 H   0  0  0  0  0  0
   47.6733   41.7918   57.8814 H   0  0  0  0  0  0
   47.5807   40.8575   59.4128 H   0  0  0  0  0  0
   45.1735   39.9224   59.5514 H   0  0  0  0  0  0
   45.2467   40.1874   57.7763 H   0  0  0  0  0  0
   43.7701   40.6428   58.6922 H   0  0  0  0  0  0
  1  2  1  0  0  0
  2  4  1  0  0  0
  2  3  2  0  0  0
  4  5  1  0  0  0
  4 12  1  0  0  0
  4 13  1  0  0  0
  5  7  1  0  0  0
  5  6  2  0  0  0
  7  8  1  0  0  0
  7 14  1  0  0  0
  7 15  1  0  0  0
  8 11  1  0  0  0
  8 10  2  0  0  0
  8  9  1  0  0  0
 11 16  1  0  0  0
 11 17  1  0  0  0
 11 18  1  0  0  0
M  CHG  2   1  -1   9  -1
M  END
> <s_m_source_file>
../1hyo_ligand.sdf

> <i_m_source_file_index>
1

> <s_epik_input>
W09IXUMoPU8pW0NIMl1DKD1PKVtDSDJdW1BAQF0oPU8pKFtPSF0pW0NIM10=

> <s_epik_cmdline>
J2VwaWtfYXBwJywgJy1pbWFlJywgJ2xpZ2FuZF9wcm8ubWFlJywgJy1vbWFlJywgJ2xpZ2FuZF9wcmVwLm1hZScsICctbXMnLCAnMScsICctcGgnLCAnNycsICctcGh0JywgJzAuNScsICctbnQn

> <r_lp_tautomer_probability>
1

> <r_epik_Ionization_Penalty>
  0.0002

> <r_epik_Ionization_Penalty_Charging>
  0.0002

> <r_epik_Ionization_Penalty_Neutral>
  0.0000

> <r_epik_State_Penalty>
 -0.0000

> <r_epik_Charging_Adjusted_Penalty>
0.000195623854156939

> <i_epik_Tot_Q>
-2

> <i_epik_Tot_abs_Q>
2

$$$$
