1hyv_ligand
                    3D
 Schrodinger Suite 2020-3.
 45 48  0  0  1  0            999 V2000
    6.3270   46.1270  -10.7860 As  0  0  0  0  0  0
    5.5690   44.8690  -12.0190 C   0  0  0  0  0  0
    5.7010   43.4810  -11.9250 C   0  0  0  0  0  0
    5.0660   42.6850  -12.8860 C   0  0  0  0  0  0
    4.3080   43.2630  -13.8660 C   0  0  0  0  0  0
    4.1390   44.6550  -13.9800 C   0  0  0  0  0  0
    4.7740   45.5280  -13.0170 C   0  0  0  0  0  0
    4.9020   46.8720   -9.8160 C   0  0  0  0  0  0
    4.9700   47.3130   -8.4480 C   0  0  0  0  0  0
    3.8510   47.8310   -7.8040 C   0  0  0  0  0  0
    2.6150   47.8910   -8.5340 C   0  0  0  0  0  0
    2.5430   47.4240   -9.9100 C   0  0  0  0  0  0
    3.6600   46.9110  -10.5540 C   0  0  0  0  0  0
    7.4300   47.1920  -11.8940 C   0  0  0  0  0  0
    8.4130   48.1080  -11.2880 C   0  0  0  0  0  0
    9.3460   48.7900  -12.2120 C   0  0  0  0  0  0
    9.3010   48.4700  -13.6240 C   0  0  0  0  0  0
    8.4240   47.5120  -14.1910 C   0  0  0  0  0  0
    7.5240   46.8430  -13.3230 C   0  0  0  0  0  0
    7.4860   45.3330   -9.4720 C   0  0  0  0  0  0
    6.9520   45.1140   -8.1830 C   0  0  0  0  0  0
    7.8620   44.5340   -7.2500 C   0  0  0  0  0  0
    9.1260   44.2360   -7.5950 C   0  0  0  0  0  0
    9.7070   44.4610   -8.8980 C   0  0  0  0  0  0
    8.7880   45.0610   -9.8940 C   0  0  0  0  0  0
    6.2843   43.0289  -11.1228 H   0  0  0  0  0  0
    5.1763   41.6011  -12.8527 H   0  0  0  0  0  0
    3.8128   42.6169  -14.5909 H   0  0  0  0  0  0
    3.5354   45.0717  -14.7862 H   0  0  0  0  0  0
    4.6571   46.6113  -13.0468 H   0  0  0  0  0  0
    5.9137   47.2400   -7.9075 H   0  0  0  0  0  0
    3.9103   48.1818   -6.7737 H   0  0  0  0  0  0
    1.7225   48.2903   -8.0522 H   0  0  0  0  0  0
    1.5947   47.4780  -10.4446 H   0  0  0  0  0  0
    3.6027   46.5500  -11.5809 H   0  0  0  0  0  0
    8.4508   48.2749  -10.2115 H   0  0  0  0  0  0
   10.0582   49.5239  -11.8349 H   0  0  0  0  0  0
    9.9829   48.9979  -14.2907 H   0  0  0  0  0  0
    8.4407   47.2964  -15.2593 H   0  0  0  0  0  0
    6.8875   46.0530  -13.7215 H   0  0  0  0  0  0
    5.9248   45.3683   -7.9215 H   0  0  0  0  0  0
    7.5244   44.3279   -6.2343 H   0  0  0  0  0  0
    9.7629   43.7894   -6.8315 H   0  0  0  0  0  0
   10.7416   44.2090   -9.1309 H   0  0  0  0  0  0
    9.1145   45.2800  -10.9106 H   0  0  0  0  0  0
  1  2  1  0  0  0
  1  8  1  0  0  0
  1 14  1  0  0  0
  1 20  1  0  0  0
  2  3  2  0  0  0
  2  7  1  0  0  0
  3  4  1  0  0  0
  3 26  1  0  0  0
  4  5  2  0  0  0
  4 27  1  0  0  0
  5  6  1  0  0  0
  5 28  1  0  0  0
  6  7  2  0  0  0
  6 29  1  0  0  0
  7 30  1  0  0  0
  8  9  2  0  0  0
  8 13  1  0  0  0
  9 10  1  0  0  0
  9 31  1  0  0  0
 10 11  2  0  0  0
 10 32  1  0  0  0
 11 12  1  0  0  0
 11 33  1  0  0  0
 12 13  2  0  0  0
 12 34  1  0  0  0
 13 35  1  0  0  0
 14 15  2  0  0  0
 14 19  1  0  0  0
 15 16  1  0  0  0
 15 36  1  0  0  0
 16 17  2  0  0  0
 16 37  1  0  0  0
 17 18  1  0  0  0
 17 38  1  0  0  0
 18 19  2  0  0  0
 18 39  1  0  0  0
 19 40  1  0  0  0
 20 21  2  0  0  0
 20 25  1  0  0  0
 21 22  1  0  0  0
 21 41  1  0  0  0
 22 23  2  0  0  0
 22 42  1  0  0  0
 23 24  1  0  0  0
 23 43  1  0  0  0
 24 25  2  0  0  0
 24 44  1  0  0  0
 25 45  1  0  0  0
M  END
> <s_m_source_file>
../1hyv_ligand.sdf

> <i_m_source_file_index>
1

> <s_epik_input>
W2NIXTFbY0hdW2NIXVtjSF1bY0hdYzFbQXNIXShjMltjSF1bY0hdW2NIXVtjSF1bY0hdMikoYzNbY0hdW2NIXVtjSF1bY0hdW2NIXTMpYzRbY0hdW2NIXVtjSF1bY0hdW2NIXTQ=

> <s_epik_cmdline>
J2VwaWtfYXBwJywgJy1pbWFlJywgJ2xpZ2FuZF9wcm8ubWFlJywgJy1vbWFlJywgJ2xpZ2FuZF9wcmVwLm1hZScsICctbXMnLCAnMScsICctcGgnLCAnNycsICctcGh0JywgJzAuNScsICctbnQn

> <r_lp_tautomer_probability>
1

> <r_epik_Ionization_Penalty>
  0.0000

> <r_epik_Ionization_Penalty_Charging>
  0.0000

> <r_epik_Ionization_Penalty_Neutral>
  0.0000

> <r_epik_State_Penalty>
 -0.0000

> <r_epik_Charging_Adjusted_Penalty>
0

> <i_epik_Tot_Q>
0

> <i_epik_Tot_abs_Q>
0

$$$$
