1i00_ligand
                    3D
 Schrodinger Suite 2020-3.
 52 54  0  0  1  0            999 V2000
   38.3940   58.0230   47.2850 N   0  0  0  0  0  0
   38.5690   56.8360   47.9710 C   0  0  0  0  0  0
   39.8520   56.0670   47.8810 C   0  0  0  0  0  0
   37.5000   56.3680   48.7640 N   0  0  0  0  0  0
   36.2640   57.0580   48.8890 C   0  0  0  0  0  0
   35.3670   56.6160   49.5870 O   0  0  0  0  0  0
   36.1340   58.2770   48.1650 C   0  0  0  0  0  0
   34.9740   59.0690   48.1950 C   0  0  0  0  0  0
   34.8190   60.2930   47.4820 C   0  0  0  0  0  0
   35.9210   60.7260   46.6910 C   0  0  0  0  0  0
   37.1340   59.9730   46.6110 C   0  0  0  0  0  0
   37.2130   58.7550   47.3580 C   0  0  0  0  0  0
   33.5140   61.1320   47.5520 C   0  0  0  0  0  0
   32.3680   60.7160   48.5220 N   0  0  0  0  0  0
   33.1580   61.3090   52.3440 C   0  0  0  0  0  0
   33.8710   61.4920   50.7740 S   0  0  0  0  0  0
   32.4890   60.8590   49.9640 C   0  0  0  0  0  0
   31.5560   60.5310   50.9080 C   0  0  0  0  0  0
   31.9190   60.7790   52.2390 C   0  0  0  0  0  0
   34.0060   61.7590   53.5680 C   0  0  0  0  0  0
   35.1570   62.2250   53.3430 O   0  0  0  0  0  0
   33.4510   61.6230   54.8440 N   0  0  0  0  0  0
   34.2460   62.0290   56.0340 C   0  0  1  0  0  0
   34.3380   63.5200   56.2880 C   0  0  0  0  0  0
   33.2210   64.5000   56.0330 C   0  0  0  0  0  0
   33.0590   65.5730   57.0820 C   0  0  0  0  0  0
   33.5380   66.6960   56.7950 O   0  0  0  0  0  0
   32.4620   65.2440   58.1350 O   0  5  0  0  0  0
   33.7060   61.1800   57.1640 C   0  0  0  0  0  0
   34.5400   60.4310   57.7170 O   0  0  0  0  0  0
   32.4780   61.3010   57.4240 O   0  5  0  0  0  0
   31.1480   60.2040   47.8920 C   0  0  0  0  0  0
   40.5512   56.5968   47.2174 H   0  0  0  0  0  0
   39.6508   55.0642   47.4761 H   0  0  0  0  0  0
   40.2957   55.9755   48.8834 H   0  0  0  0  0  0
   37.6012   55.4262   49.3232 H   0  0  0  0  0  0
   34.1378   58.7247   48.8035 H   0  0  0  0  0  0
   35.8376   61.6574   46.1309 H   0  0  0  0  0  0
   37.9703   60.3153   46.0015 H   0  0  0  0  0  0
   33.7558   62.1616   47.8545 H   0  0  0  0  0  0
   33.0322   61.1439   46.5632 H   0  0  0  0  0  0
   30.5895   60.1030   50.6420 H   0  0  0  0  0  0
   31.2750   60.5683   53.0928 H   0  0  0  0  0  0
   32.4356   61.2198   54.9723 H   0  0  0  0  0  0
   35.3142   61.8262   55.8673 H   0  0  0  0  0  0
   34.5479   63.6982   57.3530 H   0  0  0  0  0  0
   35.1481   63.9466   55.6782 H   0  0  0  0  0  0
   33.3982   65.0178   55.0788 H   0  0  0  0  0  0
   32.2636   63.9604   55.9851 H   0  0  0  0  0  0
   31.2806   60.1821   46.8002 H   0  0  0  0  0  0
   30.3017   60.8593   48.1455 H   0  0  0  0  0  0
   30.9460   59.1863   48.2574 H   0  0  0  0  0  0
  1  2  2  0  0  0
  1 12  1  0  0  0
  2  3  1  0  0  0
  2  4  1  0  0  0
  3 33  1  0  0  0
  3 34  1  0  0  0
  3 35  1  0  0  0
  4  5  1  0  0  0
  4 36  1  0  0  0
  5  6  2  0  0  0
  5  7  1  0  0  0
  7  8  2  0  0  0
  7 12  1  0  0  0
  8  9  1  0  0  0
  8 37  1  0  0  0
  9 10  2  0  0  0
  9 13  1  0  0  0
 10 11  1  0  0  0
 10 38  1  0  0  0
 11 12  2  0  0  0
 11 39  1  0  0  0
 13 14  1  0  0  0
 13 40  1  0  0  0
 13 41  1  0  0  0
 14 17  1  0  0  0
 14 32  1  0  0  0
 15 16  1  0  0  0
 15 19  2  0  0  0
 15 20  1  0  0  0
 16 17  1  0  0  0
 17 18  2  0  0  0
 18 19  1  0  0  0
 18 42  1  0  0  0
 19 43  1  0  0  0
 20 21  2  0  0  0
 20 22  1  0  0  0
 22 23  1  0  0  0
 22 44  1  0  0  0
 23 24  1  0  0  0
 23 29  1  0  0  0
 23 45  1  0  0  0
 24 25  1  0  0  0
 24 46  1  0  0  0
 24 47  1  0  0  0
 25 26  1  0  0  0
 25 48  1  0  0  0
 25 49  1  0  0  0
 26 27  2  0  0  0
 26 28  1  0  0  0
 29 30  2  0  0  0
 29 31  1  0  0  0
 32 50  1  0  0  0
 32 51  1  0  0  0
 32 52  1  0  0  0
M  CHG  2  28  -1  31  -1
M  END
> <s_m_source_file>
../1i00_ligand.sdf

> <i_m_source_file_index>
1

> <s_epik_input>
Tz1jMVtuSF1jKFtDSDNdKW5jKGMxMilbY0hdW2NIXWMoW2NIXTIpW0NIMl1OKFtDSDNdKWMoW2NIXVtjSF0zKXNjM0MoPU8pW05IXVtDQEhdKEMoPU8pW09IXSlbQ0gyXVtDSDJdQyg9TylbT0hd

> <s_epik_cmdline>
J2VwaWtfYXBwJywgJy1pbWFlJywgJ2xpZ2FuZF9wcm8ubWFlJywgJy1vbWFlJywgJ2xpZ2FuZF9wcmVwLm1hZScsICctbXMnLCAnMScsICctcGgnLCAnNycsICctcGh0JywgJzAuNScsICctbnQn

> <r_lp_tautomer_probability>
1

> <r_epik_Ionization_Penalty>
  0.0043

> <r_epik_Ionization_Penalty_Charging>
  0.0043

> <r_epik_Ionization_Penalty_Neutral>
  0.0000

> <r_epik_State_Penalty>
 -0.0000

> <r_epik_Charging_Adjusted_Penalty>
0.00433191746367378

> <i_epik_Tot_Q>
-2

> <i_epik_Tot_abs_Q>
2

$$$$
