1i1e_ligand
                    3D
 Schrodinger Suite 2020-3.
 71 75  0  0  1  0            999 V2000
   32.6390  -37.7100  -36.4450 C   0  0  0  0  0  0
   33.9650  -38.2260  -36.2490 C   0  0  0  0  0  0
   35.0940  -37.3320  -36.3490 C   0  0  0  0  0  0
   34.9040  -35.9160  -36.6400 C   0  0  0  0  0  0
   36.0240  -35.0590  -36.7340 O   0  0  0  0  0  0
   33.5580  -35.3900  -36.8440 C   0  0  0  0  0  0
   33.2970  -33.9790  -37.1450 C   0  0  0  0  0  0
   34.3500  -33.0910  -37.2450 O   0  0  0  0  0  0
   31.9480  -33.4320  -37.3650 C   0  0  0  0  0  0
   31.6510  -32.0160  -37.6730 C   0  0  0  0  0  0
   32.6150  -31.0140  -37.8060 O   0  0  0  0  0  0
   30.2660  -31.5910  -37.8690 C   0  0  0  0  0  0
   30.0050  -30.1160  -38.1860 C   0  0  1  0  0  0
   30.5500  -30.1210  -39.5430 O   0  0  0  0  0  0
   28.5230  -29.5880  -38.0720 C   0  0  0  0  0  0
   27.6410  -30.6840  -38.8450 C   0  0  2  0  0  0
   28.0110  -31.0840  -40.2110 O   0  0  0  0  0  0
   26.1070  -30.3860  -38.8870 C   0  0  0  0  0  0
   25.3170  -30.7210  -40.0000 O   0  0  0  0  0  0
   25.4500  -29.7610  -37.7220 C   0  0  0  0  0  0
   24.0460  -29.5800  -37.8920 O   0  0  0  0  0  0
   27.7750  -32.0170  -37.9870 C   0  0  0  0  0  0
   29.2010  -32.4930  -37.7760 C   0  0  0  0  0  0
   29.4750  -33.8720  -37.4740 C   0  0  0  0  0  0
   28.3890  -34.7000  -37.3910 O   0  0  0  0  0  0
   30.8310  -34.3710  -37.2610 C   0  0  0  0  0  0
   31.0860  -35.7960  -36.9480 C   0  0  0  0  0  0
   30.0390  -36.6260  -36.8620 O   0  0  0  0  0  0
   32.4300  -36.2800  -36.7460 C   0  0  0  0  0  0
   37.3960  -35.5770  -36.5380 C   0  0  0  0  0  0
   31.4710  -29.1430  -40.0310 C   0  0  1  0  0  0
   32.3720  -29.8650  -41.1260 C   0  0  0  0  0  0
   31.3780  -30.3210  -42.2650 C   0  0  2  0  0  0
   32.1870  -31.0210  -43.3760 N   0  3  0  0  0  0
   30.6210  -29.1120  -42.8390 C   0  0  2  0  0  0
   31.6990  -28.2160  -43.3630 O   0  0  0  0  0  0
   29.7750  -28.4270  -41.7480 C   0  0  1  0  0  0
   30.7020  -27.9910  -40.6110 O   0  0  0  0  0  0
   29.0090  -27.1770  -42.2670 C   0  0  0  0  0  0
   31.7814  -38.3787  -36.3710 H   0  0  0  0  0  0
   34.1173  -39.2822  -36.0269 H   0  0  0  0  0  0
   36.1021  -37.7208  -36.2050 H   0  0  0  0  0  0
   35.3813  -33.4412  -37.0909 H   0  0  0  0  0  0
   33.6802  -31.2544  -37.6732 H   0  0  0  0  0  0
   30.5040  -29.4133  -37.5025 H   0  0  0  0  0  0
   28.2418  -29.5108  -37.0113 H   0  0  0  0  0  0
   28.4495  -28.5971  -38.5438 H   0  0  0  0  0  0
   28.0041  -30.3414  -41.0225 H   0  0  0  0  0  0
   25.5958  -30.3950  -36.8350 H   0  0  0  0  0  0
   25.8908  -28.7696  -37.5406 H   0  0  0  0  0  0
   23.4491  -29.1230  -37.0889 H   0  0  0  0  0  0
   27.3421  -31.8556  -36.9887 H   0  0  0  0  0  0
   27.2380  -32.8336  -38.4918 H   0  0  0  0  0  0
   27.3779  -34.2992  -37.5557 H   0  0  0  0  0  0
   29.0196  -36.2434  -37.0183 H   0  0  0  0  0  0
   38.1180  -34.7550  -36.6521 H   0  0  0  0  0  0
   37.6047  -36.3550  -37.2871 H   0  0  0  0  0  0
   37.4853  -36.0061  -35.5291 H   0  0  0  0  0  0
   32.0394  -28.7482  -39.1759 H   0  0  0  0  0  0
   33.1213  -29.1567  -41.5092 H   0  0  0  0  0  0
   32.8815  -30.7273  -40.6711 H   0  0  0  0  0  0
   30.6232  -31.0174  -41.8710 H   0  0  0  0  0  0
   32.7228  -31.8829  -42.9518 H   0  0  0  0  0  0
   32.9120  -30.3127  -43.8034 H   0  0  0  0  0  0
   31.5031  -31.3666  -44.1652 H   0  0  0  0  0  0
   29.9214  -29.3751  -43.6461 H   0  0  0  0  0  0
   32.3804  -28.5762  -44.1479 H   0  0  0  0  0  0
   29.0348  -29.1627  -41.4003 H   0  0  0  0  0  0
   28.3369  -27.4728  -43.0860 H   0  0  0  0  0  0
   29.7298  -26.4320  -42.6350 H   0  0  0  0  0  0
   28.4186  -26.7422  -41.4470 H   0  0  0  0  0  0
  1  2  2  0  0  0
  1 29  1  0  0  0
  1 40  1  0  0  0
  2  3  1  0  0  0
  2 41  1  0  0  0
  3  4  2  0  0  0
  3 42  1  0  0  0
  4  5  1  0  0  0
  4  6  1  0  0  0
  5 30  1  0  0  0
  6  7  1  0  0  0
  6 29  2  0  0  0
  7  8  1  0  0  0
  7  9  2  0  0  0
  8 43  1  0  0  0
  9 10  1  0  0  0
  9 26  1  0  0  0
 10 11  1  0  0  0
 10 12  2  0  0  0
 11 44  1  0  0  0
 12 13  1  0  0  0
 12 23  1  0  0  0
 13 14  1  0  0  0
 13 15  1  0  0  0
 13 45  1  0  0  0
 14 31  1  0  0  0
 15 16  1  0  0  0
 15 46  1  0  0  0
 15 47  1  0  0  0
 16 17  1  0  0  0
 16 18  1  0  0  0
 16 22  1  0  0  0
 17 48  1  0  0  0
 18 19  2  0  0  0
 18 20  1  0  0  0
 20 21  1  0  0  0
 20 49  1  0  0  0
 20 50  1  0  0  0
 21 51  1  0  0  0
 22 23  1  0  0  0
 22 52  1  0  0  0
 22 53  1  0  0  0
 23 24  2  0  0  0
 24 25  1  0  0  0
 24 26  1  0  0  0
 25 54  1  0  0  0
 26 27  2  0  0  0
 27 28  1  0  0  0
 27 29  1  0  0  0
 28 55  1  0  0  0
 30 56  1  0  0  0
 30 57  1  0  0  0
 30 58  1  0  0  0
 31 32  1  0  0  0
 31 38  1  0  0  0
 31 59  1  0  0  0
 32 33  1  0  0  0
 32 60  1  0  0  0
 32 61  1  0  0  0
 33 34  1  0  0  0
 33 35  1  0  0  0
 33 62  1  0  0  0
 34 63  1  0  0  0
 34 64  1  0  0  0
 34 65  1  0  0  0
 35 36  1  0  0  0
 35 37  1  0  0  0
 35 66  1  0  0  0
 36 67  1  0  0  0
 37 38  1  0  0  0
 37 39  1  0  0  0
 37 68  1  0  0  0
 39 69  1  0  0  0
 39 70  1  0  0  0
 39 71  1  0  0  0
M  CHG  1  34   1
M  END
> <s_m_source_file>
../1i1e_ligand.sdf

> <i_m_source_file_index>
1

> <s_epik_input>
W0NIM11PYzFbY0hdW2NIXVtjSF1jKGMxMiljKFtPSF0pYzNjKGMyW09IXSljKFtPSF0pYzRjKGMzW09IXSlbQ0gyXVtDQEBdKFtPSF0pKEMoPU8pW0NIMl1bT0hdKVtDSDJdW0NAQEhdNE9bQ0BIXTVbQ0gyXVtDQEhdKFtOSDMrXSlbQ0BIXShbT0hdKVtDQEBIXShPNSlbQ0gzXQ==

> <s_epik_cmdline>
J2VwaWtfYXBwJywgJy1pbWFlJywgJ2xpZ2FuZF9wcm8ubWFlJywgJy1vbWFlJywgJ2xpZ2FuZF9wcmVwLm1hZScsICctbXMnLCAnMScsICctcGgnLCAnNycsICctcGh0JywgJzAuNScsICctbnQn

> <r_epik_Ionization_Penalty>
  0.0371

> <r_epik_Ionization_Penalty_Charging>
  0.0328

> <r_epik_Ionization_Penalty_Neutral>
  0.0044

> <r_epik_State_Penalty>
  0.0271

> <r_epik_Charging_Adjusted_Penalty>
0.0599001569678461

> <i_epik_Tot_Q>
1

> <i_epik_Tot_abs_Q>
1

> <s_epik_Chemistry_Notes>
This compound contains an acetal/aminal-like group ( X-CH(R)-Y where X, Y are N, S, or O) that may be acid/base labile, releasing an aldehyde.

$$$$
