1i2s_ligand
                    3D
 Schrodinger Suite 2020-3.
 18 17  0  0  1  0            999 V2000
   24.9790   -4.7030   12.9270 C   0  0  0  0  0  0
   23.8350   -4.3210   13.6680 O   0  5  0  0  0  0
   25.5880   -3.8930   12.1800 O   0  0  0  0  0  0
   25.3520   -6.2090   13.1670 C   0  0  0  0  0  0
   26.2260   -6.3710   14.4710 C   0  0  0  0  0  0
   27.4960   -5.7060   14.2300 O   0  0  0  0  0  0
   26.4080   -7.9180   14.7860 C   0  0  0  0  0  0
   27.0150   -8.1090   16.2380 C   0  0  0  0  0  0
   27.4180   -7.1790   17.0030 O   0  0  0  0  0  0
   27.0780   -9.4750   16.6260 O   0  5  0  0  0  0
   25.5230   -5.6980   15.7250 C   0  0  0  0  0  0
   25.9130   -4.6430   16.2870 O   0  0  0  0  0  0
   24.3840   -6.4300   16.1620 O   0  5  0  0  0  0
   24.4319   -6.8008   13.2819 H   0  0  0  0  0  0
   25.9256   -6.5862   12.3075 H   0  0  0  0  0  0
   28.1375   -6.0305   13.3974 H   0  0  0  0  0  0
   25.4308   -8.4203   14.7338 H   0  0  0  0  0  0
   27.0898   -8.3649   14.0475 H   0  0  0  0  0  0
  1  2  1  0  0  0
  1  3  2  0  0  0
  1  4  1  0  0  0
  4  5  1  0  0  0
  4 14  1  0  0  0
  4 15  1  0  0  0
  5  6  1  0  0  0
  5  7  1  0  0  0
  5 11  1  0  0  0
  6 16  1  0  0  0
  7  8  1  0  0  0
  7 17  1  0  0  0
  7 18  1  0  0  0
  8  9  2  0  0  0
  8 10  1  0  0  0
 11 12  2  0  0  0
 11 13  1  0  0  0
M  CHG  3   2  -1  10  -1  13  -1
M  END
> <s_m_source_file>
../1i2s_ligand.sdf

> <i_m_source_file_index>
1

> <s_epik_input>
W09IXUMoPU8pW0NIMl1DKFtPSF0pKEMoPU8pW09IXSlbQ0gyXUMoPU8pW09IXQ==

> <s_epik_cmdline>
J2VwaWtfYXBwJywgJy1pbWFlJywgJ2xpZ2FuZF9wcm8ubWFlJywgJy1vbWFlJywgJ2xpZ2FuZF9wcmVwLm1hZScsICctbXMnLCAnMScsICctcGgnLCAnNycsICctcGh0JywgJzAuNScsICctbnQn

> <r_lp_tautomer_probability>
1

> <r_epik_Ionization_Penalty>
  0.0046

> <r_epik_Ionization_Penalty_Charging>
  0.0046

> <r_epik_Ionization_Penalty_Neutral>
  0.0000

> <r_epik_State_Penalty>
 -0.0000

> <r_epik_Charging_Adjusted_Penalty>
0.0045906918398983

> <i_epik_Tot_Q>
-3

> <i_epik_Tot_abs_Q>
3

$$$$
