1i32_ligand
                    3D
 Schrodinger Suite 2020-3.
 72 77  0  0  1  0            999 V2000
   22.8230   79.7350   -1.1320 C   0  0  0  0  0  0
   23.9020   79.9230   -2.2110 C   0  0  1  0  0  0
   23.4310   80.6340   -3.3530 O   0  0  0  0  0  0
   25.1290   80.6880   -1.7370 C   0  0  1  0  0  0
   26.3130   80.2440   -2.3960 O   0  0  0  0  0  0
   24.7380   82.1400   -2.0340 C   0  0  1  0  0  0
   25.8600   83.0550   -2.2250 N   0  0  0  0  0  0
   23.8610   81.9980   -3.2910 C   0  0  2  0  0  0
   22.7130   82.9000   -3.3940 N   0  0  0  0  0  0
   22.0580   83.5870   -2.4020 C   0  0  0  0  0  0
   21.0540   84.3220   -2.8270 N   0  0  0  0  0  0
   21.0360   84.1100   -4.1980 C   0  0  0  0  0  0
   20.2070   84.5980   -5.2650 C   0  0  0  0  0  0
   19.1690   85.4560   -5.1340 N   0  0  0  0  0  0
   20.4860   84.1630   -6.5290 N   0  0  0  0  0  0
   21.5070   83.3100   -6.7350 C   0  0  0  0  0  0
   22.3420   82.7950   -5.8200 N   0  0  0  0  0  0
   22.0560   83.2320   -4.5660 C   0  0  0  0  0  0
   18.6670   86.0570   -3.8940 C   0  0  0  0  0  0
   19.0620   87.5020   -3.6200 C   0  0  0  0  0  0
   18.7150   88.1450   -2.3740 C   0  0  0  0  0  0
   17.9880   87.4810   -1.3330 C   0  0  0  0  0  0
   17.6640   88.1460   -0.1160 C   0  0  0  0  0  0
   18.0640   89.4950    0.0870 C   0  0  0  0  0  0
   19.7870   88.2350   -4.6090 C   0  0  0  0  0  0
   19.1190   89.5240   -2.1550 C   0  0  0  0  0  0
   18.7880   90.1780   -0.9310 C   0  0  0  0  0  0
   20.1760   89.5830   -4.3880 C   0  0  0  0  0  0
   19.8420   90.2220   -3.1640 C   0  0  0  0  0  0
   26.1750   84.1240   -1.4490 C   0  0  0  0  0  0
   25.5440   84.3930   -0.4180 O   0  0  0  0  0  0
   27.3140   84.9820   -1.8820 C   0  0  0  0  0  0
   28.0180   84.6410   -3.0730 C   0  0  0  0  0  0
   29.1100   85.4270   -3.5320 C   0  0  0  0  0  0
   29.7380   85.0340   -4.6900 O   0  0  0  0  0  0
   30.9480   84.2800   -4.5840 C   0  0  0  0  0  0
   29.4950   86.5760   -2.7770 C   0  0  0  0  0  0
   27.7080   86.1340   -1.1320 C   0  0  0  0  0  0
   28.8020   86.9440   -1.5730 C   0  0  0  0  0  0
   29.1390   88.0440   -0.8080 O   0  0  0  0  0  0
   29.4950   89.2710   -1.4590 C   0  0  0  0  0  0
   23.3320   78.9520   -0.0530 O   0  0  0  0  0  0
   22.5139   80.7181   -0.7474 H   0  0  0  0  0  0
   21.9533   79.2221   -1.5686 H   0  0  0  0  0  0
   24.1576   78.9037   -2.5362 H   0  0  0  0  0  0
   25.4443   80.5115   -0.6981 H   0  0  0  0  0  0
   26.6739   79.2159   -2.2449 H   0  0  0  0  0  0
   24.2653   82.6447   -1.1785 H   0  0  0  0  0  0
   26.5515   82.9090   -3.0679 H   0  0  0  0  0  0
   24.4379   82.2614   -4.1898 H   0  0  0  0  0  0
   22.3456   83.5282   -1.3523 H   0  0  0  0  0  0
   18.6873   85.6927   -6.0942 H   0  0  0  0  0  0
   21.6750   83.0015   -7.7668 H   0  0  0  0  0  0
   17.5671   86.0462   -3.9004 H   0  0  0  0  0  0
   19.0343   85.4805   -3.0322 H   0  0  0  0  0  0
   17.6767   86.4462   -1.4754 H   0  0  0  0  0  0
   17.1087   87.6201    0.6606 H   0  0  0  0  0  0
   17.8173   90.0045    1.0185 H   0  0  0  0  0  0
   20.0464   87.7508   -5.5505 H   0  0  0  0  0  0
   19.0929   91.2125   -0.7734 H   0  0  0  0  0  0
   20.7289   90.1254   -5.1549 H   0  0  0  0  0  0
   20.1419   91.2563   -2.9955 H   0  0  0  0  0  0
   27.7140   83.7624   -3.6419 H   0  0  0  0  0  0
   31.3229   84.0449   -5.5911 H   0  0  0  0  0  0
   30.7509   83.3452   -4.0386 H   0  0  0  0  0  0
   31.7011   84.8697   -4.0407 H   0  0  0  0  0  0
   30.3306   87.1858   -3.1204 H   0  0  0  0  0  0
   27.1722   86.3964   -0.2198 H   0  0  0  0  0  0
   29.7314   90.0328   -0.7015 H   0  0  0  0  0  0
   28.6525   89.6165   -2.0760 H   0  0  0  0  0  0
   30.3742   89.1049   -2.0988 H   0  0  0  0  0  0
   22.6893   78.7197    0.8090 H   0  0  0  0  0  0
  1  2  1  0  0  0
  1 42  1  0  0  0
  1 43  1  0  0  0
  1 44  1  0  0  0
  2  3  1  0  0  0
  2  4  1  0  0  0
  2 45  1  0  0  0
  3  8  1  0  0  0
  4  5  1  0  0  0
  4  6  1  0  0  0
  4 46  1  0  0  0
  5 47  1  0  0  0
  6  7  1  0  0  0
  6  8  1  0  0  0
  6 48  1  0  0  0
  7 30  1  0  0  0
  7 49  1  0  0  0
  8  9  1  0  0  0
  8 50  1  0  0  0
  9 10  1  0  0  0
  9 18  1  0  0  0
 10 11  2  0  0  0
 10 51  1  0  0  0
 11 12  1  0  0  0
 12 13  2  0  0  0
 12 18  1  0  0  0
 13 14  1  0  0  0
 13 15  1  0  0  0
 14 19  1  0  0  0
 14 52  1  0  0  0
 15 16  2  0  0  0
 16 17  1  0  0  0
 16 53  1  0  0  0
 17 18  2  0  0  0
 19 20  1  0  0  0
 19 54  1  0  0  0
 19 55  1  0  0  0
 20 21  2  0  0  0
 20 25  1  0  0  0
 21 22  1  0  0  0
 21 26  1  0  0  0
 22 23  2  0  0  0
 22 56  1  0  0  0
 23 24  1  0  0  0
 23 57  1  0  0  0
 24 27  2  0  0  0
 24 58  1  0  0  0
 25 28  2  0  0  0
 25 59  1  0  0  0
 26 27  1  0  0  0
 26 29  2  0  0  0
 27 60  1  0  0  0
 28 29  1  0  0  0
 28 61  1  0  0  0
 29 62  1  0  0  0
 30 31  2  0  0  0
 30 32  1  0  0  0
 32 33  2  0  0  0
 32 38  1  0  0  0
 33 34  1  0  0  0
 33 63  1  0  0  0
 34 35  1  0  0  0
 34 37  2  0  0  0
 35 36  1  0  0  0
 36 64  1  0  0  0
 36 65  1  0  0  0
 36 66  1  0  0  0
 37 39  1  0  0  0
 37 67  1  0  0  0
 38 39  2  0  0  0
 38 68  1  0  0  0
 39 40  1  0  0  0
 40 41  1  0  0  0
 41 69  1  0  0  0
 41 70  1  0  0  0
 41 71  1  0  0  0
 42 72  1  0  0  0
M  END
> <s_m_source_file>
../1i32_ligand.sdf

> <i_m_source_file_index>
1

> <s_epik_input>
W0NIM11PYyhbY0hdMSlbY0hdYyhPW0NIM10pW2NIXWMxQyg9TylbTkhdW0NASF0oW0NAQEhdMltPSF0pW0NAQEhdKE9bQ0BASF0yW0NIMl1bT0hdKW4oW2NIXW4zKWMoYzM0KW5bY0hdbmM0W05IXVtDSDJdYzVbY0hdW2NIXVtjSF1jKGM1NilbY0hdW2NIXVtjSF1bY0hdNg==

> <s_epik_cmdline>
J2VwaWtfYXBwJywgJy1pbWFlJywgJ2xpZ2FuZF9wcm8ubWFlJywgJy1vbWFlJywgJ2xpZ2FuZF9wcmVwLm1hZScsICctbXMnLCAnMScsICctcGgnLCAnNycsICctcGh0JywgJzAuNScsICctbnQn

> <r_lp_tautomer_probability>
1

> <r_epik_Ionization_Penalty>
  0.0003

> <r_epik_Ionization_Penalty_Charging>
  0.0000

> <r_epik_Ionization_Penalty_Neutral>
  0.0003

> <r_epik_State_Penalty>
 -0.0000

> <r_epik_Charging_Adjusted_Penalty>
0

> <i_epik_Tot_Q>
0

> <i_epik_Tot_abs_Q>
0

> <s_epik_Chemistry_Notes>
This compound contains an acetal/aminal-like group ( X-CH(R)-Y where X, Y are N, S, or O) that may be acid/base labile, releasing an aldehyde.

$$$$
