1i33_ligand
                    3D
 Schrodinger Suite 2020-3.
 73 78  0  0  1  0            999 V2000
   23.0810   79.3270   -1.2230 C   0  0  0  0  0  0
   23.8860   79.5970   -2.5110 C   0  0  1  0  0  0
   23.1530   80.3810   -3.4770 O   0  0  0  0  0  0
   25.1990   80.3370   -2.2690 C   0  0  1  0  0  0
   26.2470   79.8800   -3.1240 O   0  0  0  0  0  0
   24.7770   81.7890   -2.4730 C   0  0  1  0  0  0
   25.8550   82.7590   -2.6710 N   0  0  0  0  0  0
   23.7800   81.6800   -3.6380 C   0  0  2  0  0  0
   22.7600   82.7420   -3.7060 N   0  0  0  0  0  0
   22.2810   83.5390   -2.6910 C   0  0  0  0  0  0
   21.3630   84.4030   -3.0660 N   0  0  0  0  0  0
   21.2100   84.1710   -4.4260 C   0  0  0  0  0  0
   20.3650   84.7650   -5.4510 C   0  0  0  0  0  0
   19.4650   85.7740   -5.2460 N   0  0  0  0  0  0
   20.4800   84.2700   -6.7330 N   0  0  0  0  0  0
   21.3630   83.2670   -6.9850 C   0  0  0  0  0  0
   22.1930   82.6470   -6.1140 N   0  0  0  0  0  0
   22.0700   83.1430   -4.8460 C   0  0  0  0  0  0
   19.2930   86.5550   -4.0010 C   0  0  1  0  0  0
   19.3880   88.0770   -4.2170 C   0  0  0  0  0  0
   19.9150   88.6680   -5.5020 C   0  0  0  0  0  0
   19.9820   90.1610   -5.6520 C   0  0  0  0  0  0
   19.5290   91.0590   -4.5330 C   0  0  0  0  0  0
   17.9800   86.1370   -3.2640 C   0  0  0  0  0  0
   18.9330   88.9750   -3.0990 C   0  0  0  0  0  0
   19.0020   90.4740   -3.2500 C   0  0  0  0  0  0
   17.4980   87.0940   -2.1020 C   0  0  0  0  0  0
   18.3980   88.3360   -1.8060 C   0  0  0  0  0  0
   26.2490   83.6630   -1.7220 C   0  0  0  0  0  0
   25.7060   83.7060   -0.6060 O   0  0  0  0  0  0
   27.3150   84.6520   -2.0640 C   0  0  0  0  0  0
   28.2510   84.3590   -3.1130 C   0  0  0  0  0  0
   29.2920   85.3010   -3.4640 C   0  0  0  0  0  0
   30.1950   84.9930   -4.4830 O   0  0  0  0  0  0
   30.1030   83.7500   -5.2050 C   0  0  0  0  0  0
   29.3620   86.5390   -2.7370 C   0  0  0  0  0  0
   27.4060   85.8980   -1.3460 C   0  0  0  0  0  0
   28.4230   86.8530   -1.6720 C   0  0  0  0  0  0
   28.4350   88.0290   -0.9310 O   0  0  0  0  0  0
   29.3370   89.1010   -1.2810 C   0  0  0  0  0  0
   23.9470   78.8510   -0.1820 O   0  0  0  0  0  0
   22.5989   80.2580   -0.8900 H   0  0  0  0  0  0
   22.3115   78.5672   -1.4241 H   0  0  0  0  0  0
   24.0636   78.6070   -2.9563 H   0  0  0  0  0  0
   25.7051   80.1491   -1.3106 H   0  0  0  0  0  0
   26.6114   78.8453   -3.0426 H   0  0  0  0  0  0
   24.3803   82.2551   -1.5590 H   0  0  0  0  0  0
   26.3995   82.7888   -3.6263 H   0  0  0  0  0  0
   24.2829   81.7790   -4.6113 H   0  0  0  0  0  0
   22.6331   83.4606   -1.6624 H   0  0  0  0  0  0
   18.8323   85.9865   -6.1204 H   0  0  0  0  0  0
   21.4080   82.9190   -8.0170 H   0  0  0  0  0  0
   20.1697   86.2843   -3.3942 H   0  0  0  0  0  0
   20.2436   88.0179   -6.3129 H   0  0  0  0  0  0
   20.3609   90.5963   -6.5767 H   0  0  0  0  0  0
   19.5828   92.1411   -4.6522 H   0  0  0  0  0  0
   17.1515   86.0952   -3.9864 H   0  0  0  0  0  0
   18.1165   85.1467   -2.8049 H   0  0  0  0  0  0
   18.6743   91.1258   -2.4401 H   0  0  0  0  0  0
   16.5029   87.4943   -2.3458 H   0  0  0  0  0  0
   17.4451   86.5289   -1.1597 H   0  0  0  0  0  0
   19.2427   88.0094   -1.1817 H   0  0  0  0  0  0
   17.7975   89.0738   -1.2536 H   0  0  0  0  0  0
   28.1764   83.4145   -3.6520 H   0  0  0  0  0  0
   30.9020   83.7043   -5.9596 H   0  0  0  0  0  0
   29.1242   83.6868   -5.7030 H   0  0  0  0  0  0
   30.2125   82.9097   -4.5037 H   0  0  0  0  0  0
   30.1386   87.2607   -2.9904 H   0  0  0  0  0  0
   26.6955   86.1157   -0.5486 H   0  0  0  0  0  0
   29.1981   89.9397   -0.5829 H   0  0  0  0  0  0
   29.1251   89.4384   -2.3063 H   0  0  0  0  0  0
   30.3748   88.7414   -1.2204 H   0  0  0  0  0  0
   23.5346   78.6083    0.8084 H   0  0  0  0  0  0
  1  2  1  0  0  0
  1 41  1  0  0  0
  1 42  1  0  0  0
  1 43  1  0  0  0
  2  3  1  0  0  0
  2  4  1  0  0  0
  2 44  1  0  0  0
  3  8  1  0  0  0
  4  5  1  0  0  0
  4  6  1  0  0  0
  4 45  1  0  0  0
  5 46  1  0  0  0
  6  7  1  0  0  0
  6  8  1  0  0  0
  6 47  1  0  0  0
  7 29  1  0  0  0
  7 48  1  0  0  0
  8  9  1  0  0  0
  8 49  1  0  0  0
  9 10  1  0  0  0
  9 18  1  0  0  0
 10 11  2  0  0  0
 10 50  1  0  0  0
 11 12  1  0  0  0
 12 13  2  0  0  0
 12 18  1  0  0  0
 13 14  1  0  0  0
 13 15  1  0  0  0
 14 19  1  0  0  0
 14 51  1  0  0  0
 15 16  2  0  0  0
 16 17  1  0  0  0
 16 52  1  0  0  0
 17 18  2  0  0  0
 19 20  1  0  0  0
 19 24  1  0  0  0
 19 53  1  0  0  0
 20 21  2  0  0  0
 20 25  1  0  0  0
 21 22  1  0  0  0
 21 54  1  0  0  0
 22 23  2  0  0  0
 22 55  1  0  0  0
 23 26  1  0  0  0
 23 56  1  0  0  0
 24 27  1  0  0  0
 24 57  1  0  0  0
 24 58  1  0  0  0
 25 26  2  0  0  0
 25 28  1  0  0  0
 26 59  1  0  0  0
 27 28  1  0  0  0
 27 60  1  0  0  0
 27 61  1  0  0  0
 28 62  1  0  0  0
 28 63  1  0  0  0
 29 30  2  0  0  0
 29 31  1  0  0  0
 31 32  2  0  0  0
 31 37  1  0  0  0
 32 33  1  0  0  0
 32 64  1  0  0  0
 33 34  1  0  0  0
 33 36  2  0  0  0
 34 35  1  0  0  0
 35 65  1  0  0  0
 35 66  1  0  0  0
 35 67  1  0  0  0
 36 38  1  0  0  0
 36 68  1  0  0  0
 37 38  2  0  0  0
 37 69  1  0  0  0
 38 39  1  0  0  0
 39 40  1  0  0  0
 40 70  1  0  0  0
 40 71  1  0  0  0
 40 72  1  0  0  0
 41 73  1  0  0  0
M  END
> <s_m_source_file>
../1i33_ligand.sdf

> <i_m_source_file_index>
1

> <s_epik_input>
W0NIM11PYyhbY0hdMSlbY0hdYyhPW0NIM10pW2NIXWMxQyg9TylbTkhdW0NASF0oW0NAQEhdMltPSF0pW0NAQEhdKE9bQ0BASF0yW0NIMl1bT0hdKW4oW2NIXW4zKWMoYzM0KW5bY0hdbmM0W05IXVtDQEBIXTVbQ0gyXVtDSDJdW0NIMl1jKGM1NilbY0hdW2NIXVtjSF1bY0hdNg==

> <s_epik_cmdline>
J2VwaWtfYXBwJywgJy1pbWFlJywgJ2xpZ2FuZF9wcm8ubWFlJywgJy1vbWFlJywgJ2xpZ2FuZF9wcmVwLm1hZScsICctbXMnLCAnMScsICctcGgnLCAnNycsICctcGh0JywgJzAuNScsICctbnQn

> <r_lp_tautomer_probability>
1

> <r_epik_Ionization_Penalty>
  0.0004

> <r_epik_Ionization_Penalty_Charging>
  0.0000

> <r_epik_Ionization_Penalty_Neutral>
  0.0004

> <r_epik_State_Penalty>
 -0.0000

> <r_epik_Charging_Adjusted_Penalty>
0

> <i_epik_Tot_Q>
0

> <i_epik_Tot_abs_Q>
0

> <s_epik_Chemistry_Notes>
This compound contains an acetal/aminal-like group ( X-CH(R)-Y where X, Y are N, S, or O) that may be acid/base labile, releasing an aldehyde.

$$$$
