1i37_ligand
                    3D
 Schrodinger Suite 2020-3.
 49 52  0  0  1  0            999 V2000
   27.6850    5.1990    4.5650 C   0  0  0  0  0  0
   26.8140    6.4850    4.6360 C   0  0  0  0  0  0
   25.4840    6.2800    3.9440 C   0  0  0  0  0  0
   24.9040    7.2490    3.4480 O   0  0  0  0  0  0
   24.8870    4.9640    3.8570 C   0  0  0  0  0  0
   25.4640    3.9030    4.3570 C   0  0  0  0  0  0
   24.7270    2.5600    4.2410 C   0  0  0  0  0  0
   25.6130    1.4540    3.6090 C   0  0  0  0  0  0
   26.9550    1.3030    4.3590 C   0  0  2  0  0  0
   27.7080    2.6560    4.2790 C   0  0  1  0  0  0
   26.9430    3.8760    4.9490 C   0  0  1  0  0  0
   29.1610    2.5250    4.8300 C   0  0  0  0  0  0
   29.9510    1.3440    4.1920 C   0  0  0  0  0  0
   29.1940   -0.0100    4.3390 C   0  0  1  0  0  0
   27.7840    0.2120    3.6800 C   0  0  1  0  0  0
   27.1780   -1.2320    3.6470 C   0  0  0  0  0  0
   28.4350   -2.1180    3.3100 C   0  0  0  0  0  0
   29.6790   -1.1890    3.4260 C   0  0  2  0  0  0
   30.9100   -1.9180    3.9810 O   0  0  0  0  0  0
   29.1070   -0.4500    5.8470 C   0  0  0  0  0  0
   26.7810    3.7700    6.5240 C   0  0  0  0  0  0
   28.0577    5.0648    3.5388 H   0  0  0  0  0  0
   28.5365    5.2943    5.2548 H   0  0  0  0  0  0
   26.6270    6.7435    5.6887 H   0  0  0  0  0  0
   27.3432    7.3140    4.1433 H   0  0  0  0  0  0
   23.9152    4.8740    3.3495 H   0  0  0  0  0  0
   24.4223    2.2213    5.2422 H   0  0  0  0  0  0
   23.8354    2.6844    3.6089 H   0  0  0  0  0  0
   25.0823    0.4913    3.6495 H   0  0  0  0  0  0
   25.8278    1.7104    2.5611 H   0  0  0  0  0  0
   26.7882    1.0160    5.4077 H   0  0  0  0  0  0
   27.7618    2.8745    3.2023 H   0  0  0  0  0  0
   29.7174    3.4504    4.6204 H   0  0  0  0  0  0
   29.1273    2.3555    5.9163 H   0  0  0  0  0  0
   30.1006    1.5397    3.1199 H   0  0  0  0  0  0
   30.9286    1.2469    4.6869 H   0  0  0  0  0  0
   27.8033    0.6555    2.6735 H   0  0  0  0  0  0
   26.7388   -1.4678    4.6276 H   0  0  0  0  0  0
   26.3976   -1.2846    2.8735 H   0  0  0  0  0  0
   28.4994   -2.9505    4.0261 H   0  0  0  0  0  0
   28.3386   -2.5184    2.2900 H   0  0  0  0  0  0
   30.0398   -0.8420    2.4465 H   0  0  0  0  0  0
   31.8575   -1.3751    4.1133 H   0  0  0  0  0  0
   28.7647    0.3987    6.4574 H   0  0  0  0  0  0
   30.1001   -0.7732    6.1925 H   0  0  0  0  0  0
   28.3954   -1.2831    5.9454 H   0  0  0  0  0  0
   26.2426    4.6535    6.8975 H   0  0  0  0  0  0
   27.7751    3.7213    6.9924 H   0  0  0  0  0  0
   26.2130    2.8617    6.7739 H   0  0  0  0  0  0
  1  2  1  0  0  0
  1 11  1  0  0  0
  1 22  1  0  0  0
  1 23  1  0  0  0
  2  3  1  0  0  0
  2 24  1  0  0  0
  2 25  1  0  0  0
  3  4  2  0  0  0
  3  5  1  0  0  0
  5  6  2  0  0  0
  5 26  1  0  0  0
  6  7  1  0  0  0
  6 11  1  0  0  0
  7  8  1  0  0  0
  7 27  1  0  0  0
  7 28  1  0  0  0
  8  9  1  0  0  0
  8 29  1  0  0  0
  8 30  1  0  0  0
  9 10  1  0  0  0
  9 15  1  0  0  0
  9 31  1  0  0  0
 10 11  1  0  0  0
 10 12  1  0  0  0
 10 32  1  0  0  0
 11 21  1  0  0  0
 12 13  1  0  0  0
 12 33  1  0  0  0
 12 34  1  0  0  0
 13 14  1  0  0  0
 13 35  1  0  0  0
 13 36  1  0  0  0
 14 15  1  0  0  0
 14 18  1  0  0  0
 14 20  1  0  0  0
 15 16  1  0  0  0
 15 37  1  0  0  0
 16 17  1  0  0  0
 16 38  1  0  0  0
 16 39  1  0  0  0
 17 18  1  0  0  0
 17 40  1  0  0  0
 17 41  1  0  0  0
 18 19  1  0  0  0
 18 42  1  0  0  0
 19 43  1  0  0  0
 20 44  1  0  0  0
 20 45  1  0  0  0
 20 46  1  0  0  0
 21 47  1  0  0  0
 21 48  1  0  0  0
 21 49  1  0  0  0
M  END
> <s_m_source_file>
../1i37_ligand.sdf

> <i_m_source_file_index>
1

> <s_epik_input>
W0NIMl0xW0NIMl1DKD1PKVtDSF09QyhbQ0BdMTJbQ0gzXSlbQ0gyXVtDSDJdW0NAQEhdM1tDQEBIXTJbQ0gyXVtDSDJdW0NAQF00KFtDSDNdKVtDQEhdM1tDSDJdW0NIMl1bQ0BASF00W09IXQ==

> <s_epik_cmdline>
J2VwaWtfYXBwJywgJy1pbWFlJywgJ2xpZ2FuZF9wcm8ubWFlJywgJy1vbWFlJywgJ2xpZ2FuZF9wcmVwLm1hZScsICctbXMnLCAnMScsICctcGgnLCAnNycsICctcGh0JywgJzAuNScsICctbnQn

> <r_lp_tautomer_probability>
1

> <r_epik_Ionization_Penalty>
  0.0000

> <r_epik_Ionization_Penalty_Charging>
  0.0000

> <r_epik_Ionization_Penalty_Neutral>
  0.0000

> <r_epik_State_Penalty>
 -0.0000

> <r_epik_Charging_Adjusted_Penalty>
0

> <i_epik_Tot_Q>
0

> <i_epik_Tot_abs_Q>
0

$$$$
