1i3z_ligand
                    3D
 Schrodinger Suite 2020-3.
175175  0  0  1  0            999 V2000
   14.7410   23.2200   18.5370 N   0  3  0  0  0  0
   15.1030   21.8700   18.0480 C   0  0  2  0  0  0
   16.5910   21.8450   17.8680 C   0  0  0  0  0  0
   17.2730   22.8090   18.2050 O   0  0  0  0  0  0
   14.3830   21.5360   16.7350 C   0  0  0  0  0  0
   14.4280   22.6170   15.8150 O   0  0  0  0  0  0
   17.1080   20.7480   17.3330 N   0  0  0  0  0  0
   18.5550   20.5940   17.1660 C   0  0  2  0  0  0
   18.8390   20.5060   15.6830 C   0  0  0  0  0  0
   19.7070   19.7990   15.2400 O   0  0  0  0  0  0
   18.9980   19.3080   17.8460 C   0  0  0  0  0  0
   18.9340   19.4260   19.3750 C   0  0  0  0  0  0
   19.2500   18.1050   20.0520 C   0  0  0  0  0  0
   19.8430   20.5700   19.9130 C   0  0  0  0  0  0
   17.9770   21.1520   14.9090 N   0  0  0  0  0  0
   18.1050   21.1250   13.4660 C   0  0  2  0  0  0
   18.1980   22.5350   12.9800 C   0  0  0  0  0  0
   17.4330   23.3930   13.4090 O   0  0  0  0  0  0
   16.8800   20.4640   12.8810 C   0  0  2  0  0  0
   17.1050   19.0530   12.8590 O   0  0  0  0  0  0
   16.7040   20.8920   11.4080 C   0  0  0  0  0  0
   19.1580   22.8020   12.1160 N   0  0  0  0  0  0
   19.2160   24.1280   11.5160 C   0  0  2  0  0  0
   18.8070   23.9910   10.0530 C   0  0  0  0  0  0
   19.3460   23.1390    9.3500 O   0  0  0  0  0  0
   20.6320   24.7130   11.6240 C   0  0  2  0  0  0
   21.0740   24.7550   13.0900 C   0  0  0  0  0  0
   20.6390   26.1330   11.0570 C   0  0  0  0  0  0
   20.7290   26.0810   13.7990 C   0  0  0  0  0  0
   17.8530   24.7990    9.6050 N   0  0  0  0  0  0
   17.4190   24.7290    8.2120 C   0  0  2  0  0  0
   18.4260   25.5990    7.4570 C   0  0  0  0  0  0
   18.8090   26.6650    7.9530 O   0  0  0  0  0  0
   15.9140   25.0680    8.0230 C   0  0  0  0  0  0
   15.0180   23.8270    8.1290 C   0  0  0  0  0  0
   14.4800   23.4330    9.3510 C   0  0  0  0  0  0
   14.7510   23.0300    7.0250 C   0  0  0  0  0  0
   13.6860   22.3110    9.4600 C   0  0  0  0  0  0
   13.9680   21.8920    7.1310 C   0  0  0  0  0  0
   13.4340   21.5350    8.3580 C   0  0  0  0  0  0
   12.7270   20.5120    8.4890 O   0  0  0  0  0  0
   11.1290   20.5460    8.2940 P   0  0  0  0  0  0
   10.7570   20.8670    6.8770 O   0  0  0  0  0  0
   10.5350   21.6490    9.1660 O   0  0  0  0  0  0
   10.6470   19.1220    8.6620 O   0  0  0  0  0  0
   18.9070   25.1410    6.3030 N   0  0  0  0  0  0
   19.8930   25.9350    5.5810 C   0  0  2  0  0  0
   19.5920   25.9070    4.1100 C   0  0  0  0  0  0
   18.8100   25.0980    3.6510 O   0  0  0  0  0  0
   21.3090   25.4160    5.8490 C   0  0  0  0  0  0
   20.1820   26.8320    3.3710 N   0  0  0  0  0  0
   20.0660   26.7920    1.9050 C   0  0  2  0  0  0
   21.4530   26.4870    1.2980 C   0  0  0  0  0  0
   22.4630   26.7990    1.9180 O   0  0  0  0  0  0
   19.5450   28.1240    1.3220 C   0  0  0  0  0  0
   18.4130   28.8420    2.0720 C   0  0  0  0  0  0
   17.7970   29.9960    1.2660 C   0  0  0  0  0  0
   16.5760   30.0440    1.0960 O   0  0  0  0  0  0
   18.6320   30.9320    0.8050 N   0  0  0  0  0  0
   21.5030   25.8860    0.1040 N   0  0  0  0  0  0
   22.7460   25.6170   -0.5860 C   0  0  2  0  0  0
   23.3590   26.9750   -1.0470 C   0  0  0  0  0  0
   22.6230   27.8930   -1.4490 O   0  0  0  0  0  0
   22.4840   24.6480   -1.7560 C   0  0  0  0  0  0
   23.7350   24.3620   -2.5750 C   0  0  0  0  0  0
   21.8680   23.3250   -1.2180 C   0  0  0  0  0  0
   24.6920   27.0950   -0.9860 N   0  0  0  0  0  0
   25.3710   28.3620   -1.3560 C   0  0  2  0  0  0
   26.3940   28.4030   -2.5270 C   0  0  0  0  0  0
   27.2400   29.2840   -2.5530 O   0  0  0  0  0  0
   26.0370   28.9620   -0.1170 C   0  0  0  0  0  0
   25.0700   29.2470    1.0290 C   0  0  0  0  0  0
   25.7880   29.7650    2.2590 C   0  0  0  0  0  0
   26.9590   29.4550    2.4700 O   0  0  0  0  0  0
   25.0930   30.5600    3.0710 N   0  0  0  0  0  0
   26.3190   27.4770   -3.4770 N   0  0  0  0  0  0
   27.2530   27.3830   -4.6070 C   0  0  2  0  0  0
   26.5441   26.6191   -5.7249 C   0  0  0  0  0  0
   28.5340   26.6190   -4.2060 C   0  0  0  0  0  0
   29.5420   26.4210   -5.3230 C   0  0  0  0  0  0
   31.0060   26.2990   -4.7980 C   0  0  0  0  0  0
   31.2450   27.2600   -3.6220 C   0  0  0  0  0  0
   32.7120   27.3830   -3.2130 N   0  3  0  0  0  0
   26.8000   26.7650   -6.9260 O   0  0  0  0  0  0
   25.5979   25.7476   -5.3870 O   0  0  0  0  0  0
   15.2743   23.4246   19.4771 H   0  0  0  0  0  0
   13.6562   23.2675   18.7129 H   0  0  0  0  0  0
   15.0236   23.9706   17.7842 H   0  0  0  0  0  0
   14.7988   21.1274   18.8003 H   0  0  0  0  0  0
   14.8625   20.6645   16.2653 H   0  0  0  0  0  0
   13.3278   21.3057   16.9437 H   0  0  0  0  0  0
   13.9513   22.5198   14.8285 H   0  0  0  0  0  0
   16.4287   19.9446   17.0119 H   0  0  0  0  0  0
   19.0650   21.4582   17.6165 H   0  0  0  0  0  0
   18.3409   18.4830   17.5338 H   0  0  0  0  0  0
   20.0350   19.0797   17.5586 H   0  0  0  0  0  0
   17.8907   19.6648   19.6291 H   0  0  0  0  0  0
   18.5920   17.3204   19.6501 H   0  0  0  0  0  0
   19.0875   18.2003   21.1357 H   0  0  0  0  0  0
   20.2995   17.8368   19.8608 H   0  0  0  0  0  0
   19.5887   21.5109   19.4030 H   0  0  0  0  0  0
   20.8972   20.3219   19.7205 H   0  0  0  0  0  0
   19.6852   20.6854   20.9955 H   0  0  0  0  0  0
   17.1559   21.7140   15.3779 H   0  0  0  0  0  0
   19.0134   20.5656   13.1978 H   0  0  0  0  0  0
   16.0032   20.6856   13.5073 H   0  0  0  0  0  0
   17.2614   18.5062   13.8006 H   0  0  0  0  0  0
   16.5263   21.9765   11.3600 H   0  0  0  0  0  0
   15.8456   20.3602   10.9717 H   0  0  0  0  0  0
   17.6146   20.6443   10.8429 H   0  0  0  0  0  0
   19.9072   22.0430   11.8463 H   0  0  0  0  0  0
   18.5188   24.7731   12.0707 H   0  0  0  0  0  0
   21.3289   24.0810   11.0540 H   0  0  0  0  0  0
   20.5780   23.9457   13.6458 H   0  0  0  0  0  0
   22.1647   24.6247   13.1480 H   0  0  0  0  0  0
   20.3222   26.1089   10.0039 H   0  0  0  0  0  0
   21.6547   26.5499   11.1249 H   0  0  0  0  0  0
   19.9452   26.7617   11.6343 H   0  0  0  0  0  0
   21.0742   26.0394   14.8426 H   0  0  0  0  0  0
   19.6400   26.2350   13.7789 H   0  0  0  0  0  0
   21.2268   26.9140   13.2810 H   0  0  0  0  0  0
   17.3891   25.5241   10.2898 H   0  0  0  0  0  0
   17.4709   23.6923    7.8480 H   0  0  0  0  0  0
   15.5989   25.7820    8.7981 H   0  0  0  0  0  0
   15.7606   25.5142    7.0293 H   0  0  0  0  0  0
   14.6912   24.0248   10.2417 H   0  0  0  0  0  0
   15.1655   23.3047    6.0551 H   0  0  0  0  0  0
   13.2574   22.0402   10.4249 H   0  0  0  0  0  0
   13.7727   21.2792    6.2510 H   0  0  0  0  0  0
   10.8115   22.6989    8.9891 H   0  0  0  0  0  0
   11.0142   18.2535    8.0956 H   0  0  0  0  0  0
   18.5700   24.1774    5.8932 H   0  0  0  0  0  0
   19.7938   26.9662    5.9509 H   0  0  0  0  0  0
   21.5113   25.4439    6.9299 H   0  0  0  0  0  0
   22.0377   26.0504    5.3231 H   0  0  0  0  0  0
   21.3949   24.3810    5.4864 H   0  0  0  0  0  0
   20.7605   27.6325    3.8553 H   0  0  0  0  0  0
   19.3342   25.9969    1.6993 H   0  0  0  0  0  0
   20.3682   28.8524    1.2792 H   0  0  0  0  0  0
   19.1541   27.9526    0.3082 H   0  0  0  0  0  0
   17.6096   28.1250    2.2967 H   0  0  0  0  0  0
   18.8035   29.2612    3.0110 H   0  0  0  0  0  0
   19.7134   30.8409    0.9845 H   0  0  0  0  0  0
   18.2379   31.7935    0.2460 H   0  0  0  0  0  0
   20.5460   25.5932   -0.3525 H   0  0  0  0  0  0
   23.4208   25.1192    0.1259 H   0  0  0  0  0  0
   21.7871   25.1452   -2.4467 H   0  0  0  0  0  0
   24.1548   25.3087   -2.9458 H   0  0  0  0  0  0
   23.4756   23.7170   -3.4275 H   0  0  0  0  0  0
   24.4784   23.8536   -1.9434 H   0  0  0  0  0  0
   20.9667   23.5527   -0.6299 H   0  0  0  0  0  0
   22.6022   22.8116   -0.5798 H   0  0  0  0  0  0
   21.5994   22.6750   -2.0638 H   0  0  0  0  0  0
   25.2848   26.2301   -0.6535 H   0  0  0  0  0  0
   24.4937   28.9057   -1.7364 H   0  0  0  0  0  0
   26.7971   28.2645    0.2647 H   0  0  0  0  0  0
   26.5156   29.9159   -0.3836 H   0  0  0  0  0  0
   24.3391   30.0055    0.7120 H   0  0  0  0  0  0
   24.5425   28.3213    1.3025 H   0  0  0  0  0  0
   24.0470   30.8068    2.8364 H   0  0  0  0  0  0
   25.5650   30.9697    3.9762 H   0  0  0  0  0  0
   25.4965   26.7528   -3.3815 H   0  0  0  0  0  0
   27.5123   28.4102   -4.9029 H   0  0  0  0  0  0
   29.0540   27.1687   -3.4076 H   0  0  0  0  0  0
   28.2646   25.6156   -3.8447 H   0  0  0  0  0  0
   29.3033   25.4988   -5.8730 H   0  0  0  0  0  0
   29.5009   27.2789   -6.0103 H   0  0  0  0  0  0
   31.1888   25.2691   -4.4576 H   0  0  0  0  0  0
   31.7078   26.5475   -5.6077 H   0  0  0  0  0  0
   30.8971   28.2672   -3.8950 H   0  0  0  0  0  0
   30.6894   26.9065   -2.7409 H   0  0  0  0  0  0
   32.8001   28.0844   -2.3702 H   0  0  0  0  0  0
   33.2998   27.7569   -4.0642 H   0  0  0  0  0  0
   33.0922   26.3962   -2.9101 H   0  0  0  0  0  0
   25.0680   25.1811   -6.1670 H   0  0  0  0  0  0
  1  2  1  0  0  0
  1 86  1  0  0  0
  1 87  1  0  0  0
  1 88  1  0  0  0
  2  3  1  0  0  0
  2  5  1  0  0  0
  2 89  1  0  0  0
  3  4  2  0  0  0
  3  7  1  0  0  0
  5  6  1  0  0  0
  5 90  1  0  0  0
  5 91  1  0  0  0
  6 92  1  0  0  0
  7  8  1  0  0  0
  7 93  1  0  0  0
  8  9  1  0  0  0
  8 11  1  0  0  0
  8 94  1  0  0  0
  9 10  2  0  0  0
  9 15  1  0  0  0
 11 12  1  0  0  0
 11 95  1  0  0  0
 11 96  1  0  0  0
 12 13  1  0  0  0
 12 14  1  0  0  0
 12 97  1  0  0  0
 13 98  1  0  0  0
 13 99  1  0  0  0
 13100  1  0  0  0
 14101  1  0  0  0
 14102  1  0  0  0
 14103  1  0  0  0
 15 16  1  0  0  0
 15104  1  0  0  0
 16 17  1  0  0  0
 16 19  1  0  0  0
 16105  1  0  0  0
 17 18  2  0  0  0
 17 22  1  0  0  0
 19 20  1  0  0  0
 19 21  1  0  0  0
 19106  1  0  0  0
 20107  1  0  0  0
 21108  1  0  0  0
 21109  1  0  0  0
 21110  1  0  0  0
 22 23  1  0  0  0
 22111  1  0  0  0
 23 24  1  0  0  0
 23 26  1  0  0  0
 23112  1  0  0  0
 24 25  2  0  0  0
 24 30  1  0  0  0
 26 27  1  0  0  0
 26 28  1  0  0  0
 26113  1  0  0  0
 27 29  1  0  0  0
 27114  1  0  0  0
 27115  1  0  0  0
 28116  1  0  0  0
 28117  1  0  0  0
 28118  1  0  0  0
 29119  1  0  0  0
 29120  1  0  0  0
 29121  1  0  0  0
 30 31  1  0  0  0
 30122  1  0  0  0
 31 32  1  0  0  0
 31 34  1  0  0  0
 31123  1  0  0  0
 32 33  2  0  0  0
 32 46  1  0  0  0
 34 35  1  0  0  0
 34124  1  0  0  0
 34125  1  0  0  0
 35 36  2  0  0  0
 35 37  1  0  0  0
 36 38  1  0  0  0
 36126  1  0  0  0
 37 39  2  0  0  0
 37127  1  0  0  0
 38 40  2  0  0  0
 38128  1  0  0  0
 39 40  1  0  0  0
 39129  1  0  0  0
 40 41  1  0  0  0
 41 42  1  0  0  0
 42 43  2  0  0  0
 42 44  1  0  0  0
 42 45  1  0  0  0
 44130  1  0  0  0
 45131  1  0  0  0
 46 47  1  0  0  0
 46132  1  0  0  0
 47 48  1  0  0  0
 47 50  1  0  0  0
 47133  1  0  0  0
 48 49  2  0  0  0
 48 51  1  0  0  0
 50134  1  0  0  0
 50135  1  0  0  0
 50136  1  0  0  0
 51 52  1  0  0  0
 51137  1  0  0  0
 52 53  1  0  0  0
 52 55  1  0  0  0
 52138  1  0  0  0
 53 54  2  0  0  0
 53 60  1  0  0  0
 55 56  1  0  0  0
 55139  1  0  0  0
 55140  1  0  0  0
 56 57  1  0  0  0
 56141  1  0  0  0
 56142  1  0  0  0
 57 58  2  0  0  0
 57 59  1  0  0  0
 59143  1  0  0  0
 59144  1  0  0  0
 60 61  1  0  0  0
 60145  1  0  0  0
 61 62  1  0  0  0
 61 64  1  0  0  0
 61146  1  0  0  0
 62 63  2  0  0  0
 62 67  1  0  0  0
 64 65  1  0  0  0
 64 66  1  0  0  0
 64147  1  0  0  0
 65148  1  0  0  0
 65149  1  0  0  0
 65150  1  0  0  0
 66151  1  0  0  0
 66152  1  0  0  0
 66153  1  0  0  0
 67 68  1  0  0  0
 67154  1  0  0  0
 68 69  1  0  0  0
 68 71  1  0  0  0
 68155  1  0  0  0
 69 70  2  0  0  0
 69 76  1  0  0  0
 71 72  1  0  0  0
 71156  1  0  0  0
 71157  1  0  0  0
 72 73  1  0  0  0
 72158  1  0  0  0
 72159  1  0  0  0
 73 74  2  0  0  0
 73 75  1  0  0  0
 75160  1  0  0  0
 75161  1  0  0  0
 76 77  1  0  0  0
 76162  1  0  0  0
 77 78  1  0  0  0
 77 79  1  0  0  0
 77163  1  0  0  0
 78 84  2  0  0  0
 78 85  1  0  0  0
 79 80  1  0  0  0
 79164  1  0  0  0
 79165  1  0  0  0
 80 81  1  0  0  0
 80166  1  0  0  0
 80167  1  0  0  0
 81 82  1  0  0  0
 81168  1  0  0  0
 81169  1  0  0  0
 82 83  1  0  0  0
 82170  1  0  0  0
 82171  1  0  0  0
 83172  1  0  0  0
 83173  1  0  0  0
 83174  1  0  0  0
 85175  1  0  0  0
M  CHG  2   1   1  83   1
M  END
> <s_m_source_file>
../1i3z_ligand.sdf

> <i_m_source_file_index>
1

> <s_epik_input>
W09IXVtDSDJdW0NASF0oW05IMytdKUMoPU8pW05IXVtDQEBIXShbQ0gyXVtDSF0oW0NIM10pW0NIM10pQyg9TylbTkhdW0NAQEhdKFtDQEhdKFtPSF0pW0NIM10pQyg9TylbTkhdW0NAQEhdKFtDQEBIXShbQ0gzXSlbQ0gyXVtDSDNdKUMoPU8pW05IXVtDQEBIXShbQ0gyXWMxW2NIXVtjSF1jKFtjSF1bY0hdMSlPUCg9TykoW09IXSlbT0hdKUMoPU8pW05IXVtDQEBIXShbQ0gzXSlDKD1PKVtOSF1bQ0BASF0oW0NIMl1bQ0gyXUMoPU8pW05IMl0pQyg9TylbTkhdW0NAQEhdKFtDSF0oW0NIM10pW0NIM10pQyg9TylbTkhdW0NAQEhdKFtDSDJdW0NIMl1DKD1PKVtOSDJdKUMoPU8pW05IXVtDQEhdKEMoPU8pW09IXSlbQ0gyXVtDSDJdW0NIMl1bQ0gyXVtOSDMrXQ==

> <s_epik_cmdline>
J2VwaWtfYXBwJywgJy1pbWFlJywgJ2xpZ2FuZF9wcm8ubWFlJywgJy1vbWFlJywgJ2xpZ2FuZF9wcmVwLm1hZScsICctbXMnLCAnMScsICctcGgnLCAnNycsICctcGh0JywgJzAuNScsICctbnQn

> <s_epik_pKa_notes>
Molecule size exceeds maximum supported for generating protonation states

$$$$
