1i41_ligand
                    3D
 Schrodinger Suite 2020-3.
 42 42  0  0  1  0            999 V2000
   97.6040  -50.1910   82.5240 N   0  0  0  0  0  0
   96.7570  -50.6190   83.5600 C   0  0  0  0  0  0
   97.3220  -50.4380   84.9360 C   0  0  0  0  0  0
   95.4780  -51.1590   83.2020 C   0  0  0  0  0  0
   94.6710  -51.5710   84.1520 O   0  0  0  0  0  0
   95.1490  -51.2170   81.7600 C   0  0  0  0  0  0
   93.7750  -51.7490   81.2930 C   0  0  0  0  0  0
   96.1440  -50.7270   80.7620 C   0  0  0  0  0  0
   97.3440  -50.2270   81.1800 C   0  0  0  0  0  0
   95.7940  -50.7980   79.2540 C   0  0  0  0  0  0
   95.5240  -49.5190   78.7130 O   0  0  0  0  0  0
   94.5080  -49.3970   77.4220 P   0  0  0  0  0  0
   94.2400  -47.9410   77.2410 O   0  5  0  0  0  0
   93.2710  -50.1040   77.7100 O   0  0  0  0  0  0
   95.2260  -50.0500   76.2970 O   0  5  0  0  0  0
   92.7100  -52.1850   82.0600 N   0  3  0  0  0  0
   91.5900  -52.6310   81.8640 C   0  0  0  0  0  0
   90.6630  -52.9740   83.0620 C   0  0  0  0  0  0
   91.1050  -53.8420   83.9620 O   0  5  0  0  0  0
   89.5350  -52.4710   83.2340 O   0  0  0  0  0  0
   91.0700  -52.8410   80.4690 C   0  0  0  0  0  0
   90.8420  -54.0890   80.0910 C   0  0  0  0  0  0
   90.2890  -54.4650   78.7620 C   0  0  0  0  0  0
   89.1430  -55.8740   79.1740 P   0  0  0  0  0  0
   89.9420  -57.0250   79.9800 O   0  5  0  0  0  0
   88.6550  -56.4850   77.9130 O   0  0  0  0  0  0
   88.1400  -55.2980   80.1090 O   0  0  0  0  0  0
   98.3272  -49.9969   84.8645 H   0  0  0  0  0  0
   97.3850  -51.4148   85.4379 H   0  0  0  0  0  0
   96.6686  -49.7694   85.5156 H   0  0  0  0  0  0
   94.9794  -51.4987   85.2054 H   0  0  0  0  0  0
   93.2619  -50.9734   80.7055 H   0  0  0  0  0  0
   93.9207  -52.6441   80.6705 H   0  0  0  0  0  0
   98.0781  -49.8648   80.4603 H   0  0  0  0  0  0
   96.6396  -51.2336   78.7015 H   0  0  0  0  0  0
   94.9019  -51.4260   79.1138 H   0  0  0  0  0  0
   90.8786  -52.0116   79.7722 H   0  0  0  0  0  0
   91.0636  -54.9204   80.7763 H   0  0  0  0  0  0
   89.7620  -53.6030   78.3270 H   0  0  0  0  0  0
   91.1101  -54.7673   78.0954 H   0  0  0  0  0  0
   88.4684  -54.8375   81.0525 H   0  0  0  0  0  0
   93.0765  -52.0511   83.0885 H   0  0  0  0  0  0
  1  2  2  0  0  0
  1  9  1  0  0  0
  2  3  1  0  0  0
  2  4  1  0  0  0
  3 28  1  0  0  0
  3 29  1  0  0  0
  3 30  1  0  0  0
  4  5  1  0  0  0
  4  6  2  0  0  0
  5 31  1  0  0  0
  6  7  1  0  0  0
  6  8  1  0  0  0
  7 16  1  0  0  0
  7 32  1  0  0  0
  7 33  1  0  0  0
  8  9  2  0  0  0
  8 10  1  0  0  0
  9 34  1  0  0  0
 10 11  1  0  0  0
 10 35  1  0  0  0
 10 36  1  0  0  0
 11 12  1  0  0  0
 12 13  1  0  0  0
 12 14  2  0  0  0
 12 15  1  0  0  0
 16 17  2  0  0  0
 16 42  1  0  0  0
 17 18  1  0  0  0
 17 21  1  0  0  0
 18 19  1  0  0  0
 18 20  2  0  0  0
 21 22  2  0  0  0
 21 37  1  0  0  0
 22 23  1  0  0  0
 22 38  1  0  0  0
 23 24  1  0  0  0
 23 39  1  0  0  0
 23 40  1  0  0  0
 24 25  1  0  0  0
 24 26  2  0  0  0
 24 27  1  0  0  0
 27 41  1  0  0  0
M  CHG  5  13  -1  15  -1  16   1  19  -1  25  -1
M  END
> <s_m_source_file>
../1i41_ligand.sdf

> <i_m_source_file_index>
1

> <s_epik_input>
W0NIM11jMW5bY0hdYyhbQ0gyXU9QKD1PKShbT0hdKVtPSF0pYyhjMVtPSF0pW0NIMl0vTj1DKC9DKD1PKVtPSF0pXFtDSF09W0NIXVxbQ0gyXVAoPU8pKFtPSF0pW09IXQ==

> <s_epik_cmdline>
J2VwaWtfYXBwJywgJy1pbWFlJywgJ2xpZ2FuZF9wcm8ubWFlJywgJy1vbWFlJywgJ2xpZ2FuZF9wcmVwLm1hZScsICctbXMnLCAnMScsICctcGgnLCAnNycsICctcGh0JywgJzAuNScsICctbnQn

> <r_lp_tautomer_probability>
0.43658

> <r_epik_Ionization_Penalty>
  0.4037

> <r_epik_Ionization_Penalty_Charging>
  0.1035

> <r_epik_Ionization_Penalty_Neutral>
  0.3002

> <r_epik_State_Penalty>
  0.2724

> <r_epik_Charging_Adjusted_Penalty>
0.375909168883217

> <i_epik_Tot_Q>
-3

> <i_epik_Tot_abs_Q>
5

> <s_epik_Chemistry_Notes>
This compound has an imine and may undergo hydrolysis.

$$$$
