1i48_ligand
                    3D
 Schrodinger Suite 2020-3.
 23 24  0  0  1  0            999 V2000
  -83.4090  -54.3930  165.8570 C   0  0  0  0  0  0
  -84.5410  -54.0070  165.0780 C   0  0  0  0  0  0
  -85.5740  -53.2140  165.6500 C   0  0  0  0  0  0
  -85.4770  -52.8030  167.0110 C   0  0  0  0  0  0
  -84.3470  -53.1880  167.7900 C   0  0  0  0  0  0
  -83.3190  -53.9790  167.2190 C   0  0  0  0  0  0
  -84.2260  -52.6810  169.4610 Cl  0  0  0  0  0  0
  -80.3220  -56.2630  164.9540 O   0  0  0  0  0  0
  -81.2180  -56.5370  163.9530 C   0  0  0  0  0  0
  -80.8410  -57.5900  162.5810 S   0  0  0  0  0  0
  -82.4040  -55.9280  164.1260 N   0  0  0  0  0  0
  -82.3320  -55.2230  165.2600 C   0  0  0  0  0  0
  -81.1000  -55.4110  165.7650 N   0  0  0  0  0  0
  -79.6130  -58.6970  163.3630 C   0  0  0  0  0  0
  -80.2070  -59.6180  164.4040 C   0  0  0  0  0  0
  -79.4080  -60.1100  165.2500 O   0  0  0  0  0  0
  -81.4470  -59.8670  164.3970 O   0  5  0  0  0  0
  -84.6144  -54.3222  164.0372 H   0  0  0  0  0  0
  -86.4359  -52.9220  165.0500 H   0  0  0  0  0  0
  -86.2653  -52.1954  167.4555 H   0  0  0  0  0  0
  -82.4588  -54.2713  167.8212 H   0  0  0  0  0  0
  -79.1460  -59.3287  162.5930 H   0  0  0  0  0  0
  -78.8397  -58.0934  163.8606 H   0  0  0  0  0  0
  1  2  2  0  0  0
  1  6  1  0  0  0
  1 12  1  0  0  0
  2  3  1  0  0  0
  2 18  1  0  0  0
  3  4  2  0  0  0
  3 19  1  0  0  0
  4  5  1  0  0  0
  4 20  1  0  0  0
  5  6  2  0  0  0
  5  7  1  0  0  0
  6 21  1  0  0  0
  8  9  1  0  0  0
  8 13  1  0  0  0
  9 10  1  0  0  0
  9 11  2  0  0  0
 10 14  1  0  0  0
 11 12  1  0  0  0
 12 13  2  0  0  0
 14 15  1  0  0  0
 14 22  1  0  0  0
 14 23  1  0  0  0
 15 16  2  0  0  0
 15 17  1  0  0  0
M  CHG  1  17  -1
M  END
> <s_m_source_file>
../1i48_ligand.sdf

> <i_m_source_file_index>
1

> <s_epik_input>
W2NIXTFjKENsKVtjSF1bY0hdW2NIXWMxLWMobjIpbm9jMlNbQ0gyXUMoPU8pW09IXQ==

> <s_epik_cmdline>
J2VwaWtfYXBwJywgJy1pbWFlJywgJ2xpZ2FuZF9wcm8ubWFlJywgJy1vbWFlJywgJ2xpZ2FuZF9wcmVwLm1hZScsICctbXMnLCAnMScsICctcGgnLCAnNycsICctcGh0JywgJzAuNScsICctbnQn

> <r_lp_tautomer_probability>
1

> <r_epik_Ionization_Penalty>
  0.0001

> <r_epik_Ionization_Penalty_Charging>
  0.0001

> <r_epik_Ionization_Penalty_Neutral>
  0.0000

> <r_epik_State_Penalty>
 -0.0000

> <r_epik_Charging_Adjusted_Penalty>
0.000121923728711731

> <i_epik_Tot_Q>
-1

> <i_epik_Tot_abs_Q>
1

$$$$
