1i5d_ligand
                    3D
 Schrodinger Suite 2020-3.
 58 62  0  0  1  0            999 V2000
   12.1780   64.5720   12.7620 P   0  0  0  0  0  0
   13.1050   64.5400   11.5480 O   0  5  0  0  0  0
   12.7400   63.7060   13.8820 O   0  0  0  0  0  0
   11.6130   65.9720   13.2030 O   0  5  0  0  0  0
    9.5060   64.0440   11.1990 P   0  0  2  0  0  0
   10.3010   64.6990   10.0500 O   0  5  0  0  0  0
    8.3090   64.8320   11.7130 O   0  0  0  0  0  0
   10.6490   63.8520   12.3410 O   0  0  0  0  0  0
    7.8640   61.4410   11.0150 P   0  0  1  0  0  0
    7.0760   61.9200   12.2900 O   0  5  0  0  0  0
    6.9540   60.8850    9.9500 O   0  0  0  0  0  0
    8.7200   62.6840   10.5060 O   0  0  0  0  0  0
    9.0710   60.5870   11.7460 O   0  0  0  0  0  0
    9.9570   61.1950   12.7960 C   0  0  0  0  0  0
   11.3010   60.3000   12.7550 C   0  0  1  0  0  0
   11.6380   59.7580   14.0390 O   0  0  0  0  0  0
   11.3720   59.1400   11.9020 C   0  0  1  0  0  0
   12.5940   59.2620   11.2030 O   0  0  0  0  0  0
   11.5850   57.9050   12.8030 C   0  0  1  0  0  0
   12.4820   56.9460   12.1990 O   0  0  0  0  0  0
   12.1220   58.4460   14.1650 C   0  0  2  0  0  0
   11.3120   57.7780   15.3770 N   0  0  0  0  0  0
   11.7570   57.6760   16.6650 C   0  0  0  0  0  0
   10.8420   57.0700   17.4330 N   0  0  0  0  0  0
    9.8150   56.7830   16.6290 C   0  0  0  0  0  0
    8.5650   56.1390   16.9420 C   0  0  0  0  0  0
    8.3290   55.7170   18.1980 N   0  0  0  0  0  0
    7.6230   55.9430   15.9350 N   0  0  0  0  0  0
    7.9390   56.3930   14.6930 C   0  0  0  0  0  0
    9.1090   57.0010   14.4060 N   0  0  0  0  0  0
   10.0840   57.2220   15.3390 C   0  0  0  0  0  0
   13.0430   57.8510   11.1310 C   0  0  1  0  0  0
   12.6970   57.1050    9.9280 C   0  0  0  0  0  0
   13.6280   56.7380    9.0190 C   0  0  0  0  0  0
   14.9570   56.9910    9.1040 C   0  0  0  0  0  0
   15.3650   57.6800   10.2260 C   0  0  0  0  0  0
   14.4590   58.1310   11.2670 C   0  5  0  0  0  0
   11.3460   56.7280    9.6490 N   0  3  0  0  0  0
   15.8890   56.6440    8.2310 N   0  3  0  0  0  0
   15.0500   58.8120   12.3330 N   0  3  0  0  0  0
   10.4150   56.9910   10.3630 O   0  0  0  0  0  0
   11.0780   56.1170    8.6390 O   0  5  0  0  0  0
   17.0600   56.9080    8.3670 O   0  0  0  0  0  0
   15.6130   56.0570    7.2360 O   0  5  0  0  0  0
   16.2500   58.9760   12.3220 O   0  0  0  0  0  0
   14.4640   59.2620   13.2670 O   0  5  0  0  0  0
   10.1558   62.2470   12.5436 H   0  0  0  0  0  0
    9.4567   61.1408   13.7742 H   0  0  0  0  0  0
   12.0793   60.9710   12.3625 H   0  0  0  0  0  0
   10.5022   59.1100   11.2293 H   0  0  0  0  0  0
   10.6751   57.2962   12.9096 H   0  0  0  0  0  0
   13.2080   58.3849   14.3287 H   0  0  0  0  0  0
   12.7226   58.0376   17.0184 H   0  0  0  0  0  0
    9.0822   55.8787   18.9832 H   0  0  0  0  0  0
    7.3829   55.2104   18.4394 H   0  0  0  0  0  0
    7.2138   56.2567   13.8908 H   0  0  0  0  0  0
   13.3278   56.1847    8.1169 H   0  0  0  0  0  0
   16.4297   57.9164   10.3694 H   0  0  0  0  0  0
  1  2  1  0  0  0
  1  3  2  0  0  0
  1  4  1  0  0  0
  1  8  1  0  0  0
  5  6  1  0  0  0
  5  7  2  0  0  0
  5  8  1  0  0  0
  5 12  1  0  0  0
  9 10  1  0  0  0
  9 11  2  0  0  0
  9 12  1  0  0  0
  9 13  1  0  0  0
 13 14  1  0  0  0
 14 15  1  0  0  0
 14 47  1  0  0  0
 14 48  1  0  0  0
 15 16  1  0  0  0
 15 17  1  0  0  0
 15 49  1  0  0  0
 16 21  1  0  0  0
 17 18  1  0  0  0
 17 19  1  0  0  0
 17 50  1  0  0  0
 18 32  1  0  0  0
 19 20  1  0  0  0
 19 21  1  0  0  0
 19 51  1  0  0  0
 20 32  1  0  0  0
 21 22  1  0  0  0
 21 52  1  0  0  0
 22 23  1  0  0  0
 22 31  1  0  0  0
 23 24  2  0  0  0
 23 53  1  0  0  0
 24 25  1  0  0  0
 25 26  2  0  0  0
 25 31  1  0  0  0
 26 27  1  0  0  0
 26 28  1  0  0  0
 27 54  1  0  0  0
 27 55  1  0  0  0
 28 29  2  0  0  0
 29 30  1  0  0  0
 29 56  1  0  0  0
 30 31  2  0  0  0
 32 33  1  0  0  0
 32 37  1  0  0  0
 33 34  2  0  0  0
 33 38  1  0  0  0
 34 35  1  0  0  0
 34 57  1  0  0  0
 35 36  2  0  0  0
 35 39  1  0  0  0
 36 37  1  0  0  0
 36 58  1  0  0  0
 37 40  1  0  0  0
 38 41  2  0  0  0
 38 42  1  0  0  0
 39 43  2  0  0  0
 39 44  1  0  0  0
 40 45  2  0  0  0
 40 46  1  0  0  0
M  CHG  8   2  -1   4  -1   6  -1  10  -1  37  -1  38   1  39   1  40   1
M  CHG  3  42  -1  44  -1  46  -1
M  END
> <s_m_source_file>
../1i5d_ligand.sdf

> <i_m_source_file_index>
1

> <s_epik_input>
W09IXVAoPU8pKFtPSF0pT1tQQEBdKD1PKShbT0hdKU9bUEBdKD1PKShbT0hdKU9bQ0gyXVtDQEhdMU9bQ0BASF0obihbY0hdbjIpYyhjMjMpbltjSF1uYzNbTkgyXSlbQ0BIXShPNClbQ0BASF0xT1tDQF00NUMoW04rXSg9TylbTy1dKT1bQ0hdQyhbTitdKD1PKVtPLV0pPVtDSF1bQ0hdNVtOK10oPU8pW08tXQ==

> <s_epik_cmdline>
J2VwaWtfYXBwJywgJy1pbWFlJywgJ2xpZ2FuZF9wcm8ubWFlJywgJy1vbWFlJywgJ2xpZ2FuZF9wcmVwLm1hZScsICctbXMnLCAnMScsICctcGgnLCAnNycsICctcGh0JywgJzAuNScsICctbnQn

> <r_lp_tautomer_probability>
0.999997216410988

> <r_epik_Ionization_Penalty>
  0.0818

> <r_epik_Ionization_Penalty_Charging>
  0.0813

> <r_epik_Ionization_Penalty_Neutral>
  0.0005

> <r_epik_State_Penalty>
  0.0708

> <r_epik_Charging_Adjusted_Penalty>
0.152091043545635

> <i_epik_Tot_Q>
-5

> <i_epik_Tot_abs_Q>
11

> <s_epik_Chemistry_Notes>
This compound contains an acetal/aminal-like group ( X-CH(R)-Y where X, Y are N, S, or O) that may be acid/base labile, releasing an aldehyde.

$$$$
