1i5h_ligand
                    3D
 Schrodinger Suite 2020-3.
243248  0  0  1  0            999 V2000
   20.6490   17.3830   -7.3000 N   0  3  0  0  0  0
   21.3890   17.0600   -6.0480 C   0  0  0  0  0  0
   20.5830   16.1870   -5.1060 C   0  0  0  0  0  0
   20.4720   16.4840   -3.9170 O   0  0  0  0  0  0
   20.0180   15.1080   -5.6390 N   0  0  0  0  0  0
   19.2190   14.1890   -4.8380 C   0  0  2  0  0  0
   20.1100   13.2050   -4.0890 C   0  0  0  0  0  0
   20.2030   13.2450   -2.8620 O   0  0  0  0  0  0
   18.2360   13.4270   -5.7300 C   0  0  0  0  0  0
   17.0940   13.0170   -4.9970 O   0  0  0  0  0  0
   20.7660   12.3230   -4.8350 N   0  0  0  0  0  0
   21.6520   11.3290   -4.2450 C   0  0  2  0  0  0
   20.8670   10.2870   -3.4540 C   0  0  0  0  0  0
   20.7370    9.1400   -3.8820 O   0  0  0  0  0  0
   22.6950   11.9840   -3.3200 C   0  0  2  0  0  0
   22.7820   13.3870   -3.5950 O   0  0  0  0  0  0
   24.0600   11.3420   -3.5060 C   0  0  0  0  0  0
   20.3420   10.6930   -2.3020 N   0  0  0  0  0  0
   19.5700    9.7940   -1.4510 C   0  0  2  0  0  0
   18.4070    9.1720   -2.2250 C   0  0  0  0  0  0
   17.4270    9.8500   -2.5320 O   0  0  0  0  0  0
   19.0360   10.5500   -0.2330 C   0  0  0  0  0  0
   18.0530    9.7660    0.6380 C   0  0  0  0  0  0
   18.5350    9.7210    2.0800 C   0  0  0  0  0  0
   16.6630   10.3780    0.5570 C   0  0  0  0  0  0
   18.4960    7.8690   -2.5530 N   0  0  0  0  0  0
   17.4470    7.1700   -3.2920 C   0  0  2  0  0  0
   16.3230    6.6780   -2.3850 C   0  0  0  0  0  0
   15.1540    6.6910   -2.7650 O   0  0  0  0  0  0
   18.1970    5.9890   -3.9000 C   0  0  0  0  0  0
   19.2610    5.6720   -2.9030 C   0  0  0  0  0  0
   19.6280    6.9750   -2.2340 C   0  0  0  0  0  0
   16.6900    6.2410   -1.1840 N   0  0  0  0  0  0
   15.7140    5.7400   -0.2230 C   0  0  2  0  0  0
   15.8320    6.4720    1.1130 C   0  0  0  0  0  0
   16.7260    6.1850    1.9080 O   0  0  0  0  0  0
   15.8940    4.2280    0.0210 C   0  0  2  0  0  0
   16.0250    3.4860   -1.3110 C   0  0  0  0  0  0
   14.7310    3.6750    0.8310 C   0  0  0  0  0  0
   16.6120    2.0980   -1.1740 C   0  0  0  0  0  0
   14.9260    7.4300    1.3810 N   0  0  0  0  0  0
   14.9400    8.1970    2.6320 C   0  0  2  0  0  0
   14.6360    7.3270    3.8460 C   0  0  0  0  0  0
   15.3140    7.4140    4.8690 O   0  0  0  0  0  0
   13.8370    9.2410    2.4300 C   0  0  0  0  0  0
   12.9390    8.6550    1.3970 C   0  0  0  0  0  0
   13.8240    7.8410    0.4950 C   0  0  0  0  0  0
   13.6150    6.4850    3.7250 N   0  0  0  0  0  0
   13.2430    5.6100    4.8210 C   0  0  0  0  0  0
   11.7430    5.5470    5.0350 C   0  0  0  0  0  0
   11.2080    4.5090    5.4260 O   0  0  0  0  0  0
   11.0630    6.6590    4.7780 N   0  0  0  0  0  0
    9.6160    6.7250    4.9460 C   0  0  2  0  0  0
    8.8990    5.9020    3.8780 C   0  0  0  0  0  0
    9.3070    5.8870    2.7180 O   0  0  0  0  0  0
    9.1080    8.1780    4.8810 C   0  0  2  0  0  0
    9.2810    8.7000    3.5590 O   0  0  0  0  0  0
    9.8510    9.0550    5.8770 C   0  0  0  0  0  0
    7.8140    5.2050    4.2580 N   0  0  0  0  0  0
    7.0400    4.3790    3.3250 C   0  0  2  0  0  0
    6.3490    5.2160    2.2500 C   0  0  0  0  0  0
    6.2980    6.4420    2.3460 O   0  0  0  0  0  0
    6.0040    3.6940    4.2210 C   0  0  0  0  0  0
    5.8930    4.5700    5.4200 C   0  0  0  0  0  0
    7.2560    5.1680    5.6220 C   0  0  0  0  0  0
    5.8080    4.5610    1.2090 N   0  0  0  0  0  0
    5.1200    5.2540    0.1130 C   0  0  2  0  0  0
    4.0020    6.1650    0.6110 C   0  0  0  0  0  0
    3.8130    6.3310    1.8160 O   0  0  0  0  0  0
    4.5470    4.1120   -0.7300 C   0  0  0  0  0  0
    5.4090    2.9380   -0.4200 C   0  0  0  0  0  0
    5.8240    3.1000    1.0150 C   0  0  0  0  0  0
    3.2440    6.7760   -0.3170 N   0  0  0  0  0  0
    2.1410    7.6810    0.0280 C   0  0  2  0  0  0
    1.0210    6.9710    0.7820 C   0  0  0  0  0  0
    0.4820    5.9670    0.3140 O   0  0  0  0  0  0
    1.6330    8.1760   -1.3340 C   0  0  0  0  0  0
    2.7290    7.8710   -2.2970 C   0  0  0  0  0  0
    3.4030    6.6390   -1.7730 C   0  0  0  0  0  0
    0.6680    7.5030    1.9490 N   0  0  0  0  0  0
   -0.3930    6.9230    2.7640 C   0  0  2  0  0  0
   -1.7110    6.9070    1.9960 C   0  0  0  0  0  0
   -1.9420    7.7440    1.1220 O   0  0  0  0  0  0
   -0.5560    7.7110    4.0650 C   0  0  0  0  0  0
   -1.3280    6.9370    5.1180 C   0  0  0  0  0  0
   -2.3820    7.3750    5.5770 O   0  0  0  0  0  0
   -0.8030    5.7810    5.5060 N   0  0  0  0  0  0
   -2.5730    5.9510    2.3250 N   0  0  0  0  0  0
   -3.8660    5.8280    1.6620 C   0  0  2  0  0  0
   -4.7270    7.0620    1.9110 C   0  0  0  0  0  0
   -5.4940    7.4800    1.0430 O   0  0  0  0  0  0
   -4.5970    4.5770    2.1520 C   0  0  0  0  0  0
   -5.9030    4.3200    1.4360 C   0  0  0  0  0  0
   -5.9290    4.0470    0.0740 C   0  0  0  0  0  0
   -7.1110    4.3510    2.1220 C   0  0  0  0  0  0
   -7.1210    3.8110   -0.5840 C   0  0  0  0  0  0
   -8.3060    4.1150    1.4710 C   0  0  0  0  0  0
   -8.3070    3.8470    0.1190 C   0  0  0  0  0  0
   -9.4960    3.6120   -0.5320 O   0  0  0  0  0  0
   -4.5940    7.6420    3.0990 N   0  0  0  0  0  0
   -5.3610    8.8280    3.4610 C   0  0  2  0  0  0
   -4.9890   10.0090    2.5700 C   0  0  0  0  0  0
   -5.8130   10.8870    2.3090 O   0  0  0  0  0  0
   -5.1210    9.1860    4.9290 C   0  0  0  0  0  0
   -6.1810    8.6060    5.8450 C   0  0  0  0  0  0
   -6.2550    7.3640    5.9560 O   0  0  0  0  0  0
   -6.9370    9.3940    6.4510 O   0  0  0  0  0  0
   -3.7450   10.0230    2.1040 N   0  0  0  0  0  0
   -3.2630   11.0940    1.2400 C   0  0  2  0  0  0
   -3.4910   10.7580   -0.2330 C   0  0  0  0  0  0
   -3.4930   11.6440   -1.0870 O   0  0  0  0  0  0
   -1.7780   11.3520    1.4910 C   0  0  0  0  0  0
   -1.5100   12.7400    1.5890 O   0  0  0  0  0  0
   -3.6820    9.4730   -0.5250 N   0  0  0  0  0  0
   -3.9070    9.0280   -1.8940 C   0  0  2  0  0  0
   -5.2980    9.4330   -2.3740 C   0  0  0  0  0  0
   -5.3980   10.4390   -3.1070 O   0  0  0  0  0  0
   -3.7470    7.5080   -1.9890 C   0  0  0  0  0  0
   -2.3790    7.0310   -2.4790 C   0  0  0  0  0  0
   -2.3650    5.5180   -2.6320 C   0  0  0  0  0  0
   -2.0220    7.7050   -3.7950 C   0  0  0  0  0  0
   -6.2730    8.7420   -2.0120 O   0  0  0  0  0  0
   21.2772   18.0157   -7.9443 H   0  0  0  0  0  0
   19.7223   17.9203   -7.0499 H   0  0  0  0  0  0
   20.4012   16.4516   -7.8301 H   0  0  0  0  0  0
   22.3157   16.5227   -6.2981 H   0  0  0  0  0  0
   21.6368   17.9914   -5.5179 H   0  0  0  0  0  0
   20.1656   14.9167   -6.7121 H   0  0  0  0  0  0
   18.6791   14.8205   -4.1171 H   0  0  0  0  0  0
   17.9097   14.0773   -6.5550 H   0  0  0  0  0  0
   18.7298   12.5339   -6.1405 H   0  0  0  0  0  0
   16.2913   12.4559   -5.4978 H   0  0  0  0  0  0
   20.6261   12.3568   -5.9255 H   0  0  0  0  0  0
   22.1368   10.8604   -5.1142 H   0  0  0  0  0  0
   22.3845   11.9035   -2.2678 H   0  0  0  0  0  0
   21.8865   14.0204   -3.5116 H   0  0  0  0  0  0
   23.9905   10.2648   -3.2943 H   0  0  0  0  0  0
   24.7803   11.8056   -2.8159 H   0  0  0  0  0  0
   24.3971   11.4910   -4.5424 H   0  0  0  0  0  0
   20.5026   11.7373   -1.9960 H   0  0  0  0  0  0
   20.2741    9.0077   -1.1412 H   0  0  0  0  0  0
   19.8752   10.8345    0.4188 H   0  0  0  0  0  0
   18.5073   11.4553   -0.5661 H   0  0  0  0  0  0
   17.9957    8.7333    0.2635 H   0  0  0  0  0  0
   19.5402    9.2758    2.1169 H   0  0  0  0  0  0
   17.8421    9.1121    2.6793 H   0  0  0  0  0  0
   18.5712   10.7425    2.4865 H   0  0  0  0  0  0
   16.3333   10.4014   -0.4922 H   0  0  0  0  0  0
   16.6898   11.4028    0.9559 H   0  0  0  0  0  0
   15.9607    9.7724    1.1487 H   0  0  0  0  0  0
   16.9757    7.8501   -4.0168 H   0  0  0  0  0  0
   17.5028    5.1476   -4.0419 H   0  0  0  0  0  0
   18.6192    6.2839   -4.8720 H   0  0  0  0  0  0
   18.8726    4.9504   -2.1692 H   0  0  0  0  0  0
   20.1299    5.2381   -3.4195 H   0  0  0  0  0  0
   20.5576    7.4020   -2.6383 H   0  0  0  0  0  0
   19.7167    6.8708   -1.1425 H   0  0  0  0  0  0
   17.7581    6.2635   -0.9222 H   0  0  0  0  0  0
   14.7433    5.9526   -0.6947 H   0  0  0  0  0  0
   16.8134    4.0634    0.6021 H   0  0  0  0  0  0
   15.0313    3.3792   -1.7705 H   0  0  0  0  0  0
   16.6813    4.0558   -1.9852 H   0  0  0  0  0  0
   14.6546    4.2211    1.7828 H   0  0  0  0  0  0
   14.9002    2.6071    1.0335 H   0  0  0  0  0  0
   13.7973    3.7969    0.2623 H   0  0  0  0  0  0
   16.6759    1.6274   -2.1662 H   0  0  0  0  0  0
   15.9683    1.4905   -0.5208 H   0  0  0  0  0  0
   17.6184    2.1672   -0.7354 H   0  0  0  0  0  0
   15.9431    8.6156    2.8007 H   0  0  0  0  0  0
   13.3096    9.4059    3.3811 H   0  0  0  0  0  0
   14.2848   10.1866    2.0904 H   0  0  0  0  0  0
   12.1808    8.0249    1.8850 H   0  0  0  0  0  0
   12.4414    9.4640    0.8421 H   0  0  0  0  0  0
   14.2267    8.4306   -0.3418 H   0  0  0  0  0  0
   13.3160    6.9476    0.1030 H   0  0  0  0  0  0
   13.0499    6.4557    2.7817 H   0  0  0  0  0  0
   13.5970    4.5897    4.6120 H   0  0  0  0  0  0
   13.7016    5.9736    5.7524 H   0  0  0  0  0  0
   11.6173    7.5435    4.4309 H   0  0  0  0  0  0
    9.4459    6.2927    5.9431 H   0  0  0  0  0  0
    8.0268    8.2190    5.0792 H   0  0  0  0  0  0
    8.8125    8.1938    2.7021 H   0  0  0  0  0  0
    9.7167    8.6522    6.8917 H   0  0  0  0  0  0
    9.4516   10.0790    5.8332 H   0  0  0  0  0  0
   10.9220    9.0681    5.6264 H   0  0  0  0  0  0
    7.7120    3.6893    2.7933 H   0  0  0  0  0  0
    5.0473    3.6181    3.6834 H   0  0  0  0  0  0
    6.3570    2.6863    4.4854 H   0  0  0  0  0  0
    5.1397    5.3501    5.2357 H   0  0  0  0  0  0
    5.5908    3.9663    6.2885 H   0  0  0  0  0  0
    7.8974    4.5462    6.2638 H   0  0  0  0  0  0
    7.2114    6.1894    6.0278 H   0  0  0  0  0  0
    5.8287    5.9069   -0.4176 H   0  0  0  0  0  0
    3.4997    3.9348   -0.4439 H   0  0  0  0  0  0
    4.5954    4.3825   -1.7951 H   0  0  0  0  0  0
    4.8337    2.0119   -0.5662 H   0  0  0  0  0  0
    6.2818    2.9370   -1.0895 H   0  0  0  0  0  0
    6.8369    2.7159    1.2057 H   0  0  0  0  0  0
    5.1160    2.6296    1.7132 H   0  0  0  0  0  0
    2.5108    8.4700    0.6993 H   0  0  0  0  0  0
    0.7066    7.6436   -1.5953 H   0  0  0  0  0  0
    1.4324    9.2562   -1.2800 H   0  0  0  0  0  0
    2.3018    7.6977   -3.2957 H   0  0  0  0  0  0
    3.4270    8.7201   -2.3391 H   0  0  0  0  0  0
    4.4736    6.6016   -2.0230 H   0  0  0  0  0  0
    2.9153    5.7123   -2.1095 H   0  0  0  0  0  0
    1.1981    8.4025    2.2952 H   0  0  0  0  0  0
   -0.0730    5.8928    2.9789 H   0  0  0  0  0  0
    0.4361    7.9477    4.4770 H   0  0  0  0  0  0
   -1.1011    8.6447    3.8623 H   0  0  0  0  0  0
    0.1425    5.4311    5.0660 H   0  0  0  0  0  0
   -1.3135    5.1731    6.2675 H   0  0  0  0  0  0
   -2.2919    5.2423    3.1179 H   0  0  0  0  0  0
   -3.6372    5.7469    0.5891 H   0  0  0  0  0  0
   -3.9584    3.6949    1.9971 H   0  0  0  0  0  0
   -4.8247    4.6812    3.2231 H   0  0  0  0  0  0
   -4.9936    4.0185   -0.4848 H   0  0  0  0  0  0
   -7.1156    4.5650    3.1908 H   0  0  0  0  0  0
   -7.1239    3.5975   -1.6529 H   0  0  0  0  0  0
   -9.2448    4.1406    2.0243 H   0  0  0  0  0  0
   -9.4993    3.3979   -1.6110 H   0  0  0  0  0  0
   -3.8841    7.2058    3.8171 H   0  0  0  0  0  0
   -6.4147    8.5583    3.2967 H   0  0  0  0  0  0
   -4.1443    8.7927    5.2474 H   0  0  0  0  0  0
   -5.1317   10.2797    5.0462 H   0  0  0  0  0  0
   -7.0141    6.9148    6.6133 H   0  0  0  0  0  0
   -3.0729    9.1990    2.3856 H   0  0  0  0  0  0
   -3.8586   11.9770    1.5151 H   0  0  0  0  0  0
   -1.4757   10.8684    2.4316 H   0  0  0  0  0  0
   -1.1883   10.9380    0.6598 H   0  0  0  0  0  0
   -0.4830   13.0905    1.7693 H   0  0  0  0  0  0
   -3.6671    8.7409    0.2959 H   0  0  0  0  0  0
   -3.1418    9.5376   -2.4979 H   0  0  0  0  0  0
   -6.3857   10.7585   -3.4707 H   0  0  0  0  0  0
   -3.8992    7.0605   -0.9957 H   0  0  0  0  0  0
   -4.4913    7.1041   -2.6911 H   0  0  0  0  0  0
   -1.6192    7.3069   -1.7329 H   0  0  0  0  0  0
   -2.6252    5.0499   -1.6712 H   0  0  0  0  0  0
   -1.3612    5.1899   -2.9398 H   0  0  0  0  0  0
   -3.0984    5.2199   -3.3957 H   0  0  0  0  0  0
   -2.0376    8.7970   -3.6637 H   0  0  0  0  0  0
   -2.7537    7.4177   -4.5644 H   0  0  0  0  0  0
   -1.0165    7.3877   -4.1085 H   0  0  0  0  0  0
  1  2  1  0  0  0
  1123  1  0  0  0
  1124  1  0  0  0
  1125  1  0  0  0
  2  3  1  0  0  0
  2126  1  0  0  0
  2127  1  0  0  0
  3  4  2  0  0  0
  3  5  1  0  0  0
  5  6  1  0  0  0
  5128  1  0  0  0
  6  7  1  0  0  0
  6  9  1  0  0  0
  6129  1  0  0  0
  7  8  2  0  0  0
  7 11  1  0  0  0
  9 10  1  0  0  0
  9130  1  0  0  0
  9131  1  0  0  0
 10132  1  0  0  0
 11 12  1  0  0  0
 11133  1  0  0  0
 12 13  1  0  0  0
 12 15  1  0  0  0
 12134  1  0  0  0
 13 14  2  0  0  0
 13 18  1  0  0  0
 15 16  1  0  0  0
 15 17  1  0  0  0
 15135  1  0  0  0
 16136  1  0  0  0
 17137  1  0  0  0
 17138  1  0  0  0
 17139  1  0  0  0
 18 19  1  0  0  0
 18140  1  0  0  0
 19 20  1  0  0  0
 19 22  1  0  0  0
 19141  1  0  0  0
 20 21  2  0  0  0
 20 26  1  0  0  0
 22 23  1  0  0  0
 22142  1  0  0  0
 22143  1  0  0  0
 23 24  1  0  0  0
 23 25  1  0  0  0
 23144  1  0  0  0
 24145  1  0  0  0
 24146  1  0  0  0
 24147  1  0  0  0
 25148  1  0  0  0
 25149  1  0  0  0
 25150  1  0  0  0
 26 27  1  0  0  0
 26 32  1  0  0  0
 27 28  1  0  0  0
 27 30  1  0  0  0
 27151  1  0  0  0
 28 29  2  0  0  0
 28 33  1  0  0  0
 30 31  1  0  0  0
 30152  1  0  0  0
 30153  1  0  0  0
 31 32  1  0  0  0
 31154  1  0  0  0
 31155  1  0  0  0
 32156  1  0  0  0
 32157  1  0  0  0
 33 34  1  0  0  0
 33158  1  0  0  0
 34 35  1  0  0  0
 34 37  1  0  0  0
 34159  1  0  0  0
 35 36  2  0  0  0
 35 41  1  0  0  0
 37 38  1  0  0  0
 37 39  1  0  0  0
 37160  1  0  0  0
 38 40  1  0  0  0
 38161  1  0  0  0
 38162  1  0  0  0
 39163  1  0  0  0
 39164  1  0  0  0
 39165  1  0  0  0
 40166  1  0  0  0
 40167  1  0  0  0
 40168  1  0  0  0
 41 42  1  0  0  0
 41 47  1  0  0  0
 42 43  1  0  0  0
 42 45  1  0  0  0
 42169  1  0  0  0
 43 44  2  0  0  0
 43 48  1  0  0  0
 45 46  1  0  0  0
 45170  1  0  0  0
 45171  1  0  0  0
 46 47  1  0  0  0
 46172  1  0  0  0
 46173  1  0  0  0
 47174  1  0  0  0
 47175  1  0  0  0
 48 49  1  0  0  0
 48176  1  0  0  0
 49 50  1  0  0  0
 49177  1  0  0  0
 49178  1  0  0  0
 50 51  2  0  0  0
 50 52  1  0  0  0
 52 53  1  0  0  0
 52179  1  0  0  0
 53 54  1  0  0  0
 53 56  1  0  0  0
 53180  1  0  0  0
 54 55  2  0  0  0
 54 59  1  0  0  0
 56 57  1  0  0  0
 56 58  1  0  0  0
 56181  1  0  0  0
 57182  1  0  0  0
 58183  1  0  0  0
 58184  1  0  0  0
 58185  1  0  0  0
 59 60  1  0  0  0
 59 65  1  0  0  0
 60 61  1  0  0  0
 60 63  1  0  0  0
 60186  1  0  0  0
 61 62  2  0  0  0
 61 66  1  0  0  0
 63 64  1  0  0  0
 63187  1  0  0  0
 63188  1  0  0  0
 64 65  1  0  0  0
 64189  1  0  0  0
 64190  1  0  0  0
 65191  1  0  0  0
 65192  1  0  0  0
 66 67  1  0  0  0
 66 72  1  0  0  0
 67 68  1  0  0  0
 67 70  1  0  0  0
 67193  1  0  0  0
 68 69  2  0  0  0
 68 73  1  0  0  0
 70 71  1  0  0  0
 70194  1  0  0  0
 70195  1  0  0  0
 71 72  1  0  0  0
 71196  1  0  0  0
 71197  1  0  0  0
 72198  1  0  0  0
 72199  1  0  0  0
 73 74  1  0  0  0
 73 79  1  0  0  0
 74 75  1  0  0  0
 74 77  1  0  0  0
 74200  1  0  0  0
 75 76  2  0  0  0
 75 80  1  0  0  0
 77 78  1  0  0  0
 77201  1  0  0  0
 77202  1  0  0  0
 78 79  1  0  0  0
 78203  1  0  0  0
 78204  1  0  0  0
 79205  1  0  0  0
 79206  1  0  0  0
 80 81  1  0  0  0
 80207  1  0  0  0
 81 82  1  0  0  0
 81 84  1  0  0  0
 81208  1  0  0  0
 82 83  2  0  0  0
 82 88  1  0  0  0
 84 85  1  0  0  0
 84209  1  0  0  0
 84210  1  0  0  0
 85 86  2  0  0  0
 85 87  1  0  0  0
 87211  1  0  0  0
 87212  1  0  0  0
 88 89  1  0  0  0
 88213  1  0  0  0
 89 90  1  0  0  0
 89 92  1  0  0  0
 89214  1  0  0  0
 90 91  2  0  0  0
 90100  1  0  0  0
 92 93  1  0  0  0
 92215  1  0  0  0
 92216  1  0  0  0
 93 94  2  0  0  0
 93 95  1  0  0  0
 94 96  1  0  0  0
 94217  1  0  0  0
 95 97  2  0  0  0
 95218  1  0  0  0
 96 98  2  0  0  0
 96219  1  0  0  0
 97 98  1  0  0  0
 97220  1  0  0  0
 98 99  1  0  0  0
 99221  1  0  0  0
100101  1  0  0  0
100222  1  0  0  0
101102  1  0  0  0
101104  1  0  0  0
101223  1  0  0  0
102103  2  0  0  0
102108  1  0  0  0
104105  1  0  0  0
104224  1  0  0  0
104225  1  0  0  0
105106  1  0  0  0
105107  2  0  0  0
106226  1  0  0  0
108109  1  0  0  0
108227  1  0  0  0
109110  1  0  0  0
109112  1  0  0  0
109228  1  0  0  0
110111  2  0  0  0
110114  1  0  0  0
112113  1  0  0  0
112229  1  0  0  0
112230  1  0  0  0
113231  1  0  0  0
114115  1  0  0  0
114232  1  0  0  0
115116  1  0  0  0
115118  1  0  0  0
115233  1  0  0  0
116117  1  0  0  0
116122  2  0  0  0
117234  1  0  0  0
118119  1  0  0  0
118235  1  0  0  0
118236  1  0  0  0
119120  1  0  0  0
119121  1  0  0  0
119237  1  0  0  0
120238  1  0  0  0
120239  1  0  0  0
120240  1  0  0  0
121241  1  0  0  0
121242  1  0  0  0
121243  1  0  0  0
M  CHG  1   1   1
M  END
> <s_m_source_file>
../1i5h_ligand.sdf

> <i_m_source_file_index>
1

> <s_epik_input>
W05IMytdW0NIMl1DKD1PKVtOSF1bQ0BASF0oW0NIMl1bT0hdKUMoPU8pW05IXVtDQEBIXShbQ0BIXShbT0hdKVtDSDNdKUMoPU8pW05IXVtDQEBIXShbQ0gyXVtDSF0oW0NIM10pW0NIM10pQyg9TylOMVtDQEBIXShbQ0gyXVtDSDJdW0NIMl0xKUMoPU8pW05IXVtDQEBIXShbQ0BASF0oW0NIM10pW0NIMl1bQ0gzXSlDKD1PKU4yW0NAQEhdKFtDSDJdW0NIMl1bQ0gyXTIpQyg9TylbTkhdW0NIMl1DKD1PKVtOSF1bQ0BASF0oW0NASF0oW09IXSlbQ0gzXSlDKD1PKU4zW0NAQEhdKFtDSDJdW0NIMl1bQ0gyXTMpQyg9TylONFtDQEBIXShbQ0gyXVtDSDJdW0NIMl00KUMoPU8pTjVbQ0BASF0oW0NIMl1bQ0gyXVtDSDJdNSlDKD1PKVtOSF1bQ0BASF0oW0NIMl1DKD1PKVtOSDJdKUMoPU8pW05IXVtDQEBIXShbQ0gyXWM2W2NIXVtjSF1jKFtPSF0pW2NIXVtjSF02KUMoPU8pW05IXVtDQEBIXShbQ0gyXUMoPU8pW09IXSlDKD1PKVtOSF1bQ0BASF0oW0NIMl1bT0hdKUMoPU8pW05IXVtDQEhdKEMoPU8pW09IXSlbQ0gyXVtDSF0oW0NIM10pW0NIM10=

> <s_epik_cmdline>
J2VwaWtfYXBwJywgJy1pbWFlJywgJ2xpZ2FuZF9wcm8ubWFlJywgJy1vbWFlJywgJ2xpZ2FuZF9wcmVwLm1hZScsICctbXMnLCAnMScsICctcGgnLCAnNycsICctcGh0JywgJzAuNScsICctbnQn

> <s_epik_pKa_notes>
Molecule size exceeds maximum supported for generating protonation states

$$$$
