1i6v_ligand
                    3D
 Schrodinger Suite 2020-3.
120124  0  0  1  0            999 V2000
   48.5350   97.5710   24.9090 C   0  0  0  0  0  0
   48.3850   96.5760   25.9310 C   0  0  0  0  0  0
   49.4570   95.7320   26.3150 C   0  0  0  0  0  0
   50.7400   95.9630   25.7890 C   0  0  0  0  0  0
   52.2550   97.1830   24.0890 C   0  0  0  0  0  0
   52.3290   98.1840   23.0660 C   0  0  0  0  0  0
   51.3240   99.0130   22.6340 C   0  0  0  0  0  0
   50.0100   98.8220   23.2510 C   0  0  0  0  0  0
   49.8370   97.7690   24.3230 C   0  0  0  0  0  0
   50.9530   96.9310   24.7700 C   0  0  0  0  0  0
   53.5140   96.5520   24.1290 C   0  0  0  0  0  0
   54.3960   97.1900   23.1050 C   0  0  2  0  0  0
   55.6610   97.7780   23.6650 C   0  0  0  0  0  0
   51.4930  100.0520   21.5610 C   0  0  0  0  0  0
   46.1860   97.1360   26.9700 C   0  0  0  0  0  0
   44.9500   96.4320   27.4620 C   0  0  0  0  0  0
   44.2900   95.4300   26.7750 C   0  0  0  0  0  0
   44.5910   94.8230   25.4530 C   0  0  0  0  0  0
   43.9750   93.7080   25.0000 C   0  0  0  0  0  0
   44.6080   92.4180   24.4920 C   0  0  1  0  0  0
   45.5840   92.6570   23.3310 C   0  0  1  0  0  0
   46.5630   91.5170   22.9750 C   0  0  2  0  0  0
   47.6020   91.8680   21.9000 C   0  0  2  0  0  0
   49.0440   92.2220   22.3380 C   0  0  2  0  0  0
   49.8020   92.8550   21.1450 C   0  0  1  0  0  0
   50.8070   93.9880   21.5070 C   0  0  1  0  0  0
   51.7880   94.2900   20.3470 C   0  0  2  0  0  0
   52.9080   95.3130   20.6580 C   0  0  0  0  0  0
   53.8110   95.1490   21.6370 C   0  0  0  0  0  0
   44.5020   96.9280   28.8180 C   0  0  0  0  0  0
   45.2760   91.7660   25.7270 C   0  0  0  0  0  0
   45.8240   90.2230   22.5320 C   0  0  0  0  0  0
   49.8170   91.0080   22.8920 C   0  0  0  0  0  0
   49.9950   95.1930   21.8990 C   0  0  0  0  0  0
   49.8960   91.2800   19.3140 C   0  0  0  0  0  0
   50.7110   90.2400   18.6950 C   0  0  0  0  0  0
   51.5090   94.2020   17.9340 C   0  0  0  0  0  0
   46.4370   89.9910   30.7930 C   0  0  0  0  0  0
   48.3610   91.1980   29.8110 C   0  0  0  0  0  0
   48.9090   92.5760   29.4650 C   0  0  0  0  0  0
   46.6690   93.5100   29.3310 C   0  0  0  0  0  0
   46.0630   92.1580   29.6540 C   0  0  0  0  0  0
   49.2890   94.5610   27.1830 C   0  0  0  0  0  0
   47.0960   96.2860   26.4730 N   0  0  0  0  0  0
   48.2940   94.4940   28.0160 N   0  0  0  0  0  0
   47.9480   93.2900   28.6360 N   0  0  1  0  0  0
   47.0030   91.3270   30.4890 N   0  3  0  0  0  0
   47.4710   98.2660   24.4880 O   0  0  0  0  0  0
   49.0060   99.5380   22.8930 O   0  0  0  0  0  0
   53.5730   98.2380   22.5010 O   0  0  0  0  0  0
   53.9740   95.5980   24.8210 O   0  0  0  0  0  0
   54.7730   96.1920   22.0560 O   0  0  0  0  0  0
   50.9860   94.7380   19.1860 O   0  0  0  0  0  0
   50.4690   91.7950   20.4280 O   0  0  0  0  0  0
   48.8560   91.6640   18.9130 O   0  0  0  0  0  0
   47.1610   92.9800   21.0830 O   0  0  0  0  0  0
   44.7560   92.9820   22.2120 O   0  0  0  0  0  0
   46.2900   98.3430   27.0470 O   0  0  0  0  0  0
   51.7320   95.1630   26.3180 O   0  0  0  0  0  0
   55.4100   98.5168   24.4404 H   0  0  0  0  0  0
   56.2250   98.2698   22.8588 H   0  0  0  0  0  0
   56.2736   96.9777   24.1056 H   0  0  0  0  0  0
   52.5373  100.0558   21.2156 H   0  0  0  0  0  0
   51.2371  101.0422   21.9659 H   0  0  0  0  0  0
   50.8282   99.8183   20.7163 H   0  0  0  0  0  0
   43.3954   94.9614   27.2110 H   0  0  0  0  0  0
   44.3760   95.5517   24.6575 H   0  0  0  0  0  0
   45.6530   94.5392   25.4131 H   0  0  0  0  0  0
   43.3364   93.2936   25.7940 H   0  0  0  0  0  0
   43.3563   93.9602   24.1261 H   0  0  0  0  0  0
   43.8460   91.7570   24.0533 H   0  0  0  0  0  0
   46.2441   93.5003   23.5822 H   0  0  0  0  0  0
   47.1121   91.3577   23.9147 H   0  0  0  0  0  0
   47.6338   90.9353   21.3178 H   0  0  0  0  0  0
   48.9755   92.9417   23.1670 H   0  0  0  0  0  0
   49.0631   93.3077   20.4675 H   0  0  0  0  0  0
   51.4392   93.7052   22.3616 H   0  0  0  0  0  0
   52.3168   93.3577   20.0998 H   0  0  0  0  0  0
   52.9396   96.2125   20.0256 H   0  0  0  0  0  0
   53.8657   94.1942   22.1805 H   0  0  0  0  0  0
   45.1807   97.7232   29.1601 H   0  0  0  0  0  0
   44.5202   96.0958   29.5372 H   0  0  0  0  0  0
   43.4792   97.3258   28.7433 H   0  0  0  0  0  0
   44.5247   91.6234   26.5177 H   0  0  0  0  0  0
   46.0789   92.4202   26.0977 H   0  0  0  0  0  0
   45.6991   90.7911   25.4431 H   0  0  0  0  0  0
   45.0732   89.9522   23.2889 H   0  0  0  0  0  0
   46.5504   89.4038   22.4265 H   0  0  0  0  0  0
   45.3255   90.3975   21.5671 H   0  0  0  0  0  0
   49.2620   90.5745   23.7370 H   0  0  0  0  0  0
   50.8114   91.3313   23.2336 H   0  0  0  0  0  0
   49.9290   90.2524   22.1005 H   0  0  0  0  0  0
   49.3172   94.9261   22.7232 H   0  0  0  0  0  0
   49.4054   95.5346   21.0354 H   0  0  0  0  0  0
   50.6689   95.9990   22.2248 H   0  0  0  0  0  0
   51.6264   90.0909   19.2865 H   0  0  0  0  0  0
   50.9804   90.5450   17.6730 H   0  0  0  0  0  0
   50.1406   89.3001   18.6589 H   0  0  0  0  0  0
   50.8894   94.5554   17.0966 H   0  0  0  0  0  0
   51.4869   93.1028   17.9682 H   0  0  0  0  0  0
   52.5450   94.5438   17.7933 H   0  0  0  0  0  0
   47.1529   89.4194   31.4020 H   0  0  0  0  0  0
   46.2429   89.4527   29.8536 H   0  0  0  0  0  0
   45.4953   90.1096   31.3490 H   0  0  0  0  0  0
   48.2491   90.6062   28.8905 H   0  0  0  0  0  0
   49.0568   90.6873   30.4929 H   0  0  0  0  0  0
   49.0857   93.1433   30.3907 H   0  0  0  0  0  0
   49.8556   92.4668   28.9155 H   0  0  0  0  0  0
   45.9812   94.0751   28.6848 H   0  0  0  0  0  0
   46.8380   94.0683   30.2636 H   0  0  0  0  0  0
   45.1272   92.3001   30.2144 H   0  0  0  0  0  0
   45.8522   91.6179   28.7192 H   0  0  0  0  0  0
   50.0138   93.7356   27.1245 H   0  0  0  0  0  0
   46.7398   95.2463   26.5187 H   0  0  0  0  0  0
   47.1216   91.8349   31.4575 H   0  0  0  0  0  0
   46.4868   98.0984   24.9498 H   0  0  0  0  0  0
   49.1273  100.3049   22.1138 H   0  0  0  0  0  0
   46.1532   92.9730   20.6423 H   0  0  0  0  0  0
   44.0008   93.7770   22.2991 H   0  0  0  0  0  0
   51.4896   94.4351   27.1063 H   0  0  0  0  0  0
  1  2  2  0  0  0
  1  9  1  0  0  0
  1 48  1  0  0  0
  2  3  1  0  0  0
  2 44  1  0  0  0
  3  4  2  0  0  0
  3 43  1  0  0  0
  4 10  1  0  0  0
  4 59  1  0  0  0
  5  6  1  0  0  0
  5 10  2  0  0  0
  5 11  1  0  0  0
  6  7  2  0  0  0
  6 50  1  0  0  0
  7  8  1  0  0  0
  7 14  1  0  0  0
  8  9  2  0  0  0
  8 49  1  0  0  0
  9 10  1  0  0  0
 11 12  1  0  0  0
 11 51  2  0  0  0
 12 13  1  0  0  0
 12 50  1  0  0  0
 12 52  1  0  0  0
 13 60  1  0  0  0
 13 61  1  0  0  0
 13 62  1  0  0  0
 14 63  1  0  0  0
 14 64  1  0  0  0
 14 65  1  0  0  0
 15 16  1  0  0  0
 15 44  1  0  0  0
 15 58  2  0  0  0
 16 17  2  0  0  0
 16 30  1  0  0  0
 17 18  1  0  0  0
 17 66  1  0  0  0
 18 19  1  0  0  0
 18 67  1  0  0  0
 18 68  1  0  0  0
 19 20  1  0  0  0
 19 69  1  0  0  0
 19 70  1  0  0  0
 20 21  1  0  0  0
 20 31  1  0  0  0
 20 71  1  0  0  0
 21 22  1  0  0  0
 21 57  1  0  0  0
 21 72  1  0  0  0
 22 23  1  0  0  0
 22 32  1  0  0  0
 22 73  1  0  0  0
 23 24  1  0  0  0
 23 56  1  0  0  0
 23 74  1  0  0  0
 24 25  1  0  0  0
 24 33  1  0  0  0
 24 75  1  0  0  0
 25 26  1  0  0  0
 25 54  1  0  0  0
 25 76  1  0  0  0
 26 27  1  0  0  0
 26 34  1  0  0  0
 26 77  1  0  0  0
 27 28  1  0  0  0
 27 53  1  0  0  0
 27 78  1  0  0  0
 28 29  2  0  0  0
 28 79  1  0  0  0
 29 52  1  0  0  0
 29 80  1  0  0  0
 30 81  1  0  0  0
 30 82  1  0  0  0
 30 83  1  0  0  0
 31 84  1  0  0  0
 31 85  1  0  0  0
 31 86  1  0  0  0
 32 87  1  0  0  0
 32 88  1  0  0  0
 32 89  1  0  0  0
 33 90  1  0  0  0
 33 91  1  0  0  0
 33 92  1  0  0  0
 34 93  1  0  0  0
 34 94  1  0  0  0
 34 95  1  0  0  0
 35 36  1  0  0  0
 35 54  1  0  0  0
 35 55  2  0  0  0
 36 96  1  0  0  0
 36 97  1  0  0  0
 36 98  1  0  0  0
 37 53  1  0  0  0
 37 99  1  0  0  0
 37100  1  0  0  0
 37101  1  0  0  0
 38 47  1  0  0  0
 38102  1  0  0  0
 38103  1  0  0  0
 38104  1  0  0  0
 39 40  1  0  0  0
 39 47  1  0  0  0
 39105  1  0  0  0
 39106  1  0  0  0
 40 46  1  0  0  0
 40107  1  0  0  0
 40108  1  0  0  0
 41 42  1  0  0  0
 41 46  1  0  0  0
 41109  1  0  0  0
 41110  1  0  0  0
 42 47  1  0  0  0
 42111  1  0  0  0
 42112  1  0  0  0
 43 45  2  0  0  0
 43113  1  0  0  0
 44114  1  0  0  0
 45 46  1  0  0  0
 47115  1  0  0  0
 48116  1  0  0  0
 49117  1  0  0  0
 56118  1  0  0  0
 57119  1  0  0  0
 59120  1  0  0  0
M  CHG  1  47   1
M  END
> <s_m_source_file>
../1i6v_ligand.sdf

> <i_m_source_file_index>
1

> <s_epik_input>
W0NIM11bQ0BAXTEyQyg9TyljM2MoTzEpYyhbQ0gzXSljKFtPSF0pYzRjM2MoW09IXSljKC9bQ0hdPU4vTjVbQ0gyXVtDSDJdW05IK10oW0NIM10pW0NIMl1bQ0gyXTUpYyhjNFtPSF0pW05IXUMoPU8pL0MoW0NIM10pPVtDSF1cW0NIMl1bQ0gyXVtDQEhdKFtDSDNdKVtDQEhdKFtPSF0pW0NAQEhdKFtDSDNdKVtDQEBIXShbT0hdKVtDQEBIXShbQ0gzXSlbQ0BIXShPQyg9TylbQ0gzXSlbQ0BIXShbQ0gzXSlbQ0BIXSgvW0NIXT1bQ0hdL08yKU9bQ0gzXQ==

> <s_epik_cmdline>
J2VwaWtfYXBwJywgJy1pbWFlJywgJ2xpZ2FuZF9wcm8ubWFlJywgJy1vbWFlJywgJ2xpZ2FuZF9wcmVwLm1hZScsICctbXMnLCAnMScsICctcGgnLCAnNycsICctcGh0JywgJzAuNScsICctbnQn

> <r_lp_tautomer_probability>
1

> <r_epik_Ionization_Penalty>
  0.4460

> <r_epik_Ionization_Penalty_Charging>
  0.0300

> <r_epik_Ionization_Penalty_Neutral>
  0.4159

> <r_epik_State_Penalty>
 -0.0000

> <r_epik_Charging_Adjusted_Penalty>
0.0300347232443486

> <i_epik_Tot_Q>
1

> <i_epik_Tot_abs_Q>
1

> <s_epik_Chemistry_Notes>
This compound has an ester and may undergo hydrolysis at high or low pH. This compound has an imine and may undergo hydrolysis.

$$$$
