1i7g_ligand
                    3D
 Schrodinger Suite 2020-3.
 51 52  0  0  1  0            999 V2000
   38.5740   31.9690   36.6470 C   0  0  0  0  0  0
   39.5130   30.7880   36.6050 C   0  0  0  0  0  0
   40.3300   30.6260   37.9090 C   0  0  2  0  0  0
   41.2860   31.7030   37.9490 O   0  0  0  0  0  0
   41.6910   32.1050   39.2530 C   0  0  0  0  0  0
   42.2940   33.4880   39.1140 C   0  0  0  0  0  0
   40.9620   29.2420   37.9120 C   0  0  0  0  0  0
   40.0910   28.2780   38.2830 O   0  5  0  0  0  0
   42.1140   28.9560   37.6270 O   0  0  0  0  0  0
   39.0760   33.2960   36.4380 C   0  0  0  0  0  0
   38.2100   34.4030   36.4970 C   0  0  0  0  0  0
   36.8300   34.2240   36.7650 C   0  0  0  0  0  0
   36.3250   32.8990   36.9670 C   0  0  0  0  0  0
   37.1850   31.7900   36.9090 C   0  0  0  0  0  0
   36.1240   35.3940   36.7930 O   0  0  0  0  0  0
   34.8720   35.4130   37.4750 C   0  0  0  0  0  0
   34.5440   36.8830   37.7090 C   0  0  0  0  0  0
   34.8830   37.3340   39.0980 C   0  0  0  0  0  0
   35.7260   38.4610   39.3000 C   0  0  0  0  0  0
   36.0290   38.8900   40.6080 C   0  0  0  0  0  0
   35.4930   38.1950   41.7340 C   0  0  0  0  0  0
   34.6630   37.0770   41.5380 C   0  0  0  0  0  0
   34.3560   36.6440   40.2300 C   0  0  0  0  0  0
   35.8350   38.7070   42.9490 O   0  0  0  0  0  0
   34.8030   39.7180   43.7040 S   0  0  0  0  0  0
   35.7830   39.9980   45.1580 C   0  0  0  0  0  0
   34.7270   40.9530   42.9560 O   0  0  0  0  0  0
   33.6190   38.9790   44.0960 O   0  0  0  0  0  0
   38.9344   29.8648   36.4538 H   0  0  0  0  0  0
   40.2247   30.9147   35.7758 H   0  0  0  0  0  0
   39.7589   30.7334   38.8430 H   0  0  0  0  0  0
   40.8158   32.1246   39.9190 H   0  0  0  0  0  0
   42.4324   31.3920   39.6428 H   0  0  0  0  0  0
   42.6243   33.8448   40.1007 H   0  0  0  0  0  0
   41.5394   34.1779   38.7083 H   0  0  0  0  0  0
   43.1561   33.4453   38.4321 H   0  0  0  0  0  0
   40.1355   33.4478   36.2321 H   0  0  0  0  0  0
   38.6036   35.4065   36.3353 H   0  0  0  0  0  0
   35.2640   32.7500   37.1675 H   0  0  0  0  0  0
   36.7876   30.7871   37.0653 H   0  0  0  0  0  0
   34.1067   34.9294   36.8501 H   0  0  0  0  0  0
   34.9648   34.8699   38.4271 H   0  0  0  0  0  0
   35.1159   37.5031   37.0031 H   0  0  0  0  0  0
   33.4676   37.0479   37.5532 H   0  0  0  0  0  0
   36.1382   38.9935   38.4429 H   0  0  0  0  0  0
   36.6745   39.7550   40.7603 H   0  0  0  0  0  0
   34.2561   36.5440   42.3973 H   0  0  0  0  0  0
   33.7121   35.7768   40.0839 H   0  0  0  0  0  0
   35.8509   39.0666   45.7393 H   0  0  0  0  0  0
   35.3127   40.7801   45.7721 H   0  0  0  0  0  0
   36.7924   40.3207   44.8632 H   0  0  0  0  0  0
  1 14  2  0  0  0
  1 10  1  0  0  0
  1  2  1  0  0  0
  2  3  1  0  0  0
  2 29  1  0  0  0
  2 30  1  0  0  0
  3  7  1  0  0  0
  3  4  1  0  0  0
  3 31  1  0  0  0
  4  5  1  0  0  0
  5  6  1  0  0  0
  5 32  1  0  0  0
  5 33  1  0  0  0
  6 34  1  0  0  0
  6 35  1  0  0  0
  6 36  1  0  0  0
  7  9  2  0  0  0
  7  8  1  0  0  0
 10 11  2  0  0  0
 10 37  1  0  0  0
 11 12  1  0  0  0
 11 38  1  0  0  0
 12 15  1  0  0  0
 12 13  2  0  0  0
 13 14  1  0  0  0
 13 39  1  0  0  0
 14 40  1  0  0  0
 15 16  1  0  0  0
 16 17  1  0  0  0
 16 41  1  0  0  0
 16 42  1  0  0  0
 17 18  1  0  0  0
 17 43  1  0  0  0
 17 44  1  0  0  0
 18 23  2  0  0  0
 18 19  1  0  0  0
 19 20  2  0  0  0
 19 45  1  0  0  0
 20 21  1  0  0  0
 20 46  1  0  0  0
 21 24  1  0  0  0
 21 22  2  0  0  0
 22 23  1  0  0  0
 22 47  1  0  0  0
 23 48  1  0  0  0
 24 25  1  0  0  0
 25 28  2  0  0  0
 25 27  2  0  0  0
 25 26  1  0  0  0
 26 49  1  0  0  0
 26 50  1  0  0  0
 26 51  1  0  0  0
M  CHG  1   8  -1
M  END
> <s_m_source_file>
../1i7g_ligand.sdf

> <i_m_source_file_index>
1

> <s_epik_input>
W0NIM11bQ0gyXU9bQ0BIXShDKD1PKVtPSF0pW0NIMl1jMVtjSF1bY0hdYyhbY0hdW2NIXTEpT1tDSDJdW0NIMl1jMltjSF1bY0hdYyhbY0hdW2NIXTIpT1MoPU8pKD1PKVtDSDNd

> <s_epik_cmdline>
J2VwaWtfYXBwJywgJy1pbWFlJywgJ2xpZ2FuZF9wcm8ubWFlJywgJy1vbWFlJywgJ2xpZ2FuZF9wcmVwLm1hZScsICctbXMnLCAnMScsICctcGgnLCAnNycsICctcGh0JywgJzAuNScsICctbnQn

> <r_lp_tautomer_probability>
1

> <r_epik_Ionization_Penalty>
  0.0003

> <r_epik_Ionization_Penalty_Charging>
  0.0003

> <r_epik_Ionization_Penalty_Neutral>
  0.0000

> <r_epik_State_Penalty>
 -0.0000

> <r_epik_Charging_Adjusted_Penalty>
0.000339561099498714

> <i_epik_Tot_Q>
-1

> <i_epik_Tot_abs_Q>
1

$$$$
