1i7i_ligand
                    3D
 Schrodinger Suite 2020-3.
 51 52  0  0  1  0            999 V2000
   18.3960   16.3430   16.4840 C   0  0  0  0  0  0
   18.8060   16.4240   17.9370 C   0  0  0  0  0  0
   19.2630   17.8180   18.4260 C   0  0  2  0  0  0
   20.4490   18.1410   17.6930 O   0  0  0  0  0  0
   20.6920   19.5210   17.5290 C   0  0  0  0  0  0
   22.0860   19.6460   16.9440 C   0  0  0  0  0  0
   19.4700   17.7540   19.9600 C   0  0  0  0  0  0
   18.3230   17.9030   20.6580 O   0  5  0  0  0  0
   20.5210   17.5850   20.5410 O   0  0  0  0  0  0
   19.3450   16.0130   15.4660 C   0  0  0  0  0  0
   18.9390   15.9390   14.1020 C   0  0  0  0  0  0
   17.5740   16.1940   13.7360 C   0  0  0  0  0  0
   16.6480   16.5200   14.7520 C   0  0  0  0  0  0
   17.0570   16.5930   16.1130 C   0  0  0  0  0  0
   17.2390   16.1010   12.3820 O   0  0  0  0  0  0
   18.2370   15.8860   11.3530 C   0  0  0  0  0  0
   17.6420   16.3750   10.0300 C   0  0  0  0  0  0
   17.6740   17.8740    9.9160 C   0  0  0  0  0  0
   18.7320   18.5310    9.2180 C   0  0  0  0  0  0
   18.7580   19.9510    9.1180 C   0  0  0  0  0  0
   17.7250   20.7240    9.7160 C   0  0  0  0  0  0
   16.6680   20.0780   10.4080 C   0  0  0  0  0  0
   16.6510   18.6630   10.5030 C   0  0  0  0  0  0
   17.8440   22.0760    9.5550 O   0  0  0  0  0  0
   17.2560   22.7890    8.2240 S   0  0  0  0  0  0
   17.5950   24.4670    8.7020 C   0  0  0  0  0  0
   18.1020   22.4590    7.1090 O   0  0  0  0  0  0
   15.8090   22.5980    8.1760 O   0  0  0  0  0  0
   17.9568   16.1360   18.5742 H   0  0  0  0  0  0
   19.6489   15.7411   18.1188 H   0  0  0  0  0  0
   18.5784   18.6482   18.1978 H   0  0  0  0  0  0
   19.9403   19.9473   16.8484 H   0  0  0  0  0  0
   20.6290   20.0230   18.5057 H   0  0  0  0  0  0
   22.3272   20.7089   16.7952 H   0  0  0  0  0  0
   22.1264   19.1220   15.9776 H   0  0  0  0  0  0
   22.8151   19.1977   17.6350 H   0  0  0  0  0  0
   20.3831   15.8173   15.7346 H   0  0  0  0  0  0
   19.6686   15.6875   13.3322 H   0  0  0  0  0  0
   15.6085   16.7178   14.4904 H   0  0  0  0  0  0
   16.3255   16.8457   16.8806 H   0  0  0  0  0  0
   19.1463   16.4536   11.5999 H   0  0  0  0  0  0
   18.4783   14.8144   11.2944 H   0  0  0  0  0  0
   18.2174   15.9551    9.1918 H   0  0  0  0  0  0
   16.5944   16.0478    9.9559 H   0  0  0  0  0  0
   19.5253   17.9414    8.7585 H   0  0  0  0  0  0
   19.5692   20.4453    8.5834 H   0  0  0  0  0  0
   15.8724   20.6668   10.8647 H   0  0  0  0  0  0
   15.8370   18.1725   11.0368 H   0  0  0  0  0  0
   16.9573   24.7411    9.5554 H   0  0  0  0  0  0
   17.3848   25.1386    7.8566 H   0  0  0  0  0  0
   18.6526   24.5597    8.9898 H   0  0  0  0  0  0
  1 14  2  0  0  0
  1 10  1  0  0  0
  1  2  1  0  0  0
  2  3  1  0  0  0
  2 29  1  0  0  0
  2 30  1  0  0  0
  3  7  1  0  0  0
  3  4  1  0  0  0
  3 31  1  0  0  0
  4  5  1  0  0  0
  5  6  1  0  0  0
  5 32  1  0  0  0
  5 33  1  0  0  0
  6 34  1  0  0  0
  6 35  1  0  0  0
  6 36  1  0  0  0
  7  9  2  0  0  0
  7  8  1  0  0  0
 10 11  2  0  0  0
 10 37  1  0  0  0
 11 12  1  0  0  0
 11 38  1  0  0  0
 12 15  1  0  0  0
 12 13  2  0  0  0
 13 14  1  0  0  0
 13 39  1  0  0  0
 14 40  1  0  0  0
 15 16  1  0  0  0
 16 17  1  0  0  0
 16 41  1  0  0  0
 16 42  1  0  0  0
 17 18  1  0  0  0
 17 43  1  0  0  0
 17 44  1  0  0  0
 18 23  2  0  0  0
 18 19  1  0  0  0
 19 20  2  0  0  0
 19 45  1  0  0  0
 20 21  1  0  0  0
 20 46  1  0  0  0
 21 24  1  0  0  0
 21 22  2  0  0  0
 22 23  1  0  0  0
 22 47  1  0  0  0
 23 48  1  0  0  0
 24 25  1  0  0  0
 25 28  2  0  0  0
 25 27  2  0  0  0
 25 26  1  0  0  0
 26 49  1  0  0  0
 26 50  1  0  0  0
 26 51  1  0  0  0
M  CHG  1   8  -1
M  END
> <s_m_source_file>
../1i7i_ligand.sdf

> <i_m_source_file_index>
1

> <s_epik_input>
W0NIM11bQ0gyXU9bQ0BIXShDKD1PKVtPSF0pW0NIMl1jMVtjSF1bY0hdYyhbY0hdW2NIXTEpT1tDSDJdW0NIMl1jMltjSF1bY0hdYyhbY0hdW2NIXTIpT1MoPU8pKD1PKVtDSDNd

> <s_epik_cmdline>
J2VwaWtfYXBwJywgJy1pbWFlJywgJ2xpZ2FuZF9wcm8ubWFlJywgJy1vbWFlJywgJ2xpZ2FuZF9wcmVwLm1hZScsICctbXMnLCAnMScsICctcGgnLCAnNycsICctcGh0JywgJzAuNScsICctbnQn

> <r_lp_tautomer_probability>
1

> <r_epik_Ionization_Penalty>
  0.0003

> <r_epik_Ionization_Penalty_Charging>
  0.0003

> <r_epik_Ionization_Penalty_Neutral>
  0.0000

> <r_epik_State_Penalty>
 -0.0000

> <r_epik_Charging_Adjusted_Penalty>
0.000339561099498714

> <i_epik_Tot_Q>
-1

> <i_epik_Tot_abs_Q>
1

$$$$
