1i7z_ligand
                    3D
 Schrodinger Suite 2020-3.
 44 46  0  0  1  0            999 V2000
   40.3620    4.8820   50.1180 C   0  0  0  0  0  0
   39.6820    4.2280   49.0120 O   0  0  0  0  0  0
   40.1310    4.4390   47.7590 C   0  0  0  0  0  0
   41.2660    4.7520   47.4970 O   0  0  0  0  0  0
   38.9430    4.2070   46.8010 C   0  0  2  0  0  0
   39.4460    3.4330   45.5100 C   0  0  2  0  0  0
   40.5100    4.2460   44.8810 N   0  3  1  0  0  0
   41.3640    3.4710   43.9470 C   0  0  0  0  0  0
   38.3560    3.2370   44.4180 C   0  0  0  0  0  0
   38.5320    4.4870   43.5100 C   0  0  0  0  0  0
   39.6850    5.2640   44.1930 C   0  0  1  0  0  0
   39.1480    6.2560   45.2890 C   0  0  0  0  0  0
   38.2790    5.5110   46.3060 C   0  0  2  0  0  0
   37.9450    6.3730   47.4520 O   0  0  0  0  0  0
   36.9150    6.0730   48.2820 C   0  0  0  0  0  0
   36.0530    5.2800   48.0160 O   0  0  0  0  0  0
   36.9850    6.8630   49.5910 C   0  0  0  0  0  0
   36.0250    6.5910   50.6020 C   0  0  0  0  0  0
   36.0760    7.3130   51.8230 C   0  0  0  0  0  0
   37.0400    8.2650   52.0360 C   0  0  0  0  0  0
   37.9830    8.5380   51.0520 C   0  0  0  0  0  0
   37.9560    7.8350   49.8230 C   0  0  0  0  0  0
   39.8731    4.6057   51.0639 H   0  0  0  0  0  0
   40.3131    5.9728   49.9849 H   0  0  0  0  0  0
   41.4142    4.5623   50.1420 H   0  0  0  0  0  0
   38.2015    3.6568   47.3988 H   0  0  0  0  0  0
   39.8216    2.4452   45.8153 H   0  0  0  0  0  0
   41.2476    4.6522   45.5887 H   0  0  0  0  0  0
   41.9513    2.7333   44.5135 H   0  0  0  0  0  0
   42.0451    4.1551   43.4196 H   0  0  0  0  0  0
   40.7286    2.9502   43.2156 H   0  0  0  0  0  0
   38.5418    2.2962   43.8792 H   0  0  0  0  0  0
   37.3644    3.1981   44.8925 H   0  0  0  0  0  0
   38.7882    4.1658   42.4896 H   0  0  0  0  0  0
   37.5934    5.0602   43.4892 H   0  0  0  0  0  0
   40.2745    5.8112   43.4427 H   0  0  0  0  0  0
   39.9975    6.7169   45.8142 H   0  0  0  0  0  0
   38.5442    7.0404   44.8094 H   0  0  0  0  0  0
   37.3269    5.2704   45.8105 H   0  0  0  0  0  0
   35.2564    5.8349   50.4417 H   0  0  0  0  0  0
   35.3402    7.1084   52.6007 H   0  0  0  0  0  0
   37.0667    8.8093   52.9800 H   0  0  0  0  0  0
   38.7463    9.2962   51.2270 H   0  0  0  0  0  0
   38.6979    8.0552   49.0554 H   0  0  0  0  0  0
  1  2  1  0  0  0
  1 23  1  0  0  0
  1 24  1  0  0  0
  1 25  1  0  0  0
  2  3  1  0  0  0
  3  5  1  0  0  0
  3  4  2  0  0  0
  5 13  1  0  0  0
  5  6  1  0  0  0
  5 26  1  0  0  0
  6  9  1  0  0  0
  6  7  1  0  0  0
  6 27  1  0  0  0
  7 11  1  0  0  0
  7  8  1  0  0  0
  7 28  1  0  0  0
  8 29  1  0  0  0
  8 30  1  0  0  0
  8 31  1  0  0  0
  9 10  1  0  0  0
  9 32  1  0  0  0
  9 33  1  0  0  0
 10 11  1  0  0  0
 10 34  1  0  0  0
 10 35  1  0  0  0
 11 12  1  0  0  0
 11 36  1  0  0  0
 12 13  1  0  0  0
 12 37  1  0  0  0
 12 38  1  0  0  0
 13 14  1  0  0  0
 13 39  1  0  0  0
 14 15  1  0  0  0
 15 17  1  0  0  0
 15 16  2  0  0  0
 17 22  2  0  0  0
 17 18  1  0  0  0
 18 19  2  0  0  0
 18 40  1  0  0  0
 19 20  1  0  0  0
 19 41  1  0  0  0
 20 21  2  0  0  0
 20 42  1  0  0  0
 21 22  1  0  0  0
 21 43  1  0  0  0
 22 44  1  0  0  0
M  CHG  1   7   1
M  END
> <s_m_source_file>
../1i7z_ligand.sdf

> <i_m_source_file_index>
1

> <s_epik_input>
W0NIM11PQyg9TylbQ0BIXShbQ0BIXTEyKVtDQEhdKFtDSDJdW0NAQEhdKFtOQEBIK10xW0NIM10pW0NIMl1bQ0gyXTIpT0MoPU8pYzNbY0hdW2NIXVtjSF1bY0hdW2NIXTM=

> <s_epik_cmdline>
J2VwaWtfYXBwJywgJy1pbWFlJywgJ2xpZ2FuZF9wcm8ubWFlJywgJy1vbWFlJywgJ2xpZ2FuZF9wcmVwLm1hZScsICctbXMnLCAnMScsICctcGgnLCAnNycsICctcGh0JywgJzAuNScsICctbnQn

> <r_epik_Ionization_Penalty>
  0.0650

> <r_epik_Ionization_Penalty_Charging>
  0.0650

> <r_epik_Ionization_Penalty_Neutral>
  0.0000

> <r_epik_State_Penalty>
  0.0567

> <r_epik_Charging_Adjusted_Penalty>
0.121649389844584

> <i_epik_Tot_Q>
1

> <i_epik_Tot_abs_Q>
1

> <s_epik_Chemistry_Notes>
This compound has an ester and may undergo hydrolysis at high or low pH.

$$$$
