1i8h_ligand
                    3D
 Schrodinger Suite 2020-3.
213215  0  0  1  0            999 V2000
  -41.2430    4.5200   62.3600 N   0  3  0  0  0  0
  -42.5560    3.9210   61.9770 C   0  0  2  0  0  0
  -42.3520    2.7130   61.0010 C   0  0  0  0  0  0
  -41.8140    2.9100   59.9100 O   0  0  0  0  0  0
  -43.4560    5.0540   61.3890 C   0  0  0  0  0  0
  -44.9000    4.6660   60.9380 C   0  0  0  0  0  0
  -45.0570    4.4510   59.4100 C   0  0  0  0  0  0
  -46.4940    4.0490   59.0060 C   0  0  0  0  0  0
  -46.6370    4.0020   57.5180 N   0  3  0  0  0  0
  -42.8010    1.4950   61.3590 N   0  0  0  0  0  0
  -42.8680    0.3430   60.3980 C   0  0  2  0  0  0
  -44.0170    0.5200   59.3340 C   0  0  0  0  0  0
  -45.0680    1.1050   59.6270 O   0  0  0  0  0  0
  -42.9210   -0.9970   61.2160 C   0  0  0  0  0  0
  -44.2400   -1.2700   61.9790 C   0  0  0  0  0  0
  -42.6030   -2.2400   60.3560 C   0  0  0  0  0  0
  -43.7980    0.0810   58.0830 N   0  0  0  0  0  0
  -44.7790    0.2790   56.9790 C   0  0  2  0  0  0
  -44.7560   -0.8600   55.9150 C   0  0  0  0  0  0
  -43.6950   -1.2810   55.4500 O   0  0  0  0  0  0
  -44.4870    1.6410   56.2920 C   0  0  0  0  0  0
  -45.6130    2.0780   55.5210 O   0  0  0  0  0  0
  -45.9430   -1.2440   55.4200 N   0  0  0  0  0  0
  -46.0880   -1.7910   54.0350 C   0  0  2  0  0  0
  -45.9300   -0.6600   52.9440 C   0  0  0  0  0  0
  -46.1750    0.5290   53.2040 O   0  0  0  0  0  0
  -47.4250   -2.6180   53.9610 C   0  0  0  0  0  0
  -48.7300   -1.7850   53.9720 C   0  0  0  0  0  0
  -47.4840   -3.5740   52.7480 C   0  0  0  0  0  0
  -45.5310   -1.0410   51.7190 N   0  0  0  0  0  0
  -45.4490   -0.1030   50.5530 C   0  0  2  0  0  0
  -46.8990    0.1560   49.9980 C   0  0  0  0  0  0
  -47.6480   -0.7700   49.6660 O   0  0  0  0  0  0
  -44.4620   -0.6450   49.4560 C   0  0  0  0  0  0
  -44.2380    0.3240   48.2710 C   0  0  0  0  0  0
  -43.0430   -0.9990   49.9720 C   0  0  0  0  0  0
  -47.3020    1.4320   49.9450 N   0  0  0  0  0  0
  -48.6970    1.8330   49.6090 C   0  0  2  0  0  0
  -48.8660    2.3340   48.1370 C   0  0  0  0  0  0
  -48.6660    3.5040   47.8070 O   0  0  0  0  0  0
  -49.2060    2.8290   50.6870 C   0  0  0  0  0  0
  -50.7130    3.2170   50.6260 C   0  0  0  0  0  0
  -51.7380    2.0970   50.9440 C   0  0  0  0  0  0
  -52.3830    1.5560   49.7090 N   0  0  0  0  0  0
  -52.2160    0.3250   49.1980 C   0  0  0  0  0  0
  -51.4860   -0.6130   49.7350 N   0  0  0  0  0  0
  -52.7940    0.0360   48.0800 N   0  0  0  0  0  0
  -49.3500    1.4350   47.2720 N   0  0  0  0  0  0
  -49.9980    1.7850   45.9680 C   0  0  1  0  0  0
  -50.3520    0.4510   45.1950 C   0  0  2  0  0  0
  -51.5030    0.5090   44.1810 C   0  0  0  0  0  0
  -50.6620   -0.6800   46.0630 O   0  0  0  0  0  0
  -49.6790   -1.9600   46.1510 P   0  0  0  0  0  0
  -50.2440   -3.0070   47.1280 O   0  0  0  0  0  0
  -49.5800   -2.6280   44.7740 O   0  0  0  0  0  0
  -48.2210   -1.5180   46.6300 O   0  0  0  0  0  0
  -51.1960    2.8140   46.1230 C   0  0  0  0  0  0
  -52.0960    2.5230   46.9140 O   0  0  0  0  0  0
  -51.2850    3.9940   45.4320 N   0  0  0  0  0  0
  -52.3520    5.0090   45.6920 C   0  0  2  0  0  0
  -53.8540    4.5270   45.6550 C   0  0  0  0  0  0
  -54.5160    4.7070   46.6820 O   0  0  0  0  0  0
  -51.9400    6.1910   44.7830 C   0  0  0  0  0  0
  -50.8670    5.6630   43.8280 C   0  0  0  0  0  0
  -50.2010    4.5340   44.6030 C   0  0  0  0  0  0
  -54.4160    3.8570   44.6040 N   0  0  0  0  0  0
  -55.6830    3.0840   44.7320 C   0  0  2  0  0  0
  -55.4320    1.6310   45.3060 C   0  0  0  0  0  0
  -54.9550    1.4630   46.4340 O   0  0  0  0  0  0
  -56.1840    3.2510   43.2730 C   0  0  0  0  0  0
  -54.9170    3.1500   42.4100 C   0  0  0  0  0  0
  -53.8430    3.8430   43.2470 C   0  0  0  0  0  0
  -55.7420    0.5740   44.5400 N   0  0  0  0  0  0
  -55.2690   -0.8150   44.8080 C   0  0  2  0  0  0
  -55.0580   -1.6150   43.4670 C   0  0  0  0  0  0
  -55.3650   -1.1390   42.3680 O   0  0  0  0  0  0
  -56.2130   -1.5020   45.8520 C   0  0  0  0  0  0
  -57.6210   -1.9240   45.3580 C   0  0  0  0  0  0
  -58.3870   -2.7880   46.3900 C   0  0  0  0  0  0
  -59.5550   -3.6000   45.7920 C   0  0  0  0  0  0
  -59.0310   -4.7720   45.0380 N   0  3  0  0  0  0
  -54.5940   -2.8740   43.5610 N   0  0  0  0  0  0
  -54.6780   -3.8420   42.4270 C   0  0  2  0  0  0
  -56.1610   -4.2330   42.0310 C   0  0  0  0  0  0
  -56.9620   -4.4630   42.9490 O   0  0  0  0  0  0
  -53.8540   -5.0890   42.8240 C   0  0  0  0  0  0
  -53.7310   -5.9950   41.7260 O   0  0  0  0  0  0
  -56.5780   -4.3480   40.7320 N   0  0  0  0  0  0
  -58.0040   -4.6380   40.3610 C   0  0  2  0  0  0
  -58.5260   -6.1210   40.4840 C   0  0  0  0  0  0
  -59.2050   -6.6470   39.6000 O   0  0  0  0  0  0
  -58.0460   -4.0460   38.9350 C   0  0  0  0  0  0
  -56.6420   -4.2690   38.3750 C   0  0  0  0  0  0
  -55.7310   -4.0030   39.5710 C   0  0  0  0  0  0
  -58.2780   -6.7410   41.6420 N   0  0  0  0  0  0
  -59.1270   -7.8260   42.1920 C   0  0  2  0  0  0
  -59.6130   -7.3260   43.5820 C   0  0  0  0  0  0
  -58.9930   -7.6380   44.6260 O   0  0  0  0  0  0
  -58.3050   -9.1350   42.2330 C   0  0  0  0  0  0
  -58.9610  -10.0980   43.0560 O   0  0  0  0  0  0
  -60.5630   -6.5110   43.6430 O   0  0  0  0  0  0
  -40.5913    3.7384   62.7776 H   0  0  0  0  0  0
  -41.4039    5.3047   63.1139 H   0  0  0  0  0  0
  -40.7665    4.9582   61.4706 H   0  0  0  0  0  0
  -43.0300    3.5184   62.8843 H   0  0  0  0  0  0
  -43.5890    5.8446   62.1421 H   0  0  0  0  0  0
  -42.9755    5.4769   60.4944 H   0  0  0  0  0  0
  -45.1967    3.7262   61.4267 H   0  0  0  0  0  0
  -45.6004    5.4647   61.2235 H   0  0  0  0  0  0
  -44.8076    5.3827   58.8811 H   0  0  0  0  0  0
  -44.3790    3.6498   59.0809 H   0  0  0  0  0  0
  -46.7251    3.0543   59.4149 H   0  0  0  0  0  0
  -47.2069    4.7848   59.4065 H   0  0  0  0  0  0
  -47.6662    3.7142   57.2575 H   0  0  0  0  0  0
  -45.9341    3.2634   57.1053 H   0  0  0  0  0  0
  -46.4158    4.9939   57.0969 H   0  0  0  0  0  0
  -43.1263    1.3614   62.4013 H   0  0  0  0  0  0
  -41.9373    0.3520   59.8117 H   0  0  0  0  0  0
  -42.1365   -0.8514   61.9732 H   0  0  0  0  0  0
  -44.4908   -0.3982   62.6012 H   0  0  0  0  0  0
  -44.1161   -2.1549   62.6205 H   0  0  0  0  0  0
  -45.0503   -1.4508   61.2574 H   0  0  0  0  0  0
  -41.6678   -2.0727   59.8015 H   0  0  0  0  0  0
  -43.4245   -2.4142   59.6455 H   0  0  0  0  0  0
  -42.4902   -3.1183   61.0086 H   0  0  0  0  0  0
  -42.8502   -0.4426   57.8892 H   0  0  0  0  0  0
  -45.7630    0.2600   57.4703 H   0  0  0  0  0  0
  -44.2684    2.3989   57.0586 H   0  0  0  0  0  0
  -43.6203    1.5358   55.6228 H   0  0  0  0  0  0
  -45.5667    3.0290   54.9702 H   0  0  0  0  0  0
  -46.8265   -1.1461   56.0680 H   0  0  0  0  0  0
  -45.2499   -2.4808   53.8567 H   0  0  0  0  0  0
  -47.4027   -3.2003   54.8940 H   0  0  0  0  0  0
  -48.7163   -1.0934   54.8272 H   0  0  0  0  0  0
  -49.5947   -2.4593   54.0596 H   0  0  0  0  0  0
  -48.8062   -1.2105   53.0370 H   0  0  0  0  0  0
  -46.5670   -4.1806   52.7143 H   0  0  0  0  0  0
  -47.5693   -2.9865   51.8219 H   0  0  0  0  0  0
  -48.3577   -4.2353   52.8445 H   0  0  0  0  0  0
  -45.2570   -2.0990   51.5941 H   0  0  0  0  0  0
  -45.0276    0.8411   50.9288 H   0  0  0  0  0  0
  -44.9785   -1.5559   49.1190 H   0  0  0  0  0  0
  -45.2104    0.6204   47.8509 H   0  0  0  0  0  0
  -43.6409   -0.1775   47.4951 H   0  0  0  0  0  0
  -43.7034    1.2180   48.6245 H   0  0  0  0  0  0
  -43.1244   -1.6913   50.8229 H   0  0  0  0  0  0
  -42.5303   -0.0806   50.2942 H   0  0  0  0  0  0
  -42.4678   -1.4762   49.1649 H   0  0  0  0  0  0
  -46.5465    2.2008   50.1644 H   0  0  0  0  0  0
  -49.2986    0.9134   49.6577 H   0  0  0  0  0  0
  -49.0490    2.3987   51.6871 H   0  0  0  0  0  0
  -48.6508    3.7749   50.6036 H   0  0  0  0  0  0
  -50.9147    4.0191   51.3512 H   0  0  0  0  0  0
  -50.9607    3.5676   49.6132 H   0  0  0  0  0  0
  -51.2277    1.2672   51.4549 H   0  0  0  0  0  0
  -52.5287    2.4977   51.5953 H   0  0  0  0  0  0
  -53.0696    2.1870   49.1256 H   0  0  0  0  0  0
  -50.9675   -0.4289   50.6875 H   0  0  0  0  0  0
  -51.3889   -1.5882   49.2354 H   0  0  0  0  0  0
  -53.4234    0.7846   47.5766 H   0  0  0  0  0  0
  -49.2484    0.3811   47.5703 H   0  0  0  0  0  0
  -49.2391    2.3349   45.3921 H   0  0  0  0  0  0
  -49.4144    0.2299   44.6639 H   0  0  0  0  0  0
  -51.3376    1.3454   43.4860 H   0  0  0  0  0  0
  -52.4538    0.6575   44.7138 H   0  0  0  0  0  0
  -51.5423   -0.4344   43.6166 H   0  0  0  0  0  0
  -51.2447   -3.4319   46.9606 H   0  0  0  0  0  0
  -48.0890   -1.0185   47.6011 H   0  0  0  0  0  0
  -52.3317    5.2869   46.7561 H   0  0  0  0  0  0
  -52.8181    6.5474   44.2245 H   0  0  0  0  0  0
  -51.5427    7.0087   45.4023 H   0  0  0  0  0  0
  -51.3433    5.3045   42.9035 H   0  0  0  0  0  0
  -50.1608    6.4712   43.5870 H   0  0  0  0  0  0
  -49.3891    4.8957   45.2511 H   0  0  0  0  0  0
  -49.8172    3.7438   43.9410 H   0  0  0  0  0  0
  -56.4169    3.4542   45.4630 H   0  0  0  0  0  0
  -56.9023    2.4517   43.0382 H   0  0  0  0  0  0
  -56.6752    4.2291   43.1637 H   0  0  0  0  0  0
  -54.6811    2.0912   42.2276 H   0  0  0  0  0  0
  -55.0861    3.6587   41.4495 H   0  0  0  0  0  0
  -53.6578    4.8757   42.9166 H   0  0  0  0  0  0
  -52.8951    3.2850   43.2550 H   0  0  0  0  0  0
  -56.3846    0.7781   43.6709 H   0  0  0  0  0  0
  -54.2756   -0.7343   45.2734 H   0  0  0  0  0  0
  -55.7411   -2.4242   46.2219 H   0  0  0  0  0  0
  -56.3886   -0.8167   46.6943 H   0  0  0  0  0  0
  -58.2242   -1.0259   45.1591 H   0  0  0  0  0  0
  -57.5242   -2.5127   44.4339 H   0  0  0  0  0  0
  -57.6951   -3.5087   46.8503 H   0  0  0  0  0  0
  -58.8114   -2.1380   47.1694 H   0  0  0  0  0  0
  -60.2076   -3.9553   46.6031 H   0  0  0  0  0  0
  -60.1339   -2.9611   45.1089 H   0  0  0  0  0  0
  -59.8718   -5.3427   44.6167 H   0  0  0  0  0  0
  -58.4539   -5.4167   45.7172 H   0  0  0  0  0  0
  -58.3802   -4.4225   44.2230 H   0  0  0  0  0  0
  -54.1404   -3.1820   44.5146 H   0  0  0  0  0  0
  -54.2381   -3.3295   41.5588 H   0  0  0  0  0  0
  -52.8467   -4.7781   43.1382 H   0  0  0  0  0  0
  -54.3531   -5.6090   43.6550 H   0  0  0  0  0  0
  -53.1713   -6.9341   41.8478 H   0  0  0  0  0  0
  -58.6791   -4.1673   41.0909 H   0  0  0  0  0  0
  -58.8087   -4.5720   38.3420 H   0  0  0  0  0  0
  -58.2971   -2.9764   38.9893 H   0  0  0  0  0  0
  -56.5545   -5.3012   38.0050 H   0  0  0  0  0  0
  -56.4612   -3.5665   37.5481 H   0  0  0  0  0  0
  -55.4269   -2.9481   39.6396 H   0  0  0  0  0  0
  -54.8363   -4.6430   39.5667 H   0  0  0  0  0  0
  -57.3878   -6.4056   42.1944 H   0  0  0  0  0  0
  -59.9947   -8.0281   41.5469 H   0  0  0  0  0  0
  -59.3462   -7.2784   45.6037 H   0  0  0  0  0  0
  -58.2056   -9.5376   41.2142 H   0  0  0  0  0  0
  -57.3061   -8.9280   42.6445 H   0  0  0  0  0  0
  -58.5153  -11.0933   43.2000 H   0  0  0  0  0  0
  1  2  1  0  0  0
  1102  1  0  0  0
  1103  1  0  0  0
  1104  1  0  0  0
  2  3  1  0  0  0
  2  5  1  0  0  0
  2105  1  0  0  0
  3  4  2  0  0  0
  3 10  1  0  0  0
  5  6  1  0  0  0
  5106  1  0  0  0
  5107  1  0  0  0
  6  7  1  0  0  0
  6108  1  0  0  0
  6109  1  0  0  0
  7  8  1  0  0  0
  7110  1  0  0  0
  7111  1  0  0  0
  8  9  1  0  0  0
  8112  1  0  0  0
  8113  1  0  0  0
  9114  1  0  0  0
  9115  1  0  0  0
  9116  1  0  0  0
 10 11  1  0  0  0
 10117  1  0  0  0
 11 12  1  0  0  0
 11 14  1  0  0  0
 11118  1  0  0  0
 12 13  2  0  0  0
 12 17  1  0  0  0
 14 15  1  0  0  0
 14 16  1  0  0  0
 14119  1  0  0  0
 15120  1  0  0  0
 15121  1  0  0  0
 15122  1  0  0  0
 16123  1  0  0  0
 16124  1  0  0  0
 16125  1  0  0  0
 17 18  1  0  0  0
 17126  1  0  0  0
 18 19  1  0  0  0
 18 21  1  0  0  0
 18127  1  0  0  0
 19 20  2  0  0  0
 19 23  1  0  0  0
 21 22  1  0  0  0
 21128  1  0  0  0
 21129  1  0  0  0
 22130  1  0  0  0
 23 24  1  0  0  0
 23131  1  0  0  0
 24 25  1  0  0  0
 24 27  1  0  0  0
 24132  1  0  0  0
 25 26  2  0  0  0
 25 30  1  0  0  0
 27 28  1  0  0  0
 27 29  1  0  0  0
 27133  1  0  0  0
 28134  1  0  0  0
 28135  1  0  0  0
 28136  1  0  0  0
 29137  1  0  0  0
 29138  1  0  0  0
 29139  1  0  0  0
 30 31  1  0  0  0
 30140  1  0  0  0
 31 32  1  0  0  0
 31 34  1  0  0  0
 31141  1  0  0  0
 32 33  2  0  0  0
 32 37  1  0  0  0
 34 35  1  0  0  0
 34 36  1  0  0  0
 34142  1  0  0  0
 35143  1  0  0  0
 35144  1  0  0  0
 35145  1  0  0  0
 36146  1  0  0  0
 36147  1  0  0  0
 36148  1  0  0  0
 37 38  1  0  0  0
 37149  1  0  0  0
 38 39  1  0  0  0
 38 41  1  0  0  0
 38150  1  0  0  0
 39 40  2  0  0  0
 39 48  1  0  0  0
 41 42  1  0  0  0
 41151  1  0  0  0
 41152  1  0  0  0
 42 43  1  0  0  0
 42153  1  0  0  0
 42154  1  0  0  0
 43 44  1  0  0  0
 43155  1  0  0  0
 43156  1  0  0  0
 44 45  1  0  0  0
 44157  1  0  0  0
 45 46  1  0  0  0
 45 47  2  0  0  0
 46158  1  0  0  0
 46159  1  0  0  0
 47160  1  0  0  0
 48 49  1  0  0  0
 48161  1  0  0  0
 49 50  1  0  0  0
 49 57  1  0  0  0
 49162  1  0  0  0
 50 51  1  0  0  0
 50 52  1  0  0  0
 50163  1  0  0  0
 51164  1  0  0  0
 51165  1  0  0  0
 51166  1  0  0  0
 52 53  1  0  0  0
 53 54  1  0  0  0
 53 55  2  0  0  0
 53 56  1  0  0  0
 54167  1  0  0  0
 56168  1  0  0  0
 57 58  2  0  0  0
 57 59  1  0  0  0
 59 60  1  0  0  0
 59 65  1  0  0  0
 60 61  1  0  0  0
 60 63  1  0  0  0
 60169  1  0  0  0
 61 62  2  0  0  0
 61 66  1  0  0  0
 63 64  1  0  0  0
 63170  1  0  0  0
 63171  1  0  0  0
 64 65  1  0  0  0
 64172  1  0  0  0
 64173  1  0  0  0
 65174  1  0  0  0
 65175  1  0  0  0
 66 67  1  0  0  0
 66 72  1  0  0  0
 67 68  1  0  0  0
 67 70  1  0  0  0
 67176  1  0  0  0
 68 69  2  0  0  0
 68 73  1  0  0  0
 70 71  1  0  0  0
 70177  1  0  0  0
 70178  1  0  0  0
 71 72  1  0  0  0
 71179  1  0  0  0
 71180  1  0  0  0
 72181  1  0  0  0
 72182  1  0  0  0
 73 74  1  0  0  0
 73183  1  0  0  0
 74 75  1  0  0  0
 74 77  1  0  0  0
 74184  1  0  0  0
 75 76  2  0  0  0
 75 82  1  0  0  0
 77 78  1  0  0  0
 77185  1  0  0  0
 77186  1  0  0  0
 78 79  1  0  0  0
 78187  1  0  0  0
 78188  1  0  0  0
 79 80  1  0  0  0
 79189  1  0  0  0
 79190  1  0  0  0
 80 81  1  0  0  0
 80191  1  0  0  0
 80192  1  0  0  0
 81193  1  0  0  0
 81194  1  0  0  0
 81195  1  0  0  0
 82 83  1  0  0  0
 82196  1  0  0  0
 83 84  1  0  0  0
 83 86  1  0  0  0
 83197  1  0  0  0
 84 85  2  0  0  0
 84 88  1  0  0  0
 86 87  1  0  0  0
 86198  1  0  0  0
 86199  1  0  0  0
 87200  1  0  0  0
 88 89  1  0  0  0
 88 94  1  0  0  0
 89 90  1  0  0  0
 89 92  1  0  0  0
 89201  1  0  0  0
 90 91  2  0  0  0
 90 95  1  0  0  0
 92 93  1  0  0  0
 92202  1  0  0  0
 92203  1  0  0  0
 93 94  1  0  0  0
 93204  1  0  0  0
 93205  1  0  0  0
 94206  1  0  0  0
 94207  1  0  0  0
 95 96  1  0  0  0
 95208  1  0  0  0
 96 97  1  0  0  0
 96 99  1  0  0  0
 96209  1  0  0  0
 97 98  1  0  0  0
 97101  2  0  0  0
 98210  1  0  0  0
 99100  1  0  0  0
 99211  1  0  0  0
 99212  1  0  0  0
100213  1  0  0  0
M  CHG  3   1   1   9   1  81   1
M  END
> <s_m_source_file>
../1i8h_ligand.sdf

> <i_m_source_file_index>
1

> <s_epik_input>
W05IMytdW0NIMl1bQ0gyXVtDSDJdW0NIMl1bQ0BIXShbTkgzK10pQyg9TylbTkhdW0NAQEhdKFtDSF0oW0NIM10pW0NIM10pQyg9TylbTkhdW0NAQEhdKFtDSDJdW09IXSlDKD1PKVtOSF1bQ0BASF0oW0NIXShbQ0gzXSlbQ0gzXSlDKD1PKVtOSF1bQ0BASF0oW0NIXShbQ0gzXSlbQ0gzXSlDKD1PKVtOSF1bQ0BASF0oW0NIMl1bQ0gyXVtDSDJdW05IXS9DKFtOSDJdKT1OXFtIXSlDKD1PKVtOSF1bQ0BASF0oW0NASF0oW0NIM10pT1AoPU8pKFtPSF0pW09IXSlDKD1PKU4xW0NAQEhdKFtDSDJdW0NIMl1bQ0gyXTEpQyg9TylOMltDQEBIXShbQ0gyXVtDSDJdW0NIMl0yKUMoPU8pW05IXVtDQEBIXShbQ0gyXVtDSDJdW0NIMl1bQ0gyXVtOSDMrXSlDKD1PKVtOSF1bQ0BASF0oW0NIMl1bT0hdKUMoPU8pTjNbQ0BASF0oW0NIMl1bQ0gyXVtDSDJdMylDKD1PKVtOSF1bQ0BIXShDKD1PKVtPSF0pW0NIMl1bT0hd

> <s_epik_cmdline>
J2VwaWtfYXBwJywgJy1pbWFlJywgJ2xpZ2FuZF9wcm8ubWFlJywgJy1vbWFlJywgJ2xpZ2FuZF9wcmVwLm1hZScsICctbXMnLCAnMScsICctcGgnLCAnNycsICctcGh0JywgJzAuNScsICctbnQn

> <s_epik_pKa_notes>
Molecule size exceeds maximum supported for generating protonation states

> <s_epik_Chemistry_Notes>
This compound has an imine and may undergo hydrolysis.

$$$$
