1i8i_ligand
                    3D
 Schrodinger Suite 2020-3.
141142  0  0  1  0            999 V2000
    4.1840    8.0070   21.9610 N   0  3  0  0  0  0
    3.7140    8.0240   20.5780 C   0  0  2  0  0  0
    4.0780    6.7130   19.8670 C   0  0  0  0  0  0
    4.0260    5.6980   20.5780 O   0  0  0  0  0  0
    4.3270    9.2180   19.8710 C   0  0  0  0  0  0
    3.4100   10.3800   19.6200 C   0  0  0  0  0  0
    2.9550   10.9640   20.9080 C   0  0  0  0  0  0
    1.8570   11.8790   20.5000 C   0  0  0  0  0  0
    0.9740   12.2240   21.5920 N   0  3  0  0  0  0
    4.4340    6.6610   18.5620 N   0  0  0  0  0  0
    4.7800    5.4460   17.8170 C   0  0  0  0  0  0
    6.0720    4.8540   18.3490 C   0  0  0  0  0  0
    7.2000    4.9890   17.8790 O   0  0  0  0  0  0
    5.7810    4.1240   19.3890 N   0  0  0  0  0  0
    6.7850    3.6060   20.2850 C   0  0  2  0  0  0
    8.1130    4.3310   20.4410 C   0  0  0  0  0  0
    9.1370    4.1080   19.8120 O   0  0  0  0  0  0
    7.1810    2.1180   20.0240 C   0  0  0  0  0  0
    7.9770    1.6200   21.2480 C   0  0  0  0  0  0
    9.2010    1.4930   21.2470 O   0  0  0  0  0  0
    7.3320    1.3890   22.3910 N   0  0  0  0  0  0
    7.9230    5.2750   21.3190 N   0  0  0  0  0  0
    9.0070    5.7830   22.0980 C   0  0  2  0  0  0
    8.2950    5.8840   23.4430 C   0  0  0  0  0  0
    7.0740    6.0730   23.4070 O   0  0  0  0  0  0
    9.4790    7.1190   21.6000 C   0  0  0  0  0  0
    8.5540    8.3050   21.4160 C   0  0  0  0  0  0
    8.0810    9.0020   22.5220 C   0  0  0  0  0  0
    8.3170    8.8030   20.1290 C   0  0  0  0  0  0
    7.3960   10.2090   22.3620 C   0  0  0  0  0  0
    7.6470   10.0180   19.9630 C   0  0  0  0  0  0
    7.1990   10.7200   21.0900 C   0  0  0  0  0  0
    6.6460   11.9790   20.9780 O   0  0  0  0  0  0
    8.8720    5.6840   24.6300 N   0  0  0  0  0  0
    8.1100    5.9120   25.8240 C   0  0  2  0  0  0
    8.6090    7.2090   26.4610 C   0  0  0  0  0  0
    9.8000    7.5400   26.2980 O   0  0  0  0  0  0
    8.1940    4.6260   26.7940 C   0  0  0  0  0  0
    8.6630    3.3910   26.0150 C   0  0  0  0  0  0
    8.9990    4.8930   27.9880 C   0  0  0  0  0  0
    7.7530    8.0640   27.0780 N   0  0  0  0  0  0
    8.3350    9.1590   27.8330 C   0  0  2  0  0  0
    8.0400    8.9310   29.2810 C   0  0  0  0  0  0
    8.9070    9.2810   30.0890 O   0  0  0  0  0  0
    7.8870   10.6520   27.3610 C   0  0  0  0  0  0
    7.0200   10.4900   26.1430 C   0  0  0  0  0  0
    7.3950   11.5300   28.5210 C   0  0  0  0  0  0
    6.9150    8.3250   29.6840 N   0  0  0  0  0  0
    6.7530    8.0500   31.1150 C   0  0  2  0  0  0
    7.0350    6.5780   31.3870 C   0  0  0  0  0  0
    6.5360    5.6790   30.7030 O   0  0  0  0  0  0
    5.3290    8.4620   31.5630 C   0  0  2  0  0  0
    5.2200    9.8390   31.1950 O   0  0  0  0  0  0
    5.0880    8.4220   33.0560 C   0  0  0  0  0  0
    7.9670    6.3250   32.2900 N   0  0  0  0  0  0
    8.2540    4.9720   32.7050 C   0  0  2  0  0  0
    7.2050    4.5090   33.7170 C   0  0  0  0  0  0
    7.3790    4.6560   34.9320 O   0  0  0  0  0  0
    9.6620    4.9190   33.3140 C   0  0  0  0  0  0
   10.7340    5.1690   32.2600 C   0  0  0  0  0  0
   10.6630    4.5700   31.1820 O   0  5  0  0  0  0
   11.6260    5.9830   32.5100 O   0  0  0  0  0  0
    6.1950    3.8300   33.1420 N   0  0  0  0  0  0
    4.9410    3.2760   33.6840 C   0  0  2  0  0  0
    4.0120    4.4740   33.7300 C   0  0  0  0  0  0
    3.9910    5.2030   34.7270 O   0  5  0  0  0  0
    5.0680    2.6860   35.0870 C   0  0  0  0  0  0
    6.2350    1.7390   35.0740 C   0  0  0  0  0  0
    7.3740    2.0120   35.6870 N   0  0  0  0  0  0
    6.3560    0.5580   34.3900 C   0  0  0  0  0  0
    8.2010    1.0430   35.4040 C   0  0  0  0  0  0
    7.5860    0.1750   34.6270 N   0  0  0  0  0  0
    3.4070    4.7270   32.6870 O   0  0  0  0  0  0
    3.7467    7.1451   22.4863 H   0  0  0  0  0  0
    3.8782    8.9365   22.4636 H   0  0  0  0  0  0
    5.2810    7.9266   21.9745 H   0  0  0  0  0  0
    2.6190    8.1254   20.6045 H   0  0  0  0  0  0
    5.1598    9.6121   20.4719 H   0  0  0  0  0  0
    4.7015    8.9074   18.8844 H   0  0  0  0  0  0
    3.9438   11.1507   19.0445 H   0  0  0  0  0  0
    2.5331   10.0387   19.0504 H   0  0  0  0  0  0
    2.6066   10.1596   21.5725 H   0  0  0  0  0  0
    3.7909   11.4970   21.3846 H   0  0  0  0  0  0
    2.2850   12.8136   20.1084 H   0  0  0  0  0  0
    1.2501   11.3980   19.7188 H   0  0  0  0  0  0
    0.1866   12.9000   21.2273 H   0  0  0  0  0  0
    1.5493   12.7250   22.3845 H   0  0  0  0  0  0
    0.5144   11.3094   21.9949 H   0  0  0  0  0  0
    4.4512    7.6387   18.0582 H   0  0  0  0  0  0
    3.9733    4.7063   17.9270 H   0  0  0  0  0  0
    4.9088    5.6926   16.7528 H   0  0  0  0  0  0
    4.7178    3.9074   19.5700 H   0  0  0  0  0  0
    6.1550    3.8204   21.1609 H   0  0  0  0  0  0
    6.2711    1.5147   19.8893 H   0  0  0  0  0  0
    7.7992    2.0569   19.1162 H   0  0  0  0  0  0
    6.2377    1.4912   22.4354 H   0  0  0  0  0  0
    7.8939    1.0961   23.2901 H   0  0  0  0  0  0
    6.9098    5.6809   21.4558 H   0  0  0  0  0  0
    9.9067    5.1517   22.0518 H   0  0  0  0  0  0
   10.2398    7.5184   22.2868 H   0  0  0  0  0  0
    9.9153    7.0032   20.5969 H   0  0  0  0  0  0
    8.2461    8.6032   23.5229 H   0  0  0  0  0  0
    8.6550    8.2432   19.2570 H   0  0  0  0  0  0
    7.0189   10.7452   23.2329 H   0  0  0  0  0  0
    7.4740   10.4170   18.9635 H   0  0  0  0  0  0
    6.3014   12.5104   21.8774 H   0  0  0  0  0  0
    9.9173    5.3489   24.7003 H   0  0  0  0  0  0
    7.0707    6.0797   25.5049 H   0  0  0  0  0  0
    7.2251    4.3671   27.2459 H   0  0  0  0  0  0
    8.0198    3.2469   25.1344 H   0  0  0  0  0  0
    8.6020    2.5040   26.6627 H   0  0  0  0  0  0
    9.7035    3.5363   25.6892 H   0  0  0  0  0  0
    8.6121    5.7872   28.4986 H   0  0  0  0  0  0
   10.0455    5.0623   27.6943 H   0  0  0  0  0  0
    8.9440    4.0300   28.6678 H   0  0  0  0  0  0
    6.6599    7.9534   27.0234 H   0  0  0  0  0  0
    9.4114    9.0209   27.6535 H   0  0  0  0  0  0
    8.6780   11.3266   27.0015 H   0  0  0  0  0  0
    7.5243    9.8335   25.4187 H   0  0  0  0  0  0
    6.8437   11.4744   25.6849 H   0  0  0  0  0  0
    6.0579   10.0436   26.4346 H   0  0  0  0  0  0
    8.1489   11.5356   29.3220 H   0  0  0  0  0  0
    6.4489   11.1262   28.9108 H   0  0  0  0  0  0
    7.2348   12.5570   28.1611 H   0  0  0  0  0  0
    6.1252    8.0351   28.9754 H   0  0  0  0  0  0
    7.5001    8.6484   31.6570 H   0  0  0  0  0  0
    4.5769    7.8142   31.0889 H   0  0  0  0  0  0
    5.3557   10.1403   30.1458 H   0  0  0  0  0  0
    5.1575    7.3831   33.4109 H   0  0  0  0  0  0
    4.0859    8.8185   33.2764 H   0  0  0  0  0  0
    5.8454    9.0352   33.5662 H   0  0  0  0  0  0
    8.5275    7.1648   32.7265 H   0  0  0  0  0  0
    8.2001    4.3456   31.8024 H   0  0  0  0  0  0
    9.7533    5.6892   34.0940 H   0  0  0  0  0  0
    9.8329    3.9267   33.7568 H   0  0  0  0  0  0
    6.4320    3.7125   32.0743 H   0  0  0  0  0  0
    4.6185    2.4470   33.0369 H   0  0  0  0  0  0
    4.4913    2.8356   36.0117 H   0  0  0  0  0  0
    5.7006   -0.0578   33.7565 H   0  0  0  0  0  0
    9.2307    0.9648   35.7529 H   0  0  0  0  0  0
    7.4673    2.9253   36.2930 H   0  0  0  0  0  0
  1  2  1  0  0  0
  1 74  1  0  0  0
  1 75  1  0  0  0
  1 76  1  0  0  0
  2  3  1  0  0  0
  2  5  1  0  0  0
  2 77  1  0  0  0
  3  4  2  0  0  0
  3 10  1  0  0  0
  5  6  1  0  0  0
  5 78  1  0  0  0
  5 79  1  0  0  0
  6  7  1  0  0  0
  6 80  1  0  0  0
  6 81  1  0  0  0
  7  8  1  0  0  0
  7 82  1  0  0  0
  7 83  1  0  0  0
  8  9  1  0  0  0
  8 84  1  0  0  0
  8 85  1  0  0  0
  9 86  1  0  0  0
  9 87  1  0  0  0
  9 88  1  0  0  0
 10 11  1  0  0  0
 10 89  1  0  0  0
 11 12  1  0  0  0
 11 90  1  0  0  0
 11 91  1  0  0  0
 12 13  2  0  0  0
 12 14  1  0  0  0
 14 15  1  0  0  0
 14 92  1  0  0  0
 15 16  1  0  0  0
 15 18  1  0  0  0
 15 93  1  0  0  0
 16 17  2  0  0  0
 16 22  1  0  0  0
 18 19  1  0  0  0
 18 94  1  0  0  0
 18 95  1  0  0  0
 19 20  2  0  0  0
 19 21  1  0  0  0
 21 96  1  0  0  0
 21 97  1  0  0  0
 22 23  1  0  0  0
 22 98  1  0  0  0
 23 24  1  0  0  0
 23 26  1  0  0  0
 23 99  1  0  0  0
 24 25  2  0  0  0
 24 34  1  0  0  0
 26 27  1  0  0  0
 26100  1  0  0  0
 26101  1  0  0  0
 27 28  2  0  0  0
 27 29  1  0  0  0
 28 30  1  0  0  0
 28102  1  0  0  0
 29 31  2  0  0  0
 29103  1  0  0  0
 30 32  2  0  0  0
 30104  1  0  0  0
 31 32  1  0  0  0
 31105  1  0  0  0
 32 33  1  0  0  0
 33106  1  0  0  0
 34 35  1  0  0  0
 34107  1  0  0  0
 35 36  1  0  0  0
 35 38  1  0  0  0
 35108  1  0  0  0
 36 37  2  0  0  0
 36 41  1  0  0  0
 38 39  1  0  0  0
 38 40  1  0  0  0
 38109  1  0  0  0
 39110  1  0  0  0
 39111  1  0  0  0
 39112  1  0  0  0
 40113  1  0  0  0
 40114  1  0  0  0
 40115  1  0  0  0
 41 42  1  0  0  0
 41116  1  0  0  0
 42 43  1  0  0  0
 42 45  1  0  0  0
 42117  1  0  0  0
 43 44  2  0  0  0
 43 48  1  0  0  0
 45 46  1  0  0  0
 45 47  1  0  0  0
 45118  1  0  0  0
 46119  1  0  0  0
 46120  1  0  0  0
 46121  1  0  0  0
 47122  1  0  0  0
 47123  1  0  0  0
 47124  1  0  0  0
 48 49  1  0  0  0
 48125  1  0  0  0
 49 50  1  0  0  0
 49 52  1  0  0  0
 49126  1  0  0  0
 50 51  2  0  0  0
 50 55  1  0  0  0
 52 53  1  0  0  0
 52 54  1  0  0  0
 52127  1  0  0  0
 53128  1  0  0  0
 54129  1  0  0  0
 54130  1  0  0  0
 54131  1  0  0  0
 55 56  1  0  0  0
 55132  1  0  0  0
 56 57  1  0  0  0
 56 59  1  0  0  0
 56133  1  0  0  0
 57 58  2  0  0  0
 57 63  1  0  0  0
 59 60  1  0  0  0
 59134  1  0  0  0
 59135  1  0  0  0
 60 61  1  0  0  0
 60 62  2  0  0  0
 63 64  1  0  0  0
 63136  1  0  0  0
 64 65  1  0  0  0
 64 67  1  0  0  0
 64137  1  0  0  0
 65 66  1  0  0  0
 65 73  2  0  0  0
 67 68  2  0  0  0
 67138  1  0  0  0
 68 69  1  0  0  0
 68 70  1  0  0  0
 69 71  1  0  0  0
 69141  1  0  0  0
 70 72  2  0  0  0
 70139  1  0  0  0
 71 72  1  0  0  0
 71140  1  0  0  0
M  CHG  4   1   1   9   1  61  -1  66  -1
M  END
> <s_m_source_file>
../1i8i_ligand.sdf

> <i_m_source_file_index>
1

> <s_epik_input>
W05IMytdW0NIMl1bQ0gyXVtDSDJdW0NIMl1bQ0BIXShbTkgzK10pQyg9TylbTkhdW0NIMl1DKD1PKVtOSF1bQ0BASF0oW0NIMl1DKD1PKVtOSDJdKUMoPU8pW05IXVtDQEBIXShbQ0gyXWMxW2NIXVtjSF1jKFtPSF0pW2NIXVtjSF0xKUMoPU8pW05IXVtDQEBIXShbQ0hdKFtDSDNdKVtDSDNdKUMoPU8pW05IXVtDQEBIXShbQ0hdKFtDSDNdKVtDSDNdKUMoPU8pW05IXVtDQEBIXShbQ0BIXShbT0hdKVtDSDNdKUMoPU8pW05IXVtDQEBIXShbQ0gyXUMoPU8pW09IXSlDKD1PKVtOSF1bQ0BIXShDKD1PKVtPSF0pW0NIMl1DMj1OW0NIMl1OPVtDSF0y

> <s_epik_cmdline>
J2VwaWtfYXBwJywgJy1pbWFlJywgJ2xpZ2FuZF9wcm8ubWFlJywgJy1vbWFlJywgJ2xpZ2FuZF9wcmVwLm1hZScsICctbXMnLCAnMScsICctcGgnLCAnNycsICctcGh0JywgJzAuNScsICctbnQn

> <r_epik_Ionization_Penalty>
  0.1238

> <r_epik_Ionization_Penalty_Charging>
  0.1229

> <r_epik_Ionization_Penalty_Neutral>
  0.0009

> <r_epik_State_Penalty>
  0.1103

> <r_epik_Charging_Adjusted_Penalty>
0.233182436550133

> <i_epik_Tot_Q>
0

> <i_epik_Tot_abs_Q>
4

> <s_epik_Chemistry_Notes>
This compound has an imine and may undergo hydrolysis.

$$$$
