1i8j_ligand
                    3D
 Schrodinger Suite 2020-3.
 30 29  0  0  1  0            999 V2000
   21.0900   91.0970   49.0530 C   0  0  0  0  0  0
   22.1830   90.9440   48.4620 O   0  0  0  0  0  0
   20.8720   90.2110   50.2440 C   0  0  0  0  0  0
   19.4260   90.2940   50.6570 C   0  0  0  0  0  0
   19.4090   89.3190   53.0310 C   0  0  0  0  0  0
   20.1800   91.9210   48.7380 O   0  5  0  0  0  0
   19.1040   88.1300   53.8630 C   0  0  0  0  0  0
   21.2680   87.0130   52.8070 C   0  0  0  0  0  0
   22.1730   88.0670   53.4550 C   0  0  0  0  0  0
   23.6270   87.6400   53.4910 C   0  0  0  0  0  0
   23.8890   86.4150   53.4100 O   0  5  0  0  0  0
   24.4650   88.5480   53.6370 O   0  0  0  0  0  0
   19.9240   86.9150   53.4810 C   0  0  0  0  0  0
   19.0370   89.1560   51.5690 C   0  0  0  0  0  0
   21.1239   89.1733   49.9800 H   0  0  0  0  0  0
   21.5145   90.5450   51.0720 H   0  0  0  0  0  0
   19.2509   91.2396   51.1910 H   0  0  0  0  0  0
   18.7864   90.2539   49.7629 H   0  0  0  0  0  0
   18.8528   90.1872   53.4143 H   0  0  0  0  0  0
   20.4882   89.5279   53.0717 H   0  0  0  0  0  0
   19.3148   88.3572   54.9184 H   0  0  0  0  0  0
   18.0422   87.8658   53.7498 H   0  0  0  0  0  0
   21.0998   87.2731   51.7515 H   0  0  0  0  0  0
   21.7511   86.0267   52.8691 H   0  0  0  0  0  0
   22.1095   89.0054   52.8846 H   0  0  0  0  0  0
   21.8463   88.2444   54.4903 H   0  0  0  0  0  0
   20.1547   86.3298   54.3834 H   0  0  0  0  0  0
   19.3518   86.2930   52.7770 H   0  0  0  0  0  0
   17.9453   89.0232   51.5444 H   0  0  0  0  0  0
   19.5266   88.2310   51.2304 H   0  0  0  0  0  0
  1  2  2  0  0  0
  1  3  1  0  0  0
  1  6  1  0  0  0
  3  4  1  0  0  0
  3 15  1  0  0  0
  3 16  1  0  0  0
  4 14  1  0  0  0
  4 17  1  0  0  0
  4 18  1  0  0  0
  5  7  1  0  0  0
  5 14  1  0  0  0
  5 19  1  0  0  0
  5 20  1  0  0  0
  7 13  1  0  0  0
  7 21  1  0  0  0
  7 22  1  0  0  0
  8  9  1  0  0  0
  8 13  1  0  0  0
  8 23  1  0  0  0
  8 24  1  0  0  0
  9 10  1  0  0  0
  9 25  1  0  0  0
  9 26  1  0  0  0
 10 11  1  0  0  0
 10 12  2  0  0  0
 13 27  1  0  0  0
 13 28  1  0  0  0
 14 29  1  0  0  0
 14 30  1  0  0  0
M  CHG  2   6  -1  11  -1
M  END
> <s_m_source_file>
../1i8j_ligand.sdf

> <i_m_source_file_index>
1

> <s_epik_input>
Tz1DKFtPSF0pW0NIMl1bQ0gyXVtDSDJdW0NIMl1bQ0gyXVtDSDJdW0NIMl1bQ0gyXUMoPU8pW09IXQ==

> <s_epik_cmdline>
J2VwaWtfYXBwJywgJy1pbWFlJywgJ2xpZ2FuZF9wcm8ubWFlJywgJy1vbWFlJywgJ2xpZ2FuZF9wcmVwLm1hZScsICctbXMnLCAnMScsICctcGgnLCAnNycsICctcGh0JywgJzAuNScsICctbnQn

> <r_epik_Ionization_Penalty>
  0.0097

> <r_epik_Ionization_Penalty_Charging>
  0.0097

> <r_epik_Ionization_Penalty_Neutral>
  0.0000

> <r_epik_State_Penalty>
  0.0074

> <r_epik_Charging_Adjusted_Penalty>
0.0170603881542268

> <i_epik_Tot_Q>
-2

> <i_epik_Tot_abs_Q>
2

$$$$
