1i8z_ligand
                    3D
 Schrodinger Suite 2020-3.
 53 56  0  0  1  0            999 V2000
   -5.9430    0.6900   16.7430 S   0  0  0  0  0  0
   -5.4330    0.7710   18.0390 O   0  0  0  0  0  0
   -7.3270    0.7100   16.7950 O   0  0  0  0  0  0
   -5.4450   -0.5330   16.1380 N   0  0  0  0  0  0
   -5.4080    1.9220   15.8850 C   0  0  0  0  0  0
   -4.0990    1.9930   15.3380 C   0  0  0  0  0  0
   -3.9320    3.2050   14.5940 C   0  0  0  0  0  0
   -5.1610    3.9930   14.6270 C   0  0  0  0  0  0
   -6.1140    3.1920   15.4520 S   0  0  0  0  0  0
   -2.7850    3.7620   13.8900 C   0  0  0  0  0  0
   -2.7680    5.0980   13.1030 C   0  0  3  0  0  0
   -4.1030    5.8440   13.1700 N   0  0  0  0  0  0
   -5.1930    5.3870   14.0850 S   0  0  0  0  0  0
   -5.0530    6.2980   15.1230 O   0  0  0  0  0  0
   -6.4060    5.5890   13.4820 O   0  0  0  0  0  0
   -1.6680    5.6690   12.2600 C   0  0  0  0  0  0
   -0.9650    8.2270   12.2380 C   0  0  0  0  0  0
   -1.3190    9.6400   12.7770 C   0  0  0  0  0  0
   -1.2940    9.6780   14.3340 O   0  0  0  0  0  0
   -2.1370    8.5850   14.9930 C   0  0  0  0  0  0
   -1.8700    7.1860   14.4570 C   0  0  0  0  0  0
   -1.8960    7.1600   12.8610 N   0  0  0  0  0  0
   -5.2900    7.1760   11.4220 C   0  0  0  0  0  0
   -4.5910    5.9900   11.8120 C   0  0  0  0  0  0
   -4.4490    4.9060   10.8600 C   0  0  0  0  0  0
   -4.9800    4.9620    9.4990 C   0  0  0  0  0  0
   -5.6710    6.2500    9.2340 C   0  0  0  0  0  0
   -5.9010    7.3800   10.1620 C   0  0  0  0  0  0
   -6.6000    8.4870    9.8150 O   0  0  0  0  0  0
   -6.5270    9.9610   10.5910 C   0  0  0  0  0  0
   -5.8022   -1.3991   16.7145 H   0  0  0  0  0  0
   -4.3451   -0.5207   16.1383 H   0  0  0  0  0  0
   -3.3296    1.2317   15.4666 H   0  0  0  0  0  0
   -1.9641    3.9307   14.6024 H   0  0  0  0  0  0
   -2.4558    3.0585   13.1111 H   0  0  0  0  0  0
   -1.6722    5.1806   13.0552 H   0  0  0  0  0  0
   -0.7204    5.1666   12.5043 H   0  0  0  0  0  0
   -1.9023    5.5129   11.1966 H   0  0  0  0  0  0
    0.0795    7.9978   12.4958 H   0  0  0  0  0  0
   -1.0822    8.2223   11.1443 H   0  0  0  0  0  0
   -0.5887   10.3703   12.3986 H   0  0  0  0  0  0
   -2.3271    9.9200   12.4375 H   0  0  0  0  0  0
   -1.9292    8.5628   16.0730 H   0  0  0  0  0  0
   -3.2041    8.7961   14.8292 H   0  0  0  0  0  0
   -0.8802    6.8463   14.7959 H   0  0  0  0  0  0
   -2.6418    6.4968   14.8303 H   0  0  0  0  0  0
   -5.3570    7.9837   12.1508 H   0  0  0  0  0  0
   -3.9208    4.0057   11.1741 H   0  0  0  0  0  0
   -4.8811    4.1584    8.7693 H   0  0  0  0  0  0
   -6.0595    6.3800    8.2239 H   0  0  0  0  0  0
   -7.2008   10.6724   10.0910 H   0  0  0  0  0  0
   -5.4965   10.3441   10.5542 H   0  0  0  0  0  0
   -6.8355    9.8389   11.6398 H   0  0  0  0  0  0
  1  5  1  0  0  0
  1  4  1  0  0  0
  1  3  2  0  0  0
  1  2  2  0  0  0
  4 31  1  0  0  0
  4 32  1  0  0  0
  5  9  1  0  0  0
  5  6  2  0  0  0
  6  7  1  0  0  0
  6 33  1  0  0  0
  7 10  1  0  0  0
  7  8  2  0  0  0
  8 13  1  0  0  0
  8  9  1  0  0  0
 10 11  1  0  0  0
 10 34  1  0  0  0
 10 35  1  0  0  0
 11 12  1  0  0  0
 11 16  1  0  0  0
 11 36  1  0  0  0
 12 13  1  0  0  0
 12 24  1  0  0  0
 13 15  2  0  0  0
 13 14  2  0  0  0
 16 22  1  0  0  0
 16 37  1  0  0  0
 16 38  1  0  0  0
 17 22  1  0  0  0
 17 18  1  0  0  0
 17 39  1  0  0  0
 17 40  1  0  0  0
 18 19  1  0  0  0
 18 41  1  0  0  0
 18 42  1  0  0  0
 19 20  1  0  0  0
 20 21  1  0  0  0
 20 43  1  0  0  0
 20 44  1  0  0  0
 21 22  1  0  0  0
 21 45  1  0  0  0
 21 46  1  0  0  0
 23 24  2  0  0  0
 23 28  1  0  0  0
 23 47  1  0  0  0
 24 25  1  0  0  0
 25 26  2  0  0  0
 25 48  1  0  0  0
 26 27  1  0  0  0
 26 49  1  0  0  0
 27 28  2  0  0  0
 27 50  1  0  0  0
 28 29  1  0  0  0
 29 30  1  0  0  0
 30 51  1  0  0  0
 30 52  1  0  0  0
 30 53  1  0  0  0
M  END
> <s_m_source_file>
../1i8z_ligand.sdf

> <i_m_source_file_index>
1

> <s_epik_input>
Tz1TKD1PKShbTkgyXSljKFtjSF0xKXNjKGMxMilTKD1PKSg9TylOKGMzW2NIXWMoT1tDSDNdKVtjSF1bY0hdW2NIXTMpW0NIXShbQ0gyXTIpW0NIMl1bTkgrXTRbQ0gyXVtDSDJdT1tDSDJdW0NIMl00

> <s_epik_cmdline>
J2VwaWtfYXBwJywgJy1pbWFlJywgJ2xpZ2FuZF9wcm8ubWFlJywgJy1vbWFlJywgJ2xpZ2FuZF9wcmVwLm1hZScsICctbXMnLCAnMScsICctcGgnLCAnNycsICctcGh0JywgJzAuNScsICctbnQn

> <r_lp_tautomer_probability>
1

> <r_epik_Ionization_Penalty>
  0.0623

> <r_epik_Ionization_Penalty_Charging>
  0.0000

> <r_epik_Ionization_Penalty_Neutral>
  0.0623

> <r_epik_State_Penalty>
 -0.0000

> <r_epik_Charging_Adjusted_Penalty>
0

> <i_epik_Tot_Q>
0

> <i_epik_Tot_abs_Q>
0

$$$$
