1i90_ligand
                    3D
 Schrodinger Suite 2020-3.
 39 40  0  0  1  0            999 V2000
   -3.8070    6.1240   13.3620 N   0  0  1  0  0  0
   -3.2350    5.0040   12.6710 C   0  0  0  0  0  0
   -5.2710    5.7440   14.0800 S   0  0  0  0  0  0
   -6.4790    5.8450   12.8990 O   0  0  0  0  0  0
   -5.6330    6.8010   15.3370 O   0  0  0  0  0  0
   -2.9130    3.7540   13.5460 C   0  0  2  0  0  0
   -2.4240    2.6860   12.6490 N   0  3  0  0  0  0
   -2.8620    6.7840   14.2810 C   0  0  0  0  0  0
   -2.3560    8.0930   13.6810 C   0  0  0  0  0  0
   -1.3800    8.8020   14.6000 C   0  0  0  0  0  0
   -0.9490   10.0090   13.9940 O   0  0  0  0  0  0
   -0.0220   10.7120   14.8280 C   0  0  0  0  0  0
   -4.1150    2.1930   15.0390 C   0  0  0  0  0  0
   -4.0170    3.3230   14.3240 C   0  0  0  0  0  0
   -5.1960    4.1310   14.6120 C   0  0  0  0  0  0
   -6.0290    3.4300   15.4720 S   0  0  0  0  0  0
   -5.3800    2.1290   15.7970 C   0  0  0  0  0  0
   -5.8920    0.9590   16.7020 S   0  0  0  0  0  0
   -5.8390   -0.2510   15.9890 N   0  0  0  0  0  0
   -5.0620    0.8360   17.8050 O   0  0  0  0  0  0
   -7.1600    1.2450   17.1710 O   0  0  0  0  0  0
   -3.9304    4.6603   11.8911 H   0  0  0  0  0  0
   -2.2842    5.3058   12.2074 H   0  0  0  0  0  0
   -2.1707    3.9513   14.3335 H   0  0  0  0  0  0
   -1.5701    3.0600   12.0651 H   0  0  0  0  0  0
   -3.2310    2.3831   11.9656 H   0  0  0  0  0  0
   -2.1070    1.8201   13.2487 H   0  0  0  0  0  0
   -3.3676    7.0003   15.2337 H   0  0  0  0  0  0
   -2.0040    6.1203   14.4637 H   0  0  0  0  0  0
   -1.8429    7.8863   12.7302 H   0  0  0  0  0  0
   -3.2067    8.7663   13.4997 H   0  0  0  0  0  0
   -1.8750    9.0288   15.5558 H   0  0  0  0  0  0
   -0.5106    8.1532   14.7823 H   0  0  0  0  0  0
    0.2901   11.6406   14.3277 H   0  0  0  0  0  0
    0.8594   10.0797   15.0106 H   0  0  0  0  0  0
   -0.5032   10.9559   15.7866 H   0  0  0  0  0  0
   -3.3520    1.4149   15.0582 H   0  0  0  0  0  0
   -6.1996   -1.0698   16.6290 H   0  0  0  0  0  0
   -4.8011   -0.4527   15.6856 H   0  0  0  0  0  0
  1  8  1  0  0  0
  1  3  1  0  0  0
  1  2  1  0  0  0
  2  6  1  0  0  0
  2 22  1  0  0  0
  2 23  1  0  0  0
  3 15  1  0  0  0
  3  5  2  0  0  0
  3  4  2  0  0  0
  6 14  1  0  0  0
  6  7  1  0  0  0
  6 24  1  0  0  0
  7 25  1  0  0  0
  7 26  1  0  0  0
  7 27  1  0  0  0
  8  9  1  0  0  0
  8 28  1  0  0  0
  8 29  1  0  0  0
  9 10  1  0  0  0
  9 30  1  0  0  0
  9 31  1  0  0  0
 10 11  1  0  0  0
 10 32  1  0  0  0
 10 33  1  0  0  0
 11 12  1  0  0  0
 12 34  1  0  0  0
 12 35  1  0  0  0
 12 36  1  0  0  0
 13 14  1  0  0  0
 13 17  2  0  0  0
 13 37  1  0  0  0
 14 15  2  0  0  0
 15 16  1  0  0  0
 16 17  1  0  0  0
 17 18  1  0  0  0
 18 21  2  0  0  0
 18 20  2  0  0  0
 18 19  1  0  0  0
 19 38  1  0  0  0
 19 39  1  0  0  0
M  CHG  1   7   1
M  END
> <s_m_source_file>
../1i90_ligand.sdf

> <i_m_source_file_index>
1

> <s_epik_input>
W0NIM11PW0NIMl1bQ0gyXVtDSDJdTihbQ0gyXVtDQEBIXTFbTkgzK10pUyg9TykoPU8pYyhjMTIpc2MoW2NIXTIpUyg9TykoPU8pW05IMl0=

> <s_epik_cmdline>
J2VwaWtfYXBwJywgJy1pbWFlJywgJ2xpZ2FuZF9wcm8ubWFlJywgJy1vbWFlJywgJ2xpZ2FuZF9wcmVwLm1hZScsICctbXMnLCAnMScsICctcGgnLCAnNycsICctcGh0JywgJzAuNScsICctbnQn

> <r_lp_tautomer_probability>
1

> <r_epik_Ionization_Penalty>
  0.0953

> <r_epik_Ionization_Penalty_Charging>
  0.0400

> <r_epik_Ionization_Penalty_Neutral>
  0.0553

> <r_epik_State_Penalty>
 -0.0000

> <r_epik_Charging_Adjusted_Penalty>
0.0400028763291035

> <i_epik_Tot_Q>
1

> <i_epik_Tot_abs_Q>
1

$$$$
