1i91_ligand
                    3D
 Schrodinger Suite 2020-3.
 50 53  0  0  1  0            999 V2000
   -6.1530    0.2870   16.8760 S   0  0  0  0  0  0
   -7.5280    0.3360   17.0620 O   0  0  0  0  0  0
   -5.7960   -0.9580   16.1640 N   0  0  0  0  0  0
   -5.7080    1.6050   16.0510 C   0  0  0  0  0  0
   -4.4210    1.7460   15.3990 C   0  0  0  0  0  0
   -4.3170    2.9990   14.7280 C   0  0  0  0  0  0
   -5.5490    3.7790   14.9020 C   0  0  0  0  0  0
   -6.4750    2.9090   15.7660 S   0  0  0  0  0  0
   -3.2340    3.5670   13.9310 C   0  0  0  0  0  0
   -3.2460    4.9490   13.1950 C   0  0  3  0  0  0
   -4.5660    5.7190   13.3990 N   0  0  0  0  0  0
   -5.6820    5.1790   14.2850 S   0  0  0  0  0  0
   -5.7200    6.1470   15.3100 O   0  0  0  0  0  0
   -6.9280    5.2890   13.6260 O   0  0  0  0  0  0
   -2.1680    5.5830   12.3100 C   0  0  0  0  0  0
   -1.3740    8.1220   12.3990 C   0  0  0  0  0  0
   -1.5760    9.5000   13.1220 C   0  0  0  0  0  0
   -1.3080    9.3870   14.6680 O   0  0  0  0  0  0
   -2.0660    8.2320   15.3390 C   0  0  0  0  0  0
   -1.9740    6.9030   14.5960 C   0  0  0  0  0  0
   -2.3010    7.0400   13.0300 N   0  0  0  0  0  0
   -5.7150    7.1820   11.6870 C   0  0  0  0  0  0
   -5.1200    5.9270   12.0430 C   0  0  0  0  0  0
   -5.0930    4.8510   11.0330 C   0  0  0  0  0  0
   -5.6500    5.0030    9.6610 C   0  0  0  0  0  0
   -6.2290    6.3580    9.4470 C   0  0  0  0  0  0
   -6.2930    7.4860   10.4080 C   0  0  0  0  0  0
   -6.8860    8.8780   10.1060 O   0  0  0  0  0  0
   -5.5090    0.2980   18.1190 O   0  0  0  0  0  0
   -6.1163   -1.8256   16.7595 H   0  0  0  0  0  0
   -4.7066   -0.9965   16.0164 H   0  0  0  0  0  0
   -3.6347    0.9914   15.4193 H   0  0  0  0  0  0
   -2.3387    3.6839   14.5593 H   0  0  0  0  0  0
   -3.0066    2.8955   13.0899 H   0  0  0  0  0  0
   -2.1808    4.8471   12.9403 H   0  0  0  0  0  0
   -1.2180    5.0458   12.4476 H   0  0  0  0  0  0
   -2.4754    5.5201   11.2557 H   0  0  0  0  0  0
   -0.3239    7.8116   12.5040 H   0  0  0  0  0  0
   -1.6175    8.2367   11.3324 H   0  0  0  0  0  0
   -0.8791   10.2401   12.7018 H   0  0  0  0  0  0
   -2.6101    9.8442   12.9730 H   0  0  0  0  0  0
   -1.6607    8.0646   16.3478 H   0  0  0  0  0  0
   -3.1337    8.4866   15.4104 H   0  0  0  0  0  0
   -0.9553    6.4991   14.6918 H   0  0  0  0  0  0
   -2.6928    6.1910   15.0277 H   0  0  0  0  0  0
   -5.7297    7.9651   12.4450 H   0  0  0  0  0  0
   -4.6423    3.8967   11.3056 H   0  0  0  0  0  0
   -5.6358    4.2179    8.9050 H   0  0  0  0  0  0
   -6.6588    6.5439    8.4627 H   0  0  0  0  0  0
   -6.8898    9.6550   10.8847 H   0  0  0  0  0  0
  1 29  2  0  0  0
  1  4  1  0  0  0
  1  3  1  0  0  0
  1  2  2  0  0  0
  3 30  1  0  0  0
  3 31  1  0  0  0
  4  8  1  0  0  0
  4  5  2  0  0  0
  5  6  1  0  0  0
  5 32  1  0  0  0
  6  9  1  0  0  0
  6  7  2  0  0  0
  7 12  1  0  0  0
  7  8  1  0  0  0
  9 10  1  0  0  0
  9 33  1  0  0  0
  9 34  1  0  0  0
 10 11  1  0  0  0
 10 15  1  0  0  0
 10 35  1  0  0  0
 11 12  1  0  0  0
 11 23  1  0  0  0
 12 14  2  0  0  0
 12 13  2  0  0  0
 15 21  1  0  0  0
 15 36  1  0  0  0
 15 37  1  0  0  0
 16 21  1  0  0  0
 16 17  1  0  0  0
 16 38  1  0  0  0
 16 39  1  0  0  0
 17 18  1  0  0  0
 17 40  1  0  0  0
 17 41  1  0  0  0
 18 19  1  0  0  0
 19 20  1  0  0  0
 19 42  1  0  0  0
 19 43  1  0  0  0
 20 21  1  0  0  0
 20 44  1  0  0  0
 20 45  1  0  0  0
 22 23  2  0  0  0
 22 27  1  0  0  0
 22 46  1  0  0  0
 23 24  1  0  0  0
 24 25  2  0  0  0
 24 47  1  0  0  0
 25 26  1  0  0  0
 25 48  1  0  0  0
 26 27  2  0  0  0
 26 49  1  0  0  0
 27 28  1  0  0  0
 28 50  1  0  0  0
M  END
> <s_m_source_file>
../1i91_ligand.sdf

> <i_m_source_file_index>
1

> <s_epik_input>
Tz1TKD1PKShbTkgyXSljKFtjSF0xKXNjKGMxMilTKD1PKSg9TylOKGMzW2NIXWMoW09IXSlbY0hdW2NIXVtjSF0zKVtDSF0oW0NIMl0yKVtDSDJdW05IK100W0NIMl1bQ0gyXU9bQ0gyXVtDSDJdNA==

> <s_epik_cmdline>
J2VwaWtfYXBwJywgJy1pbWFlJywgJ2xpZ2FuZF9wcm8ubWFlJywgJy1vbWFlJywgJ2xpZ2FuZF9wcmVwLm1hZScsICctbXMnLCAnMScsICctcGgnLCAnNycsICctcGh0JywgJzAuNScsICctbnQn

> <r_lp_tautomer_probability>
1

> <r_epik_Ionization_Penalty>
  0.0968

> <r_epik_Ionization_Penalty_Charging>
  0.0000

> <r_epik_Ionization_Penalty_Neutral>
  0.0968

> <r_epik_State_Penalty>
 -0.0000

> <r_epik_Charging_Adjusted_Penalty>
0

> <i_epik_Tot_Q>
0

> <i_epik_Tot_abs_Q>
0

$$$$
