1i9l_ligand
                    3D
 Schrodinger Suite 2020-3.
 34 35  0  0  1  0            999 V2000
   -3.7880    2.9570   14.9130 C   0  0  0  0  0  0
   -4.2250    1.8450   15.6210 C   0  0  0  0  0  0
   -5.6130    1.7560   16.0180 C   0  0  0  0  0  0
   -6.4770    2.8040   15.6800 C   0  0  0  0  0  0
   -5.9990    3.9120   14.9680 C   0  0  0  0  0  0
   -4.6600    4.0010   14.5770 C   0  0  0  0  0  0
   -4.1000    5.1980   13.7860 C   0  0  0  0  0  0
   -4.9140    6.1180   13.5010 O   0  0  0  0  0  0
   -2.7120    5.2960   13.3690 N   0  0  0  0  0  0
   -2.2780    6.5590   12.8220 C   0  0  0  0  0  0
   -6.0830    0.2740   16.9310 S   0  0  0  0  0  0
   -5.6210   -1.1680   16.1600 N   0  0  0  0  0  0
   -7.5130    0.4880   17.1220 O   0  0  0  0  0  0
   -5.3780    0.5550   18.2120 O   0  0  0  0  0  0
   -1.5640    7.4610   13.6090 C   0  0  0  0  0  0
   -2.0640    7.7550   14.9390 C   0  0  0  0  0  0
   -1.3290    8.7030   15.7590 C   0  0  0  0  0  0
   -0.1090    9.3430   15.2530 C   0  0  0  0  0  0
    0.3780    9.0300   13.9210 C   0  0  0  0  0  0
   -0.3360    8.0950   13.0890 C   0  0  0  0  0  0
    0.5740   10.2350   16.0390 F   0  0  0  0  0  0
   -2.7423    3.0190   14.6117 H   0  0  0  0  0  0
   -3.5281    1.0464   15.8753 H   0  0  0  0  0  0
   -7.5262    2.7580   15.9719 H   0  0  0  0  0  0
   -6.6847    4.7203   14.7140 H   0  0  0  0  0  0
   -2.0015    4.4606   13.4549 H   0  0  0  0  0  0
   -1.6140    6.3781   11.9638 H   0  0  0  0  0  0
   -3.1543    7.1363   12.4923 H   0  0  0  0  0  0
   -5.9378   -2.0273   16.7693 H   0  0  0  0  0  0
   -4.5276   -1.1861   16.0410 H   0  0  0  0  0  0
   -2.9688    7.2765   15.3138 H   0  0  0  0  0  0
   -1.6875    8.9413   16.7604 H   0  0  0  0  0  0
    1.2866    9.5039   13.5495 H   0  0  0  0  0  0
    0.0258    7.8587   12.0883 H   0  0  0  0  0  0
  1  2  2  0  0  0
  1  6  1  0  0  0
  1 22  1  0  0  0
  2  3  1  0  0  0
  2 23  1  0  0  0
  3  4  2  0  0  0
  3 11  1  0  0  0
  4  5  1  0  0  0
  4 24  1  0  0  0
  5  6  2  0  0  0
  5 25  1  0  0  0
  6  7  1  0  0  0
  7  8  2  0  0  0
  7  9  1  0  0  0
  9 10  1  0  0  0
  9 26  1  0  0  0
 10 15  1  0  0  0
 10 27  1  0  0  0
 10 28  1  0  0  0
 11 12  1  0  0  0
 11 13  2  0  0  0
 11 14  2  0  0  0
 12 29  1  0  0  0
 12 30  1  0  0  0
 15 16  2  0  0  0
 15 20  1  0  0  0
 16 17  1  0  0  0
 16 31  1  0  0  0
 17 18  2  0  0  0
 17 32  1  0  0  0
 18 19  1  0  0  0
 18 21  1  0  0  0
 19 20  2  0  0  0
 19 33  1  0  0  0
 20 34  1  0  0  0
M  END
> <s_m_source_file>
../1i9l_ligand.sdf

> <i_m_source_file_index>
1

> <s_epik_input>
W05IMl1TKD1PKSg9TyljMVtjSF1bY0hdYyhbY0hdW2NIXTEpQyg9TylbTkhdW0NIMl1jMltjSF1bY0hdYyhGKVtjSF1bY0hdMg==

> <s_epik_cmdline>
J2VwaWtfYXBwJywgJy1pbWFlJywgJ2xpZ2FuZF9wcm8ubWFlJywgJy1vbWFlJywgJ2xpZ2FuZF9wcmVwLm1hZScsICctbXMnLCAnMScsICctcGgnLCAnNycsICctcGh0JywgJzAuNScsICctbnQn

> <r_lp_tautomer_probability>
1

> <r_epik_Ionization_Penalty>
  0.0012

> <r_epik_Ionization_Penalty_Charging>
  0.0000

> <r_epik_Ionization_Penalty_Neutral>
  0.0012

> <r_epik_State_Penalty>
 -0.0000

> <r_epik_Charging_Adjusted_Penalty>
0

> <i_epik_Tot_Q>
0

> <i_epik_Tot_abs_Q>
0

$$$$
