1i9n_ligand
                    3D
 Schrodinger Suite 2020-3.
 34 35  0  0  1  0            999 V2000
   -3.8580    2.6650   14.6340 C   0  0  0  0  0  0
   -4.2550    1.6000   15.4550 C   0  0  0  0  0  0
   -5.6300    1.5110   15.8800 C   0  0  0  0  0  0
   -6.5210    2.5060   15.4670 C   0  0  0  0  0  0
   -6.0910    3.5650   14.6510 C   0  0  0  0  0  0
   -4.7660    3.6560   14.2180 C   0  0  0  0  0  0
   -4.2940    4.7950   13.3100 C   0  0  0  0  0  0
   -5.1660    5.6310   12.9800 O   0  0  0  0  0  0
   -2.9430    4.9470   12.8050 N   0  0  0  0  0  0
   -2.5340    6.2940   12.4270 C   0  0  0  0  0  0
   -6.0970    0.1220   16.9150 S   0  0  0  0  0  0
   -5.6460   -1.3760   16.2760 N   0  0  0  0  0  0
   -7.5310    0.3470   17.0640 O   0  0  0  0  0  0
   -5.4160    0.4830   18.1730 O   0  0  0  0  0  0
   -1.8730    7.1420   13.3370 C   0  0  0  0  0  0
   -2.1550    7.0100   14.7610 C   0  0  0  0  0  0
   -1.4740    7.8960   15.7000 C   0  0  0  0  0  0
   -0.5340    8.8880   15.2000 C   0  0  0  0  0  0
   -0.2600    9.0020   13.7600 C   0  0  0  0  0  0
   -0.9230    8.1380   12.8340 C   0  0  0  0  0  0
   -0.6810    8.2560   11.6550 F   0  0  0  0  0  0
   -1.7210    7.7970   17.0360 F   0  0  0  0  0  0
   -2.8192    2.7268   14.3097 H   0  0  0  0  0  0
   -3.5318    0.8472   15.7687 H   0  0  0  0  0  0
   -7.5633    2.4592   15.7825 H   0  0  0  0  0  0
   -6.8053    4.3311   14.3495 H   0  0  0  0  0  0
   -2.2386    4.1086   12.7005 H   0  0  0  0  0  0
   -1.8352    6.2406   11.5792 H   0  0  0  0  0  0
   -3.4196    6.8780   12.1360 H   0  0  0  0  0  0
   -5.9628   -2.1769   16.9602 H   0  0  0  0  0  0
   -4.5532   -1.4087   16.1543 H   0  0  0  0  0  0
   -2.8627    6.2621   15.1187 H   0  0  0  0  0  0
   -0.0281    9.5530   15.8999 H   0  0  0  0  0  0
    0.4495    9.7462   13.3981 H   0  0  0  0  0  0
  1  6  2  0  0  0
  1  2  1  0  0  0
  1 23  1  0  0  0
  2  3  2  0  0  0
  2 24  1  0  0  0
  3 11  1  0  0  0
  3  4  1  0  0  0
  4  5  2  0  0  0
  4 25  1  0  0  0
  5  6  1  0  0  0
  5 26  1  0  0  0
  6  7  1  0  0  0
  7  9  1  0  0  0
  7  8  2  0  0  0
  9 10  1  0  0  0
  9 27  1  0  0  0
 10 15  1  0  0  0
 10 28  1  0  0  0
 10 29  1  0  0  0
 11 14  2  0  0  0
 11 13  2  0  0  0
 11 12  1  0  0  0
 12 30  1  0  0  0
 12 31  1  0  0  0
 15 20  2  0  0  0
 15 16  1  0  0  0
 16 17  2  0  0  0
 16 32  1  0  0  0
 17 18  1  0  0  0
 17 22  1  0  0  0
 18 19  2  0  0  0
 18 33  1  0  0  0
 19 20  1  0  0  0
 19 34  1  0  0  0
 20 21  1  0  0  0
M  END
> <s_m_source_file>
../1i9n_ligand.sdf

> <i_m_source_file_index>
1

> <s_epik_input>
W05IMl1TKD1PKSg9TyljMVtjSF1bY0hdYyhbY0hdW2NIXTEpQyg9TylbTkhdW0NIMl1jMltjSF1jKEYpW2NIXVtjSF1jMkY=

> <s_epik_cmdline>
J2VwaWtfYXBwJywgJy1pbWFlJywgJ2xpZ2FuZF9wcm8ubWFlJywgJy1vbWFlJywgJ2xpZ2FuZF9wcmVwLm1hZScsICctbXMnLCAnMScsICctcGgnLCAnNycsICctcGh0JywgJzAuNScsICctbnQn

> <r_lp_tautomer_probability>
1

> <r_epik_Ionization_Penalty>
  0.0012

> <r_epik_Ionization_Penalty_Charging>
  0.0000

> <r_epik_Ionization_Penalty_Neutral>
  0.0012

> <r_epik_State_Penalty>
 -0.0000

> <r_epik_Charging_Adjusted_Penalty>
0

> <i_epik_Tot_Q>
0

> <i_epik_Tot_abs_Q>
0

$$$$
