1i9p_ligand
                    3D
 Schrodinger Suite 2020-3.
 34 35  0  0  1  0            999 V2000
   -3.8510    1.6170   14.7430 C   0  0  0  0  0  0
   -4.1800    0.4630   15.4890 C   0  0  0  0  0  0
   -5.5540    0.2410   15.9110 C   0  0  0  0  0  0
   -6.5050    1.2040   15.5580 C   0  0  0  0  0  0
   -6.1370    2.3520   14.8100 C   0  0  0  0  0  0
   -4.8310    2.5760   14.3920 C   0  0  0  0  0  0
   -4.4640    3.8270   13.5640 C   0  0  0  0  0  0
   -5.4180    4.6030   13.2970 O   0  0  0  0  0  0
   -3.1290    4.1660   13.0660 N   0  0  0  0  0  0
   -2.3080    4.9940   13.9390 C   0  0  0  0  0  0
   -5.9440   -1.2630   16.8650 S   0  0  0  0  0  0
   -5.3910   -2.7190   16.1190 N   0  0  0  0  0  0
   -7.4090   -1.0910   17.0270 O   0  0  0  0  0  0
   -5.3240   -0.9270   18.1850 O   0  0  0  0  0  0
   -2.5470    6.3760   14.1340 C   0  0  0  0  0  0
   -3.4810    7.1050   13.2430 C   0  0  0  0  0  0
   -3.6960    8.5470   13.4920 C   0  0  0  0  0  0
   -3.0030    9.2390   14.5910 C   0  0  0  0  0  0
   -2.0840    8.4920   15.4510 C   0  0  0  0  0  0
   -1.8530    7.0760   15.2350 C   0  0  0  0  0  0
   -0.9930    6.3940   16.0510 F   0  0  0  0  0  0
   -3.2140   10.5740   14.8050 F   0  0  0  0  0  0
   -4.1280    6.4780   12.2160 F   0  0  0  0  0  0
   -2.8184    1.7723   14.4305 H   0  0  0  0  0  0
   -3.4057   -0.2593   15.7477 H   0  0  0  0  0  0
   -7.5433    1.0706   15.8618 H   0  0  0  0  0  0
   -6.9045    3.0827   14.5547 H   0  0  0  0  0  0
   -2.7355    3.8326   12.0944 H   0  0  0  0  0  0
   -2.3502    4.5992   14.9648 H   0  0  0  0  0  0
   -1.2670    4.9814   13.5838 H   0  0  0  0  0  0
   -5.6611   -3.5793   16.7491 H   0  0  0  0  0  0
   -4.2980   -2.6789   16.0022 H   0  0  0  0  0  0
   -4.3783    9.1061   12.8517 H   0  0  0  0  0  0
   -1.5676    9.0049   16.2624 H   0  0  0  0  0  0
  1  6  2  0  0  0
  1  2  1  0  0  0
  1 24  1  0  0  0
  2  3  2  0  0  0
  2 25  1  0  0  0
  3 11  1  0  0  0
  3  4  1  0  0  0
  4  5  2  0  0  0
  4 26  1  0  0  0
  5  6  1  0  0  0
  5 27  1  0  0  0
  6  7  1  0  0  0
  7  9  1  0  0  0
  7  8  2  0  0  0
  9 10  1  0  0  0
  9 28  1  0  0  0
 10 15  1  0  0  0
 10 29  1  0  0  0
 10 30  1  0  0  0
 11 14  2  0  0  0
 11 13  2  0  0  0
 11 12  1  0  0  0
 12 31  1  0  0  0
 12 32  1  0  0  0
 15 20  2  0  0  0
 15 16  1  0  0  0
 16 17  2  0  0  0
 16 23  1  0  0  0
 17 18  1  0  0  0
 17 33  1  0  0  0
 18 19  2  0  0  0
 18 22  1  0  0  0
 19 20  1  0  0  0
 19 34  1  0  0  0
 20 21  1  0  0  0
M  END
> <s_m_source_file>
../1i9p_ligand.sdf

> <i_m_source_file_index>
1

> <s_epik_input>
W05IMl1TKD1PKSg9TyljMVtjSF1bY0hdYyhbY0hdW2NIXTEpQyg9TylbTkhdW0NIMl1jMmMoRilbY0hdYyhGKVtjSF1jMkY=

> <s_epik_cmdline>
J2VwaWtfYXBwJywgJy1pbWFlJywgJ2xpZ2FuZF9wcm8ubWFlJywgJy1vbWFlJywgJ2xpZ2FuZF9wcmVwLm1hZScsICctbXMnLCAnMScsICctcGgnLCAnNycsICctcGh0JywgJzAuNScsICctbnQn

> <r_lp_tautomer_probability>
1

> <r_epik_Ionization_Penalty>
  0.0012

> <r_epik_Ionization_Penalty_Charging>
  0.0000

> <r_epik_Ionization_Penalty_Neutral>
  0.0012

> <r_epik_State_Penalty>
 -0.0000

> <r_epik_Charging_Adjusted_Penalty>
0

> <i_epik_Tot_Q>
0

> <i_epik_Tot_abs_Q>
0

$$$$
