1ibc_ligand
                    3D
 Schrodinger Suite 2020-3.
 76 78  0  0  1  0            999 V2000
   31.8020   70.9310   11.1460 C   0  0  0  0  0  0
   32.1910   71.5280   10.1430 O   0  0  0  0  0  0
   30.7830   71.5700   12.0600 C   0  0  0  0  0  0
   32.2840   69.7530   11.5290 N   0  0  0  0  0  0
   33.2620   68.9950   10.7490 C   0  0  2  0  0  0
   32.6670   67.6170   10.5260 C   0  0  0  0  0  0
   31.8890   67.1410   11.3500 O   0  0  0  0  0  0
   34.5880   68.8670   11.4990 C   0  0  0  0  0  0
   35.4100   70.1160   11.4880 C   0  0  0  0  0  0
   35.2230   71.2250   12.2560 C   0  0  0  0  0  0
   36.5440   70.3910   10.6550 C   0  0  0  0  0  0
   36.1670   72.1770   11.9540 N   0  3  0  0  0  0
   36.9900   71.6940   10.9720 C   0  0  0  0  0  0
   37.2230   69.6690    9.6640 C   0  0  0  0  0  0
   38.0850   72.2920   10.3350 C   0  0  0  0  0  0
   38.3120   70.2630    9.0290 C   0  0  0  0  0  0
   38.7290   71.5640    9.3690 C   0  0  0  0  0  0
   33.0260   66.9730    9.4230 N   0  0  0  0  0  0
   32.4870   65.6540    9.1130 C   0  0  2  0  0  0
   33.5740   64.6470    8.7540 C   0  0  0  0  0  0
   34.7590   64.9720    8.7370 O   0  0  0  0  0  0
   31.4830   65.7490    7.9560 C   0  0  0  0  0  0
   30.2700   66.6420    8.2050 C   0  0  0  0  0  0
   29.3400   66.7110    7.0020 C   0  0  0  0  0  0
   29.0350   65.6510    6.4090 O   0  5  0  0  0  0
   28.9120   67.8290    6.6460 O   0  0  0  0  0  0
   33.1510   63.4170    8.4830 N   0  0  0  0  0  0
   34.0550   62.3430    8.1060 C   0  0  2  0  0  0
   34.0280   62.1810    6.5960 C   0  0  0  0  0  0
   32.9540   62.1590    5.9860 O   0  0  0  0  0  0
   33.6050   61.0140    8.7190 C   0  0  0  0  0  0
   33.7350   60.9410   10.2080 C   0  0  0  0  0  0
   34.3780   61.9080   10.9520 N   0  0  0  0  0  0
   33.3130   60.0060   11.0890 C   0  0  0  0  0  0
   34.3460   61.5680   12.2280 C   0  0  0  0  0  0
   33.7070   60.4180   12.3390 N   0  0  0  0  0  0
   35.2080   62.0920    6.0000 N   0  0  0  0  0  0
   35.3190   61.8840    4.5710 C   0  0  2  0  0  0
   35.5730   60.4080    4.3170 C   0  0  0  0  0  0
   34.3460   59.7810    3.9470 O   0  0  0  0  0  0
   36.4590   62.7230    3.9890 C   0  0  0  0  0  0
   36.0540   63.4740    2.7290 C   0  0  0  0  0  0
   34.9050   63.9440    2.6530 O   0  0  0  0  0  0
   36.8900   63.6000    1.8110 O   0  5  0  0  0  0
   30.4635   72.5335   11.6362 H   0  0  0  0  0  0
   31.2319   71.7359   13.0504 H   0  0  0  0  0  0
   29.9117   70.9059   12.1589 H   0  0  0  0  0  0
   31.9119   69.3521   12.4834 H   0  0  0  0  0  0
   33.4400   69.5342    9.8069 H   0  0  0  0  0  0
   34.3911   68.6148   12.5514 H   0  0  0  0  0  0
   35.1943   68.0728   11.0389 H   0  0  0  0  0  0
   34.4019   71.2555   12.9873 H   0  0  0  0  0  0
   36.9052   68.6617    9.3950 H   0  0  0  0  0  0
   38.4123   73.2980   10.5977 H   0  0  0  0  0  0
   38.8492   69.7118    8.2572 H   0  0  0  0  0  0
   39.5831   72.0019    8.8524 H   0  0  0  0  0  0
   33.7422   67.4495    8.7374 H   0  0  0  0  0  0
   32.0040   65.3380   10.0494 H   0  0  0  0  0  0
   31.9867   66.1537    7.0658 H   0  0  0  0  0  0
   31.0879   64.7476    7.7302 H   0  0  0  0  0  0
   29.6942   66.2493    9.0560 H   0  0  0  0  0  0
   30.6075   67.6642    8.4311 H   0  0  0  0  0  0
   32.0698   63.2268    8.5531 H   0  0  0  0  0  0
   35.0456   62.6421    8.4790 H   0  0  0  0  0  0
   33.2117   60.1532    8.1584 H   0  0  0  0  0  0
   32.7594   59.0630   10.9698 H   0  0  0  0  0  0
   34.7748   62.1403   13.0506 H   0  0  0  0  0  0
   36.1157   62.1796    6.6152 H   0  0  0  0  0  0
   34.3635   62.2035    4.1294 H   0  0  0  0  0  0
   36.3057   60.2966    3.5041 H   0  0  0  0  0  0
   35.9665   59.9409    5.2319 H   0  0  0  0  0  0
   34.3246   58.7046    3.7212 H   0  0  0  0  0  0
   36.7846   63.4652    4.7327 H   0  0  0  0  0  0
   37.3034   62.0664    3.7322 H   0  0  0  0  0  0
   36.1648   73.1411   12.4836 H   0  0  0  0  0  0
   34.8138   62.7863   10.4533 H   0  0  0  0  0  0
  1  2  2  0  0  0
  1  3  1  0  0  0
  1  4  1  0  0  0
  3 45  1  0  0  0
  3 46  1  0  0  0
  3 47  1  0  0  0
  4  5  1  0  0  0
  4 48  1  0  0  0
  5  6  1  0  0  0
  5  8  1  0  0  0
  5 49  1  0  0  0
  6  7  2  0  0  0
  6 18  1  0  0  0
  8  9  1  0  0  0
  8 50  1  0  0  0
  8 51  1  0  0  0
  9 10  2  0  0  0
  9 11  1  0  0  0
 10 12  1  0  0  0
 10 52  1  0  0  0
 11 13  2  0  0  0
 11 14  1  0  0  0
 12 13  1  0  0  0
 12 75  1  0  0  0
 13 15  1  0  0  0
 14 16  2  0  0  0
 14 53  1  0  0  0
 15 17  2  0  0  0
 15 54  1  0  0  0
 16 17  1  0  0  0
 16 55  1  0  0  0
 17 56  1  0  0  0
 18 19  1  0  0  0
 18 57  1  0  0  0
 19 20  1  0  0  0
 19 22  1  0  0  0
 19 58  1  0  0  0
 20 21  2  0  0  0
 20 27  1  0  0  0
 22 23  1  0  0  0
 22 59  1  0  0  0
 22 60  1  0  0  0
 23 24  1  0  0  0
 23 61  1  0  0  0
 23 62  1  0  0  0
 24 25  1  0  0  0
 24 26  2  0  0  0
 27 28  1  0  0  0
 27 63  1  0  0  0
 28 29  1  0  0  0
 28 31  1  0  0  0
 28 64  1  0  0  0
 29 30  2  0  0  0
 29 37  1  0  0  0
 31 32  2  0  0  0
 31 65  1  0  0  0
 32 33  1  0  0  0
 32 34  1  0  0  0
 33 35  1  0  0  0
 33 76  1  0  0  0
 34 36  2  0  0  0
 34 66  1  0  0  0
 35 36  1  0  0  0
 35 67  1  0  0  0
 37 38  1  0  0  0
 37 68  1  0  0  0
 38 39  1  0  0  0
 38 41  1  0  0  0
 38 69  1  0  0  0
 39 40  1  0  0  0
 39 70  1  0  0  0
 39 71  1  0  0  0
 40 72  1  0  0  0
 41 42  1  0  0  0
 41 73  1  0  0  0
 41 74  1  0  0  0
 42 43  2  0  0  0
 42 44  1  0  0  0
M  CHG  3  12   1  25  -1  44  -1
M  END
> <s_m_source_file>
../1ibc_ligand.sdf

> <i_m_source_file_index>
1

> <s_epik_input>
W2NIXTFbY0hdW2NIXVtjSF1jKGMxMilbbkhdW2NIXWMyW0NIMl1bQ0BIXShbTkhdQyg9TylbQ0gzXSlDKD1PKVtOSF1bQ0BASF0oW0NIMl1bQ0gyXUMoPU8pW09IXSlDKD1PKVtOSF1bQ0BIXShDKD1PKVtOSF1bQ0BIXShbQ0gyXVtPSF0pW0NIMl1DKD1PKVtPSF0pW0NIMl1DMz1OW0NIMl1OPVtDSF0z

> <s_epik_cmdline>
J2VwaWtfYXBwJywgJy1pbWFlJywgJ2xpZ2FuZF9wcm8ubWFlJywgJy1vbWFlJywgJ2xpZ2FuZF9wcmVwLm1hZScsICctbXMnLCAnMScsICctcGgnLCAnNycsICctcGh0JywgJzAuNScsICctbnQn

> <r_lp_tautomer_probability>
1

> <r_epik_Ionization_Penalty>
  0.0030

> <r_epik_Ionization_Penalty_Charging>
  0.0030

> <r_epik_Ionization_Penalty_Neutral>
  0.0000

> <r_epik_State_Penalty>
 -0.0000

> <r_epik_Charging_Adjusted_Penalty>
0.00297648262576894

> <i_epik_Tot_Q>
-1

> <i_epik_Tot_abs_Q>
3

> <s_epik_Chemistry_Notes>
This compound has an imine and may undergo hydrolysis.

$$$$
