1ibg_ligand
                    3D
 Schrodinger Suite 2020-3.
 85 90  0  0  1  0            999 V2000
    6.9710   11.8370   41.9510 C   0  0  2  0  0  0
    5.9560   11.9670   43.0680 C   0  0  0  0  0  0
    5.4240   10.6210   43.5440 C   0  0  1  0  0  0
    5.0390    9.6940   42.3750 C   0  0  0  0  0  0
    5.9520    9.6640   41.1110 C   0  0  1  0  0  0
    5.2010    9.0170   39.9300 C   0  0  0  0  0  0
    3.8690    9.7320   39.7060 C   0  0  0  0  0  0
    4.1560   11.1360   39.2150 C   0  0  2  0  0  0
    4.9770   11.9610   40.2210 C   0  0  1  0  0  0
    6.3030   11.1670   40.6900 C   0  0  1  0  0  0
    5.1370   13.4020   39.6330 C   0  0  1  0  0  0
    3.8190   14.0640   39.2490 C   0  0  0  0  0  0
    3.0650   13.3000   38.1650 C   0  0  1  0  0  0
    2.9000   11.8250   38.6330 C   0  0  2  0  0  0
    1.7050   11.9330   39.5610 C   0  0  0  0  0  0
    0.8730   13.1380   39.1160 C   0  0  0  0  0  0
    1.6480   13.8700   38.0430 C   0  0  2  0  0  0
    3.8590   13.4120   36.8630 C   0  0  0  0  0  0
    7.3710   11.0370   39.5680 C   0  0  0  0  0  0
    0.9680   13.8470   36.6910 C   0  0  0  0  0  0
    0.9090   15.0200   35.7670 C   0  0  0  0  0  0
    0.2770   12.8560   36.0790 C   0  0  0  0  0  0
   -0.3010   13.3270   34.8260 C   0  0  0  0  0  0
    5.7480    8.9910   45.3530 C   0  0  2  0  0  0
    6.9180    8.3560   46.1130 C   0  0  1  0  0  0
    7.6650    9.4740   46.8850 C   0  0  1  0  0  0
    6.7460   10.1000   47.9390 C   0  0  2  0  0  0
    5.3560   10.4590   47.3760 C   0  0  2  0  0  0
    4.3480   10.5060   48.5180 C   0  0  0  0  0  0
    8.1270   11.0920   42.3910 O   0  0  0  0  0  0
    6.2900   10.0080   44.4710 O   0  0  0  0  0  0
    7.1160    8.8120   41.3820 O   0  0  0  0  0  0
    5.8710   14.3020   40.4540 O   0  0  0  0  0  0
    2.4330   11.0510   37.5190 O   0  0  0  0  0  0
    8.2330   12.1910   39.4660 O   0  0  0  0  0  0
    0.0120   14.6140   34.6910 O   0  0  0  0  0  0
   -1.0190   12.7690   33.9960 O   0  0  0  0  0  0
    6.3600    7.3530   46.9950 O   0  0  0  0  0  0
    8.9210    9.0670   47.4780 O   0  0  0  0  0  0
    7.3720   11.3310   48.3140 O   0  0  0  0  0  0
    4.8580    9.4940   46.3940 O   0  0  0  0  0  0
    7.3792   12.8324   41.7217 H   0  0  0  0  0  0
    6.4214   12.4675   43.9299 H   0  0  0  0  0  0
    5.0993   12.5613   42.7176 H   0  0  0  0  0  0
    4.5373   10.7908   44.1725 H   0  0  0  0  0  0
    5.0147    8.6518   42.7262 H   0  0  0  0  0  0
    4.0460    9.9761   41.9950 H   0  0  0  0  0  0
    5.8127    9.0958   39.0192 H   0  0  0  0  0  0
    5.0106    7.9568   40.1532 H   0  0  0  0  0  0
    3.2804    9.1840   38.9555 H   0  0  0  0  0  0
    3.3103    9.7715   40.6527 H   0  0  0  0  0  0
    4.8344   11.0326   38.3553 H   0  0  0  0  0  0
    4.4224   12.1095   41.1593 H   0  0  0  0  0  0
    5.7802   13.2974   38.7468 H   0  0  0  0  0  0
    3.1669   14.1226   40.1329 H   0  0  0  0  0  0
    4.0147   15.0779   38.8699 H   0  0  0  0  0  0
    1.1067   11.0121   39.4971 H   0  0  0  0  0  0
    2.0548   12.0720   40.5946 H   0  0  0  0  0  0
   -0.0917   12.7905   38.7178 H   0  0  0  0  0  0
    0.6973   13.8002   39.9766 H   0  0  0  0  0  0
    1.6793   14.9619   38.1724 H   0  0  0  0  0  0
    4.8639   12.9891   37.0089 H   0  0  0  0  0  0
    3.9447   14.4704   36.5757 H   0  0  0  0  0  0
    3.3395   12.8571   36.0679 H   0  0  0  0  0  0
    8.0084   10.1631   39.7680 H   0  0  0  0  0  0
    6.8694   10.9104   38.5972 H   0  0  0  0  0  0
    0.5203   15.8946   36.3092 H   0  0  0  0  0  0
    1.9185   15.2411   35.3902 H   0  0  0  0  0  0
    0.2161   11.8604   36.5428 H   0  0  0  0  0  0
    5.1522    8.3496   44.6869 H   0  0  0  0  0  0
    7.6258    7.8148   45.4679 H   0  0  0  0  0  0
    8.0067   10.2233   46.1557 H   0  0  0  0  0  0
    6.6381    9.4288   48.8038 H   0  0  0  0  0  0
    5.4427   11.4133   46.8357 H   0  0  0  0  0  0
    4.6892   11.2234   49.2789 H   0  0  0  0  0  0
    4.2589    9.5070   48.9698 H   0  0  0  0  0  0
    3.3684   10.8215   48.1296 H   0  0  0  0  0  0
    8.7029   11.4348   43.2633 H   0  0  0  0  0  0
    6.9723    7.7625   41.6784 H   0  0  0  0  0  0
    6.8592   14.0124   40.8408 H   0  0  0  0  0  0
    3.1130   10.8208   36.6856 H   0  0  0  0  0  0
    9.0295   12.2172   38.7078 H   0  0  0  0  0  0
    5.8031    6.5014   46.5770 H   0  0  0  0  0  0
    9.6967    8.5975   46.8552 H   0  0  0  0  0  0
    8.3836   11.3244   48.7459 H   0  0  0  0  0  0
  1  2  1  0  0  0
  1 10  1  0  0  0
  1 30  1  0  0  0
  1 42  1  0  0  0
  2  3  1  0  0  0
  2 43  1  0  0  0
  2 44  1  0  0  0
  3  4  1  0  0  0
  3 31  1  0  0  0
  3 45  1  0  0  0
  4  5  1  0  0  0
  4 46  1  0  0  0
  4 47  1  0  0  0
  5  6  1  0  0  0
  5 10  1  0  0  0
  5 32  1  0  0  0
  6  7  1  0  0  0
  6 48  1  0  0  0
  6 49  1  0  0  0
  7  8  1  0  0  0
  7 50  1  0  0  0
  7 51  1  0  0  0
  8  9  1  0  0  0
  8 14  1  0  0  0
  8 52  1  0  0  0
  9 10  1  0  0  0
  9 11  1  0  0  0
  9 53  1  0  0  0
 10 19  1  0  0  0
 11 12  1  0  0  0
 11 33  1  0  0  0
 11 54  1  0  0  0
 12 13  1  0  0  0
 12 55  1  0  0  0
 12 56  1  0  0  0
 13 14  1  0  0  0
 13 17  1  0  0  0
 13 18  1  0  0  0
 14 15  1  0  0  0
 14 34  1  0  0  0
 15 16  1  0  0  0
 15 57  1  0  0  0
 15 58  1  0  0  0
 16 17  1  0  0  0
 16 59  1  0  0  0
 16 60  1  0  0  0
 17 20  1  0  0  0
 17 61  1  0  0  0
 18 62  1  0  0  0
 18 63  1  0  0  0
 18 64  1  0  0  0
 19 35  1  0  0  0
 19 65  1  0  0  0
 19 66  1  0  0  0
 20 21  1  0  0  0
 20 22  2  0  0  0
 21 36  1  0  0  0
 21 67  1  0  0  0
 21 68  1  0  0  0
 22 23  1  0  0  0
 22 69  1  0  0  0
 23 36  1  0  0  0
 23 37  2  0  0  0
 24 25  1  0  0  0
 24 31  1  0  0  0
 24 41  1  0  0  0
 24 70  1  0  0  0
 25 26  1  0  0  0
 25 38  1  0  0  0
 25 71  1  0  0  0
 26 27  1  0  0  0
 26 39  1  0  0  0
 26 72  1  0  0  0
 27 28  1  0  0  0
 27 40  1  0  0  0
 27 73  1  0  0  0
 28 29  1  0  0  0
 28 41  1  0  0  0
 28 74  1  0  0  0
 29 75  1  0  0  0
 29 76  1  0  0  0
 29 77  1  0  0  0
 30 78  1  0  0  0
 32 79  1  0  0  0
 33 80  1  0  0  0
 34 81  1  0  0  0
 35 82  1  0  0  0
 38 83  1  0  0  0
 39 84  1  0  0  0
 40 85  1  0  0  0
M  END
> <s_m_source_file>
../1ibg_ligand.sdf

> <i_m_source_file_index>
1

> <s_epik_input>
W0NIM11bQ0BIXShPMSlbQ0BIXShbT0hdKVtDQEBIXShbT0hdKVtDQEBIXShbT0hdKVtDQEBIXTFPW0NASF0oW0NIMl0yKVtDSDJdW0NAQEhdKFtPSF0pW0NAXShbQ0BAXTIzW09IXSkoW0NIMl1bT0hdKVtDQEBIXTRbQ0BASF0oW0NIMl1bQ0gyXTMpW0NAXTUoW09IXSlbQ0BdKFtDSDNdKShbQ0gyXVtDQEhdNFtPSF0pW0NASF0oW0NIMl1bQ0gyXTUpQzY9W0NIXUMoPU8pT1tDSDJdNg==

> <s_epik_cmdline>
J2VwaWtfYXBwJywgJy1pbWFlJywgJ2xpZ2FuZF9wcm8ubWFlJywgJy1vbWFlJywgJ2xpZ2FuZF9wcmVwLm1hZScsICctbXMnLCAnMScsICctcGgnLCAnNycsICctcGh0JywgJzAuNScsICctbnQn

> <r_lp_tautomer_probability>
1

> <r_epik_Ionization_Penalty>
  0.0000

> <r_epik_Ionization_Penalty_Charging>
  0.0000

> <r_epik_Ionization_Penalty_Neutral>
  0.0000

> <r_epik_State_Penalty>
 -0.0000

> <r_epik_Charging_Adjusted_Penalty>
0

> <i_epik_Tot_Q>
0

> <i_epik_Tot_abs_Q>
0

> <s_epik_Chemistry_Notes>
This compound has an ester and may undergo hydrolysis at high or low pH. This compound contains an acetal/aminal-like group ( X-CH(R)-Y where X, Y are N, S, or O) that may be acid/base labile, releasing an aldehyde.

$$$$
