1icj_ligand
                    3D
 Schrodinger Suite 2020-3.
 66 65  0  0  1  0            999 V2000
   31.5930   37.8640   77.3400 O   0  0  0  0  0  0
   32.7220   38.6250   77.8210 C   0  0  0  0  0  0
   33.2650   39.5420   76.6910 C   0  0  0  0  0  0
   34.0800   38.7760   75.7890 O   0  0  0  0  0  0
   33.4030   38.6190   74.5350 C   0  0  0  0  0  0
   32.9820   37.1340   74.3590 C   0  0  0  0  0  0
   33.1620   36.7270   72.9870 O   0  0  0  0  0  0
   33.9580   35.5330   72.9470 C   0  0  0  0  0  0
   35.2910   35.8630   72.2860 C   0  0  0  0  0  0
   35.8300   34.6900   71.6800 O   0  0  0  0  0  0
   36.5270   35.0520   70.4860 C   0  0  0  0  0  0
   37.9410   35.4510   70.8210 C   0  0  0  0  0  0
   37.9120   36.6720   71.5500 O   0  0  0  0  0  0
   39.2190   37.2430   71.5720 C   0  0  0  0  0  0
   39.1100   38.7760   71.4810 C   0  0  0  0  0  0
   38.3540   39.3020   72.5870 O   0  0  0  0  0  0
   37.1910   39.9600   72.0860 C   0  0  0  0  0  0
   36.6810   40.9670   73.1200 C   0  0  0  0  0  0
   35.2870   40.7370   73.3840 O   0  0  0  0  0  0
   34.4980   41.1640   72.2560 C   0  0  0  0  0  0
   34.2290   42.6820   72.3390 C   0  0  0  0  0  0
   33.0790   42.9350   73.1700 O   0  0  0  0  0  0
   33.4810   43.6300   74.3650 C   0  0  0  0  0  0
   33.2950   45.1460   74.1690 C   0  0  0  0  0  0
   34.1310   45.6080   73.0770 O   0  0  0  0  0  0
   33.3240   46.2780   72.0700 C   0  0  0  0  0  0
   33.6270   45.7220   70.6550 C   0  0  0  0  0  0
   32.6460   44.7310   70.3040 O   0  0  0  0  0  0
   31.0798   37.1584   78.0099 H   0  0  0  0  0  0
   32.4089   39.2469   78.6726 H   0  0  0  0  0  0
   33.5178   37.9370   78.1424 H   0  0  0  0  0  0
   32.4216   39.9787   76.1361 H   0  0  0  0  0  0
   33.8704   40.3478   77.1317 H   0  0  0  0  0  0
   32.5085   39.2590   74.5186 H   0  0  0  0  0  0
   34.0769   38.9096   73.7156 H   0  0  0  0  0  0
   33.6013   36.4979   75.0084 H   0  0  0  0  0  0
   31.9233   37.0179   74.6340 H   0  0  0  0  0  0
   34.1265   35.1702   73.9717 H   0  0  0  0  0  0
   33.4319   34.7608   72.3665 H   0  0  0  0  0  0
   35.1377   36.6337   71.5163 H   0  0  0  0  0  0
   35.9938   36.2374   73.0448 H   0  0  0  0  0  0
   36.5447   34.1943   69.7974 H   0  0  0  0  0  0
   36.0148   35.8981   70.0046 H   0  0  0  0  0  0
   38.4094   34.6640   71.4303 H   0  0  0  0  0  0
   38.5141   35.5851   69.8917 H   0  0  0  0  0  0
   39.7244   36.9660   72.5089 H   0  0  0  0  0  0
   39.7988   36.8649   70.7171 H   0  0  0  0  0  0
   40.1176   39.2169   71.4991 H   0  0  0  0  0  0
   38.6054   39.0527   70.5435 H   0  0  0  0  0  0
   37.4417   40.4893   71.1549 H   0  0  0  0  0  0
   36.4066   39.2156   71.8848 H   0  0  0  0  0  0
   37.2500   40.8530   74.0545 H   0  0  0  0  0  0
   36.8124   41.9883   72.7331 H   0  0  0  0  0  0
   35.0408   40.9445   71.3248 H   0  0  0  0  0  0
   33.5378   40.6273   72.2559 H   0  0  0  0  0  0
   35.1056   43.1866   72.7714 H   0  0  0  0  0  0
   34.0396   43.0766   71.3298 H   0  0  0  0  0  0
   32.8637   43.2926   75.2106 H   0  0  0  0  0  0
   34.5393   43.4160   74.5752 H   0  0  0  0  0  0
   32.2415   45.3589   73.9350 H   0  0  0  0  0  0
   33.5793   45.6727   75.0919 H   0  0  0  0  0  0
   32.2578   46.1203   72.2901 H   0  0  0  0  0  0
   33.5450   47.3555   72.0803 H   0  0  0  0  0  0
   33.5941   46.5430   69.9237 H   0  0  0  0  0  0
   34.6271   45.2641   70.6474 H   0  0  0  0  0  0
   32.7009   44.2238   69.3294 H   0  0  0  0  0  0
  1  2  1  0  0  0
  1 29  1  0  0  0
  2  3  1  0  0  0
  2 30  1  0  0  0
  2 31  1  0  0  0
  3  4  1  0  0  0
  3 32  1  0  0  0
  3 33  1  0  0  0
  4  5  1  0  0  0
  5  6  1  0  0  0
  5 34  1  0  0  0
  5 35  1  0  0  0
  6  7  1  0  0  0
  6 36  1  0  0  0
  6 37  1  0  0  0
  7  8  1  0  0  0
  8  9  1  0  0  0
  8 38  1  0  0  0
  8 39  1  0  0  0
  9 10  1  0  0  0
  9 40  1  0  0  0
  9 41  1  0  0  0
 10 11  1  0  0  0
 11 12  1  0  0  0
 11 42  1  0  0  0
 11 43  1  0  0  0
 12 13  1  0  0  0
 12 44  1  0  0  0
 12 45  1  0  0  0
 13 14  1  0  0  0
 14 15  1  0  0  0
 14 46  1  0  0  0
 14 47  1  0  0  0
 15 16  1  0  0  0
 15 48  1  0  0  0
 15 49  1  0  0  0
 16 17  1  0  0  0
 17 18  1  0  0  0
 17 50  1  0  0  0
 17 51  1  0  0  0
 18 19  1  0  0  0
 18 52  1  0  0  0
 18 53  1  0  0  0
 19 20  1  0  0  0
 20 21  1  0  0  0
 20 54  1  0  0  0
 20 55  1  0  0  0
 21 22  1  0  0  0
 21 56  1  0  0  0
 21 57  1  0  0  0
 22 23  1  0  0  0
 23 24  1  0  0  0
 23 58  1  0  0  0
 23 59  1  0  0  0
 24 25  1  0  0  0
 24 60  1  0  0  0
 24 61  1  0  0  0
 25 26  1  0  0  0
 26 27  1  0  0  0
 26 62  1  0  0  0
 26 63  1  0  0  0
 27 28  1  0  0  0
 27 64  1  0  0  0
 27 65  1  0  0  0
 28 66  1  0  0  0
M  END
> <s_m_source_file>
../1icj_ligand.sdf

> <i_m_source_file_index>
1

> <s_epik_input>
W09IXVtDSDJdW0NIMl1PW0NIMl1bQ0gyXU9bQ0gyXVtDSDJdT1tDSDJdW0NIMl1PW0NIMl1bQ0gyXU9bQ0gyXVtDSDJdT1tDSDJdW0NIMl1PW0NIMl1bQ0gyXU9bQ0gyXVtDSDJdW09IXQ==

> <s_epik_cmdline>
J2VwaWtfYXBwJywgJy1pbWFlJywgJ2xpZ2FuZF9wcm8ubWFlJywgJy1vbWFlJywgJ2xpZ2FuZF9wcmVwLm1hZScsICctbXMnLCAnMScsICctcGgnLCAnNycsICctcGh0JywgJzAuNScsICctbnQn

> <r_lp_tautomer_probability>
1

> <r_epik_Ionization_Penalty>
  0.0000

> <r_epik_Ionization_Penalty_Charging>
  0.0000

> <r_epik_Ionization_Penalty_Neutral>
  0.0000

> <r_epik_State_Penalty>
 -0.0000

> <r_epik_Charging_Adjusted_Penalty>
0

> <i_epik_Tot_Q>
0

> <i_epik_Tot_abs_Q>
0

$$$$
