1ida_ligand
                    3D
 Schrodinger Suite 2020-3.
105109  0  0  1  0            999 V2000
   47.8780   24.8580    8.9010 N   0  0  0  0  0  0
   48.9630   25.5910    9.2450 C   0  0  0  0  0  0
   48.6900   26.8800    9.6820 C   0  0  0  0  0  0
   47.3710   27.3240    9.7940 C   0  0  0  0  0  0
   44.9760   26.9170    9.5120 C   0  0  0  0  0  0
   43.9390   26.0770    9.1660 C   0  0  0  0  0  0
   44.2400   24.8150    8.7260 C   0  0  0  0  0  0
   45.5720   24.4010    8.5860 C   0  0  0  0  0  0
   46.3170   26.4950    9.4140 C   0  0  0  0  0  0
   46.5990   25.2460    8.9670 C   0  0  0  0  0  0
   50.3060   25.1110    9.0520 C   0  0  0  0  0  0
   51.3430   25.7060    9.4470 O   0  0  0  0  0  0
   50.3850   23.9520    8.3540 N   0  0  0  0  0  0
   51.6110   23.2770    7.9600 C   0  0  2  0  0  0
   51.5490   23.1620    6.4610 C   0  0  0  0  0  0
   50.9440   22.2480    5.9090 O   0  0  0  0  0  0
   51.9010   21.9640    8.6910 C   0  0  0  0  0  0
   53.1100   21.2670    8.0860 C   0  0  0  0  0  0
   52.1190   22.2390   10.1900 C   0  0  0  0  0  0
   53.5850   23.4420    2.3560 C   0  0  0  0  0  0
   53.4760   23.8610    3.8000 C   0  0  2  0  0  0
   52.0770   24.1240    4.3100 C   0  0  2  0  0  0
   51.4160   25.4160    3.7840 C   0  0  0  0  0  0
   50.0830   25.6760    4.4390 C   0  0  0  0  0  0
   48.9840   24.8750    4.1350 C   0  0  0  0  0  0
   47.7280   25.0780    4.7250 C   0  0  0  0  0  0
   47.5730   26.0640    5.6970 C   0  0  0  0  0  0
   48.6470   26.9110    5.9710 C   0  0  0  0  0  0
   49.8930   26.7020    5.3640 C   0  0  0  0  0  0
   54.3140   25.0130    3.9610 O   0  0  0  0  0  0
   52.0990   24.1560    5.7720 N   0  0  0  0  0  0
   53.4340   22.0090    2.2870 N   0  3  1  0  0  0
   52.9690   21.5890    0.9340 C   0  0  1  0  0  0
   52.8120   20.0880    0.9100 C   0  0  0  0  0  0
   53.8300   19.2190    1.6500 C   0  0  1  0  0  0
   54.0890   19.7600    3.0150 C   0  0  0  0  0  0
   54.5560   21.1930    2.8130 C   0  0  0  0  0  0
   51.6990   22.2850    0.4860 C   0  0  0  0  0  0
   50.7620   22.3690    1.3240 O   0  0  0  0  0  0
   51.7940   22.7030   -0.8470 N   0  0  0  0  0  0
   50.7680   23.3700   -1.5610 C   0  0  0  0  0  0
   51.2960   23.7250   -2.9430 C   0  0  0  0  0  0
   50.3780   24.6280   -0.8370 C   0  0  0  0  0  0
   49.5390   22.4760   -1.7710 C   0  0  0  0  0  0
   54.8030   15.2850   -1.5790 N   0  0  0  0  0  0
   54.1660   16.3480   -1.0320 C   0  0  0  0  0  0
   52.7850   16.2890   -0.7470 C   0  0  0  0  0  0
   52.0640   15.1290   -0.9970 C   0  0  0  0  0  0
   52.7490   14.0460   -1.5650 C   0  0  0  0  0  0
   54.1210   14.1720   -1.8590 C   0  0  0  0  0  0
   52.1960   17.4370   -0.0230 C   0  0  0  0  0  0
   53.1650   17.5350    1.5340 S   0  0  0  0  0  0
   49.5106   27.5498    9.9393 H   0  0  0  0  0  0
   47.1649   28.3223   10.1799 H   0  0  0  0  0  0
   44.7551   27.9236    9.8670 H   0  0  0  0  0  0
   42.9036   26.4093    9.2408 H   0  0  0  0  0  0
   43.4333   24.1239    8.4816 H   0  0  0  0  0  0
   45.7979   23.4158    8.1780 H   0  0  0  0  0  0
   49.4092   23.5218    8.0843 H   0  0  0  0  0  0
   52.4523   23.9117    8.2753 H   0  0  0  0  0  0
   51.0406   21.2898    8.5677 H   0  0  0  0  0  0
   52.9296   21.0821    7.0168 H   0  0  0  0  0  0
   53.2767   20.3093    8.6007 H   0  0  0  0  0  0
   53.9980   21.9056    8.2030 H   0  0  0  0  0  0
   51.2325   22.7425   10.6031 H   0  0  0  0  0  0
   53.0007   22.8837   10.3201 H   0  0  0  0  0  0
   52.2795   21.2873   10.7178 H   0  0  0  0  0  0
   52.7934   23.9331    1.7710 H   0  0  0  0  0  0
   54.5687   23.7369    1.9619 H   0  0  0  0  0  0
   53.8472   23.0430    4.4349 H   0  0  0  0  0  0
   51.4681   23.2739    3.9687 H   0  0  0  0  0  0
   52.0729   26.2740    3.9900 H   0  0  0  0  0  0
   51.2545   25.3299    2.6993 H   0  0  0  0  0  0
   49.1044   24.0649    3.4158 H   0  0  0  0  0  0
   46.8768   24.4670    4.4244 H   0  0  0  0  0  0
   46.6302   26.1716    6.2333 H   0  0  0  0  0  0
   48.5161   27.7427    6.6633 H   0  0  0  0  0  0
   50.7287   27.3534    5.6197 H   0  0  0  0  0  0
   55.3644   24.9787    3.6362 H   0  0  0  0  0  0
   52.5695   25.0006    6.2966 H   0  0  0  0  0  0
   52.6441   21.8164    3.0280 H   0  0  0  0  0  0
   53.7470   21.9004    0.2215 H   0  0  0  0  0  0
   51.8438   19.8135    1.3541 H   0  0  0  0  0  0
   52.8526   19.7316   -0.1299 H   0  0  0  0  0  0
   54.8492   19.4151    1.2857 H   0  0  0  0  0  0
   53.1621   19.7226    3.6062 H   0  0  0  0  0  0
   54.8634   19.1544    3.5086 H   0  0  0  0  0  0
   55.3893   21.2095    2.0952 H   0  0  0  0  0  0
   54.8921   21.6082    3.7746 H   0  0  0  0  0  0
   52.7510   22.4785   -1.3406 H   0  0  0  0  0  0
   52.1823   24.3687   -2.8427 H   0  0  0  0  0  0
   50.5170   24.2589   -3.5071 H   0  0  0  0  0  0
   51.5704   22.8041   -3.4784 H   0  0  0  0  0  0
   51.2675   25.2590   -0.6932 H   0  0  0  0  0  0
   49.9496   24.3694    0.1426 H   0  0  0  0  0  0
   49.6315   25.1762   -1.4305 H   0  0  0  0  0  0
   49.8383   21.5599   -2.3013 H   0  0  0  0  0  0
   48.7898   23.0169   -2.3677 H   0  0  0  0  0  0
   49.1078   22.2102   -0.7946 H   0  0  0  0  0  0
   54.7250   17.2570   -0.8100 H   0  0  0  0  0  0
   51.0022   15.0629   -0.7598 H   0  0  0  0  0  0
   52.2246   13.1143   -1.7774 H   0  0  0  0  0  0
   54.6406   13.3368   -2.3286 H   0  0  0  0  0  0
   52.3007   18.3472   -0.6318 H   0  0  0  0  0  0
   51.1299   17.2432    0.1664 H   0  0  0  0  0  0
  1  2  2  0  0  0
  1 10  1  0  0  0
  2  3  1  0  0  0
  2 11  1  0  0  0
  3  4  2  0  0  0
  3 53  1  0  0  0
  4  9  1  0  0  0
  4 54  1  0  0  0
  5  6  1  0  0  0
  5  9  2  0  0  0
  5 55  1  0  0  0
  6  7  2  0  0  0
  6 56  1  0  0  0
  7  8  1  0  0  0
  7 57  1  0  0  0
  8 10  2  0  0  0
  8 58  1  0  0  0
  9 10  1  0  0  0
 11 12  2  0  0  0
 11 13  1  0  0  0
 13 14  1  0  0  0
 13 59  1  0  0  0
 14 17  1  0  0  0
 14 15  1  0  0  0
 14 60  1  0  0  0
 15 16  2  0  0  0
 15 31  1  0  0  0
 17 19  1  0  0  0
 17 18  1  0  0  0
 17 61  1  0  0  0
 18 62  1  0  0  0
 18 63  1  0  0  0
 18 64  1  0  0  0
 19 65  1  0  0  0
 19 66  1  0  0  0
 19 67  1  0  0  0
 20 21  1  0  0  0
 20 32  1  0  0  0
 20 68  1  0  0  0
 20 69  1  0  0  0
 21 22  1  0  0  0
 21 30  1  0  0  0
 21 70  1  0  0  0
 22 23  1  0  0  0
 22 31  1  0  0  0
 22 71  1  0  0  0
 23 24  1  0  0  0
 23 72  1  0  0  0
 23 73  1  0  0  0
 24 25  2  0  0  0
 24 29  1  0  0  0
 25 26  1  0  0  0
 25 74  1  0  0  0
 26 27  2  0  0  0
 26 75  1  0  0  0
 27 28  1  0  0  0
 27 76  1  0  0  0
 28 29  2  0  0  0
 28 77  1  0  0  0
 29 78  1  0  0  0
 30 79  1  0  0  0
 31 80  1  0  0  0
 32 33  1  0  0  0
 32 37  1  0  0  0
 32 81  1  0  0  0
 33 34  1  0  0  0
 33 38  1  0  0  0
 33 82  1  0  0  0
 34 35  1  0  0  0
 34 83  1  0  0  0
 34 84  1  0  0  0
 35 36  1  0  0  0
 35 52  1  0  0  0
 35 85  1  0  0  0
 36 37  1  0  0  0
 36 86  1  0  0  0
 36 87  1  0  0  0
 37 88  1  0  0  0
 37 89  1  0  0  0
 38 39  2  0  0  0
 38 40  1  0  0  0
 40 41  1  0  0  0
 40 90  1  0  0  0
 41 42  1  0  0  0
 41 43  1  0  0  0
 41 44  1  0  0  0
 42 91  1  0  0  0
 42 92  1  0  0  0
 42 93  1  0  0  0
 43 94  1  0  0  0
 43 95  1  0  0  0
 43 96  1  0  0  0
 44 97  1  0  0  0
 44 98  1  0  0  0
 44 99  1  0  0  0
 45 46  2  0  0  0
 45 50  1  0  0  0
 46 47  1  0  0  0
 46100  1  0  0  0
 47 48  2  0  0  0
 47 51  1  0  0  0
 48 49  1  0  0  0
 48101  1  0  0  0
 49 50  2  0  0  0
 49102  1  0  0  0
 50103  1  0  0  0
 51 52  1  0  0  0
 51104  1  0  0  0
 51105  1  0  0  0
M  CHG  1  32   1
M  END
> <s_m_source_file>
../1ida_ligand.sdf

> <i_m_source_file_index>
1

> <s_epik_input>
W2NIXTFbY0hdW2NIXVtjSF1jKGMxMiluYyhbY0hdW2NIXTIpQyg9TylbTkhdW0NAQEhdKFtDSF0oW0NIM10pW0NIM10pQyg9TylbTkhdW0NAQEhdKFtDSDJdYzNbY0hdW2NIXVtjSF1bY0hdW2NIXTMpW0NASF0oW09IXSlbQ0gyXVtOQEgrXTRbQ0BIXShDKD1PKVtOSF1DKFtDSDNdKShbQ0gzXSlbQ0gzXSlbQ0gyXVtDQEBIXShbQ0gyXVtDSDJdNClTW0NIMl1jNVtjSF1uW2NIXVtjSF1bY0hdNQ==

> <s_epik_cmdline>
J2VwaWtfYXBwJywgJy1pbWFlJywgJ2xpZ2FuZF9wcm8ubWFlJywgJy1vbWFlJywgJ2xpZ2FuZF9wcmVwLm1hZScsICctbXMnLCAnMScsICctcGgnLCAnNycsICctcGh0JywgJzAuNScsICctbnQn

> <r_epik_Ionization_Penalty>
  0.1077

> <r_epik_Ionization_Penalty_Charging>
  0.1042

> <r_epik_Ionization_Penalty_Neutral>
  0.0035

> <r_epik_State_Penalty>
  0.0941

> <r_epik_Charging_Adjusted_Penalty>
0.198229776474017

> <i_epik_Tot_Q>
1

> <i_epik_Tot_abs_Q>
1

$$$$
