1idg_ligand
                    3D
 Schrodinger Suite 2020-3.
307318  0  0  1  0            999 V2000
   -4.1060  -16.1730   25.0780 N   0  3  0  0  0  0
   -2.9690  -17.0060   24.6340 C   0  0  2  0  0  0
   -2.1230  -16.1250   23.6620 C   0  0  0  0  0  0
   -1.6870  -15.0270   24.0220 O   0  0  0  0  0  0
   -3.4960  -18.3670   24.0710 C   0  0  0  0  0  0
   -4.1360  -19.4060   25.0070 C   0  0  0  0  0  0
   -3.3650  -20.0060   26.0030 C   0  0  0  0  0  0
   -5.4280  -19.8870   24.7480 C   0  0  0  0  0  0
   -3.8660  -21.0940   26.7210 C   0  0  0  0  0  0
   -5.9250  -20.9750   25.4690 C   0  0  0  0  0  0
   -5.1450  -21.5780   26.4460 C   0  0  0  0  0  0
   -5.6200  -22.6730   27.1280 O   0  0  0  0  0  0
   -1.8880  -16.5480   22.4130 N   0  0  0  0  0  0
   -2.5660  -15.9670   21.2140 C   0  0  2  0  0  0
   -3.2450  -14.5470   21.3040 C   0  0  0  0  0  0
   -4.2840  -14.3210   21.9350 O   0  0  0  0  0  0
   -3.5170  -17.0230   20.5750 C   0  0  0  0  0  0
   -2.7980  -18.2520   19.9470 C   0  0  0  0  0  0
   -3.3470  -19.6410   20.3340 C   0  0  0  0  0  0
   -4.3510  -20.1400   19.3600 N   0  0  0  0  0  0
   -4.4170  -21.4040   18.9010 C   0  0  0  0  0  0
   -3.5950  -22.3830   19.2830 N   0  0  0  0  0  0
   -5.3550  -21.6930   18.0190 N   0  0  0  0  0  0
   -2.5830  -13.6300   20.6030 N   0  0  0  0  0  0
   -3.0860  -12.3140   20.1870 C   0  0  0  0  0  0
   -1.8470  -11.4510   19.8850 C   0  0  0  0  0  0
   -1.5600  -10.5620   20.6890 O   0  0  0  0  0  0
   -1.0280  -11.5650   18.8160 N   0  0  0  0  0  0
   -1.0440  -12.5820   17.7210 C   0  0  2  0  0  0
   -1.8550  -12.0270   16.5330 C   0  0  0  0  0  0
   -3.0860  -11.9980   16.5940 O   0  0  0  0  0  0
   -1.0440  -14.1550   17.9460 C   0  0  0  0  0  0
   -2.1540  -15.0870   17.3660 C   0  0  0  0  0  0
   -3.5620  -14.9340   17.4550 C   0  0  0  0  0  0
   -1.9850  -16.2880   16.6720 C   0  0  0  0  0  0
   -4.2640  -15.9860   16.8310 N   0  0  0  0  0  0
   -3.2670  -16.8070   16.3470 C   0  0  0  0  0  0
   -0.8180  -17.0160   16.3150 C   0  0  0  0  0  0
   -3.3880  -18.0380   15.6510 C   0  0  0  0  0  0
   -0.9590  -18.2150   15.6180 C   0  0  0  0  0  0
   -2.2240  -18.7190   15.2900 C   0  0  0  0  0  0
   -1.1610  -11.6770   15.4330 N   0  0  0  0  0  0
   -1.2620  -12.4440   14.1580 C   0  0  2  0  0  0
   -2.6860  -12.9230   13.7160 C   0  0  0  0  0  0
   -3.1480  -13.9310   14.2510 O   0  0  0  0  0  0
   -0.1840  -13.5880   14.1550 C   0  0  0  0  0  0
    1.2490  -13.2600   13.6670 C   0  0  0  0  0  0
    2.0870  -12.2190   14.4410 C   0  0  0  0  0  0
    2.4320  -10.9420   13.6490 C   0  0  0  0  0  0
    1.3120  -10.0160   13.4120 N   0  3  0  0  0  0
   -3.4850  -12.3300   12.7950 N   0  0  0  0  0  0
   -3.1050  -11.2480   11.8330 C   0  0  2  0  0  0
   -2.0580  -11.6930   10.7460 C   0  0  0  0  0  0
   -1.8930  -12.8980   10.5290 O   0  0  0  0  0  0
   -3.0040   -9.8650   12.5550 C   0  0  0  0  0  0
   -3.2360   -8.6290   11.6830 C   0  0  0  0  0  0
   -4.4150   -8.3210   11.0110 N   0  0  0  0  0  0
   -2.2790   -7.6210   11.4680 C   0  0  0  0  0  0
   -4.0470   -7.1410   10.4220 C   0  0  0  0  0  0
   -2.7930   -6.6360   10.6450 N   0  0  0  0  0  0
   -1.4790  -10.7760    9.9470 N   0  0  0  0  0  0
   -1.1120  -11.0840    8.5330 C   0  0  2  0  0  0
    0.3890  -10.6900    8.2630 C   0  0  0  0  0  0
    1.2230  -11.4520    8.7530 O   0  0  0  0  0  0
   -2.3060  -10.5930    7.6580 C   0  0  0  0  0  0
   -3.4800  -11.5750    7.5710 C   0  0  0  0  0  0
   -4.6730  -11.5180    8.3150 C   0  0  0  0  0  0
   -3.4930  -12.8030    6.9460 C   0  0  0  0  0  0
   -5.4540  -12.6740    8.1390 N   0  0  0  0  0  0
   -4.6940  -13.4630    7.2930 C   0  0  0  0  0  0
   -2.4900  -13.4750    6.2070 C   0  0  0  0  0  0
   -4.9090  -14.8040    6.8890 C   0  0  0  0  0  0
   -2.7270  -14.7850    5.8000 C   0  0  0  0  0  0
   -3.9200  -15.4400    6.1260 C   0  0  0  0  0  0
    0.9600   -9.6200    7.6550 N   0  0  0  0  0  0
    0.3590   -8.6420    6.6930 C   0  0  2  0  0  0
   -0.7730   -7.7290    7.3090 C   0  0  0  0  0  0
   -1.0400   -7.8640    8.5020 O   0  0  0  0  0  0
    0.3770   -9.1520    5.1910 C   0  0  0  0  0  0
    1.7860   -9.1540    4.5520 C   0  0  0  0  0  0
   -0.2910  -10.4800    4.7690 C   0  0  0  0  0  0
   -1.4900   -6.7300    6.7490 N   0  0  0  0  0  0
   -1.1640   -5.9020    5.5550 C   0  0  2  0  0  0
   -1.7540   -6.4260    4.2170 C   0  0  0  0  0  0
   -0.9960   -6.7190    3.2910 O   0  0  0  0  0  0
    0.2740   -5.2910    5.3630 C   0  0  0  0  0  0
    1.2020   -5.0320    6.5590 C   0  0  0  0  0  0
    0.7330   -4.4110    7.7180 C   0  0  0  0  0  0
    2.5110   -5.5310    6.5290 C   0  0  0  0  0  0
    1.5220   -4.3770    8.8630 C   0  0  0  0  0  0
    3.3020   -5.4900    7.6720 C   0  0  0  0  0  0
    2.7980   -4.9350    8.8470 C   0  0  0  0  0  0
    3.5360   -4.9750   10.0000 O   0  0  0  0  0  0
   -3.0890   -6.4880    4.0340 N   0  0  0  0  0  0
   -3.6620   -6.5460    2.6620 C   0  0  2  0  0  0
   -4.9020   -5.6300    2.4820 C   0  0  0  0  0  0
   -5.9630   -5.8110    3.0860 O   0  0  0  0  0  0
   -3.8790   -7.9400    1.9860 C   0  0  0  0  0  0
   -3.9340   -9.2810    2.7390 C   0  0  0  0  0  0
   -5.0700   -9.6430    3.4730 C   0  0  0  0  0  0
   -2.9890  -10.2580    2.4140 C   0  0  0  0  0  0
   -5.2900  -10.9810    3.8000 C   0  0  0  0  0  0
   -3.2020  -11.5880    2.7570 C   0  0  0  0  0  0
   -4.3690  -11.9570    3.4210 C   0  0  0  0  0  0
   -4.6410  -13.2850    3.6400 O   0  0  0  0  0  0
   -4.7500   -4.7660    1.4690 N   0  0  0  0  0  0
   -5.7920   -4.3710    0.4820 C   0  0  2  0  0  0
   -6.9020   -5.3830    0.0260 C   0  0  0  0  0  0
   -7.9020   -4.9160   -0.5290 O   0  0  0  0  0  0
   -5.1110   -3.7460   -0.7940 C   0  0  2  0  0  0
   -3.6830   -3.8280   -0.8270 O   0  0  0  0  0  0
   -5.5180   -2.2960   -1.0850 C   0  0  0  0  0  0
   -6.7630   -6.7160    0.2420 N   0  0  0  0  0  0
   -7.8580   -7.7170    0.0970 C   0  0  2  0  0  0
   -9.2160   -7.2530    0.6580 C   0  0  0  0  0  0
   -9.3140   -6.5880    1.7000 O   0  0  0  0  0  0
   -7.5200   -9.0280    0.8610 C   0  0  0  0  0  0
   -8.9430  -10.1620    1.0690 S   0  0  0  0  0  0
  -10.2520   -7.7260   -0.0350 N   0  0  0  0  0  0
  -11.6330   -7.7000    0.4770 C   0  0  2  0  0  0
  -12.1340   -6.2280    0.7270 C   0  0  0  0  0  0
  -12.3630   -5.8650    1.8850 O   0  0  0  0  0  0
  -11.8560   -8.7700    1.5900 C   0  0  0  0  0  0
  -10.3410   -9.4410    2.3720 S   0  0  0  0  0  0
  -12.3060   -5.3540   -0.3160 N   0  0  0  0  0  0
  -12.8220   -3.9700   -0.1640 C   0  0  2  0  0  0
  -14.1900   -3.8030    0.5360 C   0  0  0  0  0  0
  -14.8920   -4.7600    0.8740 O   0  0  0  0  0  0
  -12.8400   -3.4130   -1.6200 C   0  0  0  0  0  0
  -12.6810   -4.6210   -2.5240 C   0  0  0  0  0  0
  -11.8530   -5.5940   -1.6980 C   0  0  0  0  0  0
  -14.6580   -2.5490    0.5560 N   0  0  0  0  0  0
  -14.7270   -1.7110    1.7620 C   0  0  2  0  0  0
  -16.1210   -1.6660    2.4640 C   0  0  0  0  0  0
  -16.1110   -1.5160    3.6830 O   0  0  0  0  0  0
  -14.2100   -0.2980    1.3830 C   0  0  0  0  0  0
  -14.0060    0.6550    2.5690 C   0  0  0  0  0  0
  -13.2080    0.3370    3.4800 O   0  0  0  0  0  0
  -14.5970    1.7550    2.5460 O   0  0  0  0  0  0
  -17.3380   -1.8260    1.9370 N   0  0  0  0  0  0
  -17.7500   -1.8300    0.5160 C   0  0  2  0  0  0
  -18.7570   -0.6300    0.2790 C   0  0  0  0  0  0
  -19.2510   -0.0590    1.2680 O   0  0  0  0  0  0
  -18.3010   -3.2640    0.1670 C   0  0  1  0  0  0
  -17.4810   -3.7370   -0.8970 O   0  0  0  0  0  0
  -18.3780   -4.4290    1.2150 C   0  0  0  0  0  0
  -19.1300   -0.1770   -0.9670 N   0  0  0  0  0  0
  -20.0190    0.9950   -1.1660 C   0  0  2  0  0  0
  -21.5400    0.6590   -1.1950 C   0  0  0  0  0  0
  -22.2110    0.8730   -0.1780 O   0  0  0  0  0  0
  -19.4650    1.7080   -2.4190 C   0  0  0  0  0  0
  -18.4750    0.7350   -3.0640 C   0  0  0  0  0  0
  -18.5460   -0.5780   -2.2700 C   0  0  0  0  0  0
  -22.0480    0.0330   -2.2890 N   0  0  0  0  0  0
  -23.1330   -0.9760   -2.1970 C   0  0  2  0  0  0
  -24.5670   -0.3580   -2.2430 C   0  0  0  0  0  0
  -25.3510   -0.7220   -3.1490 O   0  0  0  0  0  0
  -22.8020   -2.0740   -1.1140 C   0  0  0  0  0  0
  -23.9660   -2.7780   -0.4380 C   0  0  0  0  0  0
  -24.6350   -3.7890   -1.1220 C   0  0  0  0  0  0
  -24.4610   -2.3180    0.7910 C   0  0  0  0  0  0
  -25.8140   -4.3150   -0.6090 C   0  0  0  0  0  0
  -25.6480   -2.8400    1.2960 C   0  0  0  0  0  0
  -26.3270   -3.8290    0.5930 C   0  0  0  0  0  0
  -27.5270   -4.2930    1.0520 O   0  0  0  0  0  0
  -24.9480    0.5379   -1.3369 O   0  0  0  0  0  0
   -4.7366  -16.7516   25.7691 H   0  0  0  0  0  0
   -4.7018  -15.8701   24.2043 H   0  0  0  0  0  0
   -3.7259  -15.2773   25.5910 H   0  0  0  0  0  0
   -2.3302  -17.2817   25.4860 H   0  0  0  0  0  0
   -4.2783  -18.1756   23.3218 H   0  0  0  0  0  0
   -2.6660  -18.9160   23.6023 H   0  0  0  0  0  0
   -2.3678  -19.6241   26.2216 H   0  0  0  0  0  0
   -6.0438  -19.4118   23.9844 H   0  0  0  0  0  0
   -3.2589  -21.5640   27.4947 H   0  0  0  0  0  0
   -6.9273  -21.3513   25.2641 H   0  0  0  0  0  0
   -5.0008  -23.1500   27.9021 H   0  0  0  0  0  0
   -1.1579  -17.3617   22.2916 H   0  0  0  0  0  0
   -1.6732  -15.7635   20.6044 H   0  0  0  0  0  0
   -4.2004  -17.4136   21.3434 H   0  0  0  0  0  0
   -4.1007  -16.5516   19.7706 H   0  0  0  0  0  0
   -2.8665  -18.1961   18.8506 H   0  0  0  0  0  0
   -1.7402  -18.2517   20.2488 H   0  0  0  0  0  0
   -2.5195  -20.3647   20.3720 H   0  0  0  0  0  0
   -3.8289  -19.5828   21.3211 H   0  0  0  0  0  0
   -5.1151  -19.4576   18.9594 H   0  0  0  0  0  0
   -2.8009  -22.1796   20.0166 H   0  0  0  0  0  0
   -3.7113  -23.3936   18.8644 H   0  0  0  0  0  0
   -6.0511  -20.9115   17.6804 H   0  0  0  0  0  0
   -1.5621  -13.9388   20.3340 H   0  0  0  0  0  0
   -3.7146  -12.4281   19.2915 H   0  0  0  0  0  0
   -3.6828  -11.8756   21.0004 H   0  0  0  0  0  0
   -0.2701  -10.7677   18.8151 H   0  0  0  0  0  0
    0.0411  -12.5806   17.5408 H   0  0  0  0  0  0
   -0.1244  -14.5858   17.5233 H   0  0  0  0  0  0
   -1.0885  -14.3713   19.0236 H   0  0  0  0  0  0
   -4.0482  -14.0944   17.9518 H   0  0  0  0  0  0
    0.1709  -16.6431   16.5817 H   0  0  0  0  0  0
   -4.3692  -18.4432   15.4035 H   0  0  0  0  0  0
   -0.0687  -18.7703   15.3229 H   0  0  0  0  0  0
   -2.3009  -19.6590   14.7436 H   0  0  0  0  0  0
   -0.5048  -10.7963   15.4946 H   0  0  0  0  0  0
   -1.0406  -11.6704   13.4079 H   0  0  0  0  0  0
   -0.0493  -13.9676   15.1786 H   0  0  0  0  0  0
   -0.5199  -14.4067   13.5016 H   0  0  0  0  0  0
    1.8609  -14.1739   13.6860 H   0  0  0  0  0  0
    1.2060  -12.8688   12.6398 H   0  0  0  0  0  0
    1.5346  -11.8955   15.3356 H   0  0  0  0  0  0
    3.0434  -12.6701   14.7439 H   0  0  0  0  0  0
    3.1966  -10.3683   14.1933 H   0  0  0  0  0  0
    2.8184  -11.2189   12.6570 H   0  0  0  0  0  0
    1.6700   -9.1459   12.8421 H   0  0  0  0  0  0
    0.9038   -9.6799   14.3766 H   0  0  0  0  0  0
    0.5256  -10.5305   12.8403 H   0  0  0  0  0  0
   -4.5113  -12.7259   12.8001 H   0  0  0  0  0  0
   -3.9641  -11.0869   11.1652 H   0  0  0  0  0  0
   -3.7542   -9.8149   13.3580 H   0  0  0  0  0  0
   -1.9983   -9.7484   12.9850 H   0  0  0  0  0  0
   -1.2512   -7.5368   11.8509 H   0  0  0  0  0  0
   -4.7472   -6.6068    9.7798 H   0  0  0  0  0  0
   -1.2776   -9.7776   10.3625 H   0  0  0  0  0  0
   -1.0581  -12.1558    8.2913 H   0  0  0  0  0  0
   -2.7044   -9.6559    8.0740 H   0  0  0  0  0  0
   -1.9591  -10.4189    6.6287 H   0  0  0  0  0  0
   -4.9573  -10.6794    8.9507 H   0  0  0  0  0  0
   -1.5518  -12.9772    5.9618 H   0  0  0  0  0  0
   -5.8232  -15.3294    7.1654 H   0  0  0  0  0  0
   -1.9701  -15.3098    5.2171 H   0  0  0  0  0  0
   -4.0827  -16.4611    5.7811 H   0  0  0  0  0  0
    2.0125   -9.5176    7.9578 H   0  0  0  0  0  0
    1.0878   -7.8252    6.5850 H   0  0  0  0  0  0
   -0.2977   -8.3868    4.7795 H   0  0  0  0  0  0
    2.3116   -8.2257    4.8204 H   0  0  0  0  0  0
    1.6923   -9.2191    3.4579 H   0  0  0  0  0  0
    2.3558  -10.0185    4.9234 H   0  0  0  0  0  0
   -1.3026  -10.5340    5.1976 H   0  0  0  0  0  0
    0.3088  -11.3254    5.1372 H   0  0  0  0  0  0
   -0.3547  -10.5260    3.6718 H   0  0  0  0  0  0
   -2.4274   -6.5581    7.2982 H   0  0  0  0  0  0
   -1.7580   -5.0588    5.9373 H   0  0  0  0  0  0
    0.8718   -5.9549    4.7212 H   0  0  0  0  0  0
    0.1917   -4.3010    4.8907 H   0  0  0  0  0  0
   -0.2552   -3.9511    7.7257 H   0  0  0  0  0  0
    2.9106   -5.9527    5.6067 H   0  0  0  0  0  0
    1.1415   -3.9135    9.7732 H   0  0  0  0  0  0
    4.3151   -5.8915    7.6490 H   0  0  0  0  0  0
    3.1348   -4.5359   10.9253 H   0  0  0  0  0  0
   -3.7554   -6.4955    4.9091 H   0  0  0  0  0  0
   -2.7831   -6.1284    2.1490 H   0  0  0  0  0  0
   -4.8454   -7.9463    1.4606 H   0  0  0  0  0  0
   -3.0690   -8.1284    1.2660 H   0  0  0  0  0  0
   -5.7817   -8.8801    3.7885 H   0  0  0  0  0  0
   -2.0777   -9.9747    1.8873 H   0  0  0  0  0  0
   -6.1850  -11.2647    4.3537 H   0  0  0  0  0  0
   -2.4558  -12.3419    2.5063 H   0  0  0  0  0  0
   -5.5624  -13.5785    4.1643 H   0  0  0  0  0  0
   -3.7399   -4.3353    1.4045 H   0  0  0  0  0  0
   -6.3350   -3.6784    1.1419 H   0  0  0  0  0  0
   -5.4091   -4.3975   -1.6287 H   0  0  0  0  0  0
   -3.1829   -4.7901   -0.6420 H   0  0  0  0  0  0
   -6.6146   -2.2118   -1.0641 H   0  0  0  0  0  0
   -5.1466   -2.0032   -2.0781 H   0  0  0  0  0  0
   -5.0847   -1.6333   -0.3214 H   0  0  0  0  0  0
   -5.7566   -7.0416    0.5438 H   0  0  0  0  0  0
   -7.9137   -7.8315   -0.9956 H   0  0  0  0  0  0
   -6.7430   -9.5815    0.3134 H   0  0  0  0  0  0
   -7.1534   -8.7813    1.8683 H   0  0  0  0  0  0
  -10.0416   -8.1486   -1.0286 H   0  0  0  0  0  0
  -12.2675   -8.0631   -0.3449 H   0  0  0  0  0  0
  -12.4527   -8.3331    2.4043 H   0  0  0  0  0  0
  -12.3899   -9.6336    1.1667 H   0  0  0  0  0  0
  -12.1482   -3.4588    0.5393 H   0  0  0  0  0  0
  -13.7948   -2.8987   -1.8040 H   0  0  0  0  0  0
  -12.0100   -2.7032   -1.7514 H   0  0  0  0  0  0
  -13.6730   -5.0273   -2.7709 H   0  0  0  0  0  0
  -12.1669   -4.3215   -3.4492 H   0  0  0  0  0  0
  -10.7746   -5.3897   -1.7711 H   0  0  0  0  0  0
  -12.0469   -6.6419   -1.9707 H   0  0  0  0  0  0
  -15.0046   -2.1526   -0.4098 H   0  0  0  0  0  0
  -14.0676   -2.2170    2.4826 H   0  0  0  0  0  0
  -13.2368   -0.3869    0.8780 H   0  0  0  0  0  0
  -14.9304    0.1872    0.7080 H   0  0  0  0  0  0
  -13.0528    1.0111    4.3353 H   0  0  0  0  0  0
  -18.0890   -1.9698    2.7278 H   0  0  0  0  0  0
  -16.8724   -1.6539   -0.1234 H   0  0  0  0  0  0
  -19.3541   -3.0980   -0.1040 H   0  0  0  0  0  0
  -17.2760   -3.0901   -1.7628 H   0  0  0  0  0  0
  -19.0033   -4.1172    2.0646 H   0  0  0  0  0  0
  -17.3656   -4.6677    1.5729 H   0  0  0  0  0  0
  -18.8191   -5.3189    0.7422 H   0  0  0  0  0  0
  -19.9552    1.6448   -0.2808 H   0  0  0  0  0  0
  -20.2931    1.9410   -3.1045 H   0  0  0  0  0  0
  -18.9640    2.6402   -2.1190 H   0  0  0  0  0  0
  -18.7566    0.5679   -4.1141 H   0  0  0  0  0  0
  -17.4614    1.1599   -3.0193 H   0  0  0  0  0  0
  -17.5512   -1.0179   -2.1061 H   0  0  0  0  0  0
  -19.1999   -1.3195   -2.7522 H   0  0  0  0  0  0
  -21.6254    0.2984   -3.2693 H   0  0  0  0  0  0
  -23.1147   -1.5132   -3.1567 H   0  0  0  0  0  0
  -22.2095   -2.8776   -1.5758 H   0  0  0  0  0  0
  -22.2266   -1.6189   -0.2944 H   0  0  0  0  0  0
  -24.2332   -4.1685   -2.0615 H   0  0  0  0  0  0
  -23.9181   -1.5547    1.3484 H   0  0  0  0  0  0
  -26.3373   -5.1065   -1.1454 H   0  0  0  0  0  0
  -26.0454   -2.4736    2.2425 H   0  0  0  0  0  0
  -28.0635   -5.0754    0.4952 H   0  0  0  0  0  0
  -25.9602    0.9665   -1.3790 H   0  0  0  0  0  0
  1  2  1  0  0  0
  1167  1  0  0  0
  1168  1  0  0  0
  1169  1  0  0  0
  2  5  1  0  0  0
  2  3  1  0  0  0
  2170  1  0  0  0
  3  4  2  0  0  0
  3 13  1  0  0  0
  5  6  1  0  0  0
  5171  1  0  0  0
  5172  1  0  0  0
  6  7  2  0  0  0
  6  8  1  0  0  0
  7  9  1  0  0  0
  7173  1  0  0  0
  8 10  2  0  0  0
  8174  1  0  0  0
  9 11  2  0  0  0
  9175  1  0  0  0
 10 11  1  0  0  0
 10176  1  0  0  0
 11 12  1  0  0  0
 12177  1  0  0  0
 13 14  1  0  0  0
 13178  1  0  0  0
 14 17  1  0  0  0
 14 15  1  0  0  0
 14179  1  0  0  0
 15 16  2  0  0  0
 15 24  1  0  0  0
 17 18  1  0  0  0
 17180  1  0  0  0
 17181  1  0  0  0
 18 19  1  0  0  0
 18182  1  0  0  0
 18183  1  0  0  0
 19 20  1  0  0  0
 19184  1  0  0  0
 19185  1  0  0  0
 20 21  1  0  0  0
 20186  1  0  0  0
 21 23  2  0  0  0
 21 22  1  0  0  0
 22187  1  0  0  0
 22188  1  0  0  0
 23189  1  0  0  0
 24 25  1  0  0  0
 24190  1  0  0  0
 25 26  1  0  0  0
 25191  1  0  0  0
 25192  1  0  0  0
 26 27  2  0  0  0
 26 28  1  0  0  0
 28 29  1  0  0  0
 28193  1  0  0  0
 29 32  1  0  0  0
 29 30  1  0  0  0
 29194  1  0  0  0
 30 31  2  0  0  0
 30 42  1  0  0  0
 32 33  1  0  0  0
 32195  1  0  0  0
 32196  1  0  0  0
 33 34  2  0  0  0
 33 35  1  0  0  0
 34 36  1  0  0  0
 34197  1  0  0  0
 35 38  2  0  0  0
 35 37  1  0  0  0
 36 37  1  0  0  0
 37 39  2  0  0  0
 38 40  1  0  0  0
 38198  1  0  0  0
 39 41  1  0  0  0
 39199  1  0  0  0
 40 41  2  0  0  0
 40200  1  0  0  0
 41201  1  0  0  0
 42 43  1  0  0  0
 42202  1  0  0  0
 43 46  1  0  0  0
 43 44  1  0  0  0
 43203  1  0  0  0
 44 45  2  0  0  0
 44 51  1  0  0  0
 46 47  1  0  0  0
 46204  1  0  0  0
 46205  1  0  0  0
 47 48  1  0  0  0
 47206  1  0  0  0
 47207  1  0  0  0
 48 49  1  0  0  0
 48208  1  0  0  0
 48209  1  0  0  0
 49 50  1  0  0  0
 49210  1  0  0  0
 49211  1  0  0  0
 50212  1  0  0  0
 50213  1  0  0  0
 50214  1  0  0  0
 51 52  1  0  0  0
 51215  1  0  0  0
 52 55  1  0  0  0
 52 53  1  0  0  0
 52216  1  0  0  0
 53 54  2  0  0  0
 53 61  1  0  0  0
 55 56  1  0  0  0
 55217  1  0  0  0
 55218  1  0  0  0
 56 57  2  0  0  0
 56 58  1  0  0  0
 57 59  1  0  0  0
 58 60  2  0  0  0
 58219  1  0  0  0
 59 60  1  0  0  0
 59220  1  0  0  0
 61 62  1  0  0  0
 61221  1  0  0  0
 62 65  1  0  0  0
 62 63  1  0  0  0
 62222  1  0  0  0
 63 64  2  0  0  0
 63 75  1  0  0  0
 65 66  1  0  0  0
 65223  1  0  0  0
 65224  1  0  0  0
 66 67  2  0  0  0
 66 68  1  0  0  0
 67 69  1  0  0  0
 67225  1  0  0  0
 68 71  2  0  0  0
 68 70  1  0  0  0
 69 70  1  0  0  0
 70 72  2  0  0  0
 71 73  1  0  0  0
 71226  1  0  0  0
 72 74  1  0  0  0
 72227  1  0  0  0
 73 74  2  0  0  0
 73228  1  0  0  0
 74229  1  0  0  0
 75 76  1  0  0  0
 75230  1  0  0  0
 76 79  1  0  0  0
 76 77  1  0  0  0
 76231  1  0  0  0
 77 78  2  0  0  0
 77 82  1  0  0  0
 79 81  1  0  0  0
 79 80  1  0  0  0
 79232  1  0  0  0
 80233  1  0  0  0
 80234  1  0  0  0
 80235  1  0  0  0
 81236  1  0  0  0
 81237  1  0  0  0
 81238  1  0  0  0
 82 83  1  0  0  0
 82239  1  0  0  0
 83 86  1  0  0  0
 83 84  1  0  0  0
 83240  1  0  0  0
 84 85  2  0  0  0
 84 94  1  0  0  0
 86 87  1  0  0  0
 86241  1  0  0  0
 86242  1  0  0  0
 87 88  2  0  0  0
 87 89  1  0  0  0
 88 90  1  0  0  0
 88243  1  0  0  0
 89 91  2  0  0  0
 89244  1  0  0  0
 90 92  2  0  0  0
 90245  1  0  0  0
 91 92  1  0  0  0
 91246  1  0  0  0
 92 93  1  0  0  0
 93247  1  0  0  0
 94 95  1  0  0  0
 94248  1  0  0  0
 95 98  1  0  0  0
 95 96  1  0  0  0
 95249  1  0  0  0
 96 97  2  0  0  0
 96106  1  0  0  0
 98 99  1  0  0  0
 98250  1  0  0  0
 98251  1  0  0  0
 99100  2  0  0  0
 99101  1  0  0  0
100102  1  0  0  0
100252  1  0  0  0
101103  2  0  0  0
101253  1  0  0  0
102104  2  0  0  0
102254  1  0  0  0
103104  1  0  0  0
103255  1  0  0  0
104105  1  0  0  0
105256  1  0  0  0
106107  1  0  0  0
106257  1  0  0  0
107110  1  0  0  0
107108  1  0  0  0
107258  1  0  0  0
108109  2  0  0  0
108113  1  0  0  0
110112  1  0  0  0
110111  1  0  0  0
110259  1  0  0  0
111260  1  0  0  0
112261  1  0  0  0
112262  1  0  0  0
112263  1  0  0  0
113114  1  0  0  0
113264  1  0  0  0
114117  1  0  0  0
114115  1  0  0  0
114265  1  0  0  0
115116  2  0  0  0
115119  1  0  0  0
117118  1  0  0  0
117266  1  0  0  0
117267  1  0  0  0
118124  1  0  0  0
119120  1  0  0  0
119268  1  0  0  0
120123  1  0  0  0
120121  1  0  0  0
120269  1  0  0  0
121122  2  0  0  0
121125  1  0  0  0
123124  1  0  0  0
123270  1  0  0  0
123271  1  0  0  0
125126  1  0  0  0
125131  1  0  0  0
126127  1  0  0  0
126129  1  0  0  0
126272  1  0  0  0
127128  2  0  0  0
127132  1  0  0  0
129130  1  0  0  0
129273  1  0  0  0
129274  1  0  0  0
130131  1  0  0  0
130275  1  0  0  0
130276  1  0  0  0
131277  1  0  0  0
131278  1  0  0  0
132133  1  0  0  0
132279  1  0  0  0
133136  1  0  0  0
133134  1  0  0  0
133280  1  0  0  0
134135  2  0  0  0
134140  1  0  0  0
136137  1  0  0  0
136281  1  0  0  0
136282  1  0  0  0
137138  1  0  0  0
137139  2  0  0  0
138283  1  0  0  0
140141  1  0  0  0
140284  1  0  0  0
141144  1  0  0  0
141142  1  0  0  0
141285  1  0  0  0
142143  2  0  0  0
142147  1  0  0  0
144146  1  0  0  0
144145  1  0  0  0
144286  1  0  0  0
145287  1  0  0  0
146288  1  0  0  0
146289  1  0  0  0
146290  1  0  0  0
147148  1  0  0  0
147153  1  0  0  0
148149  1  0  0  0
148151  1  0  0  0
148291  1  0  0  0
149150  2  0  0  0
149154  1  0  0  0
151152  1  0  0  0
151292  1  0  0  0
151293  1  0  0  0
152153  1  0  0  0
152294  1  0  0  0
152295  1  0  0  0
153296  1  0  0  0
153297  1  0  0  0
154155  1  0  0  0
154298  1  0  0  0
155158  1  0  0  0
155156  1  0  0  0
155299  1  0  0  0
156157  2  0  0  0
156166  1  0  0  0
158159  1  0  0  0
158300  1  0  0  0
158301  1  0  0  0
159160  2  0  0  0
159161  1  0  0  0
160162  1  0  0  0
160302  1  0  0  0
161163  2  0  0  0
161303  1  0  0  0
162164  2  0  0  0
162304  1  0  0  0
163164  1  0  0  0
163305  1  0  0  0
164165  1  0  0  0
165306  1  0  0  0
166307  1  0  0  0
M  CHG  2   1   1  50   1
M  END
> <s_m_source_file>
../1idg_ligand.sdf

> <i_m_source_file_index>
1

> <s_epik_input>
W2NIXTFbY0hdYyhbT0hdKVtjSF1bY0hdYzFbQ0gyXVtDQEhdKFtOSDMrXSlDKD1PKVtOSF1bQ0BASF0oW0NIMl1bQ0gyXVtDSDJdW05IXS9DKFtOSDJdKT1OXFtIXSlDKD1PKVtOSF1bQ0gyXUMoPU8pW05IXVtDQEBIXShbQ0gyXWMyW2NIXVtuSF1jKGMyMylbY0hdW2NIXVtjSF1bY0hdMylDKD1PKVtOSF1bQ0BASF0oW0NIMl1bQ0gyXVtDSDJdW0NIMl1bTkgzK10pQyg9TylbTkhdW0NAQEhdKFtDSDJdQzQ9TltDSDJdTj1bQ0hdNClDKD1PKVtOSF1bQ0BASF0oW0NIMl1jNVtjSF1bbkhdYyhjNTYpW2NIXVtjSF1bY0hdW2NIXTYpQyg9TylbTkhdW0NAQEhdKFtDSF0oW0NIM10pW0NIM10pQyg9TylbTkhdW0NAQEhdKFtDSDJdYzdbY0hdW2NIXWMoW09IXSlbY0hdW2NIXTcpQyg9TylbTkhdW0NAQEhdKFtDSDJdYzhbY0hdW2NIXWMoW09IXSlbY0hdW2NIXTgpQyg9TylbTkhdW0NAQEhdKFtDQEhdKFtPSF0pW0NIM10pQyg9TylbTkhdW0NAQEhdOUMoPU8pW05IXVtDQEBIXShbQ0gyXVNTW0NIMl05KUMoPU8pTjFbQ0BASF0oW0NIMl1bQ0gyXVtDSDJdMSlDKD1PKVtOSF1bQ0BASF0oW0NIMl1DKD1PKVtPSF0pQyg9TylbTkhdW0NAQEhdKFtDQEBIXShbT0hdKVtDSDNdKUMoPU8pTjFbQ0BASF0oW0NIMl1bQ0gyXVtDSDJdMSlDKD1PKVtOSF1bQ0BIXShDKD1PKVtPSF0pW0NIMl1jMVtjSF1bY0hdYyhbT0hdKVtjSF1bY0hdMQ==

> <s_epik_cmdline>
J2VwaWtfYXBwJywgJy1pbWFlJywgJ2xpZ2FuZF9wcm8ubWFlJywgJy1vbWFlJywgJ2xpZ2FuZF9wcmVwLm1hZScsICctbXMnLCAnMScsICctcGgnLCAnNycsICctcGh0JywgJzAuNScsICctbnQn

> <s_epik_pKa_notes>
Molecule size exceeds maximum supported for generating protonation states

> <s_epik_Chemistry_Notes>
This compound has an imine and may undergo hydrolysis.

$$$$
