1ie9_ligand
                    3D
 Schrodinger Suite 2020-3.
 74 76  0  0  1  0            999 V2000
   16.9800   17.5100   34.6530 O   0  0  0  0  0  0
    4.6030   26.3090   34.8340 O   0  0  0  0  0  0
   14.1900   17.4070   35.5340 C   0  0  1  0  0  0
   14.8850   16.3260   34.6780 C   0  0  0  0  0  0
   15.9770   17.0020   33.7970 C   0  0  1  0  0  0
   15.3640   18.1640   33.0050 C   0  0  0  0  0  0
   14.5540   19.1610   33.7870 C   0  0  0  0  0  0
   14.7020   20.4720   33.4950 C   0  0  0  0  0  0
   14.0990   21.6380   34.1650 C   0  0  0  0  0  0
   13.8420   22.8600   33.6810 C   0  0  0  0  0  0
   14.1920   23.3060   32.2700 C   0  0  0  0  0  0
   13.6120   18.5750   34.7620 C   0  0  0  0  0  0
   12.8740   23.6780   31.5580 C   0  0  0  0  0  0
   12.0280   24.6670   32.4050 C   0  0  0  0  0  0
   11.7400   24.1920   33.8560 C   0  0  1  0  0  0
   13.1630   23.9190   34.4800 C   0  0  1  0  0  0
   12.9450   23.7500   35.9730 C   0  0  0  0  0  0
   11.7720   24.7360   36.1940 C   0  0  0  0  0  0
   11.2500   25.2820   34.8340 C   0  0  2  0  0  0
   10.8410   22.9170   33.8900 C   0  0  0  0  0  0
   12.2960   18.9620   34.8400 C   0  0  0  0  0  0
    9.7230   25.5380   34.9110 C   0  0  1  0  0  0
    9.4280   26.5180   36.1020 C   0  0  0  0  0  0
    9.0600   25.8970   33.6160 C   0  0  0  0  0  0
    7.4920   26.0950   33.8050 C   0  0  0  0  0  0
    6.5730   24.9620   34.2050 C   0  0  0  0  0  0
    5.0440   25.2150   34.0620 C   0  0  0  0  0  0
    4.6470   25.4180   32.6280 C   0  0  0  0  0  0
    4.2480   24.0530   34.6660 C   0  0  0  0  0  0
   13.2270   16.8630   36.4060 O   0  0  0  0  0  0
   17.5411   16.8277   35.3084 H   0  0  0  0  0  0
    5.0011   27.3157   34.6391 H   0  0  0  0  0  0
   14.9508   17.8180   36.2139 H   0  0  0  0  0  0
   15.3505   15.5791   35.3378 H   0  0  0  0  0  0
   14.1412   15.8337   34.0343 H   0  0  0  0  0  0
   16.4782   16.2923   33.1223 H   0  0  0  0  0  0
   16.1659   18.7427   32.5232 H   0  0  0  0  0  0
   14.6860   17.7660   32.2356 H   0  0  0  0  0  0
   15.3447   20.7797   32.6570 H   0  0  0  0  0  0
   13.8501   21.3963   35.2089 H   0  0  0  0  0  0
   14.8620   24.1772   32.3164 H   0  0  0  0  0  0
   14.6955   22.4841   31.7399 H   0  0  0  0  0  0
   13.1005   24.1530   30.5921 H   0  0  0  0  0  0
   12.2793   22.7683   31.3887 H   0  0  0  0  0  0
   12.5569   25.6284   32.4829 H   0  0  0  0  0  0
   11.0528   24.8232   31.9208 H   0  0  0  0  0  0
   13.9426   24.6929   34.4233 H   0  0  0  0  0  0
   12.6920   22.7018   36.1903 H   0  0  0  0  0  0
   13.8643   24.0244   36.5112 H   0  0  0  0  0  0
   10.9494   24.2178   36.7086 H   0  0  0  0  0  0
   12.1145   25.5814   36.8089 H   0  0  0  0  0  0
   11.6172   26.2659   34.5067 H   0  0  0  0  0  0
   11.2311   22.1742   33.1786 H   0  0  0  0  0  0
    9.8117   23.1866   33.6111 H   0  0  0  0  0  0
   10.8465   22.4914   34.9043 H   0  0  0  0  0  0
   11.6294   18.4984   35.5821 H   0  0  0  0  0  0
   11.9090   19.7355   34.1604 H   0  0  0  0  0  0
    9.2169   24.5747   35.0720 H   0  0  0  0  0  0
    9.9564   26.1707   37.0021 H   0  0  0  0  0  0
    8.3459   26.5414   36.2981 H   0  0  0  0  0  0
    9.7751   27.5284   35.8400 H   0  0  0  0  0  0
    9.4877   26.8353   33.2329 H   0  0  0  0  0  0
    9.2256   25.0928   32.8840 H   0  0  0  0  0  0
    7.3089   26.8424   34.5910 H   0  0  0  0  0  0
    7.0495   26.4415   32.8594 H   0  0  0  0  0  0
    6.7879   24.0793   33.5848 H   0  0  0  0  0  0
    6.7359   24.7143   35.2643 H   0  0  0  0  0  0
    5.2228   26.2533   32.2029 H   0  0  0  0  0  0
    3.5727   25.6482   32.5740 H   0  0  0  0  0  0
    4.8547   24.5012   32.0568 H   0  0  0  0  0  0
    4.5450   23.9116   35.7157 H   0  0  0  0  0  0
    4.4548   23.1332   34.0993 H   0  0  0  0  0  0
    3.1729   24.2802   34.6166 H   0  0  0  0  0  0
   13.4847   16.0042   37.0432 H   0  0  0  0  0  0
  1  5  1  0  0  0
  1 31  1  0  0  0
  2 27  1  0  0  0
  2 32  1  0  0  0
  3  4  1  0  0  0
  3 12  1  0  0  0
  3 30  1  0  0  0
  3 33  1  0  0  0
  4  5  1  0  0  0
  4 34  1  0  0  0
  4 35  1  0  0  0
  5  6  1  0  0  0
  5 36  1  0  0  0
  6  7  1  0  0  0
  6 37  1  0  0  0
  6 38  1  0  0  0
  7  8  2  0  0  0
  7 12  1  0  0  0
  8  9  1  0  0  0
  8 39  1  0  0  0
  9 10  2  0  0  0
  9 40  1  0  0  0
 10 11  1  0  0  0
 10 16  1  0  0  0
 11 13  1  0  0  0
 11 41  1  0  0  0
 11 42  1  0  0  0
 12 21  2  0  0  0
 13 14  1  0  0  0
 13 43  1  0  0  0
 13 44  1  0  0  0
 14 15  1  0  0  0
 14 45  1  0  0  0
 14 46  1  0  0  0
 15 16  1  0  0  0
 15 19  1  0  0  0
 15 20  1  0  0  0
 16 17  1  0  0  0
 16 47  1  0  0  0
 17 18  1  0  0  0
 17 48  1  0  0  0
 17 49  1  0  0  0
 18 19  1  0  0  0
 18 50  1  0  0  0
 18 51  1  0  0  0
 19 22  1  0  0  0
 19 52  1  0  0  0
 20 53  1  0  0  0
 20 54  1  0  0  0
 20 55  1  0  0  0
 21 56  1  0  0  0
 21 57  1  0  0  0
 22 23  1  0  0  0
 22 24  1  0  0  0
 22 58  1  0  0  0
 23 59  1  0  0  0
 23 60  1  0  0  0
 23 61  1  0  0  0
 24 25  1  0  0  0
 24 62  1  0  0  0
 24 63  1  0  0  0
 25 26  1  0  0  0
 25 64  1  0  0  0
 25 65  1  0  0  0
 26 27  1  0  0  0
 26 66  1  0  0  0
 26 67  1  0  0  0
 27 28  1  0  0  0
 27 29  1  0  0  0
 28 68  1  0  0  0
 28 69  1  0  0  0
 28 70  1  0  0  0
 29 71  1  0  0  0
 29 72  1  0  0  0
 29 73  1  0  0  0
 30 74  1  0  0  0
M  END
> <s_m_source_file>
../1ie9_ligand.sdf

> <i_m_source_file_index>
1

> <s_epik_input>
W09IXVtDQEhdMVtDSDJdW0NASF0oW09IXSlbQ0gyXS9DKEMxPVtDSDJdKT1bQ0hdL1tDSF09QyhcW0NIMl1bQ0gyXVtDSDJdMilbQ0BASF0oW0NAXTIzW0NIM10pW0NIMl1bQ0gyXVtDQEBIXTNbQ0BASF0oW0NIM10pW0NIMl1bQ0gyXVtDSDJdQyhbT0hdKShbQ0gzXSlbQ0gzXQ==

> <s_epik_cmdline>
J2VwaWtfYXBwJywgJy1pbWFlJywgJ2xpZ2FuZF9wcm8ubWFlJywgJy1vbWFlJywgJ2xpZ2FuZF9wcmVwLm1hZScsICctbXMnLCAnMScsICctcGgnLCAnNycsICctcGh0JywgJzAuNScsICctbnQn

> <r_lp_tautomer_probability>
1

> <r_epik_Ionization_Penalty>
  0.0000

> <r_epik_Ionization_Penalty_Charging>
  0.0000

> <r_epik_Ionization_Penalty_Neutral>
  0.0000

> <r_epik_State_Penalty>
 -0.0000

> <r_epik_Charging_Adjusted_Penalty>
0

> <i_epik_Tot_Q>
0

> <i_epik_Tot_abs_Q>
0

$$$$
