1iem_ligand
                    3D
 Schrodinger Suite 2020-3.
 36 36  0  0  1  0            999 V2000
   26.8700    4.8590   16.6090 B   0  0  0  0  0  0
   25.7470    3.9010   16.7440 O   0  0  0  0  0  0
   27.0640    5.5810   17.8780 O   0  0  0  0  0  0
   26.5620    5.8740   15.4630 C   0  0  0  0  0  0
   25.1340    5.8180   15.1380 N   0  0  0  0  0  0
   24.6530    6.2390   13.9650 C   0  0  0  0  0  0
   25.4040    6.6990   13.0920 O   0  0  0  0  0  0
   23.2340    6.1520   13.7160 C   0  0  0  0  0  0
   22.2660    6.7310   14.4930 N   0  0  0  0  0  0
   22.7790    7.5640   15.6060 O   0  0  0  0  0  0
   21.9520    8.7390   15.8120 C   0  0  0  0  0  0
   22.6420    5.4120   12.5650 C   0  0  0  0  0  0
   23.3890    4.6380   11.6080 C   0  0  0  0  0  0
   22.4270    3.9240   10.4270 S   0  0  0  0  0  0
   21.0380    4.5790   11.1120 C   0  0  0  0  0  0
   19.7460    4.3870   10.6240 N   0  0  0  0  0  0
   21.3200    5.3110   12.1890 N   0  0  0  0  0  0
   21.7250    9.4830   14.4600 C   0  0  0  0  0  0
   22.7070    9.7110   16.7580 C   0  0  0  0  0  0
   20.6070    8.3520   16.4700 C   0  0  0  0  0  0
   19.5230    8.7950   15.9660 O   0  0  0  0  0  0
   20.6300    7.6050   17.5080 O   0  5  0  0  0  0
   25.7887    3.1085   17.5057 H   0  0  0  0  0  0
   27.2909    5.0236   18.7988 H   0  0  0  0  0  0
   26.8253    6.8899   15.7924 H   0  0  0  0  0  0
   27.1530    5.6125   14.5729 H   0  0  0  0  0  0
   24.4182    5.4191   15.8718 H   0  0  0  0  0  0
   24.4726    4.5256   11.6451 H   0  0  0  0  0  0
   19.5825    3.7697    9.7283 H   0  0  0  0  0  0
   18.8903    4.8528   11.1347 H   0  0  0  0  0  0
   22.6976    9.7444   14.0175 H   0  0  0  0  0  0
   21.1452   10.4005   14.6392 H   0  0  0  0  0  0
   21.1721    8.8288   13.7698 H   0  0  0  0  0  0
   23.6669    9.9949   16.3019 H   0  0  0  0  0  0
   22.8917    9.2147   17.7221 H   0  0  0  0  0  0
   22.0974   10.6121   16.9203 H   0  0  0  0  0  0
  1  2  1  0  0  0
  1  3  1  0  0  0
  1  4  1  0  0  0
  2 23  1  0  0  0
  3 24  1  0  0  0
  4  5  1  0  0  0
  4 25  1  0  0  0
  4 26  1  0  0  0
  5  6  1  0  0  0
  5 27  1  0  0  0
  6  7  2  0  0  0
  6  8  1  0  0  0
  8  9  2  0  0  0
  8 12  1  0  0  0
  9 10  1  0  0  0
 10 11  1  0  0  0
 11 18  1  0  0  0
 11 19  1  0  0  0
 11 20  1  0  0  0
 12 13  2  0  0  0
 12 17  1  0  0  0
 13 14  1  0  0  0
 13 28  1  0  0  0
 14 15  1  0  0  0
 15 16  1  0  0  0
 15 17  2  0  0  0
 16 29  1  0  0  0
 16 30  1  0  0  0
 18 31  1  0  0  0
 18 32  1  0  0  0
 18 33  1  0  0  0
 19 34  1  0  0  0
 19 35  1  0  0  0
 19 36  1  0  0  0
 20 21  2  0  0  0
 20 22  1  0  0  0
M  CHG  1  22  -1
M  END
> <s_m_source_file>
../1iem_ligand.sdf

> <i_m_source_file_index>
1

> <s_epik_input>
W09IXUIoW09IXSlbQ0gyXVtOSF1DKD1PKS9DKD1OXE9DKFtDSDNdKShbQ0gzXSlDKD1PKVtPSF0pYzFbY0hdc2MobjEpW05IMl0=

> <s_epik_cmdline>
J2VwaWtfYXBwJywgJy1pbWFlJywgJ2xpZ2FuZF9wcm8ubWFlJywgJy1vbWFlJywgJ2xpZ2FuZF9wcmVwLm1hZScsICctbXMnLCAnMScsICctcGgnLCAnNycsICctcGh0JywgJzAuNScsICctbnQn

> <r_lp_tautomer_probability>
1

> <r_epik_Ionization_Penalty>
  0.0019

> <r_epik_Ionization_Penalty_Charging>
  0.0001

> <r_epik_Ionization_Penalty_Neutral>
  0.0018

> <r_epik_State_Penalty>
 -0.0000

> <r_epik_Charging_Adjusted_Penalty>
0.000112559665214304

> <i_epik_Tot_Q>
-1

> <i_epik_Tot_abs_Q>
1

> <s_epik_Chemistry_Notes>
This compound has an imine and may undergo hydrolysis. This compound contains a Lewis acid (boronic acid) which adds nucleophiles to form tetrahedral complexes, lowering the experimental pKa

$$$$
