1if7_ligand
                    3D
 Schrodinger Suite 2020-3.
 47 49  0  0  1  0            999 V2000
   -1.4150    7.5700   12.4240 C   0  0  0  0  0  0
   -2.4830    6.7100   13.1760 C   0  0  1  0  0  0
   -2.9290    5.5870   12.2330 C   0  0  0  0  0  0
   -3.1040    4.2970   13.0760 N   0  0  0  0  0  0
   -4.4140    4.2160   13.6600 C   0  0  0  0  0  0
   -5.2100    5.1280   13.4560 O   0  0  0  0  0  0
   -4.7370    3.1110   14.4160 C   0  0  0  0  0  0
   -3.8070    2.0420   14.6420 C   0  0  0  0  0  0
   -4.1770    0.8990   15.4200 C   0  0  0  0  0  0
   -5.5020    0.8150   15.9910 C   0  0  0  0  0  0
   -6.3960    1.8940   15.7530 C   0  0  0  0  0  0
   -6.0180    3.0150   14.9830 C   0  0  0  0  0  0
   -6.0080   -0.3710   16.8450 S   0  0  0  0  0  0
   -5.4510   -0.3090   18.1820 O   0  0  0  0  0  0
   -7.4220   -0.2950   16.9430 O   0  0  0  0  0  0
   -5.6630   -1.6830   16.2030 N   0  0  0  0  0  0
   -0.9680    8.6830   13.2440 N   0  0  0  0  0  0
   -0.0340    8.5850   14.2160 C   0  0  0  0  0  0
    0.1420    9.9250   14.8090 C   0  0  0  0  0  0
   -1.3740    9.9150   13.1760 C   0  0  0  0  0  0
   -2.3340   10.5280   12.3300 C   0  0  0  0  0  0
   -2.6030   11.9090   12.4500 C   0  0  0  0  0  0
   -1.9160   12.6800   13.4200 C   0  0  0  0  0  0
   -0.9570   12.0700   14.2680 C   0  0  0  0  0  0
   -0.6860   10.6870   14.1470 C   0  0  0  0  0  0
   -1.8740    6.1190   14.4700 C   0  0  0  0  0  0
   -1.8632    7.9550   11.4961 H   0  0  0  0  0  0
   -0.5564    6.9280   12.1776 H   0  0  0  0  0  0
   -3.3561    7.3157   13.4604 H   0  0  0  0  0  0
   -3.8820    5.8636   11.7584 H   0  0  0  0  0  0
   -2.1640    5.4339   11.4575 H   0  0  0  0  0  0
   -2.2736    3.5810   13.1647 H   0  0  0  0  0  0
   -2.8056    2.1011   14.2156 H   0  0  0  0  0  0
   -3.4608    0.0934   15.5815 H   0  0  0  0  0  0
   -7.3997    1.8548   16.1761 H   0  0  0  0  0  0
   -6.7341    3.8215   14.8255 H   0  0  0  0  0  0
   -6.0339   -2.5069   16.8303 H   0  0  0  0  0  0
   -4.5710   -1.7643   16.0989 H   0  0  0  0  0  0
    0.4948    7.6782   14.5095 H   0  0  0  0  0  0
    0.8128   10.2137   15.6182 H   0  0  0  0  0  0
   -2.8643    9.9325   11.5869 H   0  0  0  0  0  0
   -3.3377   12.3809   11.7977 H   0  0  0  0  0  0
   -2.1253   13.7455   13.5147 H   0  0  0  0  0  0
   -0.4292   12.6663   15.0123 H   0  0  0  0  0  0
   -1.5597    6.9375   15.1344 H   0  0  0  0  0  0
   -1.0022    5.4986   14.2148 H   0  0  0  0  0  0
   -2.6271    5.5009   14.9806 H   0  0  0  0  0  0
  1 17  1  0  0  0
  1  2  1  0  0  0
  1 27  1  0  0  0
  1 28  1  0  0  0
  2 26  1  0  0  0
  2  3  1  0  0  0
  2 29  1  0  0  0
  3  4  1  0  0  0
  3 30  1  0  0  0
  3 31  1  0  0  0
  4  5  1  0  0  0
  4 32  1  0  0  0
  5  7  1  0  0  0
  5  6  2  0  0  0
  7 12  2  0  0  0
  7  8  1  0  0  0
  8  9  2  0  0  0
  8 33  1  0  0  0
  9 10  1  0  0  0
  9 34  1  0  0  0
 10 13  1  0  0  0
 10 11  2  0  0  0
 11 12  1  0  0  0
 11 35  1  0  0  0
 12 36  1  0  0  0
 13 16  1  0  0  0
 13 15  2  0  0  0
 13 14  2  0  0  0
 16 37  1  0  0  0
 16 38  1  0  0  0
 17 20  1  0  0  0
 17 18  1  0  0  0
 18 19  2  0  0  0
 18 39  1  0  0  0
 19 25  1  0  0  0
 19 40  1  0  0  0
 20 25  1  0  0  0
 20 21  2  0  0  0
 21 22  1  0  0  0
 21 41  1  0  0  0
 22 23  2  0  0  0
 22 42  1  0  0  0
 23 24  1  0  0  0
 23 43  1  0  0  0
 24 25  2  0  0  0
 24 44  1  0  0  0
 26 45  1  0  0  0
 26 46  1  0  0  0
 26 47  1  0  0  0
M  END
> <s_m_source_file>
../1if7_ligand.sdf

> <i_m_source_file_index>
1

> <s_epik_input>
W2NIXTFbY0hdW2NIXVtjSF1jKGMxMilbY0hdW2NIXW4yW0NIMl1bQ0BIXShbQ0gzXSlbQ0gyXVtOSF1DKD1PKWMzW2NIXVtjSF1jKFtjSF1bY0hdMylTKD1PKSg9TylbTkgyXQ==

> <s_epik_cmdline>
J2VwaWtfYXBwJywgJy1pbWFlJywgJ2xpZ2FuZF9wcm8ubWFlJywgJy1vbWFlJywgJ2xpZ2FuZF9wcmVwLm1hZScsICctbXMnLCAnMScsICctcGgnLCAnNycsICctcGh0JywgJzAuNScsICctbnQn

> <r_lp_tautomer_probability>
1

> <r_epik_Ionization_Penalty>
  0.0012

> <r_epik_Ionization_Penalty_Charging>
  0.0000

> <r_epik_Ionization_Penalty_Neutral>
  0.0012

> <r_epik_State_Penalty>
 -0.0000

> <r_epik_Charging_Adjusted_Penalty>
0

> <i_epik_Tot_Q>
0

> <i_epik_Tot_abs_Q>
0

$$$$
