1if8_ligand
                    3D
 Schrodinger Suite 2020-3.
 47 49  0  0  1  0            999 V2000
   -0.6930    8.1310   12.6340 C   0  0  0  0  0  0
   -1.3240    6.9590   13.4850 C   0  0  2  0  0  0
   -2.6530    6.4880   12.8880 C   0  0  0  0  0  0
   -2.9960    5.1670   13.5830 N   0  0  0  0  0  0
   -4.3520    5.1130   14.1120 C   0  0  0  0  0  0
   -5.0820    6.0970   13.9510 O   0  0  0  0  0  0
   -4.7640    3.9310   14.7890 C   0  0  0  0  0  0
   -3.8710    2.8290   14.9440 C   0  0  0  0  0  0
   -4.2720    1.6380   15.6340 C   0  0  0  0  0  0
   -5.6040    1.5140   16.2020 C   0  0  0  0  0  0
   -6.4850    2.6340   16.0310 C   0  0  0  0  0  0
   -6.0760    3.8090   15.3410 C   0  0  0  0  0  0
   -6.1150    0.2340   17.0070 S   0  0  0  0  0  0
   -5.5220    0.2440   18.3340 O   0  0  0  0  0  0
   -7.5440    0.3170   17.1290 O   0  0  0  0  0  0
   -5.8280   -1.1030   16.2890 N   0  0  0  0  0  0
    0.6010    8.4970   13.2440 N   0  0  0  0  0  0
    1.8200    7.8620   12.9560 C   0  0  0  0  0  0
    2.8840    8.5310   13.7870 C   0  0  0  0  0  0
    0.8390    9.4810   14.1640 C   0  0  0  0  0  0
   -0.0670   10.4270   14.7940 C   0  0  0  0  0  0
    0.4230   11.3670   15.7480 C   0  0  0  0  0  0
    1.8280   11.3810   16.0910 C   0  0  0  0  0  0
    2.7420   10.4390   15.4590 C   0  0  0  0  0  0
    2.2370    9.4860   14.4890 C   0  0  0  0  0  0
   -1.6060    7.4340   14.9370 C   0  0  0  0  0  0
   -1.3611    9.0049   12.6393 H   0  0  0  0  0  0
   -0.5295    7.8008   11.5976 H   0  0  0  0  0  0
   -0.6198    6.1140   13.4821 H   0  0  0  0  0  0
   -3.4284    7.2450   13.0766 H   0  0  0  0  0  0
   -2.5373    6.3439   11.8036 H   0  0  0  0  0  0
   -2.2436    4.3670   13.6458 H   0  0  0  0  0  0
   -2.8648    2.8939   14.5299 H   0  0  0  0  0  0
   -3.5670    0.8127   15.7342 H   0  0  0  0  0  0
   -7.4939    2.5830   16.4405 H   0  0  0  0  0  0
   -6.7793    4.6345   15.2311 H   0  0  0  0  0  0
   -6.2064   -1.9358   16.8999 H   0  0  0  0  0  0
   -4.7433   -1.2167   16.1456 H   0  0  0  0  0  0
    1.9690    7.0369   12.2594 H   0  0  0  0  0  0
    3.9477    8.2948   13.8154 H   0  0  0  0  0  0
   -1.1260   10.4179   14.5361 H   0  0  0  0  0  0
   -0.2605   12.0741   16.2181 H   0  0  0  0  0  0
    2.2031   12.0966   16.8226 H   0  0  0  0  0  0
    3.8017   10.4502   15.7141 H   0  0  0  0  0  0
   -0.6692    7.7806   15.3978 H   0  0  0  0  0  0
   -2.0157    6.5982   15.5231 H   0  0  0  0  0  0
   -2.3327    8.2596   14.9181 H   0  0  0  0  0  0
  1 17  1  0  0  0
  1  2  1  0  0  0
  1 27  1  0  0  0
  1 28  1  0  0  0
  2 26  1  0  0  0
  2  3  1  0  0  0
  2 29  1  0  0  0
  3  4  1  0  0  0
  3 30  1  0  0  0
  3 31  1  0  0  0
  4  5  1  0  0  0
  4 32  1  0  0  0
  5  7  1  0  0  0
  5  6  2  0  0  0
  7 12  2  0  0  0
  7  8  1  0  0  0
  8  9  2  0  0  0
  8 33  1  0  0  0
  9 10  1  0  0  0
  9 34  1  0  0  0
 10 13  1  0  0  0
 10 11  2  0  0  0
 11 12  1  0  0  0
 11 35  1  0  0  0
 12 36  1  0  0  0
 13 16  1  0  0  0
 13 15  2  0  0  0
 13 14  2  0  0  0
 16 37  1  0  0  0
 16 38  1  0  0  0
 17 20  1  0  0  0
 17 18  1  0  0  0
 18 19  2  0  0  0
 18 39  1  0  0  0
 19 25  1  0  0  0
 19 40  1  0  0  0
 20 25  1  0  0  0
 20 21  2  0  0  0
 21 22  1  0  0  0
 21 41  1  0  0  0
 22 23  2  0  0  0
 22 42  1  0  0  0
 23 24  1  0  0  0
 23 43  1  0  0  0
 24 25  2  0  0  0
 24 44  1  0  0  0
 26 45  1  0  0  0
 26 46  1  0  0  0
 26 47  1  0  0  0
M  END
> <s_m_source_file>
../1if8_ligand.sdf

> <i_m_source_file_index>
1

> <s_epik_input>
W2NIXTFbY0hdW2NIXVtjSF1jKGMxMilbY0hdW2NIXW4yW0NIMl1bQ0BASF0oW0NIM10pW0NIMl1bTkhdQyg9TyljM1tjSF1bY0hdYyhbY0hdW2NIXTMpUyg9TykoPU8pW05IMl0=

> <s_epik_cmdline>
J2VwaWtfYXBwJywgJy1pbWFlJywgJ2xpZ2FuZF9wcm8ubWFlJywgJy1vbWFlJywgJ2xpZ2FuZF9wcmVwLm1hZScsICctbXMnLCAnMScsICctcGgnLCAnNycsICctcGh0JywgJzAuNScsICctbnQn

> <r_lp_tautomer_probability>
1

> <r_epik_Ionization_Penalty>
  0.0012

> <r_epik_Ionization_Penalty_Charging>
  0.0000

> <r_epik_Ionization_Penalty_Neutral>
  0.0012

> <r_epik_State_Penalty>
 -0.0000

> <r_epik_Charging_Adjusted_Penalty>
0

> <i_epik_Tot_Q>
0

> <i_epik_Tot_abs_Q>
0

$$$$
