1ih0_ligand
                    3D
 Schrodinger Suite 2020-3.
 55 58  0  0  1  0            999 V2000
   60.9590    0.5740    3.2660 S   0  0  0  0  0  0
   62.4690    1.1230    2.5010 C   0  0  0  0  0  0
   63.5220    0.5220    2.7080 O   0  0  0  0  0  0
   62.4250    2.1130    1.6170 N   0  0  0  0  0  0
   61.2730    2.7490    1.2080 N   0  0  1  0  0  0
   60.0220    2.5500    1.4510 C   0  0  1  0  0  0
   59.6350    1.3010    2.2710 C   0  0  1  0  0  0
   59.1030    0.2120    1.3390 C   0  0  0  0  0  0
   58.9890    3.6990    1.1740 C   0  0  0  0  0  0
   58.2730    4.2610    2.2390 C   0  0  0  0  0  0
   57.3470    5.2920    2.0030 C   0  0  0  0  0  0
   57.1480    5.7490    0.6770 C   0  0  0  0  0  0
   57.8670    5.1830   -0.3830 C   0  0  0  0  0  0
   58.7890    4.1590   -0.1340 C   0  0  0  0  0  0
   56.1340    6.8600    0.4330 N   0  0  0  0  0  0
   55.6720    7.6960    1.6210 C   0  0  0  0  0  0
   56.3190    7.3990    2.9580 C   0  0  0  0  0  0
   56.5690    5.8900    3.1840 C   0  0  0  0  0  0
   55.6070    7.1480   -0.8220 C   0  0  0  0  0  0
   55.9380    6.5090   -1.8200 O   0  0  0  0  0  0
   54.5880    8.2730   -1.0210 C   0  0  0  0  0  0
   54.9240    9.3930   -1.7930 C   0  0  0  0  0  0
   54.0530   10.4920   -1.8520 C   0  0  0  0  0  0
   54.4330   11.5860   -2.6380 O   0  0  0  0  0  0
   52.8600   10.4720   -1.1490 C   0  0  0  0  0  0
   51.9610   11.5440   -1.1760 O   0  0  0  0  0  0
   52.5190    9.3530   -0.3750 C   0  0  0  0  0  0
   53.3820    8.2540   -0.3110 C   0  0  0  0  0  0
   55.7920   11.8610   -3.0630 C   0  0  0  0  0  0
   51.0400   11.8670   -0.1040 C   0  0  0  0  0  0
   63.3980    2.4185    1.2047 H   0  0  0  0  0  0
   61.3941    3.6342    1.7000 H   0  0  0  0  0  0
   60.5409    2.2460    0.5299 H   0  0  0  0  0  0
   58.7770    1.7136    2.8219 H   0  0  0  0  0  0
   58.8293   -0.6746    1.9297 H   0  0  0  0  0  0
   59.8809   -0.0589    0.6100 H   0  0  0  0  0  0
   58.2160    0.5861    0.8067 H   0  0  0  0  0  0
   58.4345    3.8976    3.2539 H   0  0  0  0  0  0
   57.7091    5.5392   -1.4010 H   0  0  0  0  0  0
   59.3512    3.7197   -0.9580 H   0  0  0  0  0  0
   55.8742    8.7588    1.4222 H   0  0  0  0  0  0
   54.5925    7.5505    1.7740 H   0  0  0  0  0  0
   57.2903    7.9119    3.0173 H   0  0  0  0  0  0
   55.6662    7.7553    3.7685 H   0  0  0  0  0  0
   55.6005    5.3778    3.2820 H   0  0  0  0  0  0
   57.1488    5.7582    4.1094 H   0  0  0  0  0  0
   55.8620    9.4108   -2.3479 H   0  0  0  0  0  0
   51.5796    9.3398    0.1777 H   0  0  0  0  0  0
   53.1159    7.3848    0.2905 H   0  0  0  0  0  0
   55.8081   12.7794   -3.6683 H   0  0  0  0  0  0
   56.1656   11.0190   -3.6642 H   0  0  0  0  0  0
   56.4330   11.9932   -2.1789 H   0  0  0  0  0  0
   50.4505   12.7532   -0.3817 H   0  0  0  0  0  0
   51.6065   12.0767    0.8153 H   0  0  0  0  0  0
   50.3643   11.0162    0.0677 H   0  0  0  0  0  0
  1  2  1  0  0  0
  1  7  1  0  0  0
  2  3  2  0  0  0
  2  4  1  0  0  0
  4  5  1  0  0  0
  4 31  1  0  0  0
  5  6  1  0  0  0
  5 32  1  0  0  0
  6  7  1  0  0  0
  6  9  1  0  0  0
  6 33  1  0  0  0
  7  8  1  0  0  0
  7 34  1  0  0  0
  8 35  1  0  0  0
  8 36  1  0  0  0
  8 37  1  0  0  0
  9 10  2  0  0  0
  9 14  1  0  0  0
 10 11  1  0  0  0
 10 38  1  0  0  0
 11 12  2  0  0  0
 11 18  1  0  0  0
 12 13  1  0  0  0
 12 15  1  0  0  0
 13 14  2  0  0  0
 13 39  1  0  0  0
 14 40  1  0  0  0
 15 16  1  0  0  0
 15 19  1  0  0  0
 16 17  1  0  0  0
 16 41  1  0  0  0
 16 42  1  0  0  0
 17 18  1  0  0  0
 17 43  1  0  0  0
 17 44  1  0  0  0
 18 45  1  0  0  0
 18 46  1  0  0  0
 19 20  2  0  0  0
 19 21  1  0  0  0
 21 22  2  0  0  0
 21 28  1  0  0  0
 22 23  1  0  0  0
 22 47  1  0  0  0
 23 24  1  0  0  0
 23 25  2  0  0  0
 24 29  1  0  0  0
 25 26  1  0  0  0
 25 27  1  0  0  0
 26 30  1  0  0  0
 27 28  2  0  0  0
 27 48  1  0  0  0
 28 49  1  0  0  0
 29 50  1  0  0  0
 29 51  1  0  0  0
 29 52  1  0  0  0
 30 53  1  0  0  0
 30 54  1  0  0  0
 30 55  1  0  0  0
M  END
> <s_m_source_file>
../1ih0_ligand.sdf

> <i_m_source_file_index>
1

> <s_epik_input>
Tz1DMVNbQ0BIXShbQ0gzXSlbQ0BIXShbTkgyK11bTkhdMSljKFtjSF0yKVtjSF1bY0hdYyhjMjMpTihbQ0gyXVtDSDJdW0NIMl0zKUMoPU8pYzRbY0hdYyhPW0NIM10pYyhPW0NIM10pW2NIXVtjSF00

> <s_epik_cmdline>
J2VwaWtfYXBwJywgJy1pbWFlJywgJ2xpZ2FuZF9wcm8ubWFlJywgJy1vbWFlJywgJ2xpZ2FuZF9wcmVwLm1hZScsICctbXMnLCAnMScsICctcGgnLCAnNycsICctcGh0JywgJzAuNScsICctbnQn

> <r_lp_tautomer_probability>
1

> <r_epik_Ionization_Penalty>
  0.0001

> <r_epik_Ionization_Penalty_Charging>
  0.0000

> <r_epik_Ionization_Penalty_Neutral>
  0.0001

> <r_epik_State_Penalty>
 -0.0000

> <r_epik_Charging_Adjusted_Penalty>
0

> <i_epik_Tot_Q>
0

> <i_epik_Tot_abs_Q>
0

$$$$
