1iht_ligand
                    3D
 Schrodinger Suite 2020-3.
204208  0  0  1  0            999 V2000
   16.5320   12.4060   23.0980 C   0  0  0  0  0  0
   17.4680   11.7020   22.6980 O   0  0  0  0  0  0
   15.0880   11.9180   23.1450 C   0  0  0  0  0  0
   16.7250   13.6390   23.5360 N   0  0  0  0  0  0
   18.0340   14.2510   23.5350 C   0  0  1  0  0  0
   17.7520   15.5880   22.8450 C   0  0  0  0  0  0
   16.7200   16.1950   23.1760 O   0  0  0  0  0  0
   18.4640   14.3830   25.0060 C   0  0  0  0  0  0
   19.8950   14.8530   25.1940 C   0  0  0  0  0  0
   20.9400   14.1780   24.5870 C   0  0  0  0  0  0
   20.1390   15.9680   25.9610 C   0  0  0  0  0  0
   22.2340   14.6330   24.7500 C   0  0  0  0  0  0
   21.4310   16.4100   26.1170 C   0  0  0  0  0  0
   22.4750   15.7470   25.5120 C   0  0  0  0  0  0
   18.5450   16.0600   21.8710 N   0  0  0  0  0  0
   18.2990   17.2750   21.0940 C   0  0  2  0  0  0
   16.8970   17.2860   20.5030 C   0  0  0  0  0  0
   16.4940   16.2330   20.0000 O   0  0  0  0  0  0
   19.3580   17.2830   20.0070 C   0  0  0  0  0  0
   20.4390   16.4320   20.6050 C   0  0  0  0  0  0
   19.6800   15.3410   21.3190 C   0  0  0  0  0  0
   16.1150   18.3990   20.4710 N   0  0  0  0  0  0
   14.7850   18.2830   19.8580 C   0  0  2  0  0  0
   14.7070   18.5470   18.3430 C   0  0  0  0  0  0
   13.7880   19.2560   17.8710 O   0  0  0  0  0  0
   13.7980   19.2130   20.6420 C   0  0  0  0  0  0
   13.3200   18.4310   21.8220 C   0  0  0  0  0  0
   12.3700   19.1590   22.7400 C   0  0  0  0  0  0
   11.6720   18.1130   23.4610 N   0  0  0  0  0  0
   10.8780   18.3590   24.5090 C   0  0  0  0  0  0
   10.7020   19.6180   24.9650 N   0  0  0  0  0  0
   10.2450   17.3220   25.0590 N   0  0  0  0  0  0
   15.3220   17.9070   13.1820 C   0  0  0  0  0  0
   15.0210   16.7120   13.2540 O   0  0  0  0  0  0
   16.6280   18.5240   13.6910 C   0  0  0  0  0  0
   16.9450   18.2730   15.1760 C   0  0  0  0  0  0
   15.8300   18.7890   16.0600 C   0  0  0  0  0  0
   15.9730   18.3250   17.5000 C   0  0  0  0  0  0
   11.1970   17.4150    7.6630 C   0  0  0  0  0  0
   11.0080   18.5150    7.1280 O   0  0  0  0  0  0
   12.3500   17.1640    8.6120 C   0  0  0  0  0  0
   12.1970   17.7170   10.0010 C   0  0  0  0  0  0
   13.2890   17.8150   10.7320 C   0  0  0  0  0  0
   13.1810   18.3770   12.1310 C   0  0  0  0  0  0
   14.4370   18.7770   12.7290 N   0  0  0  0  0  0
    8.1710   16.9750    1.5900 C   0  0  0  0  0  0
    8.3040   16.9900    0.3720 O   0  0  0  0  0  0
    9.2960   16.5700    2.5390 C   0  0  0  0  0  0
    8.9370   16.5580    4.0180 C   0  0  0  0  0  0
    9.8290   16.4270    4.9820 C   0  0  0  0  0  0
    9.3570   16.4240    6.4310 C   0  0  0  0  0  0
   10.4230   16.3580    7.4180 N   0  0  0  0  0  0
    7.0000   17.2430    2.1520 N   0  0  0  0  0  0
    5.8530   17.7640    1.4550 C   0  0  2  0  0  0
    5.9390   19.2830    1.3190 C   0  0  0  0  0  0
    4.9220   19.9760    1.3210 O   0  0  0  0  0  0
    4.6180   17.3380    2.2480 C   0  0  0  0  0  0
    4.5480   17.7000    3.7410 C   0  0  0  0  0  0
    5.5610   18.0090    4.3800 O   0  0  0  0  0  0
    3.4440   17.6580    4.2760 O   0  0  0  0  0  0
    7.1310   19.8520    1.2140 N   0  0  0  0  0  0
    7.2730   21.2870    1.1820 C   0  0  2  0  0  0
    7.1270   21.7050   -0.2630 C   0  0  0  0  0  0
    7.6380   21.0620   -1.1840 O   0  0  0  0  0  0
    8.6540   21.7040    1.7430 C   0  0  0  0  0  0
    8.7070   21.6260    3.2630 C   0  0  0  0  0  0
    9.0480   20.4470    3.9000 C   0  0  0  0  0  0
    8.3710   22.7430    4.0100 C   0  0  0  0  0  0
    9.0390   20.3900    5.2820 C   0  0  0  0  0  0
    8.3690   22.6760    5.3880 C   0  0  0  0  0  0
    8.7000   21.5020    6.0240 C   0  0  0  0  0  0
    6.4000   22.7950   -0.4600 N   0  0  0  0  0  0
    6.1880   23.3340   -1.7880 C   0  0  2  0  0  0
    7.4820   24.0400   -2.1950 C   0  0  0  0  0  0
    8.0810   24.7150   -1.3480 O   0  0  0  0  0  0
    5.0100   24.2650   -1.6710 C   0  0  0  0  0  0
    4.5550   25.0430   -2.8790 C   0  0  0  0  0  0
    3.5290   26.1040   -2.5090 C   0  0  0  0  0  0
    2.5360   25.8210   -1.8320 O   0  0  0  0  0  0
    3.7470   27.2390   -2.9030 O   0  0  0  0  0  0
    8.0090   23.9060   -3.4210 N   0  0  0  0  0  0
    9.2760   24.5060   -3.8230 C   0  0  2  0  0  0
    9.2520   26.0120   -3.7860 C   0  0  0  0  0  0
    8.2860   26.7170   -4.1160 O   0  0  0  0  0  0
    9.5400   23.9530   -5.2040 C   0  0  0  0  0  0
    8.1470   23.7240   -5.7360 C   0  0  0  0  0  0
    7.4560   23.1110   -4.5170 C   0  0  0  0  0  0
   10.3610   26.4780   -3.2720 N   0  0  0  0  0  0
   10.5610   27.8980   -3.1910 C   0  0  2  0  0  0
   11.5230   28.2000   -4.3310 C   0  0  0  0  0  0
   12.1840   27.2740   -4.8210 O   0  0  0  0  0  0
   11.1200   28.2650   -1.7640 C   0  0  2  0  0  0
   12.4500   27.6250   -1.4140 C   0  0  0  0  0  0
   10.0620   27.8020   -0.7730 C   0  0  0  0  0  0
   12.9620   28.0660   -0.0420 C   0  0  0  0  0  0
   11.4980   29.4210   -4.8680 N   0  0  0  0  0  0
   12.5740   29.9760   -5.6810 C   0  0  2  0  0  0
   13.8530   30.2510   -4.8860 C   0  0  0  0  0  0
   13.8230   31.0440   -3.9410 O   0  0  0  0  0  0
   11.9340   31.2110   -6.3020 C   0  0  0  0  0  0
   10.8780   31.6360   -5.3030 C   0  0  0  0  0  0
   10.3220   30.2870   -4.8800 C   0  0  0  0  0  0
   14.8680   29.6330   -5.2010 N   0  0  0  0  0  0
   15.0363   10.8883   22.7616 H   0  0  0  0  0  0
   14.4593   12.5727   22.5236 H   0  0  0  0  0  0
   14.7268   11.9411   24.1838 H   0  0  0  0  0  0
   15.8555   14.2008   23.9079 H   0  0  0  0  0  0
   18.8121   13.6766   23.0109 H   0  0  0  0  0  0
   17.8149   15.1115   25.5138 H   0  0  0  0  0  0
   18.3767   13.4054   25.5027 H   0  0  0  0  0  0
   20.7428   13.2920   23.9835 H   0  0  0  0  0  0
   19.3152   16.4964   26.4409 H   0  0  0  0  0  0
   23.0618   14.1075   24.2738 H   0  0  0  0  0  0
   21.6307   17.2926   26.7246 H   0  0  0  0  0  0
   23.4954   16.1086   25.6391 H   0  0  0  0  0  0
   18.3701   18.1517   21.7545 H   0  0  0  0  0  0
   18.9390   16.8563   19.0838 H   0  0  0  0  0  0
   19.6824   18.3171   19.8187 H   0  0  0  0  0  0
   21.0809   16.0378   19.8034 H   0  0  0  0  0  0
   21.0443   17.0389   21.2943 H   0  0  0  0  0  0
   20.2567   14.8833   22.1362 H   0  0  0  0  0  0
   19.3204   14.5547   20.6389 H   0  0  0  0  0  0
   16.4480   19.3625   20.8843 H   0  0  0  0  0  0
   14.5677   17.2090   19.9547 H   0  0  0  0  0  0
   14.3276   20.1222   20.9628 H   0  0  0  0  0  0
   12.9575   19.4895   19.9885 H   0  0  0  0  0  0
   12.7895   17.5318   21.4755 H   0  0  0  0  0  0
   14.1813   18.1339   22.4383 H   0  0  0  0  0  0
   12.9418   19.8088   23.4189 H   0  0  0  0  0  0
   11.6790   19.7712   22.1419 H   0  0  0  0  0  0
   11.7840   17.0632   23.1521 H   0  0  0  0  0  0
   11.2374   20.4543   24.4917 H   0  0  0  0  0  0
   10.0232   19.8072   25.8097 H   0  0  0  0  0  0
   10.4077   16.3073   24.6667 H   0  0  0  0  0  0
   17.4741   18.1144   13.1197 H   0  0  0  0  0  0
   16.5926   19.6158   13.5617 H   0  0  0  0  0  0
   17.0623   17.1929   15.3484 H   0  0  0  0  0  0
   17.8778   18.7906   15.4444 H   0  0  0  0  0  0
   15.8370   19.8890   16.0546 H   0  0  0  0  0  0
   14.8634   18.4267   15.6801 H   0  0  0  0  0  0
   16.8115   18.8816   17.9441 H   0  0  0  0  0  0
   16.2156   17.2523   17.4782 H   0  0  0  0  0  0
   12.4978   16.0805    8.7309 H   0  0  0  0  0  0
   13.2659   17.6164    8.2040 H   0  0  0  0  0  0
   11.2281   18.0336   10.4145 H   0  0  0  0  0  0
   14.2566   17.4906   10.3215 H   0  0  0  0  0  0
   12.5396   19.2706   12.1187 H   0  0  0  0  0  0
   12.7421   17.6199   12.7975 H   0  0  0  0  0  0
   14.6872   19.8442   12.8210 H   0  0  0  0  0  0
    9.6332   15.5519    2.2946 H   0  0  0  0  0  0
   10.1371   17.2707    2.4308 H   0  0  0  0  0  0
    7.8708   16.6660    4.2662 H   0  0  0  0  0  0
   10.8955   16.3221    4.7339 H   0  0  0  0  0  0
    8.7923   17.3458    6.6346 H   0  0  0  0  0  0
    8.7096   15.5517    6.6040 H   0  0  0  0  0  0
   10.5999   15.4261    7.9750 H   0  0  0  0  0  0
    6.9417   17.0385    3.2313 H   0  0  0  0  0  0
    5.8545   17.3359    0.4417 H   0  0  0  0  0  0
    3.7215   17.7957    1.8043 H   0  0  0  0  0  0
    4.5232   16.2425    2.2185 H   0  0  0  0  0  0
    5.4818   18.2634    5.4472 H   0  0  0  0  0  0
    8.0217   19.2096    1.1508 H   0  0  0  0  0  0
    6.4769   21.7240    1.8026 H   0  0  0  0  0  0
    9.4301   21.0366    1.3401 H   0  0  0  0  0  0
    8.8722   22.7407    1.4470 H   0  0  0  0  0  0
    9.3222   19.5680    3.3167 H   0  0  0  0  0  0
    8.1082   23.6748    3.5092 H   0  0  0  0  0  0
    9.3014   19.4607    5.7876 H   0  0  0  0  0  0
    8.1044   23.5559    5.9745 H   0  0  0  0  0  0
    8.6944   21.4507    7.1128 H   0  0  0  0  0  0
    5.9528   23.2924    0.4133 H   0  0  0  0  0  0
    5.9546   22.5528   -2.5265 H   0  0  0  0  0  0
    4.1204   23.6942   -1.3662 H   0  0  0  0  0  0
    5.2261   25.0370   -0.9178 H   0  0  0  0  0  0
    5.4196   25.5425   -3.3404 H   0  0  0  0  0  0
    4.0971   24.3564   -3.6063 H   0  0  0  0  0  0
    1.8052   26.6018   -1.5745 H   0  0  0  0  0  0
   10.0618   24.2359   -3.1022 H   0  0  0  0  0  0
   10.1057   24.6905   -5.7923 H   0  0  0  0  0  0
   10.1235   23.0242   -5.1217 H   0  0  0  0  0  0
    7.7109   24.6847   -6.0474 H   0  0  0  0  0  0
    8.1915   23.0444   -6.5998 H   0  0  0  0  0  0
    7.7097   22.0514   -4.3657 H   0  0  0  0  0  0
    6.3623   23.2267   -4.5384 H   0  0  0  0  0  0
   11.1373   25.7913   -2.9034 H   0  0  0  0  0  0
    9.6134   28.4367   -3.3388 H   0  0  0  0  0  0
   11.3304   29.3428   -1.7009 H   0  0  0  0  0  0
   12.3381   26.5308   -1.4006 H   0  0  0  0  0  0
   13.2019   27.9075   -2.1655 H   0  0  0  0  0  0
    9.0964   28.2648   -1.0247 H   0  0  0  0  0  0
   10.3572   28.0994    0.2441 H   0  0  0  0  0  0
    9.9678   26.7071   -0.8221 H   0  0  0  0  0  0
   13.9252   27.5765    0.1646 H   0  0  0  0  0  0
   12.2326   27.7809    0.7305 H   0  0  0  0  0  0
   13.0964   29.1577   -0.0344 H   0  0  0  0  0  0
   12.9075   29.2471   -6.4343 H   0  0  0  0  0  0
   12.6993   31.9881   -6.4446 H   0  0  0  0  0  0
   11.4945   30.9463   -7.2750 H   0  0  0  0  0  0
   11.3531   32.1927   -4.4818 H   0  0  0  0  0  0
   10.1385   32.2792   -5.8024 H   0  0  0  0  0  0
    9.5852   29.8949   -5.5966 H   0  0  0  0  0  0
    9.8768   30.3147   -3.8745 H   0  0  0  0  0  0
   14.8459   28.9363   -6.0519 H   0  0  0  0  0  0
   15.7983   29.7768   -4.6319 H   0  0  0  0  0  0
  1  2  2  0  0  0
  1  3  1  0  0  0
  1  4  1  0  0  0
  3104  1  0  0  0
  3105  1  0  0  0
  3106  1  0  0  0
  4  5  1  0  0  0
  4107  1  0  0  0
  5  6  1  0  0  0
  5  8  1  0  0  0
  5108  1  0  0  0
  6  7  2  0  0  0
  6 15  1  0  0  0
  8  9  1  0  0  0
  8109  1  0  0  0
  8110  1  0  0  0
  9 10  2  0  0  0
  9 11  1  0  0  0
 10 12  1  0  0  0
 10111  1  0  0  0
 11 13  2  0  0  0
 11112  1  0  0  0
 12 14  2  0  0  0
 12113  1  0  0  0
 13 14  1  0  0  0
 13114  1  0  0  0
 14115  1  0  0  0
 15 16  1  0  0  0
 15 21  1  0  0  0
 16 17  1  0  0  0
 16 19  1  0  0  0
 16116  1  0  0  0
 17 18  2  0  0  0
 17 22  1  0  0  0
 19 20  1  0  0  0
 19117  1  0  0  0
 19118  1  0  0  0
 20 21  1  0  0  0
 20119  1  0  0  0
 20120  1  0  0  0
 21121  1  0  0  0
 21122  1  0  0  0
 22 23  1  0  0  0
 22123  1  0  0  0
 23 24  1  0  0  0
 23 26  1  0  0  0
 23124  1  0  0  0
 24 25  2  0  0  0
 24 38  1  0  0  0
 26 27  1  0  0  0
 26125  1  0  0  0
 26126  1  0  0  0
 27 28  1  0  0  0
 27127  1  0  0  0
 27128  1  0  0  0
 28 29  1  0  0  0
 28129  1  0  0  0
 28130  1  0  0  0
 29 30  1  0  0  0
 29131  1  0  0  0
 30 31  1  0  0  0
 30 32  2  0  0  0
 31132  1  0  0  0
 31133  1  0  0  0
 32134  1  0  0  0
 33 34  2  0  0  0
 33 35  1  0  0  0
 33 45  1  0  0  0
 35 36  1  0  0  0
 35135  1  0  0  0
 35136  1  0  0  0
 36 37  1  0  0  0
 36137  1  0  0  0
 36138  1  0  0  0
 37 38  1  0  0  0
 37139  1  0  0  0
 37140  1  0  0  0
 38141  1  0  0  0
 38142  1  0  0  0
 39 40  2  0  0  0
 39 41  1  0  0  0
 39 52  1  0  0  0
 41 42  1  0  0  0
 41143  1  0  0  0
 41144  1  0  0  0
 42 43  2  0  0  0
 42145  1  0  0  0
 43 44  1  0  0  0
 43146  1  0  0  0
 44 45  1  0  0  0
 44147  1  0  0  0
 44148  1  0  0  0
 45149  1  0  0  0
 46 47  2  0  0  0
 46 48  1  0  0  0
 46 53  1  0  0  0
 48 49  1  0  0  0
 48150  1  0  0  0
 48151  1  0  0  0
 49 50  2  0  0  0
 49152  1  0  0  0
 50 51  1  0  0  0
 50153  1  0  0  0
 51 52  1  0  0  0
 51154  1  0  0  0
 51155  1  0  0  0
 52156  1  0  0  0
 53 54  1  0  0  0
 53157  1  0  0  0
 54 55  1  0  0  0
 54 57  1  0  0  0
 54158  1  0  0  0
 55 56  2  0  0  0
 55 61  1  0  0  0
 57 58  1  0  0  0
 57159  1  0  0  0
 57160  1  0  0  0
 58 59  1  0  0  0
 58 60  2  0  0  0
 59161  1  0  0  0
 61 62  1  0  0  0
 61162  1  0  0  0
 62 63  1  0  0  0
 62 65  1  0  0  0
 62163  1  0  0  0
 63 64  2  0  0  0
 63 72  1  0  0  0
 65 66  1  0  0  0
 65164  1  0  0  0
 65165  1  0  0  0
 66 67  2  0  0  0
 66 68  1  0  0  0
 67 69  1  0  0  0
 67166  1  0  0  0
 68 70  2  0  0  0
 68167  1  0  0  0
 69 71  2  0  0  0
 69168  1  0  0  0
 70 71  1  0  0  0
 70169  1  0  0  0
 71170  1  0  0  0
 72 73  1  0  0  0
 72171  1  0  0  0
 73 74  1  0  0  0
 73 76  1  0  0  0
 73172  1  0  0  0
 74 75  2  0  0  0
 74 81  1  0  0  0
 76 77  1  0  0  0
 76173  1  0  0  0
 76174  1  0  0  0
 77 78  1  0  0  0
 77175  1  0  0  0
 77176  1  0  0  0
 78 79  1  0  0  0
 78 80  2  0  0  0
 79177  1  0  0  0
 81 82  1  0  0  0
 81 87  1  0  0  0
 82 83  1  0  0  0
 82 85  1  0  0  0
 82178  1  0  0  0
 83 84  2  0  0  0
 83 88  1  0  0  0
 85 86  1  0  0  0
 85179  1  0  0  0
 85180  1  0  0  0
 86 87  1  0  0  0
 86181  1  0  0  0
 86182  1  0  0  0
 87183  1  0  0  0
 87184  1  0  0  0
 88 89  1  0  0  0
 88185  1  0  0  0
 89 90  1  0  0  0
 89 92  1  0  0  0
 89186  1  0  0  0
 90 91  2  0  0  0
 90 96  1  0  0  0
 92 93  1  0  0  0
 92 94  1  0  0  0
 92187  1  0  0  0
 93 95  1  0  0  0
 93188  1  0  0  0
 93189  1  0  0  0
 94190  1  0  0  0
 94191  1  0  0  0
 94192  1  0  0  0
 95193  1  0  0  0
 95194  1  0  0  0
 95195  1  0  0  0
 96 97  1  0  0  0
 96102  1  0  0  0
 97 98  1  0  0  0
 97100  1  0  0  0
 97196  1  0  0  0
 98 99  2  0  0  0
 98103  1  0  0  0
100101  1  0  0  0
100197  1  0  0  0
100198  1  0  0  0
101102  1  0  0  0
101199  1  0  0  0
101200  1  0  0  0
102201  1  0  0  0
102202  1  0  0  0
103203  1  0  0  0
103204  1  0  0  0
M  END
> <s_m_source_file>
../1iht_ligand.sdf

> <i_m_source_file_index>
1

> <s_epik_input>
W2NIXTFbY0hdW2NIXVtjSF1bY0hdYzFbQ0gyXVtDQEBIXShbTkhdQyg9TylbQ0gzXSlDKD1PKU4yW0NAQEhdKFtDSDJdW0NIMl1bQ0gyXTIpQyg9TylbTkhdW0NAQEhdKFtDSDJdW0NIMl1bQ0gyXVtOSF0vQyhbTkgyXSk9TlxbSF0pQyg9TylbQ0gyXVtDSDJdW0NIMl1bQ0gyXUMoPU8pW05IXVtDSDJdXFtDSF09W0NIXVxbQ0gyXUMoPU8pW05IXVtDSDJdXFtDSF09W0NIXVxbQ0gyXUMoPU8pW05IXVtDQEBIXShbQ0gyXUMoPU8pW09IXSlDKD1PKVtOSF1bQ0BASF0oW0NIMl1jM1tjSF1bY0hdW2NIXVtjSF1bY0hdMylDKD1PKVtOSF1bQ0BASF0oW0NIMl1bQ0gyXUMoPU8pW09IXSlDKD1PKU40W0NAQEhdKFtDSDJdW0NIMl1bQ0gyXTQpQyg9TylbTkhdW0NAQEhdKFtDQEBIXShbQ0gzXSlbQ0gyXVtDSDNdKUMoPU8pTjVbQ0BIXShDKD1PKVtOSDJdKVtDSDJdW0NIMl1bQ0gyXTU=

> <s_epik_cmdline>
J2VwaWtfYXBwJywgJy1pbWFlJywgJ2xpZ2FuZF9wcm8ubWFlJywgJy1vbWFlJywgJ2xpZ2FuZF9wcmVwLm1hZScsICctbXMnLCAnMScsICctcGgnLCAnNycsICctcGh0JywgJzAuNScsICctbnQn

> <s_epik_pKa_notes>
Molecule size exceeds maximum supported for generating protonation states

> <s_epik_Chemistry_Notes>
This compound has an imine and may undergo hydrolysis.

$$$$
