1ihy_ligand
                    3D
 Schrodinger Suite 2020-3.
 57 60  0  0  1  0            999 V2000
   52.1960   15.3350   46.6300 N   0  0  0  0  0  0
   51.3360   15.9790   45.7620 C   0  0  0  0  0  0
   50.4660   15.4320   44.9390 N   0  0  0  0  0  0
   50.4690   14.0630   45.0130 C   0  0  0  0  0  0
   51.2630   13.2610   45.8330 C   0  0  0  0  0  0
   52.1780   13.9520   46.6890 C   0  0  0  0  0  0
   53.0040   13.3320   47.5240 N   0  0  0  0  0  0
   50.9810   11.9180   45.6340 N   0  0  0  0  0  0
   50.0230   11.9210   44.6930 C   0  0  0  0  0  0
   49.6800   13.1850   44.2870 N   0  0  0  0  0  0
   48.6960   13.6340   43.2760 C   0  0  1  0  0  0
   48.7470   12.8060   42.0060 C   0  0  2  0  0  0
   49.7280   13.3210   41.0920 O   0  0  0  0  0  0
   47.3280   12.8520   41.4500 C   0  0  2  0  0  0
   47.0710   13.7920   40.3880 O   0  0  0  0  0  0
   47.3810   13.5480   43.7470 O   0  0  0  0  0  0
   46.4780   13.1110   42.6900 C   0  0  2  0  0  0
   45.6690   11.9220   43.1950 C   0  0  0  0  0  0
   44.2450   12.1730   42.9670 O   0  0  0  0  0  0
   43.2760   11.0420   42.3000 P   0  0  2  0  0  0
   43.8770    9.6920   42.4680 O   0  5  0  0  0  0
   43.0720   11.3190   40.8590 O   0  0  0  0  0  0
   41.9440   11.2310   43.1240 O   0  0  0  0  0  0
   41.3540   12.4480   44.1200 P   0  0  1  0  0  0
   41.8420   12.2620   45.5160 O   0  5  0  0  0  0
   41.7460   13.7870   43.5970 O   0  0  0  0  0  0
   39.8310   12.2230   44.0040 O   0  0  0  0  0  0
   39.3580   10.9990   44.4750 C   0  0  0  0  0  0
   37.6230   11.0880   42.8680 O   0  0  0  0  0  0
   37.3610    9.6090   41.0550 O   0  0  0  0  0  0
   36.9010    9.9800   42.4090 C   0  0  1  0  0  0
   36.1880    7.8720   43.5050 O   0  0  0  0  0  0
   37.1920    8.8990   43.4350 C   0  0  2  0  0  0
   36.0450    9.7770   45.4870 O   0  0  0  0  0  0
   37.3040    9.6620   44.7670 C   0  0  2  0  0  0
   37.9010   10.9530   44.2880 C   0  0  1  0  0  0
   51.3831   17.0680   45.7579 H   0  0  0  0  0  0
   53.6860   13.9170   48.1585 H   0  0  0  0  0  0
   53.0061   12.2335   47.5810 H   0  0  0  0  0  0
   49.5666   11.0150   44.2943 H   0  0  0  0  0  0
   48.9148   14.6992   43.1103 H   0  0  0  0  0  0
   49.1090   11.7779   42.1540 H   0  0  0  0  0  0
   50.7898   13.3411   41.3787 H   0  0  0  0  0  0
   47.0832   11.9473   40.8741 H   0  0  0  0  0  0
   47.6208   13.7129   39.4385 H   0  0  0  0  0  0
   45.7468   13.8941   42.4406 H   0  0  0  0  0  0
   45.9740   11.0144   42.6534 H   0  0  0  0  0  0
   45.8509   11.7853   44.2712 H   0  0  0  0  0  0
   39.8327   10.1815   43.9126 H   0  0  0  0  0  0
   39.6008   10.8985   45.5431 H   0  0  0  0  0  0
   37.2127   10.3028   40.2144 H   0  0  0  0  0  0
   35.8338   10.2292   42.3141 H   0  0  0  0  0  0
   35.9885    7.2373   42.6290 H   0  0  0  0  0  0
   38.0677    8.2942   43.1567 H   0  0  0  0  0  0
   35.5457    8.8745   45.8695 H   0  0  0  0  0  0
   37.8776    9.1854   45.5756 H   0  0  0  0  0  0
   37.4633   11.7878   44.8551 H   0  0  0  0  0  0
  1  2  1  0  0  0
  1  6  2  0  0  0
  2  3  2  0  0  0
  2 37  1  0  0  0
  3  4  1  0  0  0
  4  5  2  0  0  0
  4 10  1  0  0  0
  5  6  1  0  0  0
  5  8  1  0  0  0
  6  7  1  0  0  0
  7 38  1  0  0  0
  7 39  1  0  0  0
  8  9  2  0  0  0
  9 10  1  0  0  0
  9 40  1  0  0  0
 10 11  1  0  0  0
 11 12  1  0  0  0
 11 16  1  0  0  0
 11 41  1  0  0  0
 12 13  1  0  0  0
 12 14  1  0  0  0
 12 42  1  0  0  0
 13 43  1  0  0  0
 14 15  1  0  0  0
 14 17  1  0  0  0
 14 44  1  0  0  0
 15 45  1  0  0  0
 16 17  1  0  0  0
 17 18  1  0  0  0
 17 46  1  0  0  0
 18 19  1  0  0  0
 18 47  1  0  0  0
 18 48  1  0  0  0
 19 20  1  0  0  0
 20 21  1  0  0  0
 20 22  2  0  0  0
 20 23  1  0  0  0
 23 24  1  0  0  0
 24 25  1  0  0  0
 24 26  2  0  0  0
 24 27  1  0  0  0
 27 28  1  0  0  0
 28 36  1  0  0  0
 28 49  1  0  0  0
 28 50  1  0  0  0
 29 31  1  0  0  0
 29 36  1  0  0  0
 30 31  1  0  0  0
 30 51  1  0  0  0
 31 33  1  0  0  0
 31 52  1  0  0  0
 32 33  1  0  0  0
 32 53  1  0  0  0
 33 35  1  0  0  0
 33 54  1  0  0  0
 34 35  1  0  0  0
 34 55  1  0  0  0
 35 36  1  0  0  0
 35 56  1  0  0  0
 36 57  1  0  0  0
M  CHG  2  21  -1  25  -1
M  END
> <s_m_source_file>
../1ihy_ligand.sdf

> <i_m_source_file_index>
1

> <s_epik_input>
bjFbY0hdbmMoW05IMl0pYyhjMTIpbltjSF1uMltDQEhdM1tDQEhdKFtPSF0pW0NASF0oW09IXSlbQ0BIXShPMylbQ0gyXU9bUEBAXSg9TykoW09IXSlPW1BAXSg9TykoW09IXSlPW0NIMl1bQ0BASF0oT1tDQEhdNFtPSF0pW0NAQEhdKFtPSF0pW0NASF00W09IXQ==

> <s_epik_cmdline>
J2VwaWtfYXBwJywgJy1pbWFlJywgJ2xpZ2FuZF9wcm8ubWFlJywgJy1vbWFlJywgJ2xpZ2FuZF9wcmVwLm1hZScsICctbXMnLCAnMScsICctcGgnLCAnNycsICctcGh0JywgJzAuNScsICctbnQn

> <r_lp_tautomer_probability>
1

> <r_epik_Ionization_Penalty>
  0.0012

> <r_epik_Ionization_Penalty_Charging>
  0.0006

> <r_epik_Ionization_Penalty_Neutral>
  0.0006

> <r_epik_State_Penalty>
 -0.0000

> <r_epik_Charging_Adjusted_Penalty>
0.000554568258717467

> <i_epik_Tot_Q>
-2

> <i_epik_Tot_abs_Q>
2

> <s_epik_Chemistry_Notes>
This compound contains an acetal/aminal-like group ( X-CH(R)-Y where X, Y are N, S, or O) that may be acid/base labile, releasing an aldehyde.

$$$$
