1iig_ligand
                    3D
 Schrodinger Suite 2020-3.
 14 13  0  0  1  0            999 V2000
   47.5290   16.2470  -10.7480 C   0  0  0  0  0  0
   46.3880   15.3810  -10.3120 C   0  0  0  0  0  0
   47.3900   16.7460  -12.4690 P   0  0  0  0  0  0
   46.2700   15.3260   -8.8110 C   0  0  0  0  0  0
   45.2810   14.8000   -8.2230 O   0  0  0  0  0  0
   47.2720   15.8150   -8.2090 O   0  5  0  0  0  0
   48.7630   16.8080  -13.1140 O   0  5  0  0  0  0
   46.5480   15.6520  -13.0970 O   0  0  0  0  0  0
   46.7970   18.1250  -12.5410 O   0  0  0  0  0  0
   47.5550   17.1573  -10.1310 H   0  0  0  0  0  0
   48.4737   15.6963  -10.6289 H   0  0  0  0  0  0
   45.4475   15.7817  -10.7181 H   0  0  0  0  0  0
   46.5415   14.3574  -10.6843 H   0  0  0  0  0  0
   46.9044   14.6114  -13.0902 H   0  0  0  0  0  0
  1  2  1  0  0  0
  1  3  1  0  0  0
  1 10  1  0  0  0
  1 11  1  0  0  0
  2  4  1  0  0  0
  2 12  1  0  0  0
  2 13  1  0  0  0
  3  7  1  0  0  0
  3  8  1  0  0  0
  3  9  2  0  0  0
  4  5  2  0  0  0
  4  6  1  0  0  0
  8 14  1  0  0  0
M  CHG  2   6  -1   7  -1
M  END
> <s_m_source_file>
../1iig_ligand.sdf

> <i_m_source_file_index>
1

> <s_epik_input>
W09IXVAoPU8pKFtPSF0pW0NIMl1bQ0gyXUMoPU8pW09IXQ==

> <s_epik_cmdline>
J2VwaWtfYXBwJywgJy1pbWFlJywgJ2xpZ2FuZF9wcm8ubWFlJywgJy1vbWFlJywgJ2xpZ2FuZF9wcmVwLm1hZScsICctbXMnLCAnMScsICctcGgnLCAnNycsICctcGh0JywgJzAuNScsICctbnQn

> <r_lp_tautomer_probability>
1

> <r_epik_Ionization_Penalty>
  0.0538

> <r_epik_Ionization_Penalty_Charging>
  0.0017

> <r_epik_Ionization_Penalty_Neutral>
  0.0521

> <r_epik_State_Penalty>
 -0.0000

> <r_epik_Charging_Adjusted_Penalty>
0.00166898084161037

> <i_epik_Tot_Q>
-2

> <i_epik_Tot_abs_Q>
2

$$$$
