1iih_ligand
                    3D
 Schrodinger Suite 2020-3.
 15 14  0  0  1  0            999 V2000
   46.4510   15.2650   -8.7440 C   0  0  0  0  0  0
   47.3220   15.8050   -8.0570 O   0  5  0  0  0  0
   45.2700   15.2200   -8.4480 O   0  0  0  0  0  0
   46.8730   14.6890  -10.0830 C   0  0  2  0  0  0
   47.2570   13.3250  -10.0540 O   0  0  0  0  0  0
   48.0670   15.5450  -10.4800 C   0  0  0  0  0  0
   47.6780   16.7860  -11.1160 O   0  0  0  0  0  0
   47.7670   16.9710  -12.7130 P   0  0  0  0  0  0
   49.2390   16.7440  -12.9640 O   0  5  0  0  0  0
   46.8860   15.8500  -13.2130 O   0  5  0  0  0  0
   47.3480   18.3830  -12.9890 O   0  0  0  0  0  0
   46.0316   14.6395  -10.7898 H   0  0  0  0  0  0
   46.5216   12.5522   -9.7860 H   0  0  0  0  0  0
   48.6530   15.7952   -9.5834 H   0  0  0  0  0  0
   48.6988   14.9876  -11.1872 H   0  0  0  0  0  0
  1  4  1  0  0  0
  1  3  2  0  0  0
  1  2  1  0  0  0
  4  6  1  0  0  0
  4  5  1  0  0  0
  4 12  1  0  0  0
  5 13  1  0  0  0
  6  7  1  0  0  0
  6 14  1  0  0  0
  6 15  1  0  0  0
  7  8  1  0  0  0
  8 11  2  0  0  0
  8 10  1  0  0  0
  8  9  1  0  0  0
M  CHG  3   2  -1   9  -1  10  -1
M  END
> <s_m_source_file>
../1iih_ligand.sdf

> <i_m_source_file_index>
1

> <s_epik_input>
W09IXUMoPU8pW0NASF0oW09IXSlbQ0gyXU9QKD1PKShbT0hdKVtPSF0=

> <s_epik_cmdline>
J2VwaWtfYXBwJywgJy1pbWFlJywgJ2xpZ2FuZF9wcm8ubWFlJywgJy1vbWFlJywgJ2xpZ2FuZF9wcmVwLm1hZScsICctbXMnLCAnMScsICctcGgnLCAnNycsICctcGh0JywgJzAuNScsICctbnQn

> <r_epik_Ionization_Penalty>
  0.1447

> <r_epik_Ionization_Penalty_Charging>
  0.1447

> <r_epik_Ionization_Penalty_Neutral>
  0.0000

> <r_epik_State_Penalty>
  0.1338

> <r_epik_Charging_Adjusted_Penalty>
0.278448436503415

> <i_epik_Tot_Q>
-3

> <i_epik_Tot_abs_Q>
3

$$$$
