1iiq_ligand
                    3D
 Schrodinger Suite 2020-3.
102104  0  0  1  0            999 V2000
   13.9320   20.2880    5.3490 O   0  0  0  0  0  0
   15.1440   20.4740    5.3040 C   0  0  0  0  0  0
   16.0620   19.7850    4.5090 O   0  0  0  0  0  0
   15.6720   18.8600    3.3620 C   0  0  0  0  0  0
   16.9730   18.3240    2.7400 C   0  0  0  0  0  0
   14.8760   19.6640    2.3290 C   0  0  0  0  0  0
   14.8320   17.7020    3.9310 C   0  0  0  0  0  0
   15.7950   21.4510    6.0170 N   0  0  0  0  0  0
   15.0340   22.3750    6.8790 C   0  0  2  0  0  0
   14.7000   23.6970    6.1860 C   0  0  1  0  0  0
   15.8930   24.3610    5.8460 O   0  0  0  0  0  0
   15.7980   22.6880    8.1650 C   0  0  0  0  0  0
   16.2410   21.4780    8.9030 C   0  0  0  0  0  0
   17.4950   20.9300    8.6670 C   0  0  0  0  0  0
   15.3880   20.8510    9.8010 C   0  0  0  0  0  0
   17.8950   19.7700    9.3130 C   0  0  0  0  0  0
   15.7790   19.6900   10.4480 C   0  0  0  0  0  0
   17.0340   19.1470   10.2060 C   0  0  0  0  0  0
   13.8770   23.4540    4.9180 C   0  0  0  0  0  0
   13.4480   24.7090    4.3560 N   0  3  0  0  0  0
   12.0320   24.7630    4.0110 C   0  0  2  0  0  0
   11.0820   24.7060    5.1980 C   0  0  0  0  0  0
   11.0980   23.7780    6.0130 O   0  0  0  0  0  0
   11.6510   23.6540    3.0260 C   0  0  0  0  0  0
   10.2000   23.6820    2.6270 C   0  0  0  0  0  0
    9.3740   22.5840    2.8620 C   0  0  0  0  0  0
    9.6540   24.8160    2.0320 C   0  0  0  0  0  0
    8.0200   22.6170    2.5080 C   0  0  0  0  0  0
    8.3060   24.8590    1.6730 C   0  0  0  0  0  0
    7.4880   23.7580    1.9120 C   0  0  0  0  0  0
   10.2390   25.7210    5.2770 N   0  0  0  0  0  0
    9.2520   25.8220    6.3310 C   0  0  2  0  0  0
    8.1760   26.7930    5.8500 C   0  0  0  0  0  0
    8.4690   27.7590    5.1310 O   0  0  0  0  0  0
    9.9170   26.3210    7.6220 C   0  0  0  0  0  0
    8.9790   26.5590    8.8000 C   0  0  0  0  0  0
    8.2300   27.8940    8.7110 C   0  0  0  0  0  0
    8.6800   28.8350    8.0520 O   0  0  0  0  0  0
    7.0950   27.9840    9.3950 N   0  0  0  0  0  0
    6.9270   26.5130    6.2110 N   0  0  0  0  0  0
    5.8240   27.3850    5.8360 C   0  0  2  0  0  0
    4.7630   27.3850    6.9280 C   0  0  0  0  0  0
    4.6340   26.4200    7.6770 O   0  0  0  0  0  0
    5.2330   26.9550    4.4810 C   0  0  0  0  0  0
    4.5860   25.5900    4.4880 C   0  0  0  0  0  0
    3.2310   25.4460    4.7910 C   0  0  0  0  0  0
    5.3280   24.4530    4.1730 C   0  0  0  0  0  0
    2.6200   24.1870    4.7790 C   0  0  0  0  0  0
    4.7300   23.1880    4.1570 C   0  0  0  0  0  0
    3.3710   23.0580    4.4610 C   0  0  0  0  0  0
    4.0190   28.4790    7.0370 N   0  0  0  0  0  0
   17.5604   19.1630    2.3388 H   0  0  0  0  0  0
   16.7295   17.6248    1.9265 H   0  0  0  0  0  0
   17.5592   17.8010    3.5100 H   0  0  0  0  0  0
   15.5003   20.4824    1.9411 H   0  0  0  0  0  0
   13.9765   20.0826    2.8041 H   0  0  0  0  0  0
   14.5797   19.0043    1.5001 H   0  0  0  0  0  0
   15.4283   17.1442    4.6681 H   0  0  0  0  0  0
   14.5354   17.0281    3.1137 H   0  0  0  0  0  0
   13.9322   18.1064    4.4177 H   0  0  0  0  0  0
   16.8887   21.5426    5.9431 H   0  0  0  0  0  0
   14.1068   21.8215    7.0884 H   0  0  0  0  0  0
   14.1712   24.3738    6.8733 H   0  0  0  0  0  0
   16.6190   24.6233    6.6296 H   0  0  0  0  0  0
   16.6977   23.2732    7.9238 H   0  0  0  0  0  0
   15.1539   23.2681    8.8422 H   0  0  0  0  0  0
   18.1726   21.4173    7.9659 H   0  0  0  0  0  0
   14.4035   21.2752    9.9985 H   0  0  0  0  0  0
   18.8818   19.3490    9.1203 H   0  0  0  0  0  0
   15.1006   19.2021   11.1479 H   0  0  0  0  0  0
   17.3421   18.2342   10.7158 H   0  0  0  0  0  0
   14.4917   22.9196    4.1787 H   0  0  0  0  0  0
   12.9923   22.8489    5.1654 H   0  0  0  0  0  0
   13.6326   25.5169    5.0794 H   0  0  0  0  0  0
   14.0107   24.9085    3.4321 H   0  0  0  0  0  0
   11.9622   25.7647    3.5619 H   0  0  0  0  0  0
   12.2482   23.7578    2.1081 H   0  0  0  0  0  0
   11.8491   22.6734    3.4833 H   0  0  0  0  0  0
    9.7873   21.6890    3.3270 H   0  0  0  0  0  0
   10.2881   25.6824    1.8439 H   0  0  0  0  0  0
    7.3840   21.7525    2.6982 H   0  0  0  0  0  0
    7.8940   25.7536    1.2060 H   0  0  0  0  0  0
    6.4346   23.7888    1.6336 H   0  0  0  0  0  0
   10.3046   26.5048    4.5080 H   0  0  0  0  0  0
    8.8310   24.8215    6.5093 H   0  0  0  0  0  0
   10.6575   25.5822    7.9622 H   0  0  0  0  0  0
   10.4186   27.2807    7.4288 H   0  0  0  0  0  0
    8.2274   25.7567    8.8381 H   0  0  0  0  0  0
    9.5584   26.5633    9.7350 H   0  0  0  0  0  0
    6.7293   27.1204    9.9698 H   0  0  0  0  0  0
    6.5207   28.9222    9.3866 H   0  0  0  0  0  0
    6.7343   25.6057    6.8023 H   0  0  0  0  0  0
    6.2500   28.3954    5.7491 H   0  0  0  0  0  0
    4.4604   27.6749    4.1730 H   0  0  0  0  0  0
    6.0313   26.9279    3.7247 H   0  0  0  0  0  0
    2.6401   26.3272    5.0407 H   0  0  0  0  0  0
    6.3875   24.5504    3.9361 H   0  0  0  0  0  0
    1.5608   24.0904    5.0175 H   0  0  0  0  0  0
    5.3214   22.3068    3.9084 H   0  0  0  0  0  0
    2.9005   22.0749    4.4491 H   0  0  0  0  0  0
    4.1707   29.3187    6.3428 H   0  0  0  0  0  0
    3.2508   28.5458    7.8215 H   0  0  0  0  0  0
  1  2  2  0  0  0
  2  3  1  0  0  0
  2  8  1  0  0  0
  3  4  1  0  0  0
  4  5  1  0  0  0
  4  6  1  0  0  0
  4  7  1  0  0  0
  5 52  1  0  0  0
  5 53  1  0  0  0
  5 54  1  0  0  0
  6 55  1  0  0  0
  6 56  1  0  0  0
  6 57  1  0  0  0
  7 58  1  0  0  0
  7 59  1  0  0  0
  7 60  1  0  0  0
  8  9  1  0  0  0
  8 61  1  0  0  0
  9 10  1  0  0  0
  9 12  1  0  0  0
  9 62  1  0  0  0
 10 11  1  0  0  0
 10 19  1  0  0  0
 10 63  1  0  0  0
 11 64  1  0  0  0
 12 13  1  0  0  0
 12 65  1  0  0  0
 12 66  1  0  0  0
 13 14  2  0  0  0
 13 15  1  0  0  0
 14 16  1  0  0  0
 14 67  1  0  0  0
 15 17  2  0  0  0
 15 68  1  0  0  0
 16 18  2  0  0  0
 16 69  1  0  0  0
 17 18  1  0  0  0
 17 70  1  0  0  0
 18 71  1  0  0  0
 19 20  1  0  0  0
 19 72  1  0  0  0
 19 73  1  0  0  0
 20 21  1  0  0  0
 20 74  1  0  0  0
 20 75  1  0  0  0
 21 22  1  0  0  0
 21 24  1  0  0  0
 21 76  1  0  0  0
 22 23  2  0  0  0
 22 31  1  0  0  0
 24 25  1  0  0  0
 24 77  1  0  0  0
 24 78  1  0  0  0
 25 26  2  0  0  0
 25 27  1  0  0  0
 26 28  1  0  0  0
 26 79  1  0  0  0
 27 29  2  0  0  0
 27 80  1  0  0  0
 28 30  2  0  0  0
 28 81  1  0  0  0
 29 30  1  0  0  0
 29 82  1  0  0  0
 30 83  1  0  0  0
 31 32  1  0  0  0
 31 84  1  0  0  0
 32 33  1  0  0  0
 32 35  1  0  0  0
 32 85  1  0  0  0
 33 34  2  0  0  0
 33 40  1  0  0  0
 35 36  1  0  0  0
 35 86  1  0  0  0
 35 87  1  0  0  0
 36 37  1  0  0  0
 36 88  1  0  0  0
 36 89  1  0  0  0
 37 38  2  0  0  0
 37 39  1  0  0  0
 39 90  1  0  0  0
 39 91  1  0  0  0
 40 41  1  0  0  0
 40 92  1  0  0  0
 41 42  1  0  0  0
 41 44  1  0  0  0
 41 93  1  0  0  0
 42 43  2  0  0  0
 42 51  1  0  0  0
 44 45  1  0  0  0
 44 94  1  0  0  0
 44 95  1  0  0  0
 45 46  2  0  0  0
 45 47  1  0  0  0
 46 48  1  0  0  0
 46 96  1  0  0  0
 47 49  2  0  0  0
 47 97  1  0  0  0
 48 50  2  0  0  0
 48 98  1  0  0  0
 49 50  1  0  0  0
 49 99  1  0  0  0
 50100  1  0  0  0
 51101  1  0  0  0
 51102  1  0  0  0
M  CHG  1  20   1
M  END
> <s_m_source_file>
../1iiq_ligand.sdf

> <i_m_source_file_index>
1

> <s_epik_input>
W2NIXTFbY0hdW2NIXVtjSF1bY0hdYzFbQ0gyXVtDQEhdKFtOSF1DKD1PKU9DKFtDSDNdKShbQ0gzXSlbQ0gzXSlbQ0BASF0oW09IXSlbQ0gyXVtOSDIrXVtDQEBIXShbQ0gyXWMyW2NIXVtjSF1bY0hdW2NIXVtjSF0yKUMoPU8pW05IXVtDQEBIXShbQ0gyXVtDSDJdQyg9TylbTkgyXSlDKD1PKVtOSF1bQ0BIXShDKD1PKVtOSDJdKVtDSDJdYzNbY0hdW2NIXVtjSF1bY0hdW2NIXTM=

> <s_epik_cmdline>
J2VwaWtfYXBwJywgJy1pbWFlJywgJ2xpZ2FuZF9wcm8ubWFlJywgJy1vbWFlJywgJ2xpZ2FuZF9wcmVwLm1hZScsICctbXMnLCAnMScsICctcGgnLCAnNycsICctcGh0JywgJzAuNScsICctbnQn

> <r_epik_Ionization_Penalty>
  0.0871

> <r_epik_Ionization_Penalty_Charging>
  0.0871

> <r_epik_Ionization_Penalty_Neutral>
  0.0000

> <r_epik_State_Penalty>
  0.0776

> <r_epik_Charging_Adjusted_Penalty>
0.16475144956538

> <i_epik_Tot_Q>
1

> <i_epik_Tot_abs_Q>
1

> <s_epik_Chemistry_Notes>
This compound has an ester and may undergo hydrolysis at high or low pH.

$$$$
