1ijr_ligand
                    3D
 Schrodinger Suite 2020-3.
 79 81  0  0  1  0            999 V2000
   69.0730   26.5080   34.2270 P   0  0  0  0  0  0
   68.7380   27.4620   35.3400 O   0  5  0  0  0  0
   69.8460   27.2460   33.1800 O   0  0  0  0  0  0
   69.8900   25.3630   34.7600 O   0  0  0  0  0  0
   59.6350   27.6920   33.5900 C   0  0  1  0  0  0
   60.9750   27.6510   33.0400 N   0  0  0  0  0  0
   63.3860   27.4740   33.2620 C   0  0  1  0  0  0
   62.0580   27.9400   33.7790 C   0  0  0  0  0  0
   62.0300   28.5790   34.8280 O   0  0  0  0  0  0
   64.3720   28.5450   33.3860 N   0  0  0  0  0  0
   63.7640   26.2010   34.0420 C   0  0  0  0  0  0
   65.1140   25.7390   33.4800 C   0  0  0  0  0  0
   66.3100   26.2430   34.0160 C   0  0  0  0  0  0
   65.1570   24.8140   32.4250 C   0  0  0  0  0  0
   67.5610   25.8410   33.5080 C   0  0  0  0  0  0
   66.3980   24.4060   31.9130 C   0  0  0  0  0  0
   67.6000   24.9100   32.4390 C   0  0  0  0  0  0
   68.8590   24.5050   31.9220 O   0  0  0  0  0  0
   58.5880   27.7530   32.4190 C   0  0  0  0  0  0
   64.7360   29.2730   32.3040 C   0  0  0  0  0  0
   65.7590   30.3510   32.4900 C   0  0  0  0  0  0
   64.2780   29.0970   31.1900 O   0  0  0  0  0  0
   57.8780   23.7910   37.4620 O   0  0  0  0  0  0
   59.3150   26.4940   34.5070 C   0  0  0  0  0  0
   59.9890   25.2960   34.7590 C   0  0  0  0  0  0
   59.5490   24.4050   35.7560 C   0  0  0  0  0  0
   58.3900   24.7090   36.5180 C   0  0  0  0  0  0
   57.7910   25.9790   36.3170 C   0  0  0  0  0  0
   58.1620   26.7780   35.2500 C   0  0  0  0  0  0
   56.5890   24.0310   38.0720 C   0  0  0  0  0  0
   55.5950   22.9110   37.7080 C   0  0  0  0  0  0
   54.1410   23.4810   37.8030 C   0  0  0  0  0  0
   53.1280   22.3830   37.4490 C   0  0  0  0  0  0
   53.4250   21.8200   36.0260 C   0  0  0  0  0  0
   54.8760   21.2970   35.8900 C   0  0  0  0  0  0
   55.8650   22.4220   36.2520 C   0  0  0  0  0  0
   60.3970   23.1620   36.0040 C   0  0  0  0  0  0
   59.9180   22.0260   36.5690 N   0  0  0  0  0  0
   61.5730   23.1920   35.6510 O   0  0  0  0  0  0
   68.7890   23.3300   31.0960 C   0  0  0  0  0  0
   68.8420   23.7080   29.6400 C   0  0  0  0  0  0
   69.4850   22.8610   28.8250 O   0  5  0  0  0  0
   68.3060   24.7440   29.2510 O   0  0  0  0  0  0
   70.2264   24.5649   34.0819 H   0  0  0  0  0  0
   59.6558   28.6004   34.2100 H   0  0  0  0  0  0
   61.1287   27.3766   31.9859 H   0  0  0  0  0  0
   63.3586   27.2731   32.1808 H   0  0  0  0  0  0
   64.8248   28.7652   34.3640 H   0  0  0  0  0  0
   63.8417   26.4371   35.1136 H   0  0  0  0  0  0
   62.9895   25.4347   33.8906 H   0  0  0  0  0  0
   66.2698   26.9570   34.8386 H   0  0  0  0  0  0
   64.2328   24.4155   32.0065 H   0  0  0  0  0  0
   66.4304   23.6869   31.0945 H   0  0  0  0  0  0
   58.8177   28.6079   31.7660 H   0  0  0  0  0  0
   57.5773   27.8717   32.8366 H   0  0  0  0  0  0
   58.6364   26.8221   31.8350 H   0  0  0  0  0  0
   66.0707   30.3827   33.5444 H   0  0  0  0  0  0
   65.3249   31.3212   32.2067 H   0  0  0  0  0  0
   66.6326   30.1408   31.8555 H   0  0  0  0  0  0
   60.8729   25.0466   34.1719 H   0  0  0  0  0  0
   57.0284   26.3301   37.0122 H   0  0  0  0  0  0
   57.5492   27.6394   34.9842 H   0  0  0  0  0  0
   56.7014   24.0640   39.1657 H   0  0  0  0  0  0
   56.1877   24.9912   37.7156 H   0  0  0  0  0  0
   55.7279   22.0708   38.4055 H   0  0  0  0  0  0
   53.9518   23.8339   38.8275 H   0  0  0  0  0  0
   54.0292   24.3195   37.0998 H   0  0  0  0  0  0
   53.2006   21.5668   38.1829 H   0  0  0  0  0  0
   52.1113   22.8026   37.4666 H   0  0  0  0  0  0
   52.7413   20.9853   35.8119 H   0  0  0  0  0  0
   53.2787   22.6145   35.2794 H   0  0  0  0  0  0
   55.0243   20.4459   36.5709 H   0  0  0  0  0  0
   55.0533   20.9729   34.8539 H   0  0  0  0  0  0
   55.7341   23.2613   35.5531 H   0  0  0  0  0  0
   56.8941   22.0405   36.1782 H   0  0  0  0  0  0
   58.8683   21.9735   36.8937 H   0  0  0  0  0  0
   60.5791   21.1571   36.7026 H   0  0  0  0  0  0
   69.6380   22.6693   31.3256 H   0  0  0  0  0  0
   67.8466   22.7983   31.2939 H   0  0  0  0  0  0
  1 15  1  0  0  0
  1  4  1  0  0  0
  1  3  2  0  0  0
  1  2  1  0  0  0
  4 44  1  0  0  0
  5  6  1  0  0  0
  5 19  1  0  0  0
  5 24  1  0  0  0
  5 45  1  0  0  0
  6  8  1  0  0  0
  6 46  1  0  0  0
  7 11  1  0  0  0
  7  8  1  0  0  0
  7 10  1  0  0  0
  7 47  1  0  0  0
  8  9  2  0  0  0
 10 20  1  0  0  0
 10 48  1  0  0  0
 11 12  1  0  0  0
 11 49  1  0  0  0
 11 50  1  0  0  0
 12 13  2  0  0  0
 12 14  1  0  0  0
 13 15  1  0  0  0
 13 51  1  0  0  0
 14 16  2  0  0  0
 14 52  1  0  0  0
 15 17  2  0  0  0
 16 17  1  0  0  0
 16 53  1  0  0  0
 17 18  1  0  0  0
 18 40  1  0  0  0
 19 54  1  0  0  0
 19 55  1  0  0  0
 19 56  1  0  0  0
 20 22  2  0  0  0
 20 21  1  0  0  0
 21 57  1  0  0  0
 21 58  1  0  0  0
 21 59  1  0  0  0
 23 27  1  0  0  0
 23 30  1  0  0  0
 24 29  2  0  0  0
 24 25  1  0  0  0
 25 26  2  0  0  0
 25 60  1  0  0  0
 26 37  1  0  0  0
 26 27  1  0  0  0
 27 28  2  0  0  0
 28 29  1  0  0  0
 28 61  1  0  0  0
 29 62  1  0  0  0
 30 31  1  0  0  0
 30 63  1  0  0  0
 30 64  1  0  0  0
 31 36  1  0  0  0
 31 32  1  0  0  0
 31 65  1  0  0  0
 32 33  1  0  0  0
 32 66  1  0  0  0
 32 67  1  0  0  0
 33 34  1  0  0  0
 33 68  1  0  0  0
 33 69  1  0  0  0
 34 35  1  0  0  0
 34 70  1  0  0  0
 34 71  1  0  0  0
 35 36  1  0  0  0
 35 72  1  0  0  0
 35 73  1  0  0  0
 36 74  1  0  0  0
 36 75  1  0  0  0
 37 39  2  0  0  0
 37 38  1  0  0  0
 38 76  1  0  0  0
 38 77  1  0  0  0
 40 41  1  0  0  0
 40 78  1  0  0  0
 40 79  1  0  0  0
 41 43  2  0  0  0
 41 42  1  0  0  0
M  CHG  2   2  -1  42  -1
M  END
> <s_m_source_file>
../1ijr_ligand.sdf

> <i_m_source_file_index>
1

> <s_epik_input>
W09IXUMoPU8pW0NIMl1PYyhbY0hdW2NIXTEpYyhQKD1PKShbT0hdKVtPSF0pW2NIXWMxW0NIMl1bQ0BIXShbTkhdQyg9TylbQ0gzXSlDKD1PKVtOSF1bQ0BASF0oW0NIM10pYzJbY0hdYyhDKD1PKVtOSDJdKWMoW2NIXVtjSF0yKU9bQ0gyXVtDSF0zW0NIMl1bQ0gyXVtDSDJdW0NIMl1bQ0gyXTM=

> <s_epik_cmdline>
J2VwaWtfYXBwJywgJy1pbWFlJywgJ2xpZ2FuZF9wcm8ubWFlJywgJy1vbWFlJywgJ2xpZ2FuZF9wcmVwLm1hZScsICctbXMnLCAnMScsICctcGgnLCAnNycsICctcGh0JywgJzAuNScsICctbnQn

> <r_lp_tautomer_probability>
1

> <r_epik_Ionization_Penalty>
  0.2459

> <r_epik_Ionization_Penalty_Charging>
  0.0001

> <r_epik_Ionization_Penalty_Neutral>
  0.2458

> <r_epik_State_Penalty>
  0.2369

> <r_epik_Charging_Adjusted_Penalty>
0.237017144747524

> <i_epik_Tot_Q>
-2

> <i_epik_Tot_abs_Q>
2

$$$$
