1ik4_ligand
                    3D
 Schrodinger Suite 2020-3.
 14 13  0  0  1  0            999 V2000
   86.1180  -15.6070   65.3720 C   0  0  0  0  0  0
   85.7010  -14.6110   66.4400 C   0  0  0  0  0  0
   87.2920  -16.1290   65.5670 N   0  0  0  0  0  0
   87.7330  -17.0480   64.6530 O   0  0  0  0  0  0
   85.2920  -15.8030   64.4670 O   0  0  0  0  0  0
   84.9090  -13.6700   65.7870 O   0  0  0  0  0  0
   82.6140  -12.9430   66.6190 O   0  5  0  0  0  0
   84.7290  -12.3590   68.3190 O   0  5  0  0  0  0
   84.1870  -11.0950   65.8320 O   0  0  0  0  0  0
   84.2080  -12.4360   66.7460 P   0  0  0  0  0  0
   85.1367  -15.1323   67.2272 H   0  0  0  0  0  0
   86.5967  -14.1461   66.8776 H   0  0  0  0  0  0
   87.9252  -15.8592   66.4251 H   0  0  0  0  0  0
   88.7205  -17.5166   64.7767 H   0  0  0  0  0  0
  1  5  2  0  0  0
  1  3  1  0  0  0
  1  2  1  0  0  0
  2  6  1  0  0  0
  2 11  1  0  0  0
  2 12  1  0  0  0
  3  4  1  0  0  0
  3 13  1  0  0  0
  4 14  1  0  0  0
  6 10  1  0  0  0
  7 10  1  0  0  0
  8 10  1  0  0  0
  9 10  2  0  0  0
M  CHG  2   7  -1   8  -1
M  END
> <s_m_source_file>
../1ik4_ligand.sdf

> <i_m_source_file_index>
1

> <s_epik_input>
W09IXVtOSF1DKD1PKVtDSDJdT1AoPU8pKFtPSF0pW09IXQ==

> <s_epik_cmdline>
J2VwaWtfYXBwJywgJy1pbWFlJywgJ2xpZ2FuZF9wcm8ubWFlJywgJy1vbWFlJywgJ2xpZ2FuZF9wcmVwLm1hZScsICctbXMnLCAnMScsICctcGgnLCAnNycsICctcGh0JywgJzAuNScsICctbnQn

> <r_lp_tautomer_probability>
1

> <r_epik_Ionization_Penalty>
  0.1051

> <r_epik_Ionization_Penalty_Charging>
  0.0952

> <r_epik_Ionization_Penalty_Neutral>
  0.0099

> <r_epik_State_Penalty>
 -0.0000

> <r_epik_Charging_Adjusted_Penalty>
0.0952146890399759

> <i_epik_Tot_Q>
-2

> <i_epik_Tot_abs_Q>
2

> <s_epik_Chemistry_Notes>
This compound has a N-S or N-O group and may undergo hydrolysis at high or low pH.

$$$$
