1ikt_ligand
                    3D
 Schrodinger Suite 2020-3.
 61 61  0  0  1  0            999 V2000
   29.5530   28.8300   15.9440 C   0  0  0  0  0  0
   30.2890   28.7900   17.2730 C   0  0  0  0  0  0
   29.3270   28.4350   18.4150 C   0  0  0  0  0  0
   31.3090   27.6510   17.1890 C   0  0  0  0  0  0
   31.0540   30.0570   17.7100 C   0  0  0  0  0  0
   29.8430   29.2540   14.4720 C   0  0  0  0  0  0
   30.4160   30.6950   14.3880 C   0  0  0  0  0  0
   30.7990   28.2770   13.7980 C   0  0  0  0  0  0
   28.5370   29.2090   13.6820 C   0  0  0  0  0  0
   29.5790   31.8340   14.6420 C   0  0  0  0  0  0
   30.1000   33.1770   14.5860 C   0  0  0  0  0  0
   31.4620   33.3240   14.2710 C   0  0  0  0  0  0
   32.3410   32.2670   14.0150 C   0  0  0  0  0  0
   31.7970   30.9260   14.0760 C   0  0  0  0  0  0
   31.9870   34.6660   14.1200 O   0  0  0  0  0  0
   31.7630   35.5090   15.2590 C   0  0  0  0  0  0
   31.5560   36.9420   14.8090 C   0  0  0  0  0  0
   32.8010   37.6480   14.7910 O   0  0  0  0  0  0
   32.6720   38.9270   14.1580 C   0  0  0  0  0  0
   33.6100   39.9300   14.8010 C   0  0  0  0  0  0
   32.9430   40.6310   15.8510 O   0  0  0  0  0  0
   33.5260   41.9120   16.1060 C   0  0  0  0  0  0
   32.8960   42.5390   17.3490 C   0  0  0  0  0  0
   33.5580   42.0700   18.5240 O   0  0  0  0  0  0
   33.3050   42.9050   19.6530 C   0  0  0  0  0  0
   28.7171   29.4258   16.3393 H   0  0  0  0  0  0
   29.2884   27.7627   15.9728 H   0  0  0  0  0  0
   28.5704   29.2270   18.5166 H   0  0  0  0  0  0
   29.8913   28.3442   19.3549 H   0  0  0  0  0  0
   28.8299   27.4794   18.1919 H   0  0  0  0  0  0
   32.0253   27.8591   16.3805 H   0  0  0  0  0  0
   30.7865   26.7055   16.9816 H   0  0  0  0  0  0
   31.8479   27.5702   18.1445 H   0  0  0  0  0  0
   31.7592   30.3507   16.9186 H   0  0  0  0  0  0
   31.6088   29.8489   18.6368 H   0  0  0  0  0  0
   30.3393   30.8744   17.8861 H   0  0  0  0  0  0
   30.3874   27.2589   13.8610 H   0  0  0  0  0  0
   31.7747   28.3101   14.3049 H   0  0  0  0  0  0
   30.9248   28.5569   12.7417 H   0  0  0  0  0  0
   28.1146   28.1945   13.7294 H   0  0  0  0  0  0
   28.7336   29.4757   12.6331 H   0  0  0  0  0  0
   27.8221   29.9245   14.1144 H   0  0  0  0  0  0
   28.5271   31.6797   14.8823 H   0  0  0  0  0  0
   29.4650   34.0415   14.7796 H   0  0  0  0  0  0
   33.3904   32.4446   13.7797 H   0  0  0  0  0  0
   32.4500   30.0753   13.8809 H   0  0  0  0  0  0
   30.8681   35.1658   15.7988 H   0  0  0  0  0  0
   32.6352   35.4615   15.9276 H   0  0  0  0  0  0
   31.1267   36.9499   13.7963 H   0  0  0  0  0  0
   30.8686   37.4485   15.5026 H   0  0  0  0  0  0
   32.9220   38.8348   13.0908 H   0  0  0  0  0  0
   31.6372   39.2852   14.2625 H   0  0  0  0  0  0
   34.4806   39.4027   15.2182 H   0  0  0  0  0  0
   33.9476   40.6537   14.0445 H   0  0  0  0  0  0
   34.6077   41.7966   16.2692 H   0  0  0  0  0  0
   33.3538   42.5717   15.2428 H   0  0  0  0  0  0
   32.9891   43.6337   17.2947 H   0  0  0  0  0  0
   31.8322   42.2635   17.3996 H   0  0  0  0  0  0
   33.8338   42.5050   20.5307 H   0  0  0  0  0  0
   32.2242   42.9297   19.8559 H   0  0  0  0  0  0
   33.6620   43.9240   19.4427 H   0  0  0  0  0  0
  1  6  1  0  0  0
  1  2  1  0  0  0
  1 26  1  0  0  0
  1 27  1  0  0  0
  2  5  1  0  0  0
  2  4  1  0  0  0
  2  3  1  0  0  0
  3 28  1  0  0  0
  3 29  1  0  0  0
  3 30  1  0  0  0
  4 31  1  0  0  0
  4 32  1  0  0  0
  4 33  1  0  0  0
  5 34  1  0  0  0
  5 35  1  0  0  0
  5 36  1  0  0  0
  6  9  1  0  0  0
  6  8  1  0  0  0
  6  7  1  0  0  0
  7 14  2  0  0  0
  7 10  1  0  0  0
  8 37  1  0  0  0
  8 38  1  0  0  0
  8 39  1  0  0  0
  9 40  1  0  0  0
  9 41  1  0  0  0
  9 42  1  0  0  0
 10 11  2  0  0  0
 10 43  1  0  0  0
 11 12  1  0  0  0
 11 44  1  0  0  0
 12 15  1  0  0  0
 12 13  2  0  0  0
 13 14  1  0  0  0
 13 45  1  0  0  0
 14 46  1  0  0  0
 15 16  1  0  0  0
 16 17  1  0  0  0
 16 47  1  0  0  0
 16 48  1  0  0  0
 17 18  1  0  0  0
 17 49  1  0  0  0
 17 50  1  0  0  0
 18 19  1  0  0  0
 19 20  1  0  0  0
 19 51  1  0  0  0
 19 52  1  0  0  0
 20 21  1  0  0  0
 20 53  1  0  0  0
 20 54  1  0  0  0
 21 22  1  0  0  0
 22 23  1  0  0  0
 22 55  1  0  0  0
 22 56  1  0  0  0
 23 24  1  0  0  0
 23 57  1  0  0  0
 23 58  1  0  0  0
 24 25  1  0  0  0
 25 59  1  0  0  0
 25 60  1  0  0  0
 25 61  1  0  0  0
M  END
> <s_m_source_file>
../1ikt_ligand.sdf

> <i_m_source_file_index>
1

> <s_epik_input>
W0NIM11DKFtDSDNdKShbQ0gzXSlbQ0gyXUMoW0NIM10pKFtDSDNdKWMxW2NIXVtjSF1jKFtjSF1bY0hdMSlPW0NIMl1bQ0gyXU9bQ0gyXVtDSDJdT1tDSDJdW0NIMl1PW0NIM10=

> <s_epik_cmdline>
J2VwaWtfYXBwJywgJy1pbWFlJywgJ2xpZ2FuZF9wcm8ubWFlJywgJy1vbWFlJywgJ2xpZ2FuZF9wcmVwLm1hZScsICctbXMnLCAnMScsICctcGgnLCAnNycsICctcGh0JywgJzAuNScsICctbnQn

> <r_lp_tautomer_probability>
1

> <r_epik_Ionization_Penalty>
  0.0000

> <r_epik_Ionization_Penalty_Charging>
  0.0000

> <r_epik_Ionization_Penalty_Neutral>
  0.0000

> <r_epik_State_Penalty>
 -0.0000

> <r_epik_Charging_Adjusted_Penalty>
0

> <i_epik_Tot_Q>
0

> <i_epik_Tot_abs_Q>
0

$$$$
