1ikv_ligand
                    3D
 Schrodinger Suite 2020-3.
 30 32  0  0  1  0            999 V2000
   -7.0660  145.9570  174.8140 Cl  0  0  0  0  0  0
  -12.2330  145.0560  174.0300 F   0  0  0  0  0  0
  -12.0380  144.7650  171.7930 F   0  0  0  0  0  0
  -13.3770  143.3890  172.9930 F   0  0  0  0  0  0
  -11.1220  141.2380  170.3250 O   0  0  0  0  0  0
  -11.1360  141.8690  172.4590 O   0  0  0  0  0  0
   -9.5190  142.7610  170.8650 N   0  0  0  0  0  0
   -8.8860  143.5780  171.8390 C   0  0  0  0  0  0
   -7.6080  144.1720  171.5940 C   0  0  0  0  0  0
   -6.9810  144.9840  172.5970 C   0  0  0  0  0  0
   -7.6330  145.2050  173.8470 C   0  0  0  0  0  0
   -8.9110  144.6110  174.0770 C   0  0  0  0  0  0
   -9.5710  143.7890  173.0850 C   0  0  0  0  0  0
  -10.9740  143.0950  173.2600 C   0  0  2  0  0  0
  -11.0730  142.5760  174.6330 C   0  0  0  0  0  0
  -11.2490  142.1770  175.9090 C   0  0  0  0  0  0
  -11.4190  141.6750  177.2610 C   0  0  0  0  0  0
  -11.0230  140.3290  177.7300 C   0  0  0  0  0  0
  -10.0370  141.5250  177.9300 C   0  0  0  0  0  0
  -12.1820  144.1100  173.0170 C   0  0  0  0  0  0
  -10.6150  141.9250  171.1980 C   0  0  0  0  0  0
   -9.1609  142.7674  169.8250 H   0  0  0  0  0  0
   -7.1076  144.0068  170.6398 H   0  0  0  0  0  0
   -6.0063  145.4322  172.4042 H   0  0  0  0  0  0
   -9.4067  144.7825  175.0325 H   0  0  0  0  0  0
  -12.3942  142.1726  177.3681 H   0  0  0  0  0  0
  -11.7459  139.9745  178.4795 H   0  0  0  0  0  0
  -11.0076  139.6336  176.8778 H   0  0  0  0  0  0
   -9.2518  141.8255  177.2207 H   0  0  0  0  0  0
   -9.9900  142.1664  178.8224 H   0  0  0  0  0  0
  1 11  1  0  0  0
  2 20  1  0  0  0
  3 20  1  0  0  0
  4 20  1  0  0  0
  5 21  2  0  0  0
  6 14  1  0  0  0
  6 21  1  0  0  0
  7  8  1  0  0  0
  7 21  1  0  0  0
  7 22  1  0  0  0
  8  9  2  0  0  0
  8 13  1  0  0  0
  9 10  1  0  0  0
  9 23  1  0  0  0
 10 11  2  0  0  0
 10 24  1  0  0  0
 11 12  1  0  0  0
 12 13  2  0  0  0
 12 25  1  0  0  0
 13 14  1  0  0  0
 14 15  1  0  0  0
 14 20  1  0  0  0
 15 16  3  0  0  0
 16 17  1  0  0  0
 17 18  1  0  0  0
 17 19  1  0  0  0
 17 26  1  0  0  0
 18 19  1  0  0  0
 18 27  1  0  0  0
 18 28  1  0  0  0
 19 29  1  0  0  0
 19 30  1  0  0  0
M  END
> <s_m_source_file>
../1ikv_ligand.sdf

> <i_m_source_file_index>
1

> <s_epik_input>
W2NIXTFbY0hdYyhDbClbY0hdYyhjMTIpW0NAQF0oQyhGKShGKUYpKE9DKD1PKVtOSF0yKUMjQ1tDSF0zW0NIMl1bQ0gyXTM=

> <s_epik_cmdline>
J2VwaWtfYXBwJywgJy1pbWFlJywgJ2xpZ2FuZF9wcm8ubWFlJywgJy1vbWFlJywgJ2xpZ2FuZF9wcmVwLm1hZScsICctbXMnLCAnMScsICctcGgnLCAnNycsICctcGh0JywgJzAuNScsICctbnQn

> <r_lp_tautomer_probability>
1

> <r_epik_Ionization_Penalty>
  0.0000

> <r_epik_Ionization_Penalty_Charging>
  0.0000

> <r_epik_Ionization_Penalty_Neutral>
  0.0000

> <r_epik_State_Penalty>
 -0.0000

> <r_epik_Charging_Adjusted_Penalty>
0

> <i_epik_Tot_Q>
0

> <i_epik_Tot_abs_Q>
0

> <s_epik_Chemistry_Notes>
This compound has an ester and may undergo hydrolysis at high or low pH.

$$$$
