1ikw_ligand
                    3D
 Schrodinger Suite 2020-3.
 30 32  0  0  1  0            999 V2000
   -7.0580  146.0360  175.8400 Cl  0  0  0  0  0  0
  -12.0580  145.1600  174.8030 F   0  0  0  0  0  0
  -11.9300  144.5790  172.6110 F   0  0  0  0  0  0
  -13.2680  143.4330  173.9990 F   0  0  0  0  0  0
  -10.8650  141.1570  171.3080 O   0  0  0  0  0  0
  -10.9920  141.8560  173.4180 O   0  0  0  0  0  0
   -9.3010  142.7160  171.8850 N   0  0  0  0  0  0
   -8.7220  143.5640  172.8590 C   0  0  0  0  0  0
   -7.4330  144.1570  172.6480 C   0  0  0  0  0  0
   -6.8570  145.0020  173.6550 C   0  0  0  0  0  0
   -7.5710  145.2540  174.8720 C   0  0  0  0  0  0
   -8.8540  144.6570  175.0620 C   0  0  0  0  0  0
   -9.4650  143.8010  174.0690 C   0  0  0  0  0  0
  -10.8690  143.0970  174.2060 C   0  0  2  0  0  0
  -10.9970  142.5760  175.5730 C   0  0  0  0  0  0
  -11.2010  142.0780  176.8030 C   0  0  0  0  0  0
  -11.3910  141.4730  178.1030 C   0  0  0  0  0  0
  -10.7410  140.2320  178.5780 C   0  0  0  0  0  0
  -10.1040  141.6150  178.9340 C   0  0  0  0  0  0
  -12.0590  144.1020  173.9050 C   0  0  0  0  0  0
  -10.4100  141.8780  172.1860 C   0  0  0  0  0  0
   -8.8936  142.6932  170.8635 H   0  0  0  0  0  0
   -6.8905  143.9657  171.7221 H   0  0  0  0  0  0
   -5.8772  145.4518  173.4944 H   0  0  0  0  0  0
   -9.3926  144.8535  175.9891 H   0  0  0  0  0  0
  -12.4625  141.7219  178.1000 H   0  0  0  0  0  0
  -11.4396  139.6745  179.2192 H   0  0  0  0  0  0
  -10.4609  139.6110  177.7143 H   0  0  0  0  0  0
   -9.3382  142.1332  178.3382 H   0  0  0  0  0  0
  -10.3168  142.1966  179.8431 H   0  0  0  0  0  0
  1 11  1  0  0  0
  2 20  1  0  0  0
  3 20  1  0  0  0
  4 20  1  0  0  0
  5 21  2  0  0  0
  6 14  1  0  0  0
  6 21  1  0  0  0
  7  8  1  0  0  0
  7 21  1  0  0  0
  7 22  1  0  0  0
  8  9  2  0  0  0
  8 13  1  0  0  0
  9 10  1  0  0  0
  9 23  1  0  0  0
 10 11  2  0  0  0
 10 24  1  0  0  0
 11 12  1  0  0  0
 12 13  2  0  0  0
 12 25  1  0  0  0
 13 14  1  0  0  0
 14 15  1  0  0  0
 14 20  1  0  0  0
 15 16  3  0  0  0
 16 17  1  0  0  0
 17 18  1  0  0  0
 17 19  1  0  0  0
 17 26  1  0  0  0
 18 19  1  0  0  0
 18 27  1  0  0  0
 18 28  1  0  0  0
 19 29  1  0  0  0
 19 30  1  0  0  0
M  END
> <s_m_source_file>
../1ikw_ligand.sdf

> <i_m_source_file_index>
1

> <s_epik_input>
W2NIXTFbY0hdYyhDbClbY0hdYyhjMTIpW0NAQF0oQyhGKShGKUYpKE9DKD1PKVtOSF0yKUMjQ1tDSF0zW0NIMl1bQ0gyXTM=

> <s_epik_cmdline>
J2VwaWtfYXBwJywgJy1pbWFlJywgJ2xpZ2FuZF9wcm8ubWFlJywgJy1vbWFlJywgJ2xpZ2FuZF9wcmVwLm1hZScsICctbXMnLCAnMScsICctcGgnLCAnNycsICctcGh0JywgJzAuNScsICctbnQn

> <r_lp_tautomer_probability>
1

> <r_epik_Ionization_Penalty>
  0.0000

> <r_epik_Ionization_Penalty_Charging>
  0.0000

> <r_epik_Ionization_Penalty_Neutral>
  0.0000

> <r_epik_State_Penalty>
 -0.0000

> <r_epik_Charging_Adjusted_Penalty>
0

> <i_epik_Tot_Q>
0

> <i_epik_Tot_abs_Q>
0

> <s_epik_Chemistry_Notes>
This compound has an ester and may undergo hydrolysis at high or low pH.

$$$$
