1ikx_ligand
                    3D
 Schrodinger Suite 2020-3.
 31 33  0  0  1  0            999 V2000
   -9.8980  142.8870  172.6230 C   0  0  0  0  0  0
   -8.9790  142.6990  171.6160 N   0  0  0  0  0  0
   -7.6580  143.0290  171.8440 C   0  0  0  0  0  0
   -7.2730  143.5580  173.1240 C   0  0  0  0  0  0
   -8.2380  143.7390  174.1410 C   0  0  0  0  0  0
   -9.5790  143.3720  173.8190 N   0  0  0  0  0  0
  -11.6200  139.7180  176.7090 C   0  0  0  0  0  0
  -12.2700  139.3770  175.4940 C   0  0  0  0  0  0
  -12.4940  140.3980  174.6020 N   0  0  0  0  0  0
  -12.1170  141.7040  174.8430 C   0  0  0  0  0  0
  -11.4550  142.0780  176.0500 C   0  0  0  0  0  0
  -11.2230  141.0410  176.9760 C   0  0  0  0  0  0
  -10.5920  140.9460  178.3440 C   0  0  0  0  0  0
  -11.3020  138.8280  177.7580 O   0  0  0  0  0  0
  -10.6960  139.6410  178.6880 C   0  0  0  0  0  0
  -12.4030  142.8710  173.9000 C   0  0  1  0  0  0
  -11.6010  142.4600  172.2990 S   0  0  0  0  0  0
   -6.6820  142.8480  170.8110 N   0  0  0  0  0  0
   -7.9040  144.3060  175.5650 Cl  0  0  0  0  0  0
  -13.9480  143.0030  173.7150 C   0  0  0  0  0  0
   -6.2319  143.8208  173.3113 H   0  0  0  0  0  0
  -12.5770  138.3535  175.2787 H   0  0  0  0  0  0
  -11.1467  143.1052  176.2447 H   0  0  0  0  0  0
  -10.1490  141.7528  178.9278 H   0  0  0  0  0  0
  -10.3242  139.2594  179.6389 H   0  0  0  0  0  0
  -12.1133  143.7877  174.4344 H   0  0  0  0  0  0
   -6.9839  142.4427  169.8340 H   0  0  0  0  0  0
   -5.6307  143.1143  170.9949 H   0  0  0  0  0  0
  -14.4132  143.2489  174.6810 H   0  0  0  0  0  0
  -14.3554  142.0512  173.3435 H   0  0  0  0  0  0
  -14.1635  143.8019  172.9902 H   0  0  0  0  0  0
  1  2  2  0  0  0
  1  6  1  0  0  0
  1 17  1  0  0  0
  2  3  1  0  0  0
  3  4  2  0  0  0
  3 18  1  0  0  0
  4  5  1  0  0  0
  4 21  1  0  0  0
  5  6  2  0  0  0
  5 19  1  0  0  0
  7  8  1  0  0  0
  7 12  2  0  0  0
  7 14  1  0  0  0
  8  9  2  0  0  0
  8 22  1  0  0  0
  9 10  1  0  0  0
 10 11  2  0  0  0
 10 16  1  0  0  0
 11 12  1  0  0  0
 11 23  1  0  0  0
 12 13  1  0  0  0
 13 15  2  0  0  0
 13 24  1  0  0  0
 14 15  1  0  0  0
 15 25  1  0  0  0
 16 17  1  0  0  0
 16 20  1  0  0  0
 16 26  1  0  0  0
 18 27  1  0  0  0
 18 28  1  0  0  0
 20 29  1  0  0  0
 20 30  1  0  0  0
 20 31  1  0  0  0
M  END
> <s_m_source_file>
../1ikx_ligand.sdf

> <i_m_source_file_index>
1

> <s_epik_input>
bjFjKENsKVtjSF1jKFtOSDJdKW5jMVNbQ0BASF0oW0NIM10pYyhuW2NIXTIpW2NIXWMoYzIzKVtjSF1bY0hdbzM=

> <s_epik_cmdline>
J2VwaWtfYXBwJywgJy1pbWFlJywgJ2xpZ2FuZF9wcm8ubWFlJywgJy1vbWFlJywgJ2xpZ2FuZF9wcmVwLm1hZScsICctbXMnLCAnMScsICctcGgnLCAnNycsICctcGh0JywgJzAuNScsICctbnQn

> <r_lp_tautomer_probability>
1

> <r_epik_Ionization_Penalty>
  0.0000

> <r_epik_Ionization_Penalty_Charging>
  0.0000

> <r_epik_Ionization_Penalty_Neutral>
  0.0000

> <r_epik_State_Penalty>
 -0.0000

> <r_epik_Charging_Adjusted_Penalty>
0

> <i_epik_Tot_Q>
0

> <i_epik_Tot_abs_Q>
0

$$$$
