1iky_ligand
                    3D
 Schrodinger Suite 2020-3.
 45 47  0  0  1  0            999 V2000
   -6.7450  144.9320  173.0870 C   0  0  0  0  0  0
   -8.0380  144.4230  173.4340 C   0  0  0  0  0  0
   -8.6910  143.5870  172.5340 N   0  0  0  0  0  0
   -8.1540  143.2040  171.2900 C   0  0  0  0  0  0
   -6.8630  143.6820  170.9020 C   0  0  0  0  0  0
   -6.1610  144.5490  171.8060 C   0  0  0  0  0  0
   -8.9220  142.3440  170.4380 N   0  0  0  0  0  0
  -10.2420  142.0310  170.5760 C   0  0  0  0  0  0
  -10.8040  141.2360  169.7250 S   0  0  0  0  0  0
  -10.9120  142.5950  171.6400 N   0  0  0  0  0  0
  -12.2980  142.3220  171.8730 C   0  0  2  0  0  0
  -13.0660  143.3560  172.7010 C   0  0  0  0  0  0
  -13.0230  141.8170  173.0670 C   0  0  2  0  0  0
  -12.2260  141.4410  174.3570 C   0  0  0  0  0  0
  -12.4060  140.1020  174.8280 C   0  0  0  0  0  0
  -11.7190  139.6550  176.0280 C   0  0  0  0  0  0
  -10.8620  140.5310  176.7570 C   0  0  0  0  0  0
  -10.6430  141.8860  176.3210 C   0  0  0  0  0  0
  -11.3270  142.3570  175.1080 C   0  0  0  0  0  0
  -11.1430  143.6500  174.6600 O   0  0  0  0  0  0
   -9.7100  142.8040  177.1290 C   0  0  0  0  0  0
   -9.5340  143.9540  176.7340 O   0  0  0  0  0  0
   -8.9920  142.3540  178.3970 C   0  0  0  0  0  0
  -13.2240  139.2690  174.1470 O   0  0  0  0  0  0
   -5.9200  145.8590  173.9610 C   0  0  0  0  0  0
   -5.4110  146.6420  174.6890 N   0  0  0  0  0  0
  -12.9980  138.0490  173.9420 C   0  0  0  0  0  0
   -8.5015  144.6856  174.3850 H   0  0  0  0  0  0
   -6.4240  143.3959  169.9462 H   0  0  0  0  0  0
   -5.1763  144.9270  171.5309 H   0  0  0  0  0  0
   -8.4470  141.8621  169.5707 H   0  0  0  0  0  0
  -10.3623  143.2658  172.3166 H   0  0  0  0  0  0
  -12.2381  141.8727  170.8707 H   0  0  0  0  0  0
  -12.3667  144.1174  173.0768 H   0  0  0  0  0  0
  -13.8283  143.8374  172.0708 H   0  0  0  0  0  0
  -13.7475  140.9999  173.1993 H   0  0  0  0  0  0
  -11.8613  138.6322  176.3769 H   0  0  0  0  0  0
  -10.3653  140.1698  177.6575 H   0  0  0  0  0  0
  -11.6579  143.9958  173.7516 H   0  0  0  0  0  0
   -9.2526  141.3076  178.6142 H   0  0  0  0  0  0
   -9.3007  142.9911  179.2389 H   0  0  0  0  0  0
   -7.9048  142.4387  178.2524 H   0  0  0  0  0  0
  -13.8266  137.6148  173.3632 H   0  0  0  0  0  0
  -12.9098  137.5255  174.9054 H   0  0  0  0  0  0
  -12.0599  137.9396  173.3780 H   0  0  0  0  0  0
  1  2  2  0  0  0
  1  6  1  0  0  0
  1 25  1  0  0  0
  2  3  1  0  0  0
  2 28  1  0  0  0
  3  4  2  0  0  0
  4  5  1  0  0  0
  4  7  1  0  0  0
  5  6  2  0  0  0
  5 29  1  0  0  0
  6 30  1  0  0  0
  7  8  1  0  0  0
  7 31  1  0  0  0
  8  9  2  0  0  0
  8 10  1  0  0  0
 10 11  1  0  0  0
 10 32  1  0  0  0
 11 12  1  0  0  0
 11 13  1  0  0  0
 11 33  1  0  0  0
 12 13  1  0  0  0
 12 34  1  0  0  0
 12 35  1  0  0  0
 13 14  1  0  0  0
 13 36  1  0  0  0
 14 15  2  0  0  0
 14 19  1  0  0  0
 15 16  1  0  0  0
 15 24  1  0  0  0
 16 17  2  0  0  0
 16 37  1  0  0  0
 17 18  1  0  0  0
 17 38  1  0  0  0
 18 19  2  0  0  0
 18 21  1  0  0  0
 19 20  1  0  0  0
 20 39  1  0  0  0
 21 22  2  0  0  0
 21 23  1  0  0  0
 23 40  1  0  0  0
 23 41  1  0  0  0
 23 42  1  0  0  0
 24 27  1  0  0  0
 25 26  3  0  0  0
 27 43  1  0  0  0
 27 44  1  0  0  0
 27 45  1  0  0  0
M  END
> <s_m_source_file>
../1iky_ligand.sdf

> <i_m_source_file_index>
1

> <s_epik_input>
TiNDYzFbY0hdbmMoW2NIXVtjSF0xKVtOSF1DKD1TKVtOSF1bQ0BASF0yW0NIMl1bQ0BASF0yYzNjKE9bQ0gzXSlbY0hdW2NIXWMoYzNbT0hdKUMoPU8pW0NIM10=

> <s_epik_cmdline>
J2VwaWtfYXBwJywgJy1pbWFlJywgJ2xpZ2FuZF9wcm8ubWFlJywgJy1vbWFlJywgJ2xpZ2FuZF9wcmVwLm1hZScsICctbXMnLCAnMScsICctcGgnLCAnNycsICctcGh0JywgJzAuNScsICctbnQn

> <r_lp_tautomer_probability>
0.99995

> <r_epik_Ionization_Penalty>
  0.0727

> <r_epik_Ionization_Penalty_Charging>
  0.0000

> <r_epik_Ionization_Penalty_Neutral>
  0.0727

> <r_epik_State_Penalty>
  0.0639

> <r_epik_Charging_Adjusted_Penalty>
0.0638641144844305

> <i_epik_Tot_Q>
0

> <i_epik_Tot_abs_Q>
0

$$$$
