1il3_ligand
                    3D
 Schrodinger Suite 2020-3.
 16 17  0  0  1  0            999 V2000
   -1.0790    0.5580    7.8420 N   0  0  0  0  0  0
   -1.6900    0.9590    6.7110 C   0  0  0  0  0  0
   -0.7530    1.4910    5.8210 C   0  0  0  0  0  0
    0.4780    1.3890    6.4690 C   0  0  0  0  0  0
    1.7920    1.7360    6.1280 C   0  0  0  0  0  0
    2.0990    2.2520    5.0770 O   0  0  0  0  0  0
    2.7650    1.4720    7.0390 N   0  0  0  0  0  0
    2.4990    0.8970    8.2450 C   0  0  0  0  0  0
    3.4650    0.6360    9.1430 N   0  0  0  0  0  0
    1.2360    0.5640    8.5950 N   0  0  0  0  0  0
    0.2360    0.8060    7.7150 C   0  0  0  0  0  0
   -2.7782    0.8405    6.6020 H   0  0  0  0  0  0
   -0.9440    1.8998    4.8288 H   0  0  0  0  0  0
    4.5115    0.8853    8.9132 H   0  0  0  0  0  0
    3.2089    0.1732   10.1075 H   0  0  0  0  0  0
    1.0395    0.1072    9.5762 H   0  0  0  0  0  0
  1  2  2  0  0  0
  1 11  1  0  0  0
  2  3  1  0  0  0
  2 12  1  0  0  0
  3  4  1  0  0  0
  3 13  1  0  0  0
  4  5  1  0  0  0
  4 11  2  0  0  0
  5  6  2  0  0  0
  5  7  1  0  0  0
  7  8  2  0  0  0
  8  9  1  0  0  0
  8 10  1  0  0  0
  9 14  1  0  0  0
  9 15  1  0  0  0
 10 11  1  0  0  0
 10 16  1  0  0  0
M  END
> <s_m_source_file>
../1il3_ligand.sdf

> <i_m_source_file_index>
1

> <s_epik_input>
W0NIMl0xW0NIXT1OYyhjMTIpbmMoW05IMl0pW25IXWMyPU8=

> <s_epik_cmdline>
J2VwaWtfYXBwJywgJy1pbWFlJywgJ2xpZ2FuZF9wcm8ubWFlJywgJy1vbWFlJywgJ2xpZ2FuZF9wcmVwLm1hZScsICctbXMnLCAnMScsICctcGgnLCAnNycsICctcGh0JywgJzAuNScsICctbnQn

> <r_lp_tautomer_probability>
1

> <r_epik_Ionization_Penalty>
  0.1374

> <r_epik_Ionization_Penalty_Charging>
  0.1029

> <r_epik_Ionization_Penalty_Neutral>
  0.0345

> <r_epik_State_Penalty>
 -0.0000

> <r_epik_Charging_Adjusted_Penalty>
0.102891809151126

> <i_epik_Tot_Q>
0

> <i_epik_Tot_abs_Q>
0

> <s_epik_Chemistry_Notes>
This compound has an imine and may undergo hydrolysis.

$$$$
