1il4_ligand
                    3D
 Schrodinger Suite 2020-3.
 17 18  0  0  1  0            999 V2000
   -1.3140    0.7870    7.8100 C   0  0  0  0  0  0
   -1.8760    1.0240    6.6050 C   0  0  0  0  0  0
   -0.9080    1.3330    5.6620 N   0  3  0  0  0  0
    0.2690    1.2600    6.3670 C   0  0  0  0  0  0
    1.6980    1.4600    6.0050 C   0  0  0  0  0  0
    2.0390    1.7600    4.8880 O   0  0  0  0  0  0
    2.5960    1.2830    7.0050 N   0  0  0  0  0  0
    2.2960    0.9720    8.1850 C   0  0  0  0  0  0
    3.3260    0.8100    9.1260 N   0  0  0  0  0  0
    1.0070    0.7790    8.5930 N   0  0  0  0  0  0
    0.0080    0.9240    7.6810 C   0  0  0  0  0  0
   -1.9481    0.5337    8.6724 H   0  0  0  0  0  0
   -2.9673    0.9569    6.4843 H   0  0  0  0  0  0
    3.6706    1.4118    6.8084 H   0  0  0  0  0  0
    4.3737    0.9590    8.8258 H   0  0  0  0  0  0
    3.0850    0.5341   10.1632 H   0  0  0  0  0  0
   -1.2015    1.5596    4.6264 H   0  0  0  0  0  0
  1  2  2  0  0  0
  1 11  1  0  0  0
  1 12  1  0  0  0
  2  3  1  0  0  0
  2 13  1  0  0  0
  3  4  1  0  0  0
  3 17  1  0  0  0
  4  5  1  0  0  0
  4 11  2  0  0  0
  5  6  2  0  0  0
  5  7  1  0  0  0
  7  8  1  0  0  0
  7 14  1  0  0  0
  8  9  1  0  0  0
  8 10  2  0  0  0
  9 15  1  0  0  0
  9 16  1  0  0  0
 10 11  1  0  0  0
M  CHG  1   3   1
M  END
> <s_m_source_file>
../1il4_ligand.sdf

> <i_m_source_file_index>
1

> <s_epik_input>
W25IXTFbY0hdW2NIXWMoYzEyKW5jKFtOSDJdKVtuSF1jMj1P

> <s_epik_cmdline>
J2VwaWtfYXBwJywgJy1pbWFlJywgJ2xpZ2FuZF9wcm8ubWFlJywgJy1vbWFlJywgJ2xpZ2FuZF9wcmVwLm1hZScsICctbXMnLCAnMScsICctcGgnLCAnNycsICctcGh0JywgJzAuNScsICctbnQn

> <r_lp_tautomer_probability>
1

> <r_epik_Ionization_Penalty>
  0.0075

> <r_epik_Ionization_Penalty_Charging>
  0.0000

> <r_epik_Ionization_Penalty_Neutral>
  0.0075

> <r_epik_State_Penalty>
 -0.0000

> <r_epik_Charging_Adjusted_Penalty>
7.67566909280164e-06

> <i_epik_Tot_Q>
1

> <i_epik_Tot_abs_Q>
1

$$$$
