1il5_ligand
                    3D
 Schrodinger Suite 2020-3.
 15 15  0  0  1  0            999 V2000
  -15.3050   36.1340   39.5680 C   0  0  0  0  0  0
  -14.8540   36.4110   38.2670 N   0  0  0  0  0  0
  -14.4380   35.8540   40.6410 C   0  0  0  0  0  0
  -14.9550   35.5940   41.8670 N   0  0  0  0  0  0
  -16.2850   35.5970   42.0880 C   0  0  0  0  0  0
  -16.7830   35.3220   43.3700 N   0  0  0  0  0  0
  -17.1340   35.8660   41.0640 N   0  0  0  0  0  0
  -16.6840   36.1350   39.8150 C   0  0  0  0  0  0
  -17.5110   36.3600   38.9720 O   0  5  0  0  0  0
  -13.0580   35.8410   40.4570 O   0  0  0  0  0  0
  -13.7760   36.4161   38.0480 H   0  0  0  0  0  0
  -15.5788   36.6228   37.4671 H   0  0  0  0  0  0
  -16.0885   35.1049   44.1949 H   0  0  0  0  0  0
  -17.8681   35.3234   43.5505 H   0  0  0  0  0  0
  -14.2849   35.3736   42.7110 H   0  0  0  0  0  0
  1  2  1  0  0  0
  1  3  1  0  0  0
  1  8  2  0  0  0
  2 11  1  0  0  0
  2 12  1  0  0  0
  3  4  1  0  0  0
  3 10  2  0  0  0
  4  5  1  0  0  0
  4 15  1  0  0  0
  5  6  1  0  0  0
  5  7  2  0  0  0
  6 13  1  0  0  0
  6 14  1  0  0  0
  7  8  1  0  0  0
  8  9  1  0  0  0
M  CHG  1   9  -1
M  END
> <s_m_source_file>
../1il5_ligand.sdf

> <i_m_source_file_index>
1

> <s_epik_input>
W05IMl1jMWMoW09IXSluYyhbTkgyXSluYzFbT0hd

> <s_epik_cmdline>
J2VwaWtfYXBwJywgJy1pbWFlJywgJ2xpZ2FuZF9wcm8ubWFlJywgJy1vbWFlJywgJ2xpZ2FuZF9wcmVwLm1hZScsICctbXMnLCAnMScsICctcGgnLCAnNycsICctcGh0JywgJzAuNScsICctbnQn

> <r_epik_Ionization_Penalty>
  0.4311

> <r_epik_Ionization_Penalty_Charging>
  0.0000

> <r_epik_Ionization_Penalty_Neutral>
  0.4311

> <r_epik_State_Penalty>
  0.4032

> <r_epik_Charging_Adjusted_Penalty>
0.403241624087593

> <i_epik_Tot_Q>
-1

> <i_epik_Tot_abs_Q>
1

$$$$
