1ilh_ligand
                    3D
 Schrodinger Suite 2020-3.
 75 75  0  0  1  0            999 V2000
    7.2600   75.3910    0.2230 C   0  0  0  0  0  0
    7.6440   76.7690   -0.0530 C   0  0  0  0  0  0
    8.9400   77.2330   -0.5420 C   0  0  0  0  0  0
    9.8790   76.1520   -0.7420 C   0  0  0  0  0  0
    9.5780   74.8060   -0.4970 C   0  0  0  0  0  0
    8.3010   74.4530   -0.0230 C   0  0  0  0  0  0
   10.5460   73.7720   -0.7420 C   0  0  0  0  0  0
   10.5930   73.1740   -1.9050 C   0  0  0  0  0  0
   12.2960   72.8200   -2.5890 P   0  0  0  0  0  0
    9.1700   72.8040   -2.9840 P   0  0  0  0  0  0
    6.7340   77.6970    0.1470 O   0  0  0  0  0  0
    5.8780   74.9090    0.7400 C   0  0  0  0  0  0
    9.4650   78.6780   -0.8700 C   0  0  0  0  0  0
    4.7920   75.2300   -0.3350 C   0  0  0  0  0  0
    5.5420   75.5990    2.0900 C   0  0  0  0  0  0
    5.7640   73.3440    0.9770 C   0  0  0  0  0  0
    9.8840   78.7470   -2.3880 C   0  0  0  0  0  0
    8.4450   79.8630   -0.6570 C   0  0  0  0  0  0
   10.7410   78.9920    0.0170 C   0  0  0  0  0  0
   12.4250   71.3090   -2.6570 O   0  0  0  0  0  0
   13.3850   73.2560   -1.5050 O   0  0  0  0  0  0
   14.6900   73.4530   -2.0410 C   0  0  0  0  0  0
   15.6620   73.8660   -0.9290 C   0  0  0  0  0  0
   12.5910   73.2800   -4.0510 O   0  0  0  0  0  0
   12.2080   74.5900   -4.3710 C   0  0  0  0  0  0
   12.5710   74.8790   -5.8240 C   0  0  0  0  0  0
    7.8380   72.9420   -2.4490 O   0  0  0  0  0  0
    9.3040   73.7240   -4.2940 O   0  0  0  0  0  0
    8.0990   74.5040   -4.4970 C   0  0  0  0  0  0
    8.2030   75.3670   -5.7280 C   0  0  0  0  0  0
    9.3960   71.3430   -3.6100 O   0  0  0  0  0  0
    9.3360   70.3490   -2.6500 C   0  0  0  0  0  0
    9.5650   69.0360   -3.3140 C   0  0  0  0  0  0
   10.8773   76.3982   -1.1038 H   0  0  0  0  0  0
    8.0974   73.3991    0.1668 H   0  0  0  0  0  0
   11.2492   73.4840    0.0533 H   0  0  0  0  0  0
    5.7355   77.4180    0.5148 H   0  0  0  0  0  0
    4.8048   76.3069   -0.5589 H   0  0  0  0  0  0
    3.8009   74.9471    0.0492 H   0  0  0  0  0  0
    5.0053   74.6622   -1.2526 H   0  0  0  0  0  0
    5.6093   76.6904    1.9707 H   0  0  0  0  0  0
    6.2570   75.2693    2.8582 H   0  0  0  0  0  0
    4.5217   75.3260    2.3974 H   0  0  0  0  0  0
    5.9952   72.8137    0.0414 H   0  0  0  0  0  0
    4.7413   73.0951    1.2965 H   0  0  0  0  0  0
    6.4765   73.0385    1.7573 H   0  0  0  0  0  0
    9.0098   78.5314   -3.0198 H   0  0  0  0  0  0
   10.6711   78.0043   -2.5852 H   0  0  0  0  0  0
   10.2636   79.7535   -2.6182 H   0  0  0  0  0  0
    7.5419   79.6820   -1.2583 H   0  0  0  0  0  0
    8.9110   80.8087   -0.9708 H   0  0  0  0  0  0
    8.1711   79.9243    0.4066 H   0  0  0  0  0  0
   11.4793   78.1856   -0.1042 H   0  0  0  0  0  0
   10.4446   79.0619    1.0740 H   0  0  0  0  0  0
   11.1844   79.9463   -0.3034 H   0  0  0  0  0  0
   15.0433   72.5174   -2.4991 H   0  0  0  0  0  0
   14.6575   74.2451   -2.8035 H   0  0  0  0  0  0
   16.6650   74.0149   -1.3554 H   0  0  0  0  0  0
   15.7020   73.0758   -0.1648 H   0  0  0  0  0  0
   15.3161   74.8036   -0.4692 H   0  0  0  0  0  0
   11.1220   74.6984   -4.2336 H   0  0  0  0  0  0
   12.7333   75.2970   -3.7120 H   0  0  0  0  0  0
   12.2720   75.9064   -6.0792 H   0  0  0  0  0  0
   12.0457   74.1703   -6.4811 H   0  0  0  0  0  0
   13.6570   74.7688   -5.9595 H   0  0  0  0  0  0
    7.2401   73.8273   -4.6169 H   0  0  0  0  0  0
    7.9334   75.1561   -3.6268 H   0  0  0  0  0  0
    7.2743   75.9434   -5.8512 H   0  0  0  0  0  0
    8.3587   74.7294   -6.6107 H   0  0  0  0  0  0
    9.0520   76.0581   -5.6206 H   0  0  0  0  0  0
   10.1116   70.5257   -1.8903 H   0  0  0  0  0  0
    8.3453   70.3601   -2.1720 H   0  0  0  0  0  0
    9.5205   68.2329   -2.5636 H   0  0  0  0  0  0
   10.5550   69.0354   -3.7935 H   0  0  0  0  0  0
    8.7886   68.8698   -4.0754 H   0  0  0  0  0  0
  1  2  2  0  0  0
  1  6  1  0  0  0
  1 12  1  0  0  0
  2  3  1  0  0  0
  2 11  1  0  0  0
  3  4  2  0  0  0
  3 13  1  0  0  0
  4  5  1  0  0  0
  4 34  1  0  0  0
  5  6  2  0  0  0
  5  7  1  0  0  0
  6 35  1  0  0  0
  7  8  2  0  0  0
  7 36  1  0  0  0
  8  9  1  0  0  0
  8 10  1  0  0  0
  9 20  2  0  0  0
  9 21  1  0  0  0
  9 24  1  0  0  0
 10 27  2  0  0  0
 10 28  1  0  0  0
 10 31  1  0  0  0
 11 37  1  0  0  0
 12 14  1  0  0  0
 12 15  1  0  0  0
 12 16  1  0  0  0
 13 17  1  0  0  0
 13 18  1  0  0  0
 13 19  1  0  0  0
 14 38  1  0  0  0
 14 39  1  0  0  0
 14 40  1  0  0  0
 15 41  1  0  0  0
 15 42  1  0  0  0
 15 43  1  0  0  0
 16 44  1  0  0  0
 16 45  1  0  0  0
 16 46  1  0  0  0
 17 47  1  0  0  0
 17 48  1  0  0  0
 17 49  1  0  0  0
 18 50  1  0  0  0
 18 51  1  0  0  0
 18 52  1  0  0  0
 19 53  1  0  0  0
 19 54  1  0  0  0
 19 55  1  0  0  0
 21 22  1  0  0  0
 22 23  1  0  0  0
 22 56  1  0  0  0
 22 57  1  0  0  0
 23 58  1  0  0  0
 23 59  1  0  0  0
 23 60  1  0  0  0
 24 25  1  0  0  0
 25 26  1  0  0  0
 25 61  1  0  0  0
 25 62  1  0  0  0
 26 63  1  0  0  0
 26 64  1  0  0  0
 26 65  1  0  0  0
 28 29  1  0  0  0
 29 30  1  0  0  0
 29 66  1  0  0  0
 29 67  1  0  0  0
 30 68  1  0  0  0
 30 69  1  0  0  0
 30 70  1  0  0  0
 31 32  1  0  0  0
 32 33  1  0  0  0
 32 71  1  0  0  0
 32 72  1  0  0  0
 33 73  1  0  0  0
 33 74  1  0  0  0
 33 75  1  0  0  0
M  END
> <s_m_source_file>
../1ilh_ligand.sdf

> <i_m_source_file_index>
1

> <s_epik_input>
W0NIM11DKFtDSDNdKShbQ0gzXSljMWMoW09IXSljKEMoW0NIM10pKFtDSDNdKVtDSDNdKVtjSF1jKFtjSF0xKVtDSF09QyhQKD1PKShPW0NIMl1bQ0gzXSlPW0NIMl1bQ0gzXSlQKD1PKShPW0NIMl1bQ0gzXSlPW0NIMl1bQ0gzXQ==

> <s_epik_cmdline>
J2VwaWtfYXBwJywgJy1pbWFlJywgJ2xpZ2FuZF9wcm8ubWFlJywgJy1vbWFlJywgJ2xpZ2FuZF9wcmVwLm1hZScsICctbXMnLCAnMScsICctcGgnLCAnNycsICctcGh0JywgJzAuNScsICctbnQn

> <r_lp_tautomer_probability>
1

> <r_epik_Ionization_Penalty>
  0.0003

> <r_epik_Ionization_Penalty_Charging>
  0.0000

> <r_epik_Ionization_Penalty_Neutral>
  0.0003

> <r_epik_State_Penalty>
 -0.0000

> <r_epik_Charging_Adjusted_Penalty>
0

> <i_epik_Tot_Q>
0

> <i_epik_Tot_abs_Q>
0

$$$$
