1ilq_ligand
                    3D
 Schrodinger Suite 2020-3.
270276  0  0  1  0            999 V2000
    7.7710   18.6340   -0.1480 C   0  0  0  0  0  0
    8.4090   17.7620   -0.7310 O   0  0  0  0  0  0
    6.9980   18.2970    1.1220 C   0  0  0  0  0  0
    7.7080   19.9050   -0.5650 N   0  0  0  0  0  0
    8.3230   20.4200   -1.7870 C   0  0  2  0  0  0
    9.8080   20.0610   -1.8860 C   0  0  0  0  0  0
   10.3030   19.7320   -2.9620 O   0  0  0  0  0  0
    8.1450   21.9440   -1.8470 C   0  0  0  0  0  0
    6.6720   22.3520   -1.9490 C   0  0  0  0  0  0
    6.4120   24.1440   -2.0240 S   0  0  0  0  0  0
    4.6030   24.1910   -2.1100 C   0  0  0  0  0  0
   10.5060   20.1260   -0.7470 N   0  0  0  0  0  0
   11.9370   19.8850   -0.6060 C   0  0  2  0  0  0
   12.3510   18.4520   -0.9710 C   0  0  0  0  0  0
   13.5430   18.1890   -1.1160 O   0  0  0  0  0  0
   12.3520   20.2250    0.8290 C   0  0  0  0  0  0
   11.9300   21.5850    1.3010 C   0  0  0  0  0  0
   12.6370   22.7260    1.1460 C   0  0  0  0  0  0
   10.6830   21.9780    1.9500 C   0  0  0  0  0  0
   11.9260   23.7940    1.6540 N   0  0  0  0  0  0
   10.7070   23.3880    2.1570 C   0  0  0  0  0  0
    9.5260   21.2870    2.3740 C   0  0  0  0  0  0
    9.6400   24.0770    2.7540 C   0  0  0  0  0  0
    8.4460   21.9700    2.9650 C   0  0  0  0  0  0
    8.5010   23.3610    3.1560 C   0  0  0  0  0  0
   11.3850   17.5360   -1.1250 N   0  0  0  0  0  0
   11.5970   16.1570   -1.5470 C   0  0  2  0  0  0
   12.3870   16.0500   -2.8550 C   0  0  0  0  0  0
   13.1220   15.0810   -3.0320 O   0  0  0  0  0  0
   10.2300   15.4830   -1.6940 C   0  0  0  0  0  0
   10.3200   14.0690   -2.2590 C   0  0  0  0  0  0
   10.7250   13.1720   -1.4880 O   0  0  0  0  0  0
    9.9820   13.9140   -3.4540 O   0  0  0  0  0  0
   12.2380   17.0230   -3.7640 N   0  0  0  0  0  0
   12.8600   17.0270   -5.0710 C   0  0  2  0  0  0
   14.3840   17.1350   -4.9810 C   0  0  0  0  0  0
   14.9820   17.1290   -3.9060 O   0  0  0  0  0  0
   12.2540   18.1660   -5.9150 C   0  0  0  0  0  0
   12.9430   19.5200   -5.8020 C   0  0  0  0  0  0
   13.1850   20.1030   -4.5430 C   0  0  0  0  0  0
   13.4490   20.1420   -6.9610 C   0  0  0  0  0  0
   13.9110   21.3020   -4.4450 C   0  0  0  0  0  0
   14.1850   21.3350   -6.8620 C   0  0  0  0  0  0
   14.4150   21.9160   -5.6040 C   0  0  0  0  0  0
   14.9930   17.2490   -6.1570 N   0  0  0  0  0  0
   16.4170   17.4440   -6.3620 C   0  0  2  0  0  0
   16.6010   18.3940   -7.5390 C   0  0  0  0  0  0
   15.8910   18.2920   -8.5380 O   0  0  0  0  0  0
   17.1150   16.1060   -6.6430 C   0  0  0  0  0  0
   17.1020   15.1860   -5.4260 C   0  0  0  0  0  0
   17.8850   15.4700   -4.4930 O   0  0  0  0  0  0
   16.3140   14.2170   -5.4470 O   0  0  0  0  0  0
   17.5600   19.3170   -7.4200 N   0  0  0  0  0  0
   17.9240   20.2570   -8.4710 C   0  0  2  0  0  0
   18.7870   19.5400   -9.5140 C   0  0  0  0  0  0
   19.9860   19.7940   -9.6200 O   0  0  0  0  0  0
   18.6490   21.4630   -7.8580 C   0  0  0  0  0  0
   17.7480   22.2350   -6.8970 C   0  0  0  0  0  0
   17.0480   23.1490   -7.3840 O   0  0  0  0  0  0
   17.7760   21.8960   -5.6930 O   0  0  0  0  0  0
   14.3920   15.0000  -10.1870 C   0  0  0  0  0  0
   14.5210   14.9840   -8.9650 O   0  0  0  0  0  0
   15.3350   14.1890  -11.0700 C   0  0  0  0  0  0
   16.1820   15.0870  -11.9800 C   0  0  0  0  0  0
   17.1080   15.9890  -11.1560 C   0  0  0  0  0  0
   17.8510   16.9720  -12.0670 C   0  0  0  0  0  0
   18.8490   17.8300  -11.2820 C   0  0  0  0  0  0
   18.1670   18.6370  -10.2830 N   0  0  0  0  0  0
   13.4520   15.7090  -10.8220 N   0  0  0  0  0  0
   12.5170   16.6080  -10.1660 C   0  0  2  0  0  0
   11.0800   16.2670  -10.5780 C   0  0  0  0  0  0
   10.7290   16.4350  -11.7450 O   0  0  0  0  0  0
   12.8800   18.0720  -10.4610 C   0  0  0  0  0  0
   13.1710   18.4120  -11.9290 C   0  0  0  0  0  0
   13.5370   20.1640  -12.2290 S   0  0  0  0  0  0
   15.0940   20.3520  -11.3240 C   0  0  0  0  0  0
   10.2390   15.7870   -9.6440 N   0  0  0  0  0  0
    8.8070   15.5850   -9.8380 C   0  0  2  0  0  0
    8.0650   16.8650  -10.2660 C   0  0  0  0  0  0
    8.6810   17.9180  -10.4270 O   0  0  0  0  0  0
    8.3010   15.0300   -8.5000 C   0  0  0  0  0  0
    9.5180   14.2970   -7.9610 C   0  0  0  0  0  0
   10.6360   15.2540   -8.3530 C   0  0  0  0  0  0
    6.7380   16.7890  -10.4570 N   0  0  0  0  0  0
    5.9340   17.8550  -11.0290 C   0  0  2  0  0  0
    6.0310   19.2200  -10.3550 C   0  0  0  0  0  0
    6.0930   19.3230   -9.1300 O   0  0  0  0  0  0
    4.4890   17.3680  -10.9650 C   0  0  0  0  0  0
    4.6020   15.8540  -10.9400 C   0  0  0  0  0  0
    5.9120   15.6210  -10.2040 C   0  0  0  0  0  0
    6.0200   20.2560  -11.2020 N   0  0  0  0  0  0
    5.8950   21.6600  -10.8300 C   0  0  2  0  0  0
    4.4960   22.1340  -11.2580 C   0  0  0  0  0  0
    4.2860   23.3080  -11.5580 O   0  0  0  0  0  0
    7.0090   22.4670  -11.5040 C   0  0  0  0  0  0
    3.5480   21.1880  -11.2830 N   0  0  0  0  0  0
    2.1580   21.2840  -11.7030 C   0  0  2  0  0  0
    1.4500   20.1350  -10.9920 C   0  0  0  0  0  0
    2.1160   19.1780  -10.5990 O   0  0  0  0  0  0
    2.0390   21.0650  -13.2180 C   0  0  0  0  0  0
    2.8000   22.1080  -14.0320 C   0  0  0  0  0  0
    2.2600   23.2270  -14.1700 O   0  0  0  0  0  0
    3.9090   21.7670  -14.5000 O   0  0  0  0  0  0
    0.1270   20.1900  -10.8150 N   0  0  0  0  0  0
   -0.5620   19.0990  -10.1420 C   0  0  2  0  0  0
   -2.0680   19.0960  -10.3900 C   0  0  0  0  0  0
   -2.8200   19.8670   -9.7990 O   0  0  0  0  0  0
   -0.1980   19.0390   -8.6520 C   0  0  0  0  0  0
   -0.2850   20.3940   -7.9350 C   0  0  0  0  0  0
    0.0620   20.2560   -6.4580 C   0  0  0  0  0  0
   -0.8640   19.9330   -5.6830 O   0  0  0  0  0  0
    1.2480   20.4750   -6.1280 O   0  0  0  0  0  0
   -2.4860   18.1920  -11.2800 N   0  0  0  0  0  0
   -3.8720   17.8520  -11.5530 C   0  0  2  0  0  0
   -3.8760   16.3610  -11.8970 C   0  0  0  0  0  0
   -4.4630   15.9360  -12.8890 O   0  0  0  0  0  0
   -4.4280   18.7420  -12.6740 C   0  0  0  0  0  0
   -5.9150   18.4880  -12.9250 C   0  0  0  0  0  0
   -6.6910   18.6470  -11.9580 O   0  0  0  0  0  0
   -6.2530   18.1390  -14.0770 O   0  0  0  0  0  0
   -3.1870   15.5740  -11.0590 N   0  0  0  0  0  0
   -2.9090   14.1610  -11.2670 C   0  0  2  0  0  0
   -3.3040   13.4040   -9.9930 C   0  0  0  0  0  0
   -2.5170   12.6220   -9.4620 O   0  0  0  0  0  0
   -1.4090   13.9900  -11.5790 C   0  0  0  0  0  0
   -0.7900   15.0390  -12.4910 C   0  0  0  0  0  0
   -1.2930   15.2500  -13.7900 C   0  0  0  0  0  0
    0.2980   15.8110  -12.0310 C   0  0  0  0  0  0
   -0.6780   16.1950  -14.6310 C   0  0  0  0  0  0
    0.8930   16.7720  -12.8640 C   0  0  0  0  0  0
    0.4060   16.9620  -14.1670 C   0  0  0  0  0  0
    0.9870   17.8930  -14.9780 O   0  0  0  0  0  0
   -4.5240   13.6580   -9.5020 N   0  0  0  0  0  0
   -5.0220   13.1800   -8.2180 C   0  0  2  0  0  0
   -6.1460   12.1520   -8.4130 C   0  0  0  0  0  0
   -7.3180   12.5140   -8.3260 O   0  0  0  0  0  0
   -5.5050   14.3840   -7.4010 C   0  0  0  0  0  0
   -4.4340   15.2780   -7.1750 O   0  0  0  0  0  0
   -5.8190   10.8740   -8.6720 N   0  0  0  0  0  0
   -6.7980    9.8070   -8.8290 C   0  0  2  0  0  0
   -7.4340    9.4580   -7.4790 C   0  0  0  0  0  0
   -6.8870    9.7700   -6.4220 O   0  0  0  0  0  0
   -6.0110    8.6250   -9.3990 C   0  0  0  0  0  0
   -4.6280    8.8310   -8.7930 C   0  0  0  0  0  0
   -4.4750   10.3460   -8.8160 C   0  0  0  0  0  0
   -8.5970    8.8050   -7.5060 N   0  0  0  0  0  0
    7.1282   17.2306    1.3584 H   0  0  0  0  0  0
    5.9299   18.5109    0.9688 H   0  0  0  0  0  0
    7.3782   18.9063    1.9552 H   0  0  0  0  0  0
    7.1402   20.5804    0.0918 H   0  0  0  0  0  0
    7.7889   19.9183   -2.6074 H   0  0  0  0  0  0
    8.5626   22.3980   -0.9362 H   0  0  0  0  0  0
    8.6706   22.3402   -2.7283 H   0  0  0  0  0  0
    6.2343   21.9204   -2.8613 H   0  0  0  0  0  0
    6.1266   21.9798   -1.0692 H   0  0  0  0  0  0
    4.2655   25.2366   -2.1624 H   0  0  0  0  0  0
    4.1808   23.7139   -1.2133 H   0  0  0  0  0  0
    4.2644   23.6510   -3.0065 H   0  0  0  0  0  0
    9.9029   20.3881    0.1348 H   0  0  0  0  0  0
   12.4110   20.5559   -1.3375 H   0  0  0  0  0  0
   11.9058   19.4966    1.5221 H   0  0  0  0  0  0
   13.4482   20.1867    0.9125 H   0  0  0  0  0  0
   13.6235   22.7930    0.6873 H   0  0  0  0  0  0
    9.4685   20.2066    2.2413 H   0  0  0  0  0  0
    9.6948   25.1553    2.9038 H   0  0  0  0  0  0
    7.5607   21.4157    3.2767 H   0  0  0  0  0  0
    7.6615   23.8830    3.6151 H   0  0  0  0  0  0
   10.3682   17.8939   -0.9057 H   0  0  0  0  0  0
   12.2036   15.6973   -0.7528 H   0  0  0  0  0  0
    9.7451   15.4187   -0.7088 H   0  0  0  0  0  0
    9.6005   16.0751   -2.3745 H   0  0  0  0  0  0
   10.0271   12.9155   -3.9132 H   0  0  0  0  0  0
   11.5914   17.8594   -3.4600 H   0  0  0  0  0  0
   12.6261   16.0449   -5.5079 H   0  0  0  0  0  0
   12.2905   17.8926   -6.9799 H   0  0  0  0  0  0
   11.2086   18.3292   -5.6140 H   0  0  0  0  0  0
   12.8074   19.6220   -3.6407 H   0  0  0  0  0  0
   13.2686   19.6956   -7.9389 H   0  0  0  0  0  0
   14.0833   21.7561   -3.4692 H   0  0  0  0  0  0
   14.5774   21.8095   -7.7614 H   0  0  0  0  0  0
   14.9840   22.8425   -5.5269 H   0  0  0  0  0  0
   14.3167   17.1835   -7.0221 H   0  0  0  0  0  0
   16.8186   17.8760   -5.4335 H   0  0  0  0  0  0
   16.6013   15.5906   -7.4679 H   0  0  0  0  0  0
   18.1629   16.2906   -6.9220 H   0  0  0  0  0  0
   17.9174   14.8408   -3.5913 H   0  0  0  0  0  0
   18.0870   19.3401   -6.4547 H   0  0  0  0  0  0
   16.9921   20.6004   -8.9438 H   0  0  0  0  0  0
   19.5319   21.1159   -7.3013 H   0  0  0  0  0  0
   18.9662   22.1464   -8.6595 H   0  0  0  0  0  0
   17.1460   22.4201   -4.9593 H   0  0  0  0  0  0
   16.0157   13.6013  -10.4366 H   0  0  0  0  0  0
   14.7484   13.5100  -11.7063 H   0  0  0  0  0  0
   16.7980   14.4610  -12.6423 H   0  0  0  0  0  0
   15.5202   15.7223  -12.5870 H   0  0  0  0  0  0
   16.5121   16.5582  -10.4273 H   0  0  0  0  0  0
   17.8445   15.3695  -10.6233 H   0  0  0  0  0  0
   18.4050   16.4128  -12.8353 H   0  0  0  0  0  0
   17.1259   17.6418  -12.5524 H   0  0  0  0  0  0
   19.5738   17.1769  -10.7740 H   0  0  0  0  0  0
   19.3809   18.4995  -11.9741 H   0  0  0  0  0  0
   17.0841   18.5214  -10.1284 H   0  0  0  0  0  0
   13.4144   15.5770  -11.9134 H   0  0  0  0  0  0
   12.6271   16.4305   -9.0860 H   0  0  0  0  0  0
   12.0485   18.7245  -10.1562 H   0  0  0  0  0  0
   13.7855   18.3455   -9.8996 H   0  0  0  0  0  0
   14.0435   17.8369  -12.2726 H   0  0  0  0  0  0
   12.2967   18.1551  -12.5452 H   0  0  0  0  0  0
   15.4488   21.3891  -11.4163 H   0  0  0  0  0  0
   15.8467   19.6682  -11.7434 H   0  0  0  0  0  0
   14.9323   20.1128  -10.2626 H   0  0  0  0  0  0
    8.6677   14.8833  -10.6736 H   0  0  0  0  0  0
    7.9850   15.8622   -7.8538 H   0  0  0  0  0  0
    7.4467   14.3609   -8.6801 H   0  0  0  0  0  0
    9.4152   14.1658   -6.8737 H   0  0  0  0  0  0
    9.5960   13.3115   -8.4435 H   0  0  0  0  0  0
   11.6000   14.7334   -8.4520 H   0  0  0  0  0  0
   10.7367   16.0780   -7.6313 H   0  0  0  0  0  0
    6.3522   17.9995  -12.0361 H   0  0  0  0  0  0
    4.0100   17.7597  -10.0555 H   0  0  0  0  0  0
    3.9422   17.7250  -11.8502 H   0  0  0  0  0  0
    3.7372   15.4305  -10.4083 H   0  0  0  0  0  0
    4.6222   15.4707  -11.9709 H   0  0  0  0  0  0
    6.4218   14.7226  -10.5820 H   0  0  0  0  0  0
    5.7431   15.5188   -9.1219 H   0  0  0  0  0  0
    6.1164   19.9741  -12.2609 H   0  0  0  0  0  0
    6.0133   21.7509   -9.7402 H   0  0  0  0  0  0
    7.9874   22.0929  -11.1682 H   0  0  0  0  0  0
    6.9091   23.5281  -11.2319 H   0  0  0  0  0  0
    6.9304   22.3595  -12.5959 H   0  0  0  0  0  0
    3.9483   20.2294  -10.9214 H   0  0  0  0  0  0
    1.7745   22.2812  -11.4414 H   0  0  0  0  0  0
    2.4447   20.0763  -13.4785 H   0  0  0  0  0  0
    0.9808   21.1167  -13.5140 H   0  0  0  0  0  0
    4.4983   22.4810  -15.0942 H   0  0  0  0  0  0
   -0.4416   21.0591  -11.1775 H   0  0  0  0  0  0
   -0.1663   18.2010  -10.6390 H   0  0  0  0  0  0
   -0.8839   18.3523   -8.1344 H   0  0  0  0  0  0
    0.8351   18.6779   -8.5412 H   0  0  0  0  0  0
    0.4206   21.0997   -8.3978 H   0  0  0  0  0  0
   -1.3080   20.7892   -8.0207 H   0  0  0  0  0  0
    1.5505   20.3889   -5.0739 H   0  0  0  0  0  0
   -1.6775   17.6874  -11.8292 H   0  0  0  0  0  0
   -4.4886   18.0468  -10.6632 H   0  0  0  0  0  0
   -4.3025   19.7996  -12.3988 H   0  0  0  0  0  0
   -3.8831   18.5390  -13.6077 H   0  0  0  0  0  0
   -7.3116   17.9452  -14.3046 H   0  0  0  0  0  0
   -2.8207   16.0791  -10.1531 H   0  0  0  0  0  0
   -3.5104   13.8083  -12.1178 H   0  0  0  0  0  0
   -0.8335   14.0240  -10.6422 H   0  0  0  0  0  0
   -1.2456   13.0217  -12.0748 H   0  0  0  0  0  0
   -2.1551   14.6833  -14.1418 H   0  0  0  0  0  0
    0.6795   15.6601  -11.0211 H   0  0  0  0  0  0
   -1.0436   16.3338  -15.6484 H   0  0  0  0  0  0
    1.7299   17.3683  -12.5004 H   0  0  0  0  0  0
    0.6087   18.0452  -15.9996 H   0  0  0  0  0  0
   -5.1670   14.2763  -10.1456 H   0  0  0  0  0  0
   -4.1794   12.6831   -7.7150 H   0  0  0  0  0  0
   -6.3009   14.9059   -7.9526 H   0  0  0  0  0  0
   -5.8964   14.0372   -6.4332 H   0  0  0  0  0  0
   -4.6006   16.2022   -6.6022 H   0  0  0  0  0  0
   -7.6054   10.1385   -9.4985 H   0  0  0  0  0  0
   -6.4819    7.6833   -9.0805 H   0  0  0  0  0  0
   -6.0096    8.6810  -10.4976 H   0  0  0  0  0  0
   -4.6088    8.4170   -7.7741 H   0  0  0  0  0  0
   -3.8766    8.3182   -9.4114 H   0  0  0  0  0  0
   -4.0452   10.6919   -9.7677 H   0  0  0  0  0  0
   -3.8509   10.6993   -7.9819 H   0  0  0  0  0  0
   -9.0578    8.5418   -8.4696 H   0  0  0  0  0  0
   -9.0952    8.5297   -6.5647 H   0  0  0  0  0  0
  1  2  2  0  0  0
  1  3  1  0  0  0
  1  4  1  0  0  0
  3147  1  0  0  0
  3148  1  0  0  0
  3149  1  0  0  0
  4  5  1  0  0  0
  4150  1  0  0  0
  5  6  1  0  0  0
  5  8  1  0  0  0
  5151  1  0  0  0
  6  7  2  0  0  0
  6 12  1  0  0  0
  8  9  1  0  0  0
  8152  1  0  0  0
  8153  1  0  0  0
  9 10  1  0  0  0
  9154  1  0  0  0
  9155  1  0  0  0
 10 11  1  0  0  0
 11156  1  0  0  0
 11157  1  0  0  0
 11158  1  0  0  0
 12 13  1  0  0  0
 12159  1  0  0  0
 13 14  1  0  0  0
 13 16  1  0  0  0
 13160  1  0  0  0
 14 15  2  0  0  0
 14 26  1  0  0  0
 16 17  1  0  0  0
 16161  1  0  0  0
 16162  1  0  0  0
 17 18  2  0  0  0
 17 19  1  0  0  0
 18 20  1  0  0  0
 18163  1  0  0  0
 19 21  2  0  0  0
 19 22  1  0  0  0
 20 21  1  0  0  0
 21 23  1  0  0  0
 22 24  2  0  0  0
 22164  1  0  0  0
 23 25  2  0  0  0
 23165  1  0  0  0
 24 25  1  0  0  0
 24166  1  0  0  0
 25167  1  0  0  0
 26 27  1  0  0  0
 26168  1  0  0  0
 27 28  1  0  0  0
 27 30  1  0  0  0
 27169  1  0  0  0
 28 29  2  0  0  0
 28 34  1  0  0  0
 30 31  1  0  0  0
 30170  1  0  0  0
 30171  1  0  0  0
 31 32  2  0  0  0
 31 33  1  0  0  0
 33172  1  0  0  0
 34 35  1  0  0  0
 34173  1  0  0  0
 35 36  1  0  0  0
 35 38  1  0  0  0
 35174  1  0  0  0
 36 37  2  0  0  0
 36 45  1  0  0  0
 38 39  1  0  0  0
 38175  1  0  0  0
 38176  1  0  0  0
 39 40  2  0  0  0
 39 41  1  0  0  0
 40 42  1  0  0  0
 40177  1  0  0  0
 41 43  2  0  0  0
 41178  1  0  0  0
 42 44  2  0  0  0
 42179  1  0  0  0
 43 44  1  0  0  0
 43180  1  0  0  0
 44181  1  0  0  0
 45 46  1  0  0  0
 45182  1  0  0  0
 46 47  1  0  0  0
 46 49  1  0  0  0
 46183  1  0  0  0
 47 48  2  0  0  0
 47 53  1  0  0  0
 49 50  1  0  0  0
 49184  1  0  0  0
 49185  1  0  0  0
 50 51  1  0  0  0
 50 52  2  0  0  0
 51186  1  0  0  0
 53 54  1  0  0  0
 53187  1  0  0  0
 54 55  1  0  0  0
 54 57  1  0  0  0
 54188  1  0  0  0
 55 56  2  0  0  0
 55 68  1  0  0  0
 57 58  1  0  0  0
 57189  1  0  0  0
 57190  1  0  0  0
 58 59  2  0  0  0
 58 60  1  0  0  0
 60191  1  0  0  0
 61 62  2  0  0  0
 61 63  1  0  0  0
 61 69  1  0  0  0
 63 64  1  0  0  0
 63192  1  0  0  0
 63193  1  0  0  0
 64 65  1  0  0  0
 64194  1  0  0  0
 64195  1  0  0  0
 65 66  1  0  0  0
 65196  1  0  0  0
 65197  1  0  0  0
 66 67  1  0  0  0
 66198  1  0  0  0
 66199  1  0  0  0
 67 68  1  0  0  0
 67200  1  0  0  0
 67201  1  0  0  0
 68202  1  0  0  0
 69 70  1  0  0  0
 69203  1  0  0  0
 70 71  1  0  0  0
 70 73  1  0  0  0
 70204  1  0  0  0
 71 72  2  0  0  0
 71 77  1  0  0  0
 73 74  1  0  0  0
 73205  1  0  0  0
 73206  1  0  0  0
 74 75  1  0  0  0
 74207  1  0  0  0
 74208  1  0  0  0
 75 76  1  0  0  0
 76209  1  0  0  0
 76210  1  0  0  0
 76211  1  0  0  0
 77 78  1  0  0  0
 77 83  1  0  0  0
 78 79  1  0  0  0
 78 81  1  0  0  0
 78212  1  0  0  0
 79 80  2  0  0  0
 79 84  1  0  0  0
 81 82  1  0  0  0
 81213  1  0  0  0
 81214  1  0  0  0
 82 83  1  0  0  0
 82215  1  0  0  0
 82216  1  0  0  0
 83217  1  0  0  0
 83218  1  0  0  0
 84 85  1  0  0  0
 84 90  1  0  0  0
 85 86  1  0  0  0
 85 88  1  0  0  0
 85219  1  0  0  0
 86 87  2  0  0  0
 86 91  1  0  0  0
 88 89  1  0  0  0
 88220  1  0  0  0
 88221  1  0  0  0
 89 90  1  0  0  0
 89222  1  0  0  0
 89223  1  0  0  0
 90224  1  0  0  0
 90225  1  0  0  0
 91 92  1  0  0  0
 91226  1  0  0  0
 92 93  1  0  0  0
 92 95  1  0  0  0
 92227  1  0  0  0
 93 94  2  0  0  0
 93 96  1  0  0  0
 95228  1  0  0  0
 95229  1  0  0  0
 95230  1  0  0  0
 96 97  1  0  0  0
 96231  1  0  0  0
 97 98  1  0  0  0
 97100  1  0  0  0
 97232  1  0  0  0
 98 99  2  0  0  0
 98104  1  0  0  0
100101  1  0  0  0
100233  1  0  0  0
100234  1  0  0  0
101102  2  0  0  0
101103  1  0  0  0
103235  1  0  0  0
104105  1  0  0  0
104236  1  0  0  0
105106  1  0  0  0
105108  1  0  0  0
105237  1  0  0  0
106107  2  0  0  0
106113  1  0  0  0
108109  1  0  0  0
108238  1  0  0  0
108239  1  0  0  0
109110  1  0  0  0
109240  1  0  0  0
109241  1  0  0  0
110111  2  0  0  0
110112  1  0  0  0
112242  1  0  0  0
113114  1  0  0  0
113243  1  0  0  0
114115  1  0  0  0
114117  1  0  0  0
114244  1  0  0  0
115116  2  0  0  0
115121  1  0  0  0
117118  1  0  0  0
117245  1  0  0  0
117246  1  0  0  0
118119  2  0  0  0
118120  1  0  0  0
120247  1  0  0  0
121122  1  0  0  0
121248  1  0  0  0
122123  1  0  0  0
122125  1  0  0  0
122249  1  0  0  0
123124  2  0  0  0
123133  1  0  0  0
125126  1  0  0  0
125250  1  0  0  0
125251  1  0  0  0
126127  2  0  0  0
126128  1  0  0  0
127129  1  0  0  0
127252  1  0  0  0
128130  2  0  0  0
128253  1  0  0  0
129131  2  0  0  0
129254  1  0  0  0
130131  1  0  0  0
130255  1  0  0  0
131132  1  0  0  0
132256  1  0  0  0
133134  1  0  0  0
133257  1  0  0  0
134135  1  0  0  0
134137  1  0  0  0
134258  1  0  0  0
135136  2  0  0  0
135139  1  0  0  0
137138  1  0  0  0
137259  1  0  0  0
137260  1  0  0  0
138261  1  0  0  0
139140  1  0  0  0
139145  1  0  0  0
140141  1  0  0  0
140143  1  0  0  0
140262  1  0  0  0
141142  2  0  0  0
141146  1  0  0  0
143144  1  0  0  0
143263  1  0  0  0
143264  1  0  0  0
144145  1  0  0  0
144265  1  0  0  0
144266  1  0  0  0
145267  1  0  0  0
145268  1  0  0  0
146269  1  0  0  0
146270  1  0  0  0
M  END
> <s_m_source_file>
../1ilq_ligand.sdf

> <i_m_source_file_index>
1

> <s_epik_input>
W2NIXTFbY0hdW2NIXVtjSF1jKGMxMilbbkhdW2NIXWMyW0NIMl1bQ0BIXShbTkhdQyg9TylbQ0BASF0oW05IXUMoPU8pW0NIM10pW0NIMl1bQ0gyXVNbQ0gzXSlDKD1PKVtOSF1bQ0BASF0oW0NIMl1DKD1PKVtPSF0pQyg9TylbTkhdW0NAQEhdKFtDSDJdYzNbY0hdW2NIXVtjSF1bY0hdW2NIXTMpQyg9TylbTkhdW0NAQEhdKFtDSDJdQyg9TylbT0hdKUMoPU8pW05IXVtDQEBIXShbQ0gyXUMoPU8pW09IXSlDKD1PKVtOSF1bQ0gyXVtDSDJdW0NIMl1bQ0gyXVtDSDJdQyg9TylbTkhdW0NAQEhdKFtDSDJdW0NIMl1TW0NIM10pQyg9TylONFtDQEBIXShbQ0gyXVtDSDJdW0NIMl00KUMoPU8pTjVbQ0BASF0oW0NIMl1bQ0gyXVtDSDJdNSlDKD1PKVtOSF1bQ0BASF0oW0NIM10pQyg9TylbTkhdW0NAQEhdKFtDSDJdQyg9TylbT0hdKUMoPU8pW05IXVtDQEBIXShbQ0gyXVtDSDJdQyg9TylbT0hdKUMoPU8pW05IXVtDQEBIXShbQ0gyXUMoPU8pW09IXSlDKD1PKVtOSF1bQ0BASF0oW0NIMl1jNltjSF1bY0hdYyhbT0hdKVtjSF1bY0hdNilDKD1PKVtOSF1bQ0BASF0oW0NIMl1bT0hdKUMoPU8pTjdbQ0BIXShDKD1PKVtOSDJdKVtDSDJdW0NIMl1bQ0gyXTc=

> <s_epik_cmdline>
J2VwaWtfYXBwJywgJy1pbWFlJywgJ2xpZ2FuZF9wcm8ubWFlJywgJy1vbWFlJywgJ2xpZ2FuZF9wcmVwLm1hZScsICctbXMnLCAnMScsICctcGgnLCAnNycsICctcGh0JywgJzAuNScsICctbnQn

> <s_epik_pKa_notes>
Molecule size exceeds maximum supported for generating protonation states

$$$$
