1imx_ligand
                    3D
 Schrodinger Suite 2020-3.
135138  0  0  1  0            999 V2000
   18.4000   21.1850   25.7540 C   0  0  0  0  0  0
   18.1220   20.0480   26.8330 C   0  0  1  0  0  0
   18.9370   21.6810   28.8800 C   0  0  0  0  0  0
   19.7810   21.8160   30.0490 C   0  0  1  0  0  0
   19.5180   20.6820   31.1570 C   0  0  1  0  0  0
   19.6990   19.2170   30.4710 C   0  0  1  0  0  0
   19.5250   18.1760   31.5930 C   0  0  0  0  0  0
   20.0400   18.8810   32.8230 C   0  0  0  0  0  0
   20.4730   20.4200   32.3270 C   0  0  2  0  0  0
   17.8670   20.9750   31.6680 C   0  0  0  0  0  0
   16.4900   20.2510   27.4180 C   0  0  0  0  0  0
   19.7780   21.0740   25.2000 C   0  0  0  0  0  0
   20.0280   19.6670   24.5400 C   0  0  2  0  0  0
   19.7900   18.5260   25.5800 C   0  0  0  0  0  0
   18.3780   18.5890   26.1590 C   0  0  1  0  0  0
   18.1130   17.4510   27.2150 C   0  0  0  0  0  0
   18.9690   17.6070   28.4690 C   0  0  0  0  0  0
   18.8030   19.0610   29.1930 C   0  0  2  0  0  0
   19.1110   20.2110   28.1770 C   0  0  1  0  0  0
   20.3660   21.3290   33.5210 C   0  0  2  0  0  0
   20.7120   22.9530   33.1410 C   0  0  0  0  0  0
   21.4680   20.8120   34.6390 C   0  0  0  0  0  0
   21.5780   21.5170   35.9920 C   0  0  0  0  0  0
   21.3840   19.5540   24.0090 O   0  0  0  0  0  0
   21.1980   21.6850   29.5350 O   0  0  0  0  0  0
   22.2590   22.9080   36.2390 C   0  0  0  0  0  0
   22.4090   23.5970   37.3940 N   0  0  0  0  0  0
   23.1410   24.9730   37.2510 C   0  0  0  0  0  0
   22.9550   26.1210   38.4470 C   0  0  0  0  0  0
   23.7660   27.4170   38.0110 C   0  0  0  0  0  0
   24.2290   27.9780   39.3140 N   0  0  0  0  0  0
   24.0710   29.3220   39.7390 C   0  0  0  0  0  0
   24.6650   29.6540   41.1140 C   0  0  2  0  0  0
   25.2760   28.4430   41.6970 O   0  0  0  0  0  0
   23.4600   30.3340   42.0150 C   0  0  1  0  0  0
   22.2190   29.5000   42.1750 O   0  0  0  0  0  0
   24.0220   30.7340   43.4860 C   0  0  2  0  0  0
   24.4940   29.4820   44.1330 O   0  0  0  0  0  0
   22.8920   31.4100   44.3890 C   0  0  2  0  0  0
   22.4400   32.6560   43.7170 O   0  0  0  0  0  0
   23.4140   31.8180   45.8510 C   0  0  0  0  0  0
   22.3810   32.4470   46.7000 O   0  0  0  0  0  0
   23.5060   30.2110   39.0650 O   0  0  0  0  0  0
   22.0050   23.2760   38.7430 C   0  0  0  0  0  0
   20.4520   23.4480   39.0140 C   0  0  0  0  0  0
   20.0430   23.1450   40.4330 C   0  0  0  0  0  0
   21.2230   22.7740   41.2260 N   0  0  0  0  0  0
   21.2240   22.4530   42.4970 C   0  0  0  0  0  0
   22.6090   22.5290   43.1950 C   0  0  2  0  0  0
   22.6200   21.8310   44.4540 O   0  0  0  0  0  0
   23.0400   24.0980   43.2640 C   0  0  1  0  0  0
   21.8450   24.9890   43.2630 O   0  0  0  0  0  0
   23.9310   24.4970   44.5930 C   0  0  2  0  0  0
   23.7010   25.9380   44.8010 O   0  0  0  0  0  0
   25.4770   24.1790   44.2840 C   0  0  2  0  0  0
   25.5570   22.7230   44.1190 O   0  0  0  0  0  0
   26.5460   24.4800   45.4250 C   0  0  0  0  0  0
   27.8830   24.1100   44.9060 O   0  0  0  0  0  0
   20.1840   22.0880   43.1050 O   0  0  0  0  0  0
   22.6940   23.3910   35.2650 O   0  0  0  0  0  0
   17.6802   21.0901   24.9276 H   0  0  0  0  0  0
   18.2891   22.1727   26.2252 H   0  0  0  0  0  0
   17.8836   21.8037   29.1722 H   0  0  0  0  0  0
   19.2053   22.4523   28.1430 H   0  0  0  0  0  0
   19.5603   22.8128   30.4584 H   0  0  0  0  0  0
   20.6927   19.0041   30.0500 H   0  0  0  0  0  0
   18.4620   17.9074   31.6823 H   0  0  0  0  0  0
   20.1115   17.2768   31.3531 H   0  0  0  0  0  0
   19.2464   18.9177   33.5839 H   0  0  0  0  0  0
   20.9066   18.3343   33.2232 H   0  0  0  0  0  0
   21.4850   20.6691   31.9750 H   0  0  0  0  0  0
   17.2363   21.1550   30.7849 H   0  0  0  0  0  0
   17.8376   21.8565   32.3254 H   0  0  0  0  0  0
   17.4911   20.0974   32.2143 H   0  0  0  0  0  0
   15.7851   20.1548   26.5790 H   0  0  0  0  0  0
   16.3848   21.2470   27.8730 H   0  0  0  0  0  0
   16.2716   19.4791   28.1707 H   0  0  0  0  0  0
   19.9282   21.8480   24.4330 H   0  0  0  0  0  0
   20.5106   21.2123   26.0088 H   0  0  0  0  0  0
   19.3758   19.5520   23.6617 H   0  0  0  0  0  0
   19.9245   17.5500   25.0907 H   0  0  0  0  0  0
   20.5112   18.6252   26.4046 H   0  0  0  0  0  0
   17.7150   18.3970   25.3025 H   0  0  0  0  0  0
   17.0566   17.4735   27.5209 H   0  0  0  0  0  0
   18.3441   16.4735   26.7665 H   0  0  0  0  0  0
   18.6864   16.8387   29.2038 H   0  0  0  0  0  0
   20.0304   17.4893   28.2054 H   0  0  0  0  0  0
   17.7661   19.1730   29.5427 H   0  0  0  0  0  0
   20.1713   20.0978   27.9067 H   0  0  0  0  0  0
   19.3182   21.1956   33.8283 H   0  0  0  0  0  0
   19.9886   23.3176   32.3968 H   0  0  0  0  0  0
   21.7294   23.0244   32.7290 H   0  0  0  0  0  0
   20.6414   23.5657   34.0518 H   0  0  0  0  0  0
   21.2589   19.7648   34.9028 H   0  0  0  0  0  0
   22.4813   20.8887   34.2178 H   0  0  0  0  0  0
   20.5702   21.7023   36.3919 H   0  0  0  0  0  0
   22.1391   20.8809   36.6924 H   0  0  0  0  0  0
   21.7422   20.2733   23.2578 H   0  0  0  0  0  0
   21.5700   22.3770   28.7651 H   0  0  0  0  0  0
   24.2270   24.8067   37.1972 H   0  0  0  0  0  0
   22.8011   25.4755   36.3334 H   0  0  0  0  0  0
   21.8877   26.3607   38.5623 H   0  0  0  0  0  0
   23.3472   25.7281   39.3966 H   0  0  0  0  0  0
   24.6003   27.1245   37.3565 H   0  0  0  0  0  0
   23.0979   28.1026   37.4692 H   0  0  0  0  0  0
   24.7425   27.3307   40.0401 H   0  0  0  0  0  0
   25.5525   30.2987   41.0326 H   0  0  0  0  0  0
   26.0866   27.9248   41.1638 H   0  0  0  0  0  0
   23.0559   31.1897   41.4542 H   0  0  0  0  0  0
   21.6874   29.1289   41.2864 H   0  0  0  0  0  0
   24.8799   31.4203   43.4305 H   0  0  0  0  0  0
   25.2766   28.8761   43.6530 H   0  0  0  0  0  0
   22.0416   30.7169   44.4691 H   0  0  0  0  0  0
   22.0385   32.6145   42.6937 H   0  0  0  0  0  0
   23.7668   30.9194   46.3784 H   0  0  0  0  0  0
   24.2414   32.5368   45.7576 H   0  0  0  0  0  0
   22.6295   32.7667   47.7228 H   0  0  0  0  0  0
   22.2568   22.2278   38.9615 H   0  0  0  0  0  0
   22.5311   23.9345   39.4498 H   0  0  0  0  0  0
   20.1560   24.4865   38.8043 H   0  0  0  0  0  0
   19.8880   22.7668   38.3599 H   0  0  0  0  0  0
   19.5730   24.0349   40.8771 H   0  0  0  0  0  0
   19.3261   22.3107   40.4378 H   0  0  0  0  0  0
   22.2167   22.7491   40.7548 H   0  0  0  0  0  0
   23.3580   21.8976   42.6946 H   0  0  0  0  0  0
   22.3418   20.7676   44.4958 H   0  0  0  0  0  0
   23.5847   24.3048   42.3310 H   0  0  0  0  0  0
   21.0970   24.9050   42.4608 H   0  0  0  0  0  0
   23.6491   24.0167   45.5416 H   0  0  0  0  0  0
   22.6886   26.3071   45.0220 H   0  0  0  0  0  0
   25.7527   24.7602   43.3917 H   0  0  0  0  0  0
   24.9172   22.2171   43.3809 H   0  0  0  0  0  0
   26.5192   25.5498   45.6795 H   0  0  0  0  0  0
   26.3064   23.8845   46.3183 H   0  0  0  0  0  0
   28.7736   24.2388   45.5387 H   0  0  0  0  0  0
  1  2  1  0  0  0
  1 12  1  0  0  0
  1 61  1  0  0  0
  1 62  1  0  0  0
  2 11  1  0  0  0
  2 15  1  0  0  0
  2 19  1  0  0  0
  3  4  1  0  0  0
  3 19  1  0  0  0
  3 63  1  0  0  0
  3 64  1  0  0  0
  4  5  1  0  0  0
  4 25  1  0  0  0
  4 65  1  0  0  0
  5  6  1  0  0  0
  5  9  1  0  0  0
  5 10  1  0  0  0
  6  7  1  0  0  0
  6 18  1  0  0  0
  6 66  1  0  0  0
  7  8  1  0  0  0
  7 67  1  0  0  0
  7 68  1  0  0  0
  8  9  1  0  0  0
  8 69  1  0  0  0
  8 70  1  0  0  0
  9 20  1  0  0  0
  9 71  1  0  0  0
 10 72  1  0  0  0
 10 73  1  0  0  0
 10 74  1  0  0  0
 11 75  1  0  0  0
 11 76  1  0  0  0
 11 77  1  0  0  0
 12 13  1  0  0  0
 12 78  1  0  0  0
 12 79  1  0  0  0
 13 14  1  0  0  0
 13 24  1  0  0  0
 13 80  1  0  0  0
 14 15  1  0  0  0
 14 81  1  0  0  0
 14 82  1  0  0  0
 15 16  1  0  0  0
 15 83  1  0  0  0
 16 17  1  0  0  0
 16 84  1  0  0  0
 16 85  1  0  0  0
 17 18  1  0  0  0
 17 86  1  0  0  0
 17 87  1  0  0  0
 18 19  1  0  0  0
 18 88  1  0  0  0
 19 89  1  0  0  0
 20 21  1  0  0  0
 20 22  1  0  0  0
 20 90  1  0  0  0
 21 91  1  0  0  0
 21 92  1  0  0  0
 21 93  1  0  0  0
 22 23  1  0  0  0
 22 94  1  0  0  0
 22 95  1  0  0  0
 23 26  1  0  0  0
 23 96  1  0  0  0
 23 97  1  0  0  0
 24 98  1  0  0  0
 25 99  1  0  0  0
 26 27  1  0  0  0
 26 60  2  0  0  0
 27 28  1  0  0  0
 27 44  1  0  0  0
 28 29  1  0  0  0
 28100  1  0  0  0
 28101  1  0  0  0
 29 30  1  0  0  0
 29102  1  0  0  0
 29103  1  0  0  0
 30 31  1  0  0  0
 30104  1  0  0  0
 30105  1  0  0  0
 31 32  1  0  0  0
 31106  1  0  0  0
 32 33  1  0  0  0
 32 43  2  0  0  0
 33 34  1  0  0  0
 33 35  1  0  0  0
 33107  1  0  0  0
 34108  1  0  0  0
 35 36  1  0  0  0
 35 37  1  0  0  0
 35109  1  0  0  0
 36110  1  0  0  0
 37 38  1  0  0  0
 37 39  1  0  0  0
 37111  1  0  0  0
 38112  1  0  0  0
 39 40  1  0  0  0
 39 41  1  0  0  0
 39113  1  0  0  0
 40114  1  0  0  0
 41 42  1  0  0  0
 41115  1  0  0  0
 41116  1  0  0  0
 42117  1  0  0  0
 44 45  1  0  0  0
 44118  1  0  0  0
 44119  1  0  0  0
 45 46  1  0  0  0
 45120  1  0  0  0
 45121  1  0  0  0
 46 47  1  0  0  0
 46122  1  0  0  0
 46123  1  0  0  0
 47 48  1  0  0  0
 47124  1  0  0  0
 48 49  1  0  0  0
 48 59  2  0  0  0
 49 50  1  0  0  0
 49 51  1  0  0  0
 49125  1  0  0  0
 50126  1  0  0  0
 51 52  1  0  0  0
 51 53  1  0  0  0
 51127  1  0  0  0
 52128  1  0  0  0
 53 54  1  0  0  0
 53 55  1  0  0  0
 53129  1  0  0  0
 54130  1  0  0  0
 55 56  1  0  0  0
 55 57  1  0  0  0
 55131  1  0  0  0
 56132  1  0  0  0
 57 58  1  0  0  0
 57133  1  0  0  0
 57134  1  0  0  0
 58135  1  0  0  0
M  END
> <s_m_source_file>
../1imx_ligand.sdf

> <i_m_source_file_index>
1

> <s_epik_input>
W0NIMl0xW0NIMl1bQ0BASF0oW09IXSlbQ0gyXVtDQEhdKFtDQF0xMltDSDNdKVtDSDJdW0NIMl1bQ0BIXTNbQ0BIXTRbQ0BdKFtDSDNdKShbQ0BASF0oW09IXSlbQ0gyXVtDQEhdMjMpW0NASF0oW0NIMl1bQ0gyXTQpW0NASF0oW0NIM10pW0NIMl1bQ0gyXUMoPU8pTihbQ0gyXVtDSDJdW0NIMl1bTkhdQyg9TylbQ0BIXShbT0hdKVtDQEBIXShbT0hdKVtDQEhdKFtPSF0pW0NASF0oW09IXSlbQ0gyXVtPSF0pW0NIMl1bQ0gyXVtDSDJdW05IXUMoPU8pW0NASF0oW09IXSlbQ0BASF0oW09IXSlbQ0BIXShbT0hdKVtDQEhdKFtPSF0pW0NIMl1bT0hd

> <s_epik_cmdline>
J2VwaWtfYXBwJywgJy1pbWFlJywgJ2xpZ2FuZF9wcm8ubWFlJywgJy1vbWFlJywgJ2xpZ2FuZF9wcmVwLm1hZScsICctbXMnLCAnMScsICctcGgnLCAnNycsICctcGh0JywgJzAuNScsICctbnQn

> <r_lp_tautomer_probability>
1

> <r_epik_Ionization_Penalty>
  0.0000

> <r_epik_Ionization_Penalty_Charging>
  0.0000

> <r_epik_Ionization_Penalty_Neutral>
  0.0000

> <r_epik_State_Penalty>
 -0.0000

> <r_epik_Charging_Adjusted_Penalty>
0

> <i_epik_Tot_Q>
0

> <i_epik_Tot_abs_Q>
0

$$$$
