1inc_ligand
                    3D
 Schrodinger Suite 2020-3.
 47 47  0  0  1  0            999 V2000
   -8.9960   23.0670   37.9320 C   0  0  0  0  0  0
   -8.3630   22.0120   38.0610 O   0  0  0  0  0  0
  -10.1330   23.2110   37.1540 C   0  0  0  0  0  0
  -11.1320   24.0910   37.6090 C   0  0  0  0  0  0
  -10.8240   25.0840   38.8990 Cl  0  0  0  0  0  0
  -12.3700   24.0940   36.9590 C   0  0  0  0  0  0
  -12.5750   23.2980   35.8160 C   0  0  0  0  0  0
  -11.5620   22.4680   35.3270 C   0  0  0  0  0  0
  -10.3410   22.4040   35.9910 C   0  0  0  0  0  0
   -9.3560   21.7460   35.2840 N   0  0  0  0  0  0
   -8.1010   22.2410   35.1240 C   0  0  0  0  0  0
   -7.7730   23.4010   35.4460 O   0  0  0  0  0  0
   -7.1340   21.5450   34.1840 C   0  0  2  0  0  0
   -6.2000   20.7240   35.1080 C   0  0  0  0  0  0
   -4.7220   20.9070   34.7410 C   0  0  0  0  0  0
   -6.6380   19.2570   35.1590 C   0  0  0  0  0  0
   -6.3520   22.6080   33.4580 N   0  0  0  0  0  0
   -6.6410   23.0840   32.2170 C   0  0  0  0  0  0
   -7.5490   22.6600   31.4700 O   0  0  0  0  0  0
   -5.8010   24.0860   31.9550 O   0  0  0  0  0  0
   -5.9300   24.8150   30.6550 C   0  0  0  0  0  0
   -7.3650   25.3830   30.4960 C   0  0  0  0  0  0
   -5.5730   23.9320   29.4390 C   0  0  0  0  0  0
   -4.9110   25.9710   30.7100 C   0  0  0  0  0  0
   -8.6637   23.9754   38.4559 H   0  0  0  0  0  0
  -13.1805   24.7158   37.3392 H   0  0  0  0  0  0
  -13.5373   23.3293   35.3051 H   0  0  0  0  0  0
  -11.7281   21.8732   34.4288 H   0  0  0  0  0  0
   -9.5703   20.7730   34.8177 H   0  0  0  0  0  0
   -7.6321   20.9212   33.4272 H   0  0  0  0  0  0
   -6.2878   21.1075   36.1352 H   0  0  0  0  0  0
   -4.4787   21.9796   34.7232 H   0  0  0  0  0  0
   -4.5341   20.4719   33.7483 H   0  0  0  0  0  0
   -4.0933   20.4007   35.4883 H   0  0  0  0  0  0
   -7.7035   19.2016   35.4267 H   0  0  0  0  0  0
   -6.0421   18.7225   35.9134 H   0  0  0  0  0  0
   -6.4829   18.7936   34.1735 H   0  0  0  0  0  0
   -5.4698   23.0625   33.9326 H   0  0  0  0  0  0
   -8.0857   24.5529   30.4576 H   0  0  0  0  0  0
   -7.4275   25.9662   29.5654 H   0  0  0  0  0  0
   -7.5992   26.0326   31.3523 H   0  0  0  0  0  0
   -6.2841   23.0954   29.3720 H   0  0  0  0  0  0
   -4.5532   23.5377   29.5590 H   0  0  0  0  0  0
   -5.6275   24.5341   28.5200 H   0  0  0  0  0  0
   -5.1389   26.6202   31.5683 H   0  0  0  0  0  0
   -4.9708   26.5570   29.7810 H   0  0  0  0  0  0
   -3.8964   25.5605   30.8200 H   0  0  0  0  0  0
  1  2  2  0  0  0
  1  3  1  0  0  0
  1 25  1  0  0  0
  3  4  2  0  0  0
  3  9  1  0  0  0
  4  5  1  0  0  0
  4  6  1  0  0  0
  6  7  2  0  0  0
  6 26  1  0  0  0
  7  8  1  0  0  0
  7 27  1  0  0  0
  8  9  2  0  0  0
  8 28  1  0  0  0
  9 10  1  0  0  0
 10 11  1  0  0  0
 10 29  1  0  0  0
 11 12  2  0  0  0
 11 13  1  0  0  0
 13 14  1  0  0  0
 13 17  1  0  0  0
 13 30  1  0  0  0
 14 15  1  0  0  0
 14 16  1  0  0  0
 14 31  1  0  0  0
 15 32  1  0  0  0
 15 33  1  0  0  0
 15 34  1  0  0  0
 16 35  1  0  0  0
 16 36  1  0  0  0
 16 37  1  0  0  0
 17 18  1  0  0  0
 17 38  1  0  0  0
 18 19  2  0  0  0
 18 20  1  0  0  0
 20 21  1  0  0  0
 21 22  1  0  0  0
 21 23  1  0  0  0
 21 24  1  0  0  0
 22 39  1  0  0  0
 22 40  1  0  0  0
 22 41  1  0  0  0
 23 42  1  0  0  0
 23 43  1  0  0  0
 23 44  1  0  0  0
 24 45  1  0  0  0
 24 46  1  0  0  0
 24 47  1  0  0  0
M  END
> <s_m_source_file>
../1inc_ligand.sdf

> <i_m_source_file_index>
1

> <s_epik_input>
Tz1bQ0hdYzFjKENsKVtjSF1bY0hdW2NIXWMxW05IXUMoPU8pW0NASF0oW0NIXShbQ0gzXSlbQ0gzXSlbTkhdQyg9TylPQyhbQ0gzXSkoW0NIM10pW0NIM10=

> <s_epik_cmdline>
J2VwaWtfYXBwJywgJy1pbWFlJywgJ2xpZ2FuZF9wcm8ubWFlJywgJy1vbWFlJywgJ2xpZ2FuZF9wcmVwLm1hZScsICctbXMnLCAnMScsICctcGgnLCAnNycsICctcGh0JywgJzAuNScsICctbnQn

> <r_lp_tautomer_probability>
1

> <r_epik_Ionization_Penalty>
  0.0000

> <r_epik_Ionization_Penalty_Charging>
  0.0000

> <r_epik_Ionization_Penalty_Neutral>
  0.0000

> <r_epik_State_Penalty>
 -0.0000

> <r_epik_Charging_Adjusted_Penalty>
0

> <i_epik_Tot_Q>
0

> <i_epik_Tot_abs_Q>
0

> <s_epik_Chemistry_Notes>
This compound has an ester and may undergo hydrolysis at high or low pH.

$$$$
