1ind_ligand
                    3D
 Schrodinger Suite 2020-3.
 59 59  0  0  1  0            999 V2000
   61.6180    1.3390   37.4210 C   0  0  0  0  0  0
   60.9970    2.4350   38.0310 C   0  0  0  0  0  0
   59.9180    2.2660   38.8940 C   0  0  0  0  0  0
   59.4470    0.9830   39.1620 C   0  0  0  0  0  0
   60.0610   -0.1080   38.5600 C   0  0  0  0  0  0
   61.1320    0.0680   37.6960 C   0  0  0  0  0  0
   62.6520    1.4380   36.5750 N   0  0  0  0  0  0
   63.8050    2.0520   36.8620 C   0  0  0  0  0  0
   64.1550    2.6720   38.3770 S   0  0  0  0  0  0
   64.6880    2.1430   35.8780 N   0  0  0  0  0  0
   65.9650    2.8440   36.0550 C   0  0  0  0  0  0
   66.3530    3.5290   34.7390 C   0  0  0  0  0  0
   67.6080    4.1680   34.9190 O   0  0  0  0  0  0
   58.3030    0.7790   40.0730 C   0  0  0  0  0  0
   56.9020    1.0440   39.4940 C   0  0  1  0  0  0
   56.4870   -0.1220   38.5490 C   0  0  0  0  0  0
   55.8850    1.1730   40.5680 N   0  0  0  0  0  0
   55.9110    2.4720   41.2660 C   0  0  0  0  0  0
   55.4600    3.6140   40.3650 C   0  0  0  0  0  0
   54.5060    3.2880   39.4710 O   0  5  0  0  0  0
   55.9870    4.7200   40.4260 O   0  0  0  0  0  0
   55.9170    0.0200   41.4600 C   0  0  0  0  0  0
   54.6780    0.0350   42.3430 C   0  0  0  0  0  0
   53.6000    0.6140   41.7730 O   0  5  0  0  0  0
   54.7110   -0.3880   43.4970 O   0  0  0  0  0  0
   55.1520    0.0110   37.9400 N   0  3  0  0  0  0
   54.6750   -1.3530   37.6030 C   0  0  0  0  0  0
   53.3180   -1.7070   38.2250 C   0  0  0  0  0  0
   52.9780   -1.0160   39.3240 O   0  5  0  0  0  0
   52.6100   -2.5970   37.7540 O   0  0  0  0  0  0
   55.1460    0.8730   36.7330 C   0  0  0  0  0  0
   53.7340    1.3060   36.3600 C   0  0  0  0  0  0
   52.8470    1.2220   37.3740 O   0  5  0  0  0  0
   53.4350    1.6620   35.2190 O   0  0  0  0  0  0
   61.3654    3.4402   37.8263 H   0  0  0  0  0  0
   59.4449    3.1320   39.3569 H   0  0  0  0  0  0
   59.6971   -1.1140   38.7689 H   0  0  0  0  0  0
   61.5965   -0.8002   37.2285 H   0  0  0  0  0  0
   62.5841    0.9972   35.5695 H   0  0  0  0  0  0
   64.4454    1.6777   34.9112 H   0  0  0  0  0  0
   65.8615    3.6000   36.8474 H   0  0  0  0  0  0
   66.7442    2.1208   36.3377 H   0  0  0  0  0  0
   66.4256    2.7755   33.9409 H   0  0  0  0  0  0
   65.5871    4.2724   34.4728 H   0  0  0  0  0  0
   68.0678    4.7213   34.0869 H   0  0  0  0  0  0
   58.2907   -0.2654   40.4180 H   0  0  0  0  0  0
   58.3998    1.4501   40.9392 H   0  0  0  0  0  0
   56.9250    2.0102   38.9686 H   0  0  0  0  0  0
   57.2048   -0.1942   37.7186 H   0  0  0  0  0  0
   56.4821   -1.0667   39.1125 H   0  0  0  0  0  0
   55.2381    2.4346   42.1354 H   0  0  0  0  0  0
   56.9356    2.6860   41.6043 H   0  0  0  0  0  0
   55.9340   -0.9043   40.8639 H   0  0  0  0  0  0
   56.8185    0.0676   42.0885 H   0  0  0  0  0  0
   54.4899    0.5045   38.6666 H   0  0  0  0  0  0
   54.5675   -1.4447   36.5121 H   0  0  0  0  0  0
   55.4024   -2.0953   37.9634 H   0  0  0  0  0  0
   55.7467    1.7746   36.9234 H   0  0  0  0  0  0
   55.5747    0.3192   35.8848 H   0  0  0  0  0  0
  1  2  2  0  0  0
  1  6  1  0  0  0
  1  7  1  0  0  0
  2  3  1  0  0  0
  2 35  1  0  0  0
  3  4  2  0  0  0
  3 36  1  0  0  0
  4  5  1  0  0  0
  4 14  1  0  0  0
  5  6  2  0  0  0
  5 37  1  0  0  0
  6 38  1  0  0  0
  7  8  1  0  0  0
  7 39  1  0  0  0
  8  9  2  0  0  0
  8 10  1  0  0  0
 10 11  1  0  0  0
 10 40  1  0  0  0
 11 12  1  0  0  0
 11 41  1  0  0  0
 11 42  1  0  0  0
 12 13  1  0  0  0
 12 43  1  0  0  0
 12 44  1  0  0  0
 13 45  1  0  0  0
 14 15  1  0  0  0
 14 46  1  0  0  0
 14 47  1  0  0  0
 15 16  1  0  0  0
 15 17  1  0  0  0
 15 48  1  0  0  0
 16 26  1  0  0  0
 16 49  1  0  0  0
 16 50  1  0  0  0
 17 18  1  0  0  0
 17 22  1  0  0  0
 18 19  1  0  0  0
 18 51  1  0  0  0
 18 52  1  0  0  0
 19 20  1  0  0  0
 19 21  2  0  0  0
 22 23  1  0  0  0
 22 53  1  0  0  0
 22 54  1  0  0  0
 23 24  1  0  0  0
 23 25  2  0  0  0
 26 27  1  0  0  0
 26 31  1  0  0  0
 26 55  1  0  0  0
 27 28  1  0  0  0
 27 56  1  0  0  0
 27 57  1  0  0  0
 28 29  1  0  0  0
 28 30  2  0  0  0
 31 32  1  0  0  0
 31 58  1  0  0  0
 31 59  1  0  0  0
 32 33  1  0  0  0
 32 34  2  0  0  0
M  CHG  5  20  -1  24  -1  26   1  29  -1  33  -1
M  END
> <s_m_source_file>
../1ind_ligand.sdf

> <i_m_source_file_index>
1

> <s_epik_input>
W09IXVtDSDJdW0NIMl1bTkhdQyg9UylbTkhdYzFbY0hdW2NIXWMoW2NIXVtjSF0xKVtDSDJdW0NASF0oW05IK10oW0NIMl1DKD1PKVtPSF0pW0NIMl1DKD1PKVtPSF0pW0NIMl1bTkgrXShbQ0gyXUMoPU8pW09IXSlbQ0gyXUMoPU8pW09IXQ==

> <s_epik_cmdline>
J2VwaWtfYXBwJywgJy1pbWFlJywgJ2xpZ2FuZF9wcm8ubWFlJywgJy1vbWFlJywgJ2xpZ2FuZF9wcmVwLm1hZScsICctbXMnLCAnMScsICctcGgnLCAnNycsICctcGh0JywgJzAuNScsICctbnQn

> <r_epik_Ionization_Penalty>
  0.0174

> <r_epik_Ionization_Penalty_Charging>
  0.0174

> <r_epik_Ionization_Penalty_Neutral>
  0.0000

> <r_epik_State_Penalty>
  0.1822

> <r_epik_Charging_Adjusted_Penalty>
0.199595193552738

> <i_epik_Tot_Q>
-3

> <i_epik_Tot_abs_Q>
5

$$$$
