1inf_ligand
                    3D
 Schrodinger Suite 2020-3.
 29 29  0  0  1  0            999 V2000
   33.1050  -12.4580   65.9980 C   0  0  0  0  0  0
   34.0300  -12.5250   66.8260 O   0  0  0  0  0  0
   32.3620  -13.4370   65.7300 O   0  5  0  0  0  0
   32.8880  -11.2680   65.3080 C   0  0  0  0  0  0
   31.6060  -10.9310   64.8860 C   0  0  0  0  0  0
   31.3880   -9.8400   64.0720 C   0  0  0  0  0  0
   30.1070   -9.5670   63.6370 N   0  0  0  0  0  0
   29.3990  -10.4570   62.9490 C   0  0  0  0  0  0
   28.1950  -10.1450   62.4930 N   0  0  0  0  0  0
   29.9080  -11.6440   62.6720 N   0  3  0  0  0  0
   32.4760   -9.0450   63.6690 C   0  0  0  0  0  0
   32.2970   -7.9780   62.7840 N   0  0  0  0  0  0
   31.4600   -6.9730   63.0050 C   0  0  0  0  0  0
   30.8700   -6.8440   64.0770 O   0  0  0  0  0  0
   31.3110   -5.8990   61.9640 C   0  0  0  0  0  0
   33.7490   -9.3650   64.1120 C   0  0  0  0  0  0
   33.9470  -10.4570   64.9240 C   0  0  0  0  0  0
   30.7597  -11.5398   65.2043 H   0  0  0  0  0  0
   29.6472   -8.5924   63.8578 H   0  0  0  0  0  0
   27.7604   -9.1596   62.7170 H   0  0  0  0  0  0
   27.6299  -10.8713   61.8904 H   0  0  0  0  0  0
   30.9068  -11.9148   63.0450 H   0  0  0  0  0  0
   32.8673   -7.9414   61.8441 H   0  0  0  0  0  0
   31.8983   -6.1675   61.0735 H   0  0  0  0  0  0
   31.6750   -4.9431   62.3687 H   0  0  0  0  0  0
   30.2508   -5.8004   61.6880 H   0  0  0  0  0  0
   34.5975   -8.7484   63.8156 H   0  0  0  0  0  0
   34.9533  -10.6898   65.2722 H   0  0  0  0  0  0
   29.3331  -12.3617   62.0684 H   0  0  0  0  0  0
  1  4  1  0  0  0
  1  3  1  0  0  0
  1  2  2  0  0  0
  4 17  2  0  0  0
  4  5  1  0  0  0
  5  6  2  0  0  0
  5 18  1  0  0  0
  6 11  1  0  0  0
  6  7  1  0  0  0
  7  8  1  0  0  0
  7 19  1  0  0  0
  8 10  2  0  0  0
  8  9  1  0  0  0
  9 20  1  0  0  0
  9 21  1  0  0  0
 10 22  1  0  0  0
 10 29  1  0  0  0
 11 16  2  0  0  0
 11 12  1  0  0  0
 12 13  1  0  0  0
 12 23  1  0  0  0
 13 15  1  0  0  0
 13 14  2  0  0  0
 15 24  1  0  0  0
 15 25  1  0  0  0
 15 26  1  0  0  0
 16 17  1  0  0  0
 16 27  1  0  0  0
 17 28  1  0  0  0
M  CHG  2   3  -1  10   1
M  END
> <s_m_source_file>
../1inf_ligand.sdf

> <i_m_source_file_index>
1

> <s_epik_input>
Tz1DKFtPSF0pYzFbY0hdYyhbTkhdL0MoW05IMl0pPU4vW0hdKWMoW2NIXVtjSF0xKVtOSF1DKD1PKVtDSDNd

> <s_epik_cmdline>
J2VwaWtfYXBwJywgJy1pbWFlJywgJ2xpZ2FuZF9wcm8ubWFlJywgJy1vbWFlJywgJ2xpZ2FuZF9wcmVwLm1hZScsICctbXMnLCAnMScsICctcGgnLCAnNycsICctcGh0JywgJzAuNScsICctbnQn

> <r_lp_tautomer_probability>
1

> <r_epik_Ionization_Penalty>
  0.0003

> <r_epik_Ionization_Penalty_Charging>
  0.0003

> <r_epik_Ionization_Penalty_Neutral>
  0.0000

> <r_epik_State_Penalty>
 -0.0000

> <r_epik_Charging_Adjusted_Penalty>
0.000341985636047242

> <i_epik_Tot_Q>
0

> <i_epik_Tot_abs_Q>
2

> <s_epik_Chemistry_Notes>
This compound has an imine and may undergo hydrolysis.

$$$$
