1ing_ligand
                    3D
 Schrodinger Suite 2020-3.
 29 29  0  0  1  0            999 V2000
   49.1170   23.6840  -20.5200 C   0  0  0  0  0  0
   49.0720   23.8560  -19.2830 O   0  0  0  0  0  0
   49.9160   24.3120  -21.2490 O   0  5  0  0  0  0
   48.2720   22.7390  -21.1080 C   0  0  0  0  0  0
   48.0070   22.7710  -22.4760 C   0  0  0  0  0  0
   47.1870   21.8180  -23.0800 C   0  0  0  0  0  0
   46.8880   21.9360  -24.4280 N   0  0  0  0  0  0
   46.2500   23.0170  -24.8760 C   0  0  0  0  0  0
   45.3990   23.6120  -24.2160 O   0  0  0  0  0  0
   46.5820   23.4910  -26.2740 C   0  0  0  0  0  0
   45.8390   24.6660  -26.5730 O   0  0  0  0  0  0
   46.6210   20.8020  -22.2960 C   0  0  0  0  0  0
   45.8390   19.8040  -22.8530 N   0  0  0  0  0  0
   46.3160   18.9890  -23.7950 C   0  0  0  0  0  0
   47.4860   19.0580  -24.1850 O   0  0  0  0  0  0
   45.4180   17.9120  -24.3710 C   0  0  0  0  0  0
   46.8820   20.7720  -20.9330 C   0  0  0  0  0  0
   47.6990   21.7270  -20.3470 C   0  0  0  0  0  0
   48.4500   23.5576  -23.0868 H   0  0  0  0  0  0
   47.1772   21.1378  -25.1274 H   0  0  0  0  0  0
   47.6572   23.7138  -26.3399 H   0  0  0  0  0  0
   46.3255   22.7041  -26.9986 H   0  0  0  0  0  0
   45.9528   25.1545  -27.5520 H   0  0  0  0  0  0
   44.7993   19.6696  -22.5200 H   0  0  0  0  0  0
   44.4173   17.9895  -23.9208 H   0  0  0  0  0  0
   45.8441   16.9223  -24.1497 H   0  0  0  0  0  0
   45.3410   18.0428  -25.4605 H   0  0  0  0  0  0
   46.4399   19.9892  -20.3166 H   0  0  0  0  0  0
   47.8944   21.6834  -19.2755 H   0  0  0  0  0  0
  1  4  1  0  0  0
  1  3  1  0  0  0
  1  2  2  0  0  0
  4 18  2  0  0  0
  4  5  1  0  0  0
  5  6  2  0  0  0
  5 19  1  0  0  0
  6 12  1  0  0  0
  6  7  1  0  0  0
  7  8  1  0  0  0
  7 20  1  0  0  0
  8 10  1  0  0  0
  8  9  2  0  0  0
 10 11  1  0  0  0
 10 21  1  0  0  0
 10 22  1  0  0  0
 11 23  1  0  0  0
 12 17  2  0  0  0
 12 13  1  0  0  0
 13 14  1  0  0  0
 13 24  1  0  0  0
 14 16  1  0  0  0
 14 15  2  0  0  0
 16 25  1  0  0  0
 16 26  1  0  0  0
 16 27  1  0  0  0
 17 18  1  0  0  0
 17 28  1  0  0  0
 18 29  1  0  0  0
M  CHG  1   3  -1
M  END
> <s_m_source_file>
../1ing_ligand.sdf

> <i_m_source_file_index>
1

> <s_epik_input>
Tz1DKFtPSF0pYzFbY0hdYyhbTkhdQyg9TylbQ0gyXVtPSF0pYyhbY0hdW2NIXTEpW05IXUMoPU8pW0NIM10=

> <s_epik_cmdline>
J2VwaWtfYXBwJywgJy1pbWFlJywgJ2xpZ2FuZF9wcm8ubWFlJywgJy1vbWFlJywgJ2xpZ2FuZF9wcmVwLm1hZScsICctbXMnLCAnMScsICctcGgnLCAnNycsICctcGh0JywgJzAuNScsICctbnQn

> <r_lp_tautomer_probability>
1

> <r_epik_Ionization_Penalty>
  0.0008

> <r_epik_Ionization_Penalty_Charging>
  0.0007

> <r_epik_Ionization_Penalty_Neutral>
  0.0000

> <r_epik_State_Penalty>
 -0.0000

> <r_epik_Charging_Adjusted_Penalty>
0.000733292412069212

> <i_epik_Tot_Q>
-1

> <i_epik_Tot_abs_Q>
1

$$$$
