1inh_ligand
                    3D
 Schrodinger Suite 2020-3.
 31 31  0  0  1  0            999 V2000
   49.1590   22.8940  -20.3130 C   0  0  0  0  0  0
   48.8090   24.0970  -20.3000 O   0  5  0  0  0  0
   50.1610   22.4630  -19.7150 O   0  0  0  0  0  0
   48.4220   22.0010  -21.0640 C   0  0  0  0  0  0
   48.0050   22.3500  -22.3260 C   0  0  0  0  0  0
   47.1900   21.5240  -23.0560 C   0  0  0  0  0  0
   46.7040   21.9540  -24.2500 N   0  0  0  0  0  0
   45.4800   22.4630  -24.2410 C   0  0  0  0  0  0
   44.6760   22.2600  -23.3220 O   0  0  0  0  0  0
   45.0710   23.3040  -25.3850 C   0  0  0  0  0  0
   43.9630   24.1370  -24.8820 N   0  3  0  0  0  0
   46.7520   20.3250  -22.5170 C   0  0  0  0  0  0
   45.8800   19.5340  -23.2300 N   0  0  0  0  0  0
   46.3100   18.6060  -24.0750 C   0  0  0  0  0  0
   47.5120   18.3860  -24.2480 O   0  0  0  0  0  0
   45.2900   17.7760  -24.8320 C   0  0  0  0  0  0
   47.1760   19.9470  -21.2600 C   0  0  0  0  0  0
   47.9950   20.7870  -20.5260 C   0  0  0  0  0  0
   48.3276   23.2993  -22.7537 H   0  0  0  0  0  0
   47.3203   21.8695  -25.1572 H   0  0  0  0  0  0
   45.9224   23.9200  -25.7101 H   0  0  0  0  0  0
   44.7459   22.6603  -26.2156 H   0  0  0  0  0  0
   43.6043   24.7951  -25.6871 H   0  0  0  0  0  0
   44.3174   24.7485  -24.0391 H   0  0  0  0  0  0
   43.1409   23.4888  -24.5446 H   0  0  0  0  0  0
   44.7945   19.6626  -23.1069 H   0  0  0  0  0  0
   44.2759   18.1037  -24.5597 H   0  0  0  0  0  0
   45.4148   16.7146  -24.5713 H   0  0  0  0  0  0
   45.4400   17.9080  -25.9137 H   0  0  0  0  0  0
   46.8663   18.9877  -20.8453 H   0  0  0  0  0  0
   48.3079   20.4985  -19.5225 H   0  0  0  0  0  0
  1  2  1  0  0  0
  1  3  2  0  0  0
  1  4  1  0  0  0
  4  5  2  0  0  0
  4 18  1  0  0  0
  5  6  1  0  0  0
  5 19  1  0  0  0
  6  7  1  0  0  0
  6 12  2  0  0  0
  7  8  1  0  0  0
  7 20  1  0  0  0
  8  9  2  0  0  0
  8 10  1  0  0  0
 10 11  1  0  0  0
 10 21  1  0  0  0
 10 22  1  0  0  0
 11 23  1  0  0  0
 11 24  1  0  0  0
 11 25  1  0  0  0
 12 13  1  0  0  0
 12 17  1  0  0  0
 13 14  1  0  0  0
 13 26  1  0  0  0
 14 15  2  0  0  0
 14 16  1  0  0  0
 16 27  1  0  0  0
 16 28  1  0  0  0
 16 29  1  0  0  0
 17 18  2  0  0  0
 17 30  1  0  0  0
 18 31  1  0  0  0
M  CHG  2   2  -1  11   1
M  END
> <s_m_source_file>
../1inh_ligand.sdf

> <i_m_source_file_index>
1

> <s_epik_input>
W09IXUMoPU8pYzFbY0hdYyhbTkhdQyg9TylbQ0gyXVtOSDMrXSljKFtjSF1bY0hdMSlbTkhdQyg9TylbQ0gzXQ==

> <s_epik_cmdline>
J2VwaWtfYXBwJywgJy1pbWFlJywgJ2xpZ2FuZF9wcm8ubWFlJywgJy1vbWFlJywgJ2xpZ2FuZF9wcmVwLm1hZScsICctbXMnLCAnMScsICctcGgnLCAnNycsICctcGh0JywgJzAuNScsICctbnQn

> <r_epik_Ionization_Penalty>
  0.1691

> <r_epik_Ionization_Penalty_Charging>
  0.1691

> <r_epik_Ionization_Penalty_Neutral>
  0.0000

> <r_epik_State_Penalty>
  0.1579

> <r_epik_Charging_Adjusted_Penalty>
0.326974498975626

> <i_epik_Tot_Q>
0

> <i_epik_Tot_abs_Q>
2

$$$$
