1inq_ligand
                    3D
 Schrodinger Suite 2020-3.
144146  0  0  1  0            999 V2000
   33.7560    7.5260   -3.5500 N   0  3  0  0  0  0
   33.6440    8.9480   -4.0140 C   0  0  2  0  0  0
   32.2080    9.1390   -4.5030 C   0  0  0  0  0  0
   31.7300    8.3830   -5.3560 O   0  0  0  0  0  0
   34.6360    9.2130   -5.1480 C   0  0  0  0  0  0
   34.5860   10.5720   -5.5430 O   0  0  0  0  0  0
   31.5210   10.1330   -3.9340 N   0  0  0  0  0  0
   30.1190   10.4120   -4.2620 C   0  0  2  0  0  0
   29.8850   11.1700   -5.5650 C   0  0  0  0  0  0
   30.8280   11.6790   -6.1820 O   0  0  0  0  0  0
   29.4960   11.2060   -3.1180 C   0  0  0  0  0  0
   30.2140   12.4160   -2.9220 O   0  0  0  0  0  0
   28.6120   11.2160   -5.9730 N   0  0  0  0  0  0
   28.1510   11.9240   -7.1650 C   0  0  2  0  0  0
   27.4760   13.1850   -6.6630 C   0  0  0  0  0  0
   26.9280   13.2060   -5.5750 O   0  0  0  0  0  0
   26.9500   11.2560   -7.9170 C   0  0  0  0  0  0
   27.2270   11.2010   -9.4120 C   0  0  0  0  0  0
   26.5980    9.9540   -7.3070 C   0  0  0  0  0  0
   27.4870   14.2210   -7.4830 N   0  0  0  0  0  0
   26.8030   15.4490   -7.1330 C   0  0  2  0  0  0
   25.6700   15.6300   -8.1500 C   0  0  0  0  0  0
   25.7140   15.1070   -9.2870 O   0  0  0  0  0  0
   27.7180   16.6800   -7.2240 C   0  0  0  0  0  0
   28.8670   16.5700   -6.2190 C   0  0  0  0  0  0
   28.2340   16.8310   -8.6280 C   0  0  0  0  0  0
   24.6510   16.3580   -7.7320 N   0  0  0  0  0  0
   23.5590   16.6440   -8.6430 C   0  0  0  0  0  0
   23.9250   17.9250   -9.3880 C   0  0  0  0  0  0
   24.6760   18.7590   -8.8840 O   0  0  0  0  0  0
   23.4280   18.0480  -10.6120 N   0  0  0  0  0  0
   23.6340   19.2190  -11.4400 C   0  0  2  0  0  0
   22.2010   19.7510  -11.5860 C   0  0  0  0  0  0
   21.7480   20.5370  -10.7610 O   0  0  0  0  0  0
   24.2590   18.7950  -12.7770 C   0  0  0  0  0  0
   24.5270   20.0040  -13.6850 C   0  0  0  0  0  0
   25.5670   18.0840  -12.4820 C   0  0  0  0  0  0
   21.4560   19.3020  -12.5910 N   0  0  0  0  0  0
   20.0710   19.7660  -12.7400 C   0  0  2  0  0  0
   19.2220   19.3580  -11.5410 C   0  0  0  0  0  0
   19.4020   18.2710  -10.9810 O   0  0  0  0  0  0
   19.4800   19.1900  -14.0330 C   0  0  0  0  0  0
   20.3480   19.5430  -15.1510 C   0  0  0  0  0  0
   20.4110   20.7590  -15.7850 C   0  0  0  0  0  0
   21.4660   18.7960  -15.6140 C   0  0  0  0  0  0
   21.5130   20.8120  -16.5900 N   0  3  0  0  0  0
   22.1800   19.6220  -16.5050 C   0  0  0  0  0  0
   21.9450   17.5090  -15.3520 C   0  0  0  0  0  0
   23.3480   19.2050  -17.1370 C   0  0  0  0  0  0
   23.1080   17.0930  -15.9800 C   0  0  0  0  0  0
   23.8000   17.9380  -16.8620 C   0  0  0  0  0  0
   18.2930   20.2260  -11.1550 N   0  0  0  0  0  0
   17.4180   19.9780  -10.0220 C   0  0  2  0  0  0
   16.2060   19.1610  -10.4260 C   0  0  0  0  0  0
   15.9090   19.0070  -11.6140 O   0  0  0  0  0  0
   16.9350   21.3030   -9.3990 C   0  0  0  0  0  0
   18.0570   22.2580   -9.0680 C   0  0  0  0  0  0
   18.3060   23.3740   -9.8640 C   0  0  0  0  0  0
   18.8870   22.0370   -7.9570 C   0  0  0  0  0  0
   19.3400   24.2510   -9.5650 C   0  0  0  0  0  0
   19.9250   22.9030   -7.6580 C   0  0  0  0  0  0
   20.1440   24.0080   -8.4660 C   0  0  0  0  0  0
   21.1810   24.8590   -8.1900 O   0  0  0  0  0  0
   15.5310   18.6070   -9.4240 N   0  0  0  0  0  0
   14.3280   17.8300   -9.6700 C   0  0  2  0  0  0
   13.2670   18.7670  -10.2520 C   0  0  0  0  0  0
   13.4390   20.0030  -10.1170 O   0  5  0  0  0  0
   13.8190   17.2230   -8.3590 C   0  0  0  0  0  0
   14.7610   16.1780   -7.7530 C   0  0  0  0  0  0
   14.1680   15.6550   -6.4320 C   0  0  0  0  0  0
   14.9460   15.0390   -8.7650 C   0  0  0  0  0  0
   12.2750   18.2460  -10.8090 O   0  0  0  0  0  0
   33.0384    7.3485   -2.7354 H   0  0  0  0  0  0
   34.7771    7.3383   -3.1865 H   0  0  0  0  0  0
   33.5347    6.8484   -4.3878 H   0  0  0  0  0  0
   33.8804    9.6358   -3.1888 H   0  0  0  0  0  0
   35.6547    8.9774   -4.8065 H   0  0  0  0  0  0
   34.3833    8.5803   -6.0116 H   0  0  0  0  0  0
   35.2386   10.9343   -6.3510 H   0  0  0  0  0  0
   32.0467   10.7538   -3.1935 H   0  0  0  0  0  0
   29.6893    9.4082   -4.3953 H   0  0  0  0  0  0
   28.4494   11.4406   -3.3619 H   0  0  0  0  0  0
   29.5324   10.6090   -2.1948 H   0  0  0  0  0  0
   29.9040   13.1180   -2.1340 H   0  0  0  0  0  0
   27.8922   10.6724   -5.3434 H   0  0  0  0  0  0
   29.0646   11.9982   -7.7732 H   0  0  0  0  0  0
   26.0164   11.8272   -7.8067 H   0  0  0  0  0  0
   27.4785   12.2082   -9.7756 H   0  0  0  0  0  0
   26.3328   10.8342   -9.9373 H   0  0  0  0  0  0
   28.0699   10.5208   -9.6039 H   0  0  0  0  0  0
   26.4161   10.0906   -6.2308 H   0  0  0  0  0  0
   27.4267    9.2453   -7.4518 H   0  0  0  0  0  0
   25.6897    9.5587   -7.7852 H   0  0  0  0  0  0
   28.0232   14.1437   -8.4403 H   0  0  0  0  0  0
   26.4705   15.3177   -6.0927 H   0  0  0  0  0  0
   27.1451   17.5891   -6.9887 H   0  0  0  0  0  0
   28.4572   16.4609   -5.2040 H   0  0  0  0  0  0
   29.4859   17.4780   -6.2689 H   0  0  0  0  0  0
   29.4837   15.6921   -6.4618 H   0  0  0  0  0  0
   27.3857   16.9073   -9.3242 H   0  0  0  0  0  0
   28.8458   15.9551   -8.8900 H   0  0  0  0  0  0
   28.8480   17.7411   -8.6971 H   0  0  0  0  0  0
   24.6252   16.7467   -6.7033 H   0  0  0  0  0  0
   23.4386   15.8061   -9.3455 H   0  0  0  0  0  0
   22.6295   16.7789   -8.0704 H   0  0  0  0  0  0
   22.8340   17.2036  -10.9916 H   0  0  0  0  0  0
   24.3275   19.9460  -10.9921 H   0  0  0  0  0  0
   23.5660   18.1231  -13.3046 H   0  0  0  0  0  0
   23.5790   20.5193  -13.8988 H   0  0  0  0  0  0
   24.9789   19.6616  -14.6276 H   0  0  0  0  0  0
   25.2151   20.6972  -13.1790 H   0  0  0  0  0  0
   25.3750   17.2179  -11.8316 H   0  0  0  0  0  0
   26.2551   18.7772  -11.9760 H   0  0  0  0  0  0
   26.0189   17.7416  -13.4246 H   0  0  0  0  0  0
   21.8758   18.5837  -13.3106 H   0  0  0  0  0  0
   20.1127   20.8644  -12.7817 H   0  0  0  0  0  0
   19.4107   18.0954  -13.9487 H   0  0  0  0  0  0
   18.4763   19.6095  -14.1961 H   0  0  0  0  0  0
   19.6337   21.5156  -15.6021 H   0  0  0  0  0  0
   21.4146   16.8466  -14.6679 H   0  0  0  0  0  0
   23.8837   19.8597  -17.8244 H   0  0  0  0  0  0
   23.4925   16.0917  -15.7857 H   0  0  0  0  0  0
   24.7136   17.5814  -17.3376 H   0  0  0  0  0  0
   18.1996   21.1604  -11.7279 H   0  0  0  0  0  0
   18.0435   19.4013   -9.3248 H   0  0  0  0  0  0
   16.2634   21.8159  -10.1032 H   0  0  0  0  0  0
   16.3949   21.0932   -8.4640 H   0  0  0  0  0  0
   17.6789   23.5616  -10.7356 H   0  0  0  0  0  0
   18.7113   21.1701   -7.3201 H   0  0  0  0  0  0
   19.5170   25.1249  -10.1919 H   0  0  0  0  0  0
   20.5644   22.7176   -6.7949 H   0  0  0  0  0  0
   21.3573   25.7366   -8.8293 H   0  0  0  0  0  0
   15.8964   18.7443   -8.3956 H   0  0  0  0  0  0
   14.5936   17.0289  -10.3755 H   0  0  0  0  0  0
   13.6917   18.0196   -7.6112 H   0  0  0  0  0  0
   12.8528   16.7276   -8.5351 H   0  0  0  0  0  0
   15.7420   16.6264   -7.5372 H   0  0  0  0  0  0
   14.0470   16.4914   -5.7279 H   0  0  0  0  0  0
   14.8454   14.9050   -5.9976 H   0  0  0  0  0  0
   13.1880   15.1949   -6.6268 H   0  0  0  0  0  0
   15.3701   15.4416   -9.6967 H   0  0  0  0  0  0
   13.9716   14.5745   -8.9764 H   0  0  0  0  0  0
   15.6289   14.2846   -8.3472 H   0  0  0  0  0  0
   21.7282   21.7224  -17.1686 H   0  0  0  0  0  0
  1  2  1  0  0  0
  1 73  1  0  0  0
  1 74  1  0  0  0
  1 75  1  0  0  0
  2  3  1  0  0  0
  2  5  1  0  0  0
  2 76  1  0  0  0
  3  4  2  0  0  0
  3  7  1  0  0  0
  5  6  1  0  0  0
  5 77  1  0  0  0
  5 78  1  0  0  0
  6 79  1  0  0  0
  7  8  1  0  0  0
  7 80  1  0  0  0
  8  9  1  0  0  0
  8 11  1  0  0  0
  8 81  1  0  0  0
  9 10  2  0  0  0
  9 13  1  0  0  0
 11 12  1  0  0  0
 11 82  1  0  0  0
 11 83  1  0  0  0
 12 84  1  0  0  0
 13 14  1  0  0  0
 13 85  1  0  0  0
 14 15  1  0  0  0
 14 17  1  0  0  0
 14 86  1  0  0  0
 15 16  2  0  0  0
 15 20  1  0  0  0
 17 18  1  0  0  0
 17 19  1  0  0  0
 17 87  1  0  0  0
 18 88  1  0  0  0
 18 89  1  0  0  0
 18 90  1  0  0  0
 19 91  1  0  0  0
 19 92  1  0  0  0
 19 93  1  0  0  0
 20 21  1  0  0  0
 20 94  1  0  0  0
 21 22  1  0  0  0
 21 24  1  0  0  0
 21 95  1  0  0  0
 22 23  2  0  0  0
 22 27  1  0  0  0
 24 25  1  0  0  0
 24 26  1  0  0  0
 24 96  1  0  0  0
 25 97  1  0  0  0
 25 98  1  0  0  0
 25 99  1  0  0  0
 26100  1  0  0  0
 26101  1  0  0  0
 26102  1  0  0  0
 27 28  1  0  0  0
 27103  1  0  0  0
 28 29  1  0  0  0
 28104  1  0  0  0
 28105  1  0  0  0
 29 30  2  0  0  0
 29 31  1  0  0  0
 31 32  1  0  0  0
 31106  1  0  0  0
 32 33  1  0  0  0
 32 35  1  0  0  0
 32107  1  0  0  0
 33 34  2  0  0  0
 33 38  1  0  0  0
 35 36  1  0  0  0
 35 37  1  0  0  0
 35108  1  0  0  0
 36109  1  0  0  0
 36110  1  0  0  0
 36111  1  0  0  0
 37112  1  0  0  0
 37113  1  0  0  0
 37114  1  0  0  0
 38 39  1  0  0  0
 38115  1  0  0  0
 39 40  1  0  0  0
 39 42  1  0  0  0
 39116  1  0  0  0
 40 41  2  0  0  0
 40 52  1  0  0  0
 42 43  1  0  0  0
 42117  1  0  0  0
 42118  1  0  0  0
 43 44  2  0  0  0
 43 45  1  0  0  0
 44 46  1  0  0  0
 44119  1  0  0  0
 45 47  2  0  0  0
 45 48  1  0  0  0
 46 47  1  0  0  0
 46144  1  0  0  0
 47 49  1  0  0  0
 48 50  2  0  0  0
 48120  1  0  0  0
 49 51  2  0  0  0
 49121  1  0  0  0
 50 51  1  0  0  0
 50122  1  0  0  0
 51123  1  0  0  0
 52 53  1  0  0  0
 52124  1  0  0  0
 53 54  1  0  0  0
 53 56  1  0  0  0
 53125  1  0  0  0
 54 55  2  0  0  0
 54 64  1  0  0  0
 56 57  1  0  0  0
 56126  1  0  0  0
 56127  1  0  0  0
 57 58  2  0  0  0
 57 59  1  0  0  0
 58 60  1  0  0  0
 58128  1  0  0  0
 59 61  2  0  0  0
 59129  1  0  0  0
 60 62  2  0  0  0
 60130  1  0  0  0
 61 62  1  0  0  0
 61131  1  0  0  0
 62 63  1  0  0  0
 63132  1  0  0  0
 64 65  1  0  0  0
 64133  1  0  0  0
 65 66  1  0  0  0
 65 68  1  0  0  0
 65134  1  0  0  0
 66 67  1  0  0  0
 66 72  2  0  0  0
 68 69  1  0  0  0
 68135  1  0  0  0
 68136  1  0  0  0
 69 70  1  0  0  0
 69 71  1  0  0  0
 69137  1  0  0  0
 70138  1  0  0  0
 70139  1  0  0  0
 70140  1  0  0  0
 71141  1  0  0  0
 71142  1  0  0  0
 71143  1  0  0  0
M  CHG  3   1   1  46   1  67  -1
M  END
> <s_m_source_file>
../1inq_ligand.sdf

> <i_m_source_file_index>
1

> <s_epik_input>
W09IXVtDSDJdW0NASF0oW05IMytdKUMoPU8pW05IXVtDQEBIXShbQ0gyXVtPSF0pQyg9TylbTkhdW0NAQEhdKFtDSF0oW0NIM10pW0NIM10pQyg9TylbTkhdW0NAQEhdKFtDSF0oW0NIM10pW0NIM10pQyg9TylbTkhdW0NIMl1DKD1PKVtOSF1bQ0BASF0oW0NIXShbQ0gzXSlbQ0gzXSlDKD1PKVtOSF1bQ0BASF0oW0NIMl1jMVtjSF1bbkhdYyhjMTIpW2NIXVtjSF1bY0hdW2NIXTIpQyg9TylbTkhdW0NASF0oQyg9TylbTkhdW0NASF0oQyg9TylbT0hdKVtDSDJdW0NIXShbQ0gzXSlbQ0gzXSlbQ0gyXWMzW2NIXVtjSF1jKFtPSF0pW2NIXVtjSF0z

> <s_epik_cmdline>
J2VwaWtfYXBwJywgJy1pbWFlJywgJ2xpZ2FuZF9wcm8ubWFlJywgJy1vbWFlJywgJ2xpZ2FuZF9wcmVwLm1hZScsICctbXMnLCAnMScsICctcGgnLCAnNycsICctcGh0JywgJzAuNScsICctbnQn

> <r_lp_tautomer_probability>
0.999999999997365

> <r_epik_Ionization_Penalty>
  0.1640

> <r_epik_Ionization_Penalty_Charging>
  0.1631

> <r_epik_Ionization_Penalty_Neutral>
  0.0009

> <r_epik_State_Penalty>
  0.1523

> <r_epik_Charging_Adjusted_Penalty>
0.315384844246835

> <i_epik_Tot_Q>
1

> <i_epik_Tot_abs_Q>
3

$$$$
