1iq1_ligand
                    3D
 Schrodinger Suite 2020-3.
132131  0  0  1  0            999 V2000
   47.2970   50.6360   38.7170 N   0  3  0  0  0  0
   46.3070   51.0010   39.7800 C   0  0  2  0  0  0
   45.0640   51.6560   39.1730 C   0  0  0  0  0  0
   45.1080   52.8190   38.7640 O   0  0  0  0  0  0
   46.9600   51.9530   40.7930 C   0  0  0  0  0  0
   43.9620   50.9080   39.1180 N   0  0  0  0  0  0
   42.7100   51.4250   38.5680 C   0  0  2  0  0  0
   42.1580   52.5590   39.4400 C   0  0  0  0  0  0
   41.3890   53.4040   38.9620 O   0  0  0  0  0  0
   41.6630   50.3090   38.4590 C   0  0  0  0  0  0
   41.9310   49.1130   37.5420 C   0  0  0  0  0  0
   40.7110   48.2000   37.5860 C   0  0  0  0  0  0
   42.2110   49.5800   36.1040 C   0  0  0  0  0  0
   42.5620   52.5660   40.7140 N   0  0  0  0  0  0
   42.1410   53.5850   41.6820 C   0  0  2  0  0  0
   42.7990   54.9120   41.3390 C   0  0  0  0  0  0
   43.9800   55.0930   41.6020 O   0  0  0  0  0  0
   42.5710   53.2020   43.1020 C   0  0  0  0  0  0
   41.9620   51.9310   43.6500 C   0  0  0  0  0  0
   41.0570   52.2200   44.8320 C   0  0  0  0  0  0
   40.5540   50.9320   45.4550 C   0  0  0  0  0  0
   39.5970   51.1750   46.5600 N   0  3  0  0  0  0
   42.0450   55.8380   40.7600 N   0  0  0  0  0  0
   42.6110   57.1280   40.4070 C   0  0  2  0  0  0
   42.2220   58.2380   41.3690 C   0  0  0  0  0  0
   41.0390   58.5010   41.5910 O   0  0  0  0  0  0
   42.2260   57.5060   38.9710 C   0  0  0  0  0  0
   40.7450   57.5170   38.6780 C   0  0  0  0  0  0
   40.4640   57.9800   37.2670 C   0  0  0  0  0  0
   39.5150   59.0920   37.2200 N   0  0  0  0  0  0
   38.2730   59.0360   37.6970 C   0  0  0  0  0  0
   37.8170   57.9170   38.2620 N   0  0  0  0  0  0
   37.4830   60.0980   37.6150 N   0  3  0  0  0  0
   43.2440   58.8820   41.9350 N   0  0  0  0  0  0
   43.0620   59.9820   42.8760 C   0  0  2  0  0  0
   42.8360   61.3080   42.1490 C   0  0  0  0  0  0
   43.6990   62.1900   42.1490 O   0  0  0  0  0  0
   44.2800   60.1050   43.8110 C   0  0  0  0  0  0
   44.4000   58.9980   44.8500 C   0  0  0  0  0  0
   45.6660   59.1200   45.6800 C   0  0  0  0  0  0
   45.8100   58.0260   46.6470 N   0  0  0  0  0  0
   45.1360   57.9260   47.7920 C   0  0  0  0  0  0
   44.2560   58.8590   48.1410 N   0  0  0  0  0  0
   45.3390   56.8850   48.5890 N   0  3  0  0  0  0
   41.6660   61.4390   41.5280 N   0  0  0  0  0  0
   41.2860   62.6620   40.8250 C   0  0  2  0  0  0
   41.3970   63.7850   41.8620 C   0  0  0  0  0  0
   41.1840   64.9640   41.5610 O   0  0  0  0  0  0
   39.8490   62.4930   40.2790 C   0  0  0  0  0  0
   38.9440   63.7130   40.5250 C   0  0  0  0  0  0
   38.6350   64.0710   41.6740 O   0  0  0  0  0  0
   38.5010   64.3410   39.4370 N   0  0  0  0  0  0
   41.7820   63.3740   43.0740 N   0  0  0  0  0  0
   41.9690   64.2240   44.2450 C   0  0  2  0  0  0
   40.8280   65.2180   44.4700 C   0  0  0  0  0  0
   40.0630   64.9780   45.4390 O   0  0  0  0  0  0
   43.3530   64.9630   44.1990 C   0  0  0  0  0  0
   44.4680   63.9630   44.4460 C   0  0  0  0  0  0
   43.5670   65.6520   42.8500 C   0  0  0  0  0  0
   40.6547   66.2772   43.6845 O   0  5  0  0  0  0
   48.1778   50.1684   39.1813 H   0  0  0  0  0  0
   47.6055   51.5429   38.1763 H   0  0  0  0  0  0
   46.8347   49.9286   38.0128 H   0  0  0  0  0  0
   46.0058   50.0658   40.2747 H   0  0  0  0  0  0
   47.8518   51.4744   41.2238 H   0  0  0  0  0  0
   46.2433   52.1825   41.5953 H   0  0  0  0  0  0
   47.2526   52.8840   40.2854 H   0  0  0  0  0  0
   44.0110   49.8776   39.4998 H   0  0  0  0  0  0
   42.9738   51.8044   37.5698 H   0  0  0  0  0  0
   41.5010   49.8602   39.4501 H   0  0  0  0  0  0
   40.7166   50.7291   38.0876 H   0  0  0  0  0  0
   42.8170   48.5629   37.8919 H   0  0  0  0  0  0
   40.5304   47.8791   38.6225 H   0  0  0  0  0  0
   40.8908   47.3172   36.9549 H   0  0  0  0  0  0
   39.8316   48.7449   37.2123 H   0  0  0  0  0  0
   43.0938   50.2362   36.0970 H   0  0  0  0  0  0
   41.3401   50.1328   35.7219 H   0  0  0  0  0  0
   42.3993   48.7050   35.4645 H   0  0  0  0  0  0
   43.2415   51.7590   41.0254 H   0  0  0  0  0  0
   41.0452   53.6395   41.6028 H   0  0  0  0  0  0
   43.6613   53.0584   43.1288 H   0  0  0  0  0  0
   42.2897   54.0048   43.7994 H   0  0  0  0  0  0
   41.3672   51.4413   42.8649 H   0  0  0  0  0  0
   42.7631   51.2530   43.9797 H   0  0  0  0  0  0
   41.6158   52.7860   45.5918 H   0  0  0  0  0  0
   40.1927   52.8117   44.4960 H   0  0  0  0  0  0
   40.0430   50.3296   44.6895 H   0  0  0  0  0  0
   41.4044   50.3644   45.8609 H   0  0  0  0  0  0
   39.2644   50.2123   46.9753 H   0  0  0  0  0  0
   38.7275   51.7291   46.1768 H   0  0  0  0  0  0
   40.0888   51.7640   47.3481 H   0  0  0  0  0  0
   40.9869   55.6249   40.5476 H   0  0  0  0  0  0
   43.6949   56.9678   40.5049 H   0  0  0  0  0  0
   42.5946   58.5179   38.7469 H   0  0  0  0  0  0
   42.6762   56.7881   38.2696 H   0  0  0  0  0  0
   40.3398   56.5015   38.7988 H   0  0  0  0  0  0
   40.2381   58.1994   39.3761 H   0  0  0  0  0  0
   41.4008   58.3147   36.7975 H   0  0  0  0  0  0
   40.0394   57.1482   36.6858 H   0  0  0  0  0  0
   39.8125   60.0502   36.7691 H   0  0  0  0  0  0
   38.4670   57.0325   38.3333 H   0  0  0  0  0  0
   36.7910   57.8788   38.6567 H   0  0  0  0  0  0
   37.8527   61.0239   37.1503 H   0  0  0  0  0  0
   44.2577   58.5513   41.6649 H   0  0  0  0  0  0
   42.1573   59.7130   43.4409 H   0  0  0  0  0  0
   45.2039   60.0822   43.2145 H   0  0  0  0  0  0
   44.2237   61.0545   44.3636 H   0  0  0  0  0  0
   43.5394   59.0420   45.5337 H   0  0  0  0  0  0
   44.4173   58.0211   44.3447 H   0  0  0  0  0  0
   46.5428   59.1032   45.0160 H   0  0  0  0  0  0
   45.6478   60.0669   46.2395 H   0  0  0  0  0  0
   46.5171   57.2069   46.4495 H   0  0  0  0  0  0
   44.0829   59.7247   47.4848 H   0  0  0  0  0  0
   43.7009   58.7654   49.0860 H   0  0  0  0  0  0
   46.0658   56.1093   48.3062 H   0  0  0  0  0  0
   40.9747   60.5839   41.5571 H   0  0  0  0  0  0
   41.9587   62.8533   39.9759 H   0  0  0  0  0  0
   39.8868   62.3283   39.1921 H   0  0  0  0  0  0
   39.3716   61.6290   40.7644 H   0  0  0  0  0  0
   38.8004   63.9893   38.4387 H   0  0  0  0  0  0
   37.8358   65.2113   39.5369 H   0  0  0  0  0  0
   41.9619   62.2912   43.1460 H   0  0  0  0  0  0
   41.9227   63.4933   45.0659 H   0  0  0  0  0  0
   43.3936   65.7381   44.9785 H   0  0  0  0  0  0
   44.3101   63.4702   45.4167 H   0  0  0  0  0  0
   45.4352   64.4868   44.4537 H   0  0  0  0  0  0
   44.4666   63.2074   43.6466 H   0  0  0  0  0  0
   42.7570   66.3755   42.6752 H   0  0  0  0  0  0
   43.5646   64.8982   42.0488 H   0  0  0  0  0  0
   44.5332   66.1777   42.8560 H   0  0  0  0  0  0
   36.4580   60.0530   38.0117 H   0  0  0  0  0  0
   44.7805   56.7976   49.5326 H   0  0  0  0  0  0
  1  2  1  0  0  0
  1 61  1  0  0  0
  1 62  1  0  0  0
  1 63  1  0  0  0
  2  5  1  0  0  0
  2  3  1  0  0  0
  2 64  1  0  0  0
  3  4  2  0  0  0
  3  6  1  0  0  0
  5 65  1  0  0  0
  5 66  1  0  0  0
  5 67  1  0  0  0
  6  7  1  0  0  0
  6 68  1  0  0  0
  7 10  1  0  0  0
  7  8  1  0  0  0
  7 69  1  0  0  0
  8  9  2  0  0  0
  8 14  1  0  0  0
 10 11  1  0  0  0
 10 70  1  0  0  0
 10 71  1  0  0  0
 11 12  1  0  0  0
 11 13  1  0  0  0
 11 72  1  0  0  0
 12 73  1  0  0  0
 12 74  1  0  0  0
 12 75  1  0  0  0
 13 76  1  0  0  0
 13 77  1  0  0  0
 13 78  1  0  0  0
 14 15  1  0  0  0
 14 79  1  0  0  0
 15 18  1  0  0  0
 15 16  1  0  0  0
 15 80  1  0  0  0
 16 17  2  0  0  0
 16 23  1  0  0  0
 18 19  1  0  0  0
 18 81  1  0  0  0
 18 82  1  0  0  0
 19 20  1  0  0  0
 19 83  1  0  0  0
 19 84  1  0  0  0
 20 21  1  0  0  0
 20 85  1  0  0  0
 20 86  1  0  0  0
 21 22  1  0  0  0
 21 87  1  0  0  0
 21 88  1  0  0  0
 22 89  1  0  0  0
 22 90  1  0  0  0
 22 91  1  0  0  0
 23 24  1  0  0  0
 23 92  1  0  0  0
 24 27  1  0  0  0
 24 25  1  0  0  0
 24 93  1  0  0  0
 25 26  2  0  0  0
 25 34  1  0  0  0
 27 28  1  0  0  0
 27 94  1  0  0  0
 27 95  1  0  0  0
 28 29  1  0  0  0
 28 96  1  0  0  0
 28 97  1  0  0  0
 29 30  1  0  0  0
 29 98  1  0  0  0
 29 99  1  0  0  0
 30 31  1  0  0  0
 30100  1  0  0  0
 31 33  2  0  0  0
 31 32  1  0  0  0
 32101  1  0  0  0
 32102  1  0  0  0
 33103  1  0  0  0
 33131  1  0  0  0
 34 35  1  0  0  0
 34104  1  0  0  0
 35 38  1  0  0  0
 35 36  1  0  0  0
 35105  1  0  0  0
 36 37  2  0  0  0
 36 45  1  0  0  0
 38 39  1  0  0  0
 38106  1  0  0  0
 38107  1  0  0  0
 39 40  1  0  0  0
 39108  1  0  0  0
 39109  1  0  0  0
 40 41  1  0  0  0
 40110  1  0  0  0
 40111  1  0  0  0
 41 42  1  0  0  0
 41112  1  0  0  0
 42 44  2  0  0  0
 42 43  1  0  0  0
 43113  1  0  0  0
 43114  1  0  0  0
 44115  1  0  0  0
 44132  1  0  0  0
 45 46  1  0  0  0
 45116  1  0  0  0
 46 49  1  0  0  0
 46 47  1  0  0  0
 46117  1  0  0  0
 47 48  2  0  0  0
 47 53  1  0  0  0
 49 50  1  0  0  0
 49118  1  0  0  0
 49119  1  0  0  0
 50 52  1  0  0  0
 50 51  2  0  0  0
 52120  1  0  0  0
 52121  1  0  0  0
 53 54  1  0  0  0
 53122  1  0  0  0
 54 57  1  0  0  0
 54 55  1  0  0  0
 54123  1  0  0  0
 55 56  2  0  0  0
 55 60  1  0  0  0
 57 59  1  0  0  0
 57 58  1  0  0  0
 57124  1  0  0  0
 58125  1  0  0  0
 58126  1  0  0  0
 58127  1  0  0  0
 59128  1  0  0  0
 59129  1  0  0  0
 59130  1  0  0  0
M  CHG  5   1   1  22   1  33   1  44   1  60  -1
M  END
> <s_m_source_file>
../1iq1_ligand.sdf

> <i_m_source_file_index>
1

> <s_epik_input>
W05IMytdW0NAQEhdKFtDSDNdKUMoPU8pW05IXVtDQEBIXShbQ0gyXVtDSF0oW0NIM10pW0NIM10pQyg9TylbTkhdW0NAQEhdKFtDSDJdW0NIMl1bQ0gyXVtDSDJdW05IMytdKUMoPU8pW05IXVtDQEBIXShbQ0gyXVtDSDJdW0NIMl1bTkhdL0MoW05IMl0pPU5cW0hdKUMoPU8pW05IXVtDQEBIXShbQ0gyXVtDSDJdW0NIMl1bTkhdL0MoW05IMl0pPU5cW0hdKUMoPU8pW05IXVtDQEBIXShbQ0gyXUMoPU8pW05IMl0pQyg9TylbTkhdW0NASF0oQyg9TylbT0hdKVtDSF0oW0NIM10pW0NIM10=

> <s_epik_cmdline>
J2VwaWtfYXBwJywgJy1pbWFlJywgJ2xpZ2FuZF9wcm8ubWFlJywgJy1vbWFlJywgJ2xpZ2FuZF9wcmVwLm1hZScsICctbXMnLCAnMScsICctcGgnLCAnNycsICctcGh0JywgJzAuNScsICctbnQn

> <r_epik_Ionization_Penalty>
  0.1206

> <r_epik_Ionization_Penalty_Charging>
  0.1206

> <r_epik_Ionization_Penalty_Neutral>
  0.0000

> <r_epik_State_Penalty>
  0.1095

> <r_epik_Charging_Adjusted_Penalty>
0.230012788973434

> <i_epik_Tot_Q>
3

> <i_epik_Tot_abs_Q>
5

> <s_epik_Chemistry_Notes>
This compound has an imine and may undergo hydrolysis.

$$$$
