1irs_ligand
                    3D
 Schrodinger Suite 2020-3.
173174  0  0  1  0            999 V2000
    4.2450  -18.1010   -1.0160 N   0  3  0  0  0  0
    4.1870  -16.6610   -1.3980 C   0  0  2  0  0  0
    2.7500  -16.1540   -1.2610 C   0  0  0  0  0  0
    2.0420  -15.9780   -2.2330 O   0  0  0  0  0  0
    4.6630  -16.4980   -2.8450 C   0  0  0  0  0  0
    5.5550  -15.2600   -2.9490 C   0  0  0  0  0  0
    6.9930  -15.6920   -3.2390 C   0  0  0  0  0  0
    5.0530  -14.3640   -4.0850 C   0  0  0  0  0  0
    2.3140  -15.9150   -0.0560 N   0  0  0  0  0  0
    0.9250  -15.4160    0.1490 C   0  0  2  0  0  0
    0.7400  -14.1230   -0.6480 C   0  0  0  0  0  0
    1.3780  -13.1240   -0.3800 O   0  0  0  0  0  0
    0.7020  -15.1410    1.6380 C   0  0  0  0  0  0
   -0.7810  -14.8750    1.8960 C   0  0  0  0  0  0
    1.1500  -16.3560    2.4560 C   0  0  0  0  0  0
   -0.1220  -14.1310   -1.6290 N   0  0  0  0  0  0
   -0.3330  -12.8970   -2.4390 C   0  0  2  0  0  0
   -1.8230  -12.5420   -2.4770 C   0  0  0  0  0  0
   -2.6790  -13.3760   -2.2570 O   0  0  0  0  0  0
    0.2040  -13.1310   -3.8580 C   0  0  2  0  0  0
    0.2930  -11.7900   -4.5990 C   0  0  0  0  0  0
   -0.7030  -14.1020   -4.6260 C   0  0  0  0  0  0
   -0.8970  -11.6280   -5.5430 C   0  0  0  0  0  0
   -2.1370  -11.3040   -2.7580 N   0  0  0  0  0  0
   -3.5650  -10.8810   -2.8150 C   0  0  2  0  0  0
   -3.7880  -10.0520   -4.0820 C   0  0  0  0  0  0
   -2.8960   -9.8850   -4.8860 O   0  0  0  0  0  0
   -3.9000  -10.0330   -1.5860 C   0  0  0  0  0  0
   -4.9670   -9.5290   -4.2720 N   0  0  0  0  0  0
   -5.2210   -8.7170   -5.4950 C   0  0  0  0  0  0
   -5.9180   -7.4100   -5.1180 C   0  0  0  0  0  0
   -6.4130   -7.2500   -4.0200 O   0  0  0  0  0  0
   -5.9590   -6.4750   -6.0250 N   0  0  0  0  0  0
   -6.6220   -5.1740   -5.7350 C   0  0  2  0  0  0
   -7.9300   -5.0900   -6.5470 C   0  0  0  0  0  0
   -7.8840   -5.0350   -7.7600 O   0  0  0  0  0  0
   -5.6870   -4.0410   -6.1570 C   0  0  0  0  0  0
   -5.7960   -2.8830   -5.1650 C   0  0  0  0  0  0
   -4.9990   -2.7720   -4.2550 O   0  0  0  0  0  0
   -6.7530   -2.0070   -5.3060 N   0  0  0  0  0  0
   -9.0600   -5.0910   -5.8700 N   0  0  0  0  0  0
  -10.3760   -5.0260   -6.5250 C   0  0  2  0  0  0
  -10.6530   -3.6210   -7.0770 C   0  0  0  0  0  0
  -11.2200   -3.4660   -8.1400 O   0  0  0  0  0  0
  -11.3910   -5.3730   -5.4420 C   0  0  0  0  0  0
  -10.6620   -4.9620   -4.1420 C   0  0  0  0  0  0
   -9.1480   -5.1590   -4.3930 C   0  0  0  0  0  0
  -10.2690   -2.5970   -6.3630 N   0  0  0  0  0  0
  -10.5240   -1.2060   -6.8480 C   0  0  2  0  0  0
   -9.5560   -0.8170   -7.9800 C   0  0  0  0  0  0
   -9.6280    0.2780   -8.5000 O   0  0  0  0  0  0
  -10.3480   -0.2300   -5.6830 C   0  0  0  0  0  0
   -8.6530   -1.6810   -8.3710 N   0  0  0  0  0  0
   -7.7030   -1.3180   -9.4680 C   0  0  2  0  0  0
   -8.4670   -1.1350  -10.7840 C   0  0  0  0  0  0
   -8.0630   -0.3750  -11.6380 O   0  0  0  0  0  0
   -6.6670   -2.4320   -9.6310 C   0  0  0  0  0  0
   -5.6560   -2.0480  -10.6850 C   0  0  0  0  0  0
   -4.8880   -0.8890  -10.5290 C   0  0  0  0  0  0
   -5.4850   -2.8530  -11.8170 C   0  0  0  0  0  0
   -3.9490   -0.5340  -11.5040 C   0  0  0  0  0  0
   -4.5460   -2.4980  -12.7930 C   0  0  0  0  0  0
   -3.7780   -1.3380  -12.6360 C   0  0  0  0  0  0
   -2.8370   -0.9830  -13.6110 O   0  0  0  0  0  0
   -3.3470   -0.7110  -15.0590 P   0  0  0  0  0  0
   -3.7830   -2.1020  -15.5870 O   0  0  0  0  0  0
   -2.0860   -0.2520  -15.8350 O   0  0  0  0  0  0
   -4.5060    0.3770  -14.8790 O   0  0  0  0  0  0
   -9.5660   -1.8280  -10.9440 N   0  0  0  0  0  0
  -10.3800   -1.7160  -12.1930 C   0  0  2  0  0  0
   -9.6670   -2.4170  -13.3640 C   0  0  0  0  0  0
   -9.9780   -3.5450  -13.6890 O   0  0  0  0  0  0
  -10.6490   -0.2420  -12.5260 C   0  0  0  0  0  0
  -11.0810    0.4980  -11.2610 C   0  0  0  0  0  0
  -11.6200    1.8800  -11.6360 C   0  0  0  0  0  0
  -12.6660    1.7370  -12.6880 N   0  0  0  0  0  0
  -12.6610    2.5310  -13.7250 C   0  0  0  0  0  0
  -11.8210    2.3220  -14.7020 N   0  0  0  0  0  0
  -13.4950    3.5320  -13.7860 N   0  0  0  0  0  0
   -8.7210   -1.7770  -14.0040 N   0  0  0  0  0  0
   -8.0190   -2.4370  -15.1410 C   0  0  2  0  0  0
   -9.0430   -2.8770  -16.1890 C   0  0  0  0  0  0
  -10.1940   -2.4970  -16.0590 O   0  0  0  0  0  0
   -7.2600   -3.6580  -14.6260 C   0  0  0  0  0  0
   -7.9430   -4.8390  -15.0250 O   0  0  0  0  0  0
   -8.6580   -3.5880  -17.1020 O   0  0  0  0  0  0
    3.9033  -18.2188    0.0229 H   0  0  0  0  0  0
    5.2801  -18.4625   -1.1048 H   0  0  0  0  0  0
    3.5944  -18.6841   -1.6843 H   0  0  0  0  0  0
    4.8464  -16.0988   -0.7204 H   0  0  0  0  0  0
    5.2340  -17.3888   -3.1457 H   0  0  0  0  0  0
    3.7920  -16.3802   -3.5065 H   0  0  0  0  0  0
    5.5234  -14.7045   -2.0001 H   0  0  0  0  0  0
    7.3541  -16.3356   -2.4233 H   0  0  0  0  0  0
    7.6349  -14.8020   -3.3153 H   0  0  0  0  0  0
    7.0244  -16.2491   -4.1870 H   0  0  0  0  0  0
    4.0186  -14.0530   -3.8769 H   0  0  0  0  0  0
    5.0846  -14.9213   -5.0328 H   0  0  0  0  0  0
    5.6952  -13.4742   -4.1612 H   0  0  0  0  0  0
    2.9719  -16.0818    0.8097 H   0  0  0  0  0  0
    0.2199  -16.1843   -0.2010 H   0  0  0  0  0  0
    1.2874  -14.2586    1.9357 H   0  0  0  0  0  0
   -1.1045  -14.0026    1.3092 H   0  0  0  0  0  0
   -0.9369  -14.6752    2.9664 H   0  0  0  0  0  0
   -1.3687  -15.7558    1.5980 H   0  0  0  0  0  0
    2.2171  -16.5489    2.2715 H   0  0  0  0  0  0
    0.5614  -17.2361    2.1577 H   0  0  0  0  0  0
    0.9932  -16.1555    3.5262 H   0  0  0  0  0  0
   -0.6914  -15.0437   -1.8586 H   0  0  0  0  0  0
    0.2163  -12.0731   -1.9600 H   0  0  0  0  0  0
    1.2069  -13.5780   -3.7914 H   0  0  0  0  0  0
    0.2880  -10.9669   -3.8693 H   0  0  0  0  0  0
    1.2237  -11.7555   -5.1843 H   0  0  0  0  0  0
   -0.7581  -15.0581   -4.0848 H   0  0  0  0  0  0
   -0.2896  -14.2728   -5.6309 H   0  0  0  0  0  0
   -1.7113  -13.6710   -4.7127 H   0  0  0  0  0  0
   -0.8207  -10.6638   -6.0670 H   0  0  0  0  0  0
   -1.8314  -11.6574   -4.9634 H   0  0  0  0  0  0
   -0.8957  -12.4461   -6.2783 H   0  0  0  0  0  0
   -1.3386  -10.5729   -2.9530 H   0  0  0  0  0  0
   -4.1920  -11.7847   -2.8287 H   0  0  0  0  0  0
   -3.7399  -10.6284   -0.6750 H   0  0  0  0  0  0
   -4.9517   -9.7146   -1.6358 H   0  0  0  0  0  0
   -3.2492   -9.1465   -1.5638 H   0  0  0  0  0  0
   -5.7712   -9.6835   -3.5375 H   0  0  0  0  0  0
   -4.2648   -8.4884   -5.9884 H   0  0  0  0  0  0
   -5.8632   -9.2841   -6.1849 H   0  0  0  0  0  0
   -5.5003   -6.6512   -7.0091 H   0  0  0  0  0  0
   -6.8273   -5.1145   -4.6560 H   0  0  0  0  0  0
   -4.6503   -4.4085   -6.1746 H   0  0  0  0  0  0
   -5.9680   -3.6881   -7.1603 H   0  0  0  0  0  0
   -7.4743   -2.1083   -6.1303 H   0  0  0  0  0  0
   -6.8384   -1.1673   -4.6005 H   0  0  0  0  0  0
  -10.3931   -5.7321   -7.3683 H   0  0  0  0  0  0
  -12.3153   -4.8004   -5.6087 H   0  0  0  0  0  0
  -11.6146   -6.4494   -5.4803 H   0  0  0  0  0  0
  -10.8851   -3.9093   -3.9137 H   0  0  0  0  0  0
  -11.0051   -5.5978   -3.3125 H   0  0  0  0  0  0
   -8.7807   -6.1369   -4.0485 H   0  0  0  0  0  0
   -8.5335   -4.3604   -3.9519 H   0  0  0  0  0  0
   -9.7570   -2.7596   -5.4031 H   0  0  0  0  0  0
  -11.5554   -1.1868   -7.2299 H   0  0  0  0  0  0
  -11.0369   -0.5018   -4.8697 H   0  0  0  0  0  0
  -10.5688    0.7921   -6.0244 H   0  0  0  0  0  0
   -9.3117   -0.2786   -5.3173 H   0  0  0  0  0  0
   -8.5917   -2.6710   -7.8955 H   0  0  0  0  0  0
   -7.2091   -0.3753   -9.1897 H   0  0  0  0  0  0
   -6.1485   -2.5933   -8.6744 H   0  0  0  0  0  0
   -7.1719   -3.3606   -9.9356 H   0  0  0  0  0  0
   -5.0212   -0.2621   -9.6473 H   0  0  0  0  0  0
   -6.0828   -3.7563  -11.9388 H   0  0  0  0  0  0
   -3.3509    0.3689  -11.3814 H   0  0  0  0  0  0
   -4.4129   -3.1246  -13.6749 H   0  0  0  0  0  0
   -3.0341   -2.8944  -15.7329 H   0  0  0  0  0  0
   -5.4272    0.1149  -14.3380 H   0  0  0  0  0  0
   -9.8872   -2.5028  -10.1369 H   0  0  0  0  0  0
  -11.3385   -2.2196  -11.9987 H   0  0  0  0  0  0
   -9.7319    0.2174  -12.9233 H   0  0  0  0  0  0
  -11.4480   -0.1761  -13.2791 H   0  0  0  0  0  0
  -11.8686   -0.0763  -10.7512 H   0  0  0  0  0  0
  -10.2171    0.6116  -10.5896 H   0  0  0  0  0  0
  -12.0576    2.3566  -10.7464 H   0  0  0  0  0  0
  -10.7980    2.5027  -12.0187 H   0  0  0  0  0  0
  -13.4416    0.9631  -12.5908 H   0  0  0  0  0  0
  -11.1173    1.4780  -14.6513 H   0  0  0  0  0  0
  -11.8168    2.9898  -15.5760 H   0  0  0  0  0  0
  -14.2032    3.7088  -12.9631 H   0  0  0  0  0  0
   -8.4438   -0.7554  -13.7050 H   0  0  0  0  0  0
   -7.3179   -1.7113  -15.5789 H   0  0  0  0  0  0
   -6.2431   -3.6614  -15.0455 H   0  0  0  0  0  0
   -7.2036   -3.6185  -13.5282 H   0  0  0  0  0  0
   -7.5451   -5.8256  -14.7452 H   0  0  0  0  0  0
   -9.3662   -3.9238  -17.8738 H   0  0  0  0  0  0
  1  2  1  0  0  0
  1 87  1  0  0  0
  1 88  1  0  0  0
  1 89  1  0  0  0
  2  3  1  0  0  0
  2  5  1  0  0  0
  2 90  1  0  0  0
  3  4  2  0  0  0
  3  9  1  0  0  0
  5  6  1  0  0  0
  5 91  1  0  0  0
  5 92  1  0  0  0
  6  7  1  0  0  0
  6  8  1  0  0  0
  6 93  1  0  0  0
  7 94  1  0  0  0
  7 95  1  0  0  0
  7 96  1  0  0  0
  8 97  1  0  0  0
  8 98  1  0  0  0
  8 99  1  0  0  0
  9 10  1  0  0  0
  9100  1  0  0  0
 10 11  1  0  0  0
 10 13  1  0  0  0
 10101  1  0  0  0
 11 12  2  0  0  0
 11 16  1  0  0  0
 13 14  1  0  0  0
 13 15  1  0  0  0
 13102  1  0  0  0
 14103  1  0  0  0
 14104  1  0  0  0
 14105  1  0  0  0
 15106  1  0  0  0
 15107  1  0  0  0
 15108  1  0  0  0
 16 17  1  0  0  0
 16109  1  0  0  0
 17 18  1  0  0  0
 17 20  1  0  0  0
 17110  1  0  0  0
 18 19  2  0  0  0
 18 24  1  0  0  0
 20 21  1  0  0  0
 20 22  1  0  0  0
 20111  1  0  0  0
 21 23  1  0  0  0
 21112  1  0  0  0
 21113  1  0  0  0
 22114  1  0  0  0
 22115  1  0  0  0
 22116  1  0  0  0
 23117  1  0  0  0
 23118  1  0  0  0
 23119  1  0  0  0
 24 25  1  0  0  0
 24120  1  0  0  0
 25 26  1  0  0  0
 25 28  1  0  0  0
 25121  1  0  0  0
 26 27  2  0  0  0
 26 29  1  0  0  0
 28122  1  0  0  0
 28123  1  0  0  0
 28124  1  0  0  0
 29 30  1  0  0  0
 29125  1  0  0  0
 30 31  1  0  0  0
 30126  1  0  0  0
 30127  1  0  0  0
 31 32  2  0  0  0
 31 33  1  0  0  0
 33 34  1  0  0  0
 33128  1  0  0  0
 34 35  1  0  0  0
 34 37  1  0  0  0
 34129  1  0  0  0
 35 36  2  0  0  0
 35 41  1  0  0  0
 37 38  1  0  0  0
 37130  1  0  0  0
 37131  1  0  0  0
 38 39  2  0  0  0
 38 40  1  0  0  0
 40132  1  0  0  0
 40133  1  0  0  0
 41 42  1  0  0  0
 41 47  1  0  0  0
 42 43  1  0  0  0
 42 45  1  0  0  0
 42134  1  0  0  0
 43 44  2  0  0  0
 43 48  1  0  0  0
 45 46  1  0  0  0
 45135  1  0  0  0
 45136  1  0  0  0
 46 47  1  0  0  0
 46137  1  0  0  0
 46138  1  0  0  0
 47139  1  0  0  0
 47140  1  0  0  0
 48 49  1  0  0  0
 48141  1  0  0  0
 49 50  1  0  0  0
 49 52  1  0  0  0
 49142  1  0  0  0
 50 51  2  0  0  0
 50 53  1  0  0  0
 52143  1  0  0  0
 52144  1  0  0  0
 52145  1  0  0  0
 53 54  1  0  0  0
 53146  1  0  0  0
 54 55  1  0  0  0
 54 57  1  0  0  0
 54147  1  0  0  0
 55 56  2  0  0  0
 55 69  1  0  0  0
 57 58  1  0  0  0
 57148  1  0  0  0
 57149  1  0  0  0
 58 59  2  0  0  0
 58 60  1  0  0  0
 59 61  1  0  0  0
 59150  1  0  0  0
 60 62  2  0  0  0
 60151  1  0  0  0
 61 63  2  0  0  0
 61152  1  0  0  0
 62 63  1  0  0  0
 62153  1  0  0  0
 63 64  1  0  0  0
 64 65  1  0  0  0
 65 66  1  0  0  0
 65 67  2  0  0  0
 65 68  1  0  0  0
 66154  1  0  0  0
 68155  1  0  0  0
 69 70  1  0  0  0
 69156  1  0  0  0
 70 71  1  0  0  0
 70 73  1  0  0  0
 70157  1  0  0  0
 71 72  2  0  0  0
 71 80  1  0  0  0
 73 74  1  0  0  0
 73158  1  0  0  0
 73159  1  0  0  0
 74 75  1  0  0  0
 74160  1  0  0  0
 74161  1  0  0  0
 75 76  1  0  0  0
 75162  1  0  0  0
 75163  1  0  0  0
 76 77  1  0  0  0
 76164  1  0  0  0
 77 78  1  0  0  0
 77 79  2  0  0  0
 78165  1  0  0  0
 78166  1  0  0  0
 79167  1  0  0  0
 80 81  1  0  0  0
 80168  1  0  0  0
 81 82  1  0  0  0
 81 84  1  0  0  0
 81169  1  0  0  0
 82 83  2  0  0  0
 82 86  1  0  0  0
 84 85  1  0  0  0
 84170  1  0  0  0
 84171  1  0  0  0
 85172  1  0  0  0
 86173  1  0  0  0
M  CHG  1   1   1
M  END
> <s_m_source_file>
../1irs_ligand.sdf

> <i_m_source_file_index>
1

> <s_epik_input>
W0NIM11bQ0hdKFtDSDNdKVtDSDJdW0NASF0oW05IMytdKUMoPU8pW05IXVtDQEBIXShbQ0hdKFtDSDNdKVtDSDNdKUMoPU8pW05IXVtDQEBIXShbQ0BASF0oW0NIM10pW0NIMl1bQ0gzXSlDKD1PKVtOSF1bQ0BASF0oW0NIM10pQyg9TylbTkhdW0NIMl1DKD1PKVtOSF1bQ0BASF0oW0NIMl1DKD1PKVtOSDJdKUMoPU8pTjFbQ0BASF0oW0NIMl1bQ0gyXVtDSDJdMSlDKD1PKVtOSF1bQ0BASF0oW0NIM10pQyg9TylbTkhdW0NAQEhdKFtDSDJdYzJbY0hdW2NIXWMoW2NIXVtjSF0yKU9QKD1PKShbT0hdKVtPSF0pQyg9TylbTkhdW0NASF0oQyg9TylbTkhdW0NASF0oQyg9TylbT0hdKVtDSDJdW09IXSlbQ0gyXVtDSDJdW0NIMl1bTkhdL0MoW05IMl0pPU5cW0hd

> <s_epik_cmdline>
J2VwaWtfYXBwJywgJy1pbWFlJywgJ2xpZ2FuZF9wcm8ubWFlJywgJy1vbWFlJywgJ2xpZ2FuZF9wcmVwLm1hZScsICctbXMnLCAnMScsICctcGgnLCAnNycsICctcGh0JywgJzAuNScsICctbnQn

> <s_epik_pKa_notes>
Molecule size exceeds maximum supported for generating protonation states

> <s_epik_Chemistry_Notes>
This compound has an imine and may undergo hydrolysis.

$$$$
