1it6_ligand
                    3D
 Schrodinger Suite 2020-3.
119121  0  0  1  0            999 V2000
   39.0560   17.5650   32.5680 P   0  0  0  0  0  0
   34.7820   19.3850   38.1770 O   0  0  0  0  0  0
   35.9330   17.3000   34.8050 O   0  0  0  0  0  0
   38.1100   17.1590   37.8450 O   0  0  0  0  0  0
   39.6490   17.1660   33.9930 O   0  0  0  0  0  0
   40.0400   18.4670   31.9320 O   0  0  0  0  0  0
   38.9570   16.2290   31.8070 O   0  5  0  0  0  0
   37.7070   18.1570   32.7540 O   0  5  0  0  0  0
   40.6920   17.0150   37.0450 O   0  0  0  0  0  0
   42.0240   15.2000   38.9970 O   0  0  0  0  0  0
   41.2790   15.2900   35.5200 O   0  0  0  0  0  0
   37.0120    9.4410   38.9900 O   0  0  0  0  0  0
   24.9810   22.2900   31.9600 N   0  0  0  0  0  0
   39.0220    9.9580   38.2900 N   0  0  0  0  0  0
   24.8370   21.1980   32.4250 C   0  0  0  0  0  0
   24.9830   20.0130   33.1290 C   0  0  0  0  0  0
   26.0830   19.6560   34.0190 C   0  0  0  0  0  0
   27.2910   20.7370   34.1890 C   0  0  0  0  0  0
   28.1990   20.0180   35.1340 C   0  0  0  0  0  0
   29.4610   21.0030   35.2930 C   0  0  0  0  0  0
   30.5140   20.4710   36.1620 C   0  0  0  0  0  0
   31.6680   21.4180   36.2080 C   0  0  0  0  0  0
   32.5600   20.8900   37.0480 C   0  0  0  0  0  0
   34.0090   21.5760   37.0010 C   0  0  2  0  0  0
   35.0630   20.2540   37.0260 C   0  0  2  0  0  0
   34.9220   19.3740   35.6960 C   0  0  2  0  0  0
   35.9840   18.1080   35.9550 C   0  0  2  0  0  0
   37.4540   18.6670   36.1390 C   0  0  0  0  0  0
   38.3480   17.4320   36.4150 C   0  0  1  0  0  0
   39.8060   17.8950   36.2830 C   0  0  2  0  0  0
   40.4020   18.0350   34.8600 C   0  0  1  0  0  0
   41.8900   17.6000   35.0570 C   0  0  0  0  0  0
   41.7290   16.5670   36.2340 C   0  0  1  0  0  0
   43.0610   16.2430   37.0250 C   0  0  0  0  0  0
   42.8750   14.9810   37.9810 C   0  0  2  0  0  0
   42.4200   13.7370   37.0060 C   0  0  1  0  0  0
   41.0730   14.1990   36.4870 C   0  0  2  0  0  0
   40.5620   13.0580   35.5080 C   0  0  0  0  0  0
   39.8920   11.8740   36.2900 C   0  0  0  0  0  0
   38.6160   11.7590   36.5270 C   0  0  0  0  0  0
   38.1750   10.8170   37.5090 C   0  0  0  0  0  0
   38.3920    9.1620   39.1480 C   0  0  0  0  0  0
   36.9250   10.4230   38.0180 C   0  0  0  0  0  0
   38.4860    7.9090   39.7710 C   0  0  2  0  0  0
   39.4770    8.1320   41.0360 C   0  0  0  0  0  0
   38.7170    9.2290   41.9830 C   0  0  0  0  0  0
   39.0190    6.8980   38.7480 C   0  0  0  0  0  0
   43.4860   13.3530   36.0170 C   0  0  0  0  0  0
   42.6890   18.7860   35.6040 C   0  0  0  0  0  0
   42.4800   17.0870   33.6730 C   0  0  0  0  0  0
   37.9920   15.6970   38.0960 C   0  0  0  0  0  0
   35.4500   20.2120   34.4360 C   0  0  0  0  0  0
   34.2860   22.3080   38.3430 C   0  0  0  0  0  0
   31.8580   22.7040   35.4310 C   0  0  0  0  0  0
   30.2220   19.1930   37.0280 C   0  0  0  0  0  0
   26.0130   18.1570   34.3250 C   0  0  0  0  0  0
   34.8242   19.7932   39.1976 H   0  0  0  0  0  0
   34.9878   16.8199   34.5116 H   0  0  0  0  0  0
   42.2232   16.0074   39.7170 H   0  0  0  0  0  0
   24.1574   19.3051   32.9636 H   0  0  0  0  0  0
   27.5607   21.7381   33.8216 H   0  0  0  0  0  0
   27.9083   19.0364   35.5365 H   0  0  0  0  0  0
   29.5823   21.9901   34.8229 H   0  0  0  0  0  0
   32.2728   20.0516   37.6996 H   0  0  0  0  0  0
   34.0770   22.3115   36.1859 H   0  0  0  0  0  0
   36.1105   20.5570   37.1708 H   0  0  0  0  0  0
   33.8752   19.1007   35.4970 H   0  0  0  0  0  0
   35.7433   17.4224   36.7808 H   0  0  0  0  0  0
   37.7661   19.1868   35.2212 H   0  0  0  0  0  0
   37.4756   19.3706   36.9843 H   0  0  0  0  0  0
   38.1470   16.5532   35.7847 H   0  0  0  0  0  0
   39.7859   18.9018   36.7257 H   0  0  0  0  0  0
   40.3085   19.0068   34.3532 H   0  0  0  0  0  0
   43.8680   16.0243   36.3102 H   0  0  0  0  0  0
   43.3418   17.1100   37.6410 H   0  0  0  0  0  0
   43.7156   14.8031   38.6678 H   0  0  0  0  0  0
   42.2867   12.7243   37.4143 H   0  0  0  0  0  0
   40.4499   14.5051   37.3403 H   0  0  0  0  0  0
   39.8189   13.4766   34.8133 H   0  0  0  0  0  0
   41.4123   12.6567   34.9371 H   0  0  0  0  0  0
   40.5897   11.1028   36.6485 H   0  0  0  0  0  0
   37.8959   12.3812   35.9753 H   0  0  0  0  0  0
   35.9801   10.8489   37.6804 H   0  0  0  0  0  0
   37.4720    7.5793   40.0412 H   0  0  0  0  0  0
   39.6234    7.1760   41.5601 H   0  0  0  0  0  0
   40.4477    8.5071   40.6797 H   0  0  0  0  0  0
   39.3323    9.4354   42.8712 H   0  0  0  0  0  0
   37.7418    8.8289   42.2974 H   0  0  0  0  0  0
   38.5661   10.1600   41.4170 H   0  0  0  0  0  0
   38.2992    6.7978   37.9222 H   0  0  0  0  0  0
   39.1565    5.9214   39.2351 H   0  0  0  0  0  0
   39.9835    7.2498   38.3531 H   0  0  0  0  0  0
   44.3932   13.0443   36.5571 H   0  0  0  0  0  0
   43.7174   14.2151   35.3742 H   0  0  0  0  0  0
   43.1270   12.5187   35.3964 H   0  0  0  0  0  0
   42.2527   19.1126   36.5595 H   0  0  0  0  0  0
   42.6542   19.6156   34.8824 H   0  0  0  0  0  0
   43.7341   18.4819   35.7630 H   0  0  0  0  0  0
   41.8821   16.2371   33.3121 H   0  0  0  0  0  0
   43.5230   16.7676   33.8149 H   0  0  0  0  0  0
   42.4431   17.9013   32.9344 H   0  0  0  0  0  0
   37.8153   15.5220   39.1675 H   0  0  0  0  0  0
   38.9229   15.1964   37.7914 H   0  0  0  0  0  0
   37.1506   15.2919   37.5146 H   0  0  0  0  0  0
   34.7678   21.0531   34.2432 H   0  0  0  0  0  0
   35.4869   19.5595   33.5512 H   0  0  0  0  0  0
   36.4576   20.5984   34.6489 H   0  0  0  0  0  0
   33.6381   23.1938   38.4180 H   0  0  0  0  0  0
   35.3400   22.6206   38.3794 H   0  0  0  0  0  0
   34.0760   21.6280   39.1817 H   0  0  0  0  0  0
   30.9649   22.8979   34.8188 H   0  0  0  0  0  0
   32.7376   22.6107   34.7771 H   0  0  0  0  0  0
   32.0095   23.5374   36.1328 H   0  0  0  0  0  0
   29.2698   18.7438   36.7093 H   0  0  0  0  0  0
   30.1569   19.4761   38.0890 H   0  0  0  0  0  0
   31.0348   18.4644   36.8920 H   0  0  0  0  0  0
   25.0124   17.7772   34.0708 H   0  0  0  0  0  0
   26.2070   17.9918   35.3951 H   0  0  0  0  0  0
   26.7693   17.6254   33.7289 H   0  0  0  0  0  0
  1  8  1  0  0  0
  1  7  1  0  0  0
  1  6  2  0  0  0
  1  5  1  0  0  0
  2 25  1  0  0  0
  2 57  1  0  0  0
  3 27  1  0  0  0
  3 58  1  0  0  0
  4 29  1  0  0  0
  4 51  1  0  0  0
  5 31  1  0  0  0
  9 30  1  0  0  0
  9 33  1  0  0  0
 10 35  1  0  0  0
 10 59  1  0  0  0
 11 33  1  0  0  0
 11 37  1  0  0  0
 12 43  1  0  0  0
 12 42  1  0  0  0
 13 15  3  0  0  0
 14 41  1  0  0  0
 14 42  2  0  0  0
 15 16  1  0  0  0
 16 17  2  0  0  0
 16 60  1  0  0  0
 17 18  1  0  0  0
 17 56  1  0  0  0
 18 19  2  0  0  0
 18 61  1  0  0  0
 19 20  1  0  0  0
 19 62  1  0  0  0
 20 21  2  0  0  0
 20 63  1  0  0  0
 21 22  1  0  0  0
 21 55  1  0  0  0
 22 23  2  0  0  0
 22 54  1  0  0  0
 23 24  1  0  0  0
 23 64  1  0  0  0
 24 25  1  0  0  0
 24 53  1  0  0  0
 24 65  1  0  0  0
 25 26  1  0  0  0
 25 66  1  0  0  0
 26 27  1  0  0  0
 26 52  1  0  0  0
 26 67  1  0  0  0
 27 28  1  0  0  0
 27 68  1  0  0  0
 28 29  1  0  0  0
 28 69  1  0  0  0
 28 70  1  0  0  0
 29 30  1  0  0  0
 29 71  1  0  0  0
 30 31  1  0  0  0
 30 72  1  0  0  0
 31 32  1  0  0  0
 31 73  1  0  0  0
 32 33  1  0  0  0
 32 50  1  0  0  0
 32 49  1  0  0  0
 33 34  1  0  0  0
 34 35  1  0  0  0
 34 74  1  0  0  0
 34 75  1  0  0  0
 35 36  1  0  0  0
 35 76  1  0  0  0
 36 48  1  0  0  0
 36 37  1  0  0  0
 36 77  1  0  0  0
 37 38  1  0  0  0
 37 78  1  0  0  0
 38 39  1  0  0  0
 38 79  1  0  0  0
 38 80  1  0  0  0
 39 40  2  0  0  0
 39 81  1  0  0  0
 40 41  1  0  0  0
 40 82  1  0  0  0
 41 43  2  0  0  0
 42 44  1  0  0  0
 43 83  1  0  0  0
 44 47  1  0  0  0
 44 45  1  0  0  0
 44 84  1  0  0  0
 45 46  1  0  0  0
 45 85  1  0  0  0
 45 86  1  0  0  0
 46 87  1  0  0  0
 46 88  1  0  0  0
 46 89  1  0  0  0
 47 90  1  0  0  0
 47 91  1  0  0  0
 47 92  1  0  0  0
 48 93  1  0  0  0
 48 94  1  0  0  0
 48 95  1  0  0  0
 49 96  1  0  0  0
 49 97  1  0  0  0
 49 98  1  0  0  0
 50 99  1  0  0  0
 50100  1  0  0  0
 50101  1  0  0  0
 51102  1  0  0  0
 51103  1  0  0  0
 51104  1  0  0  0
 52105  1  0  0  0
 52106  1  0  0  0
 52107  1  0  0  0
 53108  1  0  0  0
 53109  1  0  0  0
 53110  1  0  0  0
 54111  1  0  0  0
 54112  1  0  0  0
 54113  1  0  0  0
 55114  1  0  0  0
 55115  1  0  0  0
 55116  1  0  0  0
 56117  1  0  0  0
 56118  1  0  0  0
 56119  1  0  0  0
M  CHG  2   7  -1   8  -1
M  END
> <s_m_source_file>
../1it6_ligand.sdf

> <i_m_source_file_index>
1

> <s_epik_input>
W0NIM11bQ0gyXVtDQEhdKFtDSDNdKWMob1tjSF0xKW5jMVxbQ0hdPVtDSF1cW0NIMl1bQ0BASF0oW0NAQEhdKFtDSDNdKVtDQEhdKFtPSF0pW0NIMl0yKU9bQ0BAXTIzT1tDQEBIXShbQ0BASF0oQzMoW0NIM10pW0NIM10pT1AoPU8pKFtPSF0pW09IXSlbQ0BASF0oT1tDSDNdKVtDSDJdW0NASF0oW09IXSlbQ0BIXShbQ0gzXSlbQ0BIXShbT0hdKVtDQEhdKFtDSDNdKS9bQ0hdPUMoW0NIM10pL0MoW0NIM10pPVtDSF0vW0NIXT1bQ0hdL0MoW0NIM10pPVtDSF1cQyNO

> <s_epik_cmdline>
J2VwaWtfYXBwJywgJy1pbWFlJywgJ2xpZ2FuZF9wcm8ubWFlJywgJy1vbWFlJywgJ2xpZ2FuZF9wcmVwLm1hZScsICctbXMnLCAnMScsICctcGgnLCAnNycsICctcGh0JywgJzAuNScsICctbnQn

> <r_epik_Ionization_Penalty>
  0.0951

> <r_epik_Ionization_Penalty_Charging>
  0.0950

> <r_epik_Ionization_Penalty_Neutral>
  0.0000

> <r_epik_State_Penalty>
  0.0852

> <r_epik_Charging_Adjusted_Penalty>
0.180265957024989

> <i_epik_Tot_Q>
-2

> <i_epik_Tot_abs_Q>
2

$$$$
