1iup_ligand
                    3D
 Schrodinger Suite 2020-3.
 13 12  0  0  1  0            999 V2000
    3.5750   29.6540   -1.7730 C   0  0  0  0  0  0
    2.9390   28.7700   -0.6640 C   0  0  0  0  0  0
    2.9140   29.1620    0.5680 O   0  5  0  0  0  0
    2.4220   27.6280   -0.9760 O   0  0  0  0  0  0
    4.8610   28.9920   -2.2980 C   0  0  0  0  0  0
    3.9050   31.0670   -1.2350 C   0  0  0  0  0  0
    2.8542   29.7518   -2.5982 H   0  0  0  0  0  0
    5.3047   29.6234   -3.0819 H   0  0  0  0  0  0
    4.6202   28.0034   -2.7160 H   0  0  0  0  0  0
    5.5774   28.8760   -1.4714 H   0  0  0  0  0  0
    4.3528   31.6700   -2.0387 H   0  0  0  0  0  0
    4.6154   30.9844   -0.3992 H   0  0  0  0  0  0
    2.9813   31.5509   -0.8847 H   0  0  0  0  0  0
  1  6  1  0  0  0
  1  5  1  0  0  0
  1  2  1  0  0  0
  1  7  1  0  0  0
  2  4  2  0  0  0
  2  3  1  0  0  0
  5  8  1  0  0  0
  5  9  1  0  0  0
  5 10  1  0  0  0
  6 11  1  0  0  0
  6 12  1  0  0  0
  6 13  1  0  0  0
M  CHG  1   3  -1
M  END
> <s_m_source_file>
../1iup_ligand.sdf

> <i_m_source_file_index>
1

> <s_epik_input>
W0NIM11bQ0hdKFtDSDNdKUMoPU8pW09IXQ==

> <s_epik_cmdline>
J2VwaWtfYXBwJywgJy1pbWFlJywgJ2xpZ2FuZF9wcm8ubWFlJywgJy1vbWFlJywgJ2xpZ2FuZF9wcmVwLm1hZScsICctbXMnLCAnMScsICctcGgnLCAnNycsICctcGh0JywgJzAuNScsICctbnQn

> <r_lp_tautomer_probability>
1

> <r_epik_Ionization_Penalty>
  0.0022

> <r_epik_Ionization_Penalty_Charging>
  0.0022

> <r_epik_Ionization_Penalty_Neutral>
  0.0000

> <r_epik_State_Penalty>
 -0.0000

> <r_epik_Charging_Adjusted_Penalty>
0.00224829687089459

> <i_epik_Tot_Q>
-1

> <i_epik_Tot_abs_Q>
1

$$$$
