1ivp_ligand
                    3D
 Schrodinger Suite 2020-3.
118122  0  0  1  0            999 V2000
    4.3120   13.0860   17.8600 C   0  0  0  0  0  0
    4.5330   11.6570   18.3720 C   0  0  0  0  0  0
    5.0990   10.6100   20.5500 C   0  0  0  0  0  0
    6.4130   10.4110   21.0130 C   0  0  0  0  0  0
    6.7060    9.3200   21.8500 C   0  0  0  0  0  0
    5.6940    8.4370   22.2280 C   0  0  0  0  0  0
    4.3850    8.6450   21.7780 C   0  0  0  0  0  0
    3.3790    7.7400   22.1650 C   0  0  0  0  0  0
    2.0670    7.9340   21.7030 C   0  0  0  0  0  0
    1.7710    9.0280   20.8690 C   0  0  0  0  0  0
    2.7860    9.9260   20.5040 C   0  0  0  0  0  0
    4.0980    9.7330   20.9480 C   0  0  0  0  0  0
    5.1550   13.6790   17.1600 O   0  0  0  0  0  0
    4.8710   11.6780   19.7530 O   0  0  0  0  0  0
    3.1570   13.6200   18.2060 N   0  0  0  0  0  0
    2.7010   14.9680   17.8130 C   0  0  2  0  0  0
    2.0750   15.5850   19.0560 C   0  0  0  0  0  0
    0.9020   15.2910   19.3640 O   0  0  0  0  0  0
    1.6250   14.8200   16.6890 C   0  0  0  0  0  0
    2.1920   13.9710   15.5850 C   0  0  0  0  0  0
    2.3200   12.6150   15.6390 N   0  3  0  0  0  0
    2.7260   14.3230   14.3920 C   0  0  0  0  0  0
    2.9060   12.1620   14.5430 C   0  0  0  0  0  0
    3.1610   13.1940   13.7710 N   0  0  0  0  0  0
    2.8800   16.3830   19.7500 N   0  0  0  0  0  0
    2.4090   17.0220   20.9960 C   0  0  1  0  0  0
    2.9640   16.5500   22.1960 C   0  0  0  0  0  0
    3.3830   15.0800   22.2290 C   0  0  0  0  0  0
    2.7940   14.3900   23.4790 C   0  0  0  0  0  0
    4.9300   15.0460   22.2920 C   0  0  0  0  0  0
    3.2540   12.9110   23.4550 C   0  0  0  0  0  0
    5.4940   13.6560   22.5120 C   0  0  0  0  0  0
    4.7900   12.9010   23.6310 C   0  0  0  0  0  0
    2.3810   18.5440   20.8500 C   0  0  0  0  0  0
    3.3200   19.3370   20.8870 O   0  0  0  0  0  0
    1.1930   18.8910   19.9490 C   0  0  1  0  0  0
    0.4920   20.1180   20.5320 C   0  0  1  0  0  0
   -0.5930   20.4460   19.5640 C   0  0  0  0  0  0
   -1.5270   19.3100   19.0940 C   0  0  0  0  0  0
   -1.4400   21.6370   19.9860 C   0  0  0  0  0  0
    1.7200   19.1410   18.6310 O   0  0  0  0  0  0
   -0.1230   19.8000   21.9130 C   0  0  0  0  0  0
   -0.3070   18.6680   22.4010 O   0  0  0  0  0  0
   -0.4460   20.9050   22.5470 N   0  0  0  0  0  0
   -1.1000   21.1330   23.8160 C   0  0  2  0  0  0
   -1.6790   22.5550   23.7020 C   0  0  0  0  0  0
   -1.1290   23.5870   24.1010 O   0  0  0  0  0  0
   -0.4120   20.7010   25.1240 C   0  0  2  0  0  0
   -0.8880   21.6130   26.2850 C   0  0  0  0  0  0
    1.1100   20.5030   25.1220 C   0  0  0  0  0  0
   -2.4300   21.7410   26.3820 C   0  0  0  0  0  0
   -2.8430   22.5550   23.0740 N   0  0  0  0  0  0
   -3.6780   23.7070   22.7560 C   0  0  0  0  0  0
   -5.0570   23.2730   22.3810 C   0  0  0  0  0  0
   -5.4700   21.9370   22.4920 C   0  0  0  0  0  0
   -6.7840   21.5870   22.1640 C   0  0  0  0  0  0
   -7.6630   22.5850   21.7120 C   0  0  0  0  0  0
   -7.2010   23.9070   21.6250 C   0  0  0  0  0  0
   -5.9330   24.1960   21.9500 N   0  0  0  0  0  0
    3.6116   11.0720   18.2353 H   0  0  0  0  0  0
    5.3523   11.1878   17.8075 H   0  0  0  0  0  0
    7.2037   11.1028   20.7226 H   0  0  0  0  0  0
    7.7250    9.1638   22.2040 H   0  0  0  0  0  0
    5.9221    7.5876   22.8719 H   0  0  0  0  0  0
    3.6154    6.8982   22.8158 H   0  0  0  0  0  0
    1.2789    7.2379   21.9902 H   0  0  0  0  0  0
    0.7540    9.1780   20.5066 H   0  0  0  0  0  0
    2.5499   10.7804   19.8696 H   0  0  0  0  0  0
    2.5154   12.9834   18.8329 H   0  0  0  0  0  0
    3.5531   15.5691   17.4629 H   0  0  0  0  0  0
    0.7255   14.3411   17.1033 H   0  0  0  0  0  0
    1.3639   15.8145   16.2981 H   0  0  0  0  0  0
    2.7954   15.3366   13.9971 H   0  0  0  0  0  0
    3.1359   11.1200   14.3204 H   0  0  0  0  0  0
    3.9034   16.5663   19.3907 H   0  0  0  0  0  0
    1.4076   16.6096   21.1887 H   0  0  0  0  0  0
    3.8724   17.1242   22.4306 H   0  0  0  0  0  0
    2.2339   16.6701   23.0099 H   0  0  0  0  0  0
    3.0069   14.5595   21.3359 H   0  0  0  0  0  0
    3.1646   14.8930   24.3843 H   0  0  0  0  0  0
    1.6961   14.4515   23.4487 H   0  0  0  0  0  0
    5.3439   15.4241   21.3456 H   0  0  0  0  0  0
    5.2772   15.6782   23.1225 H   0  0  0  0  0  0
    2.7689   12.3628   24.2760 H   0  0  0  0  0  0
    2.9737   12.4553   22.4939 H   0  0  0  0  0  0
    5.3853   13.0661   21.5900 H   0  0  0  0  0  0
    6.5592   13.7301   22.7765 H   0  0  0  0  0  0
    5.0526   13.3778   24.5869 H   0  0  0  0  0  0
    5.1527   11.8625   23.6274 H   0  0  0  0  0  0
    0.4627   18.0771   19.8294 H   0  0  0  0  0  0
    1.1859   20.9633   20.6501 H   0  0  0  0  0  0
    0.0528   20.6993   18.7103 H   0  0  0  0  0  0
   -0.9238   18.4431   18.7863 H   0  0  0  0  0  0
   -2.1288   19.6590   18.2419 H   0  0  0  0  0  0
   -2.1938   19.0186   19.9189 H   0  0  0  0  0  0
   -0.7835   22.4528   20.3230 H   0  0  0  0  0  0
   -2.1070   21.3395   20.8086 H   0  0  0  0  0  0
   -2.0420   21.9799   19.1316 H   0  0  0  0  0  0
    2.2509   18.3435   18.0906 H   0  0  0  0  0  0
   -0.1255   21.7590   21.9322 H   0  0  0  0  0  0
   -1.8765   20.3576   23.8923 H   0  0  0  0  0  0
   -0.7375   19.6590   25.2595 H   0  0  0  0  0  0
   -0.5317   21.2042   27.2421 H   0  0  0  0  0  0
   -0.4827   22.6260   26.1454 H   0  0  0  0  0  0
    1.3939   19.8513   24.2825 H   0  0  0  0  0  0
    1.4204   20.0372   26.0690 H   0  0  0  0  0  0
    1.6065   21.4785   25.0131 H   0  0  0  0  0  0
   -2.6910   22.3993   27.2237 H   0  0  0  0  0  0
   -2.8710   20.7464   26.5439 H   0  0  0  0  0  0
   -2.8220   22.1681   25.4472 H   0  0  0  0  0  0
   -3.1662   21.5445   22.7834 H   0  0  0  0  0  0
   -3.7399   24.3682   23.6329 H   0  0  0  0  0  0
   -3.2371   24.2577   21.9120 H   0  0  0  0  0  0
   -4.7696   21.1744   22.8326 H   0  0  0  0  0  0
   -7.1210   20.5546   22.2578 H   0  0  0  0  0  0
   -8.6871   22.3366   21.4334 H   0  0  0  0  0  0
   -7.8728   24.6987   21.2933 H   0  0  0  0  0  0
    1.9546   12.0626   16.5173 H   0  0  0  0  0  0
  1 13  2  0  0  0
  1  2  1  0  0  0
  1 15  1  0  0  0
  2 14  1  0  0  0
  2 60  1  0  0  0
  2 61  1  0  0  0
  3 14  1  0  0  0
  3 12  2  0  0  0
  3  4  1  0  0  0
  4  5  2  0  0  0
  4 62  1  0  0  0
  5  6  1  0  0  0
  5 63  1  0  0  0
  6  7  2  0  0  0
  6 64  1  0  0  0
  7 12  1  0  0  0
  7  8  1  0  0  0
  8  9  2  0  0  0
  8 65  1  0  0  0
  9 10  1  0  0  0
  9 66  1  0  0  0
 10 11  2  0  0  0
 10 67  1  0  0  0
 11 12  1  0  0  0
 11 68  1  0  0  0
 15 16  1  0  0  0
 15 69  1  0  0  0
 16 17  1  0  0  0
 16 19  1  0  0  0
 16 70  1  0  0  0
 17 18  2  0  0  0
 17 25  1  0  0  0
 19 20  1  0  0  0
 19 71  1  0  0  0
 19 72  1  0  0  0
 20 22  2  0  0  0
 20 21  1  0  0  0
 21 23  2  0  0  0
 21118  1  0  0  0
 22 24  1  0  0  0
 22 73  1  0  0  0
 23 24  1  0  0  0
 23 74  1  0  0  0
 25 26  1  0  0  0
 25 75  1  0  0  0
 26 34  1  0  0  0
 26 27  1  0  0  0
 26 76  1  0  0  0
 27 28  1  0  0  0
 27 77  1  0  0  0
 27 78  1  0  0  0
 28 30  1  0  0  0
 28 29  1  0  0  0
 28 79  1  0  0  0
 29 31  1  0  0  0
 29 80  1  0  0  0
 29 81  1  0  0  0
 30 32  1  0  0  0
 30 82  1  0  0  0
 30 83  1  0  0  0
 31 33  1  0  0  0
 31 84  1  0  0  0
 31 85  1  0  0  0
 32 33  1  0  0  0
 32 86  1  0  0  0
 32 87  1  0  0  0
 33 88  1  0  0  0
 33 89  1  0  0  0
 34 36  1  0  0  0
 34 35  2  0  0  0
 36 41  1  0  0  0
 36 37  1  0  0  0
 36 90  1  0  0  0
 37 42  1  0  0  0
 37 38  1  0  0  0
 37 91  1  0  0  0
 38 40  1  0  0  0
 38 39  1  0  0  0
 38 92  1  0  0  0
 39 93  1  0  0  0
 39 94  1  0  0  0
 39 95  1  0  0  0
 40 96  1  0  0  0
 40 97  1  0  0  0
 40 98  1  0  0  0
 41 99  1  0  0  0
 42 43  2  0  0  0
 42 44  1  0  0  0
 44 45  1  0  0  0
 44100  1  0  0  0
 45 46  1  0  0  0
 45 48  1  0  0  0
 45101  1  0  0  0
 46 47  2  0  0  0
 46 52  1  0  0  0
 48 49  1  0  0  0
 48 50  1  0  0  0
 48102  1  0  0  0
 49 51  1  0  0  0
 49103  1  0  0  0
 49104  1  0  0  0
 50105  1  0  0  0
 50106  1  0  0  0
 50107  1  0  0  0
 51108  1  0  0  0
 51109  1  0  0  0
 51110  1  0  0  0
 52 53  1  0  0  0
 52111  1  0  0  0
 53 54  1  0  0  0
 53112  1  0  0  0
 53113  1  0  0  0
 54 59  2  0  0  0
 54 55  1  0  0  0
 55 56  2  0  0  0
 55114  1  0  0  0
 56 57  1  0  0  0
 56115  1  0  0  0
 57 58  2  0  0  0
 57116  1  0  0  0
 58 59  1  0  0  0
 58117  1  0  0  0
M  CHG  1  21   1
M  END
> <s_m_source_file>
../1ivp_ligand.sdf

> <i_m_source_file_index>
1

> <s_epik_input>
W2NIXTFbY0hdW2NIXVtjSF1jKGMxMiljKFtjSF1bY0hdW2NIXTIpT1tDSDJdQyg9TylbTkhdW0NAQEhdKFtDSDJdYzNuW2NIXVtuSF1bY0hdMylDKD1PKVtOSF1bQ0BASF0oW0NIMl1bQ0hdNFtDSDJdW0NIMl1bQ0gyXVtDSDJdW0NIMl00KUMoPU8pW0NASF0oW09IXSlbQ0BASF0oW0NIXShbQ0gzXSlbQ0gzXSlDKD1PKVtOSF1bQ0BASF0oW0NAQEhdKFtDSDNdKVtDSDJdW0NIM10pQyg9TylbTkhdW0NIMl1jNVtjSF1bY0hdW2NIXVtjSF1uNQ==

> <s_epik_cmdline>
J2VwaWtfYXBwJywgJy1pbWFlJywgJ2xpZ2FuZF9wcm8ubWFlJywgJy1vbWFlJywgJ2xpZ2FuZF9wcmVwLm1hZScsICctbXMnLCAnMScsICctcGgnLCAnNycsICctcGh0JywgJzAuNScsICctbnQn

> <r_epik_Ionization_Penalty>
  0.5313

> <r_epik_Ionization_Penalty_Charging>
  0.0000

> <r_epik_Ionization_Penalty_Neutral>
  0.5313

> <r_epik_State_Penalty>
  0.0002

> <r_epik_Charging_Adjusted_Penalty>
0.000151776109450091

> <i_epik_Tot_Q>
1

> <i_epik_Tot_abs_Q>
1

$$$$
