1iwq_ligand
                    3D
 Schrodinger Suite 2020-3.
292296  0  0  1  0            999 V2000
   15.8280   28.8120  101.1530 N   0  3  0  0  0  0
   16.7090   28.1470  100.1570 C   0  0  2  0  0  0
   16.3120   28.6640   98.7920 C   0  0  0  0  0  0
   15.1420   28.6030   98.4230 O   0  0  0  0  0  0
   16.5600   26.6110  100.2170 C   0  0  0  0  0  0
   17.2590   29.3010   98.1220 N   0  0  0  0  0  0
   17.1010   29.7280   96.7440 C   0  0  2  0  0  0
   16.7500   28.6190   95.7310 C   0  0  0  0  0  0
   17.4580   27.6120   95.6090 O   0  0  0  0  0  0
   18.3830   30.4450   96.2880 C   0  0  0  0  0  0
   15.6670   28.8430   94.9840 N   0  0  0  0  0  0
   15.2320   27.9390   93.9130 C   0  0  2  0  0  0
   15.0630   28.7620   92.6140 C   0  0  0  0  0  0
   14.3620   29.7840   92.5740 O   0  0  0  0  0  0
   13.9540   27.2210   94.3030 C   0  0  0  0  0  0
   15.7540   28.3380   91.5590 N   0  0  0  0  0  0
   15.6600   29.0230   90.2720 C   0  0  2  0  0  0
   14.2240   29.0040   89.7240 C   0  0  0  0  0  0
   13.6100   27.9530   89.6670 O   0  0  0  0  0  0
   16.5780   28.3630   89.2330 C   0  0  0  0  0  0
   16.5710   29.0740   87.9110 C   0  0  0  0  0  0
   17.1500   30.3330   87.7980 C   0  0  0  0  0  0
   15.9520   28.5160   86.7980 C   0  0  0  0  0  0
   17.1230   31.0260   86.5860 C   0  0  0  0  0  0
   15.9240   29.1930   85.5910 C   0  0  0  0  0  0
   16.5070   30.4630   85.4840 C   0  0  0  0  0  0
   13.7220   30.1630   89.2940 N   0  0  0  0  0  0
   12.3560   30.3150   88.7470 C   0  0  2  0  0  0
   11.3270   30.5250   89.8840 C   0  0  0  0  0  0
   10.1520   30.6940   89.6070 O   0  0  0  0  0  0
   11.9500   29.1250   87.8560 C   0  0  0  0  0  0
   11.2910   28.0900   88.5650 O   0  0  0  0  0  0
   11.8050   30.4920   91.1400 N   0  0  0  0  0  0
   10.9890   30.6910   92.3390 C   0  0  2  0  0  0
   11.4580   31.9160   93.1170 C   0  0  0  0  0  0
   12.6410   32.1960   93.1890 O   0  0  0  0  0  0
   11.0910   29.4860   93.2850 C   0  0  0  0  0  0
   10.4730   28.2260   92.7410 C   0  0  0  0  0  0
   11.1300   27.4900   91.7720 C   0  0  0  0  0  0
    9.2530   27.7710   93.2140 C   0  0  0  0  0  0
   10.5710   26.3410   91.2650 C   0  0  0  0  0  0
    8.6970   26.6190   92.7210 C   0  0  0  0  0  0
    9.3660   25.8920   91.7370 C   0  0  0  0  0  0
   10.5190   32.6040   93.7490 N   0  0  0  0  0  0
   10.8310   33.7930   94.5150 C   0  0  2  0  0  0
    9.8250   33.9990   95.6450 C   0  0  0  0  0  0
    8.6020   34.0650   95.4090 O   0  0  0  0  0  0
   10.8160   35.0000   93.5900 C   0  0  0  0  0  0
   11.4690   36.2450   94.1740 C   0  0  0  0  0  0
   10.4600   37.1590   94.8130 C   0  0  0  0  0  0
   10.9510   38.5710   95.0300 C   0  0  0  0  0  0
    9.7780   39.3420   95.5690 N   0  3  0  0  0  0
   10.3200   34.1250   96.8660 N   0  0  0  0  0  0
    9.4190   34.3260   98.0000 C   0  0  2  0  0  0
    8.9470   35.7670   98.1460 C   0  0  0  0  0  0
    9.7310   36.6560   98.3940 O   0  0  0  0  0  0
   10.0590   33.8210   99.2840 C   0  0  0  0  0  0
   10.5500   32.4200   99.1190 C   0  0  0  0  0  0
   10.8500   31.7500  100.3960 C   0  0  0  0  0  0
   11.3340   30.3380  100.1280 C   0  0  0  0  0  0
   12.6260   30.3460   99.3540 N   0  3  0  0  0  0
    7.6570   35.9880   98.0010 N   0  0  0  0  0  0
    7.0980   37.3150   98.1300 C   0  0  2  0  0  0
    6.3260   37.4430   99.4280 C   0  0  0  0  0  0
    5.5520   36.5690   99.7830 O   0  0  0  0  0  0
    6.1660   37.6380   96.9750 C   0  0  0  0  0  0
    5.2480   38.6830   97.3090 O   0  0  0  0  0  0
    6.5460   38.5530  100.1170 N   0  0  0  0  0  0
    5.8260   38.8560  101.3400 C   0  0  2  0  0  0
    4.3530   39.0930  100.9770 C   0  0  0  0  0  0
    3.4600   38.5220  101.5950 O   0  0  0  0  0  0
    6.3920   40.1200  101.9860 C   0  0  0  0  0  0
    6.1380   40.2280  103.4800 C   0  0  0  0  0  0
    5.2940   39.3490  104.1430 C   0  0  0  0  0  0
    6.7550   41.1950  104.1980 C   0  0  0  0  0  0
    5.0510   39.4470  105.4880 C   0  0  0  0  0  0
    6.5370   41.3050  105.5580 C   0  0  0  0  0  0
    5.6810   40.4090  106.2070 C   0  0  0  0  0  0
    4.1420   39.9040   99.9370 N   0  0  0  0  0  0
    2.8120   40.2860   99.4680 C   0  0  2  0  0  0
    1.9310   39.1130   99.2090 C   0  0  0  0  0  0
    0.8810   38.9810   99.8330 O   0  0  0  0  0  0
    2.8960   41.1110   98.1850 C   0  0  0  0  0  0
    1.5270   41.4530   97.6260 C   0  0  0  0  0  0
    1.6620   42.3500   96.3940 C   0  0  0  0  0  0
    0.3030   42.6000   95.7250 C   0  0  0  0  0  0
    0.4720   43.4420   94.4990 N   0  3  0  0  0  0
    2.3390   38.2780   98.2600 N   0  0  0  0  0  0
    1.5880   37.0810   97.9270 C   0  0  2  0  0  0
    1.4490   36.1810   99.1550 C   0  0  0  0  0  0
    0.4310   35.5220   99.3320 O   0  0  0  0  0  0
    2.2760   36.3070   96.7900 C   0  0  0  0  0  0
    2.2720   37.0030   95.4510 C   0  0  0  0  0  0
    2.7510   36.0240   94.4200 C   0  0  0  0  0  0
    0.8630   37.4780   95.1130 C   0  0  0  0  0  0
    2.4560   36.1540  100.0190 N   0  0  0  0  0  0
    2.3670   35.3430  101.2300 C   0  0  2  0  0  0
    1.2940   35.9480  102.1830 C   0  0  0  0  0  0
    0.6490   35.2530  102.9560 O   0  0  0  0  0  0
    3.7330   35.3210  101.9500 C   0  0  0  0  0  0
    4.7460   34.5660  101.2560 O   0  0  0  0  0  0
    1.1700   37.2650  102.1660 N   0  0  0  0  0  0
    0.1960   37.9210  103.0140 C   0  0  0  0  0  0
   -1.1950   37.4580  102.5770 C   0  0  0  0  0  0
   -1.9520   36.8760  103.3490 O   0  0  0  0  0  0
   -1.5060   37.6750  101.3060 N   0  0  0  0  0  0
   -2.8200   37.2710  100.7740 C   0  0  2  0  0  0
   -3.0710   35.7930  101.0310 C   0  0  0  0  0  0
   -4.1930   35.3890  101.3220 O   0  0  0  0  0  0
   -2.9210   37.5840   99.2880 C   0  0  0  0  0  0
   -3.1160   39.0350   99.0000 C   0  0  0  0  0  0
   -2.0440   39.8270   98.6640 C   0  0  0  0  0  0
   -4.3770   39.6080   99.0900 C   0  0  0  0  0  0
   -2.2100   41.1660   98.4100 C   0  0  0  0  0  0
   -4.5610   40.9440   98.8360 C   0  0  0  0  0  0
   -3.4740   41.7280   98.4940 C   0  0  0  0  0  0
   -2.0080   34.9900  100.9800 N   0  0  0  0  0  0
   -2.1310   33.5480  101.1830 C   0  0  2  0  0  0
   -2.5300   33.2720  102.6120 C   0  0  0  0  0  0
   -2.9620   32.1600  102.9520 O   0  0  0  0  0  0
   -0.7920   32.8300  100.8710 C   0  0  0  0  0  0
   -0.3800   33.0180   99.5360 O   0  0  0  0  0  0
   -2.3610   34.2750  103.4680 N   0  0  0  0  0  0
   -2.6740   34.1280  104.8810 C   0  0  2  0  0  0
   -3.8080   35.0490  105.3340 C   0  0  0  0  0  0
   -4.0320   36.1200  104.7630 O   0  0  0  0  0  0
   -1.4330   34.4180  105.7240 C   0  0  0  0  0  0
   -0.1830   33.7660  105.2150 C   0  0  0  0  0  0
    1.0520   34.1370  105.7280 C   0  0  0  0  0  0
   -0.2260   32.7810  104.2340 C   0  0  0  0  0  0
    2.2220   33.5500  105.2760 C   0  0  0  0  0  0
    0.9400   32.1870  103.7740 C   0  0  0  0  0  0
    2.1660   32.5780  104.2990 C   0  0  0  0  0  0
   -4.5040   34.6370  106.3850 N   0  0  0  0  0  0
   -5.6130   35.4250  106.9120 C   0  0  2  0  0  0
   -5.3890   35.7390  108.3630 C   0  0  0  0  0  0
   -5.8560   36.8050  108.7580 O   0  0  0  0  0  0
   -6.9680   34.7020  106.7480 C   0  0  0  0  0  0
   -8.1890   35.5240  107.2530 C   0  0  0  0  0  0
   -9.5440   34.9090  106.8700 C   0  0  0  0  0  0
  -10.1100   34.0100  107.9680 C   0  0  0  0  0  0
  -10.7830   34.7300  109.1110 N   0  3  0  0  0  0
   -4.7267   34.9152  109.1703 O   0  0  0  0  0  0
   16.0862   28.4611  102.1630 H   0  0  0  0  0  0
   14.7781   28.5653  100.9364 H   0  0  0  0  0  0
   15.9678   29.9016  101.0965 H   0  0  0  0  0  0
   17.7538   28.4062  100.3832 H   0  0  0  0  0  0
   16.8525   26.2530  101.2151 H   0  0  0  0  0  0
   17.2084   26.1498   99.4574 H   0  0  0  0  0  0
   15.5130   26.3363  100.0212 H   0  0  0  0  0  0
   18.1988   29.5039   98.6564 H   0  0  0  0  0  0
   16.2238   30.3877   96.8173 H   0  0  0  0  0  0
   18.6363   31.2368   97.0084 H   0  0  0  0  0  0
   18.2206   30.8906   95.2955 H   0  0  0  0  0  0
   19.2089   29.7204   96.2340 H   0  0  0  0  0  0
   15.0914   29.7547   95.2018 H   0  0  0  0  0  0
   16.0060   27.1673   93.7891 H   0  0  0  0  0  0
   14.1215   26.6511   95.2288 H   0  0  0  0  0  0
   13.6595   26.5328   93.4970 H   0  0  0  0  0  0
   13.1542   27.9585   94.4660 H   0  0  0  0  0  0
   16.4037   27.4570   91.6670 H   0  0  0  0  0  0
   15.9796   30.0510   90.4981 H   0  0  0  0  0  0
   17.6126   28.3610   89.6066 H   0  0  0  0  0  0
   16.2493   27.3279   89.0582 H   0  0  0  0  0  0
   17.6307   30.7845   88.6658 H   0  0  0  0  0  0
   15.4837   27.5349   86.8768 H   0  0  0  0  0  0
   17.5869   32.0093   86.5090 H   0  0  0  0  0  0
   15.4479   28.7378   84.7226 H   0  0  0  0  0  0
   16.4749   31.0033   84.5379 H   0  0  0  0  0  0
   14.3869   31.0365   89.3636 H   0  0  0  0  0  0
   12.4108   31.2148   88.1167 H   0  0  0  0  0  0
   11.2656   29.4734   87.0684 H   0  0  0  0  0  0
   12.8484   28.6891   87.3946 H   0  0  0  0  0  0
   10.9535   27.1879   88.0337 H   0  0  0  0  0  0
   12.8841   30.3005   91.2346 H   0  0  0  0  0  0
    9.9676   30.8228   91.9524 H   0  0  0  0  0  0
   12.1499   29.2670   93.4869 H   0  0  0  0  0  0
   10.5777   29.7172   94.2300 H   0  0  0  0  0  0
   12.1010   27.8243   91.4065 H   0  0  0  0  0  0
    8.7297   28.3349   93.9862 H   0  0  0  0  0  0
   11.0890   25.7847   90.4838 H   0  0  0  0  0  0
    7.7345   26.2723   93.0972 H   0  0  0  0  0  0
    8.9326   24.9716   91.3456 H   0  0  0  0  0  0
    9.4795   32.2506   93.6810 H   0  0  0  0  0  0
   11.8329   33.6246   94.9367 H   0  0  0  0  0  0
   11.3563   34.7581   92.6629 H   0  0  0  0  0  0
    9.7758   35.2649   93.3497 H   0  0  0  0  0  0
   12.2010   35.9500   94.9403 H   0  0  0  0  0  0
   11.9797   36.8008   93.3739 H   0  0  0  0  0  0
    9.5670   37.2232   94.1739 H   0  0  0  0  0  0
   10.1775   36.7612   95.7989 H   0  0  0  0  0  0
   11.7842   38.5632   95.7481 H   0  0  0  0  0  0
   11.2955   38.9905   94.0733 H   0  0  0  0  0  0
   10.0763   40.3855   95.7482 H   0  0  0  0  0  0
    9.4442   38.8886   96.5140 H   0  0  0  0  0  0
    8.9555   39.3159   94.8391 H   0  0  0  0  0  0
   11.4069   34.0788   97.0286 H   0  0  0  0  0  0
    8.5353   33.7184   97.7553 H   0  0  0  0  0  0
   10.9105   34.4656   99.5474 H   0  0  0  0  0  0
    9.3177   33.8427  100.0964 H   0  0  0  0  0  0
    9.7841   31.8213   98.6043 H   0  0  0  0  0  0
   11.4745   32.4233   98.5230 H   0  0  0  0  0  0
   11.6328   32.3099  100.9288 H   0  0  0  0  0  0
    9.9404   31.7137  101.0136 H   0  0  0  0  0  0
   11.4996   29.8195  101.0839 H   0  0  0  0  0  0
   10.5766   29.7956   99.5431 H   0  0  0  0  0  0
   12.9523   29.3110   99.1746 H   0  0  0  0  0  0
   13.3961   30.8784   99.9315 H   0  0  0  0  0  0
   12.4731   30.8545   98.3906 H   0  0  0  0  0  0
    7.0008   35.1342   97.7767 H   0  0  0  0  0  0
    7.9716   37.9834   98.1193 H   0  0  0  0  0  0
    6.7576   37.9628   96.1063 H   0  0  0  0  0  0
    5.5867   36.7414   96.7095 H   0  0  0  0  0  0
    4.5101   39.0245   96.5681 H   0  0  0  0  0  0
    7.3016   39.2554   99.7352 H   0  0  0  0  0  0
    5.9601   37.9971  102.0140 H   0  0  0  0  0  0
    7.4823   40.1483  101.8428 H   0  0  0  0  0  0
    5.9377   41.0059  101.5182 H   0  0  0  0  0  0
    4.8085   38.5548  103.5758 H   0  0  0  0  0  0
    7.4288   41.8921  103.6999 H   0  0  0  0  0  0
    4.3591   38.7595  105.9746 H   0  0  0  0  0  0
    7.0331   42.0917  106.1264 H   0  0  0  0  0  0
    5.5215   40.4834  107.2827 H   0  0  0  0  0  0
    5.0369   40.2891   99.4263 H   0  0  0  0  0  0
    2.3941   40.8584  100.3093 H   0  0  0  0  0  0
    3.4245   42.0538   98.3893 H   0  0  0  0  0  0
    3.4433   40.5425   97.4187 H   0  0  0  0  0  0
    1.0063   40.5274   97.3395 H   0  0  0  0  0  0
    0.9401   41.9820   98.3913 H   0  0  0  0  0  0
    2.0861   43.3203   96.6917 H   0  0  0  0  0  0
    2.3264   41.8688   95.6611 H   0  0  0  0  0  0
   -0.1476   41.6380   95.4396 H   0  0  0  0  0  0
   -0.3619   43.1218   96.4291 H   0  0  0  0  0  0
   -0.5096   43.6115   94.0324 H   0  0  0  0  0  0
    1.1320   42.9247   93.7871 H   0  0  0  0  0  0
    0.9178   44.4085   94.7766 H   0  0  0  0  0  0
    3.2695   38.5110   97.7216 H   0  0  0  0  0  0
    0.6006   37.4433   97.6049 H   0  0  0  0  0  0
    3.3302   36.1322   97.0510 H   0  0  0  0  0  0
    1.7693   35.3415   96.6446 H   0  0  0  0  0  0
    2.9439   37.8737   95.4728 H   0  0  0  0  0  0
    3.7673   35.6900   94.6759 H   0  0  0  0  0  0
    2.7618   36.5077   93.4321 H   0  0  0  0  0  0
    2.0750   35.1565   94.3961 H   0  0  0  0  0  0
    0.5247   38.1944   95.8761 H   0  0  0  0  0  0
    0.1806   36.6155   95.0915 H   0  0  0  0  0  0
    0.8674   37.9667   94.1275 H   0  0  0  0  0  0
    3.3609   36.7466   99.8192 H   0  0  0  0  0  0
    2.0901   34.3325  100.8951 H   0  0  0  0  0  0
    4.1083   36.3496  102.0557 H   0  0  0  0  0  0
    3.6152   34.8695  102.9461 H   0  0  0  0  0  0
    5.7578   34.4838  101.6798 H   0  0  0  0  0  0
    1.8124   37.8623  101.5023 H   0  0  0  0  0  0
    0.3775   37.6441  104.0630 H   0  0  0  0  0  0
    0.2872   39.0114  102.9016 H   0  0  0  0  0  0
   -0.7719   38.1617  100.6471 H   0  0  0  0  0  0
   -3.5701   37.8643  101.3174 H   0  0  0  0  0  0
   -1.9960   37.2684   98.7831 H   0  0  0  0  0  0
   -3.7767   37.0438   98.8568 H   0  0  0  0  0  0
   -1.0492   39.3863   98.5984 H   0  0  0  0  0  0
   -5.2312   38.9895   99.3657 H   0  0  0  0  0  0
   -1.3523   41.7837   98.1437 H   0  0  0  0  0  0
   -5.5560   41.3839   98.9032 H   0  0  0  0  0  0
   -3.6118   42.7899   98.2902 H   0  0  0  0  0  0
   -1.0222   35.4351  100.7799 H   0  0  0  0  0  0
   -2.9255   33.2132  100.4999 H   0  0  0  0  0  0
   -0.0030   33.2236  101.5287 H   0  0  0  0  0  0
   -0.9068   31.7495  101.0421 H   0  0  0  0  0  0
    0.5555   32.5620   99.1797 H   0  0  0  0  0  0
   -1.9753   35.2320  103.0868 H   0  0  0  0  0  0
   -2.9979   33.0807  104.9712 H   0  0  0  0  0  0
   -1.2482   35.5022  105.7436 H   0  0  0  0  0  0
   -1.5935   34.0548  106.7498 H   0  0  0  0  0  0
    1.1020   34.9042  106.5006 H   0  0  0  0  0  0
   -1.1868   32.4724  103.8220 H   0  0  0  0  0  0
    3.1829   33.8548  105.6905 H   0  0  0  0  0  0
    0.8949   31.4168  103.0040 H   0  0  0  0  0  0
    3.0848   32.1158  103.9381 H   0  0  0  0  0  0
   -4.2323   33.6830  106.8605 H   0  0  0  0  0  0
   -5.5959   36.3535  106.3225 H   0  0  0  0  0  0
   -7.1410   34.4843  105.6837 H   0  0  0  0  0  0
   -6.9526   33.7607  107.3170 H   0  0  0  0  0  0
   -8.1569   35.5915  108.3505 H   0  0  0  0  0  0
   -8.1535   36.5355  106.8223 H   0  0  0  0  0  0
  -10.2713   35.7125  106.6819 H   0  0  0  0  0  0
   -9.4267   34.3005  105.9612 H   0  0  0  0  0  0
  -10.8650   33.3359  107.5371 H   0  0  0  0  0  0
   -9.2972   33.4152  108.4103 H   0  0  0  0  0  0
  -11.1523   33.9946  109.8409 H   0  0  0  0  0  0
  -11.6275   35.3204  108.7260 H   0  0  0  0  0  0
  -10.0597   35.3997  109.5991 H   0  0  0  0  0  0
   -4.5826   35.1798  110.2282 H   0  0  0  0  0  0
  1  2  1  0  0  0
  1144  1  0  0  0
  1145  1  0  0  0
  1146  1  0  0  0
  2  5  1  0  0  0
  2  3  1  0  0  0
  2147  1  0  0  0
  3  4  2  0  0  0
  3  6  1  0  0  0
  5148  1  0  0  0
  5149  1  0  0  0
  5150  1  0  0  0
  6  7  1  0  0  0
  6151  1  0  0  0
  7 10  1  0  0  0
  7  8  1  0  0  0
  7152  1  0  0  0
  8  9  2  0  0  0
  8 11  1  0  0  0
 10153  1  0  0  0
 10154  1  0  0  0
 10155  1  0  0  0
 11 12  1  0  0  0
 11156  1  0  0  0
 12 15  1  0  0  0
 12 13  1  0  0  0
 12157  1  0  0  0
 13 14  2  0  0  0
 13 16  1  0  0  0
 15158  1  0  0  0
 15159  1  0  0  0
 15160  1  0  0  0
 16 17  1  0  0  0
 16161  1  0  0  0
 17 20  1  0  0  0
 17 18  1  0  0  0
 17162  1  0  0  0
 18 19  2  0  0  0
 18 27  1  0  0  0
 20 21  1  0  0  0
 20163  1  0  0  0
 20164  1  0  0  0
 21 22  2  0  0  0
 21 23  1  0  0  0
 22 24  1  0  0  0
 22165  1  0  0  0
 23 25  2  0  0  0
 23166  1  0  0  0
 24 26  2  0  0  0
 24167  1  0  0  0
 25 26  1  0  0  0
 25168  1  0  0  0
 26169  1  0  0  0
 27 28  1  0  0  0
 27170  1  0  0  0
 28 31  1  0  0  0
 28 29  1  0  0  0
 28171  1  0  0  0
 29 30  2  0  0  0
 29 33  1  0  0  0
 31 32  1  0  0  0
 31172  1  0  0  0
 31173  1  0  0  0
 32174  1  0  0  0
 33 34  1  0  0  0
 33175  1  0  0  0
 34 37  1  0  0  0
 34 35  1  0  0  0
 34176  1  0  0  0
 35 36  2  0  0  0
 35 44  1  0  0  0
 37 38  1  0  0  0
 37177  1  0  0  0
 37178  1  0  0  0
 38 39  2  0  0  0
 38 40  1  0  0  0
 39 41  1  0  0  0
 39179  1  0  0  0
 40 42  2  0  0  0
 40180  1  0  0  0
 41 43  2  0  0  0
 41181  1  0  0  0
 42 43  1  0  0  0
 42182  1  0  0  0
 43183  1  0  0  0
 44 45  1  0  0  0
 44184  1  0  0  0
 45 48  1  0  0  0
 45 46  1  0  0  0
 45185  1  0  0  0
 46 47  2  0  0  0
 46 53  1  0  0  0
 48 49  1  0  0  0
 48186  1  0  0  0
 48187  1  0  0  0
 49 50  1  0  0  0
 49188  1  0  0  0
 49189  1  0  0  0
 50 51  1  0  0  0
 50190  1  0  0  0
 50191  1  0  0  0
 51 52  1  0  0  0
 51192  1  0  0  0
 51193  1  0  0  0
 52194  1  0  0  0
 52195  1  0  0  0
 52196  1  0  0  0
 53 54  1  0  0  0
 53197  1  0  0  0
 54 57  1  0  0  0
 54 55  1  0  0  0
 54198  1  0  0  0
 55 56  2  0  0  0
 55 62  1  0  0  0
 57 58  1  0  0  0
 57199  1  0  0  0
 57200  1  0  0  0
 58 59  1  0  0  0
 58201  1  0  0  0
 58202  1  0  0  0
 59 60  1  0  0  0
 59203  1  0  0  0
 59204  1  0  0  0
 60 61  1  0  0  0
 60205  1  0  0  0
 60206  1  0  0  0
 61207  1  0  0  0
 61208  1  0  0  0
 61209  1  0  0  0
 62 63  1  0  0  0
 62210  1  0  0  0
 63 66  1  0  0  0
 63 64  1  0  0  0
 63211  1  0  0  0
 64 65  2  0  0  0
 64 68  1  0  0  0
 66 67  1  0  0  0
 66212  1  0  0  0
 66213  1  0  0  0
 67214  1  0  0  0
 68 69  1  0  0  0
 68215  1  0  0  0
 69 72  1  0  0  0
 69 70  1  0  0  0
 69216  1  0  0  0
 70 71  2  0  0  0
 70 79  1  0  0  0
 72 73  1  0  0  0
 72217  1  0  0  0
 72218  1  0  0  0
 73 74  2  0  0  0
 73 75  1  0  0  0
 74 76  1  0  0  0
 74219  1  0  0  0
 75 77  2  0  0  0
 75220  1  0  0  0
 76 78  2  0  0  0
 76221  1  0  0  0
 77 78  1  0  0  0
 77222  1  0  0  0
 78223  1  0  0  0
 79 80  1  0  0  0
 79224  1  0  0  0
 80 83  1  0  0  0
 80 81  1  0  0  0
 80225  1  0  0  0
 81 82  2  0  0  0
 81 88  1  0  0  0
 83 84  1  0  0  0
 83226  1  0  0  0
 83227  1  0  0  0
 84 85  1  0  0  0
 84228  1  0  0  0
 84229  1  0  0  0
 85 86  1  0  0  0
 85230  1  0  0  0
 85231  1  0  0  0
 86 87  1  0  0  0
 86232  1  0  0  0
 86233  1  0  0  0
 87234  1  0  0  0
 87235  1  0  0  0
 87236  1  0  0  0
 88 89  1  0  0  0
 88237  1  0  0  0
 89 92  1  0  0  0
 89 90  1  0  0  0
 89238  1  0  0  0
 90 91  2  0  0  0
 90 96  1  0  0  0
 92 93  1  0  0  0
 92239  1  0  0  0
 92240  1  0  0  0
 93 94  1  0  0  0
 93 95  1  0  0  0
 93241  1  0  0  0
 94242  1  0  0  0
 94243  1  0  0  0
 94244  1  0  0  0
 95245  1  0  0  0
 95246  1  0  0  0
 95247  1  0  0  0
 96 97  1  0  0  0
 96248  1  0  0  0
 97100  1  0  0  0
 97 98  1  0  0  0
 97249  1  0  0  0
 98 99  2  0  0  0
 98102  1  0  0  0
100101  1  0  0  0
100250  1  0  0  0
100251  1  0  0  0
101252  1  0  0  0
102103  1  0  0  0
102253  1  0  0  0
103104  1  0  0  0
103254  1  0  0  0
103255  1  0  0  0
104105  2  0  0  0
104106  1  0  0  0
106107  1  0  0  0
106256  1  0  0  0
107110  1  0  0  0
107108  1  0  0  0
107257  1  0  0  0
108109  2  0  0  0
108117  1  0  0  0
110111  1  0  0  0
110258  1  0  0  0
110259  1  0  0  0
111112  2  0  0  0
111113  1  0  0  0
112114  1  0  0  0
112260  1  0  0  0
113115  2  0  0  0
113261  1  0  0  0
114116  2  0  0  0
114262  1  0  0  0
115116  1  0  0  0
115263  1  0  0  0
116264  1  0  0  0
117118  1  0  0  0
117265  1  0  0  0
118121  1  0  0  0
118119  1  0  0  0
118266  1  0  0  0
119120  2  0  0  0
119123  1  0  0  0
121122  1  0  0  0
121267  1  0  0  0
121268  1  0  0  0
122269  1  0  0  0
123124  1  0  0  0
123270  1  0  0  0
124127  1  0  0  0
124125  1  0  0  0
124271  1  0  0  0
125126  2  0  0  0
125134  1  0  0  0
127128  1  0  0  0
127272  1  0  0  0
127273  1  0  0  0
128129  2  0  0  0
128130  1  0  0  0
129131  1  0  0  0
129274  1  0  0  0
130132  2  0  0  0
130275  1  0  0  0
131133  2  0  0  0
131276  1  0  0  0
132133  1  0  0  0
132277  1  0  0  0
133278  1  0  0  0
134135  1  0  0  0
134279  1  0  0  0
135138  1  0  0  0
135136  1  0  0  0
135280  1  0  0  0
136137  2  0  0  0
136143  1  0  0  0
138139  1  0  0  0
138281  1  0  0  0
138282  1  0  0  0
139140  1  0  0  0
139283  1  0  0  0
139284  1  0  0  0
140141  1  0  0  0
140285  1  0  0  0
140286  1  0  0  0
141142  1  0  0  0
141287  1  0  0  0
141288  1  0  0  0
142289  1  0  0  0
142290  1  0  0  0
142291  1  0  0  0
143292  1  0  0  0
M  CHG  5   1   1  52   1  61   1  87   1 142   1
M  END
> <s_m_source_file>
../1iwq_ligand.sdf

> <i_m_source_file_index>
1

> <s_epik_input>
W05IMytdW0NAQEhdKFtDSDNdKUMoPU8pW05IXVtDQEBIXShbQ0gzXSlDKD1PKVtOSF1bQ0BASF0oW0NIM10pQyg9TylbTkhdW0NAQEhdKFtDSDJdYzFbY0hdW2NIXVtjSF1bY0hdW2NIXTEpQyg9TylbTkhdW0NAQEhdKFtDSDJdW09IXSlDKD1PKVtOSF1bQ0BASF0oW0NIMl1jMltjSF1bY0hdW2NIXVtjSF1bY0hdMilDKD1PKVtOSF1bQ0BASF0oW0NIMl1bQ0gyXVtDSDJdW0NIMl1bTkgzK10pQyg9TylbTkhdW0NAQEhdKFtDSDJdW0NIMl1bQ0gyXVtDSDJdW05IMytdKUMoPU8pW05IXVtDQEBIXShbQ0gyXVtPSF0pQyg9TylbTkhdW0NAQEhdKFtDSDJdYzNbY0hdW2NIXVtjSF1bY0hdW2NIXTMpQyg9TylbTkhdW0NAQEhdKFtDSDJdW0NIMl1bQ0gyXVtDSDJdW05IMytdKUMoPU8pW05IXVtDQEBIXShbQ0gyXVtDSF0oW0NIM10pW0NIM10pQyg9TylbTkhdW0NAQEhdKFtDSDJdW09IXSlDKD1PKVtOSF1bQ0gyXUMoPU8pW05IXVtDQEBIXShbQ0gyXWM0W2NIXVtjSF1bY0hdW2NIXVtjSF00KUMoPU8pW05IXVtDQEBIXShbQ0gyXVtPSF0pQyg9TylbTkhdW0NAQEhdKFtDSDJdYzVbY0hdW2NIXVtjSF1bY0hdW2NIXTUpQyg9TylbTkhdW0NASF0oQyg9TylbT0hdKVtDSDJdW0NIMl1bQ0gyXVtDSDJdW05IMytd

> <s_epik_cmdline>
J2VwaWtfYXBwJywgJy1pbWFlJywgJ2xpZ2FuZF9wcm8ubWFlJywgJy1vbWFlJywgJ2xpZ2FuZF9wcmVwLm1hZScsICctbXMnLCAnMScsICctcGgnLCAnNycsICctcGh0JywgJzAuNScsICctbnQn

> <s_epik_pKa_notes>
Molecule size exceeds maximum supported for generating protonation states

$$$$
