1iyl_ligand
                    3D
 Schrodinger Suite 2020-3.
 56 59  0  0  1  0            999 V2000
   11.9680   49.1550   -4.2410 O   0  0  0  0  0  0
   11.9360   49.3810   -2.8880 C   0  0  0  0  0  0
   13.1030   48.9670   -2.3160 C   0  0  0  0  0  0
   13.9030   48.4310   -3.3340 C   0  0  0  0  0  0
   15.1690   47.7800   -3.3100 C   0  0  0  0  0  0
   15.7330   47.4580   -4.5190 C   0  0  0  0  0  0
   15.0450   47.7350   -5.7300 C   0  0  0  0  0  0
   13.8020   48.3290   -5.7300 C   0  0  0  0  0  0
   13.2180   48.6330   -4.5000 C   0  0  0  0  0  0
   10.7570   49.9550   -2.3000 C   0  0  0  0  0  0
   10.7820   50.5510   -1.2290 O   0  0  0  0  0  0
    9.5260   49.7970   -2.9980 C   0  0  0  0  0  0
    8.4180   50.5750   -2.6990 N   0  0  0  0  0  0
    8.2650   51.6990   -1.7450 C   0  0  0  0  0  0
    7.4150   50.1000   -3.5310 C   0  0  0  0  0  0
    7.9600   49.0950   -4.2670 C   0  0  0  0  0  0
    9.2410   48.9210   -3.9370 N   0  3  0  0  0  0
   13.5570   48.9990   -0.8870 C   0  0  0  0  0  0
   15.8050   47.4870   -2.1090 O   0  0  0  0  0  0
   16.9160   46.5880   -2.0200 C   0  0  0  0  0  0
   17.3790   46.4990   -0.5920 C   0  0  0  0  0  0
   16.2830   45.8600    0.1620 C   0  0  0  0  0  0
   16.4880   45.8840    1.6280 N   0  3  0  0  0  0
   15.3370   45.1580    2.1910 C   0  0  0  0  0  0
   15.5510   44.9730    3.6040 C   0  0  0  0  0  0
   15.8740   43.7550    4.1340 C   0  0  0  0  0  0
   16.0650   43.6680    5.5000 C   0  0  0  0  0  0
   15.9170   44.8100    6.2750 C   0  0  0  0  0  0
   15.6040   45.9740    5.7320 N   0  0  0  0  0  0
   15.4220   46.0570    4.4150 C   0  0  0  0  0  0
   16.7153   46.9866   -4.5499 H   0  0  0  0  0  0
   15.5104   47.4720   -6.6799 H   0  0  0  0  0  0
   13.2891   48.5551   -6.6648 H   0  0  0  0  0  0
    9.2153   51.8625   -1.2156 H   0  0  0  0  0  0
    7.4766   51.4573   -1.0170 H   0  0  0  0  0  0
    7.9896   52.6113   -2.2944 H   0  0  0  0  0  0
    6.3884   50.4623   -3.5845 H   0  0  0  0  0  0
    7.4264   48.5142   -5.0194 H   0  0  0  0  0  0
   12.7761   49.4600   -0.2644 H   0  0  0  0  0  0
   14.4829   49.5878   -0.8096 H   0  0  0  0  0  0
   13.7450   47.9726   -0.5390 H   0  0  0  0  0  0
   16.6093   45.5905   -2.3679 H   0  0  0  0  0  0
   17.7389   46.9586   -2.6489 H   0  0  0  0  0  0
   18.2968   45.8949   -0.5411 H   0  0  0  0  0  0
   17.5837   47.5097   -0.2092 H   0  0  0  0  0  0
   15.3389   46.3838   -0.0488 H   0  0  0  0  0  0
   16.1938   44.8067   -0.1425 H   0  0  0  0  0  0
   17.4384   45.3875    1.8735 H   0  0  0  0  0  0
   16.5182   46.9267    1.9770 H   0  0  0  0  0  0
   14.4192   45.7415    2.0262 H   0  0  0  0  0  0
   15.2432   44.1797    1.6969 H   0  0  0  0  0  0
   15.9780   42.8767    3.4969 H   0  0  0  0  0  0
   16.3280   42.7165    5.9620 H   0  0  0  0  0  0
   16.0618   44.7457    7.3534 H   0  0  0  0  0  0
   15.1626   47.0201    3.9754 H   0  0  0  0  0  0
   10.0155   48.2267   -4.2949 H   0  0  0  0  0  0
  1  2  1  0  0  0
  1  9  1  0  0  0
  2  3  2  0  0  0
  2 10  1  0  0  0
  3  4  1  0  0  0
  3 18  1  0  0  0
  4  5  2  0  0  0
  4  9  1  0  0  0
  5  6  1  0  0  0
  5 19  1  0  0  0
  6  7  2  0  0  0
  6 31  1  0  0  0
  7  8  1  0  0  0
  7 32  1  0  0  0
  8  9  2  0  0  0
  8 33  1  0  0  0
 10 11  2  0  0  0
 10 12  1  0  0  0
 12 13  1  0  0  0
 12 17  2  0  0  0
 13 14  1  0  0  0
 13 15  1  0  0  0
 14 34  1  0  0  0
 14 35  1  0  0  0
 14 36  1  0  0  0
 15 16  2  0  0  0
 15 37  1  0  0  0
 16 17  1  0  0  0
 16 38  1  0  0  0
 17 56  1  0  0  0
 18 39  1  0  0  0
 18 40  1  0  0  0
 18 41  1  0  0  0
 19 20  1  0  0  0
 20 21  1  0  0  0
 20 42  1  0  0  0
 20 43  1  0  0  0
 21 22  1  0  0  0
 21 44  1  0  0  0
 21 45  1  0  0  0
 22 23  1  0  0  0
 22 46  1  0  0  0
 22 47  1  0  0  0
 23 24  1  0  0  0
 23 48  1  0  0  0
 23 49  1  0  0  0
 24 25  1  0  0  0
 24 50  1  0  0  0
 24 51  1  0  0  0
 25 26  2  0  0  0
 25 30  1  0  0  0
 26 27  1  0  0  0
 26 52  1  0  0  0
 27 28  2  0  0  0
 27 53  1  0  0  0
 28 29  1  0  0  0
 28 54  1  0  0  0
 29 30  2  0  0  0
 30 55  1  0  0  0
M  CHG  2  17   1  23   1
M  END
> <s_m_source_file>
../1iyl_ligand.sdf

> <i_m_source_file_index>
1

> <s_epik_input>
bjFbY0hdW2NIXW4oW0NIM10pYzFDKD1PKWMoYzJbQ0gzXSlvYyhjMjMpW2NIXVtjSF1bY0hdYzNPW0NIMl1bQ0gyXVtDSDJdW05IMitdW0NIMl1jNFtjSF1bY0hdW2NIXW5bY0hdNA==

> <s_epik_cmdline>
J2VwaWtfYXBwJywgJy1pbWFlJywgJ2xpZ2FuZF9wcm8ubWFlJywgJy1vbWFlJywgJ2xpZ2FuZF9wcmVwLm1hZScsICctbXMnLCAnMScsICctcGgnLCAnNycsICctcGh0JywgJzAuNScsICctbnQn

> <r_lp_tautomer_probability>
1

> <r_epik_Ionization_Penalty>
  0.0972

> <r_epik_Ionization_Penalty_Charging>
  0.0504

> <r_epik_Ionization_Penalty_Neutral>
  0.0469

> <r_epik_State_Penalty>
 -0.0000

> <r_epik_Charging_Adjusted_Penalty>
0.0503589425297092

> <i_epik_Tot_Q>
2

> <i_epik_Tot_abs_Q>
2

$$$$
