1izi_ligand
                    3D
 Schrodinger Suite 2020-3.
 99101  0  0  1  0            999 V2000
   -3.9530   14.6600   -7.6440 O   0  0  0  0  0  0
   -4.2930   15.8400   -7.7910 C   0  0  0  0  0  0
   -4.5600   16.3310   -9.0110 N   0  0  0  0  0  0
   -4.4850   16.8570   -6.6450 C   0  0  2  0  0  0
   -3.1780   17.3160   -5.9450 C   0  0  0  0  0  0
   -2.2930   16.2270   -5.3300 C   0  0  0  0  0  0
   -2.6210   15.5970   -4.1330 C   0  0  0  0  0  0
   -1.7590   14.6470   -3.5640 C   0  0  0  0  0  0
   -0.5510   14.3010   -4.1450 C   0  0  0  0  0  0
   -0.2120   14.9300   -5.3270 C   0  0  0  0  0  0
   -1.0550   15.8850   -5.9040 C   0  0  0  0  0  0
   -5.4320   16.3400   -5.6420 N   0  0  0  0  0  0
   -6.4340   17.0550   -5.0880 C   0  0  0  0  0  0
   -6.5610   18.2700   -5.3930 O   0  0  0  0  0  0
   -7.3090   16.1970   -4.0950 C   0  0  2  0  0  0
   -8.6100   15.6400   -4.6070 C   0  0  0  0  0  0
   -8.3160   14.7610   -5.7950 C   0  0  0  0  0  0
   -8.3420   15.6690   -6.9720 C   0  0  0  0  0  0
   -9.0380   16.6530   -6.9410 O   0  0  0  0  0  0
   -7.5680   15.3710   -8.0180 N   0  0  0  0  0  0
   -7.6550   16.9040   -2.8890 N   0  0  0  0  0  0
   -7.5570   16.3320   -1.7260 C   0  0  0  0  0  0
   -7.2820   15.1350   -1.6000 O   0  0  0  0  0  0
   -7.8610   17.2930   -0.6240 C   0  0  2  0  0  0
   -6.6180   17.7820    0.1270 C   0  0  0  0  0  0
   -5.3110   17.8050   -0.6420 C   0  0  0  0  0  0
   -4.3130   16.8700   -0.3330 C   0  0  0  0  0  0
   -3.1010   16.9150   -1.0320 C   0  0  0  0  0  0
   -2.8240   17.8960   -2.0090 C   0  0  0  0  0  0
   -3.8050   18.8320   -2.3110 C   0  0  0  0  0  0
   -5.0340   18.7910   -1.6150 C   0  0  0  0  0  0
   -8.7030   16.5880    0.3920 C   0  0  0  0  0  0
  -10.1200   16.5030   -0.0710 C   0  0  2  0  0  0
  -10.5440   17.8640    0.2220 O   0  0  0  0  0  0
  -10.7220   15.2360    0.5860 C   0  0  1  0  0  0
  -10.7880   15.4390    2.0550 N   0  0  0  0  0  0
   -9.9930   14.7200    2.8970 C   0  0  0  0  0  0
   -9.2790   13.8920    2.3210 O   0  0  0  0  0  0
  -10.0040   14.8980    4.3980 O   0  0  0  0  0  0
   -9.0380   14.9940    5.5250 C   0  0  0  0  0  0
   -7.8290   15.8470    5.2340 C   0  0  0  0  0  0
   -8.5770   13.6610    6.0520 C   0  0  0  0  0  0
   -9.6780   15.5550    6.7800 C   0  0  0  0  0  0
  -12.0860   14.7920    0.0020 C   0  0  0  0  0  0
  -12.6780   13.5780    0.7010 C   0  0  0  0  0  0
  -13.7160   13.7350    1.6590 C   0  0  0  0  0  0
  -14.2830   12.6480    2.3460 C   0  0  0  0  0  0
  -13.8400   11.3510    2.0920 C   0  0  0  0  0  0
  -12.8230   11.1770    1.1240 C   0  0  0  0  0  0
  -12.2460   12.2630    0.4180 C   0  0  0  0  0  0
   -4.4547   15.6885   -9.8976 H   0  0  0  0  0  0
   -4.8842   17.3760   -9.1244 H   0  0  0  0  0  0
   -4.9413   17.7457   -7.1055 H   0  0  0  0  0  0
   -2.5379   17.8394   -6.6704 H   0  0  0  0  0  0
   -3.4251   17.9960   -5.1164 H   0  0  0  0  0  0
   -3.5572   15.8441   -3.6323 H   0  0  0  0  0  0
   -2.0510   14.1643   -2.6313 H   0  0  0  0  0  0
    0.1065   13.5615   -3.6878 H   0  0  0  0  0  0
    0.7279   14.6779   -5.8181 H   0  0  0  0  0  0
   -0.7440   16.3785   -6.8248 H   0  0  0  0  0  0
   -5.3501   15.3001   -5.2928 H   0  0  0  0  0  0
   -6.6580   15.3470   -3.8429 H   0  0  0  0  0  0
   -9.0942   15.0514   -3.8139 H   0  0  0  0  0  0
   -9.2710   16.4672   -4.9052 H   0  0  0  0  0  0
   -7.3288   14.2925   -5.6691 H   0  0  0  0  0  0
   -9.0858   13.9790   -5.8720 H   0  0  0  0  0  0
   -6.9488   14.4619   -8.0028 H   0  0  0  0  0  0
   -7.5494   16.0345   -8.8952 H   0  0  0  0  0  0
   -8.0085   17.9442   -2.9435 H   0  0  0  0  0  0
   -8.3696   18.1422   -1.1038 H   0  0  0  0  0  0
   -6.7781   18.8158    0.4670 H   0  0  0  0  0  0
   -6.4366   17.1338    0.9971 H   0  0  0  0  0  0
   -4.4784   16.1194    0.4399 H   0  0  0  0  0  0
   -2.3419   16.1638   -0.8137 H   0  0  0  0  0  0
   -1.8595   17.9184   -2.5162 H   0  0  0  0  0  0
   -3.6289   19.5888   -3.0755 H   0  0  0  0  0  0
   -5.7915   19.5431   -1.8356 H   0  0  0  0  0  0
   -8.3159   15.5700    0.5463 H   0  0  0  0  0  0
   -8.6703   17.1407    1.3425 H   0  0  0  0  0  0
  -10.4112   16.3697   -1.1233 H   0  0  0  0  0  0
  -10.0643   18.7116   -0.2893 H   0  0  0  0  0  0
  -10.0413   14.3925    0.3986 H   0  0  0  0  0  0
  -11.4852   16.1776    2.4774 H   0  0  0  0  0  0
   -8.1542   16.8244    4.8480 H   0  0  0  0  0  0
   -7.1997   15.3470    4.4830 H   0  0  0  0  0  0
   -7.2512   15.9918    6.1588 H   0  0  0  0  0  0
   -9.4516   13.0298    6.2680 H   0  0  0  0  0  0
   -7.9971   13.8121    6.9744 H   0  0  0  0  0  0
   -7.9456   13.1674    5.2986 H   0  0  0  0  0  0
  -10.5692   14.9621    7.0335 H   0  0  0  0  0  0
   -9.9707   16.6010    6.6062 H   0  0  0  0  0  0
   -8.9583   15.5088    7.6106 H   0  0  0  0  0  0
  -12.8109   15.6137    0.0981 H   0  0  0  0  0  0
  -11.9635   14.5335   -1.0602 H   0  0  0  0  0  0
  -14.0870   14.7381    1.8692 H   0  0  0  0  0  0
  -15.0711   12.8196    3.0792 H   0  0  0  0  0  0
  -14.2636   10.4981    2.6222 H   0  0  0  0  0  0
  -12.4689   10.1680    0.9125 H   0  0  0  0  0  0
  -11.4778   12.0852   -0.3346 H   0  0  0  0  0  0
  1  2  2  0  0  0
  2  4  1  0  0  0
  2  3  1  0  0  0
  3 51  1  0  0  0
  3 52  1  0  0  0
  4 12  1  0  0  0
  4  5  1  0  0  0
  4 53  1  0  0  0
  5  6  1  0  0  0
  5 54  1  0  0  0
  5 55  1  0  0  0
  6 11  2  0  0  0
  6  7  1  0  0  0
  7  8  2  0  0  0
  7 56  1  0  0  0
  8  9  1  0  0  0
  8 57  1  0  0  0
  9 10  2  0  0  0
  9 58  1  0  0  0
 10 11  1  0  0  0
 10 59  1  0  0  0
 11 60  1  0  0  0
 12 13  1  0  0  0
 12 61  1  0  0  0
 13 15  1  0  0  0
 13 14  2  0  0  0
 15 21  1  0  0  0
 15 16  1  0  0  0
 15 62  1  0  0  0
 16 17  1  0  0  0
 16 63  1  0  0  0
 16 64  1  0  0  0
 17 18  1  0  0  0
 17 65  1  0  0  0
 17 66  1  0  0  0
 18 20  1  0  0  0
 18 19  2  0  0  0
 20 67  1  0  0  0
 20 68  1  0  0  0
 21 22  1  0  0  0
 21 69  1  0  0  0
 22 24  1  0  0  0
 22 23  2  0  0  0
 24 32  1  0  0  0
 24 25  1  0  0  0
 24 70  1  0  0  0
 25 26  1  0  0  0
 25 71  1  0  0  0
 25 72  1  0  0  0
 26 31  2  0  0  0
 26 27  1  0  0  0
 27 28  2  0  0  0
 27 73  1  0  0  0
 28 29  1  0  0  0
 28 74  1  0  0  0
 29 30  2  0  0  0
 29 75  1  0  0  0
 30 31  1  0  0  0
 30 76  1  0  0  0
 31 77  1  0  0  0
 32 33  1  0  0  0
 32 78  1  0  0  0
 32 79  1  0  0  0
 33 35  1  0  0  0
 33 34  1  0  0  0
 33 80  1  0  0  0
 34 81  1  0  0  0
 35 44  1  0  0  0
 35 36  1  0  0  0
 35 82  1  0  0  0
 36 37  1  0  0  0
 36 83  1  0  0  0
 37 39  1  0  0  0
 37 38  2  0  0  0
 39 40  1  0  0  0
 40 43  1  0  0  0
 40 42  1  0  0  0
 40 41  1  0  0  0
 41 84  1  0  0  0
 41 85  1  0  0  0
 41 86  1  0  0  0
 42 87  1  0  0  0
 42 88  1  0  0  0
 42 89  1  0  0  0
 43 90  1  0  0  0
 43 91  1  0  0  0
 43 92  1  0  0  0
 44 45  1  0  0  0
 44 93  1  0  0  0
 44 94  1  0  0  0
 45 50  2  0  0  0
 45 46  1  0  0  0
 46 47  2  0  0  0
 46 95  1  0  0  0
 47 48  1  0  0  0
 47 96  1  0  0  0
 48 49  2  0  0  0
 48 97  1  0  0  0
 49 50  1  0  0  0
 49 98  1  0  0  0
 50 99  1  0  0  0
M  END
> <s_m_source_file>
../1izi_ligand.sdf

> <i_m_source_file_index>
1

> <s_epik_input>
W2NIXTFbY0hdW2NIXVtjSF1bY0hdYzFbQ0gyXVtDQEBIXShDKD1PKVtOSDJdKVtOSF1DKD1PKVtDQEhdKFtDSDJdW0NIMl1DKD1PKVtOSDJdKVtOSF1DKD1PKVtDQEhdKFtDSDJdYzJbY0hdW2NIXVtjSF1bY0hdW2NIXTIpW0NIMl1bQ0BIXShbT0hdKVtDQEBIXShbTkhdQyg9TylPQyhbQ0gzXSkoW0NIM10pW0NIM10pW0NIMl1jM1tjSF1bY0hdW2NIXVtjSF1bY0hdMw==

> <s_epik_cmdline>
J2VwaWtfYXBwJywgJy1pbWFlJywgJ2xpZ2FuZF9wcm8ubWFlJywgJy1vbWFlJywgJ2xpZ2FuZF9wcmVwLm1hZScsICctbXMnLCAnMScsICctcGgnLCAnNycsICctcGh0JywgJzAuNScsICctbnQn

> <r_lp_tautomer_probability>
1

> <r_epik_Ionization_Penalty>
  0.0000

> <r_epik_Ionization_Penalty_Charging>
  0.0000

> <r_epik_Ionization_Penalty_Neutral>
  0.0000

> <r_epik_State_Penalty>
 -0.0000

> <r_epik_Charging_Adjusted_Penalty>
0

> <i_epik_Tot_Q>
0

> <i_epik_Tot_abs_Q>
0

> <s_epik_Chemistry_Notes>
This compound has an ester and may undergo hydrolysis at high or low pH.

$$$$
