1j01_ligand
                    3D
 Schrodinger Suite 2020-3.
 35 36  0  0  1  0            999 V2000
   16.9390   65.2780   38.6890 C   0  0  1  0  0  0
   16.7360   64.2640   39.8230 C   0  0  2  0  0  0
   17.6110   63.1630   39.6270 O   0  0  0  0  0  0
   15.2860   63.7640   39.8530 C   0  0  1  0  0  0
   15.0750   62.9680   41.0130 O   0  0  0  0  0  0
   14.3070   64.9340   39.8570 C   0  0  2  0  0  0
   12.9860   64.4390   39.7100 O   0  0  0  0  0  0
   14.6260   65.9000   38.7090 C   0  0  0  0  0  0
   15.9950   66.3540   38.8070 O   0  0  0  0  0  0
   20.3010   67.7760   35.6970 N   0  0  0  0  0  0
   20.3400   68.3380   37.0000 C   0  0  0  0  0  0
   19.6480   67.6930   38.0530 C   0  0  1  0  0  0
   21.1920   69.1770   37.2630 O   0  0  0  0  0  0
   19.2260   68.4610   39.1620 O   0  0  0  0  0  0
   18.5500   66.6550   37.6440 C   0  0  2  0  0  0
   18.2770   65.8240   38.7680 O   0  0  0  0  0  0
   19.0280   65.8500   36.4310 C   0  0  0  0  0  0
   19.2710   66.8340   35.3220 C   0  0  0  0  0  0
   16.7966   64.8248   37.6969 H   0  0  0  0  0  0
   17.0136   64.7020   40.7931 H   0  0  0  0  0  0
   18.6977   63.3261   39.5777 H   0  0  0  0  0  0
   15.0895   63.1033   38.9958 H   0  0  0  0  0  0
   15.6912   62.0733   41.1856 H   0  0  0  0  0  0
   14.3241   65.4552   40.8255 H   0  0  0  0  0  0
   12.5798   63.7287   40.4452 H   0  0  0  0  0  0
   14.4844   65.3857   37.7470 H   0  0  0  0  0  0
   13.9531   66.7685   38.7629 H   0  0  0  0  0  0
   21.0711   68.0681   34.9679 H   0  0  0  0  0  0
   20.5821   67.2700   38.4512 H   0  0  0  0  0  0
   19.8851   69.2387   39.5752 H   0  0  0  0  0  0
   17.5743   67.1028   37.4044 H   0  0  0  0  0  0
   19.9546   65.3156   36.6876 H   0  0  0  0  0  0
   18.2532   65.1237   36.1445 H   0  0  0  0  0  0
   18.3365   67.3759   35.1143 H   0  0  0  0  0  0
   19.5852   66.2864   34.4212 H   0  0  0  0  0  0
  1 16  1  0  0  0
  1  9  1  0  0  0
  1  2  1  0  0  0
  1 19  1  0  0  0
  2  4  1  0  0  0
  2  3  1  0  0  0
  2 20  1  0  0  0
  3 21  1  0  0  0
  4  6  1  0  0  0
  4  5  1  0  0  0
  4 22  1  0  0  0
  5 23  1  0  0  0
  6  8  1  0  0  0
  6  7  1  0  0  0
  6 24  1  0  0  0
  7 25  1  0  0  0
  8  9  1  0  0  0
  8 26  1  0  0  0
  8 27  1  0  0  0
 10 11  1  0  0  0
 10 18  1  0  0  0
 10 28  1  0  0  0
 11 12  1  0  0  0
 11 13  2  0  0  0
 12 15  1  0  0  0
 12 14  1  0  0  0
 12 29  1  0  0  0
 14 30  1  0  0  0
 15 16  1  0  0  0
 15 17  1  0  0  0
 15 31  1  0  0  0
 17 18  1  0  0  0
 17 32  1  0  0  0
 17 33  1  0  0  0
 18 34  1  0  0  0
 18 35  1  0  0  0
M  END
> <s_m_source_file>
../1j01_ligand.sdf

> <i_m_source_file_index>
1

> <s_epik_input>
TzFbQ0gyXVtDQEBIXShbT0hdKVtDQEhdKFtPSF0pW0NAQEhdKFtPSF0pW0NAQEhdMU9bQ0BASF0oW0NAQEhdMltPSF0pW0NIMl1bQ0gyXVtOSF1DMj1P

> <s_epik_cmdline>
J2VwaWtfYXBwJywgJy1pbWFlJywgJ2xpZ2FuZF9wcm8ubWFlJywgJy1vbWFlJywgJ2xpZ2FuZF9wcmVwLm1hZScsICctbXMnLCAnMScsICctcGgnLCAnNycsICctcGh0JywgJzAuNScsICctbnQn

> <r_lp_tautomer_probability>
1

> <r_epik_Ionization_Penalty>
  0.0000

> <r_epik_Ionization_Penalty_Charging>
  0.0000

> <r_epik_Ionization_Penalty_Neutral>
  0.0000

> <r_epik_State_Penalty>
 -0.0000

> <r_epik_Charging_Adjusted_Penalty>
0

> <i_epik_Tot_Q>
0

> <i_epik_Tot_abs_Q>
0

> <s_epik_Chemistry_Notes>
This compound contains an acetal/aminal-like group ( X-CH(R)-Y where X, Y are N, S, or O) that may be acid/base labile, releasing an aldehyde.

$$$$
