1j07_ligand
                    3D
 Schrodinger Suite 2020-3.
 80 83  0  0  1  0            999 V2000
   39.1110   24.0780    4.9510 C   0  0  0  0  0  0
   38.8710   24.0030    3.4080 C   0  0  0  0  0  0
   39.0990   22.6660    2.6670 C   0  0  0  0  0  0
   40.5850   22.2530    2.7240 C   0  0  0  0  0  0
   41.3310   22.5260    1.4350 C   0  0  0  0  0  0
   42.6340   21.9620    1.3120 C   0  0  0  0  0  0
   43.3210   22.1700   -0.0310 C   0  0  0  0  0  0
   44.8520   22.3810    0.0780 C   0  0  0  0  0  0
   45.5940   21.6890   -1.0650 C   0  0  0  0  0  0
   46.8360   22.4100   -1.6650 C   0  0  0  0  0  0
   48.1670   21.7190   -1.4410 N   0  3  0  0  0  0
   49.2410   22.5990   -1.9150 C   0  0  0  0  0  0
   48.2580   20.4360   -2.1980 C   0  0  0  0  0  0
   48.4280   21.4380   -0.0070 C   0  0  0  0  0  0
   41.1840   27.2100    9.4870 C   0  0  0  0  0  0
   40.5310   26.6970    8.3210 C   0  0  0  0  0  0
   41.3240   26.6900    7.0560 C   0  0  0  0  0  0
   42.6540   27.2670    7.1170 C   0  0  0  0  0  0
   43.2470   27.7800    8.3040 C   0  0  0  0  0  0
   42.5070   27.7480    9.5050 C   0  0  0  0  0  0
   40.8850   25.8360    5.9780 C   0  0  3  0  0  0
   39.6310   25.1270    6.0400 N   0  0  0  0  0  0
   38.7860   25.3030    7.1850 C   0  0  0  0  0  0
   39.2080   26.1640    8.3120 C   0  0  0  0  0  0
   37.5680   24.5520    7.4130 C   0  0  0  0  0  0
   36.7870   24.5880    8.5990 C   0  0  0  0  0  0
   37.2100   25.4110    9.6390 C   0  0  0  0  0  0
   38.3960   26.1710    9.4660 C   0  0  0  0  0  0
   41.7560   25.7440    4.7550 C   0  0  0  0  0  0
   42.7740   24.7330    4.6830 C   0  0  0  0  0  0
   43.6430   24.6720    3.5560 C   0  0  0  0  0  0
   43.5050   25.6050    2.5000 C   0  0  0  0  0  0
   42.4920   26.6070    2.5640 C   0  0  0  0  0  0
   41.6180   26.6730    3.6940 C   0  0  0  0  0  0
   44.5400   28.3370    8.3040 N   0  0  0  0  0  0
   35.6220   23.8150    8.7690 N   0  0  0  0  0  0
   38.1619   23.9023    5.4786 H   0  0  0  0  0  0
   39.8420   23.3109    5.2461 H   0  0  0  0  0  0
   37.8247   24.2605    3.1867 H   0  0  0  0  0  0
   39.5390   24.7128    2.8981 H   0  0  0  0  0  0
   38.4940   21.8776    3.1386 H   0  0  0  0  0  0
   38.8020   22.7753    1.6135 H   0  0  0  0  0  0
   41.0906   22.8125    3.5248 H   0  0  0  0  0  0
   40.6583   21.1745    2.9277 H   0  0  0  0  0  0
   40.7546   22.1286    0.5866 H   0  0  0  0  0  0
   41.4647   23.6108    1.3114 H   0  0  0  0  0  0
   43.2980   22.4045    2.0691 H   0  0  0  0  0  0
   42.5785   20.8740    1.4640 H   0  0  0  0  0  0
   43.1568   21.2879   -0.6674 H   0  0  0  0  0  0
   42.9022   23.0602   -0.5231 H   0  0  0  0  0  0
   45.0775   23.4569    0.0392 H   0  0  0  0  0  0
   45.2126   21.9649    1.0303 H   0  0  0  0  0  0
   45.9658   20.7120   -0.7224 H   0  0  0  0  0  0
   44.9081   21.5436   -1.9126 H   0  0  0  0  0  0
   46.7154   22.5026   -2.7544 H   0  0  0  0  0  0
   46.9291   23.4116   -1.2199 H   0  0  0  0  0  0
   49.0824   22.8311   -2.9785 H   0  0  0  0  0  0
   50.2104   22.0943   -1.7905 H   0  0  0  0  0  0
   49.2354   23.5314   -1.3314 H   0  0  0  0  0  0
   48.0670   20.6253   -3.2646 H   0  0  0  0  0  0
   47.5098   19.7284   -1.8115 H   0  0  0  0  0  0
   49.2643   20.0088   -2.0758 H   0  0  0  0  0  0
   48.3650   22.3740    0.5674 H   0  0  0  0  0  0
   49.4335   21.0061    0.1049 H   0  0  0  0  0  0
   47.6790   20.7257    0.3693 H   0  0  0  0  0  0
   40.6329   27.1886   10.4272 H   0  0  0  0  0  0
   43.2350   27.3101    6.1958 H   0  0  0  0  0  0
   42.9380   28.1277   10.4314 H   0  0  0  0  0  0
   37.2220   23.9051    6.6068 H   0  0  0  0  0  0
   36.6419   25.4705   10.5673 H   0  0  0  0  0  0
   38.7047   26.8122   10.2916 H   0  0  0  0  0  0
   42.8817   24.0110    5.4925 H   0  0  0  0  0  0
   44.4161   23.9052    3.5064 H   0  0  0  0  0  0
   44.1721   25.5576    1.6393 H   0  0  0  0  0  0
   42.3838   27.3238    1.7500 H   0  0  0  0  0  0
   40.8442   27.4394    3.7392 H   0  0  0  0  0  0
   45.1259   28.3672    7.3735 H   0  0  0  0  0  0
   44.9644   28.7420    9.2345 H   0  0  0  0  0  0
   35.2737   23.1593    7.9573 H   0  0  0  0  0  0
   35.0604   23.8669    9.7134 H   0  0  0  0  0  0
  1  2  1  0  0  0
  1 22  1  0  0  0
  1 37  1  0  0  0
  1 38  1  0  0  0
  2  3  1  0  0  0
  2 39  1  0  0  0
  2 40  1  0  0  0
  3  4  1  0  0  0
  3 41  1  0  0  0
  3 42  1  0  0  0
  4  5  1  0  0  0
  4 43  1  0  0  0
  4 44  1  0  0  0
  5  6  1  0  0  0
  5 45  1  0  0  0
  5 46  1  0  0  0
  6  7  1  0  0  0
  6 47  1  0  0  0
  6 48  1  0  0  0
  7  8  1  0  0  0
  7 49  1  0  0  0
  7 50  1  0  0  0
  8  9  1  0  0  0
  8 51  1  0  0  0
  8 52  1  0  0  0
  9 10  1  0  0  0
  9 53  1  0  0  0
  9 54  1  0  0  0
 10 11  1  0  0  0
 10 55  1  0  0  0
 10 56  1  0  0  0
 11 12  1  0  0  0
 11 13  1  0  0  0
 11 14  1  0  0  0
 12 57  1  0  0  0
 12 58  1  0  0  0
 12 59  1  0  0  0
 13 60  1  0  0  0
 13 61  1  0  0  0
 13 62  1  0  0  0
 14 63  1  0  0  0
 14 64  1  0  0  0
 14 65  1  0  0  0
 15 16  2  0  0  0
 15 20  1  0  0  0
 15 66  1  0  0  0
 16 17  1  0  0  0
 16 24  1  0  0  0
 17 18  2  0  0  0
 17 21  1  0  0  0
 18 19  1  0  0  0
 18 67  1  0  0  0
 19 20  2  0  0  0
 19 35  1  0  0  0
 20 68  1  0  0  0
 21 22  1  0  0  0
 21 29  1  0  0  0
 22 23  1  0  0  0
 23 24  2  0  0  0
 23 25  1  0  0  0
 24 28  1  0  0  0
 25 26  2  0  0  0
 25 69  1  0  0  0
 26 27  1  0  0  0
 26 36  1  0  0  0
 27 28  2  0  0  0
 27 70  1  0  0  0
 28 71  1  0  0  0
 29 30  2  0  0  0
 29 34  1  0  0  0
 30 31  1  0  0  0
 30 72  1  0  0  0
 31 32  2  0  0  0
 31 73  1  0  0  0
 32 33  1  0  0  0
 32 74  1  0  0  0
 33 34  2  0  0  0
 33 75  1  0  0  0
 34 76  1  0  0  0
 35 77  1  0  0  0
 35 78  1  0  0  0
 36 79  1  0  0  0
 36 80  1  0  0  0
M  CHG  1  11   1
M  END
> <s_m_source_file>
../1j07_ligand.sdf

> <i_m_source_file_index>
1

> <s_epik_input>
W2NIXTFbY0hdW2NIXVtjSF1bY0hdYzFbQ0hdKGMoYzIzKVtjSF1jKFtOSDJdKVtjSF1bY0hdMilOKGM0YzNbY0hdW2NIXWMoW2NIXTQpW05IMl0pW0NIMl1bQ0gyXVtDSDJdW0NIMl1bQ0gyXVtDSDJdW0NIMl1bQ0gyXVtDSDJdW0NIMl1bTitdKFtDSDNdKShbQ0gzXSlbQ0gzXQ==

> <s_epik_cmdline>
J2VwaWtfYXBwJywgJy1pbWFlJywgJ2xpZ2FuZF9wcm8ubWFlJywgJy1vbWFlJywgJ2xpZ2FuZF9wcmVwLm1hZScsICctbXMnLCAnMScsICctcGgnLCAnNycsICctcGh0JywgJzAuNScsICctbnQn

> <r_lp_tautomer_probability>
1

> <r_epik_Ionization_Penalty>
  0.0093

> <r_epik_Ionization_Penalty_Charging>
  0.0000

> <r_epik_Ionization_Penalty_Neutral>
  0.0093

> <r_epik_State_Penalty>
 -0.0000

> <r_epik_Charging_Adjusted_Penalty>
0

> <i_epik_Tot_Q>
1

> <i_epik_Tot_abs_Q>
1

$$$$
