1j15_ligand
                    3D
 Schrodinger Suite 2020-3.
 18 18  0  0  1  0            999 V2000
    7.6450   50.3300   55.6650 C   0  0  0  0  0  0
    7.6790   49.1640   54.8780 C   0  0  0  0  0  0
    7.8060   47.9060   55.4790 C   0  0  0  0  0  0
    7.8130   47.8000   56.8720 C   0  0  0  0  0  0
    7.8240   48.9590   57.6580 C   0  0  0  0  0  0
    7.7940   50.2210   57.0500 C   0  0  0  0  0  0
    7.4480   51.6850   55.0150 C   0  0  0  0  0  0
    6.9870   52.6880   55.7340 N   0  0  0  0  0  0
    7.7610   51.8320   53.7460 N   0  3  0  0  0  0
    7.6060   49.2408   53.7932 H   0  0  0  0  0  0
    7.8991   47.0122   54.8621 H   0  0  0  0  0  0
    7.8099   46.8183   57.3456 H   0  0  0  0  0  0
    7.8560   48.8792   58.7446 H   0  0  0  0  0  0
    7.8871   51.1201   57.6591 H   0  0  0  0  0  0
    6.7337   52.5346   56.7934 H   0  0  0  0  0  0
    6.8553   53.6789   55.2750 H   0  0  0  0  0  0
    8.1437   50.9758   53.1712 H   0  0  0  0  0  0
    7.6400   52.8111   53.2595 H   0  0  0  0  0  0
  1  2  2  0  0  0
  1  6  1  0  0  0
  1  7  1  0  0  0
  2  3  1  0  0  0
  2 10  1  0  0  0
  3  4  2  0  0  0
  3 11  1  0  0  0
  4  5  1  0  0  0
  4 12  1  0  0  0
  5  6  2  0  0  0
  5 13  1  0  0  0
  6 14  1  0  0  0
  7  8  1  0  0  0
  7  9  2  0  0  0
  8 15  1  0  0  0
  8 16  1  0  0  0
  9 17  1  0  0  0
  9 18  1  0  0  0
M  CHG  1   9   1
M  END
> <s_m_source_file>
../1j15_ligand.sdf

> <i_m_source_file_index>
1

> <s_epik_input>
W0hdXE49QyhbTkgyXSlcYzFbY0hdW2NIXVtjSF1bY0hdW2NIXTE=

> <s_epik_cmdline>
J2VwaWtfYXBwJywgJy1pbWFlJywgJ2xpZ2FuZF9wcm8ubWFlJywgJy1vbWFlJywgJ2xpZ2FuZF9wcmVwLm1hZScsICctbXMnLCAnMScsICctcGgnLCAnNycsICctcGh0JywgJzAuNScsICctbnQn

> <r_lp_tautomer_probability>
1

> <r_epik_Ionization_Penalty>
  0.0003

> <r_epik_Ionization_Penalty_Charging>
  0.0003

> <r_epik_Ionization_Penalty_Neutral>
  0.0000

> <r_epik_State_Penalty>
 -0.0000

> <r_epik_Charging_Adjusted_Penalty>
0.0003115973184836

> <i_epik_Tot_Q>
1

> <i_epik_Tot_abs_Q>
1

> <s_epik_Chemistry_Notes>
This compound has an imine and may undergo hydrolysis.

$$$$
