1j19_ligand
                    3D
 Schrodinger Suite 2020-3.
231233  0  0  1  0            999 V2000
   60.4810   41.2180   13.3560 N   0  3  0  0  0  0
   60.2300   39.7810   13.2270 C   0  0  2  0  0  0
   60.4270   39.0440   14.5650 C   0  0  0  0  0  0
   61.3500   38.2240   14.7080 O   0  0  0  0  0  0
   61.1340   39.1790   12.1360 C   0  0  0  0  0  0
   59.5430   39.3360   15.5290 N   0  0  0  0  0  0
   59.5770   38.7410   16.8760 C   0  0  2  0  0  0
   58.2290   38.1020   17.2410 C   0  0  0  0  0  0
   57.1920   38.7620   17.1860 O   0  0  0  0  0  0
   59.9130   39.8180   17.9260 C   0  0  0  0  0  0
   61.2060   40.6080   17.6780 C   0  0  0  0  0  0
   61.2390   41.9190   18.4770 C   0  0  0  0  0  0
   62.3680   42.7920   18.1320 N   0  0  0  0  0  0
   62.2580   44.0280   17.6370 C   0  0  0  0  0  0
   61.0660   44.5690   17.4130 N   0  0  0  0  0  0
   63.3510   44.7310   17.3650 N   0  0  0  0  0  0
   58.2480   36.8160   17.5960 N   0  0  0  0  0  0
   57.0370   36.0900   17.9960 C   0  0  2  0  0  0
   56.9600   36.0680   19.5270 C   0  0  0  0  0  0
   56.7180   35.0380   20.1500 O   0  0  0  0  0  0
   57.0400   34.6610   17.4310 C   0  0  0  0  0  0
   58.2630   33.8140   17.7880 C   0  0  0  0  0  0
   58.0360   32.3170   17.5110 C   0  0  0  0  0  0
   57.8730   31.9860   16.0920 N   0  0  0  0  0  0
   57.6910   30.7510   15.6150 C   0  0  0  0  0  0
   57.6440   29.7050   16.4360 N   0  0  0  0  0  0
   57.5500   30.5540   14.3060 N   0  0  0  0  0  0
   57.1630   37.2380   20.1190 N   0  0  0  0  0  0
   57.1500   37.4150   21.5660 C   0  0  2  0  0  0
   56.3220   38.6390   21.9630 C   0  0  0  0  0  0
   55.8510   39.3950   21.1080 O   0  0  0  0  0  0
   58.5840   37.6170   22.1060 C   0  0  2  0  0  0
   59.2560   38.5980   21.3080 O   0  0  0  0  0  0
   59.3770   36.3210   22.0620 C   0  0  0  0  0  0
   56.1580   38.8330   23.2670 N   0  0  0  0  0  0
   55.3930   39.9580   23.7590 C   0  0  0  0  0  0
   55.6150   40.0890   25.2390 C   0  0  0  0  0  0
   55.8190   39.0960   25.9140 O   0  0  0  0  0  0
   55.5620   41.3080   25.7550 N   0  0  0  0  0  0
   55.7750   41.5150   27.1740 C   0  0  2  0  0  0
   55.0140   42.7210   27.6990 C   0  0  0  0  0  0
   54.8140   43.7020   26.9850 O   0  0  0  0  0  0
   57.2760   41.6850   27.4770 C   0  0  2  0  0  0
   57.4830   41.7740   28.8910 O   0  0  0  0  0  0
   57.8200   42.9280   26.7990 C   0  0  0  0  0  0
   54.5750   42.6250   28.9500 N   0  0  0  0  0  0
   53.8460   43.7040   29.6040 C   0  0  2  0  0  0
   54.3280   43.8770   31.0300 C   0  0  0  0  0  0
   54.3340   42.9230   31.8150 O   0  0  0  0  0  0
   52.3450   43.4230   29.6220 C   0  0  0  0  0  0
   51.5550   44.4050   30.4650 C   0  0  0  0  0  0
   51.6270   45.7720   30.2170 C   0  0  0  0  0  0
   50.7230   43.9660   31.5000 C   0  0  0  0  0  0
   50.8920   46.6820   30.9670 C   0  0  0  0  0  0
   49.9810   44.8690   32.2590 C   0  0  0  0  0  0
   50.0710   46.2240   31.9820 C   0  0  0  0  0  0
   49.3340   47.1380   32.6950 O   0  0  0  0  0  0
   54.7030   45.1110   31.3560 N   0  0  0  0  0  0
   55.1690   45.4480   32.6880 C   0  0  0  0  0  0
   54.0180   45.8570   33.5850 C   0  0  0  0  0  0
   53.6090   47.0190   33.6010 O   0  0  0  0  0  0
   53.4940   44.8760   34.3160 N   0  0  0  0  0  0
   52.3840   45.0580   35.2410 C   0  0  2  0  0  0
   52.7120   46.1050   36.2990 C   0  0  0  0  0  0
   52.0170   47.1060   36.4140 O   0  0  0  0  0  0
   52.0170   43.7290   35.9220 C   0  0  0  0  0  0
   50.8600   43.9320   36.8740 C   0  0  0  0  0  0
   51.6780   42.6740   34.8770 C   0  0  0  0  0  0
   53.7820   45.8880   37.0530 N   0  0  0  0  0  0
   54.1920   46.8400   38.0800 C   0  0  2  0  0  0
   54.3900   48.2630   37.5260 C   0  0  0  0  0  0
   53.8760   49.2370   38.0760 O   0  0  0  0  0  0
   55.4980   46.3750   38.7150 C   0  0  0  0  0  0
   56.1120   47.3370   39.7320 C   0  0  0  0  0  0
   55.3830   47.2150   41.0560 C   0  0  0  0  0  0
   57.5870   47.0390   39.9040 C   0  0  0  0  0  0
   55.1330   48.3590   36.4270 N   0  0  0  0  0  0
   55.4480   49.6270   35.7720 C   0  0  2  0  0  0
   54.2700   50.4400   35.2410 C   0  0  0  0  0  0
   54.3830   51.6600   35.0880 O   0  0  0  0  0  0
   56.4370   49.3840   34.6520 C   0  0  0  0  0  0
   53.1510   49.7780   34.9530 N   0  0  0  0  0  0
   51.9710   50.4600   34.4130 C   0  0  2  0  0  0
   51.2950   51.4730   35.3470 C   0  0  0  0  0  0
   50.5470   52.3370   34.8780 O   0  0  0  0  0  0
   50.9600   49.4480   33.8980 C   0  0  0  0  0  0
   51.5590   51.3650   36.6510 N   0  0  0  0  0  0
   50.9980   52.2820   37.6470 C   0  0  2  0  0  0
   51.4790   53.7260   37.4870 C   0  0  0  0  0  0
   52.4120   54.1690   38.1780 O   0  0  0  0  0  0
   51.3370   51.8230   39.0610 C   0  0  0  0  0  0
   50.5940   50.6310   39.5070 C   0  0  0  0  0  0
   50.1210   49.6210   38.7260 C   0  0  0  0  0  0
   50.2510   50.2940   40.8620 C   0  0  0  0  0  0
   49.5040   48.6690   39.5070 N   0  0  0  0  0  0
   49.5700   49.0550   40.8230 C   0  0  0  0  0  0
   50.4560   50.9200   42.1090 C   0  0  0  0  0  0
   49.0870   48.4200   41.9880 C   0  0  0  0  0  0
   49.9760   50.2900   43.2670 C   0  0  0  0  0  0
   49.3000   49.0520   43.1940 C   0  0  0  0  0  0
   50.8360   54.4520   36.5720 N   0  0  0  0  0  0
   51.1500   55.8560   36.3200 C   0  0  2  0  0  0
   50.4080   56.6990   37.3570 C   0  0  0  0  0  0
   50.2890   57.9190   37.2130 O   0  0  0  0  0  0
   50.7170   56.2550   34.9050 C   0  0  0  0  0  0
   49.8960   56.0230   38.3890 N   0  0  0  0  0  0
   49.1580   56.6480   39.4840 C   0  0  2  0  0  0
   50.0170   57.6990   40.1890 C   0  0  0  0  0  0
   49.4950   58.6530   40.7750 O   0  0  0  0  0  0
   48.7070   55.5820   40.4730 C   0  0  0  0  0  0
   51.3350   57.5080   40.1230 N   0  0  0  0  0  0
   52.3020   58.4250   40.7220 C   0  0  2  0  0  0
   52.5520   59.6360   39.8070 C   0  0  0  0  0  0
   52.5480   59.4620   38.5640 O   0  0  0  0  0  0
   53.6170   57.6880   41.0110 C   0  0  0  0  0  0
   52.7500   60.7500   40.3440 O   0  0  0  0  0  0
   59.8294   41.6353   14.1379 H   0  0  0  0  0  0
   60.2684   41.7148   12.3979 H   0  0  0  0  0  0
   61.5337   41.3833   13.6291 H   0  0  0  0  0  0
   59.1728   39.7044   12.9330 H   0  0  0  0  0  0
   60.9774   39.7193   11.1907 H   0  0  0  0  0  0
   60.8835   38.1169   11.9971 H   0  0  0  0  0  0
   62.1870   39.2706   12.4406 H   0  0  0  0  0  0
   58.7605   40.0641   15.2689 H   0  0  0  0  0  0
   60.3588   37.9689   16.8252 H   0  0  0  0  0  0
   59.1010   40.5591   17.9638 H   0  0  0  0  0  0
   60.0245   39.3456   18.9131 H   0  0  0  0  0  0
   62.0712   39.9993   17.9796 H   0  0  0  0  0  0
   61.2858   40.8544   16.6089 H   0  0  0  0  0  0
   60.3161   42.4870   18.2879 H   0  0  0  0  0  0
   61.3165   41.6923   19.5506 H   0  0  0  0  0  0
   63.3999   42.4397   18.2769 H   0  0  0  0  0  0
   60.1524   43.9976   17.6339 H   0  0  0  0  0  0
   60.9923   45.5885   17.0066 H   0  0  0  0  0  0
   64.3446   44.2949   17.5458 H   0  0  0  0  0  0
   59.2192   36.2996   17.5811 H   0  0  0  0  0  0
   56.1818   36.6353   17.5703 H   0  0  0  0  0  0
   56.1634   34.1151   17.8099 H   0  0  0  0  0  0
   57.0004   34.7010   16.3324 H   0  0  0  0  0  0
   59.1252   34.1447   17.1902 H   0  0  0  0  0  0
   58.4914   33.9323   18.8575 H   0  0  0  0  0  0
   58.8977   31.7411   17.8796 H   0  0  0  0  0  0
   57.1238   31.9828   18.0270 H   0  0  0  0  0  0
   57.8963   32.7837   15.3350 H   0  0  0  0  0  0
   57.7588   29.8512   17.5202 H   0  0  0  0  0  0
   57.5865   31.4084   13.6141 H   0  0  0  0  0  0
   57.3970   29.5368   13.9162 H   0  0  0  0  0  0
   57.3478   38.1000   19.4611 H   0  0  0  0  0  0
   56.6913   36.4894   21.9439 H   0  0  0  0  0  0
   58.5609   38.0023   23.1360 H   0  0  0  0  0  0
   58.8363   39.6102   21.2119 H   0  0  0  0  0  0
   58.8693   35.5596   22.6723 H   0  0  0  0  0  0
   60.3875   36.4958   22.4598 H   0  0  0  0  0  0
   59.4480   35.9698   21.0220 H   0  0  0  0  0  0
   56.6126   38.1250   23.9756 H   0  0  0  0  0  0
   55.7233   40.8762   23.2512 H   0  0  0  0  0  0
   54.3246   39.7914   23.5570 H   0  0  0  0  0  0
   55.3547   42.1663   25.0990 H   0  0  0  0  0  0
   55.3644   40.6043   27.6344 H   0  0  0  0  0  0
   57.8453   40.8030   27.1483 H   0  0  0  0  0  0
   57.1498   40.9572   29.5481 H   0  0  0  0  0  0
   57.6583   42.8541   25.7135 H   0  0  0  0  0  0
   58.8971   43.0159   27.0041 H   0  0  0  0  0  0
   57.2991   43.8154   27.1877 H   0  0  0  0  0  0
   54.7791   41.6907   29.4935 H   0  0  0  0  0  0
   54.0652   44.6014   29.0068 H   0  0  0  0  0  0
   51.9496   43.4770   28.5970 H   0  0  0  0  0  0
   52.1649   42.4183   30.0320 H   0  0  0  0  0  0
   52.2730   46.1366   29.4183 H   0  0  0  0  0  0
   50.6538   42.9000   31.7165 H   0  0  0  0  0  0
   50.9618   47.7493   30.7571 H   0  0  0  0  0  0
   49.3362   44.5131   33.0626 H   0  0  0  0  0  0
   49.4155   48.2104   32.4642 H   0  0  0  0  0  0
   54.6515   45.8874   30.5785 H   0  0  0  0  0  0
   55.6677   44.5748   33.1338 H   0  0  0  0  0  0
   55.8803   46.2849   32.6268 H   0  0  0  0  0  0
   53.9484   43.8821   34.1910 H   0  0  0  0  0  0
   51.5561   45.4167   34.6118 H   0  0  0  0  0  0
   52.8737   43.3670   36.5093 H   0  0  0  0  0  0
   51.1273   44.6967   37.6182 H   0  0  0  0  0  0
   50.6359   42.9846   37.3860 H   0  0  0  0  0  0
   49.9751   44.2624   36.3104 H   0  0  0  0  0  0
   52.5327   42.5436   34.1970 H   0  0  0  0  0  0
   50.7978   42.9972   34.3019 H   0  0  0  0  0  0
   51.4587   41.7193   35.3775 H   0  0  0  0  0  0
   54.3639   44.9686   36.8916 H   0  0  0  0  0  0
   53.3599   46.8354   38.7995 H   0  0  0  0  0  0
   55.3301   45.4265   39.2461 H   0  0  0  0  0  0
   56.2548   46.2270   37.9306 H   0  0  0  0  0  0
   56.0131   48.3721   39.3732 H   0  0  0  0  0  0
   54.3154   47.4351   40.9084 H   0  0  0  0  0  0
   55.8085   47.9294   41.7761 H   0  0  0  0  0  0
   55.4962   46.1919   41.4440 H   0  0  0  0  0  0
   58.0957   47.1331   38.9332 H   0  0  0  0  0  0
   57.7121   46.0150   40.2858 H   0  0  0  0  0  0
   58.0244   47.7525   40.6179 H   0  0  0  0  0  0
   55.5169   47.4154   36.0121 H   0  0  0  0  0  0
   55.8691   50.2102   36.6042 H   0  0  0  0  0  0
   57.2863   48.7982   35.0335 H   0  0  0  0  0  0
   56.8000   50.3486   34.2677 H   0  0  0  0  0  0
   55.9433   48.8286   33.8410 H   0  0  0  0  0  0
   53.1260   48.6926   35.1299 H   0  0  0  0  0  0
   52.4064   51.0449   33.5894 H   0  0  0  0  0  0
   51.4642   48.7326   33.2317 H   0  0  0  0  0  0
   50.1680   49.9713   33.3422 H   0  0  0  0  0  0
   50.5164   48.9080   34.7475 H   0  0  0  0  0  0
   52.2255   50.5494   36.9681 H   0  0  0  0  0  0
   49.9180   52.2288   37.4452 H   0  0  0  0  0  0
   52.4071   51.5752   39.1194 H   0  0  0  0  0  0
   51.1081   52.6295   39.7731 H   0  0  0  0  0  0
   50.2166   49.5729   37.6413 H   0  0  0  0  0  0
   50.9774   51.8751   42.1719 H   0  0  0  0  0  0
   48.5647   47.4647   41.9354 H   0  0  0  0  0  0
   50.1270   50.7629   44.2374 H   0  0  0  0  0  0
   48.9391   48.5865   44.1111 H   0  0  0  0  0  0
   50.0419   53.9541   35.9962 H   0  0  0  0  0  0
   52.2397   55.9746   36.4122 H   0  0  0  0  0  0
   51.2578   55.6415   34.1694 H   0  0  0  0  0  0
   50.9476   57.3173   34.7369 H   0  0  0  0  0  0
   49.6348   56.0925   34.7932 H   0  0  0  0  0  0
   50.0565   54.9348   38.3845 H   0  0  0  0  0  0
   48.2843   57.1359   39.0273 H   0  0  0  0  0  0
   48.0912   54.8347   39.9511 H   0  0  0  0  0  0
   48.1152   56.0509   41.2729 H   0  0  0  0  0  0
   49.5888   55.0902   40.9095 H   0  0  0  0  0  0
   51.6844   56.6126   39.5881 H   0  0  0  0  0  0
   51.8431   58.7650   41.6621 H   0  0  0  0  0  0
   52.7243   60.3125   37.8890 H   0  0  0  0  0  0
   53.4183   56.8266   41.6656 H   0  0  0  0  0  0
   54.3193   58.3727   41.5089 H   0  0  0  0  0  0
   54.0558   57.3365   40.0655 H   0  0  0  0  0  0
  1  2  1  0  0  0
  1117  1  0  0  0
  1118  1  0  0  0
  1119  1  0  0  0
  2  3  1  0  0  0
  2  5  1  0  0  0
  2120  1  0  0  0
  3  4  2  0  0  0
  3  6  1  0  0  0
  5121  1  0  0  0
  5122  1  0  0  0
  5123  1  0  0  0
  6  7  1  0  0  0
  6124  1  0  0  0
  7  8  1  0  0  0
  7 10  1  0  0  0
  7125  1  0  0  0
  8  9  2  0  0  0
  8 17  1  0  0  0
 10 11  1  0  0  0
 10126  1  0  0  0
 10127  1  0  0  0
 11 12  1  0  0  0
 11128  1  0  0  0
 11129  1  0  0  0
 12 13  1  0  0  0
 12130  1  0  0  0
 12131  1  0  0  0
 13 14  1  0  0  0
 13132  1  0  0  0
 14 15  1  0  0  0
 14 16  2  0  0  0
 15133  1  0  0  0
 15134  1  0  0  0
 16135  1  0  0  0
 17 18  1  0  0  0
 17136  1  0  0  0
 18 19  1  0  0  0
 18 21  1  0  0  0
 18137  1  0  0  0
 19 20  2  0  0  0
 19 28  1  0  0  0
 21 22  1  0  0  0
 21138  1  0  0  0
 21139  1  0  0  0
 22 23  1  0  0  0
 22140  1  0  0  0
 22141  1  0  0  0
 23 24  1  0  0  0
 23142  1  0  0  0
 23143  1  0  0  0
 24 25  1  0  0  0
 24144  1  0  0  0
 25 26  2  0  0  0
 25 27  1  0  0  0
 26145  1  0  0  0
 27146  1  0  0  0
 27147  1  0  0  0
 28 29  1  0  0  0
 28148  1  0  0  0
 29 30  1  0  0  0
 29 32  1  0  0  0
 29149  1  0  0  0
 30 31  2  0  0  0
 30 35  1  0  0  0
 32 33  1  0  0  0
 32 34  1  0  0  0
 32150  1  0  0  0
 33151  1  0  0  0
 34152  1  0  0  0
 34153  1  0  0  0
 34154  1  0  0  0
 35 36  1  0  0  0
 35155  1  0  0  0
 36 37  1  0  0  0
 36156  1  0  0  0
 36157  1  0  0  0
 37 38  2  0  0  0
 37 39  1  0  0  0
 39 40  1  0  0  0
 39158  1  0  0  0
 40 41  1  0  0  0
 40 43  1  0  0  0
 40159  1  0  0  0
 41 42  2  0  0  0
 41 46  1  0  0  0
 43 44  1  0  0  0
 43 45  1  0  0  0
 43160  1  0  0  0
 44161  1  0  0  0
 45162  1  0  0  0
 45163  1  0  0  0
 45164  1  0  0  0
 46 47  1  0  0  0
 46165  1  0  0  0
 47 48  1  0  0  0
 47 50  1  0  0  0
 47166  1  0  0  0
 48 49  2  0  0  0
 48 58  1  0  0  0
 50 51  1  0  0  0
 50167  1  0  0  0
 50168  1  0  0  0
 51 52  2  0  0  0
 51 53  1  0  0  0
 52 54  1  0  0  0
 52169  1  0  0  0
 53 55  2  0  0  0
 53170  1  0  0  0
 54 56  2  0  0  0
 54171  1  0  0  0
 55 56  1  0  0  0
 55172  1  0  0  0
 56 57  1  0  0  0
 57173  1  0  0  0
 58 59  1  0  0  0
 58174  1  0  0  0
 59 60  1  0  0  0
 59175  1  0  0  0
 59176  1  0  0  0
 60 61  2  0  0  0
 60 62  1  0  0  0
 62 63  1  0  0  0
 62177  1  0  0  0
 63 64  1  0  0  0
 63 66  1  0  0  0
 63178  1  0  0  0
 64 65  2  0  0  0
 64 69  1  0  0  0
 66 67  1  0  0  0
 66 68  1  0  0  0
 66179  1  0  0  0
 67180  1  0  0  0
 67181  1  0  0  0
 67182  1  0  0  0
 68183  1  0  0  0
 68184  1  0  0  0
 68185  1  0  0  0
 69 70  1  0  0  0
 69186  1  0  0  0
 70 71  1  0  0  0
 70 73  1  0  0  0
 70187  1  0  0  0
 71 72  2  0  0  0
 71 77  1  0  0  0
 73 74  1  0  0  0
 73188  1  0  0  0
 73189  1  0  0  0
 74 75  1  0  0  0
 74 76  1  0  0  0
 74190  1  0  0  0
 75191  1  0  0  0
 75192  1  0  0  0
 75193  1  0  0  0
 76194  1  0  0  0
 76195  1  0  0  0
 76196  1  0  0  0
 77 78  1  0  0  0
 77197  1  0  0  0
 78 79  1  0  0  0
 78 81  1  0  0  0
 78198  1  0  0  0
 79 80  2  0  0  0
 79 82  1  0  0  0
 81199  1  0  0  0
 81200  1  0  0  0
 81201  1  0  0  0
 82 83  1  0  0  0
 82202  1  0  0  0
 83 84  1  0  0  0
 83 86  1  0  0  0
 83203  1  0  0  0
 84 85  2  0  0  0
 84 87  1  0  0  0
 86204  1  0  0  0
 86205  1  0  0  0
 86206  1  0  0  0
 87 88  1  0  0  0
 87207  1  0  0  0
 88 89  1  0  0  0
 88 91  1  0  0  0
 88208  1  0  0  0
 89 90  2  0  0  0
 89101  1  0  0  0
 91 92  1  0  0  0
 91209  1  0  0  0
 91210  1  0  0  0
 92 93  2  0  0  0
 92 94  1  0  0  0
 93 95  1  0  0  0
 93211  1  0  0  0
 94 96  2  0  0  0
 94 97  1  0  0  0
 95 96  1  0  0  0
 96 98  1  0  0  0
 97 99  2  0  0  0
 97212  1  0  0  0
 98100  2  0  0  0
 98213  1  0  0  0
 99100  1  0  0  0
 99214  1  0  0  0
100215  1  0  0  0
101102  1  0  0  0
101216  1  0  0  0
102103  1  0  0  0
102105  1  0  0  0
102217  1  0  0  0
103104  2  0  0  0
103106  1  0  0  0
105218  1  0  0  0
105219  1  0  0  0
105220  1  0  0  0
106107  1  0  0  0
106221  1  0  0  0
107108  1  0  0  0
107110  1  0  0  0
107222  1  0  0  0
108109  2  0  0  0
108111  1  0  0  0
110223  1  0  0  0
110224  1  0  0  0
110225  1  0  0  0
111112  1  0  0  0
111226  1  0  0  0
112113  1  0  0  0
112115  1  0  0  0
112227  1  0  0  0
113114  1  0  0  0
113116  2  0  0  0
114228  1  0  0  0
115229  1  0  0  0
115230  1  0  0  0
115231  1  0  0  0
M  CHG  1   1   1
M  END
> <s_m_source_file>
../1j19_ligand.sdf

> <i_m_source_file_index>
1

> <s_epik_input>
W0hdL049QyhbTkgyXSlcW05IXVtDSDJdW0NIMl1bQ0gyXVtDQEhdKFtOSF1DKD1PKVtDQEBIXShbTkgzK10pW0NIM10pQyg9TylbTkhdW0NAQEhdKFtDSDJdW0NIMl1bQ0gyXVtOSF0vQyg9TlxbSF0pW05IMl0pQyg9TylbTkhdW0NAQEhdKFtDQEhdKFtPSF0pW0NIM10pQyg9TylbTkhdW0NIMl1DKD1PKVtOSF1bQ0BASF0oW0NASF0oW09IXSlbQ0gzXSlDKD1PKVtOSF1bQ0BASF0oW0NIMl1jMVtjSF1bY0hdYyhbT0hdKVtjSF1bY0hdMSlDKD1PKVtOSF1bQ0gyXUMoPU8pW05IXVtDQEBIXShbQ0hdKFtDSDNdKVtDSDNdKUMoPU8pW05IXVtDQEBIXShbQ0gyXVtDSF0oW0NIM10pW0NIM10pQyg9TylbTkhdW0NAQEhdKFtDSDNdKUMoPU8pW05IXVtDQEBIXShbQ0gzXSlDKD1PKVtOSF1bQ0BASF0oW0NIMl1jMltjSF1bbkhdYyhjMjMpW2NIXVtjSF1bY0hdW2NIXTMpQyg9TylbTkhdW0NAQEhdKFtDSDNdKUMoPU8pW05IXVtDQEBIXShbQ0gzXSlDKD1PKVtOSF1bQ0BASF0oW0NIM10pQyg9TylbT0hd

> <s_epik_cmdline>
J2VwaWtfYXBwJywgJy1pbWFlJywgJ2xpZ2FuZF9wcm8ubWFlJywgJy1vbWFlJywgJ2xpZ2FuZF9wcmVwLm1hZScsICctbXMnLCAnMScsICctcGgnLCAnNycsICctcGh0JywgJzAuNScsICctbnQn

> <s_epik_pKa_notes>
Molecule size exceeds maximum supported for generating protonation states

> <s_epik_Chemistry_Notes>
This compound has an imine and may undergo hydrolysis.

$$$$
