1j36_ligand
                    3D
 Schrodinger Suite 2020-3.
 58 59  0  0  1  0            999 V2000
   12.5770   -2.9380   16.7020 O   0  0  0  0  0  0
    8.9730   -3.7270   18.9430 O   0  5  0  0  0  0
    8.4720   -5.5280   17.7990 O   0  0  0  0  0  0
   15.1350   -1.0660   18.1450 O   0  5  0  0  0  0
   15.7420   -3.1480   17.7750 O   0  0  0  0  0  0
   10.6500   -4.7360   16.0920 N   0  3  0  0  0  0
   13.1100   -3.9420   18.6650 N   0  0  0  0  0  0
   17.3490   -6.5550   15.0770 N   0  3  0  0  0  0
   12.5270   -3.9660   17.4490 C   0  0  0  0  0  0
   11.7940   -5.2460   16.9290 C   0  0  2  0  0  0
    8.9600   -4.3930   17.8710 C   0  0  0  0  0  0
    9.6100   -3.7590   16.6350 C   0  0  2  0  0  0
   13.8310   -2.7070   19.1490 C   0  0  1  0  0  0
   14.3250   -3.1340   20.5410 C   0  0  0  0  0  0
   13.9290   -4.4160   20.7920 C   0  0  0  0  0  0
   13.1620   -5.0230   19.6830 C   0  0  0  0  0  0
   15.0370   -2.3350   18.2760 C   0  0  0  0  0  0
   12.7750   -6.0630   16.1370 C   0  0  0  0  0  0
   13.8840   -6.7200   16.8100 C   0  0  0  0  0  0
   15.3550   -6.1920   16.4250 C   0  0  0  0  0  0
   15.8950   -6.8730   15.2810 C   0  0  0  0  0  0
    8.5840   -3.4400   15.4970 C   0  0  0  0  0  0
    7.4970   -2.4550   15.8930 C   0  0  0  0  0  0
    6.4910   -2.1120   14.8290 C   0  0  0  0  0  0
    6.5270   -2.7720   13.5580 C   0  0  0  0  0  0
    5.5690   -2.4500   12.5540 C   0  0  0  0  0  0
    4.5700   -1.4630   12.8120 C   0  0  0  0  0  0
    4.5340   -0.8000   14.0790 C   0  0  0  0  0  0
    5.4910   -1.1270   15.0760 C   0  0  0  0  0  0
   10.1512   -5.6636   15.7748 H   0  0  0  0  0  0
   11.1641   -4.2834   15.2313 H   0  0  0  0  0  0
   17.7220   -7.0948   14.1941 H   0  0  0  0  0  0
   17.9201   -6.8649   15.9646 H   0  0  0  0  0  0
   17.4695   -5.4725   14.9230 H   0  0  0  0  0  0
   11.3976   -5.9227   17.7003 H   0  0  0  0  0  0
   10.0742   -2.8161   16.9598 H   0  0  0  0  0  0
   13.1662   -1.8310   19.1252 H   0  0  0  0  0  0
   14.9072   -2.5810   21.2928 H   0  0  0  0  0  0
   14.1882   -4.8945   21.7480 H   0  0  0  0  0  0
   12.1388   -5.2952   19.9814 H   0  0  0  0  0  0
   13.6663   -5.9032   19.2577 H   0  0  0  0  0  0
   12.2452   -6.8848   15.6331 H   0  0  0  0  0  0
   13.2611   -5.4244   15.3848 H   0  0  0  0  0  0
   13.7855   -6.5842   17.8971 H   0  0  0  0  0  0
   13.8729   -7.7939   16.5722 H   0  0  0  0  0  0
   15.3098   -5.1178   16.1927 H   0  0  0  0  0  0
   16.0368   -6.3555   17.2726 H   0  0  0  0  0  0
   15.3239   -6.5631   14.3934 H   0  0  0  0  0  0
   15.7745   -7.9555   15.4350 H   0  0  0  0  0  0
    9.1141   -3.0054   14.6367 H   0  0  0  0  0  0
    8.0803   -4.3674   15.1869 H   0  0  0  0  0  0
    6.9198   -2.8649   16.7350 H   0  0  0  0  0  0
    7.9573   -1.5022   16.1933 H   0  0  0  0  0  0
    7.2906   -3.5237   13.3583 H   0  0  0  0  0  0
    5.5986   -2.9568   11.5894 H   0  0  0  0  0  0
    3.8362   -1.2152   12.0450 H   0  0  0  0  0  0
    3.7734   -0.0452   14.2789 H   0  0  0  0  0  0
    5.4604   -0.6194   16.0401 H   0  0  0  0  0  0
  1  9  2  0  0  0
  2 11  1  0  0  0
  3 11  2  0  0  0
  4 17  1  0  0  0
  5 17  2  0  0  0
  6 12  1  0  0  0
  6 10  1  0  0  0
  6 30  1  0  0  0
  6 31  1  0  0  0
  7 16  1  0  0  0
  7 13  1  0  0  0
  7  9  1  0  0  0
  8 21  1  0  0  0
  8 32  1  0  0  0
  8 33  1  0  0  0
  8 34  1  0  0  0
  9 10  1  0  0  0
 10 18  1  0  0  0
 10 35  1  0  0  0
 11 12  1  0  0  0
 12 22  1  0  0  0
 12 36  1  0  0  0
 13 14  1  0  0  0
 13 17  1  0  0  0
 13 37  1  0  0  0
 14 15  2  0  0  0
 14 38  1  0  0  0
 15 16  1  0  0  0
 15 39  1  0  0  0
 16 40  1  0  0  0
 16 41  1  0  0  0
 18 19  1  0  0  0
 18 42  1  0  0  0
 18 43  1  0  0  0
 19 20  1  0  0  0
 19 44  1  0  0  0
 19 45  1  0  0  0
 20 21  1  0  0  0
 20 46  1  0  0  0
 20 47  1  0  0  0
 21 48  1  0  0  0
 21 49  1  0  0  0
 22 23  1  0  0  0
 22 50  1  0  0  0
 22 51  1  0  0  0
 23 24  1  0  0  0
 23 52  1  0  0  0
 23 53  1  0  0  0
 24 25  2  0  0  0
 24 29  1  0  0  0
 25 26  1  0  0  0
 25 54  1  0  0  0
 26 27  2  0  0  0
 26 55  1  0  0  0
 27 28  1  0  0  0
 27 56  1  0  0  0
 28 29  2  0  0  0
 28 57  1  0  0  0
 29 58  1  0  0  0
M  CHG  4   2  -1   4  -1   6   1   8   1
M  END
> <s_m_source_file>
../1j36_ligand.sdf

> <i_m_source_file_index>
1

> <s_epik_input>
W0NIMl0xW0NIXT1bQ0hdW0NAQEhdKEMoPU8pW09IXSlOMUMoPU8pW0NASF0oW0NIMl1bQ0gyXVtDSDJdW0NIMl1bTkgzK10pW05IMitdW0NASF0oQyg9TylbT0hdKVtDSDJdW0NIMl1jMltjSF1bY0hdW2NIXVtjSF1bY0hdMg==

> <s_epik_cmdline>
J2VwaWtfYXBwJywgJy1pbWFlJywgJ2xpZ2FuZF9wcm8ubWFlJywgJy1vbWFlJywgJ2xpZ2FuZF9wcmVwLm1hZScsICctbXMnLCAnMScsICctcGgnLCAnNycsICctcGh0JywgJzAuNScsICctbnQn

> <r_epik_Ionization_Penalty>
  0.1804

> <r_epik_Ionization_Penalty_Charging>
  0.1804

> <r_epik_Ionization_Penalty_Neutral>
  0.0000

> <r_epik_State_Penalty>
  0.1693

> <r_epik_Charging_Adjusted_Penalty>
0.349733151503783

> <i_epik_Tot_Q>
0

> <i_epik_Tot_abs_Q>
4

$$$$
