1j4k_ligand
                    3D
 Schrodinger Suite 2020-3.
125126  0  0  1  0            999 V2000
   -2.9880  -29.8900   -5.4150 N   0  3  0  0  0  0
   -2.5410  -28.4800   -5.2590 C   0  0  2  0  0  0
   -2.4170  -27.7880   -6.6120 C   0  0  0  0  0  0
   -2.4890  -28.4310   -7.6590 O   0  0  0  0  0  0
   -1.1920  -28.4750   -4.5350 C   0  0  0  0  0  0
   -1.0620  -27.3690   -3.5010 C   0  0  0  0  0  0
   -1.9770  -27.5750   -2.3100 C   0  0  0  0  0  0
   -1.7160  -26.9700   -1.2490 O   0  0  0  0  0  0
   -2.9560  -28.3410   -2.4380 O   0  5  0  0  0  0
   -2.2300  -26.4720   -6.5820 N   0  0  0  0  0  0
   -2.0960  -25.6920   -7.8060 C   0  0  2  0  0  0
   -0.6780  -25.1470   -7.9520 C   0  0  0  0  0  0
   -0.3060  -24.1760   -7.2940 O   0  0  0  0  0  0
   -3.1000  -24.5380   -7.8130 C   0  0  0  0  0  0
   -2.9170  -23.6040   -6.6340 C   0  0  0  0  0  0
   -3.5230  -23.8620   -5.5720 O   0  5  0  0  0  0
   -2.1680  -22.6140   -6.7700 O   0  0  0  0  0  0
    0.1070  -25.7790   -8.8180 N   0  0  0  0  0  0
    1.4830  -25.3580   -9.0500 C   0  0  2  0  0  0
    1.6170  -24.6350  -10.3850 C   0  0  0  0  0  0
    1.5570  -25.2550  -11.4470 O   0  0  0  0  0  0
    2.4480  -26.5590   -9.0300 C   0  0  2  0  0  0
    2.1890  -27.4300   -7.7990 C   0  0  0  0  0  0
    3.8910  -26.0780   -9.0500 C   0  0  0  0  0  0
    2.8680  -28.7800   -7.8600 C   0  0  0  0  0  0
    1.7980  -23.3200  -10.3250 N   0  0  0  0  0  0
    1.9400  -22.5120  -11.5310 C   0  0  2  0  0  0
    3.3800  -22.0400  -11.7050 C   0  0  0  0  0  0
    4.1070  -21.8580  -10.7290 O   0  0  0  0  0  0
    1.0000  -21.3070  -11.4750 C   0  0  0  0  0  0
   -0.4450  -21.6510  -11.7600 C   0  0  0  0  0  0
   -1.4390  -21.3830  -10.8270 C   0  0  0  0  0  0
   -0.8130  -22.2460  -12.9600 C   0  0  0  0  0  0
   -2.7600  -21.6990  -11.0830 C   0  0  0  0  0  0
   -2.1320  -22.5640  -13.2230 C   0  0  0  0  0  0
   -3.1000  -22.2890  -12.2820 C   0  0  0  0  0  0
   -4.4380  -22.6100  -12.5440 O   0  0  0  0  0  0
   -5.0340  -23.8800  -11.8600 P   0  0  0  0  0  0
   -4.2300  -25.0640  -12.4600 O   0  5  0  0  0  0
   -4.6670  -23.7270  -10.3620 O   0  5  0  0  0  0
   -6.5110  -24.0160  -12.0820 O   0  0  0  0  0  0
    3.7850  -21.8440  -12.9560 N   0  0  0  0  0  0
    5.1380  -21.3930  -13.2610 C   0  0  2  0  0  0
    5.3150  -21.1840  -14.7610 C   0  0  0  0  0  0
    4.6370  -21.8190  -15.5700 O   0  0  0  0  0  0
    6.1650  -22.4050  -12.7500 C   0  0  0  0  0  0
    5.7970  -23.8430  -13.0390 C   0  0  0  0  0  0
    5.4020  -24.6970  -12.0170 C   0  0  0  0  0  0
    5.8450  -24.3460  -14.3330 C   0  0  0  0  0  0
    5.0650  -26.0130  -12.2760 C   0  0  0  0  0  0
    5.5090  -25.6590  -14.6010 C   0  0  0  0  0  0
    5.1200  -26.4880  -13.5690 C   0  0  0  0  0  0
    4.7850  -27.7970  -13.8320 O   0  0  0  0  0  0
    6.2290  -20.2920  -15.1260 N   0  0  0  0  0  0
    6.4950  -20.0000  -16.5300 C   0  0  2  0  0  0
    7.9850  -19.7780  -16.7670 C   0  0  0  0  0  0
    8.5900  -18.8800  -16.1810 O   0  0  0  0  0  0
    5.7050  -18.7660  -16.9730 C   0  0  0  0  0  0
    4.2190  -19.0110  -17.2390 C   0  0  0  0  0  0
    3.4820  -17.6910  -17.4010 C   0  0  0  0  0  0
    4.0340  -19.8810  -18.4730 C   0  0  0  0  0  0
    8.5700  -20.6010  -17.6290 N   0  0  0  0  0  0
    9.9910  -20.4950  -17.9450 C   0  0  2  0  0  0
   10.2060  -19.6820  -19.2160 C   0  0  0  0  0  0
    9.2230  -19.4720  -19.9580 O   0  0  0  0  0  0
   10.6040  -21.8860  -18.1060 C   0  0  0  0  0  0
   10.9580  -22.5210  -16.7740 C   0  0  0  0  0  0
   10.5980  -23.6980  -16.5620 O   0  5  0  0  0  0
   11.5950  -21.8390  -15.9440 O   0  0  0  0  0  0
   11.3570  -19.2600  -19.4600 O   0  5  0  0  0  0
   -3.9575  -29.9120   -5.9342 H   0  0  0  0  0  0
   -3.0928  -30.3533   -4.4228 H   0  0  0  0  0  0
   -2.2443  -30.4475   -6.0033 H   0  0  0  0  0  0
   -3.3059  -27.9485   -4.6738 H   0  0  0  0  0  0
   -1.0532  -29.4325   -4.0116 H   0  0  0  0  0  0
   -0.3832  -28.3370   -5.2676 H   0  0  0  0  0  0
   -0.0271  -27.3337   -3.1300 H   0  0  0  0  0  0
   -1.3193  -26.4040   -3.9620 H   0  0  0  0  0  0
   -2.1771  -25.9729   -5.6032 H   0  0  0  0  0  0
   -2.3101  -26.3946   -8.6248 H   0  0  0  0  0  0
   -2.9759  -23.9496   -8.7341 H   0  0  0  0  0  0
   -4.1225  -24.9413   -7.7705 H   0  0  0  0  0  0
   -0.3048  -26.6392   -9.3661 H   0  0  0  0  0  0
    1.6954  -24.6686   -8.2195 H   0  0  0  0  0  0
    2.2827  -27.1711   -9.9289 H   0  0  0  0  0  0
    2.5609  -26.9152   -6.9008 H   0  0  0  0  0  0
    1.1085  -27.6097   -7.6977 H   0  0  0  0  0  0
    4.0573  -25.4545   -9.9408 H   0  0  0  0  0  0
    4.5664  -26.9458   -9.0785 H   0  0  0  0  0  0
    4.0927  -25.4859   -8.1452 H   0  0  0  0  0  0
    2.6381  -29.3477   -6.9463 H   0  0  0  0  0  0
    3.9561  -28.6398   -7.9406 H   0  0  0  0  0  0
    2.5037  -29.3343   -8.7375 H   0  0  0  0  0  0
    1.8397  -22.8425   -9.3349 H   0  0  0  0  0  0
    1.6661  -23.1769  -12.3634 H   0  0  0  0  0  0
    1.0385  -20.8583  -10.4714 H   0  0  0  0  0  0
    1.3133  -20.5625  -12.2217 H   0  0  0  0  0  0
   -1.1730  -20.9164   -9.8785 H   0  0  0  0  0  0
   -0.0493  -22.4656  -13.7061 H   0  0  0  0  0  0
   -3.5288  -21.4830  -10.3411 H   0  0  0  0  0  0
   -2.4050  -23.0299  -14.1699 H   0  0  0  0  0  0
    3.0706  -22.0308  -13.7713 H   0  0  0  0  0  0
    5.2521  -20.4325  -12.7371 H   0  0  0  0  0  0
    7.1373  -22.2135  -13.2274 H   0  0  0  0  0  0
    6.2662  -22.3057  -11.6592 H   0  0  0  0  0  0
    5.3569  -24.3236  -10.9939 H   0  0  0  0  0  0
    6.1529  -23.6940  -15.1504 H   0  0  0  0  0  0
    4.7578  -26.6706  -11.4628 H   0  0  0  0  0  0
    5.5510  -26.0379  -15.6222 H   0  0  0  0  0  0
    4.4744  -28.4607  -13.0116 H   0  0  0  0  0  0
    6.7916  -19.7682  -14.3391 H   0  0  0  0  0  0
    6.1630  -20.8905  -17.0839 H   0  0  0  0  0  0
    5.7620  -17.9941  -16.1914 H   0  0  0  0  0  0
    6.1318  -18.3735  -17.9078 H   0  0  0  0  0  0
    3.7886  -19.5413  -16.3767 H   0  0  0  0  0  0
    3.6275  -17.0769  -16.5001 H   0  0  0  0  0  0
    2.4086  -17.8854  -17.5428 H   0  0  0  0  0  0
    3.8767  -17.1559  -18.2773 H   0  0  0  0  0  0
    4.5736  -20.8298  -18.3369 H   0  0  0  0  0  0
    4.4313  -19.3564  -19.3544 H   0  0  0  0  0  0
    2.9633  -20.0859  -18.6200 H   0  0  0  0  0  0
    7.9562  -21.3772  -18.1093 H   0  0  0  0  0  0
   10.4449  -19.9714  -17.0907 H   0  0  0  0  0  0
    9.8870  -22.5458  -18.6165 H   0  0  0  0  0  0
   11.5251  -21.8139  -18.7029 H   0  0  0  0  0  0
  1  2  1  0  0  0
  1 71  1  0  0  0
  1 72  1  0  0  0
  1 73  1  0  0  0
  2  3  1  0  0  0
  2  5  1  0  0  0
  2 74  1  0  0  0
  3  4  2  0  0  0
  3 10  1  0  0  0
  5  6  1  0  0  0
  5 75  1  0  0  0
  5 76  1  0  0  0
  6  7  1  0  0  0
  6 77  1  0  0  0
  6 78  1  0  0  0
  7  8  2  0  0  0
  7  9  1  0  0  0
 10 11  1  0  0  0
 10 79  1  0  0  0
 11 12  1  0  0  0
 11 14  1  0  0  0
 11 80  1  0  0  0
 12 13  2  0  0  0
 12 18  1  0  0  0
 14 15  1  0  0  0
 14 81  1  0  0  0
 14 82  1  0  0  0
 15 16  1  0  0  0
 15 17  2  0  0  0
 18 19  1  0  0  0
 18 83  1  0  0  0
 19 20  1  0  0  0
 19 22  1  0  0  0
 19 84  1  0  0  0
 20 21  2  0  0  0
 20 26  1  0  0  0
 22 23  1  0  0  0
 22 24  1  0  0  0
 22 85  1  0  0  0
 23 25  1  0  0  0
 23 86  1  0  0  0
 23 87  1  0  0  0
 24 88  1  0  0  0
 24 89  1  0  0  0
 24 90  1  0  0  0
 25 91  1  0  0  0
 25 92  1  0  0  0
 25 93  1  0  0  0
 26 27  1  0  0  0
 26 94  1  0  0  0
 27 28  1  0  0  0
 27 30  1  0  0  0
 27 95  1  0  0  0
 28 29  2  0  0  0
 28 42  1  0  0  0
 30 31  1  0  0  0
 30 96  1  0  0  0
 30 97  1  0  0  0
 31 32  2  0  0  0
 31 33  1  0  0  0
 32 34  1  0  0  0
 32 98  1  0  0  0
 33 35  2  0  0  0
 33 99  1  0  0  0
 34 36  2  0  0  0
 34100  1  0  0  0
 35 36  1  0  0  0
 35101  1  0  0  0
 36 37  1  0  0  0
 37 38  1  0  0  0
 38 39  1  0  0  0
 38 40  1  0  0  0
 38 41  2  0  0  0
 42 43  1  0  0  0
 42102  1  0  0  0
 43 44  1  0  0  0
 43 46  1  0  0  0
 43103  1  0  0  0
 44 45  2  0  0  0
 44 54  1  0  0  0
 46 47  1  0  0  0
 46104  1  0  0  0
 46105  1  0  0  0
 47 48  2  0  0  0
 47 49  1  0  0  0
 48 50  1  0  0  0
 48106  1  0  0  0
 49 51  2  0  0  0
 49107  1  0  0  0
 50 52  2  0  0  0
 50108  1  0  0  0
 51 52  1  0  0  0
 51109  1  0  0  0
 52 53  1  0  0  0
 53110  1  0  0  0
 54 55  1  0  0  0
 54111  1  0  0  0
 55 56  1  0  0  0
 55 58  1  0  0  0
 55112  1  0  0  0
 56 57  2  0  0  0
 56 62  1  0  0  0
 58 59  1  0  0  0
 58113  1  0  0  0
 58114  1  0  0  0
 59 60  1  0  0  0
 59 61  1  0  0  0
 59115  1  0  0  0
 60116  1  0  0  0
 60117  1  0  0  0
 60118  1  0  0  0
 61119  1  0  0  0
 61120  1  0  0  0
 61121  1  0  0  0
 62 63  1  0  0  0
 62122  1  0  0  0
 63 64  1  0  0  0
 63 66  1  0  0  0
 63123  1  0  0  0
 64 65  2  0  0  0
 64 70  1  0  0  0
 66 67  1  0  0  0
 66124  1  0  0  0
 66125  1  0  0  0
 67 68  1  0  0  0
 67 69  2  0  0  0
M  CHG  7   1   1   9  -1  16  -1  39  -1  40  -1  68  -1  70  -1
M  END
> <s_m_source_file>
../1j4k_ligand.sdf

> <i_m_source_file_index>
1

> <s_epik_input>
Tz1DKFtPSF0pW0NIMl1bQ0gyXVtDQEhdKFtOSDMrXSlDKD1PKVtOSF1bQ0BASF0oW0NIMl1DKD1PKVtPSF0pQyg9TylbTkhdW0NAQEhdKFtDQEBIXShbQ0gzXSlbQ0gyXVtDSDNdKUMoPU8pW05IXVtDQEBIXShbQ0gyXWMxW2NIXVtjSF1jKFtjSF1bY0hdMSlPUCg9TykoW09IXSlbT0hdKUMoPU8pW05IXVtDQEBIXShbQ0gyXWMyW2NIXVtjSF1jKFtPSF0pW2NIXVtjSF0yKUMoPU8pW05IXVtDQEBIXShbQ0gyXVtDSF0oW0NIM10pW0NIM10pQyg9TylbTkhdW0NASF0oQyg9TylbT0hdKVtDSDJdQyg9TylbT0hd

> <s_epik_cmdline>
J2VwaWtfYXBwJywgJy1pbWFlJywgJ2xpZ2FuZF9wcm8ubWFlJywgJy1vbWFlJywgJ2xpZ2FuZF9wcmVwLm1hZScsICctbXMnLCAnMScsICctcGgnLCAnNycsICctcGh0JywgJzAuNScsICctbnQn

> <r_lp_tautomer_probability>
0.999999999997365

> <r_epik_Ionization_Penalty>
  0.1664

> <r_epik_Ionization_Penalty_Charging>
  0.1655

> <r_epik_Ionization_Penalty_Neutral>
  0.0009

> <r_epik_State_Penalty>
  0.0832

> <r_epik_Charging_Adjusted_Penalty>
0.248696399543703

> <i_epik_Tot_Q>
-5

> <i_epik_Tot_abs_Q>
7

$$$$
