1j4p_ligand
                    3D
 Schrodinger Suite 2020-3.
225227  0  0  1  0            999 V2000
  -11.2800  -23.8830  -15.4320 N   0  3  0  0  0  0
  -10.5970  -22.6400  -15.8760 C   0  0  2  0  0  0
   -9.1910  -22.9380  -16.3900 C   0  0  0  0  0  0
   -8.6990  -22.2710  -17.2990 O   0  0  0  0  0  0
  -10.5340  -21.6700  -14.6940 C   0  0  0  0  0  0
  -11.5420  -20.5350  -14.7850 C   0  0  0  0  0  0
  -12.7890  -20.8290  -13.9680 C   0  0  0  0  0  0
  -13.9020  -19.8420  -14.2750 C   0  0  0  0  0  0
  -14.7320  -19.5470  -13.0740 N   0  3  0  0  0  0
   -8.5530  -23.9450  -15.8000 N   0  0  0  0  0  0
   -7.2040  -24.3350  -16.1960 C   0  0  2  0  0  0
   -6.2090  -23.2050  -15.9340 C   0  0  0  0  0  0
   -5.4900  -23.2200  -14.9340 O   0  0  0  0  0  0
   -7.1750  -24.7360  -17.6750 C   0  0  0  0  0  0
   -5.7850  -25.0640  -18.1950 C   0  0  0  0  0  0
   -5.1490  -26.1980  -17.4100 C   0  0  0  0  0  0
   -5.7970  -27.5350  -17.7350 C   0  0  0  0  0  0
   -4.7950  -28.6350  -17.8090 N   0  3  0  0  0  0
   -6.1730  -22.2290  -16.8350 N   0  0  0  0  0  0
   -5.2670  -21.0940  -16.6980 C   0  0  2  0  0  0
   -5.4600  -20.1040  -17.8430 C   0  0  0  0  0  0
   -4.5780  -19.9310  -18.6850 O   0  0  0  0  0  0
   -3.8140  -21.5740  -16.6590 C   0  0  0  0  0  0
   -2.9190  -20.7350  -15.7630 C   0  0  0  0  0  0
   -1.4740  -21.6420  -15.1800 S   0  0  0  0  0  0
   -0.1510  -20.6180  -15.8200 C   0  0  0  0  0  0
   -6.6200  -19.4550  -17.8660 N   0  0  0  0  0  0
   -6.9300  -18.4820  -18.9070 C   0  0  2  0  0  0
   -6.0610  -17.2370  -18.7660 C   0  0  0  0  0  0
   -6.5110  -16.2080  -18.2650 O   0  0  0  0  0  0
   -8.4090  -18.0960  -18.8500 C   0  0  2  0  0  0
   -8.6930  -17.3770  -17.6630 O   0  0  0  0  0  0
   -9.3410  -19.2880  -18.9000 C   0  0  0  0  0  0
   -4.8110  -17.3410  -19.2110 N   0  0  0  0  0  0
   -3.8720  -16.2230  -19.1350 C   0  0  2  0  0  0
   -4.4620  -14.9600  -19.7610 C   0  0  0  0  0  0
   -4.3170  -14.7220  -20.9600 O   0  0  0  0  0  0
   -2.5470  -16.5750  -19.8230 C   0  0  0  0  0  0
   -2.6820  -17.4560  -21.0390 C   0  0  0  0  0  0
   -1.6630  -18.3270  -21.3900 C   0  0  0  0  0  0
   -3.8220  -17.4140  -21.8320 C   0  0  0  0  0  0
   -1.7740  -19.1360  -22.5040 C   0  0  0  0  0  0
   -3.9380  -18.2230  -22.9460 C   0  0  0  0  0  0
   -2.9130  -19.0840  -23.2830 C   0  0  0  0  0  0
   -5.1240  -14.1510  -18.9380 N   0  0  0  0  0  0
   -5.7360  -12.9110  -19.4070 C   0  0  2  0  0  0
   -4.7550  -12.0890  -20.2380 C   0  0  0  0  0  0
   -5.1540  -11.3580  -21.1440 O   0  0  0  0  0  0
   -6.2300  -12.0830  -18.2190 C   0  0  0  0  0  0
   -7.3590  -12.7430  -17.4430 C   0  0  0  0  0  0
   -7.3370  -12.3870  -15.9690 C   0  0  0  0  0  0
   -6.6680  -11.4410  -15.5560 O   0  0  0  0  0  0
   -8.0720  -13.1480  -15.1670 N   0  0  0  0  0  0
   -3.4700  -12.2150  -19.9220 N   0  0  0  0  0  0
   -2.4340  -11.4830  -20.6420 C   0  0  1  0  0  0
   -2.4260   -9.9920  -20.2470 C   0  0  1  0  0  0
   -1.3230   -9.2390  -20.9780 C   0  0  0  0  0  0
   -3.6650   -9.4120  -20.5460 O   0  0  0  0  0  0
   -4.5470   -8.9170  -19.3580 P   0  0  0  0  0  0
   -4.0250   -7.4890  -19.0490 O   0  0  0  0  0  0
   -5.9780   -8.8170  -19.9450 O   0  0  0  0  0  0
   -4.4750   -9.8260  -18.1670 O   0  0  0  0  0  0
   -1.0540  -12.0790  -20.3680 C   0  0  0  0  0  0
   -0.3880  -11.7050  -19.4020 O   0  0  0  0  0  0
   -0.6010  -13.0170  -21.2190 N   0  0  0  0  0  0
    0.7090  -13.6570  -21.0610 C   0  0  2  0  0  0
    1.8320  -12.6380  -20.9090 C   0  0  0  0  0  0
    1.8540  -11.6170  -21.5970 O   0  0  0  0  0  0
    0.8770  -14.4510  -22.3580 C   0  0  0  0  0  0
   -0.5130  -14.7160  -22.8230 C   0  0  0  0  0  0
   -1.3260  -13.5230  -22.4010 C   0  0  0  0  0  0
    2.7640  -12.9200  -20.0040 N   0  0  0  0  0  0
    3.8900  -12.0250  -19.7620 C   0  0  2  0  0  0
    5.1280  -12.4800  -20.5290 C   0  0  0  0  0  0
    6.2570  -12.2080  -20.1200 O   0  0  0  0  0  0
    4.2000  -11.9560  -18.2670 C   0  0  2  0  0  0
    4.5310  -13.2390  -17.7640 O   0  0  0  0  0  0
    3.0490  -11.4230  -17.4410 C   0  0  0  0  0  0
    4.9120  -13.1740  -21.6430 N   0  0  0  0  0  0
    6.0140  -13.6640  -22.4650 C   0  0  2  0  0  0
    6.9830  -14.5060  -21.6360 C   0  0  0  0  0  0
    7.8680  -13.9680  -20.9690 O   0  0  0  0  0  0
    6.7590  -12.4900  -23.1040 C   0  0  0  0  0  0
    7.1560  -12.7700  -24.5410 C   0  0  0  0  0  0
    6.4830  -13.5970  -25.1920 O   0  0  0  0  0  0
    8.1390  -12.1630  -25.0140 O   0  0  0  0  0  0
    6.8330  -15.8430  -21.6640 N   0  0  0  0  0  0
    7.7040  -16.7490  -20.9080 C   0  0  2  0  0  0
    9.1400  -16.7330  -21.4240 C   0  0  0  0  0  0
    9.5620  -17.6390  -22.1430 O   0  0  0  0  0  0
    7.0710  -18.1260  -21.1260 C   0  0  0  0  0  0
    6.2940  -17.9960  -22.3900 C   0  0  0  0  0  0
    5.8080  -16.5750  -22.4320 C   0  0  0  0  0  0
    9.8850  -15.6980  -21.0500 N   0  0  0  0  0  0
   11.2730  -15.5630  -21.4730 C   0  0  2  0  0  0
   12.1550  -16.6020  -20.7870 C   0  0  0  0  0  0
   12.0580  -16.8120  -19.5780 O   0  0  0  0  0  0
   11.7880  -14.1560  -21.1630 C   0  0  0  0  0  0
   11.0240  -13.0220  -21.8480 C   0  0  0  0  0  0
   10.9230  -11.8140  -20.9290 C   0  0  0  0  0  0
   11.6990  -12.6430  -23.1570 C   0  0  0  0  0  0
   13.0140  -17.2500  -21.5670 N   0  0  0  0  0  0
   13.9120  -18.2680  -21.0340 C   0  0  2  0  0  0
   14.8500  -18.7880  -22.1190 C   0  0  0  0  0  0
   15.9850  -18.2770  -22.2160 O   0  0  0  0  0  0
   13.1080  -19.4240  -20.4350 C   0  0  0  0  0  0
   13.5680  -19.8280  -19.0440 C   0  0  0  0  0  0
   14.9650  -20.4150  -19.0400 C   0  0  0  0  0  0
   15.1120  -21.6000  -19.4070 O   0  0  0  0  0  0
   15.9130  -19.6910  -18.6700 O   0  0  0  0  0  0
   14.4400  -19.7040  -22.8630 O   0  0  0  0  0  0
  -11.3335  -24.5918  -16.2715 H   0  0  0  0  0  0
  -12.2974  -23.6406  -15.0913 H   0  0  0  0  0  0
  -10.7146  -24.3365  -14.6046 H   0  0  0  0  0  0
  -11.1825  -22.2146  -16.7044 H   0  0  0  0  0  0
  -10.7366  -22.2157  -13.7607 H   0  0  0  0  0  0
   -9.5327  -21.2173  -14.6441 H   0  0  0  0  0  0
  -11.0869  -19.6090  -14.4036 H   0  0  0  0  0  0
  -11.8396  -20.3921  -15.8343 H   0  0  0  0  0  0
  -13.1489  -21.8423  -14.2000 H   0  0  0  0  0  0
  -12.5498  -20.7612  -12.8965 H   0  0  0  0  0  0
  -13.4661  -18.8973  -14.6321 H   0  0  0  0  0  0
  -14.5585  -20.2599  -15.0524 H   0  0  0  0  0  0
  -15.5226  -18.8306  -13.3417 H   0  0  0  0  0  0
  -14.0970  -19.1150  -12.2866 H   0  0  0  0  0  0
  -15.1894  -20.4776  -12.7068 H   0  0  0  0  0  0
   -9.0685  -24.4884  -14.9944 H   0  0  0  0  0  0
   -6.9532  -25.1985  -15.5624 H   0  0  0  0  0  0
   -7.7987  -25.6296  -17.8249 H   0  0  0  0  0  0
   -7.5656  -23.9094  -18.2868 H   0  0  0  0  0  0
   -5.8503  -25.3658  -19.2508 H   0  0  0  0  0  0
   -5.1415  -24.1763  -18.1066 H   0  0  0  0  0  0
   -4.0792  -26.2609  -17.6582 H   0  0  0  0  0  0
   -5.2649  -26.0084  -16.3327 H   0  0  0  0  0  0
   -6.5285  -27.7876  -16.9532 H   0  0  0  0  0  0
   -6.3076  -27.4684  -18.7071 H   0  0  0  0  0  0
   -5.3052  -29.5804  -18.0454 H   0  0  0  0  0  0
   -4.2805  -28.7280  -16.8412 H   0  0  0  0  0  0
   -4.0595  -28.4087  -18.5951 H   0  0  0  0  0  0
   -6.8489  -22.2918  -17.7005 H   0  0  0  0  0  0
   -5.5382  -20.6151  -15.7456 H   0  0  0  0  0  0
   -3.7791  -22.6070  -16.2826 H   0  0  0  0  0  0
   -3.3888  -21.5386  -17.6729 H   0  0  0  0  0  0
   -2.5633  -19.8557  -16.3200 H   0  0  0  0  0  0
   -3.4884  -20.4049  -14.8816 H   0  0  0  0  0  0
    0.8189  -21.0537  -15.5382 H   0  0  0  0  0  0
   -0.2344  -19.6054  -15.3985 H   0  0  0  0  0  0
   -0.2251  -20.5661  -16.9163 H   0  0  0  0  0  0
   -7.3543  -19.6667  -17.0748 H   0  0  0  0  0  0
   -6.7000  -18.9865  -19.8570 H   0  0  0  0  0  0
   -8.6149  -17.4234  -19.6957 H   0  0  0  0  0  0
   -8.1268  -16.4648  -17.4237 H   0  0  0  0  0  0
   -9.1448  -19.8687  -19.8134 H   0  0  0  0  0  0
  -10.3838  -18.9381  -18.9049 H   0  0  0  0  0  0
   -9.1715  -19.9232  -18.0181 H   0  0  0  0  0  0
   -4.4907  -18.2998  -19.6448 H   0  0  0  0  0  0
   -3.7140  -16.0627  -18.0583 H   0  0  0  0  0  0
   -2.0489  -15.6516  -20.1536 H   0  0  0  0  0  0
   -1.8966  -17.1090  -19.1147 H   0  0  0  0  0  0
   -0.7617  -18.3743  -20.7788 H   0  0  0  0  0  0
   -4.6342  -16.7350  -21.5723 H   0  0  0  0  0  0
   -0.9632  -19.8149  -22.7680 H   0  0  0  0  0  0
   -4.8386  -18.1814  -23.5586 H   0  0  0  0  0  0
   -3.0025  -19.7217  -24.1624 H   0  0  0  0  0  0
   -5.2038  -14.4375  -17.8790 H   0  0  0  0  0  0
   -6.5787  -13.2254  -20.0403 H   0  0  0  0  0  0
   -5.4002  -11.9197  -17.5156 H   0  0  0  0  0  0
   -6.6026  -11.1123  -18.5782 H   0  0  0  0  0  0
   -8.3259  -12.4184  -17.8551 H   0  0  0  0  0  0
   -7.2725  -13.8363  -17.5284 H   0  0  0  0  0  0
   -8.6541  -13.9836  -15.5829 H   0  0  0  0  0  0
   -8.0989  -12.9429  -14.0866 H   0  0  0  0  0  0
   -3.1950  -12.8892  -19.0975 H   0  0  0  0  0  0
   -2.7025  -11.6073  -21.7015 H   0  0  0  0  0  0
   -2.3161   -9.8714  -19.1592 H   0  0  0  0  0  0
   -0.3499   -9.6949  -20.7429 H   0  0  0  0  0  0
   -1.3223   -8.1869  -20.6568 H   0  0  0  0  0  0
   -1.5000   -9.2912  -22.0624 H   0  0  0  0  0  0
   -4.0225   -6.7218  -19.8373 H   0  0  0  0  0  0
   -6.1694   -8.1818  -20.8224 H   0  0  0  0  0  0
    0.7224  -14.2653  -20.1446 H   0  0  0  0  0  0
    1.4430  -13.8501  -23.0850 H   0  0  0  0  0  0
    1.4223  -15.3833  -22.1492 H   0  0  0  0  0  0
   -0.5176  -14.8333  -23.9167 H   0  0  0  0  0  0
   -0.8871  -15.6379  -22.3538 H   0  0  0  0  0  0
   -2.3522  -13.7950  -22.1130 H   0  0  0  0  0  0
   -1.3572  -12.7414  -23.1744 H   0  0  0  0  0  0
    2.6711  -13.8544  -19.4310 H   0  0  0  0  0  0
    3.5662  -11.0421  -20.1349 H   0  0  0  0  0  0
    5.0844  -11.3150  -18.1371 H   0  0  0  0  0  0
    5.3488  -13.8150  -18.2216 H   0  0  0  0  0  0
    2.7665  -10.4248  -17.8068 H   0  0  0  0  0  0
    3.3553  -11.3540  -16.3868 H   0  0  0  0  0  0
    2.1887  -12.1029  -17.5292 H   0  0  0  0  0  0
    3.8723  -13.3761  -21.9398 H   0  0  0  0  0  0
    5.5466  -14.2918  -23.2379 H   0  0  0  0  0  0
    6.1138  -11.5991  -23.0974 H   0  0  0  0  0  0
    7.6759  -12.2829  -22.5327 H   0  0  0  0  0  0
    6.7469  -13.8206  -26.2362 H   0  0  0  0  0  0
    7.7520  -16.4280  -19.8570 H   0  0  0  0  0  0
    7.8632  -18.8842  -21.2121 H   0  0  0  0  0  0
    6.4211  -18.3701  -20.2727 H   0  0  0  0  0  0
    6.9474  -18.2183  -23.2465 H   0  0  0  0  0  0
    5.4522  -18.7040  -22.3775 H   0  0  0  0  0  0
    4.8285  -16.4513  -21.9469 H   0  0  0  0  0  0
    5.7629  -16.1763  -23.4562 H   0  0  0  0  0  0
    9.4295  -14.9320  -20.4052 H   0  0  0  0  0  0
   11.2661  -15.7412  -22.5584 H   0  0  0  0  0  0
   11.7216  -13.9715  -20.0806 H   0  0  0  0  0  0
   12.8359  -14.0696  -21.4860 H   0  0  0  0  0  0
   10.0041  -13.3673  -22.0729 H   0  0  0  0  0  0
   10.4328  -12.1082  -19.9892 H   0  0  0  0  0  0
   10.3314  -11.0277  -21.4207 H   0  0  0  0  0  0
   11.9318  -11.4326  -20.7126 H   0  0  0  0  0  0
   11.7624  -13.5284  -23.8066 H   0  0  0  0  0  0
   12.7116  -12.2657  -22.9515 H   0  0  0  0  0  0
   11.1112  -11.8608  -23.6596 H   0  0  0  0  0  0
   13.0374  -17.0024  -22.6385 H   0  0  0  0  0  0
   14.4982  -17.7631  -20.2521 H   0  0  0  0  0  0
   12.0495  -19.1342  -20.3598 H   0  0  0  0  0  0
   13.2008  -20.3090  -21.0817 H   0  0  0  0  0  0
   13.5708  -18.9451  -18.3879 H   0  0  0  0  0  0
   12.8822  -20.5854  -18.6366 H   0  0  0  0  0  0
   16.1143  -22.0531  -19.4146 H   0  0  0  0  0  0
   15.0910  -20.1019  -23.6554 H   0  0  0  0  0  0
  1  2  1  0  0  0
  1112  1  0  0  0
  1113  1  0  0  0
  1114  1  0  0  0
  2  3  1  0  0  0
  2  5  1  0  0  0
  2115  1  0  0  0
  3  4  2  0  0  0
  3 10  1  0  0  0
  5  6  1  0  0  0
  5116  1  0  0  0
  5117  1  0  0  0
  6  7  1  0  0  0
  6118  1  0  0  0
  6119  1  0  0  0
  7  8  1  0  0  0
  7120  1  0  0  0
  7121  1  0  0  0
  8  9  1  0  0  0
  8122  1  0  0  0
  8123  1  0  0  0
  9124  1  0  0  0
  9125  1  0  0  0
  9126  1  0  0  0
 10 11  1  0  0  0
 10127  1  0  0  0
 11 12  1  0  0  0
 11 14  1  0  0  0
 11128  1  0  0  0
 12 13  2  0  0  0
 12 19  1  0  0  0
 14 15  1  0  0  0
 14129  1  0  0  0
 14130  1  0  0  0
 15 16  1  0  0  0
 15131  1  0  0  0
 15132  1  0  0  0
 16 17  1  0  0  0
 16133  1  0  0  0
 16134  1  0  0  0
 17 18  1  0  0  0
 17135  1  0  0  0
 17136  1  0  0  0
 18137  1  0  0  0
 18138  1  0  0  0
 18139  1  0  0  0
 19 20  1  0  0  0
 19140  1  0  0  0
 20 21  1  0  0  0
 20 23  1  0  0  0
 20141  1  0  0  0
 21 22  2  0  0  0
 21 27  1  0  0  0
 23 24  1  0  0  0
 23142  1  0  0  0
 23143  1  0  0  0
 24 25  1  0  0  0
 24144  1  0  0  0
 24145  1  0  0  0
 25 26  1  0  0  0
 26146  1  0  0  0
 26147  1  0  0  0
 26148  1  0  0  0
 27 28  1  0  0  0
 27149  1  0  0  0
 28 29  1  0  0  0
 28 31  1  0  0  0
 28150  1  0  0  0
 29 30  2  0  0  0
 29 34  1  0  0  0
 31 32  1  0  0  0
 31 33  1  0  0  0
 31151  1  0  0  0
 32152  1  0  0  0
 33153  1  0  0  0
 33154  1  0  0  0
 33155  1  0  0  0
 34 35  1  0  0  0
 34156  1  0  0  0
 35 36  1  0  0  0
 35 38  1  0  0  0
 35157  1  0  0  0
 36 37  2  0  0  0
 36 45  1  0  0  0
 38 39  1  0  0  0
 38158  1  0  0  0
 38159  1  0  0  0
 39 40  2  0  0  0
 39 41  1  0  0  0
 40 42  1  0  0  0
 40160  1  0  0  0
 41 43  2  0  0  0
 41161  1  0  0  0
 42 44  2  0  0  0
 42162  1  0  0  0
 43 44  1  0  0  0
 43163  1  0  0  0
 44164  1  0  0  0
 45 46  1  0  0  0
 45165  1  0  0  0
 46 47  1  0  0  0
 46 49  1  0  0  0
 46166  1  0  0  0
 47 48  2  0  0  0
 47 54  1  0  0  0
 49 50  1  0  0  0
 49167  1  0  0  0
 49168  1  0  0  0
 50 51  1  0  0  0
 50169  1  0  0  0
 50170  1  0  0  0
 51 52  2  0  0  0
 51 53  1  0  0  0
 53171  1  0  0  0
 53172  1  0  0  0
 54 55  1  0  0  0
 54173  1  0  0  0
 55 56  1  0  0  0
 55 63  1  0  0  0
 55174  1  0  0  0
 56 57  1  0  0  0
 56 58  1  0  0  0
 56175  1  0  0  0
 57176  1  0  0  0
 57177  1  0  0  0
 57178  1  0  0  0
 58 59  1  0  0  0
 59 60  1  0  0  0
 59 61  1  0  0  0
 59 62  2  0  0  0
 60179  1  0  0  0
 61180  1  0  0  0
 63 64  2  0  0  0
 63 65  1  0  0  0
 65 66  1  0  0  0
 65 71  1  0  0  0
 66 67  1  0  0  0
 66 69  1  0  0  0
 66181  1  0  0  0
 67 68  2  0  0  0
 67 72  1  0  0  0
 69 70  1  0  0  0
 69182  1  0  0  0
 69183  1  0  0  0
 70 71  1  0  0  0
 70184  1  0  0  0
 70185  1  0  0  0
 71186  1  0  0  0
 71187  1  0  0  0
 72 73  1  0  0  0
 72188  1  0  0  0
 73 74  1  0  0  0
 73 76  1  0  0  0
 73189  1  0  0  0
 74 75  2  0  0  0
 74 79  1  0  0  0
 76 77  1  0  0  0
 76 78  1  0  0  0
 76190  1  0  0  0
 77191  1  0  0  0
 78192  1  0  0  0
 78193  1  0  0  0
 78194  1  0  0  0
 79 80  1  0  0  0
 79195  1  0  0  0
 80 81  1  0  0  0
 80 83  1  0  0  0
 80196  1  0  0  0
 81 82  2  0  0  0
 81 87  1  0  0  0
 83 84  1  0  0  0
 83197  1  0  0  0
 83198  1  0  0  0
 84 85  1  0  0  0
 84 86  2  0  0  0
 85199  1  0  0  0
 87 88  1  0  0  0
 87 93  1  0  0  0
 88 89  1  0  0  0
 88 91  1  0  0  0
 88200  1  0  0  0
 89 90  2  0  0  0
 89 94  1  0  0  0
 91 92  1  0  0  0
 91201  1  0  0  0
 91202  1  0  0  0
 92 93  1  0  0  0
 92203  1  0  0  0
 92204  1  0  0  0
 93205  1  0  0  0
 93206  1  0  0  0
 94 95  1  0  0  0
 94207  1  0  0  0
 95 96  1  0  0  0
 95 98  1  0  0  0
 95208  1  0  0  0
 96 97  2  0  0  0
 96102  1  0  0  0
 98 99  1  0  0  0
 98209  1  0  0  0
 98210  1  0  0  0
 99100  1  0  0  0
 99101  1  0  0  0
 99211  1  0  0  0
100212  1  0  0  0
100213  1  0  0  0
100214  1  0  0  0
101215  1  0  0  0
101216  1  0  0  0
101217  1  0  0  0
102103  1  0  0  0
102218  1  0  0  0
103104  1  0  0  0
103106  1  0  0  0
103219  1  0  0  0
104105  2  0  0  0
104111  1  0  0  0
106107  1  0  0  0
106220  1  0  0  0
106221  1  0  0  0
107108  1  0  0  0
107222  1  0  0  0
107223  1  0  0  0
108109  1  0  0  0
108110  2  0  0  0
109224  1  0  0  0
111225  1  0  0  0
M  CHG  3   1   1   9   1  18   1
M  END
> <s_m_source_file>
../1j4p_ligand.sdf

> <i_m_source_file_index>
1

> <s_epik_input>
W05IMytdW0NIMl1bQ0gyXVtDSDJdW0NIMl1bQ0BIXShbTkgzK10pQyg9TylbTkhdW0NAQEhdKFtDSDJdW0NIMl1bQ0gyXVtDSDJdW05IMytdKUMoPU8pW05IXVtDQEBIXShbQ0gyXVtDSDJdU1tDSDNdKUMoPU8pW05IXVtDQEBIXShbQ0BIXShbT0hdKVtDSDNdKUMoPU8pW05IXVtDQEBIXShbQ0gyXWMxW2NIXVtjSF1bY0hdW2NIXVtjSF0xKUMoPU8pW05IXVtDQEBIXShbQ0gyXVtDSDJdQyg9TylbTkgyXSlDKD1PKVtOSF1bQ0BASF0oW0NAQEhdKFtDSDNdKU9QKD1PKShbT0hdKVtPSF0pQyg9TylOMltDQEBIXShbQ0gyXVtDSDJdW0NIMl0yKUMoPU8pW05IXVtDQEBIXShbQ0BIXShbT0hdKVtDSDNdKUMoPU8pW05IXVtDQEBIXShbQ0gyXUMoPU8pW09IXSlDKD1PKU4zW0NAQEhdKFtDSDJdW0NIMl1bQ0gyXTMpQyg9TylbTkhdW0NAQEhdKFtDSDJdW0NIXShbQ0gzXSlbQ0gzXSlDKD1PKVtOSF1bQ0BIXShDKD1PKVtPSF0pW0NIMl1bQ0gyXUMoPU8pW09IXQ==

> <s_epik_cmdline>
J2VwaWtfYXBwJywgJy1pbWFlJywgJ2xpZ2FuZF9wcm8ubWFlJywgJy1vbWFlJywgJ2xpZ2FuZF9wcmVwLm1hZScsICctbXMnLCAnMScsICctcGgnLCAnNycsICctcGh0JywgJzAuNScsICctbnQn

> <s_epik_pKa_notes>
Molecule size exceeds maximum supported for generating protonation states

$$$$
