1j4q_ligand
                    3D
 Schrodinger Suite 2020-3.
200199  0  0  1  0            999 V2000
  -15.7800  -24.1120  -17.4970 N   0  3  0  0  0  0
  -15.8380  -22.9570  -18.4310 C   0  0  2  0  0  0
  -14.5510  -22.1420  -18.3820 C   0  0  0  0  0  0
  -13.7420  -22.1900  -19.3080 O   0  0  0  0  0  0
  -17.0320  -22.0810  -18.0500 C   0  0  0  0  0  0
  -18.2000  -22.4730  -18.7520 O   0  0  0  0  0  0
  -14.3690  -21.3970  -17.2920 N   0  0  0  0  0  0
  -13.1820  -20.5610  -17.1020 C   0  0  2  0  0  0
  -12.8290  -19.7840  -18.3710 C   0  0  0  0  0  0
  -13.5760  -19.8000  -19.3510 O   0  0  0  0  0  0
  -11.9830  -21.4070  -16.6390 C   0  0  0  0  0  0
  -11.7180  -22.6930  -17.4310 C   0  0  0  0  0  0
  -11.0600  -22.3820  -18.7680 C   0  0  0  0  0  0
  -10.8450  -23.6380  -16.6170 C   0  0  0  0  0  0
  -11.6940  -19.0940  -18.3440 N   0  0  0  0  0  0
  -11.2490  -18.3070  -19.4890 C   0  0  2  0  0  0
   -9.7330  -18.1450  -19.4810 C   0  0  0  0  0  0
   -9.2110  -17.0760  -19.7980 O   0  0  0  0  0  0
  -11.9220  -16.9340  -19.4830 C   0  0  0  0  0  0
  -11.9140  -16.2460  -20.8390 C   0  0  0  0  0  0
  -12.9470  -16.8190  -21.7890 C   0  0  0  0  0  0
  -12.5590  -17.5830  -22.6970 O   0  0  0  0  0  0
  -14.1450  -16.5030  -21.6250 O   0  0  0  0  0  0
   -9.0300  -19.2130  -19.1180 N   0  0  0  0  0  0
   -7.5730  -19.1900  -19.0690 C   0  0  2  0  0  0
   -6.9840  -18.8120  -20.4240 C   0  0  0  0  0  0
   -7.3270  -19.4000  -21.4480 O   0  0  0  0  0  0
   -7.0030  -20.5540  -18.6390 C   0  0  0  0  0  0
   -5.5030  -20.4550  -18.4030 C   0  0  0  0  0  0
   -7.7140  -21.0600  -17.3930 C   0  0  0  0  0  0
   -6.0930  -17.8260  -20.4190 N   0  0  0  0  0  0
   -5.4540  -17.3690  -21.6470 C   0  0  1  0  0  0
   -4.4920  -16.1890  -21.3810 C   0  0  1  0  0  0
   -3.8120  -15.7410  -22.6680 C   0  0  0  0  0  0
   -5.1960  -15.1070  -20.8250 O   0  0  0  0  0  0
   -5.3080  -14.9870  -19.2670 P   0  0  0  0  0  0
   -6.7630  -15.4190  -18.9460 O   0  0  0  0  0  0
   -4.3300  -16.0490  -18.6990 O   0  0  0  0  0  0
   -4.9980  -13.6070  -18.7710 O   0  0  0  0  0  0
   -4.6820  -18.5070  -22.3100 C   0  0  0  0  0  0
   -3.7880  -19.0980  -21.7050 O   0  0  0  0  0  0
   -5.0380  -18.8100  -23.5540 N   0  0  0  0  0  0
   -4.3820  -19.8800  -24.3000 C   0  0  2  0  0  0
   -2.8730  -19.6650  -24.3550 C   0  0  0  0  0  0
   -2.3830  -18.8270  -25.1120 O   0  0  0  0  0  0
   -4.9500  -19.9620  -25.7180 C   0  0  0  0  0  0
   -5.0700  -21.3830  -26.2440 C   0  0  0  0  0  0
   -5.6520  -21.4390  -27.6430 C   0  0  0  0  0  0
   -5.4640  -22.4680  -28.3250 O   0  0  0  0  0  0
   -6.2970  -20.4520  -28.0580 O   0  0  0  0  0  0
   -2.1400  -20.4260  -23.5480 N   0  0  0  0  0  0
   -0.6870  -20.3190  -23.5040 C   0  0  2  0  0  0
   -0.0270  -21.6270  -23.9280 C   0  0  0  0  0  0
   -0.4230  -22.7060  -23.4860 O   0  0  0  0  0  0
   -0.2290  -19.9230  -22.1080 C   0  0  0  0  0  0
    0.9810  -21.5240  -24.7890 N   0  0  0  0  0  0
    1.6960  -22.6990  -25.2720 C   0  0  2  0  0  0
    2.3570  -23.4470  -24.1190 C   0  0  0  0  0  0
    2.5050  -22.9090  -23.0210 O   0  0  0  0  0  0
    2.7520  -22.2910  -26.3010 C   0  0  0  0  0  0
    2.1380  -21.7370  -27.5710 C   0  0  0  0  0  0
    2.8520  -21.0370  -28.3200 O   0  0  0  0  0  0
    0.9430  -22.0040  -27.8190 O   0  0  0  0  0  0
    2.7500  -24.6900  -24.3740 N   0  0  0  0  0  0
    3.3950  -25.5120  -23.3570 C   0  0  2  0  0  0
    4.6930  -26.1180  -23.8810 C   0  0  0  0  0  0
    4.9370  -27.3150  -23.7350 O   0  0  0  0  0  0
    2.4500  -26.6070  -22.8870 C   0  0  0  0  0  0
    5.5240  -25.2790  -24.4940 N   0  0  0  0  0  0
    6.7990  -25.7300  -25.0410 C   0  0  2  0  0  0
    7.9580  -25.2890  -24.1520 C   0  0  0  0  0  0
    8.9550  -24.7510  -24.6350 O   0  0  0  0  0  0
    6.9890  -25.1880  -26.4590 C   0  0  2  0  0  0
    7.1640  -23.7830  -26.4380 O   0  0  0  0  0  0
    5.8270  -25.4930  -27.3770 C   0  0  0  0  0  0
    7.8210  -25.5300  -22.8480 N   0  0  0  0  0  0
    8.8450  -25.1720  -21.8770 C   0  0  2  0  0  0
    9.4490  -23.7980  -22.1690 C   0  0  0  0  0  0
   10.6640  -23.6130  -22.1030 O   0  0  0  0  0  0
    9.9280  -26.2510  -21.8480 C   0  0  0  0  0  0
   10.9690  -26.1370  -22.9820 C   0  0  0  0  0  0
   12.3560  -25.8190  -22.9880 C   0  0  0  0  0  0
   11.7250  -27.2110  -23.4020 C   0  0  0  0  0  0
    8.5830  -22.8390  -22.4870 N   0  0  0  0  0  0
    9.0050  -21.4710  -22.7890 C   0  0  2  0  0  0
   10.2730  -21.4430  -23.6410 C   0  0  0  0  0  0
   11.3650  -21.1770  -23.1390 O   0  0  0  0  0  0
    9.2430  -20.6510  -21.5030 C   0  0  0  0  0  0
    7.9180  -20.2690  -20.8620 C   0  0  0  0  0  0
   10.1130  -21.4230  -20.5220 C   0  0  0  0  0  0
   10.1180  -21.7210  -24.9310 N   0  0  0  0  0  0
   11.2490  -21.7280  -25.8530 C   0  0  2  0  0  0
   11.6270  -20.3080  -26.2600 C   0  0  0  0  0  0
   10.7250  -19.5540  -26.6810 O   0  0  0  0  0  0
   10.9160  -22.5570  -27.0950 C   0  0  0  0  0  0
   11.1250  -24.0500  -26.9030 C   0  0  0  0  0  0
   10.4340  -24.8770  -27.9700 C   0  0  0  0  0  0
    9.9790  -24.3470  -28.9840 O   0  0  0  0  0  0
   10.3500  -26.1820  -27.7450 N   0  0  0  0  0  0
   12.8220  -19.9620  -26.1550 O   0  0  0  0  0  0
  -14.9248  -24.7525  -17.7586 H   0  0  0  0  0  0
  -16.7107  -24.6932  -17.5744 H   0  0  0  0  0  0
  -15.6615  -23.7449  -16.4669 H   0  0  0  0  0  0
  -15.9507  -23.3572  -19.4494 H   0  0  0  0  0  0
  -17.2240  -22.1721  -16.9707 H   0  0  0  0  0  0
  -16.8103  -21.0319  -18.2957 H   0  0  0  0  0  0
  -19.1466  -21.9376  -18.5869 H   0  0  0  0  0  0
  -15.1511  -21.4256  -16.5190 H   0  0  0  0  0  0
  -13.4699  -19.8471  -16.3163 H   0  0  0  0  0  0
  -11.0624  -20.8094  -16.7125 H   0  0  0  0  0  0
  -12.1354  -21.7187  -15.5951 H   0  0  0  0  0  0
  -12.6789  -23.1879  -17.6352 H   0  0  0  0  0  0
  -11.7027  -21.6991  -19.3429 H   0  0  0  0  0  0
  -10.9187  -23.3152  -19.3330 H   0  0  0  0  0  0
  -10.0832  -21.9070  -18.5942 H   0  0  0  0  0  0
  -11.3342  -23.8522  -15.6553 H   0  0  0  0  0  0
   -9.8673  -23.1682  -16.4344 H   0  0  0  0  0  0
  -10.7028  -24.5763  -17.1731 H   0  0  0  0  0  0
  -11.0848  -19.1263  -17.4287 H   0  0  0  0  0  0
  -11.5539  -18.8801  -20.3770 H   0  0  0  0  0  0
  -12.9727  -17.0420  -19.1758 H   0  0  0  0  0  0
  -11.3995  -16.2726  -18.7762 H   0  0  0  0  0  0
  -12.1320  -15.1758  -20.7084 H   0  0  0  0  0  0
  -10.9244  -16.3645  -21.3045 H   0  0  0  0  0  0
  -14.9167  -16.9034  -22.2990 H   0  0  0  0  0  0
   -9.5749  -20.1304  -18.8505 H   0  0  0  0  0  0
   -7.3444  -18.4159  -18.3217 H   0  0  0  0  0  0
   -7.1704  -21.2856  -19.4432 H   0  0  0  0  0  0
   -5.0116  -20.0877  -19.3161 H   0  0  0  0  0  0
   -5.1058  -21.4483  -18.1470 H   0  0  0  0  0  0
   -5.3073  -19.7574  -17.5753 H   0  0  0  0  0  0
   -8.7948  -21.1230  -17.5877 H   0  0  0  0  0  0
   -7.5314  -20.3660  -16.5593 H   0  0  0  0  0  0
   -7.3299  -22.0569  -17.1310 H   0  0  0  0  0  0
   -5.8410  -17.3524  -19.4587 H   0  0  0  0  0  0
   -6.2928  -17.0511  -22.2836 H   0  0  0  0  0  0
   -3.7415  -16.4554  -20.6222 H   0  0  0  0  0  0
   -3.2604  -16.5866  -23.1048 H   0  0  0  0  0  0
   -3.1122  -14.9216  -22.4469 H   0  0  0  0  0  0
   -4.5723  -15.3912  -23.3818 H   0  0  0  0  0  0
   -7.1228  -16.4116  -19.2547 H   0  0  0  0  0  0
   -4.4419  -17.1063  -18.9810 H   0  0  0  0  0  0
   -5.8490  -18.2315  -24.0205 H   0  0  0  0  0  0
   -4.6006  -20.8027  -23.7424 H   0  0  0  0  0  0
   -5.9567  -19.5190  -25.7359 H   0  0  0  0  0  0
   -4.2944  -19.4106  -26.4081 H   0  0  0  0  0  0
   -4.0737  -21.8484  -26.2736 H   0  0  0  0  0  0
   -5.7270  -21.9651  -25.5811 H   0  0  0  0  0  0
   -6.7309  -20.4640  -29.0687 H   0  0  0  0  0  0
   -2.6579  -21.1507  -22.9026 H   0  0  0  0  0  0
   -0.4272  -19.5287  -24.2237 H   0  0  0  0  0  0
   -0.7132  -18.9791  -21.8173 H   0  0  0  0  0  0
    0.8631  -19.7913  -22.1040 H   0  0  0  0  0  0
   -0.5058  -20.7123  -21.3936 H   0  0  0  0  0  0
    1.2717  -20.5218  -25.1368 H   0  0  0  0  0  0
    0.9299  -23.3375  -25.7361 H   0  0  0  0  0  0
    3.4018  -21.5144  -25.8713 H   0  0  0  0  0  0
    3.3584  -23.1680  -26.5716 H   0  0  0  0  0  0
    0.4710  -21.6155  -28.7335 H   0  0  0  0  0  0
    2.5781  -25.0961  -25.3817 H   0  0  0  0  0  0
    3.6218  -24.8291  -22.5250 H   0  0  0  0  0  0
    1.5204  -26.1534  -22.5128 H   0  0  0  0  0  0
    2.9278  -27.1823  -22.0803 H   0  0  0  0  0  0
    2.2184  -27.2773  -23.7279 H   0  0  0  0  0  0
    5.2299  -24.2228  -24.5834 H   0  0  0  0  0  0
    6.7423  -26.8285  -25.0548 H   0  0  0  0  0  0
    7.9119  -25.6255  -26.8675 H   0  0  0  0  0  0
    7.9629  -23.3373  -25.8272 H   0  0  0  0  0  0
    5.6651  -26.5804  -27.4147 H   0  0  0  0  0  0
    6.0504  -25.1203  -28.3875 H   0  0  0  0  0  0
    4.9201  -25.0003  -26.9966 H   0  0  0  0  0  0
    6.8932  -26.0178  -22.5144 H   0  0  0  0  0  0
    8.3249  -25.1226  -20.9090 H   0  0  0  0  0  0
   10.4794  -26.1916  -20.8980 H   0  0  0  0  0  0
    9.4604  -27.2425  -21.9391 H   0  0  0  0  0  0
   10.1981  -25.5284  -23.4773 H   0  0  0  0  0  0
   12.4956  -24.7808  -22.6524 H   0  0  0  0  0  0
   12.7535  -25.9314  -24.0075 H   0  0  0  0  0  0
   12.8910  -26.4990  -22.3087 H   0  0  0  0  0  0
   11.0623  -28.0585  -23.6315 H   0  0  0  0  0  0
   12.4266  -27.4994  -22.6054 H   0  0  0  0  0  0
   12.2891  -26.9319  -24.3041 H   0  0  0  0  0  0
    7.5161  -23.1051  -22.5184 H   0  0  0  0  0  0
    8.1591  -21.0652  -23.3633 H   0  0  0  0  0  0
    9.7745  -19.7230  -21.7607 H   0  0  0  0  0  0
    7.3064  -19.7129  -21.5878 H   0  0  0  0  0  0
    8.1055  -19.6380  -19.9807 H   0  0  0  0  0  0
    7.3837  -21.1798  -20.5539 H   0  0  0  0  0  0
   11.0644  -21.6885  -21.0060 H   0  0  0  0  0  0
    9.5908  -22.3402  -20.2120 H   0  0  0  0  0  0
   10.3126  -20.7984  -19.6388 H   0  0  0  0  0  0
    9.1069  -21.9496  -25.2991 H   0  0  0  0  0  0
   12.0802  -22.1857  -25.2966 H   0  0  0  0  0  0
   10.9655  -18.5238  -26.9825 H   0  0  0  0  0  0
    9.8606  -22.4049  -27.3652 H   0  0  0  0  0  0
   11.5577  -22.2400  -27.9303 H   0  0  0  0  0  0
   12.2004  -24.2778  -26.9427 H   0  0  0  0  0  0
   10.7216  -24.3541  -25.9258 H   0  0  0  0  0  0
   10.7719  -26.6095  -26.8235 H   0  0  0  0  0  0
    9.8584  -26.8363  -28.4800 H   0  0  0  0  0  0
  1  2  1  0  0  0
  1101  1  0  0  0
  1102  1  0  0  0
  1103  1  0  0  0
  2  3  1  0  0  0
  2  5  1  0  0  0
  2104  1  0  0  0
  3  4  2  0  0  0
  3  7  1  0  0  0
  5  6  1  0  0  0
  5105  1  0  0  0
  5106  1  0  0  0
  6107  1  0  0  0
  7  8  1  0  0  0
  7108  1  0  0  0
  8  9  1  0  0  0
  8 11  1  0  0  0
  8109  1  0  0  0
  9 10  2  0  0  0
  9 15  1  0  0  0
 11 12  1  0  0  0
 11110  1  0  0  0
 11111  1  0  0  0
 12 13  1  0  0  0
 12 14  1  0  0  0
 12112  1  0  0  0
 13113  1  0  0  0
 13114  1  0  0  0
 13115  1  0  0  0
 14116  1  0  0  0
 14117  1  0  0  0
 14118  1  0  0  0
 15 16  1  0  0  0
 15119  1  0  0  0
 16 17  1  0  0  0
 16 19  1  0  0  0
 16120  1  0  0  0
 17 18  2  0  0  0
 17 24  1  0  0  0
 19 20  1  0  0  0
 19121  1  0  0  0
 19122  1  0  0  0
 20 21  1  0  0  0
 20123  1  0  0  0
 20124  1  0  0  0
 21 22  2  0  0  0
 21 23  1  0  0  0
 23125  1  0  0  0
 24 25  1  0  0  0
 24126  1  0  0  0
 25 26  1  0  0  0
 25 28  1  0  0  0
 25127  1  0  0  0
 26 27  2  0  0  0
 26 31  1  0  0  0
 28 29  1  0  0  0
 28 30  1  0  0  0
 28128  1  0  0  0
 29129  1  0  0  0
 29130  1  0  0  0
 29131  1  0  0  0
 30132  1  0  0  0
 30133  1  0  0  0
 30134  1  0  0  0
 31 32  1  0  0  0
 31135  1  0  0  0
 32 33  1  0  0  0
 32 40  1  0  0  0
 32136  1  0  0  0
 33 34  1  0  0  0
 33 35  1  0  0  0
 33137  1  0  0  0
 34138  1  0  0  0
 34139  1  0  0  0
 34140  1  0  0  0
 35 36  1  0  0  0
 36 37  1  0  0  0
 36 38  1  0  0  0
 36 39  2  0  0  0
 37141  1  0  0  0
 38142  1  0  0  0
 40 41  2  0  0  0
 40 42  1  0  0  0
 42 43  1  0  0  0
 42143  1  0  0  0
 43 44  1  0  0  0
 43 46  1  0  0  0
 43144  1  0  0  0
 44 45  2  0  0  0
 44 51  1  0  0  0
 46 47  1  0  0  0
 46145  1  0  0  0
 46146  1  0  0  0
 47 48  1  0  0  0
 47147  1  0  0  0
 47148  1  0  0  0
 48 49  2  0  0  0
 48 50  1  0  0  0
 50149  1  0  0  0
 51 52  1  0  0  0
 51150  1  0  0  0
 52 53  1  0  0  0
 52 55  1  0  0  0
 52151  1  0  0  0
 53 54  2  0  0  0
 53 56  1  0  0  0
 55152  1  0  0  0
 55153  1  0  0  0
 55154  1  0  0  0
 56 57  1  0  0  0
 56155  1  0  0  0
 57 58  1  0  0  0
 57 60  1  0  0  0
 57156  1  0  0  0
 58 59  2  0  0  0
 58 64  1  0  0  0
 60 61  1  0  0  0
 60157  1  0  0  0
 60158  1  0  0  0
 61 62  2  0  0  0
 61 63  1  0  0  0
 63159  1  0  0  0
 64 65  1  0  0  0
 64160  1  0  0  0
 65 66  1  0  0  0
 65 68  1  0  0  0
 65161  1  0  0  0
 66 67  2  0  0  0
 66 69  1  0  0  0
 68162  1  0  0  0
 68163  1  0  0  0
 68164  1  0  0  0
 69 70  1  0  0  0
 69165  1  0  0  0
 70 71  1  0  0  0
 70 73  1  0  0  0
 70166  1  0  0  0
 71 72  2  0  0  0
 71 76  1  0  0  0
 73 74  1  0  0  0
 73 75  1  0  0  0
 73167  1  0  0  0
 74168  1  0  0  0
 75169  1  0  0  0
 75170  1  0  0  0
 75171  1  0  0  0
 76 77  1  0  0  0
 76172  1  0  0  0
 77 78  1  0  0  0
 77 80  1  0  0  0
 77173  1  0  0  0
 78 79  2  0  0  0
 78 84  1  0  0  0
 80 81  1  0  0  0
 80174  1  0  0  0
 80175  1  0  0  0
 81 82  1  0  0  0
 81 83  1  0  0  0
 81176  1  0  0  0
 82177  1  0  0  0
 82178  1  0  0  0
 82179  1  0  0  0
 83180  1  0  0  0
 83181  1  0  0  0
 83182  1  0  0  0
 84 85  1  0  0  0
 84183  1  0  0  0
 85 86  1  0  0  0
 85 88  1  0  0  0
 85184  1  0  0  0
 86 87  2  0  0  0
 86 91  1  0  0  0
 88 89  1  0  0  0
 88 90  1  0  0  0
 88185  1  0  0  0
 89186  1  0  0  0
 89187  1  0  0  0
 89188  1  0  0  0
 90189  1  0  0  0
 90190  1  0  0  0
 90191  1  0  0  0
 91 92  1  0  0  0
 91192  1  0  0  0
 92 93  1  0  0  0
 92 95  1  0  0  0
 92193  1  0  0  0
 93 94  1  0  0  0
 93100  2  0  0  0
 94194  1  0  0  0
 95 96  1  0  0  0
 95195  1  0  0  0
 95196  1  0  0  0
 96 97  1  0  0  0
 96197  1  0  0  0
 96198  1  0  0  0
 97 98  2  0  0  0
 97 99  1  0  0  0
 99199  1  0  0  0
 99200  1  0  0  0
M  CHG  1   1   1
M  END
> <s_m_source_file>
../1j4q_ligand.sdf

> <i_m_source_file_index>
1

> <s_epik_input>
W09IXVtDSDJdW0NASF0oW05IMytdKUMoPU8pW05IXVtDQEBIXShbQ0gyXVtDSF0oW0NIM10pW0NIM10pQyg9TylbTkhdW0NAQEhdKFtDSDJdW0NIMl1DKD1PKVtPSF0pQyg9TylbTkhdW0NAQEhdKFtDSF0oW0NIM10pW0NIM10pQyg9TylbTkhdW0NAQEhdKFtDQEBIXShbQ0gzXSlPUCg9TykoW09IXSlbT0hdKUMoPU8pW05IXVtDQEBIXShbQ0gyXVtDSDJdQyg9TylbT0hdKUMoPU8pW05IXVtDQEBIXShbQ0gzXSlDKD1PKVtOSF1bQ0BASF0oW0NIMl1DKD1PKVtPSF0pQyg9TylbTkhdW0NAQEhdKFtDSDNdKUMoPU8pW05IXVtDQEBIXShbQ0BIXShbT0hdKVtDSDNdKUMoPU8pW05IXVtDQEBIXShbQ0gyXVtDSF0oW0NIM10pW0NIM10pQyg9TylbTkhdW0NAQEhdKFtDSF0oW0NIM10pW0NIM10pQyg9TylbTkhdW0NASF0oQyg9TylbT0hdKVtDSDJdW0NIMl1DKD1PKVtOSDJd

> <s_epik_cmdline>
J2VwaWtfYXBwJywgJy1pbWFlJywgJ2xpZ2FuZF9wcm8ubWFlJywgJy1vbWFlJywgJ2xpZ2FuZF9wcmVwLm1hZScsICctbXMnLCAnMScsICctcGgnLCAnNycsICctcGh0JywgJzAuNScsICctbnQn

> <s_epik_pKa_notes>
Molecule size exceeds maximum supported for generating protonation states

$$$$
