1j4r_ligand
                    3D
 Schrodinger Suite 2020-3.
 87 90  0  0  1  0            999 V2000
   26.1080   12.5010   25.8480 C   0  0  0  0  0  0
   25.4980   13.4760   26.6600 C   0  0  0  0  0  0
   26.0770   13.8120   27.9100 C   0  0  0  0  0  0
   27.2710   13.1660   28.3470 C   0  0  0  0  0  0
   27.8790   12.1900   27.5380 C   0  0  0  0  0  0
   27.3000   11.8610   26.2890 C   0  0  0  0  0  0
   25.4930   14.7690   28.7090 O   0  0  0  0  0  0
   24.3180   15.4540   28.2530 C   0  0  0  0  0  0
   27.8620   13.5160   29.5560 O   0  0  0  0  0  0
   27.0810   13.3660   30.7660 C   0  0  0  0  0  0
   29.0040   11.5230   28.0010 O   0  0  0  0  0  0
   29.8390   10.8120   27.0790 C   0  0  0  0  0  0
   25.5020   12.0550   24.5480 C   0  0  0  0  0  0
   26.4600   11.8800   23.4410 C   0  0  0  0  0  0
   26.8220   10.7470   23.1630 O   0  0  0  0  0  0
   26.9580   12.9410   22.7610 N   0  0  0  0  0  0
   26.6800   14.3710   23.1220 C   0  0  0  0  0  0
   26.3260   15.2550   21.8850 C   0  0  0  0  0  0
   27.3440   15.0610   20.7410 C   0  0  0  0  0  0
   27.5640   13.5710   20.4080 C   0  0  0  0  0  0
   27.9380   12.7540   21.6590 C   0  0  1  0  0  0
   29.3200   13.1580   22.1470 C   0  0  0  0  0  0
   30.2350   13.2670   21.3540 O   0  0  0  0  0  0
   29.5670   13.4060   23.4560 O   0  0  0  0  0  0
   30.9210   13.7700   23.7570 C   0  0  2  0  0  0
   31.6030   12.6040   24.4680 C   0  0  0  0  0  0
   33.0100   13.0100   24.9400 C   0  0  0  0  0  0
   33.9540   11.8460   24.7210 C   0  0  0  0  0  0
   34.6170   11.9980   23.3780 C   0  0  0  0  0  0
   35.5520   13.0340   23.1550 C   0  0  0  0  0  0
   36.2040   13.1090   21.9800 N   0  0  0  0  0  0
   35.9870   12.2050   20.9830 C   0  0  0  0  0  0
   35.0640   11.1610   21.1400 C   0  0  0  0  0  0
   34.3710   11.0620   22.3540 C   0  0  0  0  0  0
   30.9830   15.0380   24.6320 C   0  0  0  0  0  0
   29.6070   15.6140   24.8810 C   0  0  0  0  0  0
   29.2190   15.3260   26.3300 C   0  0  0  0  0  0
   28.2530   16.3890   26.7840 C   0  0  0  0  0  0
   27.0480   16.5770   26.0930 C   0  0  0  0  0  0
   26.1480   17.5590   26.5090 C   0  0  0  0  0  0
   26.4540   18.3600   27.6170 C   0  0  0  0  0  0
   27.6620   18.1690   28.3070 C   0  0  0  0  0  0
   28.5610   17.1860   27.8890 C   0  0  0  0  0  0
   24.5090   12.8770   24.1440 F   0  0  0  0  0  0
   24.9450   10.8550   24.7810 F   0  0  0  0  0  0
   24.5846   13.9704   26.3292 H   0  0  0  0  0  0
   27.7727   11.1087   25.6576 H   0  0  0  0  0  0
   23.9952   16.1767   29.0169 H   0  0  0  0  0  0
   23.5141   14.7245   28.0754 H   0  0  0  0  0  0
   24.5438   15.9860   27.3171 H   0  0  0  0  0  0
   27.6819   13.6814   31.6317 H   0  0  0  0  0  0
   26.7898   12.3121   30.8862 H   0  0  0  0  0  0
   26.1780   13.9906   30.6993 H   0  0  0  0  0  0
   30.6758   10.3500   27.6234 H   0  0  0  0  0  0
   30.2325   11.5112   26.3265 H   0  0  0  0  0  0
   29.2497   10.0290   26.5794 H   0  0  0  0  0  0
   25.8294   14.4147   23.8181 H   0  0  0  0  0  0
   27.5687   14.8077   23.6011 H   0  0  0  0  0  0
   25.3277   14.9816   21.5126 H   0  0  0  0  0  0
   26.3302   16.3151   22.1786 H   0  0  0  0  0  0
   26.9771   15.5645   19.8344 H   0  0  0  0  0  0
   28.3120   15.4934   21.0343 H   0  0  0  0  0  0
   26.6405   13.1498   19.9841 H   0  0  0  0  0  0
   28.3800   13.4753   19.6766 H   0  0  0  0  0  0
   27.9167   11.6848   21.4016 H   0  0  0  0  0  0
   31.3849   13.9693   22.7797 H   0  0  0  0  0  0
   31.0046   12.3069   25.3419 H   0  0  0  0  0  0
   31.6896   11.7529   23.7765 H   0  0  0  0  0  0
   33.3531   13.8814   24.3630 H   0  0  0  0  0  0
   32.9781   13.2676   26.0089 H   0  0  0  0  0  0
   34.7176   11.8392   25.5128 H   0  0  0  0  0  0
   33.3872   10.9037   24.7501 H   0  0  0  0  0  0
   35.7449   13.7717   23.9339 H   0  0  0  0  0  0
   36.5402   12.2952   20.0481 H   0  0  0  0  0  0
   34.8899   10.4442   20.3375 H   0  0  0  0  0  0
   33.6443   10.2638   22.5055 H   0  0  0  0  0  0
   31.4358   14.7912   25.6036 H   0  0  0  0  0  0
   31.5920   15.8024   24.1272 H   0  0  0  0  0  0
   29.6267   16.6997   24.7053 H   0  0  0  0  0  0
   28.8840   15.1450   24.1974 H   0  0  0  0  0  0
   28.7450   14.3353   26.3927 H   0  0  0  0  0  0
   30.1199   15.3420   26.9610 H   0  0  0  0  0  0
   26.8135   15.9550   25.2291 H   0  0  0  0  0  0
   25.2096   17.7025   25.9734 H   0  0  0  0  0  0
   25.7553   19.1305   27.9430 H   0  0  0  0  0  0
   27.8984   18.7898   29.1712 H   0  0  0  0  0  0
   29.5000   17.0410   28.4231 H   0  0  0  0  0  0
  1 13  1  0  0  0
  1  6  2  0  0  0
  1  2  1  0  0  0
  2  3  2  0  0  0
  2 46  1  0  0  0
  3  7  1  0  0  0
  3  4  1  0  0  0
  4  9  1  0  0  0
  4  5  2  0  0  0
  5 11  1  0  0  0
  5  6  1  0  0  0
  6 47  1  0  0  0
  7  8  1  0  0  0
  8 48  1  0  0  0
  8 49  1  0  0  0
  8 50  1  0  0  0
  9 10  1  0  0  0
 10 51  1  0  0  0
 10 52  1  0  0  0
 10 53  1  0  0  0
 11 12  1  0  0  0
 12 54  1  0  0  0
 12 55  1  0  0  0
 12 56  1  0  0  0
 13 14  1  0  0  0
 13 44  1  0  0  0
 13 45  1  0  0  0
 14 16  1  0  0  0
 14 15  2  0  0  0
 16 21  1  0  0  0
 16 17  1  0  0  0
 17 18  1  0  0  0
 17 57  1  0  0  0
 17 58  1  0  0  0
 18 19  1  0  0  0
 18 59  1  0  0  0
 18 60  1  0  0  0
 19 20  1  0  0  0
 19 61  1  0  0  0
 19 62  1  0  0  0
 20 21  1  0  0  0
 20 63  1  0  0  0
 20 64  1  0  0  0
 21 22  1  0  0  0
 21 65  1  0  0  0
 22 24  1  0  0  0
 22 23  2  0  0  0
 24 25  1  0  0  0
 25 35  1  0  0  0
 25 26  1  0  0  0
 25 66  1  0  0  0
 26 27  1  0  0  0
 26 67  1  0  0  0
 26 68  1  0  0  0
 27 28  1  0  0  0
 27 69  1  0  0  0
 27 70  1  0  0  0
 28 29  1  0  0  0
 28 71  1  0  0  0
 28 72  1  0  0  0
 29 34  2  0  0  0
 29 30  1  0  0  0
 30 31  2  0  0  0
 30 73  1  0  0  0
 31 32  1  0  0  0
 32 33  2  0  0  0
 32 74  1  0  0  0
 33 34  1  0  0  0
 33 75  1  0  0  0
 34 76  1  0  0  0
 35 36  1  0  0  0
 35 77  1  0  0  0
 35 78  1  0  0  0
 36 37  1  0  0  0
 36 79  1  0  0  0
 36 80  1  0  0  0
 37 38  1  0  0  0
 37 81  1  0  0  0
 37 82  1  0  0  0
 38 43  2  0  0  0
 38 39  1  0  0  0
 39 40  2  0  0  0
 39 83  1  0  0  0
 40 41  1  0  0  0
 40 84  1  0  0  0
 41 42  2  0  0  0
 41 85  1  0  0  0
 42 43  1  0  0  0
 42 86  1  0  0  0
 43 87  1  0  0  0
M  END
> <s_m_source_file>
../1j4r_ligand.sdf

> <i_m_source_file_index>
1

> <s_epik_input>
W0NIM11PYyhbY0hdMSljKE9bQ0gzXSljKE9bQ0gzXSlbY0hdYzFDKEYpKEYpQyg9TylOMltDSDJdW0NIMl1bQ0gyXVtDSDJdW0NASF0yQyg9TylPW0NASF0oW0NIMl1bQ0gyXVtDSDJdYzNbY0hdbltjSF1bY0hdW2NIXTMpW0NIMl1bQ0gyXVtDSDJdYzRbY0hdW2NIXVtjSF1bY0hdW2NIXTQ=

> <s_epik_cmdline>
J2VwaWtfYXBwJywgJy1pbWFlJywgJ2xpZ2FuZF9wcm8ubWFlJywgJy1vbWFlJywgJ2xpZ2FuZF9wcmVwLm1hZScsICctbXMnLCAnMScsICctcGgnLCAnNycsICctcGh0JywgJzAuNScsICctbnQn

> <r_lp_tautomer_probability>
1

> <r_epik_Ionization_Penalty>
  0.0154

> <r_epik_Ionization_Penalty_Charging>
  0.0000

> <r_epik_Ionization_Penalty_Neutral>
  0.0154

> <r_epik_State_Penalty>
  0.0121

> <r_epik_Charging_Adjusted_Penalty>
0.0121235867289831

> <i_epik_Tot_Q>
0

> <i_epik_Tot_abs_Q>
0

> <s_epik_Chemistry_Notes>
This compound has an ester and may undergo hydrolysis at high or low pH.

$$$$
