1j5i_ligand
                    3D
 Schrodinger Suite 2020-3.
 42 44  0  0  1  0            999 V2000
    0.6830    7.1240    1.2830 C   0  0  0  0  0  0
    0.2690    6.7680   -0.0040 C   0  0  0  0  0  0
   -0.5130    5.6060   -0.1660 C   0  0  0  0  0  0
   -0.9360    5.1910   -1.4240 C   0  0  0  0  0  0
   -0.5480    5.9130   -2.5360 C   0  0  0  0  0  0
    0.2380    7.0730   -2.4050 C   0  0  0  0  0  0
    0.6290    7.5510   -1.1220 C   0  0  0  0  0  0
    1.0210    8.9340   -0.9690 C   0  0  0  0  0  0
    1.4950    9.5480   -1.9250 O   0  0  0  0  0  0
    0.9320    9.6840    0.2910 O   0  0  0  0  0  0
    0.8290   11.1440    0.2320 C   0  0  2  0  0  0
    0.3890   11.7390    1.5740 C   0  0  2  0  0  0
   -0.9370   11.9400    1.5490 C   0  0  0  0  0  0
   -1.5270   11.7790    0.1960 C   0  0  0  0  0  0
   -0.3080   11.5460   -0.7200 C   0  0  1  0  0  0
   -0.0260   12.7910   -1.4190 O   0  0  0  0  0  0
    1.0480   12.9880    1.7900 O   0  0  0  0  0  0
    0.5790    7.7470   -3.5890 O   0  0  0  0  0  0
   -0.8700    4.8870    0.9520 C   0  0  0  0  0  0
   -0.4510    5.2860    2.2130 C   0  0  0  0  0  0
    0.3320    6.4010    2.3900 C   0  0  0  0  0  0
    0.7360    6.7450    3.6700 O   0  0  0  0  0  0
    1.1760    8.0560    4.0800 C   0  0  0  0  0  0
   -1.7310    3.6670    0.8740 C   0  0  0  0  0  0
    1.3073    8.0086    1.4088 H   0  0  0  0  0  0
   -1.5655    4.3076   -1.5313 H   0  0  0  0  0  0
   -0.8546    5.5800   -3.5276 H   0  0  0  0  0  0
    1.8368   11.4605   -0.0750 H   0  0  0  0  0  0
    0.5610   11.0911    2.4462 H   0  0  0  0  0  0
   -1.5808   12.1991    2.4025 H   0  0  0  0  0  0
   -2.6168   11.8418    0.0602 H   0  0  0  0  0  0
   -0.4454   10.8069   -1.5230 H   0  0  0  0  0  0
    0.8122   12.8453   -2.1293 H   0  0  0  0  0  0
    2.1460   13.0288    1.8420 H   0  0  0  0  0  0
    0.2584    7.3462   -4.5619 H   0  0  0  0  0  0
   -0.7498    4.7015    3.0832 H   0  0  0  0  0  0
    1.4345    8.0383    5.1490 H   0  0  0  0  0  0
    0.3687    8.7835    3.9100 H   0  0  0  0  0  0
    2.0604    8.3460    3.4936 H   0  0  0  0  0  0
   -1.9881    3.4662   -0.1765 H   0  0  0  0  0  0
   -2.6524    3.8309    1.4521 H   0  0  0  0  0  0
   -1.1859    2.8064    1.2890 H   0  0  0  0  0  0
  1  2  2  0  0  0
  1 21  1  0  0  0
  1 25  1  0  0  0
  2  3  1  0  0  0
  2  7  1  0  0  0
  3  4  1  0  0  0
  3 19  2  0  0  0
  4  5  2  0  0  0
  4 26  1  0  0  0
  5  6  1  0  0  0
  5 27  1  0  0  0
  6  7  2  0  0  0
  6 18  1  0  0  0
  7  8  1  0  0  0
  8  9  2  0  0  0
  8 10  1  0  0  0
 10 11  1  0  0  0
 11 12  1  0  0  0
 11 15  1  0  0  0
 11 28  1  0  0  0
 12 13  1  0  0  0
 12 17  1  0  0  0
 12 29  1  0  0  0
 13 14  2  0  0  0
 13 30  1  0  0  0
 14 15  1  0  0  0
 14 31  1  0  0  0
 15 16  1  0  0  0
 15 32  1  0  0  0
 16 33  1  0  0  0
 17 34  1  0  0  0
 18 35  1  0  0  0
 19 20  1  0  0  0
 19 24  1  0  0  0
 20 21  2  0  0  0
 20 36  1  0  0  0
 21 22  1  0  0  0
 22 23  1  0  0  0
 23 37  1  0  0  0
 23 38  1  0  0  0
 23 39  1  0  0  0
 24 40  1  0  0  0
 24 41  1  0  0  0
 24 42  1  0  0  0
M  END
> <s_m_source_file>
../1j5i_ligand.sdf

> <i_m_source_file_index>
1

> <s_epik_input>
W0NIM11PYyhbY0hdMSlbY0hdYyhbQ0gzXSljKGMxMilbY0hdW2NIXWMoW09IXSljMkMoPU8pT1tDQEBIXTNbQ0BASF0oW09IXSlbQ0hdPVtDSF1bQ0BIXTNbT0hd

> <s_epik_cmdline>
J2VwaWtfYXBwJywgJy1pbWFlJywgJ2xpZ2FuZF9wcm8ubWFlJywgJy1vbWFlJywgJ2xpZ2FuZF9wcmVwLm1hZScsICctbXMnLCAnMScsICctcGgnLCAnNycsICctcGh0JywgJzAuNScsICctbnQn

> <r_lp_tautomer_probability>
1

> <r_epik_Ionization_Penalty>
  0.0033

> <r_epik_Ionization_Penalty_Charging>
  0.0000

> <r_epik_Ionization_Penalty_Neutral>
  0.0033

> <r_epik_State_Penalty>
 -0.0000

> <r_epik_Charging_Adjusted_Penalty>
0

> <i_epik_Tot_Q>
0

> <i_epik_Tot_abs_Q>
0

> <s_epik_Chemistry_Notes>
This compound has an ester and may undergo hydrolysis at high or low pH.

$$$$
