1j7z_ligand
                    3D
 Schrodinger Suite 2020-3.
242243  0  0  1  0            999 V2000
  -13.1040    8.4960   19.8810 N   0  3  0  0  0  0
  -13.8020    7.9240   18.6910 C   0  0  2  0  0  0
  -13.8690    6.3990   18.7810 C   0  0  0  0  0  0
  -13.6830    5.8060   19.8490 O   0  0  0  0  0  0
  -13.0650    8.3310   17.4000 C   0  0  0  0  0  0
  -13.9660    8.9140   16.3010 C   0  0  0  0  0  0
  -14.0000    8.0250   15.0600 C   0  0  0  0  0  0
  -15.2910    8.2170   14.2610 C   0  0  0  0  0  0
  -15.8240    6.9350   13.6920 N   0  3  0  0  0  0
  -14.1520    5.7850   17.6400 N   0  0  0  0  0  0
  -14.2390    4.3390   17.5100 C   0  0  2  0  0  0
  -12.8420    3.7170   17.4700 C   0  0  0  0  0  0
  -12.0320    4.0540   16.6040 O   0  0  0  0  0  0
  -14.9850    4.0190   16.2200 C   0  0  0  0  0  0
  -15.1710    2.5590   15.9200 C   0  0  0  0  0  0
  -15.9450    2.3470   14.6320 C   0  0  0  0  0  0
  -15.4900    2.8460   13.5780 O   0  0  0  0  0  0
  -17.0040    1.6880   14.6730 O   0  0  0  0  0  0
  -12.5560    2.8180   18.4080 N   0  0  0  0  0  0
  -11.2520    2.1660   18.4410 C   0  0  2  0  0  0
  -11.0900    1.2330   17.2540 C   0  0  0  0  0  0
  -12.0470    0.9620   16.5310 O   0  0  0  0  0  0
  -11.0590    1.3500   19.7170 C   0  0  2  0  0  0
  -11.9950    0.2680   19.7370 O   0  0  0  0  0  0
  -11.2720    2.2200   20.9270 C   0  0  0  0  0  0
   -9.8770    0.7260   17.0670 N   0  0  0  0  0  0
   -9.5920   -0.1650   15.9490 C   0  0  2  0  0  0
  -10.2900   -1.5040   16.0990 C   0  0  0  0  0  0
  -10.7040   -2.1120   15.1140 O   0  0  0  0  0  0
   -8.0980   -0.3730   15.8250 C   0  0  0  0  0  0
  -10.4060   -1.9640   17.3370 N   0  0  0  0  0  0
  -11.0540   -3.2350   17.6110 C   0  0  2  0  0  0
  -12.5680   -3.1140   17.4550 C   0  0  0  0  0  0
  -13.2280   -4.0640   17.0510 O   0  0  0  0  0  0
  -10.7010   -3.7100   19.0130 C   0  0  0  0  0  0
  -13.1120   -1.9390   17.7640 N   0  0  0  0  0  0
  -14.5440   -1.6880   17.6440 C   0  0  2  0  0  0
  -14.8980   -1.5560   16.1680 C   0  0  0  0  0  0
  -15.9720   -1.9700   15.7390 O   0  0  0  0  0  0
  -14.9140   -0.4110   18.3750 C   0  0  0  0  0  0
  -13.9860   -0.9720   15.3970 N   0  0  0  0  0  0
  -14.1820   -0.7880   13.9610 C   0  0  2  0  0  0
  -14.1380   -2.1530   13.2700 C   0  0  0  0  0  0
  -14.9080   -2.4220   12.3440 O   0  0  0  0  0  0
  -13.0910    0.1310   13.4000 C   0  0  0  0  0  0
  -13.2610    0.5440   11.9420 C   0  0  0  0  0  0
  -11.9240    0.9760   11.3290 C   0  0  0  0  0  0
  -12.0750    1.2900    9.8510 C   0  0  0  0  0  0
  -10.7860    1.2650    9.0930 N   0  3  0  0  0  0
  -13.2290   -3.0120   13.7160 N   0  0  0  0  0  0
  -13.1420   -4.3400   13.1340 C   0  0  2  0  0  0
  -14.5010   -5.0240   13.2900 C   0  0  0  0  0  0
  -15.0120   -5.6540   12.3590 O   0  0  0  0  0  0
  -12.0530   -5.1680   13.8390 C   0  0  0  0  0  0
  -12.0170   -6.6190   13.4040 C   0  0  0  0  0  0
  -11.2340   -7.0170   12.3220 C   0  0  0  0  0  0
  -12.7840   -7.5820   14.0640 C   0  0  0  0  0  0
  -11.2190   -8.3520   11.9010 C   0  0  0  0  0  0
  -12.7780   -8.9240   13.6510 C   0  0  0  0  0  0
  -11.9950   -9.3040   12.5690 C   0  0  0  0  0  0
  -15.0880   -4.8850   14.4750 N   0  0  0  0  0  0
  -16.3750   -5.5050   14.7680 C   0  0  2  0  0  0
  -17.5260   -4.9800   13.9150 C   0  0  0  0  0  0
  -18.3090   -5.7630   13.3850 O   0  0  0  0  0  0
  -16.7090   -5.3280   16.2510 C   0  0  0  0  0  0
  -16.1260   -6.4140   17.1490 C   0  0  0  0  0  0
  -15.8920   -5.9470   18.5860 C   0  0  0  0  0  0
  -16.2520   -4.8030   18.9270 O   0  0  0  0  0  0
  -15.3450   -6.7380   19.3850 O   0  0  0  0  0  0
  -17.6370   -3.6630   13.7890 N   0  0  0  0  0  0
  -18.7120   -3.0710   13.0080 C   0  0  2  0  0  0
  -18.5710   -3.4270   11.5360 C   0  0  0  0  0  0
  -19.5570   -3.5800   10.8210 O   0  0  0  0  0  0
  -18.7100   -1.5450   13.1680 C   0  0  0  0  0  0
  -19.8810   -0.8530   12.4790 C   0  0  0  0  0  0
  -19.8300    0.6690   12.5930 C   0  0  0  0  0  0
  -18.4710    1.1780   12.4970 N   0  0  0  0  0  0
  -17.8080    1.3370   11.3570 C   0  0  0  0  0  0
  -16.5680    1.8040   11.3730 N   0  0  0  0  0  0
  -18.3860    1.0410   10.1980 N   0  0  0  0  0  0
  -17.3320   -3.5750   11.0920 N   0  0  0  0  0  0
  -17.0590   -3.8820    9.6980 C   0  0  2  0  0  0
  -17.0410   -5.3490    9.2770 C   0  0  0  0  0  0
  -17.3900   -5.6670    8.1370 O   0  0  0  0  0  0
  -15.7260   -3.2590    9.2850 C   0  0  0  0  0  0
  -15.7830   -1.7660    9.0310 C   0  0  0  0  0  0
  -14.4970   -1.2300    8.4310 C   0  0  0  0  0  0
  -13.4160   -1.7720    8.6680 O   0  0  0  0  0  0
  -14.6080   -0.1530    7.6530 N   0  0  0  0  0  0
  -16.6630   -6.2550   10.1730 N   0  0  0  0  0  0
  -16.5590   -7.6550    9.7630 C   0  0  2  0  0  0
  -17.3530   -8.7000   10.5290 C   0  0  0  0  0  0
  -17.4580   -9.8400   10.0840 O   0  0  0  0  0  0
  -15.0870   -8.0830    9.7590 C   0  0  0  0  0  0
  -14.1700   -7.1180    9.0680 C   0  0  0  0  0  0
  -14.1780   -6.9370    7.7030 N   0  0  0  0  0  0
  -13.2140   -6.2950    9.5540 C   0  0  0  0  0  0
  -13.2630   -6.0400    7.3750 C   0  0  0  0  0  0
  -12.6640   -5.6360    8.4790 N   0  0  0  0  0  0
  -17.9150   -8.3380   11.6710 N   0  0  0  0  0  0
  -18.6550   -9.3200   12.4520 C   0  0  2  0  0  0
  -20.1440   -9.4070   12.1610 C   0  0  0  0  0  0
  -20.8490   -8.4040   12.1630 O   0  0  0  0  0  0
  -18.4480   -9.0640   13.9510 C   0  0  0  0  0  0
  -17.0560   -9.4250   14.4600 C   0  0  0  0  0  0
  -16.5770  -11.1280   14.0900 S   0  0  0  0  0  0
  -17.9860  -12.0390   14.7010 C   0  0  0  0  0  0
  -20.6090  -10.6180   11.8880 N   0  0  0  0  0  0
  -22.0170  -10.8450   11.6670 C   0  0  2  0  0  0
  -22.3330  -12.2410   12.1630 C   0  0  0  0  0  0
  -22.5850  -13.1520   11.3790 O   0  0  0  0  0  0
  -22.4080  -10.7110   10.1960 C   0  0  0  0  0  0
  -23.9130  -10.7480   10.0000 C   0  0  0  0  0  0
  -24.6370  -10.3010   10.9150 O   0  0  0  0  0  0
  -24.3780  -11.2340    8.9450 O   0  0  0  0  0  0
  -22.3190  -12.3890   13.4820 N   0  0  0  0  0  0
  -22.5960  -13.6560   14.1320 C   0  0  2  0  0  0
  -24.0170  -14.1350   13.8480 C   0  0  0  0  0  0
  -24.2240  -15.2970   13.4860 O   0  0  0  0  0  0
  -22.3870  -13.5110   15.6360 C   0  0  0  0  0  0
  -21.2730  -12.6760   15.8950 O   0  0  0  0  0  0
  -24.9980  -13.2420   14.0120 N   0  0  0  0  0  0
  -13.6374    8.2000   20.7963 H   0  0  0  0  0  0
  -13.0881    9.5932   19.8044 H   0  0  0  0  0  0
  -12.0724    8.1161   19.9186 H   0  0  0  0  0  0
  -14.8236    8.3317   18.6992 H   0  0  0  0  0  0
  -12.3127    9.0987   17.6338 H   0  0  0  0  0  0
  -12.5678    7.4499   16.9683 H   0  0  0  0  0  0
  -14.9931    9.0117   16.6824 H   0  0  0  0  0  0
  -13.5892    9.9041   16.0047 H   0  0  0  0  0  0
  -13.1494    8.2729   14.4080 H   0  0  0  0  0  0
  -13.9343    6.9696   15.3631 H   0  0  0  0  0  0
  -16.0674    8.6407   14.9150 H   0  0  0  0  0  0
  -15.1042    8.9030   13.4217 H   0  0  0  0  0  0
  -16.7483    7.1389   13.1316 H   0  0  0  0  0  0
  -16.0388    6.2320   14.5103 H   0  0  0  0  0  0
  -15.0756    6.4943   13.0170 H   0  0  0  0  0  0
  -14.3250    6.4274   16.7640 H   0  0  0  0  0  0
  -14.7816    3.9685   18.3922 H   0  0  0  0  0  0
  -15.9936    4.4560   16.2617 H   0  0  0  0  0  0
  -14.4372    4.4420   15.3650 H   0  0  0  0  0  0
  -14.1873    2.0777   15.8169 H   0  0  0  0  0  0
  -15.7274    2.0839   16.7414 H   0  0  0  0  0  0
  -16.0279    2.7100   12.6282 H   0  0  0  0  0  0
  -13.3152    2.5681   19.1638 H   0  0  0  0  0  0
  -10.5329    2.9973   18.3986 H   0  0  0  0  0  0
  -10.0564    0.8988   19.7514 H   0  0  0  0  0  0
  -11.9916   -0.4772   18.9279 H   0  0  0  0  0  0
  -10.5524    3.0519   20.9117 H   0  0  0  0  0  0
  -11.1229    1.6229   21.8387 H   0  0  0  0  0  0
  -12.2963    2.6209   20.9146 H   0  0  0  0  0  0
   -9.0792    0.9908   17.7765 H   0  0  0  0  0  0
   -9.9894    0.3452   15.0592 H   0  0  0  0  0  0
   -7.5998    0.6017   15.7167 H   0  0  0  0  0  0
   -7.8862   -0.9932   14.9415 H   0  0  0  0  0  0
   -7.7221   -0.8787   16.7266 H   0  0  0  0  0  0
  -10.0004   -1.3637   18.1647 H   0  0  0  0  0  0
  -10.6598   -3.9397   16.8640 H   0  0  0  0  0  0
   -9.6082   -3.7916   19.1082 H   0  0  0  0  0  0
  -11.1593   -4.6937   19.1931 H   0  0  0  0  0  0
  -11.0804   -2.9880   19.7511 H   0  0  0  0  0  0
  -12.4420   -1.1427   18.1203 H   0  0  0  0  0  0
  -15.0652   -2.5405   18.1041 H   0  0  0  0  0  0
  -14.6569   -0.5105   19.4399 H   0  0  0  0  0  0
  -15.9944   -0.2306   18.2739 H   0  0  0  0  0  0
  -14.3590    0.4338   17.9411 H   0  0  0  0  0  0
  -13.0590   -0.6222   15.8749 H   0  0  0  0  0  0
  -15.1686   -0.3210   13.8246 H   0  0  0  0  0  0
  -13.0610    1.0631   13.9834 H   0  0  0  0  0  0
  -12.1162   -0.3743   13.4660 H   0  0  0  0  0  0
  -13.6541   -0.3052   11.3638 H   0  0  0  0  0  0
  -13.9646    1.3872   11.8794 H   0  0  0  0  0  0
  -11.5585    1.8767   11.8440 H   0  0  0  0  0  0
  -11.1894    0.1651   11.4427 H   0  0  0  0  0  0
  -12.7417    0.5495    9.3851 H   0  0  0  0  0  0
  -12.5040    2.2959    9.7318 H   0  0  0  0  0  0
  -10.9777    1.5010    8.0358 H   0  0  0  0  0  0
  -10.3350    0.2646    9.1695 H   0  0  0  0  0  0
  -10.0973    2.0110    9.5162 H   0  0  0  0  0  0
  -12.5427   -2.7198   14.5245 H   0  0  0  0  0  0
  -12.8798   -4.2049   12.0743 H   0  0  0  0  0  0
  -11.0652   -4.7355   13.6216 H   0  0  0  0  0  0
  -12.2280   -5.1551   14.9249 H   0  0  0  0  0  0
  -10.6260   -6.2800   11.7973 H   0  0  0  0  0  0
  -13.3980   -7.2864   14.9147 H   0  0  0  0  0  0
  -10.6025   -8.6492   11.0526 H   0  0  0  0  0  0
  -13.3838   -9.6624   14.1761 H   0  0  0  0  0  0
  -11.9854  -10.3434   12.2408 H   0  0  0  0  0  0
  -14.5789   -4.2849   15.2436 H   0  0  0  0  0  0
  -16.2170   -6.5599   14.4991 H   0  0  0  0  0  0
  -16.3112   -4.3651   16.6040 H   0  0  0  0  0  0
  -17.8006   -5.3453   16.3856 H   0  0  0  0  0  0
  -16.8170   -7.2690   17.1863 H   0  0  0  0  0  0
  -15.1572   -6.7429   16.7450 H   0  0  0  0  0  0
  -15.1633   -6.4307   20.4255 H   0  0  0  0  0  0
  -16.8990   -3.0171   14.2872 H   0  0  0  0  0  0
  -19.6366   -3.5098   13.4111 H   0  0  0  0  0  0
  -18.7616   -1.2883   14.2364 H   0  0  0  0  0  0
  -17.7865   -1.1322   12.7359 H   0  0  0  0  0  0
  -19.8786   -1.1068   11.4087 H   0  0  0  0  0  0
  -20.8246   -1.1893   12.9335 H   0  0  0  0  0  0
  -20.4225    1.1175   11.7820 H   0  0  0  0  0  0
  -20.2444    0.9781   13.5639 H   0  0  0  0  0  0
  -17.9238    1.4606   13.4085 H   0  0  0  0  0  0
  -16.0854    2.0504   12.3303 H   0  0  0  0  0  0
  -19.4152    0.6531   10.1799 H   0  0  0  0  0  0
  -17.8354    1.1838    9.2565 H   0  0  0  0  0  0
  -16.5005   -3.4607   11.8031 H   0  0  0  0  0  0
  -17.9518   -3.4373    9.2342 H   0  0  0  0  0  0
  -14.9837   -3.4203   10.0806 H   0  0  0  0  0  0
  -15.3742   -3.7289    8.3547 H   0  0  0  0  0  0
  -16.6019   -1.5442    8.3308 H   0  0  0  0  0  0
  -15.9595   -1.2390    9.9803 H   0  0  0  0  0  0
  -15.5962    0.2949    7.4715 H   0  0  0  0  0  0
  -13.7114    0.2877    7.1926 H   0  0  0  0  0  0
  -16.4300   -5.9664   11.2086 H   0  0  0  0  0  0
  -17.0421   -7.5936    8.7767 H   0  0  0  0  0  0
  -14.7311   -8.1820   10.7951 H   0  0  0  0  0  0
  -14.9875   -9.0495    9.2433 H   0  0  0  0  0  0
  -12.8461   -6.0919   10.5706 H   0  0  0  0  0  0
  -13.0417   -5.6938    6.3654 H   0  0  0  0  0  0
  -17.8259   -7.3026   12.0315 H   0  0  0  0  0  0
  -18.2107  -10.2635   12.1020 H   0  0  0  0  0  0
  -18.6035   -7.9964   14.1655 H   0  0  0  0  0  0
  -19.1682   -9.6626   14.5281 H   0  0  0  0  0  0
  -16.3118   -8.7633   13.9929 H   0  0  0  0  0  0
  -17.0217   -9.3018   15.5525 H   0  0  0  0  0  0
  -17.8263  -13.1149   14.5367 H   0  0  0  0  0  0
  -18.8912  -11.7167   14.1656 H   0  0  0  0  0  0
  -18.1084  -11.8466   15.7771 H   0  0  0  0  0  0
  -19.9009  -11.4579   11.8312 H   0  0  0  0  0  0
  -22.5452  -10.0651   12.2351 H   0  0  0  0  0  0
  -22.0346   -9.7538    9.8031 H   0  0  0  0  0  0
  -21.9672  -11.5397    9.6225 H   0  0  0  0  0  0
  -25.4662  -11.2680    8.7880 H   0  0  0  0  0  0
  -22.0851  -11.5003   14.0865 H   0  0  0  0  0  0
  -21.8811  -14.3694   13.6962 H   0  0  0  0  0  0
  -23.2847  -13.0657   16.0897 H   0  0  0  0  0  0
  -22.2057  -14.5017   16.0782 H   0  0  0  0  0  0
  -20.9760  -12.4612   16.9321 H   0  0  0  0  0  0
  -24.7610  -12.2180   14.3365 H   0  0  0  0  0  0
  -26.0423  -13.5311   13.8225 H   0  0  0  0  0  0
  1  2  1  0  0  0
  1123  1  0  0  0
  1124  1  0  0  0
  1125  1  0  0  0
  2  3  1  0  0  0
  2  5  1  0  0  0
  2126  1  0  0  0
  3  4  2  0  0  0
  3 10  1  0  0  0
  5  6  1  0  0  0
  5127  1  0  0  0
  5128  1  0  0  0
  6  7  1  0  0  0
  6129  1  0  0  0
  6130  1  0  0  0
  7  8  1  0  0  0
  7131  1  0  0  0
  7132  1  0  0  0
  8  9  1  0  0  0
  8133  1  0  0  0
  8134  1  0  0  0
  9135  1  0  0  0
  9136  1  0  0  0
  9137  1  0  0  0
 10 11  1  0  0  0
 10138  1  0  0  0
 11 12  1  0  0  0
 11 14  1  0  0  0
 11139  1  0  0  0
 12 13  2  0  0  0
 12 19  1  0  0  0
 14 15  1  0  0  0
 14140  1  0  0  0
 14141  1  0  0  0
 15 16  1  0  0  0
 15142  1  0  0  0
 15143  1  0  0  0
 16 17  1  0  0  0
 16 18  2  0  0  0
 17144  1  0  0  0
 19 20  1  0  0  0
 19145  1  0  0  0
 20 21  1  0  0  0
 20 23  1  0  0  0
 20146  1  0  0  0
 21 22  2  0  0  0
 21 26  1  0  0  0
 23 24  1  0  0  0
 23 25  1  0  0  0
 23147  1  0  0  0
 24148  1  0  0  0
 25149  1  0  0  0
 25150  1  0  0  0
 25151  1  0  0  0
 26 27  1  0  0  0
 26152  1  0  0  0
 27 28  1  0  0  0
 27 30  1  0  0  0
 27153  1  0  0  0
 28 29  2  0  0  0
 28 31  1  0  0  0
 30154  1  0  0  0
 30155  1  0  0  0
 30156  1  0  0  0
 31 32  1  0  0  0
 31157  1  0  0  0
 32 33  1  0  0  0
 32 35  1  0  0  0
 32158  1  0  0  0
 33 34  2  0  0  0
 33 36  1  0  0  0
 35159  1  0  0  0
 35160  1  0  0  0
 35161  1  0  0  0
 36 37  1  0  0  0
 36162  1  0  0  0
 37 38  1  0  0  0
 37 40  1  0  0  0
 37163  1  0  0  0
 38 39  2  0  0  0
 38 41  1  0  0  0
 40164  1  0  0  0
 40165  1  0  0  0
 40166  1  0  0  0
 41 42  1  0  0  0
 41167  1  0  0  0
 42 43  1  0  0  0
 42 45  1  0  0  0
 42168  1  0  0  0
 43 44  2  0  0  0
 43 50  1  0  0  0
 45 46  1  0  0  0
 45169  1  0  0  0
 45170  1  0  0  0
 46 47  1  0  0  0
 46171  1  0  0  0
 46172  1  0  0  0
 47 48  1  0  0  0
 47173  1  0  0  0
 47174  1  0  0  0
 48 49  1  0  0  0
 48175  1  0  0  0
 48176  1  0  0  0
 49177  1  0  0  0
 49178  1  0  0  0
 49179  1  0  0  0
 50 51  1  0  0  0
 50180  1  0  0  0
 51 52  1  0  0  0
 51 54  1  0  0  0
 51181  1  0  0  0
 52 53  2  0  0  0
 52 61  1  0  0  0
 54 55  1  0  0  0
 54182  1  0  0  0
 54183  1  0  0  0
 55 56  2  0  0  0
 55 57  1  0  0  0
 56 58  1  0  0  0
 56184  1  0  0  0
 57 59  2  0  0  0
 57185  1  0  0  0
 58 60  2  0  0  0
 58186  1  0  0  0
 59 60  1  0  0  0
 59187  1  0  0  0
 60188  1  0  0  0
 61 62  1  0  0  0
 61189  1  0  0  0
 62 63  1  0  0  0
 62 65  1  0  0  0
 62190  1  0  0  0
 63 64  2  0  0  0
 63 70  1  0  0  0
 65 66  1  0  0  0
 65191  1  0  0  0
 65192  1  0  0  0
 66 67  1  0  0  0
 66193  1  0  0  0
 66194  1  0  0  0
 67 68  2  0  0  0
 67 69  1  0  0  0
 69195  1  0  0  0
 70 71  1  0  0  0
 70196  1  0  0  0
 71 72  1  0  0  0
 71 74  1  0  0  0
 71197  1  0  0  0
 72 73  2  0  0  0
 72 81  1  0  0  0
 74 75  1  0  0  0
 74198  1  0  0  0
 74199  1  0  0  0
 75 76  1  0  0  0
 75200  1  0  0  0
 75201  1  0  0  0
 76 77  1  0  0  0
 76202  1  0  0  0
 76203  1  0  0  0
 77 78  1  0  0  0
 77204  1  0  0  0
 78 79  2  0  0  0
 78 80  1  0  0  0
 79205  1  0  0  0
 80206  1  0  0  0
 80207  1  0  0  0
 81 82  1  0  0  0
 81208  1  0  0  0
 82 83  1  0  0  0
 82 85  1  0  0  0
 82209  1  0  0  0
 83 84  2  0  0  0
 83 90  1  0  0  0
 85 86  1  0  0  0
 85210  1  0  0  0
 85211  1  0  0  0
 86 87  1  0  0  0
 86212  1  0  0  0
 86213  1  0  0  0
 87 88  2  0  0  0
 87 89  1  0  0  0
 89214  1  0  0  0
 89215  1  0  0  0
 90 91  1  0  0  0
 90216  1  0  0  0
 91 92  1  0  0  0
 91 94  1  0  0  0
 91217  1  0  0  0
 92 93  2  0  0  0
 92100  1  0  0  0
 94 95  1  0  0  0
 94218  1  0  0  0
 94219  1  0  0  0
 95 96  2  0  0  0
 95 97  1  0  0  0
 96 98  1  0  0  0
 97 99  2  0  0  0
 97220  1  0  0  0
 98 99  1  0  0  0
 98221  1  0  0  0
100101  1  0  0  0
100222  1  0  0  0
101102  1  0  0  0
101104  1  0  0  0
101223  1  0  0  0
102103  2  0  0  0
102108  1  0  0  0
104105  1  0  0  0
104224  1  0  0  0
104225  1  0  0  0
105106  1  0  0  0
105226  1  0  0  0
105227  1  0  0  0
106107  1  0  0  0
107228  1  0  0  0
107229  1  0  0  0
107230  1  0  0  0
108109  1  0  0  0
108231  1  0  0  0
109110  1  0  0  0
109112  1  0  0  0
109232  1  0  0  0
110111  2  0  0  0
110116  1  0  0  0
112113  1  0  0  0
112233  1  0  0  0
112234  1  0  0  0
113114  2  0  0  0
113115  1  0  0  0
115235  1  0  0  0
116117  1  0  0  0
116236  1  0  0  0
117118  1  0  0  0
117120  1  0  0  0
117237  1  0  0  0
118119  2  0  0  0
118122  1  0  0  0
120121  1  0  0  0
120238  1  0  0  0
120239  1  0  0  0
121240  1  0  0  0
122241  1  0  0  0
122242  1  0  0  0
M  CHG  3   1   1   9   1  49   1
M  END
> <s_m_source_file>
../1j7z_ligand.sdf

> <i_m_source_file_index>
1

> <s_epik_input>
W05IMytdW0NIMl1bQ0gyXVtDSDJdW0NIMl1bQ0BIXShbTkgzK10pQyg9TylbTkhdW0NAQEhdKFtDSDJdW0NIMl1DKD1PKVtPSF0pQyg9TylbTkhdW0NAQEhdKFtDQEhdKFtPSF0pW0NIM10pQyg9TylbTkhdW0NAQEhdKFtDSDNdKUMoPU8pW05IXVtDQEBIXShbQ0gzXSlDKD1PKVtOSF1bQ0BASF0oW0NIM10pQyg9TylbTkhdW0NAQEhdKFtDSDJdW0NIMl1bQ0gyXVtDSDJdW05IMytdKUMoPU8pW05IXVtDQEBIXShbQ0gyXWMxW2NIXVtjSF1bY0hdW2NIXVtjSF0xKUMoPU8pW05IXVtDQEBIXShbQ0gyXVtDSDJdQyg9TylbT0hdKUMoPU8pW05IXVtDQEBIXShbQ0gyXVtDSDJdW0NIMl1bTkhdL0MoPU5cW0hdKVtOSDJdKUMoPU8pW05IXVtDQEBIXShbQ0gyXVtDSDJdQyg9TylbTkgyXSlDKD1PKVtOSF1bQ0BASF0oW0NIMl1DMj1OW0NIMl1OPVtDSF0yKUMoPU8pW05IXVtDQEBIXShbQ0gyXVtDSDJdU1tDSDNdKUMoPU8pW05IXVtDQEBIXShbQ0gyXUMoPU8pW09IXSlDKD1PKVtOSF1bQ0BIXShDKD1PKVtOSDJdKVtDSDJdW09IXQ==

> <s_epik_cmdline>
J2VwaWtfYXBwJywgJy1pbWFlJywgJ2xpZ2FuZF9wcm8ubWFlJywgJy1vbWFlJywgJ2xpZ2FuZF9wcmVwLm1hZScsICctbXMnLCAnMScsICctcGgnLCAnNycsICctcGh0JywgJzAuNScsICctbnQn

> <s_epik_pKa_notes>
Molecule size exceeds maximum supported for generating protonation states

> <s_epik_Chemistry_Notes>
This compound has an imine and may undergo hydrolysis.

$$$$
