1j80_ligand
                    3D
 Schrodinger Suite 2020-3.
242243  0  0  1  0            999 V2000
  -13.4510    8.2800   19.7300 N   0  3  0  0  0  0
  -14.7080    7.4920   19.8870 C   0  0  2  0  0  0
  -14.4930    6.0280   19.5030 C   0  0  0  0  0  0
  -14.3510    5.1710   20.3790 O   0  0  0  0  0  0
  -15.8270    8.0890   19.0160 C   0  0  0  0  0  0
  -16.0800    9.5790   19.2240 C   0  0  0  0  0  0
  -16.9830   10.1670   18.1300 C   0  0  0  0  0  0
  -16.1760   10.9030   17.0670 C   0  0  0  0  0  0
  -17.0210   11.6130   16.0570 N   0  3  0  0  0  0
  -14.4510    5.7430   18.1990 N   0  0  0  0  0  0
  -14.2760    4.3710   17.7250 C   0  0  2  0  0  0
  -12.8420    3.8580   17.6740 C   0  0  0  0  0  0
  -11.9960    4.4010   16.9640 O   0  0  0  0  0  0
  -14.9090    4.1860   16.3450 C   0  0  0  0  0  0
  -14.8170    2.7500   15.8550 C   0  0  0  0  0  0
  -15.6370    2.4870   14.6110 C   0  0  0  0  0  0
  -15.2720    3.0120   13.5370 O   0  0  0  0  0  0
  -16.6460    1.7520   14.7100 O   0  0  0  0  0  0
  -12.5890    2.7880   18.4210 N   0  0  0  0  0  0
  -11.2800    2.1540   18.4820 C   0  0  2  0  0  0
  -11.1050    1.1770   17.3100 C   0  0  0  0  0  0
  -12.0620    0.8810   16.5920 O   0  0  0  0  0  0
  -11.1260    1.3880   19.7920 C   0  0  2  0  0  0
  -11.9250    0.2020   19.7450 O   0  0  0  0  0  0
  -11.5920    2.2440   20.9550 C   0  0  0  0  0  0
   -9.8870    0.6760   17.1210 N   0  0  0  0  0  0
   -9.6010   -0.2500   16.0280 C   0  0  2  0  0  0
  -10.3340   -1.5790   16.1600 C   0  0  0  0  0  0
  -10.7980   -2.1380   15.1690 O   0  0  0  0  0  0
   -8.1070   -0.4940   15.9310 C   0  0  0  0  0  0
  -10.4280   -2.0920   17.3810 N   0  0  0  0  0  0
  -11.1180   -3.3520   17.6030 C   0  0  2  0  0  0
  -12.6250   -3.1620   17.4050 C   0  0  0  0  0  0
  -13.3020   -4.0360   16.8680 O   0  0  0  0  0  0
  -10.8230   -3.8710   19.0010 C   0  0  0  0  0  0
  -13.1410   -2.0130   17.8360 N   0  0  0  0  0  0
  -14.5600   -1.7010   17.6820 C   0  0  2  0  0  0
  -14.8660   -1.5910   16.1870 C   0  0  0  0  0  0
  -15.8760   -2.1020   15.7070 O   0  0  0  0  0  0
  -14.8960   -0.3750   18.3910 C   0  0  0  0  0  0
  -13.9830   -0.9180   15.4570 N   0  0  0  0  0  0
  -14.1350   -0.7380   14.0170 C   0  0  2  0  0  0
  -14.1390   -2.0780   13.2800 C   0  0  0  0  0  0
  -14.8930   -2.2690   12.3260 O   0  0  0  0  0  0
  -13.0010    0.1340   13.4930 C   0  0  0  0  0  0
  -13.4420    1.1400   12.4640 C   0  0  0  0  0  0
  -13.0440    0.6800   11.0880 C   0  0  0  0  0  0
  -11.7950    1.4020   10.6110 C   0  0  0  0  0  0
  -10.7140    1.4020   11.6480 N   0  3  0  0  0  0
  -13.2880   -3.0040   13.7120 N   0  0  0  0  0  0
  -13.2230   -4.3260   13.0920 C   0  0  2  0  0  0
  -14.5720   -5.0190   13.3010 C   0  0  0  0  0  0
  -15.1320   -5.6160   12.3800 O   0  0  0  0  0  0
  -12.0950   -5.1580   13.7280 C   0  0  0  0  0  0
  -12.0880   -6.6140   13.3120 C   0  0  0  0  0  0
  -11.2760   -7.0510   12.2690 C   0  0  0  0  0  0
  -12.8870   -7.5490   13.9730 C   0  0  0  0  0  0
  -11.2590   -8.4020   11.8890 C   0  0  0  0  0  0
  -12.8760   -8.9010   13.5970 C   0  0  0  0  0  0
  -12.0600   -9.3250   12.5530 C   0  0  0  0  0  0
  -15.0970   -4.9330   14.5200 N   0  0  0  0  0  0
  -16.3790   -5.5590   14.8350 C   0  0  2  0  0  0
  -17.5250   -5.0520   13.9640 C   0  0  0  0  0  0
  -18.2870   -5.8470   13.4120 O   0  0  0  0  0  0
  -16.7190   -5.3530   16.3120 C   0  0  0  0  0  0
  -15.9890   -6.3380   17.2440 C   0  0  0  0  0  0
  -15.9580   -5.8980   18.7070 C   0  0  0  0  0  0
  -15.4410   -6.6690   19.5430 O   0  0  0  0  0  0
  -16.4420   -4.7950   19.0280 O   0  0  0  0  0  0
  -17.6430   -3.7330   13.8550 N   0  0  0  0  0  0
  -18.6900   -3.1110   13.0590 C   0  0  2  0  0  0
  -18.5650   -3.4440   11.5760 C   0  0  0  0  0  0
  -19.5590   -3.6570   10.8860 O   0  0  0  0  0  0
  -18.6460   -1.5840   13.2200 C   0  0  0  0  0  0
  -19.6430   -0.8560   12.3310 C   0  0  0  0  0  0
  -19.6620    0.6430   12.5880 C   0  0  0  0  0  0
  -18.3530    1.2420   12.3580 N   0  0  0  0  0  0
  -17.9330    1.7300   11.1910 C   0  0  0  0  0  0
  -16.7180    2.2500   11.0970 N   0  0  0  0  0  0
  -18.7220    1.7090   10.1150 N   0  0  0  0  0  0
  -17.3330   -3.4850   11.0920 N   0  0  0  0  0  0
  -17.0840   -3.7540    9.6870 C   0  0  2  0  0  0
  -17.0930   -5.2140    9.2640 C   0  0  0  0  0  0
  -17.4500   -5.5150    8.1270 O   0  0  0  0  0  0
  -15.7310   -3.1890    9.2810 C   0  0  0  0  0  0
  -15.6190   -1.6910    9.2600 C   0  0  0  0  0  0
  -14.3610   -1.2480    8.5340 C   0  0  0  0  0  0
  -13.2450   -1.6200    8.9100 O   0  0  0  0  0  0
  -14.5370   -0.4590    7.4820 N   0  0  0  0  0  0
  -16.7060   -6.1240   10.1550 N   0  0  0  0  0  0
  -16.6080   -7.5270    9.7720 C   0  0  2  0  0  0
  -17.4230   -8.5690   10.5100 C   0  0  0  0  0  0
  -17.4910   -9.7080   10.0610 O   0  0  0  0  0  0
  -15.1430   -7.9580    9.8230 C   0  0  0  0  0  0
  -14.2200   -7.0660    9.0540 C   0  0  0  0  0  0
  -14.2340   -6.9850    7.6800 N   0  0  0  0  0  0
  -13.2280   -6.2410    9.4670 C   0  0  0  0  0  0
  -13.2910   -6.1510    7.2770 C   0  0  0  0  0  0
  -12.6640   -5.6890    8.3430 N   0  0  0  0  0  0
  -18.0380   -8.2070   11.6280 N   0  0  0  0  0  0
  -18.7860   -9.1970   12.3910 C   0  0  2  0  0  0
  -20.2640   -9.2890   12.0890 C   0  0  0  0  0  0
  -20.9700   -8.2920   12.1020 O   0  0  0  0  0  0
  -18.6090   -8.9470   13.8860 C   0  0  0  0  0  0
  -17.2020   -9.2010   14.3690 C   0  0  0  0  0  0
  -16.6490  -10.8990   14.0020 S   0  0  0  0  0  0
  -18.1490  -11.8750   14.4160 C   0  0  0  0  0  0
  -20.7380  -10.4950   11.8180 N   0  0  0  0  0  0
  -22.1550  -10.6880   11.5770 C   0  0  2  0  0  0
  -22.5550  -12.0770   12.0310 C   0  0  0  0  0  0
  -22.9850  -12.9060   11.2310 O   0  0  0  0  0  0
  -22.5140  -10.5010   10.1030 C   0  0  0  0  0  0
  -24.0060  -10.6310    9.8640 C   0  0  0  0  0  0
  -24.7830  -10.2030   10.7400 O   0  0  0  0  0  0
  -24.4070  -11.1700    8.8090 O   0  0  0  0  0  0
  -22.4050  -12.3110   13.3320 N   0  0  0  0  0  0
  -22.7380  -13.5920   13.9410 C   0  0  2  0  0  0
  -24.1670  -14.0080   13.6310 C   0  0  0  0  0  0
  -24.3900  -14.9850   12.9110 O   0  0  0  0  0  0
  -22.5490  -13.5120   15.4550 C   0  0  0  0  0  0
  -22.0270  -12.2520   15.8380 O   0  0  0  0  0  0
  -25.1260  -13.2630   14.1800 N   0  0  0  0  0  0
  -12.6621    7.8408   20.3583 H   0  0  0  0  0  0
  -13.6295    9.3204   20.0393 H   0  0  0  0  0  0
  -13.1347    8.2597   18.6767 H   0  0  0  0  0  0
  -14.9744    7.5516   20.9526 H   0  0  0  0  0  0
  -15.5742    7.9576   17.9535 H   0  0  0  0  0  0
  -16.7748    7.5750   19.2337 H   0  0  0  0  0  0
  -16.5712    9.7353   20.1957 H   0  0  0  0  0  0
  -15.1222   10.1196   19.2062 H   0  0  0  0  0  0
  -17.5414    9.3557   17.6402 H   0  0  0  0  0  0
  -17.6903   10.8783   18.5814 H   0  0  0  0  0  0
  -15.5371   11.6577   17.5489 H   0  0  0  0  0  0
  -15.5468   10.1844   16.5213 H   0  0  0  0  0  0
  -16.3723   12.1183   15.3263 H   0  0  0  0  0  0
  -17.6511   12.3580   16.5648 H   0  0  0  0  0  0
  -17.6609   10.8847   15.5373 H   0  0  0  0  0  0
  -14.5513    6.5661   17.4761 H   0  0  0  0  0  0
  -14.7948    3.8125   18.5181 H   0  0  0  0  0  0
  -15.9726    4.4629   16.3894 H   0  0  0  0  0  0
  -14.3931    4.8281   15.6159 H   0  0  0  0  0  0
  -13.7700    2.5099   15.6179 H   0  0  0  0  0  0
  -15.1802    2.0706   16.6402 H   0  0  0  0  0  0
  -17.2625    1.5419   13.8236 H   0  0  0  0  0  0
  -13.4245    2.3826   19.0106 H   0  0  0  0  0  0
  -10.5526    2.9772   18.4248 H   0  0  0  0  0  0
  -10.0834    1.0676   19.9345 H   0  0  0  0  0  0
  -11.7427   -0.5535   18.9665 H   0  0  0  0  0  0
  -10.9850    3.1601   21.0023 H   0  0  0  0  0  0
  -11.4794    1.6807   21.8931 H   0  0  0  0  0  0
  -12.6494    2.5117   20.8127 H   0  0  0  0  0  0
   -9.0854    0.9751   17.8124 H   0  0  0  0  0  0
   -9.9784    0.2641   15.1317 H   0  0  0  0  0  0
   -7.5837    0.4688   15.8359 H   0  0  0  0  0  0
   -7.8936   -1.1160   15.0492 H   0  0  0  0  0  0
   -7.7604   -1.0118   16.8375 H   0  0  0  0  0  0
   -9.9779   -1.5546   18.2287 H   0  0  0  0  0  0
  -10.7214   -4.0594   16.8599 H   0  0  0  0  0  0
   -9.7374   -4.0004   19.1226 H   0  0  0  0  0  0
  -11.3262   -4.8382   19.1468 H   0  0  0  0  0  0
  -11.1919   -3.1499   19.7452 H   0  0  0  0  0  0
  -12.4680   -1.2893   18.3190 H   0  0  0  0  0  0
  -15.1277   -2.5223   18.1438 H   0  0  0  0  0  0
  -14.6721   -0.4660   19.4641 H   0  0  0  0  0  0
  -15.9640   -0.1480   18.2572 H   0  0  0  0  0  0
  -14.2918    0.4357   17.9579 H   0  0  0  0  0  0
  -13.1132   -0.4890   15.9761 H   0  0  0  0  0  0
  -15.1092   -0.2456   13.8810 H   0  0  0  0  0  0
  -12.5522    0.6925   14.3277 H   0  0  0  0  0  0
  -12.2359   -0.5022   13.0241 H   0  0  0  0  0  0
  -14.5356    1.2514   12.5053 H   0  0  0  0  0  0
  -12.9666    2.1099   12.6721 H   0  0  0  0  0  0
  -12.8403   -0.4008   11.1074 H   0  0  0  0  0  0
  -13.8616    0.8864   10.3816 H   0  0  0  0  0  0
  -11.4057    0.9051    9.7102 H   0  0  0  0  0  0
  -12.0433    2.4472   10.3748 H   0  0  0  0  0  0
   -9.8330    1.9338   11.2593 H   0  0  0  0  0  0
  -10.4388    0.3650   11.8907 H   0  0  0  0  0  0
  -11.0764    1.9072   12.5554 H   0  0  0  0  0  0
  -12.6243   -2.7582   14.5541 H   0  0  0  0  0  0
  -13.0142   -4.1778   12.0222 H   0  0  0  0  0  0
  -11.1209   -4.7354   13.4406 H   0  0  0  0  0  0
  -12.1956   -5.1356   14.8232 H   0  0  0  0  0  0
  -10.6458   -6.3353   11.7411 H   0  0  0  0  0  0
  -13.5282   -7.2243   14.7925 H   0  0  0  0  0  0
  -10.6164   -8.7287   11.0714 H   0  0  0  0  0  0
  -13.5063   -9.6184   14.1225 H   0  0  0  0  0  0
  -12.0485  -10.3741   12.2573 H   0  0  0  0  0  0
  -14.5496   -4.3794   15.2971 H   0  0  0  0  0  0
  -16.2170   -6.6222   14.6039 H   0  0  0  0  0  0
  -16.4342   -4.3347   16.6152 H   0  0  0  0  0  0
  -17.7998   -5.4915   16.4623 H   0  0  0  0  0  0
  -16.4905   -7.3164   17.2087 H   0  0  0  0  0  0
  -14.9452   -6.4490   16.9151 H   0  0  0  0  0  0
  -15.4022   -6.3832   20.6045 H   0  0  0  0  0  0
  -16.9151   -3.1070   14.3920 H   0  0  0  0  0  0
  -19.6169   -3.5470   13.4599 H   0  0  0  0  0  0
  -18.8762   -1.3184   14.2623 H   0  0  0  0  0  0
  -17.6419   -1.2168   12.9613 H   0  0  0  0  0  0
  -19.3783   -1.0164   11.2754 H   0  0  0  0  0  0
  -20.6544   -1.2457   12.5187 H   0  0  0  0  0  0
  -20.3869    1.1216   11.9131 H   0  0  0  0  0  0
  -19.9525    0.8324   13.6319 H   0  0  0  0  0  0
  -17.6292    1.3156   13.1830 H   0  0  0  0  0  0
  -16.0596    2.2723   11.9779 H   0  0  0  0  0  0
  -19.7325    1.2796   10.1822 H   0  0  0  0  0  0
  -18.3619    2.1211    9.1608 H   0  0  0  0  0  0
  -16.4897   -3.3105   11.7764 H   0  0  0  0  0  0
  -17.9527   -3.2574    9.2301 H   0  0  0  0  0  0
  -14.9608   -3.5418    9.9827 H   0  0  0  0  0  0
  -15.4828   -3.5268    8.2640 H   0  0  0  0  0  0
  -16.4920   -1.2653    8.7437 H   0  0  0  0  0  0
  -15.5822   -1.3115   10.2918 H   0  0  0  0  0  0
  -15.5519   -0.1548    7.1863 H   0  0  0  0  0  0
  -13.6680   -0.1091    6.9054 H   0  0  0  0  0  0
  -16.4599   -5.8157   11.1818 H   0  0  0  0  0  0
  -17.0760   -7.4676    8.7783 H   0  0  0  0  0  0
  -14.7976   -7.9602   10.8674 H   0  0  0  0  0  0
  -15.0434   -8.9693    9.4018 H   0  0  0  0  0  0
  -12.8448   -5.9734   10.4628 H   0  0  0  0  0  0
  -13.0692   -5.8896    6.2423 H   0  0  0  0  0  0
  -17.9856   -7.1661   11.9799 H   0  0  0  0  0  0
  -18.3337  -10.1360   12.0393 H   0  0  0  0  0  0
  -18.8543   -7.8993   14.1141 H   0  0  0  0  0  0
  -19.2791   -9.6118   14.4508 H   0  0  0  0  0  0
  -16.5125   -8.5011   13.8742 H   0  0  0  0  0  0
  -17.1558   -9.0529   15.4580 H   0  0  0  0  0  0
  -17.9527  -12.9425   14.2373 H   0  0  0  0  0  0
  -18.9868  -11.5454   13.7840 H   0  0  0  0  0  0
  -18.4057  -11.7215   15.4746 H   0  0  0  0  0  0
  -20.0511  -11.3531   11.7761 H   0  0  0  0  0  0
  -22.6596   -9.9143   12.1743 H   0  0  0  0  0  0
  -22.1979   -9.5005    9.7727 H   0  0  0  0  0  0
  -22.0006  -11.2651    9.5008 H   0  0  0  0  0  0
  -25.4857  -11.2726    8.6194 H   0  0  0  0  0  0
  -22.0131  -11.4921   13.9531 H   0  0  0  0  0  0
  -22.0445  -14.3146   13.4861 H   0  0  0  0  0  0
  -23.5186  -13.6574   15.9537 H   0  0  0  0  0  0
  -21.8488  -14.2960   15.7791 H   0  0  0  0  0  0
  -21.8335  -12.0364   16.8992 H   0  0  0  0  0  0
  -24.8603  -12.4037   14.8133 H   0  0  0  0  0  0
  -26.1833  -13.5074   13.9999 H   0  0  0  0  0  0
  1  2  1  0  0  0
  1123  1  0  0  0
  1124  1  0  0  0
  1125  1  0  0  0
  2  3  1  0  0  0
  2  5  1  0  0  0
  2126  1  0  0  0
  3  4  2  0  0  0
  3 10  1  0  0  0
  5  6  1  0  0  0
  5127  1  0  0  0
  5128  1  0  0  0
  6  7  1  0  0  0
  6129  1  0  0  0
  6130  1  0  0  0
  7  8  1  0  0  0
  7131  1  0  0  0
  7132  1  0  0  0
  8  9  1  0  0  0
  8133  1  0  0  0
  8134  1  0  0  0
  9135  1  0  0  0
  9136  1  0  0  0
  9137  1  0  0  0
 10 11  1  0  0  0
 10138  1  0  0  0
 11 12  1  0  0  0
 11 14  1  0  0  0
 11139  1  0  0  0
 12 13  2  0  0  0
 12 19  1  0  0  0
 14 15  1  0  0  0
 14140  1  0  0  0
 14141  1  0  0  0
 15 16  1  0  0  0
 15142  1  0  0  0
 15143  1  0  0  0
 16 17  2  0  0  0
 16 18  1  0  0  0
 18144  1  0  0  0
 19 20  1  0  0  0
 19145  1  0  0  0
 20 21  1  0  0  0
 20 23  1  0  0  0
 20146  1  0  0  0
 21 22  2  0  0  0
 21 26  1  0  0  0
 23 24  1  0  0  0
 23 25  1  0  0  0
 23147  1  0  0  0
 24148  1  0  0  0
 25149  1  0  0  0
 25150  1  0  0  0
 25151  1  0  0  0
 26 27  1  0  0  0
 26152  1  0  0  0
 27 28  1  0  0  0
 27 30  1  0  0  0
 27153  1  0  0  0
 28 29  2  0  0  0
 28 31  1  0  0  0
 30154  1  0  0  0
 30155  1  0  0  0
 30156  1  0  0  0
 31 32  1  0  0  0
 31157  1  0  0  0
 32 33  1  0  0  0
 32 35  1  0  0  0
 32158  1  0  0  0
 33 34  2  0  0  0
 33 36  1  0  0  0
 35159  1  0  0  0
 35160  1  0  0  0
 35161  1  0  0  0
 36 37  1  0  0  0
 36162  1  0  0  0
 37 38  1  0  0  0
 37 40  1  0  0  0
 37163  1  0  0  0
 38 39  2  0  0  0
 38 41  1  0  0  0
 40164  1  0  0  0
 40165  1  0  0  0
 40166  1  0  0  0
 41 42  1  0  0  0
 41167  1  0  0  0
 42 43  1  0  0  0
 42 45  1  0  0  0
 42168  1  0  0  0
 43 44  2  0  0  0
 43 50  1  0  0  0
 45 46  1  0  0  0
 45169  1  0  0  0
 45170  1  0  0  0
 46 47  1  0  0  0
 46171  1  0  0  0
 46172  1  0  0  0
 47 48  1  0  0  0
 47173  1  0  0  0
 47174  1  0  0  0
 48 49  1  0  0  0
 48175  1  0  0  0
 48176  1  0  0  0
 49177  1  0  0  0
 49178  1  0  0  0
 49179  1  0  0  0
 50 51  1  0  0  0
 50180  1  0  0  0
 51 52  1  0  0  0
 51 54  1  0  0  0
 51181  1  0  0  0
 52 53  2  0  0  0
 52 61  1  0  0  0
 54 55  1  0  0  0
 54182  1  0  0  0
 54183  1  0  0  0
 55 56  2  0  0  0
 55 57  1  0  0  0
 56 58  1  0  0  0
 56184  1  0  0  0
 57 59  2  0  0  0
 57185  1  0  0  0
 58 60  2  0  0  0
 58186  1  0  0  0
 59 60  1  0  0  0
 59187  1  0  0  0
 60188  1  0  0  0
 61 62  1  0  0  0
 61189  1  0  0  0
 62 63  1  0  0  0
 62 65  1  0  0  0
 62190  1  0  0  0
 63 64  2  0  0  0
 63 70  1  0  0  0
 65 66  1  0  0  0
 65191  1  0  0  0
 65192  1  0  0  0
 66 67  1  0  0  0
 66193  1  0  0  0
 66194  1  0  0  0
 67 68  1  0  0  0
 67 69  2  0  0  0
 68195  1  0  0  0
 70 71  1  0  0  0
 70196  1  0  0  0
 71 72  1  0  0  0
 71 74  1  0  0  0
 71197  1  0  0  0
 72 73  2  0  0  0
 72 81  1  0  0  0
 74 75  1  0  0  0
 74198  1  0  0  0
 74199  1  0  0  0
 75 76  1  0  0  0
 75200  1  0  0  0
 75201  1  0  0  0
 76 77  1  0  0  0
 76202  1  0  0  0
 76203  1  0  0  0
 77 78  1  0  0  0
 77204  1  0  0  0
 78 79  2  0  0  0
 78 80  1  0  0  0
 79205  1  0  0  0
 80206  1  0  0  0
 80207  1  0  0  0
 81 82  1  0  0  0
 81208  1  0  0  0
 82 83  1  0  0  0
 82 85  1  0  0  0
 82209  1  0  0  0
 83 84  2  0  0  0
 83 90  1  0  0  0
 85 86  1  0  0  0
 85210  1  0  0  0
 85211  1  0  0  0
 86 87  1  0  0  0
 86212  1  0  0  0
 86213  1  0  0  0
 87 88  2  0  0  0
 87 89  1  0  0  0
 89214  1  0  0  0
 89215  1  0  0  0
 90 91  1  0  0  0
 90216  1  0  0  0
 91 92  1  0  0  0
 91 94  1  0  0  0
 91217  1  0  0  0
 92 93  2  0  0  0
 92100  1  0  0  0
 94 95  1  0  0  0
 94218  1  0  0  0
 94219  1  0  0  0
 95 96  2  0  0  0
 95 97  1  0  0  0
 96 98  1  0  0  0
 97 99  2  0  0  0
 97220  1  0  0  0
 98 99  1  0  0  0
 98221  1  0  0  0
100101  1  0  0  0
100222  1  0  0  0
101102  1  0  0  0
101104  1  0  0  0
101223  1  0  0  0
102103  2  0  0  0
102108  1  0  0  0
104105  1  0  0  0
104224  1  0  0  0
104225  1  0  0  0
105106  1  0  0  0
105226  1  0  0  0
105227  1  0  0  0
106107  1  0  0  0
107228  1  0  0  0
107229  1  0  0  0
107230  1  0  0  0
108109  1  0  0  0
108231  1  0  0  0
109110  1  0  0  0
109112  1  0  0  0
109232  1  0  0  0
110111  2  0  0  0
110116  1  0  0  0
112113  1  0  0  0
112233  1  0  0  0
112234  1  0  0  0
113114  2  0  0  0
113115  1  0  0  0
115235  1  0  0  0
116117  1  0  0  0
116236  1  0  0  0
117118  1  0  0  0
117120  1  0  0  0
117237  1  0  0  0
118119  2  0  0  0
118122  1  0  0  0
120121  1  0  0  0
120238  1  0  0  0
120239  1  0  0  0
121240  1  0  0  0
122241  1  0  0  0
122242  1  0  0  0
M  CHG  3   1   1   9   1  49   1
M  END
> <s_m_source_file>
../1j80_ligand.sdf

> <i_m_source_file_index>
1

> <s_epik_input>
W05IMytdW0NIMl1bQ0gyXVtDSDJdW0NIMl1bQ0BIXShbTkgzK10pQyg9TylbTkhdW0NAQEhdKFtDSDJdW0NIMl1DKD1PKVtPSF0pQyg9TylbTkhdW0NAQEhdKFtDQEhdKFtPSF0pW0NIM10pQyg9TylbTkhdW0NAQEhdKFtDSDNdKUMoPU8pW05IXVtDQEBIXShbQ0gzXSlDKD1PKVtOSF1bQ0BASF0oW0NIM10pQyg9TylbTkhdW0NAQEhdKFtDSDJdW0NIMl1bQ0gyXVtDSDJdW05IMytdKUMoPU8pW05IXVtDQEBIXShbQ0gyXWMxW2NIXVtjSF1bY0hdW2NIXVtjSF0xKUMoPU8pW05IXVtDQEBIXShbQ0gyXVtDSDJdQyg9TylbT0hdKUMoPU8pW05IXVtDQEBIXShbQ0gyXVtDSDJdW0NIMl1bTkhdL0MoPU5cW0hdKVtOSDJdKUMoPU8pW05IXVtDQEBIXShbQ0gyXVtDSDJdQyg9TylbTkgyXSlDKD1PKVtOSF1bQ0BASF0oW0NIMl1DMj1OW0NIMl1OPVtDSF0yKUMoPU8pW05IXVtDQEBIXShbQ0gyXVtDSDJdU1tDSDNdKUMoPU8pW05IXVtDQEBIXShbQ0gyXUMoPU8pW09IXSlDKD1PKVtOSF1bQ0BIXShDKD1PKVtOSDJdKVtDSDJdW09IXQ==

> <s_epik_cmdline>
J2VwaWtfYXBwJywgJy1pbWFlJywgJ2xpZ2FuZF9wcm8ubWFlJywgJy1vbWFlJywgJ2xpZ2FuZF9wcmVwLm1hZScsICctbXMnLCAnMScsICctcGgnLCAnNycsICctcGh0JywgJzAuNScsICctbnQn

> <s_epik_pKa_notes>
Molecule size exceeds maximum supported for generating protonation states

> <s_epik_Chemistry_Notes>
This compound has an imine and may undergo hydrolysis.

$$$$
