1j81_ligand
                    3D
 Schrodinger Suite 2020-3.
242243  0  0  1  0            999 V2000
  -13.2400    8.1620   20.1230 N   0  3  0  0  0  0
  -14.5260    7.6250   19.5950 C   0  0  2  0  0  0
  -14.4300    6.1190   19.3390 C   0  0  0  0  0  0
  -14.4820    5.3210   20.2790 O   0  0  0  0  0  0
  -14.9110    8.3580   18.3040 C   0  0  0  0  0  0
  -16.3600    8.8490   18.2490 C   0  0  0  0  0  0
  -16.5360    9.9820   17.2300 C   0  0  0  0  0  0
  -16.7790    9.4380   15.8190 C   0  0  0  0  0  0
  -17.1230   10.5210   14.8430 N   0  3  0  0  0  0
  -14.2890    5.7380   18.0700 N   0  0  0  0  0  0
  -14.2020    4.3290   17.6990 C   0  0  2  0  0  0
  -12.7830    3.7330   17.6740 C   0  0  0  0  0  0
  -11.9490    4.1090   16.8510 O   0  0  0  0  0  0
  -14.8750    4.1210   16.3360 C   0  0  0  0  0  0
  -15.2980    2.6830   16.0990 C   0  0  0  0  0  0
  -15.9230    2.4450   14.7330 C   0  0  0  0  0  0
  -15.4160    2.9980   13.7300 O   0  0  0  0  0  0
  -16.9220    1.6910   14.6760 O   0  0  0  0  0  0
  -12.5140    2.7990   18.5820 N   0  0  0  0  0  0
  -11.2160    2.1360   18.6430 C   0  0  2  0  0  0
  -11.0710    1.1960   17.4510 C   0  0  0  0  0  0
  -12.0460    0.9160   16.7540 O   0  0  0  0  0  0
  -11.0720    1.2990   19.9060 C   0  0  2  0  0  0
  -11.9130    0.1440   19.8070 O   0  0  0  0  0  0
  -11.4650    2.1070   21.1240 C   0  0  0  0  0  0
   -9.8560    0.6960   17.2360 N   0  0  0  0  0  0
   -9.5750   -0.2080   16.1230 C   0  0  2  0  0  0
  -10.3060   -1.5480   16.2180 C   0  0  0  0  0  0
  -10.7360   -2.1030   15.2020 O   0  0  0  0  0  0
   -8.0870   -0.4340   16.0300 C   0  0  0  0  0  0
  -10.4380   -2.0670   17.4380 N   0  0  0  0  0  0
  -11.1290   -3.3360   17.6700 C   0  0  2  0  0  0
  -12.6340   -3.1460   17.4770 C   0  0  0  0  0  0
  -13.3230   -4.0400   16.9900 O   0  0  0  0  0  0
  -10.8430   -3.8500   19.0840 C   0  0  0  0  0  0
  -13.1400   -1.9760   17.8550 N   0  0  0  0  0  0
  -14.5600   -1.6860   17.6970 C   0  0  2  0  0  0
  -14.8780   -1.6360   16.2150 C   0  0  0  0  0  0
  -15.8820   -2.1880   15.7580 O   0  0  0  0  0  0
  -14.9050   -0.3470   18.3330 C   0  0  0  0  0  0
  -14.0130   -0.9590   15.4670 N   0  0  0  0  0  0
  -14.1930   -0.8160   14.0300 C   0  0  2  0  0  0
  -14.1570   -2.1470   13.2830 C   0  0  0  0  0  0
  -14.8980   -2.3510   12.3110 O   0  0  0  0  0  0
  -13.1260    0.1090   13.4740 C   0  0  0  0  0  0
  -13.3180    0.4330   12.0140 C   0  0  0  0  0  0
  -12.1760    1.2910   11.5410 C   0  0  0  0  0  0
  -11.9640    1.1680   10.0620 C   0  0  0  0  0  0
  -11.5950    2.4970    9.4970 N   0  3  0  0  0  0
  -13.3000   -3.0560   13.7370 N   0  0  0  0  0  0
  -13.1980   -4.3620   13.1070 C   0  0  2  0  0  0
  -14.5410   -5.0610   13.2830 C   0  0  0  0  0  0
  -15.0490   -5.6880   12.3590 O   0  0  0  0  0  0
  -12.0870   -5.1940   13.7580 C   0  0  0  0  0  0
  -12.0250   -6.6220   13.2620 C   0  0  0  0  0  0
  -11.1580   -6.9810   12.2410 C   0  0  0  0  0  0
  -12.8340   -7.6120   13.8270 C   0  0  0  0  0  0
  -11.0930   -8.3050   11.7840 C   0  0  0  0  0  0
  -12.7780   -8.9450   13.3740 C   0  0  0  0  0  0
  -11.9060   -9.2840   12.3540 C   0  0  0  0  0  0
  -15.1190   -4.9390   14.4750 N   0  0  0  0  0  0
  -16.4020   -5.5680   14.7680 C   0  0  2  0  0  0
  -17.5460   -5.0280   13.9110 C   0  0  0  0  0  0
  -18.3730   -5.7960   13.4090 O   0  0  0  0  0  0
  -16.7220   -5.3990   16.2500 C   0  0  0  0  0  0
  -15.8390   -6.2540   17.1540 C   0  0  0  0  0  0
  -15.9320   -5.8740   18.6290 C   0  0  0  0  0  0
  -16.2660   -4.7110   18.9300 O   0  0  0  0  0  0
  -15.6670   -6.7400   19.4920 O   0  0  0  0  0  0
  -17.5880   -3.7130   13.7280 N   0  0  0  0  0  0
  -18.6500   -3.0990   12.9350 C   0  0  2  0  0  0
  -18.5090   -3.4400   11.4570 C   0  0  0  0  0  0
  -19.4870   -3.6510   10.7520 O   0  0  0  0  0  0
  -18.6240   -1.5790   13.1210 C   0  0  0  0  0  0
  -19.5240   -0.8200   12.1680 C   0  0  0  0  0  0
  -19.4650    0.6830   12.4210 C   0  0  0  0  0  0
  -18.1070    1.1990   12.2580 N   0  0  0  0  0  0
  -17.6140    1.6840   11.1220 C   0  0  0  0  0  0
  -16.3640    2.1300   11.0750 N   0  0  0  0  0  0
  -18.3720    1.7300   10.0330 N   0  0  0  0  0  0
  -17.2700   -3.5150   11.0040 N   0  0  0  0  0  0
  -16.9800   -3.8030    9.6150 C   0  0  2  0  0  0
  -17.0250   -5.2640    9.1880 C   0  0  0  0  0  0
  -17.3700   -5.5550    8.0450 O   0  0  0  0  0  0
  -15.5970   -3.2610    9.2660 C   0  0  0  0  0  0
  -15.5140   -1.7710    9.0750 C   0  0  0  0  0  0
  -14.2470   -1.3820    8.3520 C   0  0  0  0  0  0
  -13.2280   -2.0660    8.4590 O   0  0  0  0  0  0
  -14.3000   -0.2860    7.6050 N   0  0  0  0  0  0
  -16.6730   -6.1790   10.0840 N   0  0  0  0  0  0
  -16.6220   -7.5820    9.7040 C   0  0  2  0  0  0
  -17.4430   -8.5940   10.4820 C   0  0  0  0  0  0
  -17.5830   -9.7280   10.0310 O   0  0  0  0  0  0
  -15.1620   -8.0560    9.6980 C   0  0  0  0  0  0
  -14.2200   -7.1180    9.0060 C   0  0  0  0  0  0
  -14.2790   -6.8670    7.6530 N   0  0  0  0  0  0
  -13.1890   -6.3780    9.4800 C   0  0  0  0  0  0
  -13.3260   -6.0140    7.3210 C   0  0  0  0  0  0
  -12.6480   -5.7030    8.4100 N   0  0  0  0  0  0
  -17.9880   -8.2210   11.6320 N   0  0  0  0  0  0
  -18.7530   -9.1910   12.4140 C   0  0  2  0  0  0
  -20.2420   -9.2570   12.0890 C   0  0  0  0  0  0
  -20.9330   -8.2500   12.0890 O   0  0  0  0  0  0
  -18.5860   -8.9110   13.9140 C   0  0  0  0  0  0
  -17.2420   -9.3170   14.4810 C   0  0  0  0  0  0
  -16.7540  -10.9700   13.9330 S   0  0  0  0  0  0
  -18.0600  -11.9700   14.6310 C   0  0  0  0  0  0
  -20.7260  -10.4540   11.8010 N   0  0  0  0  0  0
  -22.1360  -10.6590   11.5440 C   0  0  2  0  0  0
  -22.4610  -12.0650   12.0000 C   0  0  0  0  0  0
  -22.7310  -12.9440   11.1880 O   0  0  0  0  0  0
  -22.4900  -10.5110   10.0690 C   0  0  0  0  0  0
  -23.9870  -10.6370    9.8230 C   0  0  0  0  0  0
  -24.7680  -10.3140   10.7480 O   0  0  0  0  0  0
  -24.3920  -11.0630    8.7180 O   0  0  0  0  0  0
  -22.4280  -12.2620   13.3130 N   0  0  0  0  0  0
  -22.7080  -13.5550   13.9120 C   0  0  2  0  0  0
  -24.0970  -14.0600   13.5240 C   0  0  0  0  0  0
  -24.2640  -15.2170   13.1210 O   0  0  0  0  0  0
  -22.5970  -13.4380   15.4320 C   0  0  0  0  0  0
  -21.7160  -12.3810   15.7860 O   0  0  0  0  0  0
  -25.0940  -13.1860   13.6400 N   0  0  0  0  0  0
  -12.9729    7.6302   21.0481 H   0  0  0  0  0  0
  -13.3508    9.2355   20.3360 H   0  0  0  0  0  0
  -12.4471    8.0167   19.3745 H   0  0  0  0  0  0
  -15.2850    7.8047   20.3707 H   0  0  0  0  0  0
  -14.2720    9.2450   18.1815 H   0  0  0  0  0  0
  -14.7727    7.6850   17.4450 H   0  0  0  0  0  0
  -17.0183    8.0168   17.9590 H   0  0  0  0  0  0
  -16.6579    9.2242   19.2392 H   0  0  0  0  0  0
  -17.3982   10.6021   17.5164 H   0  0  0  0  0  0
  -15.6281   10.6027   17.2113 H   0  0  0  0  0  0
  -15.8708    8.9319   15.4597 H   0  0  0  0  0  0
  -17.6136    8.7218   15.8408 H   0  0  0  0  0  0
  -17.2873   10.0799   13.8488 H   0  0  0  0  0  0
  -16.2958   11.2442   14.7912 H   0  0  0  0  0  0
  -18.0386   11.0341   15.1723 H   0  0  0  0  0  0
  -14.2384    6.5154   17.2934 H   0  0  0  0  0  0
  -14.7372    3.8377   18.5249 H   0  0  0  0  0  0
  -15.7753    4.7497   16.2719 H   0  0  0  0  0  0
  -14.1749    4.4004   15.5349 H   0  0  0  0  0  0
  -14.4198    2.0251   16.1756 H   0  0  0  0  0  0
  -16.0423    2.3905   16.8543 H   0  0  0  0  0  0
  -17.4057    1.4911   13.7085 H   0  0  0  0  0  0
  -13.3031    2.5304   19.2998 H   0  0  0  0  0  0
  -10.4776    2.9513   18.6357 H   0  0  0  0  0  0
  -10.0406    0.9322   20.0138 H   0  0  0  0  0  0
  -11.7756   -0.5671   18.9791 H   0  0  0  0  0  0
  -10.8188    2.9940   21.1997 H   0  0  0  0  0  0
  -11.3477    1.4898   22.0269 H   0  0  0  0  0  0
  -12.5140    2.4244   21.0305 H   0  0  0  0  0  0
   -9.0507    0.9833   17.9280 H   0  0  0  0  0  0
   -9.9541    0.3192   15.2351 H   0  0  0  0  0  0
   -7.5724    0.5358   15.9622 H   0  0  0  0  0  0
   -7.8622   -1.0318   15.1344 H   0  0  0  0  0  0
   -7.7410   -0.9709   16.9256 H   0  0  0  0  0  0
  -10.0087   -1.5117   18.2849 H   0  0  0  0  0  0
  -10.7329   -4.0449   16.9280 H   0  0  0  0  0  0
   -9.7588   -3.9835   19.2133 H   0  0  0  0  0  0
  -11.3515   -4.8138   19.2336 H   0  0  0  0  0  0
  -11.2132   -3.1218   19.8207 H   0  0  0  0  0  0
  -12.4699   -1.2213   18.2925 H   0  0  0  0  0  0
  -15.1146   -2.4912   18.2011 H   0  0  0  0  0  0
  -14.6749   -0.3816   19.4081 H   0  0  0  0  0  0
  -15.9764   -0.1402   18.1938 H   0  0  0  0  0  0
  -14.3131    0.4485   17.8567 H   0  0  0  0  0  0
  -13.1435   -0.5005   15.9607 H   0  0  0  0  0  0
  -15.1997   -0.3852   13.9249 H   0  0  0  0  0  0
  -13.1393    1.0591   14.0283 H   0  0  0  0  0  0
  -12.1387   -0.3640   13.5809 H   0  0  0  0  0  0
  -13.3436   -0.4999   11.4317 H   0  0  0  0  0  0
  -14.2659    0.9749   11.8802 H   0  0  0  0  0  0
  -12.3886    2.3450   11.7733 H   0  0  0  0  0  0
  -11.2506    0.9828   12.0497 H   0  0  0  0  0  0
  -11.1539    0.4501    9.8662 H   0  0  0  0  0  0
  -12.8907    0.8136    9.5869 H   0  0  0  0  0  0
  -11.4401    2.4039    8.4120 H   0  0  0  0  0  0
  -10.6679    2.8522    9.9706 H   0  0  0  0  0  0
  -12.4047    3.2157    9.6915 H   0  0  0  0  0  0
  -12.6636   -2.8104   14.5999 H   0  0  0  0  0  0
  -12.9550   -4.1983   12.0468 H   0  0  0  0  0  0
  -11.1113   -4.7319   13.5470 H   0  0  0  0  0  0
  -12.2470   -5.2323   14.8456 H   0  0  0  0  0  0
  -10.5184   -6.2237   11.7876 H   0  0  0  0  0  0
  -13.5200   -7.3482   14.6319 H   0  0  0  0  0  0
  -10.4051   -8.5697   10.9810 H   0  0  0  0  0  0
  -13.4174   -9.7045   13.8240 H   0  0  0  0  0  0
  -11.8550  -10.3128   11.9975 H   0  0  0  0  0  0
  -14.6071   -4.3476   15.2484 H   0  0  0  0  0  0
  -16.2588   -6.6265   14.5053 H   0  0  0  0  0  0
  -16.5759   -4.3478   16.5391 H   0  0  0  0  0  0
  -17.7671   -5.6882   16.4348 H   0  0  0  0  0  0
  -16.1369   -7.3092   17.0658 H   0  0  0  0  0  0
  -14.7875   -6.1433   16.8505 H   0  0  0  0  0  0
  -15.7276   -6.4878   20.5610 H   0  0  0  0  0  0
  -16.8083   -3.0847   14.1834 H   0  0  0  0  0  0
  -19.5877   -3.5301   13.3157 H   0  0  0  0  0  0
  -18.9509   -1.3288   14.1411 H   0  0  0  0  0  0
  -17.6008   -1.2076   12.9625 H   0  0  0  0  0  0
  -19.2061   -1.0115   11.1325 H   0  0  0  0  0  0
  -20.5635   -1.1547   12.3002 H   0  0  0  0  0  0
  -20.1229    1.2010   11.7077 H   0  0  0  0  0  0
  -19.7979    0.8954   13.4477 H   0  0  0  0  0  0
  -17.4140    1.2032   13.1122 H   0  0  0  0  0  0
  -15.7328    2.0936   11.9752 H   0  0  0  0  0  0
  -15.9598    2.5359   10.1359 H   0  0  0  0  0  0
  -19.4079    1.3615   10.0679 H   0  0  0  0  0  0
  -16.4470   -3.3515   11.7152 H   0  0  0  0  0  0
  -17.8225   -3.2957    9.1222 H   0  0  0  0  0  0
  -14.8914   -3.5099   10.0724 H   0  0  0  0  0  0
  -15.2525   -3.7139    8.3246 H   0  0  0  0  0  0
  -16.3750   -1.4288    8.4821 H   0  0  0  0  0  0
  -15.5241   -1.2744   10.0565 H   0  0  0  0  0  0
  -15.2340    0.2916    7.5414 H   0  0  0  0  0  0
  -13.4099    0.0446    7.0496 H   0  0  0  0  0  0
  -16.4204   -5.8779   11.1114 H   0  0  0  0  0  0
  -17.1211   -7.5116    8.7263 H   0  0  0  0  0  0
  -14.8081   -8.1664   10.7336 H   0  0  0  0  0  0
  -15.0932   -9.0249    9.1818 H   0  0  0  0  0  0
  -12.7622   -6.2475   10.4854 H   0  0  0  0  0  0
  -13.1327   -5.6322    6.3185 H   0  0  0  0  0  0
  -17.8681   -7.1909   11.9987 H   0  0  0  0  0  0
  -18.3045  -10.1443   12.0976 H   0  0  0  0  0  0
  -18.7002   -7.8330   14.1007 H   0  0  0  0  0  0
  -19.3519   -9.4639   14.4777 H   0  0  0  0  0  0
  -16.4737   -8.6026   14.1504 H   0  0  0  0  0  0
  -17.2929   -9.3183   15.5798 H   0  0  0  0  0  0
  -17.8912  -13.0259   14.3728 H   0  0  0  0  0  0
  -19.0287  -11.6436   14.2248 H   0  0  0  0  0  0
  -18.0641  -11.8562   15.7251 H   0  0  0  0  0  0
  -20.0299  -11.3047   11.7591 H   0  0  0  0  0  0
  -22.6752   -9.8823   12.1061 H   0  0  0  0  0  0
  -22.1665   -9.5222    9.7117 H   0  0  0  0  0  0
  -21.9808  -11.2949    9.4892 H   0  0  0  0  0  0
  -25.8555  -10.3933   10.6025 H   0  0  0  0  0  0
  -22.1776  -11.4024   13.9521 H   0  0  0  0  0  0
  -21.9503  -14.2421   13.5073 H   0  0  0  0  0  0
  -23.5905  -13.2331   15.8575 H   0  0  0  0  0  0
  -22.2086  -14.3807   15.8449 H   0  0  0  0  0  0
  -21.5216  -12.1586   16.8456 H   0  0  0  0  0  0
  -24.8931  -12.1675   14.0038 H   0  0  0  0  0  0
  -26.1190  -13.4821   13.3721 H   0  0  0  0  0  0
  1  2  1  0  0  0
  1123  1  0  0  0
  1124  1  0  0  0
  1125  1  0  0  0
  2  3  1  0  0  0
  2  5  1  0  0  0
  2126  1  0  0  0
  3  4  2  0  0  0
  3 10  1  0  0  0
  5  6  1  0  0  0
  5127  1  0  0  0
  5128  1  0  0  0
  6  7  1  0  0  0
  6129  1  0  0  0
  6130  1  0  0  0
  7  8  1  0  0  0
  7131  1  0  0  0
  7132  1  0  0  0
  8  9  1  0  0  0
  8133  1  0  0  0
  8134  1  0  0  0
  9135  1  0  0  0
  9136  1  0  0  0
  9137  1  0  0  0
 10 11  1  0  0  0
 10138  1  0  0  0
 11 12  1  0  0  0
 11 14  1  0  0  0
 11139  1  0  0  0
 12 13  2  0  0  0
 12 19  1  0  0  0
 14 15  1  0  0  0
 14140  1  0  0  0
 14141  1  0  0  0
 15 16  1  0  0  0
 15142  1  0  0  0
 15143  1  0  0  0
 16 17  2  0  0  0
 16 18  1  0  0  0
 18144  1  0  0  0
 19 20  1  0  0  0
 19145  1  0  0  0
 20 21  1  0  0  0
 20 23  1  0  0  0
 20146  1  0  0  0
 21 22  2  0  0  0
 21 26  1  0  0  0
 23 24  1  0  0  0
 23 25  1  0  0  0
 23147  1  0  0  0
 24148  1  0  0  0
 25149  1  0  0  0
 25150  1  0  0  0
 25151  1  0  0  0
 26 27  1  0  0  0
 26152  1  0  0  0
 27 28  1  0  0  0
 27 30  1  0  0  0
 27153  1  0  0  0
 28 29  2  0  0  0
 28 31  1  0  0  0
 30154  1  0  0  0
 30155  1  0  0  0
 30156  1  0  0  0
 31 32  1  0  0  0
 31157  1  0  0  0
 32 33  1  0  0  0
 32 35  1  0  0  0
 32158  1  0  0  0
 33 34  2  0  0  0
 33 36  1  0  0  0
 35159  1  0  0  0
 35160  1  0  0  0
 35161  1  0  0  0
 36 37  1  0  0  0
 36162  1  0  0  0
 37 38  1  0  0  0
 37 40  1  0  0  0
 37163  1  0  0  0
 38 39  2  0  0  0
 38 41  1  0  0  0
 40164  1  0  0  0
 40165  1  0  0  0
 40166  1  0  0  0
 41 42  1  0  0  0
 41167  1  0  0  0
 42 43  1  0  0  0
 42 45  1  0  0  0
 42168  1  0  0  0
 43 44  2  0  0  0
 43 50  1  0  0  0
 45 46  1  0  0  0
 45169  1  0  0  0
 45170  1  0  0  0
 46 47  1  0  0  0
 46171  1  0  0  0
 46172  1  0  0  0
 47 48  1  0  0  0
 47173  1  0  0  0
 47174  1  0  0  0
 48 49  1  0  0  0
 48175  1  0  0  0
 48176  1  0  0  0
 49177  1  0  0  0
 49178  1  0  0  0
 49179  1  0  0  0
 50 51  1  0  0  0
 50180  1  0  0  0
 51 52  1  0  0  0
 51 54  1  0  0  0
 51181  1  0  0  0
 52 53  2  0  0  0
 52 61  1  0  0  0
 54 55  1  0  0  0
 54182  1  0  0  0
 54183  1  0  0  0
 55 56  2  0  0  0
 55 57  1  0  0  0
 56 58  1  0  0  0
 56184  1  0  0  0
 57 59  2  0  0  0
 57185  1  0  0  0
 58 60  2  0  0  0
 58186  1  0  0  0
 59 60  1  0  0  0
 59187  1  0  0  0
 60188  1  0  0  0
 61 62  1  0  0  0
 61189  1  0  0  0
 62 63  1  0  0  0
 62 65  1  0  0  0
 62190  1  0  0  0
 63 64  2  0  0  0
 63 70  1  0  0  0
 65 66  1  0  0  0
 65191  1  0  0  0
 65192  1  0  0  0
 66 67  1  0  0  0
 66193  1  0  0  0
 66194  1  0  0  0
 67 68  2  0  0  0
 67 69  1  0  0  0
 69195  1  0  0  0
 70 71  1  0  0  0
 70196  1  0  0  0
 71 72  1  0  0  0
 71 74  1  0  0  0
 71197  1  0  0  0
 72 73  2  0  0  0
 72 81  1  0  0  0
 74 75  1  0  0  0
 74198  1  0  0  0
 74199  1  0  0  0
 75 76  1  0  0  0
 75200  1  0  0  0
 75201  1  0  0  0
 76 77  1  0  0  0
 76202  1  0  0  0
 76203  1  0  0  0
 77 78  1  0  0  0
 77204  1  0  0  0
 78 79  1  0  0  0
 78 80  2  0  0  0
 79205  1  0  0  0
 79206  1  0  0  0
 80207  1  0  0  0
 81 82  1  0  0  0
 81208  1  0  0  0
 82 83  1  0  0  0
 82 85  1  0  0  0
 82209  1  0  0  0
 83 84  2  0  0  0
 83 90  1  0  0  0
 85 86  1  0  0  0
 85210  1  0  0  0
 85211  1  0  0  0
 86 87  1  0  0  0
 86212  1  0  0  0
 86213  1  0  0  0
 87 88  2  0  0  0
 87 89  1  0  0  0
 89214  1  0  0  0
 89215  1  0  0  0
 90 91  1  0  0  0
 90216  1  0  0  0
 91 92  1  0  0  0
 91 94  1  0  0  0
 91217  1  0  0  0
 92 93  2  0  0  0
 92100  1  0  0  0
 94 95  1  0  0  0
 94218  1  0  0  0
 94219  1  0  0  0
 95 96  2  0  0  0
 95 97  1  0  0  0
 96 98  1  0  0  0
 97 99  2  0  0  0
 97220  1  0  0  0
 98 99  1  0  0  0
 98221  1  0  0  0
100101  1  0  0  0
100222  1  0  0  0
101102  1  0  0  0
101104  1  0  0  0
101223  1  0  0  0
102103  2  0  0  0
102108  1  0  0  0
104105  1  0  0  0
104224  1  0  0  0
104225  1  0  0  0
105106  1  0  0  0
105226  1  0  0  0
105227  1  0  0  0
106107  1  0  0  0
107228  1  0  0  0
107229  1  0  0  0
107230  1  0  0  0
108109  1  0  0  0
108231  1  0  0  0
109110  1  0  0  0
109112  1  0  0  0
109232  1  0  0  0
110111  2  0  0  0
110116  1  0  0  0
112113  1  0  0  0
112233  1  0  0  0
112234  1  0  0  0
113114  1  0  0  0
113115  2  0  0  0
114235  1  0  0  0
116117  1  0  0  0
116236  1  0  0  0
117118  1  0  0  0
117120  1  0  0  0
117237  1  0  0  0
118119  2  0  0  0
118122  1  0  0  0
120121  1  0  0  0
120238  1  0  0  0
120239  1  0  0  0
121240  1  0  0  0
122241  1  0  0  0
122242  1  0  0  0
M  CHG  3   1   1   9   1  49   1
M  END
> <s_m_source_file>
../1j81_ligand.sdf

> <i_m_source_file_index>
1

> <s_epik_input>
W05IMytdW0NIMl1bQ0gyXVtDSDJdW0NIMl1bQ0BIXShbTkgzK10pQyg9TylbTkhdW0NAQEhdKFtDSDJdW0NIMl1DKD1PKVtPSF0pQyg9TylbTkhdW0NAQEhdKFtDQEhdKFtPSF0pW0NIM10pQyg9TylbTkhdW0NAQEhdKFtDSDNdKUMoPU8pW05IXVtDQEBIXShbQ0gzXSlDKD1PKVtOSF1bQ0BASF0oW0NIM10pQyg9TylbTkhdW0NAQEhdKFtDSDJdW0NIMl1bQ0gyXVtDSDJdW05IMytdKUMoPU8pW05IXVtDQEBIXShbQ0gyXWMxW2NIXVtjSF1bY0hdW2NIXVtjSF0xKUMoPU8pW05IXVtDQEBIXShbQ0gyXVtDSDJdQyg9TylbT0hdKUMoPU8pW05IXVtDQEBIXShbQ0gyXVtDSDJdW0NIMl1bTkhdL0MoW05IMl0pPU5cW0hdKUMoPU8pW05IXVtDQEBIXShbQ0gyXVtDSDJdQyg9TylbTkgyXSlDKD1PKVtOSF1bQ0BASF0oW0NIMl1DMj1OW0NIMl1OPVtDSF0yKUMoPU8pW05IXVtDQEBIXShbQ0gyXVtDSDJdU1tDSDNdKUMoPU8pW05IXVtDQEBIXShbQ0gyXUMoPU8pW09IXSlDKD1PKVtOSF1bQ0BIXShDKD1PKVtOSDJdKVtDSDJdW09IXQ==

> <s_epik_cmdline>
J2VwaWtfYXBwJywgJy1pbWFlJywgJ2xpZ2FuZF9wcm8ubWFlJywgJy1vbWFlJywgJ2xpZ2FuZF9wcmVwLm1hZScsICctbXMnLCAnMScsICctcGgnLCAnNycsICctcGh0JywgJzAuNScsICctbnQn

> <s_epik_pKa_notes>
Molecule size exceeds maximum supported for generating protonation states

> <s_epik_Chemistry_Notes>
This compound has an imine and may undergo hydrolysis.

$$$$
