1jak_ligand
                    3D
 Schrodinger Suite 2020-3.
 31 31  0  0  1  0            999 V2000
   -4.9210   66.0730   10.1950 N   0  3  0  0  0  0
   -5.3230   66.5970    8.8640 C   0  0  1  0  0  0
   -4.1330   66.9630    7.8870 C   0  0  2  0  0  0
   -2.9250   67.6140    8.5930 C   0  0  2  0  0  0
   -2.5140   66.7250    9.7690 C   0  0  1  0  0  0
   -1.2940   67.1970   10.5530 C   0  0  0  0  0  0
   -5.8370   64.3160    8.0960 C   0  0  0  0  0  0
   -6.6540   63.2520    7.4090 C   0  0  0  0  0  0
   -3.6480   66.5190   10.7820 C   0  0  0  0  0  0
   -6.2190   65.6240    8.2000 N   0  0  0  0  0  0
   -4.7800   63.9530    8.5930 O   0  0  0  0  0  0
   -4.6120   67.8320    6.8690 O   0  0  0  0  0  0
   -3.3200   68.8920    9.0900 O   0  0  0  0  0  0
   -0.6840   66.1220   11.2590 O   0  0  0  0  0  0
   -5.6804   66.3477   10.9418 H   0  0  0  0  0  0
   -4.8337   64.9775   10.1467 H   0  0  0  0  0  0
   -5.8844   67.5093    9.1141 H   0  0  0  0  0  0
   -3.7732   66.0623    7.3680 H   0  0  0  0  0  0
   -2.0829   67.7991    7.9099 H   0  0  0  0  0  0
   -2.2494   65.7846    9.2634 H   0  0  0  0  0  0
   -0.5547   67.6235    9.8590 H   0  0  0  0  0  0
   -1.5995   67.9639   11.2800 H   0  0  0  0  0  0
   -7.5744   63.6997    7.0059 H   0  0  0  0  0  0
   -6.9151   62.4658    8.1327 H   0  0  0  0  0  0
   -6.0688   62.8140    6.5870 H   0  0  0  0  0  0
   -3.7972   67.4815   11.2932 H   0  0  0  0  0  0
   -3.2958   65.7699   11.5064 H   0  0  0  0  0  0
   -7.1861   65.9552    7.7937 H   0  0  0  0  0  0
   -5.4748   67.5359    6.2542 H   0  0  0  0  0  0
   -3.6517   69.6750    8.3922 H   0  0  0  0  0  0
    0.2103   66.3044   11.8729 H   0  0  0  0  0  0
  1  2  1  0  0  0
  1  9  1  0  0  0
  1 15  1  0  0  0
  1 16  1  0  0  0
  2  3  1  0  0  0
  2 10  1  0  0  0
  2 17  1  0  0  0
  3  4  1  0  0  0
  3 12  1  0  0  0
  3 18  1  0  0  0
  4  5  1  0  0  0
  4 13  1  0  0  0
  4 19  1  0  0  0
  5  6  1  0  0  0
  5  9  1  0  0  0
  5 20  1  0  0  0
  6 14  1  0  0  0
  6 21  1  0  0  0
  6 22  1  0  0  0
  7  8  1  0  0  0
  7 10  1  0  0  0
  7 11  2  0  0  0
  8 23  1  0  0  0
  8 24  1  0  0  0
  8 25  1  0  0  0
  9 26  1  0  0  0
  9 27  1  0  0  0
 10 28  1  0  0  0
 12 29  1  0  0  0
 13 30  1  0  0  0
 14 31  1  0  0  0
M  CHG  1   1   1
M  END
> <s_m_source_file>
../1jak_ligand.sdf

> <i_m_source_file_index>
1

> <s_epik_input>
W0NIM11DKD1PKVtOSF1bQ0BIXTFbTkgyK11bQ0gyXVtDQEhdKFtDSDJdW09IXSlbQ0BIXShbT0hdKVtDQEBIXTFbT0hd

> <s_epik_cmdline>
J2VwaWtfYXBwJywgJy1pbWFlJywgJ2xpZ2FuZF9wcm8ubWFlJywgJy1vbWFlJywgJ2xpZ2FuZF9wcmVwLm1hZScsICctbXMnLCAnMScsICctcGgnLCAnNycsICctcGh0JywgJzAuNScsICctbnQn

> <r_epik_Ionization_Penalty>
  0.2890

> <r_epik_Ionization_Penalty_Charging>
  0.2890

> <r_epik_Ionization_Penalty_Neutral>
  0.0000

> <r_epik_State_Penalty>
  0.2820

> <r_epik_Charging_Adjusted_Penalty>
0.570985966330135

> <i_epik_Tot_Q>
1

> <i_epik_Tot_abs_Q>
1

> <s_epik_Chemistry_Notes>
This compound contains an acetal/aminal-like group ( X-CH(R)-Y where X, Y are N, S, or O) that may be acid/base labile, releasing an aldehyde.

$$$$
