1jao_ligand
                    3D
 Schrodinger Suite 2020-3.
 43 43  0  0  1  0            999 V2000
   28.1410   59.3310   50.4100 C   0  0  0  0  0  0
   27.9380   60.4170   49.8620 O   0  0  0  0  0  0
   27.0550   58.6650   51.2520 C   0  0  2  0  0  0
   25.8220   58.4370   50.3520 C   0  0  0  0  0  0
   25.8180   57.1130   49.5940 C   0  0  0  0  0  0
   26.5800   56.0320   50.0170 C   0  0  0  0  0  0
   26.5160   54.8120   49.3740 C   0  0  0  0  0  0
   25.6920   54.6650   48.2970 C   0  0  0  0  0  0
   24.9260   55.7290   47.8470 C   0  0  0  0  0  0
   24.9970   56.9420   48.4960 C   0  0  0  0  0  0
   26.7860   59.5460   52.4960 C   0  0  0  0  0  0
   25.4920   58.9180   53.6320 S   0  0  0  0  0  0
   29.3000   58.6810   50.3180 N   0  0  0  0  0  0
   30.4080   59.2270   49.5530 C   0  0  2  0  0  0
   30.4740   58.6420   48.1610 C   0  0  0  0  0  0
   30.2400   57.4560   47.9690 O   0  0  0  0  0  0
   31.6840   59.0130   50.2740 C   0  0  0  0  0  0
   32.1720   58.3430   45.3570 C   0  0  0  0  0  0
   32.1630   57.0380   45.6440 N   0  0  0  0  0  0
   32.7810   58.7980   44.3830 O   0  0  0  0  0  0
   30.9500   59.0920   45.8270 C   0  0  0  0  0  0
   30.8880   59.4780   47.2170 N   0  0  0  0  0  0
   27.3663   57.6780   51.6247 H   0  0  0  0  0  0
   24.9107   58.4520   50.9679 H   0  0  0  0  0  0
   25.7670   59.2346   49.5964 H   0  0  0  0  0  0
   27.2425   56.1491   50.8746 H   0  0  0  0  0  0
   27.1185   53.9738   49.7238 H   0  0  0  0  0  0
   25.6355   53.7037   47.7864 H   0  0  0  0  0  0
   24.2711   55.6066   46.9843 H   0  0  0  0  0  0
   24.3970   57.7787   48.1382 H   0  0  0  0  0  0
   27.7080   59.6336   53.0895 H   0  0  0  0  0  0
   26.4610   60.5462   52.1736 H   0  0  0  0  0  0
   25.2372   59.4824   54.5412 H   0  0  0  0  0  0
   29.4104   57.7155   50.8333 H   0  0  0  0  0  0
   30.2199   60.3082   49.4774 H   0  0  0  0  0  0
   31.6124   59.4462   51.2825 H   0  0  0  0  0  0
   32.5024   59.4996   49.7232 H   0  0  0  0  0  0
   31.8848   57.9343   50.3517 H   0  0  0  0  0  0
   31.6087   56.6714   46.5206 H   0  0  0  0  0  0
   32.7099   56.3303   45.0037 H   0  0  0  0  0  0
   30.8570   60.0322   45.2636 H   0  0  0  0  0  0
   30.0549   58.4747   45.6604 H   0  0  0  0  0  0
   31.1892   60.4916   47.5203 H   0  0  0  0  0  0
  1  3  1  0  0  0
  1  2  2  0  0  0
  1 13  1  0  0  0
  3 11  1  0  0  0
  3  4  1  0  0  0
  3 23  1  0  0  0
  4  5  1  0  0  0
  4 24  1  0  0  0
  4 25  1  0  0  0
  5 10  2  0  0  0
  5  6  1  0  0  0
  6  7  2  0  0  0
  6 26  1  0  0  0
  7  8  1  0  0  0
  7 27  1  0  0  0
  8  9  2  0  0  0
  8 28  1  0  0  0
  9 10  1  0  0  0
  9 29  1  0  0  0
 10 30  1  0  0  0
 11 12  1  0  0  0
 11 31  1  0  0  0
 11 32  1  0  0  0
 12 33  1  0  0  0
 13 14  1  0  0  0
 13 34  1  0  0  0
 14 15  1  0  0  0
 14 17  1  0  0  0
 14 35  1  0  0  0
 15 16  2  0  0  0
 15 22  1  0  0  0
 17 36  1  0  0  0
 17 37  1  0  0  0
 17 38  1  0  0  0
 18 21  1  0  0  0
 18 20  2  0  0  0
 18 19  1  0  0  0
 19 39  1  0  0  0
 19 40  1  0  0  0
 21 22  1  0  0  0
 21 41  1  0  0  0
 21 42  1  0  0  0
 22 43  1  0  0  0
M  END
> <s_m_source_file>
../1jao_ligand.sdf

> <i_m_source_file_index>
1

> <s_epik_input>
W05IMl1DKD1PKVtDSDJdW05IXUMoPU8pW0NASF0oW0NIM10pW05IXUMoPU8pW0NAQEhdKFtDSDJdW1NIXSlbQ0gyXWMxW2NIXVtjSF1bY0hdW2NIXVtjSF0x

> <s_epik_cmdline>
J2VwaWtfYXBwJywgJy1pbWFlJywgJ2xpZ2FuZF9wcm8ubWFlJywgJy1vbWFlJywgJ2xpZ2FuZF9wcmVwLm1hZScsICctbXMnLCAnMScsICctcGgnLCAnNycsICctcGh0JywgJzAuNScsICctbnQn

> <r_lp_tautomer_probability>
1

> <r_epik_Ionization_Penalty>
  0.0027

> <r_epik_Ionization_Penalty_Charging>
  0.0000

> <r_epik_Ionization_Penalty_Neutral>
  0.0027

> <r_epik_State_Penalty>
 -0.0000

> <r_epik_Charging_Adjusted_Penalty>
0

> <i_epik_Tot_Q>
0

> <i_epik_Tot_abs_Q>
0

$$$$
