1jaq_ligand
                    3D
 Schrodinger Suite 2020-3.
 43 42  0  0  1  0            999 V2000
   26.8430   59.7710   53.4900 C   0  0  0  0  0  0
   27.2550   58.6470   53.6670 O   0  0  0  0  0  0
   27.7710   60.8910   52.9840 C   0  0  2  0  0  0
   28.1990   60.6030   51.5540 C   0  0  0  0  0  0
   27.9860   61.4070   50.6410 O   0  0  0  0  0  0
   29.0010   60.9470   53.8590 C   0  0  0  0  0  0
   28.9460   61.9840   54.9840 C   0  0  0  0  0  0
   29.2660   63.3870   54.4510 C   0  0  0  0  0  0
   27.5730   61.9580   55.7150 C   0  0  0  0  0  0
   25.5830   60.0800   53.7210 N   0  0  0  0  0  0
   24.7190   59.0810   54.1600 O   0  0  0  0  0  0
   28.8560   59.4730   51.3550 N   0  0  0  0  0  0
   29.3250   59.1540   50.0270 C   0  0  2  0  0  0
   28.2420   58.4100   49.2240 C   0  0  0  0  0  0
   28.4690   58.0280   48.0740 O   0  0  0  0  0  0
   30.6140   58.3850   50.1030 C   0  0  0  0  0  0
   25.9370   56.1170   48.8290 C   0  0  0  0  0  0
   26.3920   55.2060   49.6780 N   0  0  0  0  0  0
   25.1680   55.8360   47.9080 O   0  0  0  0  0  0
   25.9430   57.5180   49.3080 C   0  0  0  0  0  0
   27.1300   58.1020   49.9100 N   0  0  0  0  0  0
   27.2486   61.8584   53.0191 H   0  0  0  0  0  0
   29.1547   59.9690   54.3384 H   0  0  0  0  0  0
   29.8780   61.1954   53.2433 H   0  0  0  0  0  0
   29.7280   61.7176   55.7103 H   0  0  0  0  0  0
   30.2404   63.3720   53.9409 H   0  0  0  0  0  0
   29.3019   64.0983   55.2893 H   0  0  0  0  0  0
   28.4850   63.6963   53.7408 H   0  0  0  0  0  0
   27.3734   60.9412   56.0842 H   0  0  0  0  0  0
   26.7790   62.2562   55.0145 H   0  0  0  0  0  0
   27.5958   62.6582   56.5631 H   0  0  0  0  0  0
   25.2098   61.1042   53.5733 H   0  0  0  0  0  0
   23.6629   59.3156   54.3593 H   0  0  0  0  0  0
   29.0467   58.7792   52.1871 H   0  0  0  0  0  0
   29.5374   60.1181   49.5417 H   0  0  0  0  0  0
   31.3498   58.9593   50.6851 H   0  0  0  0  0  0
   31.0009   58.2166   49.0872 H   0  0  0  0  0  0
   30.4347   57.4163   50.5923 H   0  0  0  0  0  0
   27.0774   55.5011   50.4862 H   0  0  0  0  0  0
   26.0842   54.1551   49.5742 H   0  0  0  0  0  0
   25.7258   58.1937   48.4676 H   0  0  0  0  0  0
   25.1759   57.6427   50.0865 H   0  0  0  0  0  0
   27.1508   58.3166   50.9887 H   0  0  0  0  0  0
  1 10  1  0  0  0
  1  3  1  0  0  0
  1  2  2  0  0  0
  3  6  1  0  0  0
  3  4  1  0  0  0
  3 22  1  0  0  0
  4  5  2  0  0  0
  4 12  1  0  0  0
  6  7  1  0  0  0
  6 23  1  0  0  0
  6 24  1  0  0  0
  7  9  1  0  0  0
  7  8  1  0  0  0
  7 25  1  0  0  0
  8 26  1  0  0  0
  8 27  1  0  0  0
  8 28  1  0  0  0
  9 29  1  0  0  0
  9 30  1  0  0  0
  9 31  1  0  0  0
 10 11  1  0  0  0
 10 32  1  0  0  0
 11 33  1  0  0  0
 12 13  1  0  0  0
 12 34  1  0  0  0
 13 14  1  0  0  0
 13 16  1  0  0  0
 13 35  1  0  0  0
 14 15  2  0  0  0
 14 21  1  0  0  0
 16 36  1  0  0  0
 16 37  1  0  0  0
 16 38  1  0  0  0
 17 20  1  0  0  0
 17 19  2  0  0  0
 17 18  1  0  0  0
 18 39  1  0  0  0
 18 40  1  0  0  0
 20 21  1  0  0  0
 20 41  1  0  0  0
 20 42  1  0  0  0
 21 43  1  0  0  0
M  END
> <s_m_source_file>
../1jaq_ligand.sdf

> <i_m_source_file_index>
1

> <s_epik_input>
W0NIM11bQ0hdKFtDSDNdKVtDSDJdW0NASF0oQyg9TylbTkhdW09IXSlDKD1PKVtOSF1bQ0BASF0oW0NIM10pQyg9TylbTkhdW0NIMl1DKD1PKVtOSDJd

> <s_epik_cmdline>
J2VwaWtfYXBwJywgJy1pbWFlJywgJ2xpZ2FuZF9wcm8ubWFlJywgJy1vbWFlJywgJ2xpZ2FuZF9wcmVwLm1hZScsICctbXMnLCAnMScsICctcGgnLCAnNycsICctcGh0JywgJzAuNScsICctbnQn

> <r_epik_Ionization_Penalty>
  0.0330

> <r_epik_Ionization_Penalty_Charging>
  0.0000

> <r_epik_Ionization_Penalty_Neutral>
  0.0330

> <r_epik_State_Penalty>
  0.0216

> <r_epik_Charging_Adjusted_Penalty>
0.0216441781055324

> <i_epik_Tot_Q>
0

> <i_epik_Tot_abs_Q>
0

> <s_epik_Chemistry_Notes>
This compound has a N-S or N-O group and may undergo hydrolysis at high or low pH.

$$$$
