1jbd_ligand
                    3D
 Schrodinger Suite 2020-3.
243250  0  0  1  0            999 V2000
  -15.1460   -4.8690    4.4280 N   0  3  0  0  0  0
  -14.5550   -3.5400    4.4620 C   0  0  2  0  0  0
  -13.0350   -3.6580    4.5430 C   0  0  0  0  0  0
  -12.4760   -3.8460    5.6220 O   0  0  0  0  0  0
  -15.1470   -2.7170    5.6080 C   0  0  0  0  0  0
  -14.2780   -1.5620    6.0480 C   0  0  0  0  0  0
  -13.9630   -1.3210    7.3730 N   0  0  0  0  0  0
  -13.6610   -0.5860    5.3230 C   0  0  0  0  0  0
  -13.1890   -0.2500    7.4330 C   0  0  0  0  0  0
  -13.0060    0.2060    6.1630 N   0  0  0  0  0  0
  -12.4020   -3.5390    3.3820 N   0  0  0  0  0  0
  -10.9530   -3.6290    3.3060 C   0  0  2  0  0  0
  -10.4730   -3.2810    1.8970 C   0  0  0  0  0  0
  -11.2770   -3.1920    0.9680 O   0  0  0  0  0  0
  -10.4700   -5.0340    3.6710 C   0  0  0  0  0  0
   -9.9060   -5.0700    5.0920 C   0  0  0  0  0  0
   -8.3880   -5.2590    5.0760 C   0  0  0  0  0  0
   -7.7990   -4.7470    6.3360 N   0  0  0  0  0  0
   -7.8890   -3.4630    6.7390 C   0  0  0  0  0  0
   -8.5450   -2.5490    5.9940 N   0  0  0  0  0  0
   -7.3270   -3.1140    7.8820 N   0  0  0  0  0  0
   -9.1670   -3.0910    1.7800 N   0  0  0  0  0  0
   -8.5700   -2.7540    0.5000 C   0  0  2  0  0  0
   -7.6080   -3.8480    0.0360 C   0  0  0  0  0  0
   -6.4730   -3.5640   -0.3410 O   0  0  0  0  0  0
   -7.7850   -1.4620    0.7300 C   0  0  0  0  0  0
   -8.0280   -0.8200    2.0950 C   0  0  0  0  0  0
   -7.3280   -1.2620    3.2000 C   0  0  0  0  0  0
   -8.9450    0.2040    2.2230 C   0  0  0  0  0  0
   -7.5550   -0.6580    4.4870 C   0  0  0  0  0  0
   -9.1720    0.8070    3.5120 C   0  0  0  0  0  0
   -8.4700    0.3480    4.5770 C   0  0  0  0  0  0
   -8.6810    0.9200    5.7920 O   0  0  0  0  0  0
   -8.0970   -5.0810    0.0810 N   0  0  0  0  0  0
   -7.2920   -6.2170   -0.3260 C   0  0  2  0  0  0
   -6.8360   -6.0740   -1.7810 C   0  0  0  0  0  0
   -6.9210   -4.9900   -2.3550 O   0  0  0  0  0  0
   -8.2040   -7.4410   -0.2110 C   0  0  0  0  0  0
   -7.9740   -8.2710    1.0510 C   0  0  0  0  0  0
   -8.6350   -7.9490    2.2210 C   0  0  0  0  0  0
   -7.1090   -9.3470    1.0200 C   0  0  0  0  0  0
   -8.4150   -8.7320    3.4100 C   0  0  0  0  0  0
   -6.8920  -10.1280    2.2120 C   0  0  0  0  0  0
   -7.5570   -9.7830    3.3480 C   0  0  0  0  0  0
   -7.3520  -10.5230    4.4700 O   0  0  0  0  0  0
   -6.3620   -7.1820   -2.3330 N   0  0  0  0  0  0
   -5.8910   -7.1900   -3.7060 C   0  0  2  0  0  0
   -6.8940   -7.9190   -4.6060 C   0  0  0  0  0  0
   -6.5040   -8.6630   -5.4990 O   0  0  0  0  0  0
   -4.5020   -7.8290   -3.8060 C   0  0  0  0  0  0
   -4.6020   -9.3570   -3.8030 C   0  0  0  0  0  0
   -3.9100   -9.9510   -5.0310 C   0  0  0  0  0  0
   -2.6978  -10.0880   -5.0458 O   0  0  0  0  0  0
   -4.7278  -10.2851   -6.0252 O   0  0  0  0  0  0
   -8.1680   -7.6710   -4.3350 N   0  0  0  0  0  0
   -9.2300   -8.2930   -5.1090 C   0  0  2  0  0  0
  -10.4390   -7.3600   -5.1780 C   0  0  0  0  0  0
  -11.4200   -7.6590   -5.8590 O   0  0  0  0  0  0
   -9.6330   -9.6410   -4.5070 C   0  0  0  0  0  0
  -10.8570  -10.1230   -5.0530 O   0  0  0  0  0  0
  -10.3310   -6.2470   -4.4680 N   0  0  0  0  0  0
  -11.4060   -5.2680   -4.4420 C   0  0  2  0  0  0
  -10.9530   -4.0150   -3.6890 C   0  0  0  0  0  0
   -9.9240   -4.0290   -3.0130 O   0  0  0  0  0  0
  -12.6640   -5.8490   -3.7940 C   0  0  0  0  0  0
  -13.6360   -4.8450   -3.5180 O   0  0  0  0  0  0
  -11.7400   -2.9600   -3.8350 N   0  0  0  0  0  0
  -11.4340   -1.7010   -3.1790 C   0  0  2  0  0  0
  -12.6420   -1.2530   -2.3520 C   0  0  0  0  0  0
  -12.5000   -0.4860   -1.4020 O   0  0  0  0  0  0
  -10.9690   -0.6630   -4.2020 C   0  0  0  0  0  0
  -10.1570    0.5110   -3.6470 C   0  0  0  0  0  0
  -11.0740    1.5470   -2.9950 C   0  0  0  0  0  0
   -9.0720    0.0210   -2.6880 C   0  0  0  0  0  0
  -13.8030   -1.7550   -2.7450 N   0  0  0  0  0  0
  -15.0370   -1.4150   -2.0510 C   0  0  2  0  0  0
  -15.2170   -2.3080   -0.8220 C   0  0  0  0  0  0
  -14.8600   -3.4830   -0.8450 O   0  0  0  0  0  0
  -16.2410   -1.5260   -2.9900 C   0  0  0  0  0  0
  -15.9400   -0.8790   -4.3440 C   0  0  0  0  0  0
  -15.5920    0.6010   -4.1780 C   0  0  0  0  0  0
  -14.4250    0.9566   -4.1839 O   0  0  0  0  0  0
  -16.6346    1.4142   -4.0344 O   0  0  0  0  0  0
  -15.7820   -1.6950    0.2530 N   0  0  0  0  0  0
  -16.0150   -2.4200    1.4920 C   0  0  2  0  0  0
  -17.2080   -3.3670    1.3560 C   0  0  0  0  0  0
  -17.8450   -3.7180    2.3490 O   0  0  0  0  0  0
  -16.2250   -1.3440    2.5420 C   0  0  0  0  0  0
  -16.5680   -0.0760    1.7810 C   0  0  0  0  0  0
  -16.2170   -0.3040    0.3160 C   0  0  0  0  0  0
  -17.4770   -3.7600    0.1180 N   0  0  0  0  0  0
  -18.5830   -4.6590   -0.1580 C   0  0  2  0  0  0
  -18.0310   -5.8670   -0.9150 C   0  0  0  0  0  0
  -18.5090   -6.9850   -0.7370 O   0  0  0  0  0  0
  -19.7000   -3.9370   -0.9200 C   0  0  0  0  0  0
  -21.1100   -4.3590   -0.4990 C   0  0  0  0  0  0
  -21.7940   -5.4440   -0.8820 C   0  0  0  0  0  0
  -21.9840   -3.6520    0.4050 C   0  0  0  0  0  0
  -23.0430   -5.4880   -0.2920 N   0  0  0  0  0  0
  -23.1610   -4.3640    0.5140 C   0  0  0  0  0  0
  -21.7900   -2.4470    1.1080 C   0  0  0  0  0  0
  -24.2340   -3.9580    1.3170 C   0  0  0  0  0  0
  -22.8680   -2.0550    1.9070 C   0  0  0  0  0  0
  -24.0630   -2.7600    2.0250 C   0  0  0  0  0  0
  -17.0310   -5.6020   -1.7410 N   0  0  0  0  0  0
  -16.4080   -6.6550   -2.5250 C   0  0  2  0  0  0
  -15.1410   -7.1710   -1.8420 C   0  0  0  0  0  0
  -14.8360   -8.3610   -1.9080 O   0  0  0  0  0  0
  -16.0270   -6.0150   -3.8650 C   0  0  0  0  0  0
  -17.2020   -5.8620   -4.8350 C   0  0  0  0  0  0
  -18.4890   -6.0920   -4.4020 C   0  0  0  0  0  0
  -16.9660   -5.4930   -6.1460 C   0  0  0  0  0  0
  -19.5930   -5.9490   -5.3170 C   0  0  0  0  0  0
  -18.0720   -5.3460   -7.0570 C   0  0  0  0  0  0
  -19.3270   -5.5820   -6.5990 C   0  0  0  0  0  0
  -20.3720   -5.4460   -7.4620 O   0  0  0  0  0  0
  -14.4180   -6.2260   -1.1870 N   0  0  0  0  0  0
  -13.1890   -6.5710   -0.4910 C   0  0  2  0  0  0
  -13.4870   -7.3020    0.8200 C   0  0  0  0  0  0
  -12.7700   -8.2280    1.1970 O   0  0  0  0  0  0
  -12.4670   -5.2510   -0.2830 C   0  0  0  0  0  0
  -13.5200   -4.1690   -0.4520 C   0  0  0  0  0  0
  -14.7460   -4.8050   -1.0880 C   0  0  0  0  0  0
  -14.5490   -6.8600    1.4780 N   0  0  0  0  0  0
  -14.9510   -7.4600    2.7390 C   0  0  2  0  0  0
  -16.2690   -6.8350    3.1970 C   0  0  0  0  0  0
  -17.3010   -7.0040    2.5460 O   0  0  0  0  0  0
  -13.9060   -7.2100    3.8240 C   0  0  0  0  0  0
  -14.4280   -7.3160    5.2600 C   0  0  0  0  0  0
  -15.2690   -8.1700    5.5730 O   0  0  0  0  0  0
  -13.9250   -6.4580    6.0860 O   0  0  0  0  0  0
  -16.3015   -6.1031    4.3070 O   0  0  0  0  0  0
  -16.2410   -4.7819    4.3697 H   0  0  0  0  0  0
  -14.8698   -5.4165    5.3412 H   0  0  0  0  0  0
  -14.7740   -5.4133    3.5474 H   0  0  0  0  0  0
  -14.8221   -3.0454    3.5165 H   0  0  0  0  0  0
  -16.1136   -2.2952    5.2953 H   0  0  0  0  0  0
  -15.2958   -3.3638    6.4852 H   0  0  0  0  0  0
  -13.6338   -0.3839    4.2421 H   0  0  0  0  0  0
  -12.7715    0.1897    8.3388 H   0  0  0  0  0  0
  -12.9912   -3.3699    2.4686 H   0  0  0  0  0  0
  -10.5848   -2.8964    4.0393 H   0  0  0  0  0  0
  -11.3121   -5.7389    3.6086 H   0  0  0  0  0  0
   -9.6801   -5.3436    2.9709 H   0  0  0  0  0  0
  -10.1378   -4.1236    5.6026 H   0  0  0  0  0  0
  -10.3592   -5.9057    5.6453 H   0  0  0  0  0  0
   -8.1528   -6.3289    4.9756 H   0  0  0  0  0  0
   -7.9588   -4.7079    4.2262 H   0  0  0  0  0  0
   -7.2504   -5.4281    7.0033 H   0  0  0  0  0  0
   -9.0108   -2.8465    5.0430 H   0  0  0  0  0  0
   -8.6140   -1.5064    6.3377 H   0  0  0  0  0  0
   -6.7938   -3.8642    8.4844 H   0  0  0  0  0  0
   -8.5328   -3.1924    2.6730 H   0  0  0  0  0  0
   -9.3805   -2.6560   -0.2372 H   0  0  0  0  0  0
   -6.7073   -1.6698    0.6570 H   0  0  0  0  0  0
   -8.0678   -0.7205   -0.0317 H   0  0  0  0  0  0
   -6.6027   -2.0692    3.0978 H   0  0  0  0  0  0
   -9.4962    0.5557    1.3509 H   0  0  0  0  0  0
   -7.0088   -0.9968    5.3673 H   0  0  0  0  0  0
   -9.8935    1.6157    3.6283 H   0  0  0  0  0  0
   -8.1235    0.5650    6.6713 H   0  0  0  0  0  0
   -9.1277   -5.2352    0.4329 H   0  0  0  0  0  0
   -6.4083   -6.2555    0.3279 H   0  0  0  0  0  0
   -9.2547   -7.1155   -0.1984 H   0  0  0  0  0  0
   -8.0363   -8.1054   -1.0715 H   0  0  0  0  0  0
   -9.3223   -7.1033    2.2442 H   0  0  0  0  0  0
   -6.5914   -9.6052    0.0961 H   0  0  0  0  0  0
   -8.9267   -8.4860    4.3405 H   0  0  0  0  0  0
   -6.2092  -10.9776    2.2036 H   0  0  0  0  0  0
   -7.8768  -10.2659    5.4019 H   0  0  0  0  0  0
   -6.3287   -8.1045   -1.7347 H   0  0  0  0  0  0
   -5.8248   -6.1311   -3.9964 H   0  0  0  0  0  0
   -4.0172   -7.5082   -4.7399 H   0  0  0  0  0  0
   -3.8904   -7.5130   -2.9481 H   0  0  0  0  0  0
   -4.1191   -9.7543   -2.8980 H   0  0  0  0  0  0
   -5.6607   -9.6552   -3.8146 H   0  0  0  0  0  0
   -4.3205  -10.7202   -6.9498 H   0  0  0  0  0  0
   -8.4167   -6.9845   -3.5123 H   0  0  0  0  0  0
   -8.8078   -8.4519   -6.1123 H   0  0  0  0  0  0
   -8.8483  -10.3838   -4.7130 H   0  0  0  0  0  0
   -9.7600   -9.5337   -3.4196 H   0  0  0  0  0  0
  -11.2704  -11.0839   -4.7128 H   0  0  0  0  0  0
   -9.4107   -6.0688   -3.8924 H   0  0  0  0  0  0
  -11.6130   -5.0326   -5.4964 H   0  0  0  0  0  0
  -13.1172   -6.5881   -4.4710 H   0  0  0  0  0  0
  -12.3959   -6.3368   -2.8452 H   0  0  0  0  0  0
  -14.5932   -5.1198   -3.0508 H   0  0  0  0  0  0
  -12.6374   -3.0481   -4.4650 H   0  0  0  0  0  0
  -10.5919   -1.8832   -2.4951 H   0  0  0  0  0  0
  -10.3283   -1.1492   -4.9524 H   0  0  0  0  0  0
  -11.8447   -0.2202   -4.6991 H   0  0  0  0  0  0
   -9.6463    1.0090   -4.4844 H   0  0  0  0  0  0
  -11.8362    1.8696   -3.7195 H   0  0  0  0  0  0
  -10.4785    2.4158   -2.6779 H   0  0  0  0  0  0
  -11.5667    1.1006   -2.1187 H   0  0  0  0  0  0
   -8.4389   -0.7198   -3.1983 H   0  0  0  0  0  0
   -9.5423   -0.4425   -1.8082 H   0  0  0  0  0  0
   -8.4541    0.8727   -2.3675 H   0  0  0  0  0  0
  -13.8272   -2.4370   -3.6078 H   0  0  0  0  0  0
  -14.9201   -0.3675   -1.7361 H   0  0  0  0  0  0
  -16.4835   -2.5867   -3.1514 H   0  0  0  0  0  0
  -17.1056   -1.0166   -2.5394 H   0  0  0  0  0  0
  -15.0876   -1.3915   -4.8139 H   0  0  0  0  0  0
  -16.8227   -0.9633   -4.9950 H   0  0  0  0  0  0
  -16.4756    2.4954   -3.9091 H   0  0  0  0  0  0
  -15.1481   -3.0528    1.7328 H   0  0  0  0  0  0
  -17.0465   -1.6399    3.2110 H   0  0  0  0  0  0
  -15.3024   -1.2181    3.1277 H   0  0  0  0  0  0
  -17.6419    0.1366    1.8879 H   0  0  0  0  0  0
  -15.9857    0.7642    2.1871 H   0  0  0  0  0  0
  -15.3981    0.3516   -0.0152 H   0  0  0  0  0  0
  -17.0884   -0.1622   -0.3402 H   0  0  0  0  0  0
  -16.8469   -3.3940   -0.7060 H   0  0  0  0  0  0
  -19.0029   -4.9796    0.8068 H   0  0  0  0  0  0
  -19.6195   -2.8534   -0.7489 H   0  0  0  0  0  0
  -19.6047   -4.1464   -1.9957 H   0  0  0  0  0  0
  -21.4140   -6.1975   -1.5719 H   0  0  0  0  0  0
  -20.8710   -1.8655    1.0347 H   0  0  0  0  0  0
  -25.1520   -4.5415    1.3877 H   0  0  0  0  0  0
  -22.7659   -1.1322    2.4780 H   0  0  0  0  0  0
  -24.8611   -2.3826    2.6643 H   0  0  0  0  0  0
  -16.6727   -4.5657   -1.8287 H   0  0  0  0  0  0
  -17.1280   -7.4818   -2.6142 H   0  0  0  0  0  0
  -15.6177   -5.0095   -3.6878 H   0  0  0  0  0  0
  -15.2698   -6.6361   -4.3659 H   0  0  0  0  0  0
  -18.6725   -6.3821   -3.3675 H   0  0  0  0  0  0
  -15.9470   -5.3140   -6.4891 H   0  0  0  0  0  0
  -20.6166   -6.1306   -4.9894 H   0  0  0  0  0  0
  -17.9041   -5.0513   -8.0929 H   0  0  0  0  0  0
  -21.3993   -5.6316   -7.1154 H   0  0  0  0  0  0
  -12.5917   -7.2640   -1.1017 H   0  0  0  0  0  0
  -12.0301   -5.2271    0.7262 H   0  0  0  0  0  0
  -11.6673   -5.1486   -1.0313 H   0  0  0  0  0  0
  -13.7760   -3.7496    0.5322 H   0  0  0  0  0  0
  -13.1258   -3.3716   -1.0991 H   0  0  0  0  0  0
  -14.9398   -4.4026   -2.0932 H   0  0  0  0  0  0
  -15.6424   -4.6782   -0.4632 H   0  0  0  0  0  0
  -15.1291   -6.0261    1.0560 H   0  0  0  0  0  0
  -15.0451   -8.5365    2.5332 H   0  0  0  0  0  0
  -13.0944   -7.9463    3.7280 H   0  0  0  0  0  0
  -13.4959   -6.1955    3.7113 H   0  0  0  0  0  0
  -14.2406   -6.4587    7.1397 H   0  0  0  0  0  0
  -17.2474   -5.6514    4.6405 H   0  0  0  0  0  0
  1  2  1  0  0  0
  1133  1  0  0  0
  1134  1  0  0  0
  1135  1  0  0  0
  2  5  1  0  0  0
  2  3  1  0  0  0
  2136  1  0  0  0
  3  4  2  0  0  0
  3 11  1  0  0  0
  5  6  1  0  0  0
  5137  1  0  0  0
  5138  1  0  0  0
  6  7  2  0  0  0
  6  8  1  0  0  0
  7  9  1  0  0  0
  8 10  2  0  0  0
  8139  1  0  0  0
  9 10  1  0  0  0
  9140  1  0  0  0
 11 12  1  0  0  0
 11141  1  0  0  0
 12 15  1  0  0  0
 12 13  1  0  0  0
 12142  1  0  0  0
 13 14  2  0  0  0
 13 22  1  0  0  0
 15 16  1  0  0  0
 15143  1  0  0  0
 15144  1  0  0  0
 16 17  1  0  0  0
 16145  1  0  0  0
 16146  1  0  0  0
 17 18  1  0  0  0
 17147  1  0  0  0
 17148  1  0  0  0
 18 19  1  0  0  0
 18149  1  0  0  0
 19 21  2  0  0  0
 19 20  1  0  0  0
 20150  1  0  0  0
 20151  1  0  0  0
 21152  1  0  0  0
 22 23  1  0  0  0
 22153  1  0  0  0
 23 26  1  0  0  0
 23 24  1  0  0  0
 23154  1  0  0  0
 24 25  2  0  0  0
 24 34  1  0  0  0
 26 27  1  0  0  0
 26155  1  0  0  0
 26156  1  0  0  0
 27 28  2  0  0  0
 27 29  1  0  0  0
 28 30  1  0  0  0
 28157  1  0  0  0
 29 31  2  0  0  0
 29158  1  0  0  0
 30 32  2  0  0  0
 30159  1  0  0  0
 31 32  1  0  0  0
 31160  1  0  0  0
 32 33  1  0  0  0
 33161  1  0  0  0
 34 35  1  0  0  0
 34162  1  0  0  0
 35 38  1  0  0  0
 35 36  1  0  0  0
 35163  1  0  0  0
 36 37  2  0  0  0
 36 46  1  0  0  0
 38 39  1  0  0  0
 38164  1  0  0  0
 38165  1  0  0  0
 39 40  2  0  0  0
 39 41  1  0  0  0
 40 42  1  0  0  0
 40166  1  0  0  0
 41 43  2  0  0  0
 41167  1  0  0  0
 42 44  2  0  0  0
 42168  1  0  0  0
 43 44  1  0  0  0
 43169  1  0  0  0
 44 45  1  0  0  0
 45170  1  0  0  0
 46 47  1  0  0  0
 46171  1  0  0  0
 47 50  1  0  0  0
 47 48  1  0  0  0
 47172  1  0  0  0
 48 49  2  0  0  0
 48 55  1  0  0  0
 50 51  1  0  0  0
 50173  1  0  0  0
 50174  1  0  0  0
 51 52  1  0  0  0
 51175  1  0  0  0
 51176  1  0  0  0
 52 54  1  0  0  0
 52 53  2  0  0  0
 54177  1  0  0  0
 55 56  1  0  0  0
 55178  1  0  0  0
 56 59  1  0  0  0
 56 57  1  0  0  0
 56179  1  0  0  0
 57 58  2  0  0  0
 57 61  1  0  0  0
 59 60  1  0  0  0
 59180  1  0  0  0
 59181  1  0  0  0
 60182  1  0  0  0
 61 62  1  0  0  0
 61183  1  0  0  0
 62 65  1  0  0  0
 62 63  1  0  0  0
 62184  1  0  0  0
 63 64  2  0  0  0
 63 67  1  0  0  0
 65 66  1  0  0  0
 65185  1  0  0  0
 65186  1  0  0  0
 66187  1  0  0  0
 67 68  1  0  0  0
 67188  1  0  0  0
 68 71  1  0  0  0
 68 69  1  0  0  0
 68189  1  0  0  0
 69 70  2  0  0  0
 69 75  1  0  0  0
 71 72  1  0  0  0
 71190  1  0  0  0
 71191  1  0  0  0
 72 73  1  0  0  0
 72 74  1  0  0  0
 72192  1  0  0  0
 73193  1  0  0  0
 73194  1  0  0  0
 73195  1  0  0  0
 74196  1  0  0  0
 74197  1  0  0  0
 74198  1  0  0  0
 75 76  1  0  0  0
 75199  1  0  0  0
 76 79  1  0  0  0
 76 77  1  0  0  0
 76200  1  0  0  0
 77 78  2  0  0  0
 77 84  1  0  0  0
 79 80  1  0  0  0
 79201  1  0  0  0
 79202  1  0  0  0
 80 81  1  0  0  0
 80203  1  0  0  0
 80204  1  0  0  0
 81 83  1  0  0  0
 81 82  2  0  0  0
 83205  1  0  0  0
 84 85  1  0  0  0
 84 90  1  0  0  0
 85 86  1  0  0  0
 85 88  1  0  0  0
 85206  1  0  0  0
 86 87  2  0  0  0
 86 91  1  0  0  0
 88 89  1  0  0  0
 88207  1  0  0  0
 88208  1  0  0  0
 89 90  1  0  0  0
 89209  1  0  0  0
 89210  1  0  0  0
 90211  1  0  0  0
 90212  1  0  0  0
 91 92  1  0  0  0
 91213  1  0  0  0
 92 95  1  0  0  0
 92 93  1  0  0  0
 92214  1  0  0  0
 93 94  2  0  0  0
 93105  1  0  0  0
 95 96  1  0  0  0
 95215  1  0  0  0
 95216  1  0  0  0
 96 97  2  0  0  0
 96 98  1  0  0  0
 97 99  1  0  0  0
 97217  1  0  0  0
 98101  2  0  0  0
 98100  1  0  0  0
 99100  1  0  0  0
100102  2  0  0  0
101103  1  0  0  0
101218  1  0  0  0
102104  1  0  0  0
102219  1  0  0  0
103104  2  0  0  0
103220  1  0  0  0
104221  1  0  0  0
105106  1  0  0  0
105222  1  0  0  0
106109  1  0  0  0
106107  1  0  0  0
106223  1  0  0  0
107108  2  0  0  0
107117  1  0  0  0
109110  1  0  0  0
109224  1  0  0  0
109225  1  0  0  0
110111  2  0  0  0
110112  1  0  0  0
111113  1  0  0  0
111226  1  0  0  0
112114  2  0  0  0
112227  1  0  0  0
113115  2  0  0  0
113228  1  0  0  0
114115  1  0  0  0
114229  1  0  0  0
115116  1  0  0  0
116230  1  0  0  0
117118  1  0  0  0
117123  1  0  0  0
118119  1  0  0  0
118121  1  0  0  0
118231  1  0  0  0
119120  2  0  0  0
119124  1  0  0  0
121122  1  0  0  0
121232  1  0  0  0
121233  1  0  0  0
122123  1  0  0  0
122234  1  0  0  0
122235  1  0  0  0
123236  1  0  0  0
123237  1  0  0  0
124125  1  0  0  0
124238  1  0  0  0
125128  1  0  0  0
125126  1  0  0  0
125239  1  0  0  0
126127  2  0  0  0
126132  1  0  0  0
128129  1  0  0  0
128240  1  0  0  0
128241  1  0  0  0
129130  2  0  0  0
129131  1  0  0  0
131242  1  0  0  0
132243  1  0  0  0
M  CHG  1   1   1
M  END
> <s_m_source_file>
../1jbd_ligand.sdf

> <i_m_source_file_index>
1

> <s_epik_input>
W0NIXTE9TltDSDJdTj1DMVtDSDJdW0NASF0oW05IMytdKUMoPU8pW05IXVtDQEBIXShbQ0gyXVtDSDJdW0NIMl1bTkhdL0MoW05IMl0pPU5cW0hdKUMoPU8pW05IXVtDQEBIXShbQ0gyXWMyW2NIXVtjSF1jKFtPSF0pW2NIXVtjSF0yKUMoPU8pW05IXVtDQEBIXShbQ0gyXWMzW2NIXVtjSF1jKFtPSF0pW2NIXVtjSF0zKUMoPU8pW05IXVtDQEBIXShbQ0gyXVtDSDJdQyg9TylbT0hdKUMoPU8pW05IXVtDQEBIXShbQ0gyXVtPSF0pQyg9TylbTkhdW0NAQEhdKFtDSDJdW09IXSlDKD1PKVtOSF1bQ0BASF0oW0NIMl1bQ0hdKFtDSDNdKVtDSDNdKUMoPU8pW05IXVtDQEBIXShbQ0gyXVtDSDJdQyg9TylbT0hdKUMoPU8pTjRbQ0BASF0oW0NIMl1bQ0gyXVtDSDJdNClDKD1PKVtOSF1bQ0BASF0oW0NIMl1jNVtjSF1bbkhdYyhjNTYpW2NIXVtjSF1bY0hdW2NIXTYpQyg9TylbTkhdW0NAQEhdKFtDSDJdYzdbY0hdW2NIXWMoW09IXSlbY0hdW2NIXTcpQyg9TylOOFtDQEBIXShbQ0gyXVtDSDJdW0NIMl04KUMoPU8pW05IXVtDQEhdKEMoPU8pW09IXSlbQ0gyXUMoPU8pW09IXQ==

> <s_epik_cmdline>
J2VwaWtfYXBwJywgJy1pbWFlJywgJ2xpZ2FuZF9wcm8ubWFlJywgJy1vbWFlJywgJ2xpZ2FuZF9wcmVwLm1hZScsICctbXMnLCAnMScsICctcGgnLCAnNycsICctcGh0JywgJzAuNScsICctbnQn

> <s_epik_pKa_notes>
Molecule size exceeds maximum supported for generating protonation states

> <s_epik_Chemistry_Notes>
This compound has an imine and may undergo hydrolysis.

$$$$
