1jd5_ligand
                    3D
 Schrodinger Suite 2020-3.
128130  0  0  1  0            999 V2000
   10.8260   42.4210   12.8100 N   0  3  0  0  0  0
    9.5190   42.4860   13.5020 C   0  0  2  0  0  0
    8.4660   42.5250   12.4220 C   0  0  0  0  0  0
    8.7790   42.7820   11.2630 O   0  0  0  0  0  0
    9.4280   43.7460   14.3560 C   0  0  0  0  0  0
    7.2360   42.1960   12.7860 N   0  0  0  0  0  0
    6.1410   42.2280   11.8320 C   0  0  2  0  0  0
    5.1020   43.2110   12.3670 C   0  0  0  0  0  0
    4.9090   43.3270   13.5850 O   0  0  0  0  0  0
    5.4990   40.8270   11.6190 C   0  0  2  0  0  0
    4.8790   40.3180   12.9110 C   0  0  0  0  0  0
    6.5440   39.8190   11.1300 C   0  0  0  0  0  0
    4.1120   39.0330   12.7440 C   0  0  0  0  0  0
    4.4920   43.9700   11.4670 N   0  0  0  0  0  0
    3.4860   44.9390   11.8600 C   0  0  2  0  0  0
    2.1470   44.2310   11.9460 C   0  0  0  0  0  0
    1.5560   43.8980   10.9230 O   0  0  0  0  0  0
    3.4340   46.0760   10.8510 C   0  0  0  0  0  0
    1.6900   43.9570   13.1660 N   0  0  0  0  0  0
    0.4110   43.2760   13.3360 C   0  0  2  0  0  0
   -0.7730   44.2120   13.1070 C   0  0  0  0  0  0
   -1.9120   43.7730   12.9180 O   0  0  0  0  0  0
    0.3330   42.5510   14.6940 C   0  0  0  0  0  0
    0.2940   43.4100   15.9370 C   0  0  0  0  0  0
   -0.9200   43.7400   16.5340 C   0  0  0  0  0  0
    1.4690   43.7990   16.5780 C   0  0  0  0  0  0
   -0.9650   44.4330   17.7470 C   0  0  0  0  0  0
    1.4360   44.4940   17.7920 C   0  0  0  0  0  0
    0.2150   44.8010   18.3720 C   0  0  0  0  0  0
    0.1640   45.4420   19.5840 O   0  0  0  0  0  0
   -0.4880   45.5080   13.1150 N   0  0  0  0  0  0
   -1.4870   46.5310   12.8700 C   0  0  2  0  0  0
   -0.8100   47.7250   12.2290 C   0  0  0  0  0  0
    0.1520   48.2760   12.7710 O   0  0  0  0  0  0
   -2.1940   46.9710   14.1580 C   0  0  0  0  0  0
   -3.1490   48.1210   13.9520 C   0  0  0  0  0  0
   -4.4340   47.8970   13.4590 C   0  0  0  0  0  0
   -2.7440   49.4370   14.1860 C   0  0  0  0  0  0
   -5.2980   48.9670   13.1970 C   0  0  0  0  0  0
   -3.5960   50.5150   13.9300 C   0  0  0  0  0  0
   -4.8730   50.2800   13.4330 C   0  0  0  0  0  0
   -1.2940   48.0870   11.0440 N   0  0  0  0  0  0
   -0.7840   49.2300   10.3070 C   0  0  2  0  0  0
   -1.9600   50.1880   10.1600 C   0  0  0  0  0  0
   -3.0320   49.7900    9.7120 O   0  0  0  0  0  0
   -0.2540   48.8060    8.9130 C   0  0  2  0  0  0
    1.0500   48.0200    9.0850 C   0  0  0  0  0  0
   -0.0300   50.0280    8.0360 C   0  0  0  0  0  0
    1.6490   47.5160    7.7880 C   0  0  0  0  0  0
   -1.7920   51.4470   10.6090 N   0  0  0  0  0  0
   -2.8270   52.4860   10.5440 C   0  0  2  0  0  0
   -3.5980   52.4620    9.2210 C   0  0  0  0  0  0
   -3.0220   52.6930    8.1610 O   0  0  0  0  0  0
   -2.0180   53.7660   10.7170 C   0  0  0  0  0  0
   -0.9780   53.3460   11.6960 C   0  0  0  0  0  0
   -0.5370   52.0020   11.1570 C   0  0  0  0  0  0
   -4.8740   52.0790    9.3220 N   0  0  0  0  0  0
   -5.8440   51.9660    8.2230 C   0  0  2  0  0  0
   -5.3800   52.3980    6.8300 C   0  0  0  0  0  0
   -5.1260   51.5060    5.9850 O   0  0  0  0  0  0
   -7.1380   52.6910    8.6050 C   0  0  0  0  0  0
   -7.5220   52.4620   10.0550 C   0  0  0  0  0  0
   -7.0830   53.2600   10.9140 O   0  5  0  0  0  0
   -8.2250   51.4690   10.3450 O   0  0  0  0  0  0
   -5.2563   53.6178    6.5393 O   0  5  0  0  0  0
   10.8728   41.5069   12.2000 H   0  0  0  0  0  0
   11.6351   42.4064   13.5551 H   0  0  0  0  0  0
   10.9413   43.3014   12.1607 H   0  0  0  0  0  0
    9.4031   41.6083   14.1549 H   0  0  0  0  0  0
   10.1973   43.7129   15.1415 H   0  0  0  0  0  0
    8.4323   43.8033   14.8201 H   0  0  0  0  0  0
    9.5887   44.6307   13.7224 H   0  0  0  0  0  0
    7.0494   41.8954   13.8275 H   0  0  0  0  0  0
    6.5782   42.5637   10.8801 H   0  0  0  0  0  0
    4.7048   40.9133   10.8628 H   0  0  0  0  0  0
    5.6721   40.1342   13.6507 H   0  0  0  0  0  0
    4.1791   41.0705   13.3032 H   0  0  0  0  0  0
    6.9953   40.1831   10.1953 H   0  0  0  0  0  0
    6.0602   38.8477   10.9496 H   0  0  0  0  0  0
    7.3267   39.7025   11.8941 H   0  0  0  0  0  0
    3.6940   38.7267   13.7143 H   0  0  0  0  0  0
    4.7874   38.2486   12.3716 H   0  0  0  0  0  0
    3.2943   39.1850   12.0241 H   0  0  0  0  0  0
    4.7605   43.8553   10.4065 H   0  0  0  0  0  0
    3.7734   45.3421   12.8423 H   0  0  0  0  0  0
    4.4146   46.5725   10.8072 H   0  0  0  0  0  0
    2.6680   46.8035   11.1576 H   0  0  0  0  0  0
    3.1817   45.6742    9.8586 H   0  0  0  0  0  0
    2.2807   44.2461   14.0478 H   0  0  0  0  0  0
    0.3967   42.5269   12.5306 H   0  0  0  0  0  0
   -0.5810   41.9402   14.7315 H   0  0  0  0  0  0
    1.2129   41.9020   14.8142 H   0  0  0  0  0  0
   -1.8517   43.4528   16.0467 H   0  0  0  0  0  0
    2.4308   43.5575   16.1255 H   0  0  0  0  0  0
   -1.9248   44.6828   18.1992 H   0  0  0  0  0  0
    2.3647   44.7921   18.2786 H   0  0  0  0  0  0
   -0.8084   45.6826   20.0385 H   0  0  0  0  0  0
    0.5544   45.7946   13.3179 H   0  0  0  0  0  0
   -2.2212   46.0681   12.1942 H   0  0  0  0  0  0
   -2.7729   46.1286   14.5646 H   0  0  0  0  0  0
   -1.4445   47.2913   14.8967 H   0  0  0  0  0  0
   -4.7699   46.8764   13.2754 H   0  0  0  0  0  0
   -1.7440   49.6271   14.5759 H   0  0  0  0  0  0
   -6.2994   48.7783   12.8101 H   0  0  0  0  0  0
   -3.2609   51.5349   14.1191 H   0  0  0  0  0  0
   -5.5417   51.1159   13.2276 H   0  0  0  0  0  0
   -2.1121   47.4829   10.6249 H   0  0  0  0  0  0
    0.0449   49.6667   10.8835 H   0  0  0  0  0  0
   -0.9924   48.1697    8.4032 H   0  0  0  0  0  0
    1.8056   48.6628    9.5603 H   0  0  0  0  0  0
    0.8667   47.1396    9.7185 H   0  0  0  0  0  0
   -0.9762   50.5779    7.9248 H   0  0  0  0  0  0
    0.3268   49.7082    7.0458 H   0  0  0  0  0  0
    0.7214   50.6817    8.5030 H   0  0  0  0  0  0
    2.5773   46.9660    8.0022 H   0  0  0  0  0  0
    1.8718   48.3696    7.1310 H   0  0  0  0  0  0
    0.9328   46.8464    7.2892 H   0  0  0  0  0  0
   -3.5928   52.3311   11.3183 H   0  0  0  0  0  0
   -1.5985   54.0686    9.7462 H   0  0  0  0  0  0
   -2.6716   54.5641   11.0988 H   0  0  0  0  0  0
   -0.1651   54.0869   11.7079 H   0  0  0  0  0  0
   -1.4251   53.2762   12.6986 H   0  0  0  0  0  0
   -0.1523   51.3337   11.9415 H   0  0  0  0  0  0
    0.2076   52.0892   10.3521 H   0  0  0  0  0  0
   -5.1777   51.8356   10.3508 H   0  0  0  0  0  0
   -5.9642   50.8752    8.1474 H   0  0  0  0  0  0
   -7.0103   53.7731    8.4540 H   0  0  0  0  0  0
   -7.9621   52.3274    7.9736 H   0  0  0  0  0  0
  1  2  1  0  0  0
  1 66  1  0  0  0
  1 67  1  0  0  0
  1 68  1  0  0  0
  2  3  1  0  0  0
  2  5  1  0  0  0
  2 69  1  0  0  0
  3  4  2  0  0  0
  3  6  1  0  0  0
  5 70  1  0  0  0
  5 71  1  0  0  0
  5 72  1  0  0  0
  6  7  1  0  0  0
  6 73  1  0  0  0
  7  8  1  0  0  0
  7 10  1  0  0  0
  7 74  1  0  0  0
  8  9  2  0  0  0
  8 14  1  0  0  0
 10 11  1  0  0  0
 10 12  1  0  0  0
 10 75  1  0  0  0
 11 13  1  0  0  0
 11 76  1  0  0  0
 11 77  1  0  0  0
 12 78  1  0  0  0
 12 79  1  0  0  0
 12 80  1  0  0  0
 13 81  1  0  0  0
 13 82  1  0  0  0
 13 83  1  0  0  0
 14 15  1  0  0  0
 14 84  1  0  0  0
 15 16  1  0  0  0
 15 18  1  0  0  0
 15 85  1  0  0  0
 16 17  2  0  0  0
 16 19  1  0  0  0
 18 86  1  0  0  0
 18 87  1  0  0  0
 18 88  1  0  0  0
 19 20  1  0  0  0
 19 89  1  0  0  0
 20 21  1  0  0  0
 20 23  1  0  0  0
 20 90  1  0  0  0
 21 22  2  0  0  0
 21 31  1  0  0  0
 23 24  1  0  0  0
 23 91  1  0  0  0
 23 92  1  0  0  0
 24 26  2  0  0  0
 24 25  1  0  0  0
 25 27  2  0  0  0
 25 93  1  0  0  0
 26 28  1  0  0  0
 26 94  1  0  0  0
 27 29  1  0  0  0
 27 95  1  0  0  0
 28 29  2  0  0  0
 28 96  1  0  0  0
 29 30  1  0  0  0
 30 97  1  0  0  0
 31 32  1  0  0  0
 31 98  1  0  0  0
 32 33  1  0  0  0
 32 35  1  0  0  0
 32 99  1  0  0  0
 33 34  2  0  0  0
 33 42  1  0  0  0
 35 36  1  0  0  0
 35100  1  0  0  0
 35101  1  0  0  0
 36 38  2  0  0  0
 36 37  1  0  0  0
 37 39  2  0  0  0
 37102  1  0  0  0
 38 40  1  0  0  0
 38103  1  0  0  0
 39 41  1  0  0  0
 39104  1  0  0  0
 40 41  2  0  0  0
 40105  1  0  0  0
 41106  1  0  0  0
 42 43  1  0  0  0
 42107  1  0  0  0
 43 44  1  0  0  0
 43 46  1  0  0  0
 43108  1  0  0  0
 44 45  2  0  0  0
 44 50  1  0  0  0
 46 47  1  0  0  0
 46 48  1  0  0  0
 46109  1  0  0  0
 47 49  1  0  0  0
 47110  1  0  0  0
 47111  1  0  0  0
 48112  1  0  0  0
 48113  1  0  0  0
 48114  1  0  0  0
 49115  1  0  0  0
 49116  1  0  0  0
 49117  1  0  0  0
 50 51  1  0  0  0
 50 56  1  0  0  0
 51 54  1  0  0  0
 51 52  1  0  0  0
 51118  1  0  0  0
 52 53  2  0  0  0
 52 57  1  0  0  0
 54 55  1  0  0  0
 54119  1  0  0  0
 54120  1  0  0  0
 55 56  1  0  0  0
 55121  1  0  0  0
 55122  1  0  0  0
 56123  1  0  0  0
 56124  1  0  0  0
 57 58  1  0  0  0
 57125  1  0  0  0
 58 59  1  0  0  0
 58 61  1  0  0  0
 58126  1  0  0  0
 59 60  2  0  0  0
 59 65  1  0  0  0
 61 62  1  0  0  0
 61127  1  0  0  0
 61128  1  0  0  0
 62 63  1  0  0  0
 62 64  2  0  0  0
M  CHG  3   1   1  63  -1  65  -1
M  END
> <s_m_source_file>
../1jd5_ligand.sdf

> <i_m_source_file_index>
1

> <s_epik_input>
W05IMytdW0NAQEhdKFtDSDNdKUMoPU8pW05IXVtDQEBIXShbQ0BASF0oW0NIM10pW0NIMl1bQ0gzXSlDKD1PKVtOSF1bQ0BASF0oW0NIM10pQyg9TylbTkhdW0NAQEhdKFtDSDJdYzFbY0hdW2NIXWMoW09IXSlbY0hdW2NIXTEpQyg9TylbTkhdW0NAQEhdKFtDSDJdYzJbY0hdW2NIXVtjSF1bY0hdW2NIXTIpQyg9TylbTkhdW0NAQEhdKFtDQEBIXShbQ0gzXSlbQ0gyXVtDSDNdKUMoPU8pTjNbQ0BASF0oW0NIMl1bQ0gyXVtDSDJdMylDKD1PKVtOSF1bQ0BIXShDKD1PKVtPSF0pW0NIMl1DKD1PKVtPSF0=

> <s_epik_cmdline>
J2VwaWtfYXBwJywgJy1pbWFlJywgJ2xpZ2FuZF9wcm8ubWFlJywgJy1vbWFlJywgJ2xpZ2FuZF9wcmVwLm1hZScsICctbXMnLCAnMScsICctcGgnLCAnNycsICctcGh0JywgJzAuNScsICctbnQn

> <r_lp_tautomer_probability>
0.999999999997365

> <r_epik_Ionization_Penalty>
  0.1222

> <r_epik_Ionization_Penalty_Charging>
  0.1213

> <r_epik_Ionization_Penalty_Neutral>
  0.0009

> <r_epik_State_Penalty>
  0.1095

> <r_epik_Charging_Adjusted_Penalty>
0.230769458943933

> <i_epik_Tot_Q>
-1

> <i_epik_Tot_abs_Q>
3

$$$$
