1jet_ligand
                    3D
 Schrodinger Suite 2020-3.
 57 56  0  0  1  0            999 V2000
    6.7290   16.4500   14.9920 N   0  3  0  0  0  0
    6.2530   17.7560   14.4370 C   0  0  2  0  0  0
    5.0450   18.2510   15.2150 C   0  0  0  0  0  0
    4.2800   17.4480   15.7620 O   0  0  0  0  0  0
    5.9680   17.6540   12.9460 C   0  0  0  0  0  0
    5.1180   16.4580   12.5480 C   0  0  0  0  0  0
    4.9780   16.3570   11.0330 C   0  0  0  0  0  0
    6.2490   15.7930   10.4040 C   0  0  0  0  0  0
    6.4830   14.3920   10.8750 N   0  3  0  0  0  0
    4.9230   19.5660   15.3190 N   0  0  0  0  0  0
    3.8390   20.1950   16.0660 C   0  0  2  0  0  0
    2.5280   20.1380   15.3050 C   0  0  0  0  0  0
    2.4620   20.4270   14.1110 O   0  0  0  0  0  0
    4.2130   21.6510   16.3500 C   0  0  0  0  0  0
    1.4530   19.7490   16.0220 N   0  0  0  0  0  0
    0.1430   19.6800   15.4080 C   0  0  2  0  0  0
   -0.8750   20.5130   16.1950 C   0  0  0  0  0  0
   -1.9550   20.7840   15.6090 O   0  5  0  0  0  0
   -0.3480   18.2320   15.2750 C   0  0  0  0  0  0
   -1.6030   18.1240   14.4160 C   0  0  0  0  0  0
   -1.5520   17.0510   13.3670 C   0  0  0  0  0  0
   -2.5720   17.3320   12.2680 C   0  0  0  0  0  0
   -3.8410   17.8600   12.8360 N   0  3  0  0  0  0
   -0.5530   20.9080   17.3330 O   0  0  0  0  0  0
    6.9251   16.5589   16.0689 H   0  0  0  0  0  0
    7.6546   16.1493   14.4793 H   0  0  0  0  0  0
    5.9571   15.6821   14.8357 H   0  0  0  0  0  0
    7.0661   18.4860   14.5633 H   0  0  0  0  0  0
    5.4303   18.5540   12.6131 H   0  0  0  0  0  0
    6.9170   17.5695   12.3962 H   0  0  0  0  0  0
    5.5878   15.5348   12.9182 H   0  0  0  0  0  0
    4.1141   16.5596   12.9860 H   0  0  0  0  0  0
    4.1368   15.6926   10.7860 H   0  0  0  0  0  0
    4.7905   17.3569   10.6146 H   0  0  0  0  0  0
    6.1466   15.7916    9.3088 H   0  0  0  0  0  0
    7.1082   16.4169   10.6911 H   0  0  0  0  0  0
    7.4012   13.9988   10.4142 H   0  0  0  0  0  0
    5.6291   13.7610   10.5873 H   0  0  0  0  0  0
    6.5907   14.3864   11.9697 H   0  0  0  0  0  0
    5.6777   20.1883   14.8159 H   0  0  0  0  0  0
    3.7278   19.6123   16.9923 H   0  0  0  0  0  0
    5.1641   21.6843   16.9017 H   0  0  0  0  0  0
    3.4226   22.1216   16.9531 H   0  0  0  0  0  0
    4.3213   22.1938   15.3994 H   0  0  0  0  0  0
    1.5783   19.4830   17.0820 H   0  0  0  0  0  0
    0.2999   20.1106   14.4080 H   0  0  0  0  0  0
    0.4380   17.6197   14.8088 H   0  0  0  0  0  0
   -0.5819   17.8311   16.2723 H   0  0  0  0  0  0
   -2.4684   17.9018   15.0576 H   0  0  0  0  0  0
   -1.7708   19.0758   13.8907 H   0  0  0  0  0  0
   -0.5462   17.0202   12.9226 H   0  0  0  0  0  0
   -1.7797   16.0779   13.8265 H   0  0  0  0  0  0
   -2.1628   18.0770   11.5698 H   0  0  0  0  0  0
   -2.7909   16.4012   11.7242 H   0  0  0  0  0  0
   -4.5550   18.0526   12.0217 H   0  0  0  0  0  0
   -3.6392   18.7969   13.3759 H   0  0  0  0  0  0
   -4.2673   17.1211   13.5304 H   0  0  0  0  0  0
  1  2  1  0  0  0
  1 25  1  0  0  0
  1 26  1  0  0  0
  1 27  1  0  0  0
  2  3  1  0  0  0
  2  5  1  0  0  0
  2 28  1  0  0  0
  3  4  2  0  0  0
  3 10  1  0  0  0
  5  6  1  0  0  0
  5 29  1  0  0  0
  5 30  1  0  0  0
  6  7  1  0  0  0
  6 31  1  0  0  0
  6 32  1  0  0  0
  7  8  1  0  0  0
  7 33  1  0  0  0
  7 34  1  0  0  0
  8  9  1  0  0  0
  8 35  1  0  0  0
  8 36  1  0  0  0
  9 37  1  0  0  0
  9 38  1  0  0  0
  9 39  1  0  0  0
 10 11  1  0  0  0
 10 40  1  0  0  0
 11 12  1  0  0  0
 11 14  1  0  0  0
 11 41  1  0  0  0
 12 13  2  0  0  0
 12 15  1  0  0  0
 14 42  1  0  0  0
 14 43  1  0  0  0
 14 44  1  0  0  0
 15 16  1  0  0  0
 15 45  1  0  0  0
 16 17  1  0  0  0
 16 19  1  0  0  0
 16 46  1  0  0  0
 17 24  2  0  0  0
 17 18  1  0  0  0
 19 20  1  0  0  0
 19 47  1  0  0  0
 19 48  1  0  0  0
 20 21  1  0  0  0
 20 49  1  0  0  0
 20 50  1  0  0  0
 21 22  1  0  0  0
 21 51  1  0  0  0
 21 52  1  0  0  0
 22 23  1  0  0  0
 22 53  1  0  0  0
 22 54  1  0  0  0
 23 55  1  0  0  0
 23 56  1  0  0  0
 23 57  1  0  0  0
M  CHG  4   1   1   9   1  18  -1  23   1
M  END
> <s_m_source_file>
../1jet_ligand.sdf

> <i_m_source_file_index>
1

> <s_epik_input>
W05IMytdW0NIMl1bQ0gyXVtDSDJdW0NIMl1bQ0BIXShbTkgzK10pQyg9TylbTkhdW0NAQEhdKFtDSDNdKUMoPU8pW05IXVtDQEhdKEMoPU8pW09IXSlbQ0gyXVtDSDJdW0NIMl1bQ0gyXVtOSDMrXQ==

> <s_epik_cmdline>
J2VwaWtfYXBwJywgJy1pbWFlJywgJ2xpZ2FuZF9wcm8ubWFlJywgJy1vbWFlJywgJ2xpZ2FuZF9wcmVwLm1hZScsICctbXMnLCAnMScsICctcGgnLCAnNycsICctcGh0JywgJzAuNScsICctbnQn

> <r_epik_Ionization_Penalty>
  0.1199

> <r_epik_Ionization_Penalty_Charging>
  0.1199

> <r_epik_Ionization_Penalty_Neutral>
  0.0000

> <r_epik_State_Penalty>
  0.1084

> <r_epik_Charging_Adjusted_Penalty>
0.228328126562642

> <i_epik_Tot_Q>
2

> <i_epik_Tot_abs_Q>
4

$$$$
