1jeu_ligand
                    3D
 Schrodinger Suite 2020-3.
 62 61  0  0  1  0            999 V2000
    6.9710   16.6310   15.1610 N   0  3  0  0  0  0
    6.4570   17.9140   14.5770 C   0  0  2  0  0  0
    5.2300   18.4070   15.3260 C   0  0  0  0  0  0
    4.4710   17.5920   15.8650 O   0  0  0  0  0  0
    6.2050   17.7380   13.0900 C   0  0  0  0  0  0
    5.3260   16.5730   12.6920 C   0  0  0  0  0  0
    5.1880   16.4730   11.1790 C   0  0  0  0  0  0
    6.4370   15.9090   10.5280 C   0  0  0  0  0  0
    6.6940   14.5080   10.9900 N   0  3  0  0  0  0
    5.0250   19.7160   15.4110 N   0  0  0  0  0  0
    3.9020   20.3030   16.1320 C   0  0  2  0  0  0
    2.5820   20.1570   15.3830 C   0  0  0  0  0  0
    2.5260   20.3750   14.1830 O   0  0  0  0  0  0
    4.1800   21.7860   16.4140 C   0  0  0  0  0  0
    5.4870   22.0530   17.1320 C   0  0  0  0  0  0
    5.5070   21.7130   18.5990 C   0  0  0  0  0  0
    4.4800   21.2770   19.1650 O   0  0  0  0  0  0
    6.5720   21.8810   19.2410 O   0  5  0  0  0  0
    1.5160   19.7930   16.1120 N   0  0  0  0  0  0
    0.1920   19.6270   15.5440 C   0  0  2  0  0  0
   -0.8350   20.5300   16.2310 C   0  0  0  0  0  0
   -1.8260   20.8750   15.5450 O   0  5  0  0  0  0
   -0.3440   18.1940   15.4970 C   0  0  0  0  0  0
   -1.1830   18.0360   14.2050 C   0  0  0  0  0  0
   -2.1660   16.9100   14.2770 C   0  0  0  0  0  0
   -3.3420   17.1560   13.3350 C   0  0  0  0  0  0
   -2.9680   16.9360   11.9100 N   0  3  0  0  0  0
   -0.6330   20.8920   17.4010 O   0  0  0  0  0  0
    7.8569   16.3011   14.5985 H   0  0  0  0  0  0
    6.1887   15.8602   15.0982 H   0  0  0  0  0  0
    7.2442   16.7912   16.2144 H   0  0  0  0  0  0
    7.2295   18.6873   14.7003 H   0  0  0  0  0  0
    5.7126   18.6378   12.6926 H   0  0  0  0  0  0
    7.1629   17.5849   12.5713 H   0  0  0  0  0  0
    5.7669   15.6368   13.0650 H   0  0  0  0  0  0
    4.3239   16.7047   13.1260 H   0  0  0  0  0  0
    4.3442   15.8125   10.9307 H   0  0  0  0  0  0
    5.0057   17.4738   10.7605 H   0  0  0  0  0  0
    6.3103   15.9034    9.4353 H   0  0  0  0  0  0
    7.3028   16.5334   10.7936 H   0  0  0  0  0  0
    7.6028   14.1228   10.5046 H   0  0  0  0  0  0
    5.8377   13.8711   10.7232 H   0  0  0  0  0  0
    6.8302   14.5010   12.0815 H   0  0  0  0  0  0
    5.7530   20.3660   14.9036 H   0  0  0  0  0  0
    3.8387   19.7168   17.0606 H   0  0  0  0  0  0
    4.2175   22.3391   15.4639 H   0  0  0  0  0  0
    3.3779   22.1958   17.0455 H   0  0  0  0  0  0
    6.2885   21.4602   16.6670 H   0  0  0  0  0  0
    5.7331   23.1227   17.0599 H   0  0  0  0  0  0
    1.6797   19.6187   17.1857 H   0  0  0  0  0  0
    0.3967   19.9388   14.5092 H   0  0  0  0  0  0
    0.4989   17.4873   15.4902 H   0  0  0  0  0  0
   -0.9713   18.0079   16.3812 H   0  0  0  0  0  0
   -1.7490   18.9609   14.0200 H   0  0  0  0  0  0
   -0.5134   17.8396   13.3547 H   0  0  0  0  0  0
   -1.6704   15.9715   13.9878 H   0  0  0  0  0  0
   -2.5476   16.8215   15.3049 H   0  0  0  0  0  0
   -4.1628   16.4679   13.5858 H   0  0  0  0  0  0
   -3.6880   18.1945   13.4438 H   0  0  0  0  0  0
   -3.8417   17.1235   11.2685 H   0  0  0  0  0  0
   -2.6305   15.8977   11.7756 H   0  0  0  0  0  0
   -2.1557   17.6243   11.6337 H   0  0  0  0  0  0
  1  2  1  0  0  0
  1 29  1  0  0  0
  1 30  1  0  0  0
  1 31  1  0  0  0
  2  5  1  0  0  0
  2  3  1  0  0  0
  2 32  1  0  0  0
  3  4  2  0  0  0
  3 10  1  0  0  0
  5  6  1  0  0  0
  5 33  1  0  0  0
  5 34  1  0  0  0
  6  7  1  0  0  0
  6 35  1  0  0  0
  6 36  1  0  0  0
  7  8  1  0  0  0
  7 37  1  0  0  0
  7 38  1  0  0  0
  8  9  1  0  0  0
  8 39  1  0  0  0
  8 40  1  0  0  0
  9 41  1  0  0  0
  9 42  1  0  0  0
  9 43  1  0  0  0
 10 11  1  0  0  0
 10 44  1  0  0  0
 11 14  1  0  0  0
 11 12  1  0  0  0
 11 45  1  0  0  0
 12 13  2  0  0  0
 12 19  1  0  0  0
 14 15  1  0  0  0
 14 46  1  0  0  0
 14 47  1  0  0  0
 15 16  1  0  0  0
 15 48  1  0  0  0
 15 49  1  0  0  0
 16 18  1  0  0  0
 16 17  2  0  0  0
 19 20  1  0  0  0
 19 50  1  0  0  0
 20 23  1  0  0  0
 20 21  1  0  0  0
 20 51  1  0  0  0
 21 22  1  0  0  0
 21 28  2  0  0  0
 23 24  1  0  0  0
 23 52  1  0  0  0
 23 53  1  0  0  0
 24 25  1  0  0  0
 24 54  1  0  0  0
 24 55  1  0  0  0
 25 26  1  0  0  0
 25 56  1  0  0  0
 25 57  1  0  0  0
 26 27  1  0  0  0
 26 58  1  0  0  0
 26 59  1  0  0  0
 27 60  1  0  0  0
 27 61  1  0  0  0
 27 62  1  0  0  0
M  CHG  5   1   1   9   1  18  -1  22  -1  27   1
M  END
> <s_m_source_file>
../1jeu_ligand.sdf

> <i_m_source_file_index>
1

> <s_epik_input>
W05IMytdW0NIMl1bQ0gyXVtDSDJdW0NIMl1bQ0BIXShbTkgzK10pQyg9TylbTkhdW0NAQEhdKFtDSDJdW0NIMl1DKD1PKVtPSF0pQyg9TylbTkhdW0NASF0oQyg9TylbT0hdKVtDSDJdW0NIMl1bQ0gyXVtDSDJdW05IMytd

> <s_epik_cmdline>
J2VwaWtfYXBwJywgJy1pbWFlJywgJ2xpZ2FuZF9wcm8ubWFlJywgJy1vbWFlJywgJ2xpZ2FuZF9wcmVwLm1hZScsICctbXMnLCAnMScsICctcGgnLCAnNycsICctcGh0JywgJzAuNScsICctbnQn

> <r_epik_Ionization_Penalty>
  0.1161

> <r_epik_Ionization_Penalty_Charging>
  0.1161

> <r_epik_Ionization_Penalty_Neutral>
  0.0000

> <r_epik_State_Penalty>
  0.1029

> <r_epik_Charging_Adjusted_Penalty>
0.218953379894227

> <i_epik_Tot_Q>
1

> <i_epik_Tot_abs_Q>
5

$$$$
