1jfh_ligand
                    3D
 Schrodinger Suite 2020-3.
 51 52  0  0  1  0            999 V2000
   -7.7630   41.7280   20.9390 C   0  0  2  0  0  0
   -8.7000   40.5230   20.8400 C   0  0  1  0  0  0
   -9.9900   40.9060   20.1030 C   0  0  2  0  0  0
  -10.6350   42.1250   20.7640 C   0  0  1  0  0  0
   -9.6030   43.2570   20.8020 C   0  0  1  0  0  0
  -10.1120   44.5210   21.4700 C   0  0  0  0  0  0
  -11.7110   42.8030   18.2010 C   0  0  0  0  0  0
   -8.0500   39.4700   20.1440 O   0  0  0  0  0  0
  -10.8980   39.8140   20.1240 O   0  0  0  0  0  0
  -12.2020   42.6460   19.9550 S   0  0  0  0  0  0
   -8.4440   42.8240   21.5340 O   0  0  0  0  0  0
  -10.5330   44.2630   22.8010 O   0  0  0  0  0  0
   -2.5600   43.0970   18.8850 C   0  0  1  0  0  0
   -3.0190   41.6780   18.5080 C   0  0  1  0  0  0
   -4.5380   41.6070   18.3430 C   0  0  2  0  0  0
   -5.2450   42.1520   19.5860 C   0  0  1  0  0  0
   -4.7040   43.5570   19.8750 C   0  0  1  0  0  0
   -5.2770   44.2090   21.1200 C   0  0  0  0  0  0
   -2.5540   45.3920   18.0990 C   0  0  0  0  0  0
   -2.8460   43.9980   17.8150 O   0  0  0  0  0  0
   -2.3920   41.2530   17.3060 O   0  0  0  0  0  0
   -4.9340   40.2600   18.1230 O   0  0  0  0  0  0
   -7.0590   42.1610   19.3180 S   0  0  0  0  0  0
   -3.2750   43.5090   20.0410 O   0  0  0  0  0  0
   -4.9180   43.4960   22.2900 O   0  0  0  0  0  0
   -7.0861   41.4880   21.7722 H   0  0  0  0  0  0
   -8.9226   40.1220   21.8398 H   0  0  0  0  0  0
   -9.7926   41.0981   19.0380 H   0  0  0  0  0  0
  -10.7156   41.8068   21.8139 H   0  0  0  0  0  0
   -9.3125   43.4859   19.7661 H   0  0  0  0  0  0
   -9.3083   45.2716   21.4950 H   0  0  0  0  0  0
  -10.9664   44.9174   20.9018 H   0  0  0  0  0  0
  -12.5801   43.1157   17.6036 H   0  0  0  0  0  0
  -11.3441   41.8328   17.8347 H   0  0  0  0  0  0
  -10.9134   43.5549   18.1094 H   0  0  0  0  0  0
   -7.1031   39.0606   20.5258 H   0  0  0  0  0  0
  -10.6051   38.8467   19.6898 H   0  0  0  0  0  0
  -10.9294   45.0808   23.4208 H   0  0  0  0  0  0
   -1.4839   43.1751   19.0995 H   0  0  0  0  0  0
   -2.6838   40.9636   19.2743 H   0  0  0  0  0  0
   -4.8524   42.1594   17.4452 H   0  0  0  0  0  0
   -4.8565   41.5556   20.4247 H   0  0  0  0  0  0
   -4.9490   44.1801   19.0022 H   0  0  0  0  0  0
   -4.8926   45.2361   21.2060 H   0  0  0  0  0  0
   -6.3745   44.2329   21.0494 H   0  0  0  0  0  0
   -2.8053   46.0054   17.2212 H   0  0  0  0  0  0
   -1.4842   45.5029   18.3298 H   0  0  0  0  0  0
   -3.1514   45.7235   18.9611 H   0  0  0  0  0  0
   -1.2945   41.2360   17.2344 H   0  0  0  0  0  0
   -4.5260   39.6992   17.2691 H   0  0  0  0  0  0
   -5.2599   43.8472   23.2748 H   0  0  0  0  0  0
  1  2  1  0  0  0
  1 11  1  0  0  0
  1 23  1  0  0  0
  1 26  1  0  0  0
  2  3  1  0  0  0
  2  8  1  0  0  0
  2 27  1  0  0  0
  3  4  1  0  0  0
  3  9  1  0  0  0
  3 28  1  0  0  0
  4  5  1  0  0  0
  4 10  1  0  0  0
  4 29  1  0  0  0
  5  6  1  0  0  0
  5 11  1  0  0  0
  5 30  1  0  0  0
  6 12  1  0  0  0
  6 31  1  0  0  0
  6 32  1  0  0  0
  7 10  1  0  0  0
  7 33  1  0  0  0
  7 34  1  0  0  0
  7 35  1  0  0  0
  8 36  1  0  0  0
  9 37  1  0  0  0
 12 38  1  0  0  0
 13 14  1  0  0  0
 13 20  1  0  0  0
 13 24  1  0  0  0
 13 39  1  0  0  0
 14 15  1  0  0  0
 14 21  1  0  0  0
 14 40  1  0  0  0
 15 16  1  0  0  0
 15 22  1  0  0  0
 15 41  1  0  0  0
 16 17  1  0  0  0
 16 23  1  0  0  0
 16 42  1  0  0  0
 17 18  1  0  0  0
 17 24  1  0  0  0
 17 43  1  0  0  0
 18 25  1  0  0  0
 18 44  1  0  0  0
 18 45  1  0  0  0
 19 20  1  0  0  0
 19 46  1  0  0  0
 19 47  1  0  0  0
 19 48  1  0  0  0
 21 49  1  0  0  0
 22 50  1  0  0  0
 25 51  1  0  0  0
M  END
> <s_m_source_file>
../1jfh_ligand.sdf

> <i_m_source_file_index>
1

> <s_epik_input>
W09IXVtDSDJdW0NAQEhdKE8xKVtDQEBIXShTW0NIM10pW0NASF0oW09IXSlbQ0BASF0oW09IXSlbQ0BIXTFTW0NASF0oW0NASF0oTzIpW0NIMl1bT0hdKVtDQEhdKFtPSF0pW0NAQEhdKFtPSF0pW0NASF0yT1tDSDNd

> <s_epik_cmdline>
J2VwaWtfYXBwJywgJy1pbWFlJywgJ2xpZ2FuZF9wcm8ubWFlJywgJy1vbWFlJywgJ2xpZ2FuZF9wcmVwLm1hZScsICctbXMnLCAnMScsICctcGgnLCAnNycsICctcGh0JywgJzAuNScsICctbnQn

> <r_lp_tautomer_probability>
1

> <r_epik_Ionization_Penalty>
  0.0000

> <r_epik_Ionization_Penalty_Charging>
  0.0000

> <r_epik_Ionization_Penalty_Neutral>
  0.0000

> <r_epik_State_Penalty>
 -0.0000

> <r_epik_Charging_Adjusted_Penalty>
0

> <i_epik_Tot_Q>
0

> <i_epik_Tot_abs_Q>
0

> <s_epik_Chemistry_Notes>
This compound contains an acetal/aminal-like group ( X-CH(R)-Y where X, Y are N, S, or O) that may be acid/base labile, releasing an aldehyde.

$$$$
