1jg0_ligand
                    3D
 Schrodinger Suite 2020-3.
 77 81  0  0  1  0            999 V2000
   13.9830   41.8330   29.3520 C   0  0  0  0  0  0
   15.2560   41.3150   29.6180 C   0  0  0  0  0  0
   15.7020   41.0970   30.9530 C   0  0  0  0  0  0
   14.8590   41.3660   32.0220 C   0  0  0  0  0  0
   13.5370   41.8970   31.8090 C   0  0  0  0  0  0
   12.6520   42.2210   32.9210 C   0  0  0  0  0  0
   11.4210   42.8180   32.6860 C   0  0  0  0  0  0
   10.9990   43.1270   31.3620 C   0  0  0  0  0  0
   11.8240   42.8190   30.2930 C   0  0  0  0  0  0
   13.1040   42.1850   30.4630 C   0  0  0  0  0  0
   12.3400   41.3470   27.5670 C   0  0  0  0  0  0
   14.5990   42.0310   26.8960 C   0  0  0  0  0  0
   13.5710   42.0360   27.9850 N   0  0  0  0  0  0
   12.4110   39.0360   34.4540 C   0  0  2  0  0  0
   11.8110   38.8200   35.8260 C   0  0  0  0  0  0
   12.9860   37.6870   33.9070 C   0  0  0  0  0  0
   13.4480   37.8350   32.4740 C   0  0  0  0  0  0
   12.4970   38.2230   31.4990 C   0  0  0  0  0  0
   12.8660   38.3630   30.1530 C   0  0  0  0  0  0
   14.2070   38.1020   29.7920 C   0  0  0  0  0  0
   15.1770   37.7430   30.7560 C   0  0  0  0  0  0
   14.7910   37.6050   32.1040 C   0  0  0  0  0  0
   13.0250   41.8010   34.6140 S   0  0  0  0  0  0
   11.7650   42.0190   35.3520 O   0  0  0  0  0  0
   14.2220   42.5620   35.0670 O   0  0  0  0  0  0
   13.4440   40.1390   34.5380 N   0  0  3  0  0  0
   12.5550   38.2550   36.6640 O   0  5  0  0  0  0
   10.6790   39.3120   36.0330 O   0  0  0  0  0  0
   14.6470   38.3550   28.4840 O   0  0  0  0  0  0
   14.2990   37.4700   27.1650 S   0  0  0  0  0  0
   14.2870   38.2930   25.9810 O   0  0  0  0  0  0
   13.0950   36.6140   27.3590 O   0  0  0  0  0  0
   19.4390   36.7070   26.5210 C   0  0  0  0  0  0
   19.5460   38.0970   26.3910 C   0  0  0  0  0  0
   18.4210   38.9440   26.4750 C   0  0  0  0  0  0
   17.1830   38.3920   26.7250 C   0  0  0  0  0  0
   17.0280   36.9720   26.8920 C   0  0  0  0  0  0
   15.7260   36.4010   27.1220 C   0  0  0  0  0  0
   15.5680   35.0360   27.1630 C   0  0  0  0  0  0
   16.6820   34.1710   26.9670 C   0  0  0  0  0  0
   17.9410   34.6830   26.7490 C   0  0  0  0  0  0
   18.1540   36.1010   26.7380 C   0  0  0  0  0  0
   21.7970   36.4240   25.6360 C   0  0  0  0  0  0
   20.9820   34.7810   27.3410 C   0  0  0  0  0  0
   20.6620   35.9490   26.4710 N   0  0  0  0  0  0
   15.9190   41.0737   28.7871 H   0  0  0  0  0  0
   16.7076   40.7181   31.1354 H   0  0  0  0  0  0
   15.2024   41.1726   33.0382 H   0  0  0  0  0  0
   10.7685   43.0534   33.5268 H   0  0  0  0  0  0
   10.0333   43.6027   31.1907 H   0  0  0  0  0  0
   11.4909   43.0663   29.2850 H   0  0  0  0  0  0
   11.6096   41.3701   28.3892 H   0  0  0  0  0  0
   12.5728   40.3024   27.3126 H   0  0  0  0  0  0
   11.9173   41.8533   26.6867 H   0  0  0  0  0  0
   15.5030   42.5530   27.2428 H   0  0  0  0  0  0
   14.1968   42.5436   26.0097 H   0  0  0  0  0  0
   14.8523   40.9927   26.6356 H   0  0  0  0  0  0
   11.6377   39.3904   33.7566 H   0  0  0  0  0  0
   13.8428   37.3769   34.5233 H   0  0  0  0  0  0
   12.2058   36.9126   33.9475 H   0  0  0  0  0  0
   11.4665   38.4150   31.7979 H   0  0  0  0  0  0
   12.1354   38.6660   29.4030 H   0  0  0  0  0  0
   16.2123   37.5748   30.4595 H   0  0  0  0  0  0
   15.5258   37.3220   32.8577 H   0  0  0  0  0  0
   14.5004   39.8906   34.7178 H   0  0  0  0  0  0
   20.5280   38.5379   26.2198 H   0  0  0  0  0  0
   18.5293   40.0207   26.3439 H   0  0  0  0  0  0
   16.3098   39.0404   26.7971 H   0  0  0  0  0  0
   14.5809   34.6120   27.3472 H   0  0  0  0  0  0
   16.5361   33.0910   26.9899 H   0  0  0  0  0  0
   18.7802   34.0072   26.5839 H   0  0  0  0  0  0
   21.4723   37.2829   25.0303 H   0  0  0  0  0  0
   22.1290   35.6119   24.9725 H   0  0  0  0  0  0
   22.6293   36.7286   26.2876 H   0  0  0  0  0  0
   20.0898   34.4994   27.9195 H   0  0  0  0  0  0
   21.7962   35.0494   28.0302 H   0  0  0  0  0  0
   21.2960   33.9327   26.7151 H   0  0  0  0  0  0
  1  2  2  0  0  0
  1 10  1  0  0  0
  1 13  1  0  0  0
  2  3  1  0  0  0
  2 46  1  0  0  0
  3  4  2  0  0  0
  3 47  1  0  0  0
  4  5  1  0  0  0
  4 48  1  0  0  0
  5  6  1  0  0  0
  5 10  2  0  0  0
  6  7  2  0  0  0
  6 23  1  0  0  0
  7  8  1  0  0  0
  7 49  1  0  0  0
  8  9  2  0  0  0
  8 50  1  0  0  0
  9 10  1  0  0  0
  9 51  1  0  0  0
 11 13  1  0  0  0
 11 52  1  0  0  0
 11 53  1  0  0  0
 11 54  1  0  0  0
 12 13  1  0  0  0
 12 55  1  0  0  0
 12 56  1  0  0  0
 12 57  1  0  0  0
 14 15  1  0  0  0
 14 16  1  0  0  0
 14 26  1  0  0  0
 14 58  1  0  0  0
 15 27  1  0  0  0
 15 28  2  0  0  0
 16 17  1  0  0  0
 16 59  1  0  0  0
 16 60  1  0  0  0
 17 18  2  0  0  0
 17 22  1  0  0  0
 18 19  1  0  0  0
 18 61  1  0  0  0
 19 20  2  0  0  0
 19 62  1  0  0  0
 20 21  1  0  0  0
 20 29  1  0  0  0
 21 22  2  0  0  0
 21 63  1  0  0  0
 22 64  1  0  0  0
 23 24  2  0  0  0
 23 25  2  0  0  0
 23 26  1  0  0  0
 26 65  1  0  0  0
 29 30  1  0  0  0
 30 31  2  0  0  0
 30 32  2  0  0  0
 30 38  1  0  0  0
 33 34  2  0  0  0
 33 42  1  0  0  0
 33 45  1  0  0  0
 34 35  1  0  0  0
 34 66  1  0  0  0
 35 36  2  0  0  0
 35 67  1  0  0  0
 36 37  1  0  0  0
 36 68  1  0  0  0
 37 38  1  0  0  0
 37 42  2  0  0  0
 38 39  2  0  0  0
 39 40  1  0  0  0
 39 69  1  0  0  0
 40 41  2  0  0  0
 40 70  1  0  0  0
 41 42  1  0  0  0
 41 71  1  0  0  0
 43 45  1  0  0  0
 43 72  1  0  0  0
 43 73  1  0  0  0
 43 74  1  0  0  0
 44 45  1  0  0  0
 44 75  1  0  0  0
 44 76  1  0  0  0
 44 77  1  0  0  0
M  CHG  1  27  -1
M  END
> <s_m_source_file>
../1jg0_ligand.sdf

> <i_m_source_file_index>
1

> <s_epik_input>
W2NIXTFbY0hdW2NIXWMoTihbQ0gzXSlbQ0gzXSljKGMxMilbY0hdW2NIXVtjSF1jMlMoPU8pKD1PKVtOSF1bQ0BIXShDKD1PKVtPSF0pW0NIMl1jM1tjSF1bY0hdYyhbY0hdW2NIXTMpT1MoPU8pKD1PKWM0W2NIXVtjSF1bY0hdYyhjNDUpYyhOKFtDSDNdKVtDSDNdKVtjSF1bY0hdW2NIXTU=

> <s_epik_cmdline>
J2VwaWtfYXBwJywgJy1pbWFlJywgJ2xpZ2FuZF9wcm8ubWFlJywgJy1vbWFlJywgJ2xpZ2FuZF9wcmVwLm1hZScsICctbXMnLCAnMScsICctcGgnLCAnNycsICctcGh0JywgJzAuNScsICctbnQn

> <r_lp_tautomer_probability>
1

> <r_epik_Ionization_Penalty>
  0.0021

> <r_epik_Ionization_Penalty_Charging>
  0.0000

> <r_epik_Ionization_Penalty_Neutral>
  0.0021

> <r_epik_State_Penalty>
 -0.0000

> <r_epik_Charging_Adjusted_Penalty>
1.12167634469328e-05

> <i_epik_Tot_Q>
-1

> <i_epik_Tot_abs_Q>
1

$$$$
