1jgl_ligand
                    3D
 Schrodinger Suite 2020-3.
 44 47  0  0  1  0            999 V2000
   43.1480   25.8150   67.9760 C   0  0  0  0  0  0
   44.5470   25.7240   68.2820 C   0  0  0  0  0  0
   45.3400   24.6720   67.7000 C   0  0  0  0  0  0
   46.6790   24.5930   68.0030 O   0  0  0  0  0  0
   44.7490   23.7110   66.8090 C   0  0  0  0  0  0
   43.3380   23.7840   66.4790 C   0  0  0  0  0  0
   42.7360   22.7450   65.5040 C   0  0  0  0  0  0
   41.2140   22.9120   65.1790 C   0  0  0  0  0  0
   40.7130   24.3810   65.2470 C   0  0  2  0  0  0
   40.9720   24.9410   66.7220 C   0  0  1  0  0  0
   42.5000   24.8610   67.0770 C   0  0  0  0  0  0
   40.4190   26.4050   66.7950 C   0  0  0  0  0  0
   38.9070   26.5280   66.4270 C   0  0  0  0  0  0
   38.6580   26.0230   64.9750 C   0  0  1  0  0  0
   39.1610   24.5000   64.9040 C   0  0  1  0  0  0
   38.6040   24.0730   63.5350 C   0  0  0  0  0  0
   37.1110   24.5910   63.6240 C   0  0  0  0  0  0
   37.1590   25.8400   64.5770 C   0  0  2  0  0  0
   36.5330   26.9730   63.9170 O   0  0  0  0  0  0
   39.3540   27.0060   63.9250 C   0  0  0  0  0  0
   42.5553   26.6128   68.4235 H   0  0  0  0  0  0
   45.0081   26.4488   68.9529 H   0  0  0  0  0  0
   47.1329   25.3274   68.6846 H   0  0  0  0  0  0
   45.3653   22.9219   66.3783 H   0  0  0  0  0  0
   43.2623   22.7992   64.5396 H   0  0  0  0  0  0
   42.8494   21.7361   65.9274 H   0  0  0  0  0  0
   41.0143   22.5469   64.1608 H   0  0  0  0  0  0
   40.6193   22.3317   65.8998 H   0  0  0  0  0  0
   41.2773   24.9439   64.4889 H   0  0  0  0  0  0
   40.4513   24.3418   67.4834 H   0  0  0  0  0  0
   40.5379   26.7912   67.8181 H   0  0  0  0  0  0
   40.9778   27.0434   66.0948 H   0  0  0  0  0  0
   38.3095   25.9221   67.1241 H   0  0  0  0  0  0
   38.5968   27.5810   66.4978 H   0  0  0  0  0  0
   38.7883   23.7599   65.6274 H   0  0  0  0  0  0
   39.1848   24.5567   62.7358 H   0  0  0  0  0  0
   38.6794   22.9803   63.4331 H   0  0  0  0  0  0
   36.7573   24.8647   62.6190 H   0  0  0  0  0  0
   36.4709   23.7960   64.0341 H   0  0  0  0  0  0
   36.5417   25.7899   65.4861 H   0  0  0  0  0  0
   36.4709   27.9435   64.4311 H   0  0  0  0  0  0
   40.4114   27.1424   64.1957 H   0  0  0  0  0  0
   38.8430   27.9800   63.9402 H   0  0  0  0  0  0
   39.2867   26.5723   62.9164 H   0  0  0  0  0  0
  1  2  2  0  0  0
  1 11  1  0  0  0
  1 21  1  0  0  0
  2  3  1  0  0  0
  2 22  1  0  0  0
  3  4  1  0  0  0
  3  5  2  0  0  0
  4 23  1  0  0  0
  5  6  1  0  0  0
  5 24  1  0  0  0
  6  7  1  0  0  0
  6 11  2  0  0  0
  7  8  1  0  0  0
  7 25  1  0  0  0
  7 26  1  0  0  0
  8  9  1  0  0  0
  8 27  1  0  0  0
  8 28  1  0  0  0
  9 10  1  0  0  0
  9 15  1  0  0  0
  9 29  1  0  0  0
 10 11  1  0  0  0
 10 12  1  0  0  0
 10 30  1  0  0  0
 12 13  1  0  0  0
 12 31  1  0  0  0
 12 32  1  0  0  0
 13 14  1  0  0  0
 13 33  1  0  0  0
 13 34  1  0  0  0
 14 15  1  0  0  0
 14 18  1  0  0  0
 14 20  1  0  0  0
 15 16  1  0  0  0
 15 35  1  0  0  0
 16 17  1  0  0  0
 16 36  1  0  0  0
 16 37  1  0  0  0
 17 18  1  0  0  0
 17 38  1  0  0  0
 17 39  1  0  0  0
 18 19  1  0  0  0
 18 40  1  0  0  0
 19 41  1  0  0  0
 20 42  1  0  0  0
 20 43  1  0  0  0
 20 44  1  0  0  0
M  END
> <s_m_source_file>
../1jgl_ligand.sdf

> <i_m_source_file_index>
1

> <s_epik_input>
W2NIXTFbY0hdYyhbT0hdKVtjSF1jKFtDSDJdW0NIMl0yKWMxW0NAQEhdKFtDSDJdW0NIMl0zKVtDQEBIXTJbQ0BASF0oW0NAXTM0W0NIM10pW0NIMl1bQ0gyXVtDQEBIXTRbT0hd

> <s_epik_cmdline>
J2VwaWtfYXBwJywgJy1pbWFlJywgJ2xpZ2FuZF9wcm8ubWFlJywgJy1vbWFlJywgJ2xpZ2FuZF9wcmVwLm1hZScsICctbXMnLCAnMScsICctcGgnLCAnNycsICctcGh0JywgJzAuNScsICctbnQn

> <r_lp_tautomer_probability>
1

> <r_epik_Ionization_Penalty>
  0.0001

> <r_epik_Ionization_Penalty_Charging>
  0.0000

> <r_epik_Ionization_Penalty_Neutral>
  0.0001

> <r_epik_State_Penalty>
 -0.0000

> <r_epik_Charging_Adjusted_Penalty>
0

> <i_epik_Tot_Q>
0

> <i_epik_Tot_abs_Q>
0

$$$$
