1jh1_ligand
                    3D
 Schrodinger Suite 2020-3.
 30 31  0  0  1  0            999 V2000
   27.0330   60.8770   55.6740 S   0  0  0  0  0  0
   23.7900   65.7540   61.7490 Cl  0  0  0  0  0  0
   24.1810   61.0610   56.8510 N   0  0  0  0  0  0
   24.4670   60.1020   55.8440 N   0  3  0  0  0  0
   25.6460   59.3460   53.9770 N   0  0  0  0  0  0
   25.0980   62.3230   60.0750 C   0  0  0  0  0  0
   24.7790   63.3310   61.0260 C   0  0  0  0  0  0
   24.1830   64.5270   60.5870 C   0  0  0  0  0  0
   23.8950   64.7470   59.2200 C   0  0  0  0  0  0
   24.2250   63.7200   58.2830 C   0  0  0  0  0  0
   24.8340   62.4790   58.6800 C   0  0  0  0  0  0
   25.1540   61.4520   57.6190 C   0  0  0  0  0  0
   26.5540   60.8940   57.4360 C   0  0  0  0  0  0
   25.6210   60.0370   55.1100 C   0  0  0  0  0  0
   26.1410   59.8650   52.6910 C   0  0  0  0  0  0
   26.4580   58.7690   51.7200 C   0  0  0  0  0  0
   26.9230   58.9690   50.4900 C   0  0  0  0  0  0
   23.6647   59.3691   55.6734 H   0  0  0  0  0  0
   25.5601   61.3991   60.4228 H   0  0  0  0  0  0
   24.9940   63.1784   62.0836 H   0  0  0  0  0  0
   23.4327   65.6771   58.8893 H   0  0  0  0  0  0
   24.0070   63.8832   57.2276 H   0  0  0  0  0  0
   26.5774   59.8681   57.8322 H   0  0  0  0  0  0
   27.2585   61.5216   58.0015 H   0  0  0  0  0  0
   25.3752   60.5113   52.2372 H   0  0  0  0  0  0
   27.0591   60.4471   52.8594 H   0  0  0  0  0  0
   26.2826   57.7452   52.0820 H   0  0  0  0  0  0
   27.0984   59.9928   50.1280 H   0  0  0  0  0  0
   27.1322   58.1106   49.8347 H   0  0  0  0  0  0
   25.2617   58.3175   54.0437 H   0  0  0  0  0  0
  1 13  1  0  0  0
  1 14  1  0  0  0
  2  8  1  0  0  0
  3  4  1  0  0  0
  3 12  2  0  0  0
  4 14  2  0  0  0
  4 18  1  0  0  0
  5 14  1  0  0  0
  5 15  1  0  0  0
  5 30  1  0  0  0
  6  7  2  0  0  0
  6 11  1  0  0  0
  6 19  1  0  0  0
  7  8  1  0  0  0
  7 20  1  0  0  0
  8  9  2  0  0  0
  9 10  1  0  0  0
  9 21  1  0  0  0
 10 11  2  0  0  0
 10 22  1  0  0  0
 11 12  1  0  0  0
 12 13  1  0  0  0
 13 23  1  0  0  0
 13 24  1  0  0  0
 15 16  1  0  0  0
 15 25  1  0  0  0
 15 26  1  0  0  0
 16 17  2  0  0  0
 16 27  1  0  0  0
 17 28  1  0  0  0
 17 29  1  0  0  0
M  CHG  1   4   1
M  END
> <s_m_source_file>
../1jh1_ligand.sdf

> <i_m_source_file_index>
1

> <s_epik_input>
W0NIMl09W0NIXVtDSDJdL049QyhcU1tDSDJdMSlbTkhdTj1DMWMoW2NIXVtjSF0yKVtjSF1bY0hdYzJDbA==

> <s_epik_cmdline>
J2VwaWtfYXBwJywgJy1pbWFlJywgJ2xpZ2FuZF9wcm8ubWFlJywgJy1vbWFlJywgJ2xpZ2FuZF9wcmVwLm1hZScsICctbXMnLCAnMScsICctcGgnLCAnNycsICctcGh0JywgJzAuNScsICctbnQn

> <r_epik_Ionization_Penalty>
  0.1942

> <r_epik_Ionization_Penalty_Charging>
  0.1942

> <r_epik_Ionization_Penalty_Neutral>
  0.0000

> <r_epik_State_Penalty>
  0.1658

> <r_epik_Charging_Adjusted_Penalty>
0.360021897781273

> <i_epik_Tot_Q>
1

> <i_epik_Tot_abs_Q>
1

> <s_epik_Chemistry_Notes>
This compound has an imine and may undergo hydrolysis.

$$$$
