1jif_ligand
                    3D
 Schrodinger Suite 2020-3.
181186  0  0  1  0            999 V2000
   22.2180   -3.1030    0.1840 N   0  0  0  0  0  0
   21.7510   -1.7170    2.3540 C   0  0  2  0  0  0
   21.7410   -2.9750    1.4820 C   0  0  0  0  0  0
   21.2750   -3.9840    1.9130 O   0  0  0  0  0  0
   19.2770   -2.0160    3.0510 N   0  3  0  0  0  0
   20.6650   -1.9030    3.4470 C   0  0  0  0  0  0
   21.3140   -0.5490    1.6110 N   0  3  0  0  0  0
   18.9300   -4.2180    6.3080 N   0  0  0  0  0  0
   18.6490   -1.8460    5.5080 C   0  0  0  0  0  0
   18.2330   -3.3270    5.7700 C   0  0  0  0  0  0
   17.0360   -3.6030    5.3850 O   0  0  0  0  0  0
   18.2380    2.3110    4.8910 C   0  0  0  0  0  0
   18.4120    2.8440    3.4620 C   0  0  0  0  0  0
   18.5820    1.9880    2.5390 C   0  0  0  0  0  0
   18.6430    0.5360    2.7550 N   0  0  0  0  0  0
   18.4050    0.0760    4.0500 C   0  0  0  0  0  0
   18.2350    0.8560    5.0660 N   0  0  0  0  0  0
   18.4000   -1.4130    4.0030 C   0  0  1  0  0  0
   18.0090    3.1440    5.9700 N   0  0  0  0  0  0
   18.3580    4.3880    3.3120 C   0  0  0  0  0  0
   18.7300    2.1510    1.0980 C   0  0  0  0  0  0
   18.6640    3.2930    0.6290 O   0  0  0  0  0  0
   18.8780    1.0190    0.3150 N   0  0  0  0  0  0
   19.0630    1.2110   -1.1160 C   0  0  2  0  0  0
   17.7130    1.3790   -1.8490 C   0  0  0  0  0  0
   17.6270    1.8420   -3.0120 O   0  0  0  0  0  0
   19.8250    0.0360   -1.7510 C   0  0  2  0  0  0
   19.2980   -1.3590   -1.3500 C   0  0  0  0  0  0
   21.1940    0.1700   -1.3830 O   0  0  0  0  0  0
   18.9300   -1.7250   -0.1260 N   0  0  0  0  0  0
   19.1080   -2.4140   -2.2250 C   0  0  0  0  0  0
   18.6410   -3.0200   -0.2020 C   0  0  0  0  0  0
   18.6560   -3.4200   -1.4920 N   0  0  0  0  0  0
   16.5750    0.9730   -1.2410 N   0  0  0  0  0  0
   15.5450   -1.5750   -2.2400 C   0  0  2  0  0  0
   14.8420   -2.8710   -1.9030 C   0  0  0  0  0  0
   14.2500   -3.5990   -2.6960 O   0  0  0  0  0  0
   13.4680   -0.3340   -2.3810 O   0  0  0  0  0  0
   15.2780    1.0120   -1.9170 C   0  0  2  0  0  0
   14.4360    2.1200   -1.2900 C   0  0  0  0  0  0
   14.7060   -0.3710   -1.6850 C   0  0  2  0  0  0
   15.7070   -1.5280   -3.7580 C   0  0  0  0  0  0
   14.9270   -3.2380   -0.6190 N   0  0  0  0  0  0
   14.4290   -4.5440   -0.1870 C   0  0  2  0  0  0
   12.9150   -4.5770   -0.0490 C   0  0  0  0  0  0
   12.2610   -3.5810    0.2130 O   0  0  0  0  0  0
   15.1470   -4.8130    1.1530 C   0  0  2  0  0  0
   16.4870   -5.1120    0.7760 O   0  0  0  0  0  0
   14.5210   -5.9450    1.9360 C   0  0  0  0  0  0
   12.2570   -5.7060   -0.3130 N   0  0  0  0  0  0
   10.5100   -6.2810    1.1830 C   0  0  0  0  0  0
    3.3650  -10.8050    0.8670 C   0  0  0  0  0  0
    3.1240  -11.8970    0.3540 O   0  0  0  0  0  0
    9.0940   -6.6900    1.4140 C   0  0  0  0  0  0
   10.8010   -5.8100   -0.2650 C   0  0  0  0  0  0
    8.0720   -5.7350    2.4150 S   0  0  0  0  0  0
    6.7720   -6.7940    2.0780 C   0  0  0  0  0  0
    7.2590   -7.8320    1.2700 C   0  0  0  0  0  0
    8.5830   -7.7500    0.9050 N   0  0  0  0  0  0
    5.5660  -10.8660   -0.2040 C   0  0  0  0  0  0
    4.7110  -10.2000    0.6180 C   0  0  0  0  0  0
    5.1740   -9.0300    1.1610 N   0  0  0  0  0  0
    6.4280   -8.8970    0.8660 C   0  0  0  0  0  0
    7.1310  -10.1550   -0.1070 S   0  0  0  0  0  0
    2.5670  -10.1180    1.6430 N   0  0  0  0  0  0
    1.2300  -10.5750    1.8670 C   0  0  0  0  0  0
    0.7700   -9.9840    3.1660 C   0  0  0  0  0  0
    0.2560   -8.5640    2.8830 C   0  0  0  0  0  0
   -1.1990   -8.5880    1.8190 S   0  0  0  0  0  0
   -2.0280  -10.1380    2.1010 C   0  0  0  0  0  0
   -0.6020   -8.6910    0.1390 C   0  0  0  0  0  0
   24.9200   -0.2820   -3.8660 O   0  0  0  0  0  0
   23.7460   -0.6340   -0.3720 O   0  0  0  0  0  0
   23.1120   -2.3400   -4.3780 C   0  0  0  0  0  0
   21.7750   -2.7640   -4.5430 O   0  0  0  0  0  0
   23.0840    1.9930   -0.7270 O   0  0  0  0  0  0
   23.0060   -1.3700   -3.1690 C   0  0  2  0  0  0
   22.2010   -0.2160   -3.4980 O   0  0  0  0  0  0
   21.9880    0.7500   -2.4420 C   0  0  2  0  0  0
   23.3370    1.2220   -1.8910 C   0  0  2  0  0  0
   24.2560    0.0280   -1.5260 C   0  0  2  0  0  0
   24.3850   -0.9240   -2.7270 C   0  0  2  0  0  0
   23.5960    3.7090    0.8150 C   0  0  1  0  0  0
   22.1390    4.0600    1.0810 C   0  0  2  0  0  0
   21.6640    5.1320    0.1090 C   0  0  1  0  0  0
   21.8560    4.5910   -1.3120 C   0  0  2  0  0  0
   23.2270    4.1980   -1.5170 O   0  0  0  0  0  0
   23.7700    3.2360   -0.6360 C   0  0  2  0  0  0
   21.9710    4.6000    2.3900 O   0  0  0  0  0  0
   20.3230    5.4310    0.3600 O   0  0  0  0  0  0
   24.3780    4.8800    1.0030 O   0  0  0  0  0  0
   21.6040    4.3170    4.5310 N   0  0  0  0  0  0
   21.8250    3.6720    3.3560 C   0  0  0  0  0  0
   21.8630    2.4670    3.1750 O   0  0  0  0  0  0
   21.5890    5.0580   -3.6090 O   0  0  0  0  0  0
   21.5360    5.6850   -2.3480 C   0  0  0  0  0  0
   22.6718   -2.2387   -0.3229 H   0  0  0  0  0  0
   22.1420   -4.0687   -0.3372 H   0  0  0  0  0  0
   22.7775   -1.5322    2.7035 H   0  0  0  0  0  0
   19.1301   -1.5155    2.0825 H   0  0  0  0  0  0
   19.0072   -3.0784    2.9593 H   0  0  0  0  0  0
   20.8655   -2.8267    4.0096 H   0  0  0  0  0  0
   20.6849   -1.0439    4.1337 H   0  0  0  0  0  0
   22.0317   -0.3378    0.8046 H   0  0  0  0  0  0
   21.2579    0.3163    2.2879 H   0  0  0  0  0  0
   20.3213   -0.7405    1.1775 H   0  0  0  0  0  0
   19.9537   -3.9901    6.6397 H   0  0  0  0  0  0
   18.5183   -5.2283    6.4487 H   0  0  0  0  0  0
   18.0620   -1.1799    6.1574 H   0  0  0  0  0  0
   19.7197   -1.7216    5.7273 H   0  0  0  0  0  0
   17.4839   -1.7799    3.5170 H   0  0  0  0  0  0
   18.0124    4.2354    5.8327 H   0  0  0  0  0  0
   17.8233    2.7155    6.9660 H   0  0  0  0  0  0
   18.1984    4.8469    4.2989 H   0  0  0  0  0  0
   17.5301    4.6625    2.6417 H   0  0  0  0  0  0
   19.3072    4.7487    2.8891 H   0  0  0  0  0  0
   18.8599    0.0028    0.7358 H   0  0  0  0  0  0
   19.6585    2.1346   -1.1645 H   0  0  0  0  0  0
   19.7625    0.1031   -2.8472 H   0  0  0  0  0  0
   19.2530   -2.5440   -3.3076 H   0  0  0  0  0  0
   18.4240   -3.6638    0.6503 H   0  0  0  0  0  0
   16.6453    0.6052   -0.2067 H   0  0  0  0  0  0
   16.5463   -1.5423   -1.7858 H   0  0  0  0  0  0
   12.8154   -1.2195   -2.3900 H   0  0  0  0  0  0
   15.3599    1.2318   -2.9917 H   0  0  0  0  0  0
   14.9029    3.0950   -1.4934 H   0  0  0  0  0  0
   14.3739    1.9628   -0.2031 H   0  0  0  0  0  0
   13.4244    2.1007   -1.7217 H   0  0  0  0  0  0
   14.5799   -0.5285   -0.6037 H   0  0  0  0  0  0
   16.3009   -2.3922   -4.0903 H   0  0  0  0  0  0
   16.2211   -0.5983   -4.0432 H   0  0  0  0  0  0
   14.7157   -1.5596   -4.2337 H   0  0  0  0  0  0
   15.3749   -2.5504    0.1135 H   0  0  0  0  0  0
   14.6505   -5.2901   -0.9643 H   0  0  0  0  0  0
   15.1500   -3.9556    1.8421 H   0  0  0  0  0  0
   17.0725   -4.3804    0.1998 H   0  0  0  0  0  0
   13.4895   -5.6763    2.2078 H   0  0  0  0  0  0
   15.1058   -6.1260    2.8500 H   0  0  0  0  0  0
   14.5123   -6.8562    1.3198 H   0  0  0  0  0  0
   12.8628   -6.5855   -0.5766 H   0  0  0  0  0  0
   10.7648   -5.4469    1.8534 H   0  0  0  0  0  0
   11.1757   -7.1324    1.3877 H   0  0  0  0  0  0
   10.3559   -4.8273   -0.4798 H   0  0  0  0  0  0
   10.4605   -6.5386   -1.0154 H   0  0  0  0  0  0
    5.7462   -6.6821    2.4291 H   0  0  0  0  0  0
    5.3009  -11.7192   -0.8285 H   0  0  0  0  0  0
    2.9196   -9.1929    2.1224 H   0  0  0  0  0  0
    0.5852  -10.2413    1.0406 H   0  0  0  0  0  0
    1.2217  -11.6738    1.9178 H   0  0  0  0  0  0
   -0.0358  -10.6040    3.5859 H   0  0  0  0  0  0
    1.6126   -9.9502    3.8723 H   0  0  0  0  0  0
   -0.0141   -8.0761    3.8312 H   0  0  0  0  0  0
    1.0438   -7.9818    2.3825 H   0  0  0  0  0  0
   -2.4301  -10.1578    3.1247 H   0  0  0  0  0  0
   -1.3139  -10.9646    1.9715 H   0  0  0  0  0  0
   -2.8522  -10.2493    1.3810 H   0  0  0  0  0  0
   -0.0713   -7.7627   -0.1191 H   0  0  0  0  0  0
   -1.4527   -8.8292   -0.5446 H   0  0  0  0  0  0
    0.0856   -9.5445    0.0459 H   0  0  0  0  0  0
   25.0664   -0.8475   -4.7981 H   0  0  0  0  0  0
   23.6008   -0.0745    0.5639 H   0  0  0  0  0  0
   23.7505   -3.2119   -4.1727 H   0  0  0  0  0  0
   23.4551   -1.8426   -5.2972 H   0  0  0  0  0  0
   21.5182   -3.4754   -5.3417 H   0  0  0  0  0  0
   22.4849   -1.8528   -2.3291 H   0  0  0  0  0  0
   21.3980    1.5751   -2.8676 H   0  0  0  0  0  0
   23.8408    1.8822   -2.6124 H   0  0  0  0  0  0
   25.2581    0.3518   -1.2084 H   0  0  0  0  0  0
   25.0746   -1.7376   -2.4577 H   0  0  0  0  0  0
   23.9559    2.9555    1.5311 H   0  0  0  0  0  0
   21.5431    3.1369    1.0290 H   0  0  0  0  0  0
   22.1616    6.1021    0.2552 H   0  0  0  0  0  0
   21.2347    3.6927   -1.4422 H   0  0  0  0  0  0
   24.8024    3.0947   -0.9885 H   0  0  0  0  0  0
   20.0226    5.8302    1.3400 H   0  0  0  0  0  0
   24.3920    5.3806    1.9824 H   0  0  0  0  0  0
   21.5944    5.4165    4.5615 H   0  0  0  0  0  0
   21.4347    3.7397    5.4519 H   0  0  0  0  0  0
   21.3933    5.6403   -4.5215 H   0  0  0  0  0  0
   20.5343    6.0947   -2.1511 H   0  0  0  0  0  0
   22.2823    6.4897   -2.2740 H   0  0  0  0  0  0
  1  3  1  0  0  0
  1 97  1  0  0  0
  1 98  1  0  0  0
  2  3  1  0  0  0
  2  6  1  0  0  0
  2  7  1  0  0  0
  2 99  1  0  0  0
  3  4  2  0  0  0
  5  6  1  0  0  0
  5 18  1  0  0  0
  5100  1  0  0  0
  5101  1  0  0  0
  6102  1  0  0  0
  6103  1  0  0  0
  7104  1  0  0  0
  7105  1  0  0  0
  7106  1  0  0  0
  8 10  1  0  0  0
  8107  1  0  0  0
  8108  1  0  0  0
  9 10  1  0  0  0
  9 18  1  0  0  0
  9109  1  0  0  0
  9110  1  0  0  0
 10 11  2  0  0  0
 12 13  2  0  0  0
 12 17  1  0  0  0
 12 19  1  0  0  0
 13 14  1  0  0  0
 13 20  1  0  0  0
 14 15  2  0  0  0
 14 21  1  0  0  0
 15 16  1  0  0  0
 16 17  2  0  0  0
 16 18  1  0  0  0
 18111  1  0  0  0
 19112  1  0  0  0
 19113  1  0  0  0
 20114  1  0  0  0
 20115  1  0  0  0
 20116  1  0  0  0
 21 22  2  0  0  0
 21 23  1  0  0  0
 23 24  1  0  0  0
 23117  1  0  0  0
 24 25  1  0  0  0
 24 27  1  0  0  0
 24118  1  0  0  0
 25 26  2  0  0  0
 25 34  1  0  0  0
 27 28  1  0  0  0
 27 29  1  0  0  0
 27119  1  0  0  0
 28 30  2  0  0  0
 28 31  1  0  0  0
 29 79  1  0  0  0
 30 32  1  0  0  0
 31 33  2  0  0  0
 31120  1  0  0  0
 32 33  1  0  0  0
 32121  1  0  0  0
 34 39  1  0  0  0
 34122  1  0  0  0
 35 36  1  0  0  0
 35 41  1  0  0  0
 35 42  1  0  0  0
 35123  1  0  0  0
 36 37  2  0  0  0
 36 43  1  0  0  0
 38 41  1  0  0  0
 38124  1  0  0  0
 39 40  1  0  0  0
 39 41  1  0  0  0
 39125  1  0  0  0
 40126  1  0  0  0
 40127  1  0  0  0
 40128  1  0  0  0
 41129  1  0  0  0
 42130  1  0  0  0
 42131  1  0  0  0
 42132  1  0  0  0
 43 44  1  0  0  0
 43133  1  0  0  0
 44 45  1  0  0  0
 44 47  1  0  0  0
 44134  1  0  0  0
 45 46  2  0  0  0
 45 50  1  0  0  0
 47 48  1  0  0  0
 47 49  1  0  0  0
 47135  1  0  0  0
 48136  1  0  0  0
 49137  1  0  0  0
 49138  1  0  0  0
 49139  1  0  0  0
 50 55  1  0  0  0
 50140  1  0  0  0
 51 54  1  0  0  0
 51 55  1  0  0  0
 51141  1  0  0  0
 51142  1  0  0  0
 52 53  2  0  0  0
 52 61  1  0  0  0
 52 65  1  0  0  0
 54 56  1  0  0  0
 54 59  2  0  0  0
 55143  1  0  0  0
 55144  1  0  0  0
 56 57  1  0  0  0
 57 58  2  0  0  0
 57145  1  0  0  0
 58 59  1  0  0  0
 58 63  1  0  0  0
 60 61  2  0  0  0
 60 64  1  0  0  0
 60146  1  0  0  0
 61 62  1  0  0  0
 62 63  2  0  0  0
 63 64  1  0  0  0
 65 66  1  0  0  0
 65147  1  0  0  0
 66 67  1  0  0  0
 66148  1  0  0  0
 66149  1  0  0  0
 67 68  1  0  0  0
 67150  1  0  0  0
 67151  1  0  0  0
 68 69  1  0  0  0
 68152  1  0  0  0
 68153  1  0  0  0
 69 70  1  0  0  0
 69 71  1  0  0  0
 70154  1  0  0  0
 70155  1  0  0  0
 70156  1  0  0  0
 71157  1  0  0  0
 71158  1  0  0  0
 71159  1  0  0  0
 72 82  1  0  0  0
 72160  1  0  0  0
 73 81  1  0  0  0
 73161  1  0  0  0
 74 75  1  0  0  0
 74 77  1  0  0  0
 74162  1  0  0  0
 74163  1  0  0  0
 75164  1  0  0  0
 76 80  1  0  0  0
 76 88  1  0  0  0
 77 78  1  0  0  0
 77 82  1  0  0  0
 77165  1  0  0  0
 78 79  1  0  0  0
 79 80  1  0  0  0
 79166  1  0  0  0
 80 81  1  0  0  0
 80167  1  0  0  0
 81 82  1  0  0  0
 81168  1  0  0  0
 82169  1  0  0  0
 83 84  1  0  0  0
 83 88  1  0  0  0
 83 91  1  0  0  0
 83170  1  0  0  0
 84 85  1  0  0  0
 84 89  1  0  0  0
 84171  1  0  0  0
 85 86  1  0  0  0
 85 90  1  0  0  0
 85172  1  0  0  0
 86 87  1  0  0  0
 86 96  1  0  0  0
 86173  1  0  0  0
 87 88  1  0  0  0
 88174  1  0  0  0
 89 93  1  0  0  0
 90175  1  0  0  0
 91176  1  0  0  0
 92 93  1  0  0  0
 92177  1  0  0  0
 92178  1  0  0  0
 93 94  2  0  0  0
 95 96  1  0  0  0
 95179  1  0  0  0
 96180  1  0  0  0
 96181  1  0  0  0
M  CHG  2   5   1   7   1
M  END
> <s_m_source_file>
../1jif_ligand.sdf

> <i_m_source_file_index>
1

> <s_epik_input>
W05IMl1DKD1PKU9bQ0BIXShbQ0BASF0xW09IXSlbQ0BIXShbT0hdKVtDQEBIXShbQ0gyXVtPSF0pT1tDQEBIXTFPW0NAQEhdKFtDQEBIXShbT0hdKVtDQEBIXTJbT0hdKVtDQEBIXShPW0NASF0yW0NIMl1bT0hdKU9bQ0BASF0oQzM9TltDSDJdTj1bQ0hdMylbQ0BIXShbTkhdQyg9TyljKGMoW0NIM10pYzRbTkgyXSluYyhuNClbQ0BIXShbQ0gyXUMoPU8pW05IMl0pW05IMitdW0NIMl1bQ0BIXShbTkgzK10pQyg9TylbTkgyXSlDKD1PKVtOSF1bQ0BIXShbQ0gzXSlbQ0BASF0oW09IXSlbQ0BIXShbQ0gzXSlDKD1PKVtOSF1bQ0BASF0oW0NASF0oW09IXSlbQ0gzXSlDKD1PKVtOSF1bQ0gyXVtDSDJdYzVzW2NIXWMobjUpLWMobjYpc1tjSF1jNkMoPU8pW05IXVtDSDJdW0NIMl1bQ0gyXVtTSF0oW0NIM10pW0NIM10=

> <s_epik_cmdline>
J2VwaWtfYXBwJywgJy1pbWFlJywgJ2xpZ2FuZF9wcm8ubWFlJywgJy1vbWFlJywgJ2xpZ2FuZF9wcmVwLm1hZScsICctbXMnLCAnMScsICctcGgnLCAnNycsICctcGh0JywgJzAuNScsICctbnQn

> <s_epik_pKa_notes>
Molecule size exceeds maximum supported for generating protonation states

> <s_epik_Chemistry_Notes>
This compound has an ester and may undergo hydrolysis at high or low pH. This compound has an imine and may undergo hydrolysis. This compound contains an acetal/aminal-like group ( X-CH(R)-Y where X, Y are N, S, or O) that may be acid/base labile, releasing an aldehyde.

$$$$
