1jii_ligand
                    3D
 Schrodinger Suite 2020-3.
 52 54  0  0  1  0            999 V2000
   -8.2370   11.1440   83.7430 C   0  0  0  0  0  0
   -7.5690   10.0480   84.2730 C   0  0  0  0  0  0
   -8.1630    9.3200   85.3100 C   0  0  0  0  0  0
   -9.5020    9.5290   85.6680 C   0  0  0  0  0  0
  -10.1830   10.6230   85.1410 C   0  0  0  0  0  0
   -9.5630   11.4750   84.1800 C   0  0  0  0  0  0
  -10.3000   12.7700   83.6340 C   0  0  0  0  0  0
  -11.8710   12.7700   83.5970 C   0  0  1  0  0  0
  -12.5570   14.1710   83.8600 C   0  0  0  0  0  0
  -11.8740   14.9880   84.5510 N   0  0  0  0  0  0
  -11.9830   16.4140   84.5410 C   0  0  2  0  0  0
  -10.8510   16.9580   83.6990 C   0  0  0  0  0  0
  -10.0500   15.9500   83.1750 O   0  5  0  0  0  0
  -13.6530   14.4560   83.4130 O   0  0  0  0  0  0
  -12.3440   12.2140   82.3220 N   0  3  0  0  0  0
  -10.6750   18.1840   83.5070 O   0  0  0  0  0  0
  -12.1060   16.8910   85.9650 C   0  0  2  0  0  0
  -12.6940   15.8360   86.8350 N   0  0  2  0  0  0
  -13.1140   16.3260   88.1540 C   0  0  2  0  0  0
  -14.1890   17.3780   87.9840 C   0  0  1  0  0  0
  -13.3080   18.4880   87.4200 C   0  0  1  0  0  0
  -13.0650   18.0740   85.9240 C   0  0  1  0  0  0
  -11.7680   14.7860   87.0380 O   0  0  0  0  0  0
  -13.9100   19.7580   87.5770 O   0  0  0  0  0  0
  -11.9550   18.3940   88.1520 C   0  0  0  0  0  0
  -11.9730   17.0540   88.6700 O   0  0  0  0  0  0
  -15.2360   17.0240   87.0840 O   0  0  0  0  0  0
  -12.5480   19.1360   85.1410 O   0  0  0  0  0  0
   -7.4360    8.4320   85.9690 O   0  0  0  0  0  0
   -7.7489   11.7593   82.9871 H   0  0  0  0  0  0
   -6.5924    9.7579   83.8854 H   0  0  0  0  0  0
  -10.0040    8.8434   86.3507 H   0  0  0  0  0  0
  -11.2022   10.8308   85.4668 H   0  0  0  0  0  0
  -10.0308   13.6354   84.2574 H   0  0  0  0  0  0
   -9.9916   12.9567   82.5947 H   0  0  0  0  0  0
  -12.2056   12.0837   84.3889 H   0  0  0  0  0  0
  -11.1392   14.4971   85.2061 H   0  0  0  0  0  0
  -12.9088   16.7494   84.0508 H   0  0  0  0  0  0
  -11.8632   11.2405   82.1457 H   0  0  0  0  0  0
  -12.0876   12.9031   81.5039 H   0  0  0  0  0  0
  -13.4353   12.0821   82.3619 H   0  0  0  0  0  0
  -11.1160   17.1336   86.3786 H   0  0  0  0  0  0
  -13.4308   15.4850   88.7883 H   0  0  0  0  0  0
  -14.8105   17.5804   88.8687 H   0  0  0  0  0  0
  -13.9847   17.8554   85.3616 H   0  0  0  0  0  0
  -11.3222   14.2711   86.1742 H   0  0  0  0  0  0
  -14.8821   19.9677   87.1069 H   0  0  0  0  0  0
  -11.1379   18.5634   87.4353 H   0  0  0  0  0  0
  -11.9125   19.1568   88.9435 H   0  0  0  0  0  0
  -15.9526   16.2354   87.3569 H   0  0  0  0  0  0
  -12.3327   18.9783   84.0739 H   0  0  0  0  0  0
   -6.3850    8.2659   85.6902 H   0  0  0  0  0  0
  1  2  2  0  0  0
  1  6  1  0  0  0
  1 30  1  0  0  0
  2  3  1  0  0  0
  2 31  1  0  0  0
  3  4  2  0  0  0
  3 29  1  0  0  0
  4  5  1  0  0  0
  4 32  1  0  0  0
  5  6  2  0  0  0
  5 33  1  0  0  0
  6  7  1  0  0  0
  7  8  1  0  0  0
  7 34  1  0  0  0
  7 35  1  0  0  0
  8  9  1  0  0  0
  8 15  1  0  0  0
  8 36  1  0  0  0
  9 10  1  0  0  0
  9 14  2  0  0  0
 10 11  1  0  0  0
 10 37  1  0  0  0
 11 12  1  0  0  0
 11 17  1  0  0  0
 11 38  1  0  0  0
 12 13  1  0  0  0
 12 16  2  0  0  0
 15 39  1  0  0  0
 15 40  1  0  0  0
 15 41  1  0  0  0
 17 18  1  0  0  0
 17 22  1  0  0  0
 17 42  1  0  0  0
 18 19  1  0  0  0
 18 23  1  0  0  0
 19 20  1  0  0  0
 19 26  1  0  0  0
 19 43  1  0  0  0
 20 21  1  0  0  0
 20 27  1  0  0  0
 20 44  1  0  0  0
 21 22  1  0  0  0
 21 24  1  0  0  0
 21 25  1  0  0  0
 22 28  1  0  0  0
 22 45  1  0  0  0
 23 46  1  0  0  0
 24 47  1  0  0  0
 25 26  1  0  0  0
 25 48  1  0  0  0
 25 49  1  0  0  0
 27 50  1  0  0  0
 28 51  1  0  0  0
 29 52  1  0  0  0
M  CHG  2  13  -1  15   1
M  END
> <s_m_source_file>
../1jii_ligand.sdf

> <i_m_source_file_index>
1

> <s_epik_input>
W09IXWMxW2NIXVtjSF1jKFtjSF1bY0hdMSlbQ0gyXVtDQEhdKFtOSDMrXSlDKD1PKVtOSF1bQ0BIXShDKD1PKVtPSF0pW0NAQEhdKFtDQEBIXTJbT0hdKVtOQEBIK10oW09IXSlbQ0BASF0oT1tDSDJdMylbQ0BIXShbT0hdKVtDQF0yM1tPSF0=

> <s_epik_cmdline>
J2VwaWtfYXBwJywgJy1pbWFlJywgJ2xpZ2FuZF9wcm8ubWFlJywgJy1vbWFlJywgJ2xpZ2FuZF9wcmVwLm1hZScsICctbXMnLCAnMScsICctcGgnLCAnNycsICctcGh0JywgJzAuNScsICctbnQn

> <r_lp_tautomer_probability>
1

> <r_epik_Ionization_Penalty>
  0.1982

> <r_epik_Ionization_Penalty_Charging>
  0.1954

> <r_epik_Ionization_Penalty_Neutral>
  0.0028

> <r_epik_State_Penalty>
 -0.0000

> <r_epik_Charging_Adjusted_Penalty>
0.195414956982878

> <i_epik_Tot_Q>
0

> <i_epik_Tot_abs_Q>
2

> <s_epik_Chemistry_Notes>
This compound contains an acetal/aminal-like group ( X-CH(R)-Y where X, Y are N, S, or O) that may be acid/base labile, releasing an aldehyde. This compound has a N-S or N-O group and may undergo hydrolysis at high or low pH.

$$$$
