1jij_ligand
                    3D
 Schrodinger Suite 2020-3.
 54 55  0  0  1  0            999 V2000
   -7.3100   10.2200   84.9850 C   0  0  0  0  0  0
   -7.9100   11.4070   84.5610 C   0  0  0  0  0  0
   -8.0390    9.3060   85.7500 C   0  0  0  0  0  0
   -9.3870    9.5560   86.0550 C   0  0  0  0  0  0
  -10.0020   10.6990   85.5500 C   0  0  0  0  0  0
   -9.2500   11.6660   84.8620 C   0  0  0  0  0  0
   -9.9120   12.9830   84.4560 C   0  0  0  0  0  0
  -11.4520   12.9360   84.3640 C   0  0  1  0  0  0
  -12.1310   14.3570   84.2020 C   0  0  0  0  0  0
  -11.6670   15.2950   85.0310 N   0  0  0  0  0  0
  -12.0010   16.7400   85.0510 C   0  0  2  0  0  0
  -10.9030   17.4980   84.2740 C   0  0  0  0  0  0
   -9.6920   16.8590   84.2340 O   0  5  0  0  0  0
  -13.0200   14.5560   83.3780 O   0  0  0  0  0  0
  -11.8180   11.9730   83.3030 N   0  3  0  0  0  0
  -11.1040   18.5840   83.7370 O   0  0  0  0  0  0
  -12.2700   17.2620   86.4440 C   0  0  2  0  0  0
  -12.4390   16.0820   87.4390 N   0  3  2  0  0  0
  -13.0720   16.3050   88.8170 C   0  0  0  0  0  0
  -14.3010   17.1760   88.6640 C   0  0  1  0  0  0
  -13.8100   18.4680   88.0650 C   0  0  1  0  0  0
  -13.5480   18.1200   86.5420 C   0  0  1  0  0  0
  -11.4140   15.2130   87.4920 O   0  5  0  0  0  0
  -15.2360   16.5570   87.7860 O   0  0  0  0  0  0
  -14.8410   19.4710   88.2010 O   0  0  0  0  0  0
  -12.5480   19.0000   88.8560 C   0  0  0  0  0  0
  -11.3120   18.4170   88.4120 O   0  0  0  0  0  0
  -13.4260   19.3390   85.7830 O   0  0  0  0  0  0
   -7.4420    8.1630   86.1870 O   0  0  0  0  0  0
   -6.2745   10.0066   84.7197 H   0  0  0  0  0  0
   -7.3309   12.1349   83.9928 H   0  0  0  0  0  0
   -9.9469    8.8616   86.6814 H   0  0  0  0  0  0
  -11.0733   10.8442   85.6894 H   0  0  0  0  0  0
   -9.6634   13.7608   85.1931 H   0  0  0  0  0  0
   -9.5457   13.2871   83.4644 H   0  0  0  0  0  0
  -11.8602   12.5195   85.2967 H   0  0  0  0  0  0
  -10.9563   14.8846   85.7634 H   0  0  0  0  0  0
  -12.9722   16.8778   84.5533 H   0  0  0  0  0  0
  -11.3086   11.0153   83.4855 H   0  0  0  0  0  0
  -11.5108   12.3711   82.3247 H   0  0  0  0  0  0
  -12.9068   11.8164   83.3097 H   0  0  0  0  0  0
  -11.3944   17.8894   86.6670 H   0  0  0  0  0  0
  -13.1333   15.4211   86.8994 H   0  0  0  0  0  0
  -13.3579   15.3353   89.2504 H   0  0  0  0  0  0
  -12.3465   16.8023   89.4776 H   0  0  0  0  0  0
  -14.8574   17.3163   89.6025 H   0  0  0  0  0  0
  -14.3842   17.5991   86.0527 H   0  0  0  0  0  0
  -15.7001   15.5991   88.0635 H   0  0  0  0  0  0
  -15.8224   19.3186   87.7281 H   0  0  0  0  0  0
  -12.4662   20.0892   88.7259 H   0  0  0  0  0  0
  -12.6597   18.7657   89.9249 H   0  0  0  0  0  0
  -10.3640   18.7091   88.8875 H   0  0  0  0  0  0
  -13.2409   19.2961   84.6995 H   0  0  0  0  0  0
   -6.3862    7.9678   85.9478 H   0  0  0  0  0  0
  1  2  2  0  0  0
  1  3  1  0  0  0
  1 30  1  0  0  0
  2  6  1  0  0  0
  2 31  1  0  0  0
  3  4  2  0  0  0
  3 29  1  0  0  0
  4  5  1  0  0  0
  4 32  1  0  0  0
  5  6  2  0  0  0
  5 33  1  0  0  0
  6  7  1  0  0  0
  7  8  1  0  0  0
  7 34  1  0  0  0
  7 35  1  0  0  0
  8  9  1  0  0  0
  8 15  1  0  0  0
  8 36  1  0  0  0
  9 10  1  0  0  0
  9 14  2  0  0  0
 10 11  1  0  0  0
 10 37  1  0  0  0
 11 12  1  0  0  0
 11 17  1  0  0  0
 11 38  1  0  0  0
 12 13  1  0  0  0
 12 16  2  0  0  0
 15 39  1  0  0  0
 15 40  1  0  0  0
 15 41  1  0  0  0
 17 18  1  0  0  0
 17 22  1  0  0  0
 17 42  1  0  0  0
 18 19  1  0  0  0
 18 23  1  0  0  0
 18 43  1  0  0  0
 19 20  1  0  0  0
 19 44  1  0  0  0
 19 45  1  0  0  0
 20 21  1  0  0  0
 20 24  1  0  0  0
 20 46  1  0  0  0
 21 22  1  0  0  0
 21 25  1  0  0  0
 21 26  1  0  0  0
 22 28  1  0  0  0
 22 47  1  0  0  0
 24 48  1  0  0  0
 25 49  1  0  0  0
 26 27  1  0  0  0
 26 50  1  0  0  0
 26 51  1  0  0  0
 27 52  1  0  0  0
 28 53  1  0  0  0
 29 54  1  0  0  0
M  CHG  4  13  -1  15   1  18   1  23  -1
M  END
> <s_m_source_file>
../1jij_ligand.sdf

> <i_m_source_file_index>
1

> <s_epik_input>
W09IXWMxW2NIXVtjSF1jKFtjSF1bY0hdMSlbQ0gyXVtDQEhdKFtOSDMrXSlDKD1PKVtOSF1bQ0BIXShDKD1PKVtPSF0pW0NAQEhdKFtDQEBIXTJbT0hdKVtOQEBIK10oW09IXSlbQ0gyXVtDQEhdKFtPSF0pW0NAQF0yKFtPSF0pW0NIMl1bT0hd

> <s_epik_cmdline>
J2VwaWtfYXBwJywgJy1pbWFlJywgJ2xpZ2FuZF9wcm8ubWFlJywgJy1vbWFlJywgJ2xpZ2FuZF9wcmVwLm1hZScsICctbXMnLCAnMScsICctcGgnLCAnNycsICctcGh0JywgJzAuNScsICctbnQn

> <r_lp_tautomer_probability>
1

> <r_epik_Ionization_Penalty>
  0.2228

> <r_epik_Ionization_Penalty_Charging>
  0.2200

> <r_epik_Ionization_Penalty_Neutral>
  0.0027

> <r_epik_State_Penalty>
 -0.0000

> <r_epik_Charging_Adjusted_Penalty>
0.220043761338196

> <i_epik_Tot_Q>
0

> <i_epik_Tot_abs_Q>
4

$$$$
