1jik_ligand
                    3D
 Schrodinger Suite 2020-3.
 67 68  0  0  1  0            999 V2000
   28.6480    8.0510   82.2370 C   0  0  0  0  0  0
   27.3720    7.5900   82.5420 C   0  0  0  0  0  0
   26.7350    8.0810   83.6600 C   0  0  0  0  0  0
   27.2470    9.1890   84.3360 C   0  0  0  0  0  0
   28.4250    9.7960   83.8880 C   0  0  0  0  0  0
   29.1360    9.2300   82.8380 C   0  0  0  0  0  0
   30.4440    9.8760   82.3550 C   0  0  0  0  0  0
   30.5200   11.4120   82.2250 C   0  0  1  0  0  0
   31.9920   11.8960   82.0800 C   0  0  0  0  0  0
   32.8000   11.5510   83.0610 N   0  0  0  0  0  0
   34.1700   12.1250   83.2640 C   0  0  2  0  0  0
   35.1970   11.4330   82.3150 C   0  0  0  0  0  0
   34.9510   10.0780   82.1100 O   0  0  0  0  0  0
   35.8580    9.3140   81.3090 C   0  0  0  0  0  0
   37.3490    9.7350   81.5760 C   0  0  0  0  0  0
   38.3720    8.6160   81.2390 C   0  0  0  0  0  0
   39.1660    8.1520   82.4920 C   0  0  0  0  0  0
   32.3720   12.5200   81.1050 O   0  0  0  0  0  0
   29.6360   11.8760   81.1150 N   0  3  0  0  0  0
   36.1330   12.0620   81.8280 O   0  0  0  0  0  0
   34.6420   12.2770   84.7310 C   0  0  2  0  0  0
   33.4670   12.7200   85.6200 N   0  3  2  0  0  0
   33.7660   13.3850   86.9440 C   0  0  0  0  0  0
   34.8900   14.4120   86.7870 C   0  0  1  0  0  0
   36.1290   13.7140   86.2410 C   0  0  1  0  0  0
   35.8240   13.2950   84.7890 C   0  0  1  0  0  0
   32.4910   11.7960   85.7130 O   0  5  0  0  0  0
   34.5180   15.4250   85.8330 O   0  0  0  0  0  0
   37.1270   14.7170   86.2250 O   0  0  0  0  0  0
   36.6950   12.5440   87.1440 C   0  0  0  0  0  0
   36.7400   11.2750   86.4370 O   0  0  0  0  0  0
   36.9660   12.7130   84.2000 O   0  0  0  0  0  0
   25.6380    7.4810   84.1120 O   0  0  0  0  0  0
   29.2718    7.5006   81.5327 H   0  0  0  0  0  0
   26.8836    6.8516   81.9062 H   0  0  0  0  0  0
   26.7299    9.5810   85.2118 H   0  0  0  0  0  0
   28.7835   10.7100   84.3614 H   0  0  0  0  0  0
   31.2580    9.6186   83.0486 H   0  0  0  0  0  0
   30.6876    9.5030   81.3493 H   0  0  0  0  0  0
   30.1085   11.8845   83.1291 H   0  0  0  0  0  0
   32.4133   10.7915   83.7565 H   0  0  0  0  0  0
   34.0482   13.1770   82.9665 H   0  0  0  0  0  0
   35.7477    8.2459   81.5478 H   0  0  0  0  0  0
   35.6336    9.4768   80.2445 H   0  0  0  0  0  0
   37.5992   10.6100   80.9582 H   0  0  0  0  0  0
   37.4736    9.9890   82.6390 H   0  0  0  0  0  0
   37.8405    7.7448   80.8286 H   0  0  0  0  0  0
   39.0924    8.9893   80.4962 H   0  0  0  0  0  0
   39.8753    7.3618   82.2047 H   0  0  0  0  0  0
   38.4664    7.7606   83.2452 H   0  0  0  0  0  0
   39.7182    9.0052   82.9128 H   0  0  0  0  0  0
   28.6149   11.5008   81.2782 H   0  0  0  0  0  0
   30.0186   11.4934   80.1573 H   0  0  0  0  0  0
   29.6232   12.9757   81.0917 H   0  0  0  0  0  0
   34.9868   11.3062   85.1166 H   0  0  0  0  0  0
   32.9245   13.4847   85.0448 H   0  0  0  0  0  0
   32.8634   13.8966   87.3095 H   0  0  0  0  0  0
   34.0773   12.6239   87.6746 H   0  0  0  0  0  0
   35.0734   14.9200   87.7453 H   0  0  0  0  0  0
   35.6235   14.1887   84.1798 H   0  0  0  0  0  0
   33.6410   16.0618   86.0208 H   0  0  0  0  0  0
   36.9656   15.6445   85.6560 H   0  0  0  0  0  0
   37.7173   12.7912   87.4661 H   0  0  0  0  0  0
   36.0522   12.4192   88.0279 H   0  0  0  0  0  0
   37.1131   10.3744   86.9466 H   0  0  0  0  0  0
   36.9268   12.3548   83.1607 H   0  0  0  0  0  0
   25.2310    6.6072   83.5821 H   0  0  0  0  0  0
  1  2  2  0  0  0
  1  6  1  0  0  0
  1 34  1  0  0  0
  2  3  1  0  0  0
  2 35  1  0  0  0
  3  4  2  0  0  0
  3 33  1  0  0  0
  4  5  1  0  0  0
  4 36  1  0  0  0
  5  6  2  0  0  0
  5 37  1  0  0  0
  6  7  1  0  0  0
  7  8  1  0  0  0
  7 38  1  0  0  0
  7 39  1  0  0  0
  8  9  1  0  0  0
  8 19  1  0  0  0
  8 40  1  0  0  0
  9 10  1  0  0  0
  9 18  2  0  0  0
 10 11  1  0  0  0
 10 41  1  0  0  0
 11 12  1  0  0  0
 11 21  1  0  0  0
 11 42  1  0  0  0
 12 13  1  0  0  0
 12 20  2  0  0  0
 13 14  1  0  0  0
 14 15  1  0  0  0
 14 43  1  0  0  0
 14 44  1  0  0  0
 15 16  1  0  0  0
 15 45  1  0  0  0
 15 46  1  0  0  0
 16 17  1  0  0  0
 16 47  1  0  0  0
 16 48  1  0  0  0
 17 49  1  0  0  0
 17 50  1  0  0  0
 17 51  1  0  0  0
 19 52  1  0  0  0
 19 53  1  0  0  0
 19 54  1  0  0  0
 21 22  1  0  0  0
 21 26  1  0  0  0
 21 55  1  0  0  0
 22 23  1  0  0  0
 22 27  1  0  0  0
 22 56  1  0  0  0
 23 24  1  0  0  0
 23 57  1  0  0  0
 23 58  1  0  0  0
 24 25  1  0  0  0
 24 28  1  0  0  0
 24 59  1  0  0  0
 25 26  1  0  0  0
 25 29  1  0  0  0
 25 30  1  0  0  0
 26 32  1  0  0  0
 26 60  1  0  0  0
 28 61  1  0  0  0
 29 62  1  0  0  0
 30 31  1  0  0  0
 30 63  1  0  0  0
 30 64  1  0  0  0
 31 65  1  0  0  0
 32 66  1  0  0  0
 33 67  1  0  0  0
M  CHG  3  19   1  22   1  27  -1
M  END
> <s_m_source_file>
../1jik_ligand.sdf

> <i_m_source_file_index>
1

> <s_epik_input>
W09IXWMxW2NIXVtjSF1jKFtjSF1bY0hdMSlbQ0gyXVtDQEhdKFtOSDMrXSlDKD1PKVtOSF1bQ0BIXShDKD1PKU9bQ0gyXVtDSDJdW0NIMl1bQ0gzXSlbQ0BASF0oW0NAQEhdMltPSF0pW05AQEgrXShbT0hdKVtDSDJdW0NASF0oW09IXSlbQ0BAXTIoW09IXSlbQ0gyXVtPSF0=

> <s_epik_cmdline>
J2VwaWtfYXBwJywgJy1pbWFlJywgJ2xpZ2FuZF9wcm8ubWFlJywgJy1vbWFlJywgJ2xpZ2FuZF9wcmVwLm1hZScsICctbXMnLCAnMScsICctcGgnLCAnNycsICctcGh0JywgJzAuNScsICctbnQn

> <r_lp_tautomer_probability>
1

> <r_epik_Ionization_Penalty>
  0.3228

> <r_epik_Ionization_Penalty_Charging>
  0.3200

> <r_epik_Ionization_Penalty_Neutral>
  0.0028

> <r_epik_State_Penalty>
 -0.0000

> <r_epik_Charging_Adjusted_Penalty>
0.319956563609776

> <i_epik_Tot_Q>
1

> <i_epik_Tot_abs_Q>
3

> <s_epik_Chemistry_Notes>
This compound has an ester and may undergo hydrolysis at high or low pH.

$$$$
