1jil_ligand
                    3D
 Schrodinger Suite 2020-3.
 51 52  0  0  1  0            999 V2000
   25.3940    7.2340   83.6780 O   0  0  0  0  0  0
   26.5770    7.7550   83.3260 C   0  0  0  0  0  0
   27.2530    8.6040   84.2080 C   0  0  0  0  0  0
   28.5160    9.1540   83.8180 C   0  0  0  0  0  0
   29.0530    8.8310   82.5570 C   0  0  0  0  0  0
   28.3420    7.9560   81.6770 C   0  0  0  0  0  0
   27.1200    7.4330   82.0720 C   0  0  0  0  0  0
   30.3740    9.4080   82.1210 C   0  0  0  0  0  0
   30.3560   10.9040   81.8700 C   0  0  2  0  0  0
   29.2130   11.3250   80.9800 N   0  3  0  0  0  0
   31.7220   11.3520   81.3210 C   0  0  0  0  0  0
   31.8770   11.5220   80.1490 O   0  0  0  0  0  0
   32.7040   11.5320   82.2170 N   0  0  0  0  0  0
   34.1280   11.9840   81.9310 C   0  0  2  0  0  0
   35.0240   10.8290   81.3040 C   0  0  0  0  0  0
   34.4000    9.5790   81.3100 O   0  5  0  0  0  0
   36.1870   11.0400   80.8280 O   0  0  0  0  0  0
   34.7180   12.5970   83.1920 C   0  0  1  0  0  0
   34.0090   13.8940   83.5760 C   0  0  1  0  0  0
   34.6110   14.4620   84.8880 C   0  0  2  0  0  0
   34.5260   13.4490   86.0500 C   0  0  2  0  0  0
   35.2370   12.0900   85.6240 C   0  0  2  0  0  0
   34.5810   11.6560   84.3650 O   0  0  0  0  0  0
   34.1700   14.8400   82.5490 O   0  0  0  0  0  0
   33.8810   15.6110   85.2070 O   0  0  0  0  0  0
   33.1260   13.2250   86.2990 O   0  0  0  0  0  0
   35.1070   10.9150   86.6270 C   0  0  0  0  0  0
   24.8597    6.5658   82.9866 H   0  0  0  0  0  0
   26.8235    8.8441   85.1806 H   0  0  0  0  0  0
   29.0577    9.8176   84.4920 H   0  0  0  0  0  0
   28.7580    7.7019   80.7021 H   0  0  0  0  0  0
   26.5762    6.7660   81.4030 H   0  0  0  0  0  0
   31.1293    9.2237   82.8992 H   0  0  0  0  0  0
   30.6908    8.9304   81.1821 H   0  0  0  0  0  0
   30.1618   11.4094   82.8275 H   0  0  0  0  0  0
   28.2632   10.9816   81.4159 H   0  0  0  0  0  0
   29.3413   10.8789   79.9827 H   0  0  0  0  0  0
   29.2011   12.4215   80.8925 H   0  0  0  0  0  0
   32.3924   11.3162   83.2496 H   0  0  0  0  0  0
   34.0777   12.7904   81.1846 H   0  0  0  0  0  0
   35.7792   12.7869   82.9733 H   0  0  0  0  0  0
   32.9232   13.7339   83.6490 H   0  0  0  0  0  0
   35.6564   14.7807   84.7633 H   0  0  0  0  0  0
   34.9477   13.8469   86.9848 H   0  0  0  0  0  0
   36.3152   12.2701   85.5016 H   0  0  0  0  0  0
   33.8040   14.6191   81.5355 H   0  0  0  0  0  0
   33.8286   16.4455   84.4922 H   0  0  0  0  0  0
   32.4810   14.0619   86.6049 H   0  0  0  0  0  0
   35.5815   11.1922   87.5799 H   0  0  0  0  0  0
   35.6044   10.0246   86.2150 H   0  0  0  0  0  0
   34.0429   10.6946   86.7977 H   0  0  0  0  0  0
  1  2  1  0  0  0
  1 28  1  0  0  0
  2  7  2  0  0  0
  2  3  1  0  0  0
  3  4  2  0  0  0
  3 29  1  0  0  0
  4  5  1  0  0  0
  4 30  1  0  0  0
  5  8  1  0  0  0
  5  6  2  0  0  0
  6  7  1  0  0  0
  6 31  1  0  0  0
  7 32  1  0  0  0
  8  9  1  0  0  0
  8 33  1  0  0  0
  8 34  1  0  0  0
  9 11  1  0  0  0
  9 10  1  0  0  0
  9 35  1  0  0  0
 10 36  1  0  0  0
 10 37  1  0  0  0
 10 38  1  0  0  0
 11 13  1  0  0  0
 11 12  2  0  0  0
 13 14  1  0  0  0
 13 39  1  0  0  0
 14 18  1  0  0  0
 14 15  1  0  0  0
 14 40  1  0  0  0
 15 17  2  0  0  0
 15 16  1  0  0  0
 18 23  1  0  0  0
 18 19  1  0  0  0
 18 41  1  0  0  0
 19 24  1  0  0  0
 19 20  1  0  0  0
 19 42  1  0  0  0
 20 25  1  0  0  0
 20 21  1  0  0  0
 20 43  1  0  0  0
 21 26  1  0  0  0
 21 22  1  0  0  0
 21 44  1  0  0  0
 22 27  1  0  0  0
 22 23  1  0  0  0
 22 45  1  0  0  0
 24 46  1  0  0  0
 25 47  1  0  0  0
 26 48  1  0  0  0
 27 49  1  0  0  0
 27 50  1  0  0  0
 27 51  1  0  0  0
M  CHG  2  10   1  16  -1
M  END
> <s_m_source_file>
../1jil_ligand.sdf

> <i_m_source_file_index>
1

> <s_epik_input>
W09IXWMxW2NIXVtjSF1jKFtjSF1bY0hdMSlbQ0gyXVtDQEhdKFtOSDMrXSlDKD1PKVtOSF1bQ0BIXShDKD1PKVtPSF0pW0NASF0yW0NASF0oW09IXSlbQ0BASF0oW09IXSlbQ0BASF0oW09IXSlbQ0BIXShPMilbQ0gzXQ==

> <s_epik_cmdline>
J2VwaWtfYXBwJywgJy1pbWFlJywgJ2xpZ2FuZF9wcm8ubWFlJywgJy1vbWFlJywgJ2xpZ2FuZF9wcmVwLm1hZScsICctbXMnLCAnMScsICctcGgnLCAnNycsICctcGh0JywgJzAuNScsICctbnQn

> <r_lp_tautomer_probability>
0.999999999997365

> <r_epik_Ionization_Penalty>
  0.1952

> <r_epik_Ionization_Penalty_Charging>
  0.1925

> <r_epik_Ionization_Penalty_Neutral>
  0.0026

> <r_epik_State_Penalty>
  0.1822

> <r_epik_Charging_Adjusted_Penalty>
0.374722801708224

> <i_epik_Tot_Q>
0

> <i_epik_Tot_abs_Q>
2

$$$$
