1jiz_ligand
                    3D
 Schrodinger Suite 2020-3.
 48 49  0  0  1  0            999 V2000
    1.1390    3.5750   70.5240 N   0  0  3  0  0  0
    2.2500    2.9170   71.2670 C   0  0  0  0  0  0
    1.2060    3.6250   69.0140 C   0  0  1  0  0  0
    0.0620    4.5770   71.3470 S   0  0  0  0  0  0
    2.0110    1.5020   71.7820 C   0  0  0  0  0  0
    1.9210    1.1940   73.1620 C   0  0  0  0  0  0
    1.6990   -0.1390   73.5450 C   0  0  0  0  0  0
    1.5730   -1.1230   72.5550 C   0  0  0  0  0  0
    1.6530   -0.8580   71.2370 N   0  0  0  0  0  0
    1.8660    0.4200   70.8800 C   0  0  0  0  0  0
    0.8620    6.0690   71.7570 C   0  0  0  0  0  0
    1.6320    6.1720   72.9650 C   0  0  0  0  0  0
    2.2760    7.3370   73.3350 C   0  0  0  0  0  0
    2.2090    8.5000   72.5330 C   0  0  0  0  0  0
    1.4560    8.4280   71.3300 C   0  0  0  0  0  0
    0.8050    7.2680   70.9470 C   0  0  0  0  0  0
    2.8540    9.6460   72.9220 O   0  0  0  0  0  0
    3.4760    9.7840   74.1960 C   0  0  0  0  0  0
   -1.0320    4.8810   70.4510 O   0  0  0  0  0  0
   -0.3160    3.9390   72.5850 O   0  0  0  0  0  0
    2.4520    4.5110   68.6630 C   0  0  0  0  0  0
    2.1430    5.7570   68.0800 N   0  0  0  0  0  0
    1.2080    2.3550   68.1010 C   0  0  0  0  0  0
    1.4000    2.6090   66.5930 C   0  0  0  0  0  0
   -0.0870    1.5300   68.2950 C   0  0  0  0  0  0
    3.6360    4.2210   68.8460 O   0  0  0  0  0  0
    3.0960    6.5910   67.7420 O   0  0  0  0  0  0
    3.1338    2.8442   70.6161 H   0  0  0  0  0  0
    2.4987    3.5126   72.1578 H   0  0  0  0  0  0
    0.1927    3.9974   68.8029 H   0  0  0  0  0  0
    2.0222    1.9775   73.9130 H   0  0  0  0  0  0
    1.6256   -0.4050   74.5995 H   0  0  0  0  0  0
    1.4019   -2.1533   72.8671 H   0  0  0  0  0  0
    1.9322    0.6406   69.8146 H   0  0  0  0  0  0
    1.7112    5.2994   73.6134 H   0  0  0  0  0  0
    2.8469    7.3602   74.2632 H   0  0  0  0  0  0
    1.3893    9.3093   70.6921 H   0  0  0  0  0  0
    0.2377    7.2568   70.0163 H   0  0  0  0  0  0
    3.9251   10.7848   74.2783 H   0  0  0  0  0  0
    4.2599    9.0202   74.3060 H   0  0  0  0  0  0
    2.7233    9.6536   74.9875 H   0  0  0  0  0  0
    2.0968    1.7928   68.4235 H   0  0  0  0  0  0
    2.3171    3.1952   66.4338 H   0  0  0  0  0  0
    0.5360    3.1664   66.2022 H   0  0  0  0  0  0
    1.4839    1.6466   66.0669 H   0  0  0  0  0  0
   -0.2422    1.3378   69.3669 H   0  0  0  0  0  0
    0.0044    0.5730   67.7603 H   0  0  0  0  0  0
   -0.9436    2.0928   67.8956 H   0  0  0  0  0  0
  1  2  1  0  0  0
  1  3  1  0  0  0
  1  4  1  0  0  0
  2  5  1  0  0  0
  2 28  1  0  0  0
  2 29  1  0  0  0
  3 21  1  0  0  0
  3 23  1  0  0  0
  3 30  1  0  0  0
  4 11  1  0  0  0
  4 19  2  0  0  0
  4 20  2  0  0  0
  5  6  2  0  0  0
  5 10  1  0  0  0
  6  7  1  0  0  0
  6 31  1  0  0  0
  7  8  2  0  0  0
  7 32  1  0  0  0
  8  9  1  0  0  0
  8 33  1  0  0  0
  9 10  2  0  0  0
 10 34  1  0  0  0
 11 12  2  0  0  0
 11 16  1  0  0  0
 12 13  1  0  0  0
 12 35  1  0  0  0
 13 14  2  0  0  0
 13 36  1  0  0  0
 14 15  1  0  0  0
 14 17  1  0  0  0
 15 16  2  0  0  0
 15 37  1  0  0  0
 16 38  1  0  0  0
 17 18  1  0  0  0
 18 39  1  0  0  0
 18 40  1  0  0  0
 18 41  1  0  0  0
 21 22  1  0  0  0
 21 26  2  0  0  0
 22 27  2  0  0  0
 23 24  1  0  0  0
 23 25  1  0  0  0
 23 42  1  0  0  0
 24 43  1  0  0  0
 24 44  1  0  0  0
 24 45  1  0  0  0
 25 46  1  0  0  0
 25 47  1  0  0  0
 25 48  1  0  0  0
M  END
> <s_m_source_file>
../1jiz_ligand.sdf

> <i_m_source_file_index>
1

> <s_epik_input>
W2NIXTFbY0hdYyhPW0NIM10pW2NIXVtjSF1jMVMoPU8pKD1PKU4oW0NAQEhdKEMoPU8pTj1PKVtDSF0oW0NIM10pW0NIM10pW0NIMl1jMltjSF1bY0hdW2NIXW5bY0hdMg==

> <s_epik_cmdline>
J2VwaWtfYXBwJywgJy1pbWFlJywgJ2xpZ2FuZF9wcm8ubWFlJywgJy1vbWFlJywgJ2xpZ2FuZF9wcmVwLm1hZScsICctbXMnLCAnMScsICctcGgnLCAnNycsICctcGh0JywgJzAuNScsICctbnQn

> <r_lp_tautomer_probability>
1

> <r_epik_Ionization_Penalty>
  0.0052

> <r_epik_Ionization_Penalty_Charging>
  0.0000

> <r_epik_Ionization_Penalty_Neutral>
  0.0052

> <r_epik_State_Penalty>
 -0.0000

> <r_epik_Charging_Adjusted_Penalty>
0

> <i_epik_Tot_Q>
0

> <i_epik_Tot_abs_Q>
0

$$$$
