1jj9_ligand
                    3D
 Schrodinger Suite 2020-3.
 44 46  0  0  1  0            999 V2000
   24.3150   27.4830   27.0610 N   0  0  0  0  0  0
   23.5950   26.3530   26.9590 C   0  0  0  0  0  0
   23.0520   26.1850   25.7910 O   0  5  0  0  0  0
   23.4720   25.4320   27.9060 N   0  0  0  0  0  0
   24.0080   25.6210   29.1200 C   0  0  0  0  0  0
   23.8690   24.8070   30.0470 O   0  0  0  0  0  0
   24.6160   27.0710   29.4160 C   0  0  2  0  0  0
   24.9740   27.8020   28.1750 C   0  0  0  0  0  0
   25.6600   28.8100   28.2810 O   0  0  0  0  0  0
   25.6280   27.0340   30.4080 N   0  0  1  0  0  0
   25.1780   26.9620   31.8130 C   0  0  0  0  0  0
   26.1970   27.4360   32.7840 C   0  0  0  0  0  0
   27.5310   26.7630   32.4850 C   0  0  1  0  0  0
   27.9500   27.0120   31.0300 C   0  0  0  0  0  0
   26.9280   26.4510   29.9840 C   0  0  0  0  0  0
   28.6030   27.2320   33.4750 C   0  0  0  0  0  0
   29.6880   26.1820   33.7180 C   0  0  0  0  0  0
   30.4180   26.8140   34.7620 O   0  0  0  0  0  0
   23.3870   27.9430   29.9950 C   0  0  0  0  0  0
   22.1090   27.4260   30.1310 C   0  0  0  0  0  0
   23.5610   29.2890   30.3400 C   0  0  0  0  0  0
   21.0090   28.2170   30.6090 C   0  0  0  0  0  0
   22.4990   30.1040   30.8190 C   0  0  0  0  0  0
   21.2050   29.5700   30.9530 C   0  0  0  0  0  0
   22.9251   24.5002   27.6993 H   0  0  0  0  0  0
   24.2819   27.5865   31.9435 H   0  0  0  0  0  0
   24.9385   25.9192   32.0683 H   0  0  0  0  0  0
   26.3076   28.5269   32.6962 H   0  0  0  0  0  0
   25.8771   27.1809   33.8051 H   0  0  0  0  0  0
   27.4085   25.6775   32.6145 H   0  0  0  0  0  0
   28.0416   28.0941   30.8549 H   0  0  0  0  0  0
   28.9184   26.5264   30.8390 H   0  0  0  0  0  0
   26.8643   25.3532   30.0127 H   0  0  0  0  0  0
   27.1599   26.7781   28.9597 H   0  0  0  0  0  0
   29.0929   28.1359   33.0840 H   0  0  0  0  0  0
   28.1335   27.4592   34.4435 H   0  0  0  0  0  0
   29.2191   25.2318   34.0135 H   0  0  0  0  0  0
   30.2677   26.0334   32.7950 H   0  0  0  0  0  0
   31.2996   26.3185   35.1947 H   0  0  0  0  0  0
   21.9319   26.3836   29.8663 H   0  0  0  0  0  0
   24.5523   29.7304   30.2370 H   0  0  0  0  0  0
   20.0198   27.7696   30.7060 H   0  0  0  0  0  0
   22.6882   31.1445   31.0828 H   0  0  0  0  0  0
   20.3787   30.1836   31.3119 H   0  0  0  0  0  0
  1  8  1  0  0  0
  1  2  2  0  0  0
  2  4  1  0  0  0
  2  3  1  0  0  0
  4  5  1  0  0  0
  4 25  1  0  0  0
  5  7  1  0  0  0
  5  6  2  0  0  0
  7 19  1  0  0  0
  7 10  1  0  0  0
  7  8  1  0  0  0
  8  9  2  0  0  0
 10 15  1  0  0  0
 10 11  1  0  0  0
 11 12  1  0  0  0
 11 26  1  0  0  0
 11 27  1  0  0  0
 12 13  1  0  0  0
 12 28  1  0  0  0
 12 29  1  0  0  0
 13 16  1  0  0  0
 13 14  1  0  0  0
 13 30  1  0  0  0
 14 15  1  0  0  0
 14 31  1  0  0  0
 14 32  1  0  0  0
 15 33  1  0  0  0
 15 34  1  0  0  0
 16 17  1  0  0  0
 16 35  1  0  0  0
 16 36  1  0  0  0
 17 18  1  0  0  0
 17 37  1  0  0  0
 17 38  1  0  0  0
 18 39  1  0  0  0
 19 21  2  0  0  0
 19 20  1  0  0  0
 20 22  2  0  0  0
 20 40  1  0  0  0
 21 23  1  0  0  0
 21 41  1  0  0  0
 22 24  1  0  0  0
 22 42  1  0  0  0
 23 24  2  0  0  0
 23 43  1  0  0  0
 24 44  1  0  0  0
M  CHG  1   3  -1
M  END
> <s_m_source_file>
../1jj9_ligand.sdf

> <i_m_source_file_index>
1

> <s_epik_input>
Tz1DMVtOSF1DKD1PKVtOSF1DKD1PKUMxKGMyW2NIXVtjSF1bY0hdW2NIXVtjSF0yKVtOQEgrXTNbQ0gyXVtDSDJdW0NAQEhdKFtDSDJdW0NIMl0zKVtDSDJdW0NIMl1bT0hd

> <s_epik_cmdline>
J2VwaWtfYXBwJywgJy1pbWFlJywgJ2xpZ2FuZF9wcm8ubWFlJywgJy1vbWFlJywgJ2xpZ2FuZF9wcmVwLm1hZScsICctbXMnLCAnMScsICctcGgnLCAnNycsICctcGh0JywgJzAuNScsICctbnQn

> <r_epik_Ionization_Penalty>
  0.2080

> <r_epik_Ionization_Penalty_Charging>
  0.1814

> <r_epik_Ionization_Penalty_Neutral>
  0.0266

> <r_epik_State_Penalty>
  0.1872

> <r_epik_Charging_Adjusted_Penalty>
0.368618194089787

> <i_epik_Tot_Q>
-1

> <i_epik_Tot_abs_Q>
1

$$$$
