1jje_ligand
                    3D
 Schrodinger Suite 2020-3.
 41 43  0  0  1  0            999 V2000
   57.4160   25.1030   33.0280 C   0  0  1  0  0  0
   57.9150   26.3470   32.3210 C   0  0  0  0  0  0
   57.0850   27.1160   31.7890 O   0  5  0  0  0  0
   59.1230   26.6600   32.2440 O   0  0  0  0  0  0
   58.1130   23.8370   32.4910 C   0  0  0  0  0  0
   58.0040   23.7750   30.9750 C   0  0  0  0  0  0
   59.0930   24.1020   30.1700 C   0  0  0  0  0  0
   59.0050   24.0770   28.7710 C   0  0  0  0  0  0
   57.8070   23.6650   28.1580 C   0  0  0  0  0  0
   56.7110   23.3550   28.9530 C   0  0  0  0  0  0
   56.8170   23.3670   30.3540 C   0  0  0  0  0  0
   57.6370   25.1710   34.5470 C   0  0  1  0  0  0
   57.5140   26.5790   35.0580 C   0  0  0  0  0  0
   56.6730   27.3870   34.6000 O   0  0  0  0  0  0
   58.2960   26.9840   35.9560 O   0  5  0  0  0  0
   56.6260   24.2210   35.2430 C   0  0  0  0  0  0
   57.0770   24.1100   36.6850 C   0  0  0  0  0  0
   56.4830   24.8980   37.7000 C   0  0  0  0  0  0
   56.9680   24.6860   38.9890 C   0  0  0  0  0  0
   56.6450   25.3320   40.1140 O   0  0  0  0  0  0
   57.4370   24.7990   41.1870 C   0  0  0  0  0  0
   58.2800   23.8030   40.5730 O   0  0  0  0  0  0
   57.9960   23.7970   39.2640 C   0  0  0  0  0  0
   58.6040   23.0440   38.2630 C   0  0  0  0  0  0
   58.0950   23.2020   36.9550 C   0  0  0  0  0  0
   56.3367   25.0680   32.8185 H   0  0  0  0  0  0
   59.1759   23.8559   32.7735 H   0  0  0  0  0  0
   57.6350   22.9447   32.9215 H   0  0  0  0  0  0
   60.0357   24.3839   30.6389 H   0  0  0  0  0  0
   59.8587   24.3747   28.1622 H   0  0  0  0  0  0
   57.7400   23.5901   27.0726 H   0  0  0  0  0  0
   55.7598   23.1001   28.4857 H   0  0  0  0  0  0
   55.9680   23.0561   30.9628 H   0  0  0  0  0  0
   58.6691   24.8739   34.7847 H   0  0  0  0  0  0
   55.6148   24.6488   35.1758 H   0  0  0  0  0  0
   56.6427   23.2399   34.7459 H   0  0  0  0  0  0
   55.6976   25.6232   37.4871 H   0  0  0  0  0  0
   58.0294   25.6067   41.6417 H   0  0  0  0  0  0
   56.7754   24.3572   41.9467 H   0  0  0  0  0  0
   59.4308   22.3670   38.4779 H   0  0  0  0  0  0
   58.5071   22.6021   36.1436 H   0  0  0  0  0  0
  1 12  1  0  0  0
  1  5  1  0  0  0
  1  2  1  0  0  0
  1 26  1  0  0  0
  2  4  2  0  0  0
  2  3  1  0  0  0
  5  6  1  0  0  0
  5 27  1  0  0  0
  5 28  1  0  0  0
  6 11  2  0  0  0
  6  7  1  0  0  0
  7  8  2  0  0  0
  7 29  1  0  0  0
  8  9  1  0  0  0
  8 30  1  0  0  0
  9 10  2  0  0  0
  9 31  1  0  0  0
 10 11  1  0  0  0
 10 32  1  0  0  0
 11 33  1  0  0  0
 12 16  1  0  0  0
 12 13  1  0  0  0
 12 34  1  0  0  0
 13 15  1  0  0  0
 13 14  2  0  0  0
 16 17  1  0  0  0
 16 35  1  0  0  0
 16 36  1  0  0  0
 17 25  2  0  0  0
 17 18  1  0  0  0
 18 19  2  0  0  0
 18 37  1  0  0  0
 19 23  1  0  0  0
 19 20  1  0  0  0
 20 21  1  0  0  0
 21 22  1  0  0  0
 21 38  1  0  0  0
 21 39  1  0  0  0
 22 23  1  0  0  0
 23 24  2  0  0  0
 24 25  1  0  0  0
 24 40  1  0  0  0
 25 41  1  0  0  0
M  CHG  2   3  -1  15  -1
M  END
> <s_m_source_file>
../1jje_ligand.sdf

> <i_m_source_file_index>
1

> <s_epik_input>
W2NIXTFbY0hdW2NIXVtjSF1bY0hdYzFbQ0gyXVtDQEhdKEMoPU8pW09IXSlbQ0BASF0oQyg9TylbT0hdKVtDSDJdYyhbY0hdMilbY0hdW2NIXWMoYzIzKU9bQ0gyXU8z

> <s_epik_cmdline>
J2VwaWtfYXBwJywgJy1pbWFlJywgJ2xpZ2FuZF9wcm8ubWFlJywgJy1vbWFlJywgJ2xpZ2FuZF9wcmVwLm1hZScsICctbXMnLCAnMScsICctcGgnLCAnNycsICctcGh0JywgJzAuNScsICctbnQn

> <r_lp_tautomer_probability>
1

> <r_epik_Ionization_Penalty>
  0.0054

> <r_epik_Ionization_Penalty_Charging>
  0.0054

> <r_epik_Ionization_Penalty_Neutral>
  0.0000

> <r_epik_State_Penalty>
 -0.0000

> <r_epik_Charging_Adjusted_Penalty>
0.00537956897244792

> <i_epik_Tot_Q>
-2

> <i_epik_Tot_abs_Q>
2

> <s_epik_Chemistry_Notes>
This compound contains an acetal/aminal-like group ( X-CH(R)-Y where X, Y are N, S, or O) that may be acid/base labile, releasing an aldehyde.

$$$$
