1jjk_ligand
                    3D
 Schrodinger Suite 2020-3.
 32 33  0  0  1  0            999 V2000
  -19.2480    1.8330   10.2510 P   0  0  0  0  0  0
  -18.4460   -0.7470   16.0780 N   0  0  0  0  0  0
  -18.4340   -1.6770   15.0330 C   0  0  0  0  0  0
  -18.2530   -1.3150   13.7640 O   0  0  0  0  0  0
  -18.6180   -3.0180   15.3720 N   0  0  0  0  0  0
  -18.8060   -3.4120   16.6750 C   0  0  0  0  0  0
  -18.9660   -4.6150   16.9330 O   0  5  0  0  0  0
  -18.8120   -2.4190   17.6980 C   0  0  0  0  0  0
  -18.6240   -1.1170   17.3050 C   0  0  0  0  0  0
  -18.6280   -0.1700   18.2910 O   0  0  0  0  0  0
  -18.6140    0.6440    9.4900 O   0  5  0  0  0  0
  -20.7560    1.8640   10.2340 O   0  0  0  0  0  0
  -18.6880    3.1380    9.6960 O   0  5  0  0  0  0
  -18.7390    1.6240   11.7610 O   0  0  0  0  0  0
  -19.1830    2.5800   12.7480 C   0  0  0  0  0  0
  -18.6750    2.4480   14.1340 C   0  0  1  0  0  0
  -19.3020    1.2530   14.8980 O   0  0  0  0  0  0
  -17.2000    2.4860   14.4840 C   0  0  1  0  0  0
  -16.9730    3.5060   15.5290 O   0  0  0  0  0  0
  -16.9110    1.0890   15.0990 C   0  0  1  0  0  0
  -15.8450    0.9780   15.9490 O   0  0  0  0  0  0
  -18.2380    0.7480   15.7490 C   0  0  2  0  0  0
  -18.9593   -2.6818   18.7455 H   0  0  0  0  0  0
  -18.8897    3.5930   12.4352 H   0  0  0  0  0  0
  -20.2777    2.5279   12.8425 H   0  0  0  0  0  0
  -19.0108    3.4604   14.4027 H   0  0  0  0  0  0
  -16.5705    2.7584   13.6241 H   0  0  0  0  0  0
  -17.1231    4.5713   15.2996 H   0  0  0  0  0  0
  -16.4809    0.3500   14.4069 H   0  0  0  0  0  0
  -14.8294    1.2003   15.5895 H   0  0  0  0  0  0
  -18.2831    1.2804   16.7105 H   0  0  0  0  0  0
  -18.6148   -3.7891   14.5875 H   0  0  0  0  0  0
  1 11  1  0  0  0
  1 12  2  0  0  0
  1 13  1  0  0  0
  1 14  1  0  0  0
  2  3  1  0  0  0
  2  9  1  0  0  0
  2 22  1  0  0  0
  3  4  2  0  0  0
  3  5  1  0  0  0
  5  6  1  0  0  0
  5 32  1  0  0  0
  6  7  1  0  0  0
  6  8  2  0  0  0
  8  9  1  0  0  0
  8 23  1  0  0  0
  9 10  2  0  0  0
 14 15  1  0  0  0
 15 16  1  0  0  0
 15 24  1  0  0  0
 15 25  1  0  0  0
 16 17  1  0  0  0
 16 18  1  0  0  0
 16 26  1  0  0  0
 17 22  1  0  0  0
 18 19  1  0  0  0
 18 20  1  0  0  0
 18 27  1  0  0  0
 19 28  1  0  0  0
 20 21  1  0  0  0
 20 22  1  0  0  0
 20 29  1  0  0  0
 21 30  1  0  0  0
 22 31  1  0  0  0
M  CHG  3   7  -1  11  -1  13  -1
M  END
> <s_m_source_file>
../1jjk_ligand.sdf

> <i_m_source_file_index>
1

> <s_epik_input>
W09IXVAoPU8pKFtPSF0pT1tDSDJdW0NASF0xT1tDQEhdKFtDQEhdKFtPSF0pW0NAQEhdMVtPSF0pbjJjKFtPSF0pbmMoPU8pW2NIXWMyW09IXQ==

> <s_epik_cmdline>
J2VwaWtfYXBwJywgJy1pbWFlJywgJ2xpZ2FuZF9wcm8ubWFlJywgJy1vbWFlJywgJ2xpZ2FuZF9wcmVwLm1hZScsICctbXMnLCAnMScsICctcGgnLCAnNycsICctcGh0JywgJzAuNScsICctbnQn

> <r_lp_tautomer_probability>
0.9999999990364

> <r_epik_Ionization_Penalty>
  0.1062

> <r_epik_Ionization_Penalty_Charging>
  0.1057

> <r_epik_Ionization_Penalty_Neutral>
  0.0005

> <r_epik_State_Penalty>
  0.0955

> <r_epik_Charging_Adjusted_Penalty>
0.201178237609322

> <i_epik_Tot_Q>
-3

> <i_epik_Tot_abs_Q>
3

> <s_epik_Chemistry_Notes>
This compound contains an acetal/aminal-like group ( X-CH(R)-Y where X, Y are N, S, or O) that may be acid/base labile, releasing an aldehyde.

$$$$
