1jjt_ligand
                    3D
 Schrodinger Suite 2020-3.
 44 47  0  0  1  0            999 V2000
   58.1260   24.9420   33.0130 C   0  0  1  0  0  0
   58.6070   26.1610   32.2540 C   0  0  0  0  0  0
   57.8030   26.9000   31.6360 O   0  0  0  0  0  0
   59.8480   26.3790   32.2340 O   0  5  0  0  0  0
   58.9370   23.7310   32.4450 C   0  0  0  0  0  0
   58.1780   23.0330   31.3310 C   0  0  0  0  0  0
   57.2590   22.0130   31.6750 C   0  0  0  0  0  0
   56.4800   21.3720   30.7130 C   0  0  0  0  0  0
   56.7650   21.6650   29.3740 C   0  0  0  0  0  0
   56.1730   21.1630   28.2860 O   0  0  0  0  0  0
   56.7150   21.8570   27.1600 C   0  0  0  0  0  0
   57.6100   22.8450   27.6980 O   0  0  0  0  0  0
   57.6250   22.7000   29.0310 C   0  0  0  0  0  0
   58.3630   23.4020   29.9850 C   0  0  0  0  0  0
   58.4540   25.0100   34.5340 C   0  0  1  0  0  0
   58.4420   26.4470   35.0360 C   0  0  0  0  0  0
   57.5670   27.2450   34.6300 O   0  0  0  0  0  0
   59.3060   26.8330   35.8760 O   0  5  0  0  0  0
   57.3350   24.1930   35.2490 C   0  0  0  0  0  0
   57.6160   24.0690   36.7340 C   0  0  0  0  0  0
   58.3830   22.9910   37.2010 C   0  0  0  0  0  0
   58.6700   22.8470   38.5690 C   0  0  0  0  0  0
   58.1480   23.7790   39.4550 C   0  0  0  0  0  0
   58.3240   23.8810   40.7770 O   0  0  0  0  0  0
   57.6010   25.0360   41.2320 C   0  0  0  0  0  0
   57.0740   25.6420   40.0380 O   0  0  0  0  0  0
   57.3590   24.8350   39.0030 C   0  0  0  0  0  0
   57.0780   24.9940   37.6570 C   0  0  0  0  0  0
   57.0350   24.8908   32.8823 H   0  0  0  0  0  0
   59.8969   24.0884   32.0439 H   0  0  0  0  0  0
   59.1235   23.0047   33.2498 H   0  0  0  0  0  0
   57.1577   21.7209   32.7202 H   0  0  0  0  0  0
   55.6876   20.6766   30.9898 H   0  0  0  0  0  0
   57.2499   21.1456   26.5136 H   0  0  0  0  0  0
   55.8990   22.3270   26.5914 H   0  0  0  0  0  0
   59.0506   24.1988   29.7013 H   0  0  0  0  0  0
   59.4638   24.6279   34.7444 H   0  0  0  0  0  0
   56.3681   24.6999   35.1144 H   0  0  0  0  0  0
   57.2834   23.1837   34.8146 H   0  0  0  0  0  0
   58.7618   22.2545   36.4923 H   0  0  0  0  0  0
   59.2879   22.0230   38.9258 H   0  0  0  0  0  0
   56.7983   24.7206   41.9147 H   0  0  0  0  0  0
   58.2874   25.7133   41.7613 H   0  0  0  0  0  0
   56.4525   25.8185   37.3149 H   0  0  0  0  0  0
  1 15  1  0  0  0
  1  5  1  0  0  0
  1  2  1  0  0  0
  1 29  1  0  0  0
  2  4  1  0  0  0
  2  3  2  0  0  0
  5  6  1  0  0  0
  5 30  1  0  0  0
  5 31  1  0  0  0
  6 14  2  0  0  0
  6  7  1  0  0  0
  7  8  2  0  0  0
  7 32  1  0  0  0
  8  9  1  0  0  0
  8 33  1  0  0  0
  9 13  2  0  0  0
  9 10  1  0  0  0
 10 11  1  0  0  0
 11 12  1  0  0  0
 11 34  1  0  0  0
 11 35  1  0  0  0
 12 13  1  0  0  0
 13 14  1  0  0  0
 14 36  1  0  0  0
 15 19  1  0  0  0
 15 16  1  0  0  0
 15 37  1  0  0  0
 16 18  1  0  0  0
 16 17  2  0  0  0
 19 20  1  0  0  0
 19 38  1  0  0  0
 19 39  1  0  0  0
 20 28  2  0  0  0
 20 21  1  0  0  0
 21 22  2  0  0  0
 21 40  1  0  0  0
 22 23  1  0  0  0
 22 41  1  0  0  0
 23 27  2  0  0  0
 23 24  1  0  0  0
 24 25  1  0  0  0
 25 26  1  0  0  0
 25 42  1  0  0  0
 25 43  1  0  0  0
 26 27  1  0  0  0
 27 28  1  0  0  0
 28 44  1  0  0  0
M  CHG  2   4  -1  18  -1
M  END
> <s_m_source_file>
../1jjt_ligand.sdf

> <i_m_source_file_index>
1

> <s_epik_input>
TzFbQ0gyXU9jKGMxMilbY0hdYyhbY0hdW2NIXTIpW0NIMl1bQ0BIXShDKD1PKVtPSF0pW0NAQEhdKEMoPU8pW09IXSlbQ0gyXWMoW2NIXVtjSF0zKVtjSF1jKGMzNClPW0NIMl1PNA==

> <s_epik_cmdline>
J2VwaWtfYXBwJywgJy1pbWFlJywgJ2xpZ2FuZF9wcm8ubWFlJywgJy1vbWFlJywgJ2xpZ2FuZF9wcmVwLm1hZScsICctbXMnLCAnMScsICctcGgnLCAnNycsICctcGh0JywgJzAuNScsICctbnQn

> <r_lp_tautomer_probability>
1

> <r_epik_Ionization_Penalty>
  0.0058

> <r_epik_Ionization_Penalty_Charging>
  0.0058

> <r_epik_Ionization_Penalty_Neutral>
  0.0000

> <r_epik_State_Penalty>
 -0.0000

> <r_epik_Charging_Adjusted_Penalty>
0.00581437175352752

> <i_epik_Tot_Q>
-2

> <i_epik_Tot_abs_Q>
2

> <s_epik_Chemistry_Notes>
This compound contains an acetal/aminal-like group ( X-CH(R)-Y where X, Y are N, S, or O) that may be acid/base labile, releasing an aldehyde.

$$$$
