1jk7_ligand
                    3D
 Schrodinger Suite 2020-3.
124130  0  0  1  0            999 V2000
   84.7320   52.5870   22.0760 C   0  0  0  0  0  0
   84.5130   51.9650   23.4460 C   0  0  2  0  0  0
   85.8020   51.8750   24.2370 C   0  0  0  0  0  0
   86.4660   53.2300   24.6430 C   0  0  2  0  0  0
   87.7070   53.1020   25.3890 C   0  0  0  0  0  0
   88.2490   54.4690   25.7830 C   0  0  0  0  0  0
   87.1240   55.1760   26.6000 C   0  0  2  0  0  0
   85.8480   55.3270   25.8470 C   0  0  2  0  0  0
   84.7100   55.9060   26.5380 C   0  0  0  0  0  0
   83.9760   56.9360   26.0960 C   0  0  0  0  0  0
   84.2890   57.5720   24.7500 C   0  0  0  0  0  0
   85.1530   56.6200   23.8730 C   0  0  1  0  0  0
   85.7790   57.3160   22.6710 C   0  0  1  0  0  0
   86.6190   56.3490   21.9220 C   0  0  0  0  0  0
   87.8380   56.4730   21.6450 C   0  0  0  0  0  0
   88.7790   55.5180   20.9260 C   0  0  1  0  0  0
   89.7590   56.0190   19.8730 C   0  0  0  0  0  0
   91.0150   55.1000   19.9920 C   0  0  0  0  0  0
   90.6000   54.1200   21.1830 C   0  0  1  0  0  0
   91.7550   53.7910   22.0410 C   0  0  0  0  0  0
   91.2910   52.8040   23.1970 C   0  0  0  0  0  0
   90.6520   51.5760   22.5060 C   0  0  2  0  0  0
   89.5400   52.0470   21.6190 C   0  0  2  0  0  0
   88.9160   50.7760   20.9570 C   0  0  1  0  0  0
   88.4170   49.7690   22.0900 C   0  0  0  0  0  0
   89.5190   49.4740   23.0350 C   0  0  1  0  0  0
   90.6590   48.4960   22.6060 C   0  0  2  0  0  0
   90.0630   47.1120   22.2130 C   0  0  0  0  0  0
   91.1050   46.0580   21.7310 C   0  0  1  0  0  0
   90.3560   44.7100   21.4850 C   0  0  2  0  0  0
   89.6430   44.1410   22.7260 C   0  0  1  0  0  0
   89.0400   42.7970   22.3110 C   0  0  0  0  0  0
   90.1090   41.8280   21.7220 C   0  0  0  0  0  0
   90.9130   42.4630   20.6410 C   0  0  2  0  0  0
   92.1630   41.7070   20.2210 C   0  0  0  0  0  0
   92.7310   42.2150   18.8650 C   0  0  0  0  0  0
   91.7240   42.3660   17.7510 C   0  0  0  0  0  0
   90.4870   43.1060   18.2570 C   0  0  0  0  0  0
   90.5510   43.9420   23.9750 C   0  0  0  0  0  0
   91.7570   46.5190   20.4420 C   0  0  0  0  0  0
   87.2320   49.3660   22.1030 C   0  0  0  0  0  0
   84.7660   57.9430   21.7610 C   0  0  0  0  0  0
   82.8040   57.5150   26.8540 C   0  0  0  0  0  0
   83.9360   50.5520   23.1170 C   0  0  0  0  0  0
   83.9670   53.6800   21.8290 O   0  5  0  0  0  0
   85.5070   52.2140   21.2070 O   0  0  0  0  0  0
   83.4800   52.6130   24.1090 O   0  0  0  0  0  0
   85.4130   53.9720   25.3830 O   0  0  0  0  0  0
   87.5860   56.4910   27.0330 O   0  0  0  0  0  0
   86.1770   56.0460   24.6410 O   0  0  0  0  0  0
   89.5730   54.8660   21.8870 O   0  0  0  0  0  0
   89.9890   52.9340   20.5950 O   0  0  0  0  0  0
   90.1980   50.7020   23.5310 O   0  0  0  0  0  0
   87.8760   51.1260   20.0650 O   0  0  0  0  0  0
   91.5940   48.3140   23.5810 O   0  0  0  0  0  0
   91.3600   43.7670   20.9990 O   0  0  0  0  0  0
   89.9870   42.5370   19.5200 O   0  0  0  0  0  0
   85.6177   51.3364   25.1782 H   0  0  0  0  0  0
   86.5572   51.3348   23.6472 H   0  0  0  0  0  0
   86.8417   53.8149   23.7905 H   0  0  0  0  0  0
   87.5268   52.5168   26.3028 H   0  0  0  0  0  0
   88.4571   52.5904   24.7680 H   0  0  0  0  0  0
   89.1557   54.3421   26.3927 H   0  0  0  0  0  0
   88.4940   55.0416   24.8763 H   0  0  0  0  0  0
   86.8800   54.5805   27.4921 H   0  0  0  0  0  0
   84.4661   55.4290   27.4987 H   0  0  0  0  0  0
   83.3500   57.7869   24.2188 H   0  0  0  0  0  0
   84.8440   58.5086   24.9072 H   0  0  0  0  0  0
   84.5366   55.7778   23.5256 H   0  0  0  0  0  0
   86.4132   58.1383   23.0337 H   0  0  0  0  0  0
   86.0704   55.4515   21.6003 H   0  0  0  0  0  0
   88.3778   57.3865   21.9351 H   0  0  0  0  0  0
   88.0830   54.8463   20.4021 H   0  0  0  0  0  0
   89.2990   55.9400   18.8769 H   0  0  0  0  0  0
   90.0118   57.0698   20.0778 H   0  0  0  0  0  0
   91.1767   54.5749   19.0390 H   0  0  0  0  0  0
   91.8973   55.7135   20.2269 H   0  0  0  0  0  0
   92.5351   53.3062   21.4357 H   0  0  0  0  0  0
   92.1563   54.7137   22.4854 H   0  0  0  0  0  0
   92.1638   52.5050   23.7961 H   0  0  0  0  0  0
   90.5603   53.3132   23.8426 H   0  0  0  0  0  0
   91.3353   50.9679   21.8950 H   0  0  0  0  0  0
   88.8525   52.6744   22.2053 H   0  0  0  0  0  0
   89.6225   50.3019   20.2598 H   0  0  0  0  0  0
   88.8919   48.9974   23.8029 H   0  0  0  0  0  0
   91.2806   48.9523   21.8215 H   0  0  0  0  0  0
   89.5506   46.6734   23.0819 H   0  0  0  0  0  0
   89.3440   47.2425   21.3908 H   0  0  0  0  0  0
   91.9081   45.9403   22.4734 H   0  0  0  0  0  0
   89.5685   44.8342   20.7271 H   0  0  0  0  0  0
   88.8794   44.8716   23.0313 H   0  0  0  0  0  0
   88.5862   42.3123   23.1880 H   0  0  0  0  0  0
   88.2693   42.9622   21.5437 H   0  0  0  0  0  0
   90.7984   41.5141   22.5196 H   0  0  0  0  0  0
   89.6093   40.9435   21.3001 H   0  0  0  0  0  0
   92.9428   41.8339   20.9864 H   0  0  0  0  0  0
   91.9261   40.6383   20.1126 H   0  0  0  0  0  0
   93.1862   43.2063   19.0065 H   0  0  0  0  0  0
   93.4927   41.5106   18.4995 H   0  0  0  0  0  0
   92.1735   42.9373   16.9254 H   0  0  0  0  0  0
   91.4260   41.3710   17.3887 H   0  0  0  0  0  0
   90.7373   44.1631   18.4300 H   0  0  0  0  0  0
   89.6858   43.0370   17.5064 H   0  0  0  0  0  0
   90.9834   44.9089   24.2717 H   0  0  0  0  0  0
   91.3601   43.2377   23.7316 H   0  0  0  0  0  0
   89.9509   43.5388   24.8041 H   0  0  0  0  0  0
   92.2841   47.4685   20.6169 H   0  0  0  0  0  0
   90.9848   46.6647   19.6722 H   0  0  0  0  0  0
   92.4750   45.7583   20.1018 H   0  0  0  0  0  0
   86.5338   49.6852   21.3152 H   0  0  0  0  0  0
   86.8888   48.6926   22.9022 H   0  0  0  0  0  0
   84.1525   58.6561   22.3312 H   0  0  0  0  0  0
   84.1197   57.1603   21.3372 H   0  0  0  0  0  0
   85.2825   58.4726   20.9469 H   0  0  0  0  0  0
   82.6793   56.9753   27.8044 H   0  0  0  0  0  0
   81.8900   57.4114   26.2508 H   0  0  0  0  0  0
   82.9896   58.5798   27.0586 H   0  0  0  0  0  0
   84.6954   49.9608   22.5843 H   0  0  0  0  0  0
   83.0435   50.6590   22.4830 H   0  0  0  0  0  0
   83.6626   50.0408   24.0519 H   0  0  0  0  0  0
   83.6157   53.6458   24.4624 H   0  0  0  0  0  0
   88.5193   56.5843   27.6076 H   0  0  0  0  0  0
   88.0753   51.8152   19.2312 H   0  0  0  0  0  0
   92.1326   49.1792   23.9949 H   0  0  0  0  0  0
  1  2  1  0  0  0
  1 45  1  0  0  0
  1 46  2  0  0  0
  2  3  1  0  0  0
  2 44  1  0  0  0
  2 47  1  0  0  0
  3  4  1  0  0  0
  3 58  1  0  0  0
  3 59  1  0  0  0
  4  5  1  0  0  0
  4 48  1  0  0  0
  4 60  1  0  0  0
  5  6  1  0  0  0
  5 61  1  0  0  0
  5 62  1  0  0  0
  6  7  1  0  0  0
  6 63  1  0  0  0
  6 64  1  0  0  0
  7  8  1  0  0  0
  7 49  1  0  0  0
  7 65  1  0  0  0
  8  9  1  0  0  0
  8 48  1  0  0  0
  8 50  1  0  0  0
  9 10  2  0  0  0
  9 66  1  0  0  0
 10 11  1  0  0  0
 10 43  1  0  0  0
 11 12  1  0  0  0
 11 67  1  0  0  0
 11 68  1  0  0  0
 12 13  1  0  0  0
 12 50  1  0  0  0
 12 69  1  0  0  0
 13 14  1  0  0  0
 13 42  1  0  0  0
 13 70  1  0  0  0
 14 15  2  0  0  0
 14 71  1  0  0  0
 15 16  1  0  0  0
 15 72  1  0  0  0
 16 17  1  0  0  0
 16 51  1  0  0  0
 16 73  1  0  0  0
 17 18  1  0  0  0
 17 74  1  0  0  0
 17 75  1  0  0  0
 18 19  1  0  0  0
 18 76  1  0  0  0
 18 77  1  0  0  0
 19 20  1  0  0  0
 19 51  1  0  0  0
 19 52  1  0  0  0
 20 21  1  0  0  0
 20 78  1  0  0  0
 20 79  1  0  0  0
 21 22  1  0  0  0
 21 80  1  0  0  0
 21 81  1  0  0  0
 22 23  1  0  0  0
 22 53  1  0  0  0
 22 82  1  0  0  0
 23 24  1  0  0  0
 23 52  1  0  0  0
 23 83  1  0  0  0
 24 25  1  0  0  0
 24 54  1  0  0  0
 24 84  1  0  0  0
 25 26  1  0  0  0
 25 41  2  0  0  0
 26 27  1  0  0  0
 26 53  1  0  0  0
 26 85  1  0  0  0
 27 28  1  0  0  0
 27 55  1  0  0  0
 27 86  1  0  0  0
 28 29  1  0  0  0
 28 87  1  0  0  0
 28 88  1  0  0  0
 29 30  1  0  0  0
 29 40  1  0  0  0
 29 89  1  0  0  0
 30 31  1  0  0  0
 30 56  1  0  0  0
 30 90  1  0  0  0
 31 32  1  0  0  0
 31 39  1  0  0  0
 31 91  1  0  0  0
 32 33  1  0  0  0
 32 92  1  0  0  0
 32 93  1  0  0  0
 33 34  1  0  0  0
 33 94  1  0  0  0
 33 95  1  0  0  0
 34 35  1  0  0  0
 34 56  1  0  0  0
 34 57  1  0  0  0
 35 36  1  0  0  0
 35 96  1  0  0  0
 35 97  1  0  0  0
 36 37  1  0  0  0
 36 98  1  0  0  0
 36 99  1  0  0  0
 37 38  1  0  0  0
 37100  1  0  0  0
 37101  1  0  0  0
 38 57  1  0  0  0
 38102  1  0  0  0
 38103  1  0  0  0
 39104  1  0  0  0
 39105  1  0  0  0
 39106  1  0  0  0
 40107  1  0  0  0
 40108  1  0  0  0
 40109  1  0  0  0
 41110  1  0  0  0
 41111  1  0  0  0
 42112  1  0  0  0
 42113  1  0  0  0
 42114  1  0  0  0
 43115  1  0  0  0
 43116  1  0  0  0
 43117  1  0  0  0
 44118  1  0  0  0
 44119  1  0  0  0
 44120  1  0  0  0
 47121  1  0  0  0
 49122  1  0  0  0
 54123  1  0  0  0
 55124  1  0  0  0
M  CHG  1  45  -1
M  END
> <s_m_source_file>
../1jk7_ligand.sdf

> <i_m_source_file_index>
1

> <s_epik_input>
W09IXUMoPU8pW0NAXShbQ0gzXSkoW09IXSlbQ0gyXVtDQEBIXShPMSlbQ0gyXVtDSDJdW0NAQEhdKFtPSF0pW0NAXTEyW0NIXT1DKFtDSDNdKVtDSDJdW0NASF0oTzIpW0NASF0oW0NIM10pL1tDSF09W0NIXS9bQ0BIXShPMylbQ0gyXVtDSDJdW0NAQF0zNFtDSDJdW0NIMl1bQ0BASF01W0NAQEhdKE80KVtDQEhdKFtPSF0pQyg9W0NIMl0pW0NASF0oTzUpW0NAQEhdKFtPSF0pW0NIMl1bQ0BIXShbQ0gzXSlbQ0BASF0oTzYpW0NASF0oW0NIM10pW0NIMl1bQ0gyXVtDQF02N1tDSDJdW0NIMl1bQ0gyXVtDSDJdTzc=

> <s_epik_cmdline>
J2VwaWtfYXBwJywgJy1pbWFlJywgJ2xpZ2FuZF9wcm8ubWFlJywgJy1vbWFlJywgJ2xpZ2FuZF9wcmVwLm1hZScsICctbXMnLCAnMScsICctcGgnLCAnNycsICctcGh0JywgJzAuNScsICctbnQn

> <r_lp_tautomer_probability>
1

> <r_epik_Ionization_Penalty>
  0.0004

> <r_epik_Ionization_Penalty_Charging>
  0.0004

> <r_epik_Ionization_Penalty_Neutral>
  0.0000

> <r_epik_State_Penalty>
 -0.0000

> <r_epik_Charging_Adjusted_Penalty>
0.000417223533904883

> <i_epik_Tot_Q>
-1

> <i_epik_Tot_abs_Q>
1

$$$$
