1jld_ligand
                    3D
 Schrodinger Suite 2020-3.
 99101  0  0  1  0            999 V2000
   51.4700   25.4350    9.3670 O   0  0  0  0  0  0
   50.5590   24.7130    8.9000 C   0  0  0  0  0  0
   48.1710   24.2520    8.6240 N   0  0  0  0  0  0
   49.1780   25.0630    9.0140 C   0  0  0  0  0  0
   48.7950   26.2640    9.6010 C   0  0  0  0  0  0
   47.4710   26.5910    9.7860 C   0  0  0  0  0  0
   46.4930   25.6790    9.4010 C   0  0  0  0  0  0
   45.1340   25.9660    9.6050 C   0  0  0  0  0  0
   44.1780   25.0330    9.2070 C   0  0  0  0  0  0
   44.5670   23.8590    8.5830 C   0  0  0  0  0  0
   45.9120   23.5790    8.4230 C   0  0  0  0  0  0
   46.8650   24.4980    8.8280 C   0  0  0  0  0  0
   50.8130   23.5560    8.2440 N   0  0  0  0  0  0
   52.0030   22.8000    7.8570 C   0  0  2  0  0  0
   51.9010   22.5860    6.3820 C   0  0  0  0  0  0
   51.5660   21.5230    5.8780 O   0  0  0  0  0  0
   52.2940   21.5030    8.6990 C   0  0  2  0  0  0
   52.2630   21.7830   10.0830 O   0  0  0  0  0  0
   53.6660   20.9320    8.4200 C   0  0  0  0  0  0
   53.0020   23.2400    1.9740 C   0  0  0  0  0  0
   52.1260   23.6900    5.6800 N   0  0  0  0  0  0
   51.9530   23.7360    4.2490 C   0  0  1  0  0  0
   51.4800   25.1470    3.9090 C   0  0  0  0  0  0
   50.2000   25.4940    4.6090 C   0  0  0  0  0  0
   49.0140   24.8240    4.3060 C   0  0  0  0  0  0
   50.1550   26.4840    5.5930 C   0  0  0  0  0  0
   47.8180   25.1670    4.9520 C   0  0  0  0  0  0
   48.9750   26.8020    6.2710 C   0  0  0  0  0  0
   47.7900   26.1530    5.9400 C   0  0  0  0  0  0
   53.1780   23.2420    3.4810 C   0  0  2  0  0  0
   54.2820   24.0700    3.7580 O   0  0  0  0  0  0
   53.8160   22.1940    1.3720 N   0  0  0  0  0  0
   53.3310   21.0160    1.0390 C   0  0  0  0  0  0
   52.1730   20.6780    1.2170 O   0  0  0  0  0  0
   54.3530   20.0750    0.4120 C   0  0  1  0  0  0
   55.0150   19.0140    1.3740 C   0  0  0  0  0  0
   54.1180   17.8190    1.6870 C   0  0  0  0  0  0
   56.2290   18.4800    0.6270 C   0  0  0  0  0  0
   55.3950   19.6960    2.6770 C   0  0  0  0  0  0
   53.7680   19.5300   -0.9070 C   0  0  0  0  0  0
   53.5070   20.6100   -1.9390 C   0  0  0  0  0  0
   54.4620   21.3520   -2.5570 O   0  0  0  0  0  0
   52.2540   20.8780   -2.3260 N   0  0  0  0  0  0
   51.9150   21.8640   -3.3120 C   0  0  0  0  0  0
   51.3430   21.1730   -4.5400 C   0  0  0  0  0  0
   52.0920   19.8800   -4.9720 C   0  0  0  0  0  0
   50.8200   22.7680   -2.7800 C   0  0  0  0  0  0
   51.1740   23.6170   -1.5270 C   0  0  0  0  0  0
   49.5644   26.9656    9.9234 H   0  0  0  0  0  0
   47.1931   27.5484   10.2267 H   0  0  0  0  0  0
   44.8308   26.9050   10.0680 H   0  0  0  0  0  0
   43.1208   25.2278    9.3874 H   0  0  0  0  0  0
   43.8156   23.1582    8.2193 H   0  0  0  0  0  0
   46.2220   22.6337    7.9775 H   0  0  0  0  0  0
   49.8129   23.1778    7.9855 H   0  0  0  0  0  0
   52.8648   23.4500    8.0688 H   0  0  0  0  0  0
   51.5124   20.7542    8.5032 H   0  0  0  0  0  0
   51.3577   22.2121   10.5372 H   0  0  0  0  0  0
   53.7526   20.6919    7.3500 H   0  0  0  0  0  0
   53.8102   20.0174    9.0138 H   0  0  0  0  0  0
   54.4333   21.6713    8.6932 H   0  0  0  0  0  0
   51.9452   23.0587    1.7285 H   0  0  0  0  0  0
   53.3109   24.2143    1.5674 H   0  0  0  0  0  0
   52.4541   24.5883    6.2235 H   0  0  0  0  0  0
   51.1768   23.0052    3.9780 H   0  0  0  0  0  0
   52.2467   25.8743    4.2144 H   0  0  0  0  0  0
   51.3110   25.2258    2.8249 H   0  0  0  0  0  0
   49.0175   24.0280    3.5614 H   0  0  0  0  0  0
   51.0683   27.0253    5.8398 H   0  0  0  0  0  0
   46.8951   24.6556    4.6785 H   0  0  0  0  0  0
   48.9832   27.5568    7.0573 H   0  0  0  0  0  0
   46.8573   26.4094    6.4425 H   0  0  0  0  0  0
   53.4065   22.2264    3.8365 H   0  0  0  0  0  0
   55.2556   23.8636    3.2894 H   0  0  0  0  0  0
   54.8840   22.3717    1.1774 H   0  0  0  0  0  0
   55.2290   20.6914    0.1617 H   0  0  0  0  0  0
   53.2249   18.1630    2.2292 H   0  0  0  0  0  0
   54.6701   17.0992    2.3091 H   0  0  0  0  0  0
   53.8128   17.3338    0.7482 H   0  0  0  0  0  0
   56.9041   19.3131    0.3815 H   0  0  0  0  0  0
   55.9014   17.9879   -0.3006 H   0  0  0  0  0  0
   56.7587   17.7532    1.2604 H   0  0  0  0  0  0
   56.0421   20.5596    2.4637 H   0  0  0  0  0  0
   55.9335   18.9842    3.3199 H   0  0  0  0  0  0
   54.4846   20.0381    3.1909 H   0  0  0  0  0  0
   54.4722   18.8109   -1.3509 H   0  0  0  0  0  0
   52.8106   19.0279   -0.7037 H   0  0  0  0  0  0
   51.4609   20.2904   -1.8404 H   0  0  0  0  0  0
   52.8492   22.4078   -3.5160 H   0  0  0  0  0  0
   50.2997   20.8838   -4.3454 H   0  0  0  0  0  0
   51.3790   21.8607   -5.3978 H   0  0  0  0  0  0
   51.6068   19.4557   -5.8634 H   0  0  0  0  0  0
   52.0598   19.1466   -4.1528 H   0  0  0  0  0  0
   53.1391   20.1234   -5.2053 H   0  0  0  0  0  0
   50.5275   23.4873   -3.5592 H   0  0  0  0  0  0
   49.9482   22.1601   -2.4963 H   0  0  0  0  0  0
   50.3046   24.2266   -1.2396 H   0  0  0  0  0  0
   52.0236   24.2762   -1.7588 H   0  0  0  0  0  0
   51.4443   22.9490   -0.6959 H   0  0  0  0  0  0
  1  2  2  0  0  0
  2  4  1  0  0  0
  2 13  1  0  0  0
  3  4  2  0  0  0
  3 12  1  0  0  0
  4  5  1  0  0  0
  5  6  2  0  0  0
  5 49  1  0  0  0
  6  7  1  0  0  0
  6 50  1  0  0  0
  7 12  2  0  0  0
  7  8  1  0  0  0
  8  9  2  0  0  0
  8 51  1  0  0  0
  9 10  1  0  0  0
  9 52  1  0  0  0
 10 11  2  0  0  0
 10 53  1  0  0  0
 11 12  1  0  0  0
 11 54  1  0  0  0
 13 14  1  0  0  0
 13 55  1  0  0  0
 14 15  1  0  0  0
 14 17  1  0  0  0
 14 56  1  0  0  0
 15 16  2  0  0  0
 15 21  1  0  0  0
 17 18  1  0  0  0
 17 19  1  0  0  0
 17 57  1  0  0  0
 18 58  1  0  0  0
 19 59  1  0  0  0
 19 60  1  0  0  0
 19 61  1  0  0  0
 20 30  1  0  0  0
 20 32  1  0  0  0
 20 62  1  0  0  0
 20 63  1  0  0  0
 21 22  1  0  0  0
 21 64  1  0  0  0
 22 30  1  0  0  0
 22 23  1  0  0  0
 22 65  1  0  0  0
 23 24  1  0  0  0
 23 66  1  0  0  0
 23 67  1  0  0  0
 24 26  2  0  0  0
 24 25  1  0  0  0
 25 27  2  0  0  0
 25 68  1  0  0  0
 26 28  1  0  0  0
 26 69  1  0  0  0
 27 29  1  0  0  0
 27 70  1  0  0  0
 28 29  2  0  0  0
 28 71  1  0  0  0
 29 72  1  0  0  0
 30 31  1  0  0  0
 30 73  1  0  0  0
 31 74  1  0  0  0
 32 33  1  0  0  0
 32 75  1  0  0  0
 33 35  1  0  0  0
 33 34  2  0  0  0
 35 40  1  0  0  0
 35 36  1  0  0  0
 35 76  1  0  0  0
 36 39  1  0  0  0
 36 38  1  0  0  0
 36 37  1  0  0  0
 37 77  1  0  0  0
 37 78  1  0  0  0
 37 79  1  0  0  0
 38 80  1  0  0  0
 38 81  1  0  0  0
 38 82  1  0  0  0
 39 83  1  0  0  0
 39 84  1  0  0  0
 39 85  1  0  0  0
 40 41  1  0  0  0
 40 86  1  0  0  0
 40 87  1  0  0  0
 41 43  1  0  0  0
 41 42  2  0  0  0
 43 44  1  0  0  0
 43 88  1  0  0  0
 44 47  1  0  0  0
 44 45  1  0  0  0
 44 89  1  0  0  0
 45 46  1  0  0  0
 45 90  1  0  0  0
 45 91  1  0  0  0
 46 92  1  0  0  0
 46 93  1  0  0  0
 46 94  1  0  0  0
 47 48  1  0  0  0
 47 95  1  0  0  0
 47 96  1  0  0  0
 48 97  1  0  0  0
 48 98  1  0  0  0
 48 99  1  0  0  0
M  END
> <s_m_source_file>
../1jld_ligand.sdf

> <i_m_source_file_index>
1

> <s_epik_input>
W2NIXTFbY0hdW2NIXVtjSF1jKGMxMiluYyhbY0hdW2NIXTIpQyg9TylbTkhdW0NAQEhdKFtDQEhdKFtPSF0pW0NIM10pQyg9TylbTkhdW0NAQEhdKFtDSDJdYzNbY0hdW2NIXVtjSF1bY0hdW2NIXTMpW0NASF0oW09IXSlbQ0gyXVtOSF1DKD1PKVtDQEBIXShDKFtDSDNdKShbQ0gzXSlbQ0gzXSlbQ0gyXUMoPU8pW05IXVtDSF0oW0NIMl1bQ0gzXSlbQ0gyXVtDSDNd

> <s_epik_cmdline>
J2VwaWtfYXBwJywgJy1pbWFlJywgJ2xpZ2FuZF9wcm8ubWFlJywgJy1vbWFlJywgJ2xpZ2FuZF9wcmVwLm1hZScsICctbXMnLCAnMScsICctcGgnLCAnNycsICctcGh0JywgJzAuNScsICctbnQn

> <r_lp_tautomer_probability>
1

> <r_epik_Ionization_Penalty>
  0.0003

> <r_epik_Ionization_Penalty_Charging>
  0.0000

> <r_epik_Ionization_Penalty_Neutral>
  0.0003

> <r_epik_State_Penalty>
 -0.0000

> <r_epik_Charging_Adjusted_Penalty>
0

> <i_epik_Tot_Q>
0

> <i_epik_Tot_abs_Q>
0

$$$$
