1jlq_ligand
                    3D
 Schrodinger Suite 2020-3.
 34 35  0  0  1  0            999 V2000
   -3.9010  -33.5840   22.5330 C   0  0  0  0  0  0
   -2.8990  -34.3040   21.8250 C   0  0  0  0  0  0
   -2.0400  -35.2210   22.5310 C   0  0  0  0  0  0
   -2.1770  -35.4350   23.9750 C   0  0  0  0  0  0
   -3.2100  -34.6770   24.6290 C   0  0  0  0  0  0
   -4.0550  -33.7710   23.9240 C   0  0  0  0  0  0
   -1.2120  -36.5520   24.8930 S   0  0  0  0  0  0
   -1.8200  -36.7460   26.2190 O   0  0  0  0  0  0
   -0.9970  -37.7880   24.1380 O   0  0  0  0  0  0
    0.2830  -35.7500   25.1550 C   0  0  0  0  0  0
    0.3400  -34.6140   26.0450 C   0  0  0  0  0  0
    1.5550  -33.9050   26.2480 C   0  0  0  0  0  0
    2.7350  -34.3310   25.5610 C   0  0  0  0  0  0
    2.7120  -35.4660   24.6790 C   0  0  0  0  0  0
    1.4720  -36.1590   24.4930 C   0  0  0  0  0  0
   -0.2340  -36.4910   21.2010 N   0  0  0  0  0  0
   -1.0370  -35.9250   21.7910 C   0  0  0  0  0  0
   -2.7780  -34.1260   20.4120 N   0  0  0  0  0  0
    1.5710  -32.7000   27.1980 C   0  0  0  0  0  0
    3.9780  -35.9500   23.9690 C   0  0  0  0  0  0
   -4.5499  -32.8879   22.0016 H   0  0  0  0  0  0
   -3.3517  -34.7999   25.7027 H   0  0  0  0  0  0
   -4.8253  -33.2188   24.4624 H   0  0  0  0  0  0
   -0.5616  -34.2958   26.5685 H   0  0  0  0  0  0
    3.6673  -33.7859   25.7087 H   0  0  0  0  0  0
    1.4398  -37.0214   23.8272 H   0  0  0  0  0  0
   -3.4411  -33.4223   19.8875 H   0  0  0  0  0  0
   -2.0218  -34.6927   19.8490 H   0  0  0  0  0  0
    0.5646  -32.5490   27.6157 H   0  0  0  0  0  0
    1.8768  -31.8003   26.6439 H   0  0  0  0  0  0
    2.2830  -32.8869   28.0154 H   0  0  0  0  0  0
    4.8206  -35.2947   24.2346 H   0  0  0  0  0  0
    3.8212  -35.9226   22.8806 H   0  0  0  0  0  0
    4.2023  -36.9806   24.2814 H   0  0  0  0  0  0
  1  2  2  0  0  0
  1  6  1  0  0  0
  1 21  1  0  0  0
  2  3  1  0  0  0
  2 18  1  0  0  0
  3  4  2  0  0  0
  3 17  1  0  0  0
  4  5  1  0  0  0
  4  7  1  0  0  0
  5  6  2  0  0  0
  5 22  1  0  0  0
  6 23  1  0  0  0
  7  8  2  0  0  0
  7  9  2  0  0  0
  7 10  1  0  0  0
 10 11  2  0  0  0
 10 15  1  0  0  0
 11 12  1  0  0  0
 11 24  1  0  0  0
 12 13  2  0  0  0
 12 19  1  0  0  0
 13 14  1  0  0  0
 13 25  1  0  0  0
 14 15  2  0  0  0
 14 20  1  0  0  0
 15 26  1  0  0  0
 16 17  3  0  0  0
 18 27  1  0  0  0
 18 28  1  0  0  0
 19 29  1  0  0  0
 19 30  1  0  0  0
 19 31  1  0  0  0
 20 32  1  0  0  0
 20 33  1  0  0  0
 20 34  1  0  0  0
M  END
> <s_m_source_file>
../1jlq_ligand.sdf

> <i_m_source_file_index>
1

> <s_epik_input>
W05IMl1jMVtjSF1bY0hdW2NIXWMoYzFDI04pUyg9TykoPU8pYzJbY0hdYyhbQ0gzXSlbY0hdYyhbY0hdMilbQ0gzXQ==

> <s_epik_cmdline>
J2VwaWtfYXBwJywgJy1pbWFlJywgJ2xpZ2FuZF9wcm8ubWFlJywgJy1vbWFlJywgJ2xpZ2FuZF9wcmVwLm1hZScsICctbXMnLCAnMScsICctcGgnLCAnNycsICctcGh0JywgJzAuNScsICctbnQn

> <r_lp_tautomer_probability>
1

> <r_epik_Ionization_Penalty>
  0.0001

> <r_epik_Ionization_Penalty_Charging>
  0.0000

> <r_epik_Ionization_Penalty_Neutral>
  0.0001

> <r_epik_State_Penalty>
 -0.0000

> <r_epik_Charging_Adjusted_Penalty>
0

> <i_epik_Tot_Q>
0

> <i_epik_Tot_abs_Q>
0

$$$$
