1jlr_ligand
                    3D
 Schrodinger Suite 2020-3.
 44 46  0  0  1  0            999 V2000
  -20.5370   82.4850   57.7210 P   0  0  0  0  0  0
  -19.8500   81.3500   58.3870 O   0  0  0  0  0  0
  -22.0070   82.1080   57.9290 O   0  5  0  0  0  0
  -20.1240   82.2630   56.3110 O   0  5  0  0  0  0
  -19.9240   83.8310   58.2140 O   0  0  0  0  0  0
  -19.5900   85.0140   57.2890 P   0  0  1  0  0  0
  -18.5150   84.7870   56.3040 O   0  5  0  0  0  0
  -20.9390   85.3030   56.8080 O   0  0  0  0  0  0
  -19.1400   86.1690   58.2870 O   0  0  0  0  0  0
  -17.5900   86.7080   58.3630 P   0  0  1  0  0  0
  -16.7680   85.5620   58.8560 O   0  5  0  0  0  0
  -17.2270   87.3220   57.0840 O   0  0  0  0  0  0
  -17.7520   87.7330   59.4090 O   0  0  0  0  0  0
  -16.7300   88.1070   60.3420 C   0  0  0  0  0  0
  -17.0620   87.5370   61.7080 C   0  0  1  0  0  0
  -15.8720   87.3050   62.5180 O   0  0  0  0  0  0
  -18.0350   88.3680   62.5480 C   0  0  1  0  0  0
  -19.2880   87.6910   62.6580 O   0  0  0  0  0  0
  -17.3250   88.5990   63.9040 C   0  0  1  0  0  0
  -18.0750   88.1240   65.0070 O   0  0  0  0  0  0
  -15.9890   87.8790   63.8140 C   0  0  2  0  0  0
  -14.8110   88.7540   64.0320 N   0  0  0  0  0  0
  -13.7060   88.5690   64.8210 C   0  0  0  0  0  0
  -12.8470   89.5320   64.7970 N   0  0  0  0  0  0
  -13.3650   90.4420   63.9540 C   0  0  0  0  0  0
  -12.8700   91.7260   63.5270 C   0  0  0  0  0  0
  -11.7900   92.2640   63.8890 O   0  0  0  0  0  0
  -13.7570   92.4090   62.5880 N   0  0  0  0  0  0
  -14.9590   91.8870   62.1400 C   0  0  0  0  0  0
  -15.6520   92.6330   61.2830 N   0  0  0  0  0  0
  -15.4330   90.6980   62.5270 N   0  0  0  0  0  0
  -14.5980   90.0070   63.4440 C   0  0  0  0  0  0
  -15.7616   87.7099   60.0037 H   0  0  0  0  0  0
  -16.6747   89.2038   60.4051 H   0  0  0  0  0  0
  -17.5187   86.5646   61.4718 H   0  0  0  0  0  0
  -18.3534   89.3134   62.0845 H   0  0  0  0  0  0
  -19.8777   87.4751   61.7548 H   0  0  0  0  0  0
  -17.2323   89.6647   64.1603 H   0  0  0  0  0  0
  -19.0708   88.5421   65.2160 H   0  0  0  0  0  0
  -15.9573   87.0888   64.5786 H   0  0  0  0  0  0
  -13.5628   87.6732   65.4253 H   0  0  0  0  0  0
  -13.4835   93.3989   62.1938 H   0  0  0  0  0  0
  -15.2619   93.6110   60.9648 H   0  0  0  0  0  0
  -16.6149   92.2716   60.8929 H   0  0  0  0  0  0
  1  2  2  0  0  0
  1  3  1  0  0  0
  1  4  1  0  0  0
  1  5  1  0  0  0
  5  6  1  0  0  0
  6  7  1  0  0  0
  6  8  2  0  0  0
  6  9  1  0  0  0
  9 10  1  0  0  0
 10 11  1  0  0  0
 10 12  2  0  0  0
 10 13  1  0  0  0
 13 14  1  0  0  0
 14 15  1  0  0  0
 14 33  1  0  0  0
 14 34  1  0  0  0
 15 16  1  0  0  0
 15 17  1  0  0  0
 15 35  1  0  0  0
 16 21  1  0  0  0
 17 18  1  0  0  0
 17 19  1  0  0  0
 17 36  1  0  0  0
 18 37  1  0  0  0
 19 20  1  0  0  0
 19 21  1  0  0  0
 19 38  1  0  0  0
 20 39  1  0  0  0
 21 22  1  0  0  0
 21 40  1  0  0  0
 22 23  1  0  0  0
 22 32  1  0  0  0
 23 24  2  0  0  0
 23 41  1  0  0  0
 24 25  1  0  0  0
 25 26  1  0  0  0
 25 32  2  0  0  0
 26 27  2  0  0  0
 26 28  1  0  0  0
 28 29  1  0  0  0
 28 42  1  0  0  0
 29 30  1  0  0  0
 29 31  2  0  0  0
 30 43  1  0  0  0
 30 44  1  0  0  0
 31 32  1  0  0  0
M  CHG  4   3  -1   4  -1   7  -1  11  -1
M  END
> <s_m_source_file>
../1jlr_ligand.sdf

> <i_m_source_file_index>
1

> <s_epik_input>
Tz1QKFtPSF0pKFtPSF0pT1tQQF0oPU8pKFtPSF0pT1tQQF0oPU8pKFtPSF0pT1tDSDJdW0NASF0xT1tDQEhdKFtDQEhdKFtPSF0pW0NAQEhdMVtPSF0pbihbY0hdbjIpYyhjMjMpbmMoW05IMl0pW25IXWMzPU8=

> <s_epik_cmdline>
J2VwaWtfYXBwJywgJy1pbWFlJywgJ2xpZ2FuZF9wcm8ubWFlJywgJy1vbWFlJywgJ2xpZ2FuZF9wcmVwLm1hZScsICctbXMnLCAnMScsICctcGgnLCAnNycsICctcGh0JywgJzAuNScsICctbnQn

> <r_lp_tautomer_probability>
0.999940409345307

> <r_epik_Ionization_Penalty>
  0.0832

> <r_epik_Ionization_Penalty_Charging>
  0.0832

> <r_epik_Ionization_Penalty_Neutral>
  0.0001

> <r_epik_State_Penalty>
  0.0708

> <r_epik_Charging_Adjusted_Penalty>
0.15400472101061

> <i_epik_Tot_Q>
-4

> <i_epik_Tot_abs_Q>
4

> <s_epik_Chemistry_Notes>
This compound contains an acetal/aminal-like group ( X-CH(R)-Y where X, Y are N, S, or O) that may be acid/base labile, releasing an aldehyde.

$$$$
