1jlx_ligand
                    3D
 Schrodinger Suite 2020-3.
 64 66  0  0  1  0            999 V2000
   54.4680   88.3880  -31.3650 C   0  0  1  0  0  0
   54.1410   87.0000  -31.8680 C   0  0  1  0  0  0
   53.0150   87.0570  -32.8950 C   0  0  2  0  0  0
   51.8130   87.7140  -32.2780 C   0  0  2  0  0  0
   52.1740   89.0700  -31.6540 C   0  0  1  0  0  0
   51.0160   89.6280  -30.8610 C   0  0  0  0  0  0
   55.2960   86.4320  -32.4490 O   0  0  0  0  0  0
   52.6550   85.7400  -33.2890 O   0  0  0  0  0  0
   51.2730   86.8400  -31.3070 O   0  0  0  0  0  0
   53.3060   88.9650  -30.7480 O   0  0  0  0  0  0
   51.3090   90.9360  -30.4130 O   0  0  0  0  0  0
   58.6450   90.1050  -29.5090 C   0  0  1  0  0  0
   57.7190   88.9110  -29.6630 C   0  0  1  0  0  0
   56.4200   89.3860  -30.3240 C   0  0  2  0  0  0
   55.8040   90.5250  -29.5200 C   0  0  2  0  0  0
   56.8140   91.6280  -29.2610 C   0  0  1  0  0  0
   56.3000   92.6510  -28.2690 C   0  0  0  0  0  0
   58.5600   86.6750  -29.9900 C   0  0  0  0  0  0
   59.2060   85.6570  -30.9180 C   0  0  0  0  0  0
   58.3510   87.8920  -30.4780 N   0  0  0  0  0  0
   58.9630   90.6240  -30.7780 O   0  0  0  0  0  0
   55.4880   88.2930  -30.4150 O   0  0  0  0  0  0
   55.3480   90.0250  -28.2820 O   0  0  0  0  0  0
   58.0120   91.0740  -28.6950 O   0  0  0  0  0  0
   55.0610   93.2130  -28.6840 O   0  0  0  0  0  0
   58.2760   86.3830  -28.8270 O   0  0  0  0  0  0
   60.2570   91.2380  -30.9430 C   0  0  0  0  0  0
   61.4180   90.3020  -31.1920 C   0  0  0  0  0  0
   61.2080   89.0660  -31.7870 C   0  0  0  0  0  0
   62.2330   88.1750  -31.9220 C   0  0  0  0  0  0
   63.4960   88.5030  -31.4660 C   0  0  0  0  0  0
   63.7220   89.7290  -30.8860 C   0  0  0  0  0  0
   62.6900   90.6200  -30.7530 C   0  0  0  0  0  0
   54.8180   89.0641  -32.1590 H   0  0  0  0  0  0
   53.8719   86.3370  -31.0326 H   0  0  0  0  0  0
   53.3336   87.5809  -33.8083 H   0  0  0  0  0  0
   51.0239   87.8490  -33.0324 H   0  0  0  0  0  0
   52.4663   89.7521  -32.4660 H   0  0  0  0  0  0
   50.1184   89.6600  -31.4960 H   0  0  0  0  0  0
   50.8254   88.9854  -29.9888 H   0  0  0  0  0  0
   56.2109   86.3123  -31.8501 H   0  0  0  0  0  0
   53.3996   85.0857  -33.7658 H   0  0  0  0  0  0
   50.9621   85.8244  -31.5933 H   0  0  0  0  0  0
   50.5699   91.4919  -29.8175 H   0  0  0  0  0  0
   59.6109   89.8762  -29.0350 H   0  0  0  0  0  0
   57.5285   88.4330  -28.6908 H   0  0  0  0  0  0
   56.6075   89.7090  -31.3586 H   0  0  0  0  0  0
   54.9235   90.9284  -30.0415 H   0  0  0  0  0  0
   57.0560   92.0987  -30.2253 H   0  0  0  0  0  0
   56.1508   92.1704  -27.2908 H   0  0  0  0  0  0
   57.0326   93.4655  -28.1694 H   0  0  0  0  0  0
   59.3760   86.1152  -31.9035 H   0  0  0  0  0  0
   58.5414   84.7873  -31.0277 H   0  0  0  0  0  0
   60.1676   85.3325  -30.4937 H   0  0  0  0  0  0
   58.6606   88.1249  -31.5075 H   0  0  0  0  0  0
   54.6055   89.2138  -28.2563 H   0  0  0  0  0  0
   54.5656   93.9726  -28.0615 H   0  0  0  0  0  0
   60.2311   91.9221  -31.8040 H   0  0  0  0  0  0
   60.5138   91.8020  -30.0342 H   0  0  0  0  0  0
   60.2142   88.8041  -32.1503 H   0  0  0  0  0  0
   62.0559   87.2061  -32.3888 H   0  0  0  0  0  0
   64.3135   87.7891  -31.5663 H   0  0  0  0  0  0
   64.7194   89.9912  -30.5331 H   0  0  0  0  0  0
   62.8739   91.5920  -30.2953 H   0  0  0  0  0  0
  1 10  1  0  0  0
  1  2  1  0  0  0
  1 22  1  0  0  0
  1 34  1  0  0  0
  2  7  1  0  0  0
  2  3  1  0  0  0
  2 35  1  0  0  0
  3  8  1  0  0  0
  3  4  1  0  0  0
  3 36  1  0  0  0
  4  9  1  0  0  0
  4  5  1  0  0  0
  4 37  1  0  0  0
  5 10  1  0  0  0
  5  6  1  0  0  0
  5 38  1  0  0  0
  6 11  1  0  0  0
  6 39  1  0  0  0
  6 40  1  0  0  0
  7 41  1  0  0  0
  8 42  1  0  0  0
  9 43  1  0  0  0
 11 44  1  0  0  0
 12 24  1  0  0  0
 12 21  1  0  0  0
 12 13  1  0  0  0
 12 45  1  0  0  0
 13 20  1  0  0  0
 13 14  1  0  0  0
 13 46  1  0  0  0
 14 22  1  0  0  0
 14 15  1  0  0  0
 14 47  1  0  0  0
 15 23  1  0  0  0
 15 16  1  0  0  0
 15 48  1  0  0  0
 16 24  1  0  0  0
 16 17  1  0  0  0
 16 49  1  0  0  0
 17 25  1  0  0  0
 17 50  1  0  0  0
 17 51  1  0  0  0
 18 20  1  0  0  0
 18 26  2  0  0  0
 18 19  1  0  0  0
 19 52  1  0  0  0
 19 53  1  0  0  0
 19 54  1  0  0  0
 20 55  1  0  0  0
 21 27  1  0  0  0
 23 56  1  0  0  0
 25 57  1  0  0  0
 27 28  1  0  0  0
 27 58  1  0  0  0
 27 59  1  0  0  0
 28 33  2  0  0  0
 28 29  1  0  0  0
 29 30  2  0  0  0
 29 60  1  0  0  0
 30 31  1  0  0  0
 30 61  1  0  0  0
 31 32  2  0  0  0
 31 62  1  0  0  0
 32 33  1  0  0  0
 32 63  1  0  0  0
 33 64  1  0  0  0
M  END
> <s_m_source_file>
../1jlx_ligand.sdf

> <i_m_source_file_index>
1

> <s_epik_input>
W09IXVtDSDJdW0NAQEhdKE8xKVtDQEhdKFtPSF0pW0NASF0oW09IXSlbQ0BASF0oW09IXSlbQ0BASF0xT1tDQEBIXShbQ0BASF0oW09IXSlbQ0BIXShPMilbQ0gyXVtPSF0pW0NAQEhdKFtOSF1DKD1PKVtDSDNdKVtDQEhdMk9bQ0gyXWMzW2NIXVtjSF1bY0hdW2NIXVtjSF0z

> <s_epik_cmdline>
J2VwaWtfYXBwJywgJy1pbWFlJywgJ2xpZ2FuZF9wcm8ubWFlJywgJy1vbWFlJywgJ2xpZ2FuZF9wcmVwLm1hZScsICctbXMnLCAnMScsICctcGgnLCAnNycsICctcGh0JywgJzAuNScsICctbnQn

> <r_lp_tautomer_probability>
1

> <r_epik_Ionization_Penalty>
  0.0000

> <r_epik_Ionization_Penalty_Charging>
  0.0000

> <r_epik_Ionization_Penalty_Neutral>
  0.0000

> <r_epik_State_Penalty>
 -0.0000

> <r_epik_Charging_Adjusted_Penalty>
0

> <i_epik_Tot_Q>
0

> <i_epik_Tot_abs_Q>
0

> <s_epik_Chemistry_Notes>
This compound contains an acetal/aminal-like group ( X-CH(R)-Y where X, Y are N, S, or O) that may be acid/base labile, releasing an aldehyde.

$$$$
