1jm4_ligand
                    3D
 Schrodinger Suite 2020-3.
211211  0  0  1  0            999 V2000
  -20.4530    3.5100   -9.0650 N   0  3  0  0  0  0
  -19.8910    4.8830   -9.1900 C   0  0  2  0  0  0
  -18.5690    4.9890   -8.4270 C   0  0  0  0  0  0
  -18.5460    5.0430   -7.2130 O   0  0  0  0  0  0
  -20.9430    5.7970   -8.5580 C   0  0  0  0  0  0
  -21.2300    6.8700   -9.4420 O   0  0  0  0  0  0
  -17.4680    5.0220   -9.1270 N   0  0  0  0  0  0
  -16.1500    5.1280   -8.4380 C   0  0  2  0  0  0
  -16.0150    4.0370   -7.3730 C   0  0  0  0  0  0
  -16.8390    3.1490   -7.2730 O   0  0  0  0  0  0
  -16.1620    6.5110   -7.7840 C   0  0  0  0  0  0
  -15.4110    7.4900   -8.6540 C   0  0  0  0  0  0
  -14.0390    7.3190   -8.8780 C   0  0  0  0  0  0
  -16.0840    8.5740   -9.2320 C   0  0  0  0  0  0
  -13.3410    8.2280   -9.6820 C   0  0  0  0  0  0
  -15.3860    9.4830  -10.0370 C   0  0  0  0  0  0
  -14.0150    9.3110  -10.2620 C   0  0  0  0  0  0
  -13.3270   10.2070  -11.0550 O   0  0  0  0  0  0
  -14.9790    4.0930   -6.5790 N   0  0  0  0  0  0
  -14.7890    3.0600   -5.5190 C   0  0  0  0  0  0
  -16.0420    2.9840   -4.6470 C   0  0  0  0  0  0
  -17.0320    3.6390   -4.9060 O   0  0  0  0  0  0
  -16.0110    2.1860   -3.6150 N   0  0  0  0  0  0
  -17.2000    2.0810   -2.7230 C   0  0  2  0  0  0
  -16.7540    1.9890   -1.2650 C   0  0  0  0  0  0
  -17.0440    2.8530   -0.4610 O   0  0  0  0  0  0
  -17.9080    0.7930   -3.1470 C   0  0  0  0  0  0
  -19.3180    0.7740   -2.5520 C   0  0  0  0  0  0
  -20.1190    1.9550   -3.1050 C   0  0  0  0  0  0
  -21.3720    1.3470   -3.6460 N   0  0  0  0  0  0
  -22.4180    2.0920   -3.9220 C   0  0  0  0  0  0
  -22.3920    3.3890   -3.7330 N   0  0  0  0  0  0
  -23.4990    1.5330   -4.3930 N   0  0  0  0  0  0
  -10.3000   -1.7090    2.2530 O   0  0  0  0  0  0
  -10.2050   -0.9330    1.3230 C   0  0  0  0  0  0
   -8.8560   -0.3230    0.9350 C   0  0  0  0  0  0
  -11.2600   -0.5290    0.6690 N   0  0  0  0  0  0
  -12.1480    0.5040    1.2660 C   0  0  0  0  0  0
  -12.1020    1.6700    0.2760 C   0  0  0  0  0  0
  -13.4720    1.8530   -0.3920 C   0  0  0  0  0  0
  -14.5730    1.9660    0.6700 C   0  0  0  0  0  0
  -15.5650    0.8140    0.4870 C   0  0  2  0  0  0
  -16.0410    0.9520   -0.9180 N   0  0  0  0  0  0
  -16.7390    0.9440    1.4600 C   0  0  0  0  0  0
  -16.7850    1.8390    2.2800 O   0  0  0  0  0  0
  -17.6940    0.0580    1.3640 N   0  0  0  0  0  0
  -18.8740    0.1240    2.2710 C   0  0  2  0  0  0
  -19.1560   -1.2530    2.8760 C   0  0  0  0  0  0
  -18.2830   -2.0940    2.9600 O   0  0  0  0  0  0
  -20.0330    0.5600    1.3680 C   0  0  0  0  0  0
  -20.2780   -0.5040    0.2940 C   0  0  0  0  0  0
  -21.3860   -0.0320   -0.6510 C   0  0  0  0  0  0
  -22.7430   -0.1650    0.0430 C   0  0  0  0  0  0
  -23.1880    1.2370    0.2830 N   0  3  0  0  0  0
  -20.3690   -1.4950    3.2910 N   0  0  0  0  0  0
  -20.7020   -2.8230    3.8780 C   0  0  2  0  0  0
  -20.7710   -3.8820    2.7750 C   0  0  0  0  0  0
  -20.5930   -3.5880    1.6090 O   0  0  0  0  0  0
  -22.0760   -2.6360    4.5250 C   0  0  0  0  0  0
  -21.9440   -1.7260    5.7500 C   0  0  0  0  0  0
  -21.0680   -2.4090    6.8030 C   0  0  0  0  0  0
  -21.5670   -1.8900    8.1120 N   0  0  0  0  0  0
  -22.7550   -2.2230    8.5600 C   0  0  0  0  0  0
  -23.5390   -3.0180    7.8740 N   0  0  0  0  0  0
  -23.1630   -1.7550    9.7080 N   0  0  0  0  0  0
  -21.0240   -5.1110    3.1310 N   0  0  0  0  0  0
  -21.1000   -6.1820    2.0980 C   0  0  2  0  0  0
  -22.4640   -6.1580    1.4060 C   0  0  0  0  0  0
  -23.4930   -6.3100    2.0350 O   0  0  0  0  0  0
  -20.9170   -7.4890    2.8690 C   0  0  0  0  0  0
  -19.6850   -8.2250    2.3370 C   0  0  0  0  0  0
  -19.9350   -9.7330    2.3790 C   0  0  0  0  0  0
  -18.6850  -10.3430    1.8370 N   0  0  0  0  0  0
  -18.6360  -11.6190    1.5300 C   0  0  0  0  0  0
  -19.6810  -12.3930    1.6890 N   0  0  0  0  0  0
  -17.5290  -12.1240    1.0580 N   0  0  0  0  0  0
  -22.4800   -5.9690    0.1160 N   0  0  0  0  0  0
  -23.7760   -5.9350   -0.6180 C   0  0  2  0  0  0
  -24.5060   -7.2720   -0.4700 C   0  0  0  0  0  0
  -24.1520   -8.2560   -1.0880 O   0  0  0  0  0  0
  -23.3870   -5.6970   -2.0780 C   0  0  0  0  0  0
  -24.6330   -5.7750   -2.9650 C   0  0  0  0  0  0
  -24.7800   -4.4730   -3.7540 C   0  0  0  0  0  0
  -25.7000   -3.7120   -3.5280 O   0  0  0  0  0  0
  -23.9060   -4.1820   -4.6780 N   0  0  0  0  0  0
  -25.5280   -7.3120    0.3390 N   0  0  0  0  0  0
  -26.2830   -8.5830    0.5230 C   0  0  2  0  0  0
  -27.2020   -8.8340   -0.6740 C   0  0  0  0  0  0
  -28.1920   -8.1550   -0.8610 O   0  0  0  0  0  0
  -27.1080   -8.3650    1.7920 C   0  0  0  0  0  0
  -27.5180   -9.7200    2.3710 C   0  0  0  0  0  0
  -28.5320  -10.3870    1.4390 C   0  0  0  0  0  0
  -29.5360  -11.0110    2.3500 N   0  0  0  0  0  0
  -29.2640  -12.1240    2.9920 C   0  0  0  0  0  0
  -28.1050  -12.7190    2.8520 N   0  0  0  0  0  0
  -30.1630  -12.6450    3.7810 N   0  0  0  0  0  0
  -26.8830   -9.8040   -1.4860 N   0  0  0  0  0  0
  -27.7410  -10.0960   -2.6690 C   0  0  2  0  0  0
  -28.6650  -11.2800   -2.3770 C   0  0  0  0  0  0
  -28.7470  -12.1630   -3.2150 O   0  0  0  0  0  0
  -26.7590  -10.4500   -3.7890 C   0  0  0  0  0  0
  -26.1780   -8.9310   -4.5840 S   0  0  0  0  0  0
  -29.3220  -11.2530   -1.3490 O   0  0  0  0  0  0
  -19.7497    2.7849   -9.5005 H   0  0  0  0  0  0
  -21.4128    3.4566   -9.5998 H   0  0  0  0  0  0
  -20.6117    3.2741   -8.0024 H   0  0  0  0  0  0
  -19.6887    5.1276  -10.2432 H   0  0  0  0  0  0
  -21.8616    5.2224   -8.3684 H   0  0  0  0  0  0
  -20.5582    6.1971   -7.6084 H   0  0  0  0  0  0
  -21.9678    7.6347   -9.1575 H   0  0  0  0  0  0
  -17.5122    4.9716  -10.2250 H   0  0  0  0  0  0
  -15.3225    4.9992   -9.1512 H   0  0  0  0  0  0
  -17.2013    6.8511   -7.6646 H   0  0  0  0  0  0
  -15.6791    6.4542   -6.7973 H   0  0  0  0  0  0
  -13.5142    6.4774   -8.4259 H   0  0  0  0  0  0
  -17.1509    8.7101   -9.0553 H   0  0  0  0  0  0
  -12.2736    8.0934   -9.8568 H   0  0  0  0  0  0
  -15.9106   10.3250  -10.4886 H   0  0  0  0  0  0
  -12.2498   10.0711  -11.2313 H   0  0  0  0  0  0
  -14.2456    4.9048   -6.6936 H   0  0  0  0  0  0
  -14.6104    2.0814   -5.9885 H   0  0  0  0  0  0
  -13.9248    3.3302   -4.8944 H   0  0  0  0  0  0
  -15.1100    1.5917   -3.4028 H   0  0  0  0  0  0
  -17.8443    2.9671   -2.8217 H   0  0  0  0  0  0
  -17.9701    0.7530   -4.2445 H   0  0  0  0  0  0
  -17.3409   -0.0751   -2.7799 H   0  0  0  0  0  0
  -19.8176   -0.1678   -2.8230 H   0  0  0  0  0  0
  -19.2549    0.8536   -1.4567 H   0  0  0  0  0  0
  -20.3291    2.6675   -2.2937 H   0  0  0  0  0  0
  -19.5367    2.4566   -3.8919 H   0  0  0  0  0  0
  -21.4270    0.2619   -3.8181 H   0  0  0  0  0  0
  -21.4852    3.8689   -3.3364 H   0  0  0  0  0  0
  -23.2770    3.9973   -3.9710 H   0  0  0  0  0  0
  -23.5300    0.4454   -4.5548 H   0  0  0  0  0  0
   -8.0639   -0.7541    1.5649 H   0  0  0  0  0  0
   -8.8901    0.7665    1.0831 H   0  0  0  0  0  0
   -8.6445   -0.5430   -0.1218 H   0  0  0  0  0  0
  -11.4933   -0.9497   -0.3202 H   0  0  0  0  0  0
  -13.1643    0.0968    1.3723 H   0  0  0  0  0  0
  -11.7627    0.7913    2.2555 H   0  0  0  0  0  0
  -11.8356    2.5941    0.8100 H   0  0  0  0  0  0
  -11.3486    1.4639   -0.4985 H   0  0  0  0  0  0
  -13.4642    2.7701   -0.9993 H   0  0  0  0  0  0
  -13.6838    0.9877   -1.0373 H   0  0  0  0  0  0
  -14.1228    1.9112    1.6721 H   0  0  0  0  0  0
  -15.0961    2.9268    0.5551 H   0  0  0  0  0  0
  -15.1083   -0.1717    0.6598 H   0  0  0  0  0  0
  -15.7916    0.1806   -1.6615 H   0  0  0  0  0  0
  -17.6243   -0.7393    0.6094 H   0  0  0  0  0  0
  -18.6937    0.8198    3.1036 H   0  0  0  0  0  0
  -20.9430    0.6837    1.9735 H   0  0  0  0  0  0
  -19.7817    1.5155    0.8844 H   0  0  0  0  0  0
  -19.3531   -0.6666   -0.2787 H   0  0  0  0  0  0
  -20.5826   -1.4459    0.7737 H   0  0  0  0  0  0
  -21.2145    1.0207   -0.9202 H   0  0  0  0  0  0
  -21.3789   -0.6491   -1.5616 H   0  0  0  0  0  0
  -23.4394   -0.7066   -0.6141 H   0  0  0  0  0  0
  -22.6204   -0.7203    0.9846 H   0  0  0  0  0  0
  -24.1670    1.2302    0.7845 H   0  0  0  0  0  0
  -23.2722    1.7646   -0.6785 H   0  0  0  0  0  0
  -22.4532    1.7509    0.9202 H   0  0  0  0  0  0
  -21.1453   -0.7201    3.2079 H   0  0  0  0  0  0
  -19.9340   -3.1385    4.5996 H   0  0  0  0  0  0
  -22.7635   -2.1767    3.7994 H   0  0  0  0  0  0
  -22.4711   -3.6144    4.8359 H   0  0  0  0  0  0
  -21.4818   -0.7736    5.4511 H   0  0  0  0  0  0
  -22.9411   -1.5330    6.1726 H   0  0  0  0  0  0
  -21.1856   -3.5000    6.7261 H   0  0  0  0  0  0
  -20.0147   -2.1409    6.6336 H   0  0  0  0  0  0
  -20.9364   -1.2194    8.7142 H   0  0  0  0  0  0
  -23.2050   -3.4181    6.9053 H   0  0  0  0  0  0
  -24.5311   -3.2853    8.2669 H   0  0  0  0  0  0
  -22.5129   -1.0869   10.2920 H   0  0  0  0  0  0
  -21.1811   -5.3575    4.1914 H   0  0  0  0  0  0
  -20.3316   -6.0346    1.3248 H   0  0  0  0  0  0
  -20.7798   -7.2681    3.9378 H   0  0  0  0  0  0
  -21.8078   -8.1206    2.7366 H   0  0  0  0  0  0
  -19.4916   -7.9140    1.2998 H   0  0  0  0  0  0
  -18.8134   -7.9801    2.9618 H   0  0  0  0  0  0
  -20.1235  -10.0446    3.4170 H   0  0  0  0  0  0
  -20.8097   -9.9771    1.7583 H   0  0  0  0  0  0
  -17.7890   -9.7221    1.6900 H   0  0  0  0  0  0
  -20.6185  -11.9766    2.0861 H   0  0  0  0  0  0
  -19.6209  -13.4592    1.4254 H   0  0  0  0  0  0
  -16.6462  -11.4822    0.9209 H   0  0  0  0  0  0
  -21.5348   -5.8346   -0.4304 H   0  0  0  0  0  0
  -24.4365   -5.1514   -0.2183 H   0  0  0  0  0  0
  -22.9305   -4.7012   -2.1782 H   0  0  0  0  0  0
  -22.6657   -6.4646   -2.3951 H   0  0  0  0  0  0
  -24.5330   -6.6181   -3.6644 H   0  0  0  0  0  0
  -25.5225   -5.9245   -2.3354 H   0  0  0  0  0  0
  -23.0728   -4.8703   -4.8833 H   0  0  0  0  0  0
  -24.0023   -3.2484   -5.2517 H   0  0  0  0  0  0
  -25.8326   -6.4073    0.8855 H   0  0  0  0  0  0
  -25.5981   -9.4403    0.6006 H   0  0  0  0  0  0
  -26.5055   -7.8169    2.5314 H   0  0  0  0  0  0
  -28.0085   -7.7822    1.5483 H   0  0  0  0  0  0
  -26.6298  -10.3619    2.4662 H   0  0  0  0  0  0
  -27.9721   -9.5730    3.3620 H   0  0  0  0  0  0
  -28.9890   -9.6259    0.7895 H   0  0  0  0  0  0
  -28.0213  -11.1390    0.8195 H   0  0  0  0  0  0
  -30.5193  -10.5385    2.4910 H   0  0  0  0  0  0
  -27.3413  -12.2866    2.1888 H   0  0  0  0  0  0
  -27.8957  -13.6509    3.3977 H   0  0  0  0  0  0
  -31.1386  -12.1521    3.9043 H   0  0  0  0  0  0
  -25.9818  -10.4061   -1.2982 H   0  0  0  0  0  0
  -28.3760   -9.2322   -2.9151 H   0  0  0  0  0  0
  -25.9014  -10.9939   -3.3663 H   0  0  0  0  0  0
  -27.2642  -11.0833   -4.5331 H   0  0  0  0  0  0
  -25.4615   -8.9855   -5.4168 H   0  0  0  0  0  0
  -29.9972  -12.0866   -1.1058 H   0  0  0  0  0  0
  1  2  1  0  0  0
  1104  1  0  0  0
  1105  1  0  0  0
  1106  1  0  0  0
  2  3  1  0  0  0
  2  5  1  0  0  0
  2107  1  0  0  0
  3  4  2  0  0  0
  3  7  1  0  0  0
  5  6  1  0  0  0
  5108  1  0  0  0
  5109  1  0  0  0
  6110  1  0  0  0
  7  8  1  0  0  0
  7111  1  0  0  0
  8  9  1  0  0  0
  8 11  1  0  0  0
  8112  1  0  0  0
  9 10  2  0  0  0
  9 19  1  0  0  0
 11 12  1  0  0  0
 11113  1  0  0  0
 11114  1  0  0  0
 12 13  2  0  0  0
 12 14  1  0  0  0
 13 15  1  0  0  0
 13115  1  0  0  0
 14 16  2  0  0  0
 14116  1  0  0  0
 15 17  2  0  0  0
 15117  1  0  0  0
 16 17  1  0  0  0
 16118  1  0  0  0
 17 18  1  0  0  0
 18119  1  0  0  0
 19 20  1  0  0  0
 19120  1  0  0  0
 20 21  1  0  0  0
 20121  1  0  0  0
 20122  1  0  0  0
 21 22  2  0  0  0
 21 23  1  0  0  0
 23 24  1  0  0  0
 23123  1  0  0  0
 24 25  1  0  0  0
 24 27  1  0  0  0
 24124  1  0  0  0
 25 26  2  0  0  0
 25 43  1  0  0  0
 27 28  1  0  0  0
 27125  1  0  0  0
 27126  1  0  0  0
 28 29  1  0  0  0
 28127  1  0  0  0
 28128  1  0  0  0
 29 30  1  0  0  0
 29129  1  0  0  0
 29130  1  0  0  0
 30 31  1  0  0  0
 30131  1  0  0  0
 31 32  1  0  0  0
 31 33  2  0  0  0
 32132  1  0  0  0
 32133  1  0  0  0
 33134  1  0  0  0
 34 35  2  0  0  0
 35 36  1  0  0  0
 35 37  1  0  0  0
 36135  1  0  0  0
 36136  1  0  0  0
 36137  1  0  0  0
 37 38  1  0  0  0
 37138  1  0  0  0
 38 39  1  0  0  0
 38139  1  0  0  0
 38140  1  0  0  0
 39 40  1  0  0  0
 39141  1  0  0  0
 39142  1  0  0  0
 40 41  1  0  0  0
 40143  1  0  0  0
 40144  1  0  0  0
 41 42  1  0  0  0
 41145  1  0  0  0
 41146  1  0  0  0
 42 43  1  0  0  0
 42 44  1  0  0  0
 42147  1  0  0  0
 43148  1  0  0  0
 44 45  2  0  0  0
 44 46  1  0  0  0
 46 47  1  0  0  0
 46149  1  0  0  0
 47 48  1  0  0  0
 47 50  1  0  0  0
 47150  1  0  0  0
 48 49  2  0  0  0
 48 55  1  0  0  0
 50 51  1  0  0  0
 50151  1  0  0  0
 50152  1  0  0  0
 51 52  1  0  0  0
 51153  1  0  0  0
 51154  1  0  0  0
 52 53  1  0  0  0
 52155  1  0  0  0
 52156  1  0  0  0
 53 54  1  0  0  0
 53157  1  0  0  0
 53158  1  0  0  0
 54159  1  0  0  0
 54160  1  0  0  0
 54161  1  0  0  0
 55 56  1  0  0  0
 55162  1  0  0  0
 56 57  1  0  0  0
 56 59  1  0  0  0
 56163  1  0  0  0
 57 58  2  0  0  0
 57 66  1  0  0  0
 59 60  1  0  0  0
 59164  1  0  0  0
 59165  1  0  0  0
 60 61  1  0  0  0
 60166  1  0  0  0
 60167  1  0  0  0
 61 62  1  0  0  0
 61168  1  0  0  0
 61169  1  0  0  0
 62 63  1  0  0  0
 62170  1  0  0  0
 63 64  1  0  0  0
 63 65  2  0  0  0
 64171  1  0  0  0
 64172  1  0  0  0
 65173  1  0  0  0
 66 67  1  0  0  0
 66174  1  0  0  0
 67 68  1  0  0  0
 67 70  1  0  0  0
 67175  1  0  0  0
 68 69  2  0  0  0
 68 77  1  0  0  0
 70 71  1  0  0  0
 70176  1  0  0  0
 70177  1  0  0  0
 71 72  1  0  0  0
 71178  1  0  0  0
 71179  1  0  0  0
 72 73  1  0  0  0
 72180  1  0  0  0
 72181  1  0  0  0
 73 74  1  0  0  0
 73182  1  0  0  0
 74 75  1  0  0  0
 74 76  2  0  0  0
 75183  1  0  0  0
 75184  1  0  0  0
 76185  1  0  0  0
 77 78  1  0  0  0
 77186  1  0  0  0
 78 79  1  0  0  0
 78 81  1  0  0  0
 78187  1  0  0  0
 79 80  2  0  0  0
 79 86  1  0  0  0
 81 82  1  0  0  0
 81188  1  0  0  0
 81189  1  0  0  0
 82 83  1  0  0  0
 82190  1  0  0  0
 82191  1  0  0  0
 83 84  2  0  0  0
 83 85  1  0  0  0
 85192  1  0  0  0
 85193  1  0  0  0
 86 87  1  0  0  0
 86194  1  0  0  0
 87 88  1  0  0  0
 87 90  1  0  0  0
 87195  1  0  0  0
 88 89  2  0  0  0
 88 97  1  0  0  0
 90 91  1  0  0  0
 90196  1  0  0  0
 90197  1  0  0  0
 91 92  1  0  0  0
 91198  1  0  0  0
 91199  1  0  0  0
 92 93  1  0  0  0
 92200  1  0  0  0
 92201  1  0  0  0
 93 94  1  0  0  0
 93202  1  0  0  0
 94 95  1  0  0  0
 94 96  2  0  0  0
 95203  1  0  0  0
 95204  1  0  0  0
 96205  1  0  0  0
 97 98  1  0  0  0
 97206  1  0  0  0
 98 99  1  0  0  0
 98101  1  0  0  0
 98207  1  0  0  0
 99100  2  0  0  0
 99103  1  0  0  0
101102  1  0  0  0
101208  1  0  0  0
101209  1  0  0  0
102210  1  0  0  0
103211  1  0  0  0
M  CHG  2   1   1  54   1
M  END
> <s_m_source_file>
../1jm4_ligand.sdf

> <i_m_source_file_index>
1

> <s_epik_input>
W2NIXTFbY0hdYyhbT0hdKVtjSF1bY0hdYzFbQ0gyXVtDQEhdKFtOSF1DKD1PKVtDQEBIXShbTkgzK10pW0NIMl1bT0hdKUMoPU8pW05IXVtDSDJdQyg9TylbTkhdW0NAQEhdKFtDSDJdW0NIMl1bQ0gyXVtOSF0vQyhbTkgyXSk9TlxbSF0pQyg9TylbTkhdW0NAQEhdKFtDSDJdW0NIMl1bQ0gyXVtDSDJdW05IXUMoPU8pW0NIM10pQyg9TylbTkhdW0NAQEhdKFtDSDJdW0NIMl1bQ0gyXVtDSDJdW05IMytdKUMoPU8pW05IXVtDQEBIXShbQ0gyXVtDSDJdW0NIMl1bTkhdL0MoW05IMl0pPU5cW0hdKUMoPU8pW05IXVtDQEBIXShbQ0gyXVtDSDJdW0NIMl1bTkhdL0MoW05IMl0pPU5cW0hdKUMoPU8pW05IXVtDQEBIXShbQ0gyXVtDSDJdQyg9TylbTkgyXSlDKD1PKVtOSF1bQ0BIXShDKD1PKVtOSF1bQ0BIXShDKD1PKVtPSF0pW0NIMl1bU0hdKVtDSDJdW0NIMl1bQ0gyXVtOSF0vQyhbTkgyXSk9TlxbSF0=

> <s_epik_cmdline>
J2VwaWtfYXBwJywgJy1pbWFlJywgJ2xpZ2FuZF9wcm8ubWFlJywgJy1vbWFlJywgJ2xpZ2FuZF9wcmVwLm1hZScsICctbXMnLCAnMScsICctcGgnLCAnNycsICctcGh0JywgJzAuNScsICctbnQn

> <s_epik_pKa_notes>
Molecule size exceeds maximum supported for generating protonation states

> <s_epik_Chemistry_Notes>
This compound has an imine and may undergo hydrolysis.

$$$$
