1jmg_ligand
                    3D
 Schrodinger Suite 2020-3.
 31 32  0  0  1  0            999 V2000
   14.5260   46.3470  -51.8600 N   0  0  0  0  0  0
   14.3340   45.0180  -51.4840 C   0  0  0  0  0  0
   13.3750   44.6470  -50.6000 N   0  0  0  0  0  0
   12.5410   45.5310  -49.9970 C   0  0  0  0  0  0
   12.7810   46.9450  -50.3880 C   0  0  0  0  0  0
   13.7920   47.3070  -51.3240 C   0  0  0  0  0  0
   15.0320   44.1060  -51.8570 O   0  0  0  0  0  0
   11.6890   45.0810  -49.2300 O   0  0  0  0  0  0
   15.4420   46.5660  -53.0430 C   0  0  1  0  0  0
   14.7730   46.4380  -54.4170 C   0  0  0  0  0  0
   15.9640   46.5030  -55.3650 C   0  0  1  0  0  0
   16.8710   47.6390  -54.8440 C   0  0  2  0  0  0
   16.6440   45.2030  -55.2310 O   0  0  0  0  0  0
   16.3720   47.7110  -53.3790 O   0  0  0  0  0  0
   16.5920   48.9570  -55.5900 C   0  0  0  0  0  0
   16.9690   48.9830  -57.0440 O   0  0  0  0  0  0
   15.8090   49.3410  -58.1310 P   0  0  0  0  0  0
   16.2060   49.3070  -59.5510 O   0  5  0  0  0  0
   14.8070   48.2890  -57.8960 O   0  0  0  0  0  0
   15.2750   50.6750  -57.8100 O   0  5  0  0  0  0
   13.2458   43.5855  -50.3420 H   0  0  0  0  0  0
   12.1652   47.7279  -49.9454 H   0  0  0  0  0  0
   13.9565   48.3507  -51.5919 H   0  0  0  0  0  0
   16.0636   45.8087  -52.5429 H   0  0  0  0  0  0
   14.2318   45.4820  -54.4736 H   0  0  0  0  0  0
   14.0660   47.2686  -54.5594 H   0  0  0  0  0  0
   15.7027   46.6541  -56.4228 H   0  0  0  0  0  0
   17.9514   47.4761  -54.9710 H   0  0  0  0  0  0
   16.1383   44.2817  -55.5558 H   0  0  0  0  0  0
   15.5157   49.1805  -55.5495 H   0  0  0  0  0  0
   17.1543   49.7739  -55.1140 H   0  0  0  0  0  0
  1  2  1  0  0  0
  1  6  1  0  0  0
  1  9  1  0  0  0
  2  3  1  0  0  0
  2  7  2  0  0  0
  3  4  1  0  0  0
  3 21  1  0  0  0
  4  5  1  0  0  0
  4  8  2  0  0  0
  5  6  2  0  0  0
  5 22  1  0  0  0
  6 23  1  0  0  0
  9 10  1  0  0  0
  9 14  1  0  0  0
  9 24  1  0  0  0
 10 11  1  0  0  0
 10 25  1  0  0  0
 10 26  1  0  0  0
 11 12  1  0  0  0
 11 13  1  0  0  0
 11 27  1  0  0  0
 12 14  1  0  0  0
 12 15  1  0  0  0
 12 28  1  0  0  0
 13 29  1  0  0  0
 15 16  1  0  0  0
 15 30  1  0  0  0
 15 31  1  0  0  0
 16 17  1  0  0  0
 17 18  1  0  0  0
 17 19  2  0  0  0
 17 20  1  0  0  0
M  CHG  2  18  -1  20  -1
M  END
> <s_m_source_file>
../1jmg_ligand.sdf

> <i_m_source_file_index>
1

> <s_epik_input>
W2NIXTFbY0hdYyg9TylbbkhdYyg9TyluMVtDQEhdMltDSDJdW0NASF0oW09IXSlbQ0BIXShPMilbQ0gyXU9QKD1PKShbT0hdKVtPSF0=

> <s_epik_cmdline>
J2VwaWtfYXBwJywgJy1pbWFlJywgJ2xpZ2FuZF9wcm8ubWFlJywgJy1vbWFlJywgJ2xpZ2FuZF9wcmVwLm1hZScsICctbXMnLCAnMScsICctcGgnLCAnNycsICctcGh0JywgJzAuNScsICctbnQn

> <r_lp_tautomer_probability>
0.999537046341301

> <r_epik_Ionization_Penalty>
  0.1102

> <r_epik_Ionization_Penalty_Charging>
  0.1102

> <r_epik_Ionization_Penalty_Neutral>
  0.0000

> <r_epik_State_Penalty>
  0.0980

> <r_epik_Charging_Adjusted_Penalty>
0.208182664404309

> <i_epik_Tot_Q>
-2

> <i_epik_Tot_abs_Q>
2

> <s_epik_Chemistry_Notes>
This compound contains an acetal/aminal-like group ( X-CH(R)-Y where X, Y are N, S, or O) that may be acid/base labile, releasing an aldehyde.

$$$$
