1jmi_ligand
                    3D
 Schrodinger Suite 2020-3.
 31 32  0  0  1  0            999 V2000
   14.8600   48.3380  -53.4820 N   0  0  0  0  0  0
   14.0410   47.2650  -53.1280 C   0  0  0  0  0  0
   13.1860   47.4460  -52.0390 N   0  0  0  0  0  0
   13.0820   48.6310  -51.2710 C   0  0  0  0  0  0
   13.9870   49.7100  -51.7270 C   0  0  0  0  0  0
   14.8520   49.5050  -52.8300 C   0  0  0  0  0  0
   14.0330   46.1960  -53.7230 O   0  0  0  0  0  0
   12.2980   48.6870  -50.3110 O   0  0  0  0  0  0
   15.7730   48.1980  -54.6410 C   0  0  1  0  0  0
   15.0830   47.9110  -55.9750 C   0  0  0  0  0  0
   16.2260   48.0430  -56.9720 C   0  0  1  0  0  0
   16.9760   49.3170  -56.5820 C   0  0  2  0  0  0
   17.1100   46.9480  -56.7710 O   0  0  0  0  0  0
   16.7550   49.2890  -55.0750 O   0  0  0  0  0  0
   16.3040   50.5400  -57.2200 C   0  0  0  0  0  0
   16.6210   50.4450  -58.6500 O   0  0  0  0  0  0
   15.8220   51.0300  -59.8540 P   0  0  0  0  0  0
   16.6910   51.4420  -60.9390 O   0  0  0  0  0  0
   15.0160   49.9170  -60.3630 O   0  5  0  0  0  0
   15.0070   52.2210  -59.4490 O   0  5  0  0  0  0
   12.5233   46.6287  -51.7182 H   0  0  0  0  0  0
   13.9878   50.6697  -51.2101 H   0  0  0  0  0  0
   15.5175   50.3066  -53.1502 H   0  0  0  0  0  0
   16.3052   47.3890  -54.1191 H   0  0  0  0  0  0
   14.6496   46.9002  -55.9536 H   0  0  0  0  0  0
   14.2843   48.6489  -56.1409 H   0  0  0  0  0  0
   15.9012   48.0119  -58.0225 H   0  0  0  0  0  0
   18.0309   49.3677  -56.8895 H   0  0  0  0  0  0
   16.7752   45.9234  -56.9905 H   0  0  0  0  0  0
   15.2195   50.4975  -57.0409 H   0  0  0  0  0  0
   16.7137   51.4581  -56.7735 H   0  0  0  0  0  0
  1  2  1  0  0  0
  1  6  1  0  0  0
  1  9  1  0  0  0
  2  3  1  0  0  0
  2  7  2  0  0  0
  3  4  1  0  0  0
  3 21  1  0  0  0
  4  5  1  0  0  0
  4  8  2  0  0  0
  5  6  2  0  0  0
  5 22  1  0  0  0
  6 23  1  0  0  0
  9 10  1  0  0  0
  9 14  1  0  0  0
  9 24  1  0  0  0
 10 11  1  0  0  0
 10 25  1  0  0  0
 10 26  1  0  0  0
 11 12  1  0  0  0
 11 13  1  0  0  0
 11 27  1  0  0  0
 12 14  1  0  0  0
 12 15  1  0  0  0
 12 28  1  0  0  0
 13 29  1  0  0  0
 15 16  1  0  0  0
 15 30  1  0  0  0
 15 31  1  0  0  0
 16 17  1  0  0  0
 17 18  2  0  0  0
 17 19  1  0  0  0
 17 20  1  0  0  0
M  CHG  2  19  -1  20  -1
M  END
> <s_m_source_file>
../1jmi_ligand.sdf

> <i_m_source_file_index>
1

> <s_epik_input>
W2NIXTFbY0hdYyg9TylbbkhdYyg9TyluMVtDQEhdMltDSDJdW0NASF0oW09IXSlbQ0BIXShPMilbQ0gyXU9QKD1PKShbT0hdKVtPSF0=

> <s_epik_cmdline>
J2VwaWtfYXBwJywgJy1pbWFlJywgJ2xpZ2FuZF9wcm8ubWFlJywgJy1vbWFlJywgJ2xpZ2FuZF9wcmVwLm1hZScsICctbXMnLCAnMScsICctcGgnLCAnNycsICctcGh0JywgJzAuNScsICctbnQn

> <r_lp_tautomer_probability>
0.999537046341301

> <r_epik_Ionization_Penalty>
  0.1102

> <r_epik_Ionization_Penalty_Charging>
  0.1102

> <r_epik_Ionization_Penalty_Neutral>
  0.0000

> <r_epik_State_Penalty>
  0.0980

> <r_epik_Charging_Adjusted_Penalty>
0.208182664404309

> <i_epik_Tot_Q>
-2

> <i_epik_Tot_abs_Q>
2

> <s_epik_Chemistry_Notes>
This compound contains an acetal/aminal-like group ( X-CH(R)-Y where X, Y are N, S, or O) that may be acid/base labile, releasing an aldehyde.

$$$$
