1jmq_ligand
                    3D
 Schrodinger Suite 2020-3.
138142  0  0  1  0            999 V2000
  -14.1710   -0.1780    9.4930 N   0  3  0  0  0  0
  -13.3380   -1.3410    9.9110 C   0  0  0  0  0  0
  -13.7270   -2.5710    9.0890 C   0  0  0  0  0  0
  -14.8890   -2.9040    8.9640 O   0  0  0  0  0  0
  -12.7640   -3.2490    8.5270 N   0  0  0  0  0  0
  -13.0800   -4.4580    7.7120 C   0  0  2  0  0  0
  -11.7860   -5.1520    7.2690 C   0  0  0  0  0  0
  -10.7640   -4.5110    7.1190 O   0  0  0  0  0  0
  -13.8470   -3.9270    6.5000 C   0  0  2  0  0  0
  -14.1470   -5.0030    5.6230 O   0  0  0  0  0  0
  -12.9930   -2.8920    5.7670 C   0  0  0  0  0  0
  -11.8670   -6.4460    7.0720 N   0  0  0  0  0  0
  -10.6770   -7.2210    6.6410 C   0  0  2  0  0  0
  -10.3370   -6.9110    5.1770 C   0  0  0  0  0  0
  -11.1890   -6.4810    4.4250 O   0  0  0  0  0  0
  -11.1150   -8.6730    6.8010 C   0  0  0  0  0  0
  -12.6070   -8.6410    6.7000 C   0  0  0  0  0  0
  -13.0540   -7.3020    7.2270 C   0  0  0  0  0  0
   -9.0970   -7.1400    4.8160 N   0  0  0  0  0  0
   -8.6480   -6.8780    3.4230 C   0  0  2  0  0  0
   -9.3320   -7.8350    2.4360 C   0  0  0  0  0  0
  -10.0190   -8.7520    2.8410 O   0  0  0  0  0  0
   -7.1420   -7.1260    3.4790 C   0  0  0  0  0  0
   -6.9530   -8.0430    4.6430 C   0  0  0  0  0  0
   -8.0030   -7.6620    5.6500 C   0  0  0  0  0  0
   -9.1240   -7.5850    1.1640 N   0  0  0  0  0  0
   -9.7360   -8.4350    0.1100 C   0  0  2  0  0  0
   -9.0870   -9.8280    0.0930 C   0  0  0  0  0  0
   -8.1410  -10.0740    0.8150 O   0  0  0  0  0  0
   -9.4530   -7.6640   -1.1810 C   0  0  0  0  0  0
   -8.2560   -6.8260   -0.8800 C   0  0  0  0  0  0
   -8.3080   -6.5030    0.5900 C   0  0  0  0  0  0
   -9.6250  -10.7040   -0.7270 N   0  0  0  0  0  0
   -9.0910  -12.0890   -0.8210 C   0  0  2  0  0  0
   -7.7820  -12.1450   -1.6260 C   0  0  0  0  0  0
   -7.2660  -13.2110   -1.8950 O   0  0  0  0  0  0
  -10.1950  -12.8490   -1.5480 C   0  0  0  0  0  0
  -10.9340  -11.8150   -2.3380 C   0  0  0  0  0  0
  -10.7710  -10.4950   -1.6280 C   0  0  0  0  0  0
   -7.2420  -11.0190   -2.0140 N   0  0  0  0  0  0
   -5.9690  -11.0220   -2.7980 C   0  0  2  0  0  0
   -6.1320  -11.8310   -4.0880 C   0  0  0  0  0  0
   -7.0540  -12.6070   -4.2370 O   0  0  0  0  0  0
   -4.9210  -11.6730   -1.8890 C   0  0  0  0  0  0
   -3.5660  -11.5680   -2.5450 C   0  0  0  0  0  0
   -2.7330  -10.4780   -2.2650 C   0  0  0  0  0  0
   -3.1460  -12.5580   -3.4400 C   0  0  0  0  0  0
   -1.4810  -10.3790   -2.8810 C   0  0  0  0  0  0
   -1.8940  -12.4600   -4.0550 C   0  0  0  0  0  0
   -1.0610  -11.3700   -3.7760 C   0  0  0  0  0  0
    0.1740  -11.2740   -4.3830 O   0  0  0  0  0  0
   -5.2360  -11.6510   -5.0200 N   0  0  0  0  0  0
   -5.3270  -12.4040   -6.3040 C   0  0  2  0  0  0
   -3.9830  -12.3700   -7.0310 C   0  0  0  0  0  0
   -2.9910  -11.9050   -6.5040 O   0  0  0  0  0  0
   -6.3910  -11.6740   -7.1240 C   0  0  2  0  0  0
   -6.3670  -10.2880   -6.8100 O   0  0  0  0  0  0
   -7.7650  -12.2500   -6.7970 C   0  0  0  0  0  0
   -3.9420  -12.8560   -8.2410 N   0  0  0  0  0  0
   -2.6630  -12.8470   -9.0030 C   0  0  2  0  0  0
   -2.8930  -13.3510  -10.4300 C   0  0  0  0  0  0
   -2.4200  -14.4040  -10.8100 O   0  0  0  0  0  0
   -1.7370  -13.7960   -8.2400 C   0  0  0  0  0  0
   -2.3760  -15.1840   -8.1690 C   0  0  0  0  0  0
   -0.3930  -13.8890   -8.9650 C   0  0  0  0  0  0
   -3.6150  -12.6080  -11.2230 N   0  0  0  0  0  0
   -3.8740  -13.0450  -12.6230 C   0  0  0  0  0  0
   -4.5170  -14.4340  -12.6140 C   0  0  0  0  0  0
   -5.5860  -14.5660  -12.0420 O   0  0  0  0  0  0
   -3.9280  -15.3410  -13.1780 O   0  5  0  0  0  0
  -13.8902    0.7057   10.0848 H   0  0  0  0  0  0
  -15.2334   -0.4090    9.6603 H   0  0  0  0  0  0
  -14.0042    0.0276    8.4253 H   0  0  0  0  0  0
  -12.2756   -1.1100    9.7437 H   0  0  0  0  0  0
  -13.5048   -1.5466   10.9787 H   0  0  0  0  0  0
  -11.7193   -2.9291    8.6542 H   0  0  0  0  0  0
  -13.6653   -5.1842    8.2952 H   0  0  0  0  0  0
  -14.8199   -3.5057    6.7931 H   0  0  0  0  0  0
  -14.7563   -5.8476    5.9770 H   0  0  0  0  0  0
  -12.7615   -2.0594    6.4476 H   0  0  0  0  0  0
  -13.5462   -2.5108    4.8960 H   0  0  0  0  0  0
  -12.0569   -3.3613    5.4301 H   0  0  0  0  0  0
   -9.7908   -6.9685    7.2417 H   0  0  0  0  0  0
  -10.6670   -9.2813    6.0015 H   0  0  0  0  0  0
  -10.7824   -9.0507    7.7791 H   0  0  0  0  0  0
  -12.9061   -8.7651    5.6487 H   0  0  0  0  0  0
  -13.0328   -9.4578    7.3012 H   0  0  0  0  0  0
  -13.3371   -7.3475    8.2890 H   0  0  0  0  0  0
  -13.8869   -6.8832    6.6431 H   0  0  0  0  0  0
   -8.9073   -5.8584    3.1019 H   0  0  0  0  0  0
   -6.8111   -7.5875    2.5369 H   0  0  0  0  0  0
   -6.6180   -6.1696    3.6226 H   0  0  0  0  0  0
   -7.0796   -9.0848    4.3134 H   0  0  0  0  0  0
   -5.9419   -7.9091    5.0549 H   0  0  0  0  0  0
   -7.6597   -6.8759    6.3386 H   0  0  0  0  0  0
   -8.3631   -8.5251    6.2291 H   0  0  0  0  0  0
  -10.8101   -8.5936    0.2867 H   0  0  0  0  0  0
   -9.2547   -8.3749   -1.9966 H   0  0  0  0  0  0
  -10.3258   -7.0457   -1.4377 H   0  0  0  0  0  0
   -7.3433   -7.3896   -1.1235 H   0  0  0  0  0  0
   -8.2910   -5.9066   -1.4829 H   0  0  0  0  0  0
   -8.7932   -5.5351    0.7846 H   0  0  0  0  0  0
   -7.3097   -6.5121    1.0518 H   0  0  0  0  0  0
   -8.8621  -12.4849    0.1794 H   0  0  0  0  0  0
   -9.7461  -13.6110   -2.2021 H   0  0  0  0  0  0
  -10.8500  -13.3376   -0.8116 H   0  0  0  0  0  0
  -10.5130  -11.7588   -3.3527 H   0  0  0  0  0  0
  -11.9976  -12.0895   -2.3970 H   0  0  0  0  0  0
  -11.6603  -10.2339   -1.0356 H   0  0  0  0  0  0
  -10.5432   -9.6770   -2.3273 H   0  0  0  0  0  0
   -7.7296  -10.0661   -1.7605 H   0  0  0  0  0  0
   -5.6955   -9.9951   -3.0820 H   0  0  0  0  0  0
   -4.9041  -11.1544   -0.9190 H   0  0  0  0  0  0
   -5.1766  -12.7317   -1.7344 H   0  0  0  0  0  0
   -3.0599   -9.7070   -1.5674 H   0  0  0  0  0  0
   -3.7951  -13.4061   -3.6580 H   0  0  0  0  0  0
   -0.8325   -9.5302   -2.6641 H   0  0  0  0  0  0
   -1.5668  -13.2320   -4.7514 H   0  0  0  0  0  0
    0.8292  -10.4179   -4.1644 H   0  0  0  0  0  0
   -4.4119  -10.9411   -4.8559 H   0  0  0  0  0  0
   -5.5847  -13.4577   -6.1213 H   0  0  0  0  0  0
   -6.1800  -11.7330   -8.2020 H   0  0  0  0  0  0
   -5.4523   -9.7012   -6.9804 H   0  0  0  0  0  0
   -7.7805  -13.3225   -7.0410 H   0  0  0  0  0  0
   -8.5316  -11.7282   -7.3887 H   0  0  0  0  0  0
   -7.9737  -12.1147   -5.7255 H   0  0  0  0  0  0
   -4.8517  -13.2723   -8.6983 H   0  0  0  0  0  0
   -2.2563  -11.8272   -9.0714 H   0  0  0  0  0  0
   -1.5781  -13.4134   -7.2210 H   0  0  0  0  0  0
   -3.3423  -15.1166   -7.6477 H   0  0  0  0  0  0
   -1.7102  -15.8665   -7.6204 H   0  0  0  0  0  0
   -2.5350  -15.5670   -9.1878 H   0  0  0  0  0  0
    0.0661  -12.8907   -9.0158 H   0  0  0  0  0  0
   -0.5518  -14.2718   -9.9839 H   0  0  0  0  0  0
    0.2730  -14.5714   -8.4165 H   0  0  0  0  0  0
   -4.0325  -11.6584  -10.8571 H   0  0  0  0  0  0
   -4.5530  -12.3300  -13.1106 H   0  0  0  0  0  0
   -2.9242  -13.0845  -13.1765 H   0  0  0  0  0  0
  1  2  1  0  0  0
  1 71  1  0  0  0
  1 72  1  0  0  0
  1 73  1  0  0  0
  2  3  1  0  0  0
  2 74  1  0  0  0
  2 75  1  0  0  0
  3  4  2  0  0  0
  3  5  1  0  0  0
  5  6  1  0  0  0
  5 76  1  0  0  0
  6  7  1  0  0  0
  6  9  1  0  0  0
  6 77  1  0  0  0
  7  8  2  0  0  0
  7 12  1  0  0  0
  9 10  1  0  0  0
  9 11  1  0  0  0
  9 78  1  0  0  0
 10 79  1  0  0  0
 11 80  1  0  0  0
 11 81  1  0  0  0
 11 82  1  0  0  0
 12 13  1  0  0  0
 12 18  1  0  0  0
 13 14  1  0  0  0
 13 16  1  0  0  0
 13 83  1  0  0  0
 14 15  2  0  0  0
 14 19  1  0  0  0
 16 17  1  0  0  0
 16 84  1  0  0  0
 16 85  1  0  0  0
 17 18  1  0  0  0
 17 86  1  0  0  0
 17 87  1  0  0  0
 18 88  1  0  0  0
 18 89  1  0  0  0
 19 20  1  0  0  0
 19 25  1  0  0  0
 20 21  1  0  0  0
 20 23  1  0  0  0
 20 90  1  0  0  0
 21 22  2  0  0  0
 21 26  1  0  0  0
 23 24  1  0  0  0
 23 91  1  0  0  0
 23 92  1  0  0  0
 24 25  1  0  0  0
 24 93  1  0  0  0
 24 94  1  0  0  0
 25 95  1  0  0  0
 25 96  1  0  0  0
 26 27  1  0  0  0
 26 32  1  0  0  0
 27 28  1  0  0  0
 27 30  1  0  0  0
 27 97  1  0  0  0
 28 29  2  0  0  0
 28 33  1  0  0  0
 30 31  1  0  0  0
 30 98  1  0  0  0
 30 99  1  0  0  0
 31 32  1  0  0  0
 31100  1  0  0  0
 31101  1  0  0  0
 32102  1  0  0  0
 32103  1  0  0  0
 33 34  1  0  0  0
 33 39  1  0  0  0
 34 35  1  0  0  0
 34 37  1  0  0  0
 34104  1  0  0  0
 35 36  2  0  0  0
 35 40  1  0  0  0
 37 38  1  0  0  0
 37105  1  0  0  0
 37106  1  0  0  0
 38 39  1  0  0  0
 38107  1  0  0  0
 38108  1  0  0  0
 39109  1  0  0  0
 39110  1  0  0  0
 40 41  1  0  0  0
 40111  1  0  0  0
 41 42  1  0  0  0
 41 44  1  0  0  0
 41112  1  0  0  0
 42 43  2  0  0  0
 42 52  1  0  0  0
 44 45  1  0  0  0
 44113  1  0  0  0
 44114  1  0  0  0
 45 46  2  0  0  0
 45 47  1  0  0  0
 46 48  1  0  0  0
 46115  1  0  0  0
 47 49  2  0  0  0
 47116  1  0  0  0
 48 50  2  0  0  0
 48117  1  0  0  0
 49 50  1  0  0  0
 49118  1  0  0  0
 50 51  1  0  0  0
 51119  1  0  0  0
 52 53  1  0  0  0
 52120  1  0  0  0
 53 54  1  0  0  0
 53 56  1  0  0  0
 53121  1  0  0  0
 54 55  2  0  0  0
 54 59  1  0  0  0
 56 57  1  0  0  0
 56 58  1  0  0  0
 56122  1  0  0  0
 57123  1  0  0  0
 58124  1  0  0  0
 58125  1  0  0  0
 58126  1  0  0  0
 59 60  1  0  0  0
 59127  1  0  0  0
 60 61  1  0  0  0
 60 63  1  0  0  0
 60128  1  0  0  0
 61 62  2  0  0  0
 61 66  1  0  0  0
 63 64  1  0  0  0
 63 65  1  0  0  0
 63129  1  0  0  0
 64130  1  0  0  0
 64131  1  0  0  0
 64132  1  0  0  0
 65133  1  0  0  0
 65134  1  0  0  0
 65135  1  0  0  0
 66 67  1  0  0  0
 66136  1  0  0  0
 67 68  1  0  0  0
 67137  1  0  0  0
 67138  1  0  0  0
 68 69  2  0  0  0
 68 70  1  0  0  0
M  CHG  2   1   1  70  -1
M  END
> <s_m_source_file>
../1jmq_ligand.sdf

> <i_m_source_file_index>
1

> <s_epik_input>
W05IMytdW0NIMl1DKD1PKVtOSF1bQ0BASF0oW0NASF0oW09IXSlbQ0gzXSlDKD1PKU4xW0NAQEhdKFtDSDJdW0NIMl1bQ0gyXTEpQyg9TylOMltDQEBIXShbQ0gyXVtDSDJdW0NIMl0yKUMoPU8pTjNbQ0BASF0oW0NIMl1bQ0gyXVtDSDJdMylDKD1PKU40W0NAQEhdKFtDSDJdW0NIMl1bQ0gyXTQpQyg9TylbTkhdW0NAQEhdKFtDSDJdYzVbY0hdW2NIXWMoW09IXSlbY0hdW2NIXTUpQyg9TylbTkhdW0NAQEhdKFtDQEhdKFtPSF0pW0NIM10pQyg9TylbTkhdW0NAQEhdKFtDSF0oW0NIM10pW0NIM10pQyg9TylbTkhdW0NIMl1DKD1PKVtPSF0=

> <s_epik_cmdline>
J2VwaWtfYXBwJywgJy1pbWFlJywgJ2xpZ2FuZF9wcm8ubWFlJywgJy1vbWFlJywgJ2xpZ2FuZF9wcmVwLm1hZScsICctbXMnLCAnMScsICctcGgnLCAnNycsICctcGh0JywgJzAuNScsICctbnQn

> <r_lp_tautomer_probability>
0.999999999997365

> <r_epik_Ionization_Penalty>
  0.1269

> <r_epik_Ionization_Penalty_Charging>
  0.1261

> <r_epik_Ionization_Penalty_Neutral>
  0.0009

> <r_epik_State_Penalty>
  0.1153

> <r_epik_Charging_Adjusted_Penalty>
0.241422624858335

> <i_epik_Tot_Q>
0

> <i_epik_Tot_abs_Q>
2

$$$$
