1jn2_ligand
                    3D
 Schrodinger Suite 2020-3.
 53 55  0  0  1  0            999 V2000
   26.7480   27.5660   27.2040 C   0  0  0  0  0  0
   25.9960   27.5080   28.3980 C   0  0  0  0  0  0
   26.8860   27.4290   29.4890 N   0  0  0  0  0  0
   24.6030   27.4930   28.4970 C   0  0  0  0  0  0
   23.8700   27.4580   29.6670 C   0  0  0  0  0  0
   22.4860   27.4170   29.7550 C   0  0  0  0  0  0
   22.1440   27.4230   31.0570 C   0  0  0  0  0  0
   23.3260   27.4580   31.8240 C   0  0  0  0  0  0
   24.3970   27.4700   30.9590 N   0  0  0  0  0  0
   23.4050   27.4760   33.2090 C   0  0  0  0  0  0
   24.6030   27.4460   33.9590 C   0  0  0  0  0  0
   24.7010   27.4550   35.3610 C   0  0  0  0  0  0
   25.9070   27.3550   33.4250 N   0  0  0  0  0  0
   21.0460   28.4630   33.6140 C   0  0  0  0  0  0
   19.8510   28.4480   34.2740 C   0  0  0  0  0  0
   19.6210   27.5040   35.2930 C   0  0  0  0  0  0
   20.5910   26.5480   35.6600 C   0  0  0  0  0  0
   21.8030   26.5300   35.0020 C   0  0  0  0  0  0
   22.0530   27.4960   33.9640 C   0  0  0  0  0  0
   23.9640   26.3540   26.3180 C   0  0  0  0  0  0
   23.7750   27.4790   27.1880 C   0  0  0  0  0  0
   22.8410   28.5110   26.8480 C   0  0  0  0  0  0
   22.1130   28.3970   25.6420 C   0  0  0  0  0  0
   22.3190   27.2950   24.8070 C   0  0  0  0  0  0
   23.2370   26.2690   25.1250 C   0  0  0  0  0  0
   18.0950   27.4980   36.1410 S   0  0  0  0  0  0
   17.2430   28.5390   35.6510 O   0  0  0  0  0  0
   18.4080   27.6960   37.5150 O   0  0  0  0  0  0
   17.4300   26.1250   35.9280 O   0  5  0  0  0  0
   21.4420   27.1510   23.3080 S   0  0  0  0  0  0
   22.3500   27.4330   22.2650 O   0  0  0  0  0  0
   20.3390   28.0710   23.2660 O   0  0  0  0  0  0
   20.9530   25.7200   23.2290 O   0  5  0  0  0  0
   27.8210   27.5636   27.4460 H   0  0  0  0  0  0
   26.4975   28.4870   26.6573 H   0  0  0  0  0  0
   26.5112   26.6925   26.5788 H   0  0  0  0  0  0
   27.9720   27.4481   29.3153 H   0  0  0  0  0  0
   26.4942   27.3483   30.5137 H   0  0  0  0  0  0
   21.8773   27.3869   28.8393 H   0  0  0  0  0  0
   21.1277   27.4040   31.4505 H   0  0  0  0  0  0
   23.6942   27.5255   35.7985 H   0  0  0  0  0  0
   25.3013   28.3194   35.6810 H   0  0  0  0  0  0
   25.1842   26.5271   35.7007 H   0  0  0  0  0  0
   26.0548   27.3334   32.3352 H   0  0  0  0  0  0
   26.7751   27.3057   34.0988 H   0  0  0  0  0  0
   21.2351   29.1981   32.8317 H   0  0  0  0  0  0
   19.0748   29.1670   34.0120 H   0  0  0  0  0  0
   20.3850   25.8313   36.4550 H   0  0  0  0  0  0
   22.5624   25.7934   35.2646 H   0  0  0  0  0  0
   24.6710   25.5685   26.5850 H   0  0  0  0  0  0
   22.6948   29.3672   27.5065 H   0  0  0  0  0  0
   21.3928   29.1664   25.3637 H   0  0  0  0  0  0
   23.3769   25.4238   24.4511 H   0  0  0  0  0  0
  1  2  1  0  0  0
  1 34  1  0  0  0
  1 35  1  0  0  0
  1 36  1  0  0  0
  2  3  1  0  0  0
  2  4  2  0  0  0
  3 37  1  0  0  0
  3 38  1  0  0  0
  4  5  1  0  0  0
  4 21  1  0  0  0
  5  6  2  0  0  0
  5  9  1  0  0  0
  6  7  1  0  0  0
  6 39  1  0  0  0
  7  8  1  0  0  0
  7 40  1  0  0  0
  8  9  2  0  0  0
  8 10  1  0  0  0
 10 11  2  0  0  0
 10 19  1  0  0  0
 11 12  1  0  0  0
 11 13  1  0  0  0
 12 41  1  0  0  0
 12 42  1  0  0  0
 12 43  1  0  0  0
 13 44  1  0  0  0
 13 45  1  0  0  0
 14 15  2  0  0  0
 14 19  1  0  0  0
 14 46  1  0  0  0
 15 16  1  0  0  0
 15 47  1  0  0  0
 16 17  2  0  0  0
 16 26  1  0  0  0
 17 18  1  0  0  0
 17 48  1  0  0  0
 18 19  2  0  0  0
 18 49  1  0  0  0
 20 25  2  0  0  0
 20 21  1  0  0  0
 20 50  1  0  0  0
 21 22  2  0  0  0
 22 23  1  0  0  0
 22 51  1  0  0  0
 23 24  2  0  0  0
 23 52  1  0  0  0
 24 25  1  0  0  0
 24 30  1  0  0  0
 25 53  1  0  0  0
 26 27  2  0  0  0
 26 28  2  0  0  0
 26 29  1  0  0  0
 30 31  2  0  0  0
 30 32  2  0  0  0
 30 33  1  0  0  0
M  CHG  2  29  -1  33  -1
M  END
> <s_m_source_file>
../1jn2_ligand.sdf

> <i_m_source_file_index>
1

> <s_epik_input>
W2NIXTFbY0hdYyhTKD1PKSg9TylbT0hdKVtjSF1bY0hdYzFDKD1DKFxbQ0gzXSlbTkgyXSkvQzI9W0NIXVtDSDJdQyg9TjIpL0MoPUMoL1tDSDNdKVtOSDJdKWMoW2NIXVtjSF0zKVtjSF1bY0hdYzNTKD1PKSg9TylbT0hd

> <s_epik_cmdline>
J2VwaWtfYXBwJywgJy1pbWFlJywgJ2xpZ2FuZF9wcm8ubWFlJywgJy1vbWFlJywgJ2xpZ2FuZF9wcmVwLm1hZScsICctbXMnLCAnMScsICctcGgnLCAnNycsICctcGh0JywgJzAuNScsICctbnQn

> <r_lp_tautomer_probability>
1

> <r_epik_Ionization_Penalty>
  0.0000

> <r_epik_Ionization_Penalty_Charging>
  0.0000

> <r_epik_Ionization_Penalty_Neutral>
  0.0000

> <r_epik_State_Penalty>
 -0.0000

> <r_epik_Charging_Adjusted_Penalty>
1.27193296893506e-05

> <i_epik_Tot_Q>
-2

> <i_epik_Tot_abs_Q>
2

> <s_epik_Chemistry_Notes>
This compound has an imine and may undergo hydrolysis.

$$$$
