1jn4_ligand
                    3D
 Schrodinger Suite 2020-3.
 65 69  0  0  1  0            999 V2000
   38.2920   -4.5690   21.3040 P   0  0  1  0  0  0
   39.5180   -5.4320   21.6050 O   0  5  0  0  0  0
   38.6310   -3.1840   20.8300 O   0  0  0  0  0  0
   37.3170   -5.2440   20.2290 O   0  0  0  0  0  0
   36.6710   -3.1780   23.3400 P   0  0  1  0  0  0
   35.7040   -2.6350   22.3290 O   0  5  0  0  0  0
   36.1520   -3.7130   24.6280 O   0  0  0  0  0  0
   37.4460   -4.3870   22.6440 O   0  0  0  0  0  0
   36.2080   -6.0370   15.8320 N   0  0  0  0  0  0
   36.7040   -4.7590   15.6500 C   0  0  0  0  0  0
   37.6880   -4.1340   16.3470 N   0  0  0  0  0  0
   37.8970   -2.8860   15.8740 C   0  0  0  0  0  0
   37.2730   -2.2500   14.8570 N   0  0  0  0  0  0
   36.3030   -2.9170   14.1700 C   0  0  0  0  0  0
   35.7030   -2.3140   13.1430 N   0  0  0  0  0  0
   35.9840   -4.2330   14.5780 C   0  0  0  0  0  0
   35.0540   -5.1480   14.1080 N   0  0  0  0  0  0
   35.2170   -6.1880   14.8880 C   0  0  0  0  0  0
   36.9230   -6.6140   20.3560 C   0  0  0  0  0  0
   37.0740   -7.3420   19.0340 C   0  0  1  0  0  0
   36.1360   -6.8020   18.0740 O   0  0  0  0  0  0
   36.6090   -7.0940   16.7740 C   0  0  2  0  0  0
   38.0860   -7.5090   16.8650 C   0  0  2  0  0  0
   38.2470   -8.8820   16.5280 O   0  0  0  0  0  0
   38.4210   -7.2040   18.3290 C   0  0  2  0  0  0
   39.4730   -8.0630   18.8260 O   0  0  0  0  0  0
   39.5470    1.6130   21.9190 O   0  0  0  0  0  0
   40.1740    0.5400   22.6430 C   0  0  0  0  0  0
   39.1940   -0.0860   23.6090 C   0  0  1  0  0  0
   38.5010    0.9770   24.3210 O   0  0  0  0  0  0
   37.0970    0.8160   24.1780 C   0  0  2  0  0  0
   36.9050   -0.0220   22.9250 C   0  0  0  0  0  0
   38.1070   -0.9510   22.9570 C   0  0  2  0  0  0
   37.8550   -2.1310   23.7490 O   0  0  0  0  0  0
   36.4630    2.1460   24.0960 N   0  0  0  0  0  0
   36.9770    3.1570   23.2860 C   0  0  0  0  0  0
   35.2930    2.3490   24.8400 C   0  0  0  0  0  0
   34.8100    1.5030   25.5720 O   0  0  0  0  0  0
   34.7060    3.5830   24.6720 N   0  0  0  0  0  0
   35.1330    4.6110   23.8430 C   0  0  0  0  0  0
   34.3720    5.5600   23.6340 O   0  0  0  0  0  0
   36.3680    4.3450   23.1350 C   0  0  0  0  0  0
   38.6742   -2.3141   16.3810 H   0  0  0  0  0  0
   35.9872   -1.2883   12.8650 H   0  0  0  0  0  0
   34.9239   -2.8423   12.5738 H   0  0  0  0  0  0
   34.6193   -7.0950   14.7974 H   0  0  0  0  0  0
   37.5551   -7.1091   21.1079 H   0  0  0  0  0  0
   35.8703   -6.6651   20.6709 H   0  0  0  0  0  0
   36.8809   -8.3941   19.2907 H   0  0  0  0  0  0
   36.0558   -7.9509   16.3621 H   0  0  0  0  0  0
   38.7737   -7.0512   16.1387 H   0  0  0  0  0  0
   38.0366   -9.2254   15.5044 H   0  0  0  0  0  0
   38.8924   -6.2297   18.5251 H   0  0  0  0  0  0
   39.8219   -7.9610   19.8642 H   0  0  0  0  0  0
   40.1201    2.1803   21.1708 H   0  0  0  0  0  0
   40.5193   -0.2276   21.9348 H   0  0  0  0  0  0
   41.0333    0.9314   23.2073 H   0  0  0  0  0  0
   39.7956   -0.7056   24.2903 H   0  0  0  0  0  0
   36.6665    0.3297   25.0658 H   0  0  0  0  0  0
   35.9486   -0.5617   22.9879 H   0  0  0  0  0  0
   36.8982    0.6344   22.0423 H   0  0  0  0  0  0
   38.3620   -1.3777   21.9757 H   0  0  0  0  0  0
   37.9108    2.9766   22.7535 H   0  0  0  0  0  0
   33.7942    3.8390   25.2314 H   0  0  0  0  0  0
   36.8009    5.1041   22.4835 H   0  0  0  0  0  0
  1  2  1  0  0  0
  1  3  2  0  0  0
  1  4  1  0  0  0
  1  8  1  0  0  0
  4 19  1  0  0  0
  5  6  1  0  0  0
  5  7  2  0  0  0
  5  8  1  0  0  0
  5 34  1  0  0  0
  9 10  1  0  0  0
  9 18  1  0  0  0
  9 22  1  0  0  0
 10 11  1  0  0  0
 10 16  2  0  0  0
 11 12  2  0  0  0
 12 13  1  0  0  0
 12 43  1  0  0  0
 13 14  2  0  0  0
 14 15  1  0  0  0
 14 16  1  0  0  0
 15 44  1  0  0  0
 15 45  1  0  0  0
 16 17  1  0  0  0
 17 18  2  0  0  0
 18 46  1  0  0  0
 19 20  1  0  0  0
 19 47  1  0  0  0
 19 48  1  0  0  0
 20 21  1  0  0  0
 20 25  1  0  0  0
 20 49  1  0  0  0
 21 22  1  0  0  0
 22 23  1  0  0  0
 22 50  1  0  0  0
 23 24  1  0  0  0
 23 25  1  0  0  0
 23 51  1  0  0  0
 24 52  1  0  0  0
 25 26  1  0  0  0
 25 53  1  0  0  0
 26 54  1  0  0  0
 27 28  1  0  0  0
 27 55  1  0  0  0
 28 29  1  0  0  0
 28 56  1  0  0  0
 28 57  1  0  0  0
 29 30  1  0  0  0
 29 33  1  0  0  0
 29 58  1  0  0  0
 30 31  1  0  0  0
 31 32  1  0  0  0
 31 35  1  0  0  0
 31 59  1  0  0  0
 32 33  1  0  0  0
 32 60  1  0  0  0
 32 61  1  0  0  0
 33 34  1  0  0  0
 33 62  1  0  0  0
 35 36  1  0  0  0
 35 37  1  0  0  0
 36 42  2  0  0  0
 36 63  1  0  0  0
 37 38  2  0  0  0
 37 39  1  0  0  0
 39 40  1  0  0  0
 39 64  1  0  0  0
 40 41  2  0  0  0
 40 42  1  0  0  0
 42 65  1  0  0  0
M  CHG  2   2  -1   6  -1
M  END
> <s_m_source_file>
../1jn4_ligand.sdf

> <i_m_source_file_index>
1

> <s_epik_input>
Tz1jMVtuSF1jKD1PKVtjSF1bY0hdbjFbQ0BIXShPW0NAQEhdMltDSDJdW09IXSlbQ0gyXVtDQEBIXTJPW1BAQF0oPU8pKFtPSF0pT1tQQEBdKD1PKShbT0hdKU9bQ0gyXVtDQEhdM09bQ0BIXShbQ0BIXShbT0hdKVtDQEBIXTNbT0hdKW40W2NIXW5jKGM0NSljKFtOSDJdKW5bY0hdbjU=

> <s_epik_cmdline>
J2VwaWtfYXBwJywgJy1pbWFlJywgJ2xpZ2FuZF9wcm8ubWFlJywgJy1vbWFlJywgJ2xpZ2FuZF9wcmVwLm1hZScsICctbXMnLCAnMScsICctcGgnLCAnNycsICctcGh0JywgJzAuNScsICctbnQn

> <r_lp_tautomer_probability>
1

> <r_epik_Ionization_Penalty>
  0.0030

> <r_epik_Ionization_Penalty_Charging>
  0.0026

> <r_epik_Ionization_Penalty_Neutral>
  0.0004

> <r_epik_State_Penalty>
 -0.0000

> <r_epik_Charging_Adjusted_Penalty>
0.00255573169871756

> <i_epik_Tot_Q>
-2

> <i_epik_Tot_abs_Q>
2

> <s_epik_Chemistry_Notes>
This compound contains an acetal/aminal-like group ( X-CH(R)-Y where X, Y are N, S, or O) that may be acid/base labile, releasing an aldehyde.

$$$$
