1joc_ligand
                    3D
 Schrodinger Suite 2020-3.
 30 30  0  0  1  0            999 V2000
   30.0040   17.1000   10.6390 C   0  0  2  0  0  0
   28.9960   17.9910   11.1490 O   0  0  0  0  0  0
   29.6480   15.6800   11.0510 C   0  0  2  0  0  0
   29.4800   15.6300   12.4800 O   0  0  0  0  0  0
   30.7310   14.6940   10.6330 C   0  0  2  0  0  0
   30.3660   13.3990   11.0850 O   0  0  0  0  0  0
   32.0830   15.0690   11.2280 C   0  0  1  0  0  0
   33.0840   14.1700   10.7450 O   0  0  0  0  0  0
   32.4770   16.4900   10.8640 C   0  0  2  0  0  0
   33.6630   16.8180   11.5840 O   0  0  0  0  0  0
   31.3720   17.5060   11.2020 C   0  0  1  0  0  0
   31.7240   18.7920   10.6780 O   0  0  0  0  0  0
   27.7340   18.5010   10.2700 P   0  0  0  0  0  0
   27.5730   19.9320   10.5990 O   0  5  0  0  0  0
   26.5740   17.6920   10.6930 O   0  0  0  0  0  0
   28.0880   18.2730    8.8360 O   0  5  0  0  0  0
   30.4040   12.1450   10.1020 P   0  0  0  0  0  0
   29.8750   11.0020   10.8720 O   0  0  0  0  0  0
   29.5600   12.4850    8.9370 O   0  5  0  0  0  0
   31.8330   11.9720    9.7440 O   0  5  0  0  0  0
   30.0010   17.1908    9.5428 H   0  0  0  0  0  0
   28.6882   15.3900   10.5986 H   0  0  0  0  0  0
   28.7367   16.2766   12.9694 H   0  0  0  0  0  0
   30.8029   14.6446    9.5365 H   0  0  0  0  0  0
   32.0504   14.9575   12.3218 H   0  0  0  0  0  0
   32.9779   13.0879   10.9115 H   0  0  0  0  0  0
   32.7131   16.5481    9.7912 H   0  0  0  0  0  0
   34.5652   16.1992   11.4689 H   0  0  0  0  0  0
   31.3037   17.6103   12.2949 H   0  0  0  0  0  0
   31.0493   19.6486   10.8233 H   0  0  0  0  0  0
  1  2  1  0  0  0
  1  3  1  0  0  0
  1 11  1  0  0  0
  1 21  1  0  0  0
  2 13  1  0  0  0
  3  4  1  0  0  0
  3  5  1  0  0  0
  3 22  1  0  0  0
  4 23  1  0  0  0
  5  6  1  0  0  0
  5  7  1  0  0  0
  5 24  1  0  0  0
  6 17  1  0  0  0
  7  8  1  0  0  0
  7  9  1  0  0  0
  7 25  1  0  0  0
  8 26  1  0  0  0
  9 10  1  0  0  0
  9 11  1  0  0  0
  9 27  1  0  0  0
 10 28  1  0  0  0
 11 12  1  0  0  0
 11 29  1  0  0  0
 12 30  1  0  0  0
 13 14  1  0  0  0
 13 15  2  0  0  0
 13 16  1  0  0  0
 17 18  2  0  0  0
 17 19  1  0  0  0
 17 20  1  0  0  0
M  CHG  4  14  -1  16  -1  19  -1  20  -1
M  END
> <s_m_source_file>
../1joc_ligand.sdf

> <i_m_source_file_index>
1

> <s_epik_input>
W09IXVAoPU8pKFtPSF0pT1tDQEBIXTFbQ0BIXShbT0hdKVtDQEhdKE9QKD1PKShbT0hdKVtPSF0pW0NAQEhdKFtPSF0pW0NASF0oW09IXSlbQ0BIXTFbT0hd

> <s_epik_cmdline>
J2VwaWtfYXBwJywgJy1pbWFlJywgJ2xpZ2FuZF9wcm8ubWFlJywgJy1vbWFlJywgJ2xpZ2FuZF9wcmVwLm1hZScsICctbXMnLCAnMScsICctcGgnLCAnNycsICctcGh0JywgJzAuNScsICctbnQn

> <r_epik_Ionization_Penalty>
  0.2161

> <r_epik_Ionization_Penalty_Charging>
  0.2161

> <r_epik_Ionization_Penalty_Neutral>
  0.0000

> <r_epik_State_Penalty>
  0.2216

> <r_epik_Charging_Adjusted_Penalty>
0.43767053985961

> <i_epik_Tot_Q>
-4

> <i_epik_Tot_abs_Q>
4

$$$$
