1jp5_ligand
                    3D
 Schrodinger Suite 2020-3.
110112  0  0  1  0            999 V2000
   -0.7350   14.4760   42.7060 N   0  3  0  0  0  0
    0.3100   15.2070   41.9590 C   0  0  2  0  0  0
    0.1440   15.0140   40.4600 C   0  0  0  0  0  0
    0.2120   13.8830   39.9580 O   0  0  0  0  0  0
    1.6490   14.6540   42.4240 C   0  0  0  0  0  0
    1.3140   14.1850   43.8150 C   0  0  0  0  0  0
   -0.1090   13.6040   43.7140 C   0  0  0  0  0  0
   -0.0710   16.1130   39.7420 N   0  0  0  0  0  0
   -0.2360   16.0500   38.2870 C   0  0  2  0  0  0
    1.0550   15.5740   37.5970 C   0  0  0  0  0  0
    2.1470   16.1170   37.8110 O   0  0  0  0  0  0
   -0.6490   17.4190   37.7280 C   0  0  0  0  0  0
   -1.9520   17.9910   38.2990 C   0  0  0  0  0  0
   -3.1790   17.1110   38.0420 C   0  0  0  0  0  0
   -3.4340   16.6670   36.9170 O   0  0  0  0  0  0
   -3.9550   16.8740   39.0910 N   0  0  0  0  0  0
    0.9190   14.5450   36.7740 N   0  0  0  0  0  0
    2.0580   13.9860   36.0640 C   0  0  2  0  0  0
    2.9530   15.0490   35.4390 C   0  0  0  0  0  0
    2.4800   15.9960   34.8130 O   0  0  0  0  0  0
    1.6000   13.0360   34.9290 C   0  0  2  0  0  0
    2.8130   12.3790   34.2620 C   0  0  0  0  0  0
    0.8270   13.8270   33.8750 C   0  0  0  0  0  0
    3.6750   11.5870   35.2010 C   0  0  0  0  0  0
    4.2560   14.8850   35.6200 N   0  0  0  0  0  0
    5.2200   15.7940   35.0210 C   0  0  2  0  0  0
    5.9390   14.9590   33.9670 C   0  0  0  0  0  0
    5.4500   14.7990   32.8460 O   0  0  0  0  0  0
    6.2480   16.3150   36.0520 C   0  0  2  0  0  0
    5.5790   17.1220   37.0300 O   0  0  0  0  0  0
    7.3210   17.1490   35.3620 C   0  0  0  0  0  0
    7.0890   14.4110   34.3500 N   0  0  0  0  0  0
    7.9020   13.5710   33.4790 C   0  0  2  0  0  0
    7.8890   13.9430   31.9850 C   0  0  0  0  0  0
    8.7940   14.6350   31.5090 O   0  0  0  0  0  0
    7.5030   12.0960   33.6760 C   0  0  0  0  0  0
    7.8150   11.4730   35.0500 C   0  0  0  0  0  0
    7.1870   10.1090   35.1510 C   0  0  0  0  0  0
    9.3160   11.3590   35.2460 C   0  0  0  0  0  0
    6.8630   13.5040   31.2560 N   0  0  0  0  0  0
    6.7630   13.7550   29.8160 C   0  0  2  0  0  0
    6.4320   15.1840   29.4090 C   0  0  0  0  0  0
    6.3610   15.4400   28.1820 O   0  0  0  0  0  0
    5.7360   12.8050   29.2100 C   0  0  0  0  0  0
    5.7540   11.4840   29.8810 C   0  0  0  0  0  0
    6.8510   10.7140   30.1570 C   0  0  0  0  0  0
    4.6280   10.7920   30.4160 C   0  0  0  0  0  0
    6.4750    9.5820   30.8390 N   0  3  0  0  0  0
    5.1150    9.6030   31.0130 C   0  0  0  0  0  0
    3.2530   11.0570   30.4540 C   0  0  0  0  0  0
    4.2710    8.6780   31.6420 C   0  0  0  0  0  0
    2.4120   10.1400   31.0810 C   0  0  0  0  0  0
    2.9270    8.9620   31.6660 C   0  0  0  0  0  0
   -1.3978   15.1958   43.2086 H   0  0  0  0  0  0
   -1.3229   13.8618   42.0081 H   0  0  0  0  0  0
    0.2168   16.2829   42.1681 H   0  0  0  0  0  0
    1.9619   13.8396   41.7541 H   0  0  0  0  0  0
    2.4030   15.4547   42.4048 H   0  0  0  0  0  0
    2.0408   13.4216   44.1295 H   0  0  0  0  0  0
    1.3542   15.0375   44.5090 H   0  0  0  0  0  0
   -0.6683   13.6751   44.6585 H   0  0  0  0  0  0
   -0.1221   12.5634   43.3576 H   0  0  0  0  0  0
   -0.1241   17.0819   40.2601 H   0  0  0  0  0  0
   -1.0384   15.3145   38.1285 H   0  0  0  0  0  0
    0.1381   18.1562   37.9448 H   0  0  0  0  0  0
   -0.7906   17.3432   36.6398 H   0  0  0  0  0  0
   -1.8554   18.1060   39.3887 H   0  0  0  0  0  0
   -2.1527   18.9718   37.8432 H   0  0  0  0  0  0
   -3.6912   17.2886   40.0751 H   0  0  0  0  0  0
   -4.8625   16.2629   38.9770 H   0  0  0  0  0  0
   -0.0828   14.1130   36.6333 H   0  0  0  0  0  0
    2.5977   13.4693   36.8713 H   0  0  0  0  0  0
    0.9522   12.2540   35.3518 H   0  0  0  0  0  0
    2.4706   11.6886   33.4771 H   0  0  0  0  0  0
    3.4508   13.1556   33.8146 H   0  0  0  0  0  0
   -0.0472   14.3038   34.3425 H   0  0  0  0  0  0
    0.4913   13.1462   33.0788 H   0  0  0  0  0  0
    1.4803   14.6004   33.4449 H   0  0  0  0  0  0
    4.5184   11.1513   34.6453 H   0  0  0  0  0  0
    3.0791   10.7811   35.6542 H   0  0  0  0  0  0
    4.0593   12.2481   35.9918 H   0  0  0  0  0  0
    4.6035   14.0427   36.2363 H   0  0  0  0  0  0
    4.6687   16.6551   34.6154 H   0  0  0  0  0  0
    6.7112   15.4836   36.6035 H   0  0  0  0  0  0
    4.7671   16.6925   37.6353 H   0  0  0  0  0  0
    7.8370   16.5334   34.6105 H   0  0  0  0  0  0
    8.0477   17.5019   36.1086 H   0  0  0  0  0  0
    6.8527   18.0136   34.8689 H   0  0  0  0  0  0
    7.4189   14.6181   35.3787 H   0  0  0  0  0  0
    8.9202   13.7896   33.8331 H   0  0  0  0  0  0
    6.4169   11.9885   33.5388 H   0  0  0  0  0  0
    8.0292   11.4721   32.9385 H   0  0  0  0  0  0
    7.3995   12.1063   35.8477 H   0  0  0  0  0  0
    6.0996   10.1946   35.0086 H   0  0  0  0  0  0
    7.3944    9.6824   36.1435 H   0  0  0  0  0  0
    7.6080    9.4531   34.3747 H   0  0  0  0  0  0
    9.7723   12.3571   35.1717 H   0  0  0  0  0  0
    9.7384   10.7040   34.4698 H   0  0  0  0  0  0
    9.5249   10.9333   36.2385 H   0  0  0  0  0  0
    6.0746   12.9358   31.7713 H   0  0  0  0  0  0
    7.7896   13.5689   29.4675 H   0  0  0  0  0  0
    6.2574   15.9799   30.1479 H   0  0  0  0  0  0
    4.7296   13.2359   29.3176 H   0  0  0  0  0  0
    5.9589   12.6561   28.1432 H   0  0  0  0  0  0
    7.8497   11.0439   29.8348 H   0  0  0  0  0  0
    2.8489   11.9628   30.0019 H   0  0  0  0  0  0
    4.6655    7.7683   32.0947 H   0  0  0  0  0  0
    1.3403   10.3346   31.1207 H   0  0  0  0  0  0
    2.2430    8.2628   32.1471 H   0  0  0  0  0  0
    7.2338    8.8467   31.1450 H   0  0  0  0  0  0
  1  2  1  0  0  0
  1  7  1  0  0  0
  1 54  1  0  0  0
  1 55  1  0  0  0
  2  3  1  0  0  0
  2  5  1  0  0  0
  2 56  1  0  0  0
  3  4  2  0  0  0
  3  8  1  0  0  0
  5  6  1  0  0  0
  5 57  1  0  0  0
  5 58  1  0  0  0
  6  7  1  0  0  0
  6 59  1  0  0  0
  6 60  1  0  0  0
  7 61  1  0  0  0
  7 62  1  0  0  0
  8  9  1  0  0  0
  8 63  1  0  0  0
  9 10  1  0  0  0
  9 12  1  0  0  0
  9 64  1  0  0  0
 10 11  2  0  0  0
 10 17  1  0  0  0
 12 13  1  0  0  0
 12 65  1  0  0  0
 12 66  1  0  0  0
 13 14  1  0  0  0
 13 67  1  0  0  0
 13 68  1  0  0  0
 14 15  2  0  0  0
 14 16  1  0  0  0
 16 69  1  0  0  0
 16 70  1  0  0  0
 17 18  1  0  0  0
 17 71  1  0  0  0
 18 19  1  0  0  0
 18 21  1  0  0  0
 18 72  1  0  0  0
 19 20  2  0  0  0
 19 25  1  0  0  0
 21 22  1  0  0  0
 21 23  1  0  0  0
 21 73  1  0  0  0
 22 24  1  0  0  0
 22 74  1  0  0  0
 22 75  1  0  0  0
 23 76  1  0  0  0
 23 77  1  0  0  0
 23 78  1  0  0  0
 24 79  1  0  0  0
 24 80  1  0  0  0
 24 81  1  0  0  0
 25 26  1  0  0  0
 25 82  1  0  0  0
 26 27  1  0  0  0
 26 29  1  0  0  0
 26 83  1  0  0  0
 27 28  2  0  0  0
 27 32  1  0  0  0
 29 30  1  0  0  0
 29 31  1  0  0  0
 29 84  1  0  0  0
 30 85  1  0  0  0
 31 86  1  0  0  0
 31 87  1  0  0  0
 31 88  1  0  0  0
 32 33  1  0  0  0
 32 89  1  0  0  0
 33 34  1  0  0  0
 33 36  1  0  0  0
 33 90  1  0  0  0
 34 35  2  0  0  0
 34 40  1  0  0  0
 36 37  1  0  0  0
 36 91  1  0  0  0
 36 92  1  0  0  0
 37 38  1  0  0  0
 37 39  1  0  0  0
 37 93  1  0  0  0
 38 94  1  0  0  0
 38 95  1  0  0  0
 38 96  1  0  0  0
 39 97  1  0  0  0
 39 98  1  0  0  0
 39 99  1  0  0  0
 40 41  1  0  0  0
 40100  1  0  0  0
 41 42  1  0  0  0
 41 44  1  0  0  0
 41101  1  0  0  0
 42 43  2  0  0  0
 42102  1  0  0  0
 44 45  1  0  0  0
 44103  1  0  0  0
 44104  1  0  0  0
 45 46  2  0  0  0
 45 47  1  0  0  0
 46 48  1  0  0  0
 46105  1  0  0  0
 47 49  2  0  0  0
 47 50  1  0  0  0
 48 49  1  0  0  0
 48110  1  0  0  0
 49 51  1  0  0  0
 50 52  2  0  0  0
 50106  1  0  0  0
 51 53  2  0  0  0
 51107  1  0  0  0
 52 53  1  0  0  0
 52108  1  0  0  0
 53109  1  0  0  0
M  CHG  2   1   1  48   1
M  END
> <s_m_source_file>
../1jp5_ligand.sdf

> <i_m_source_file_index>
1

> <s_epik_input>
W0NIMl0xW0NIMl1bQ0gyXVtOSDIrXVtDQEBIXTFDKD1PKVtOSF1bQ0BASF0oW0NIMl1bQ0gyXUMoPU8pW05IMl0pQyg9TylbTkhdW0NAQEhdKFtDQEBIXShbQ0gzXSlbQ0gyXVtDSDNdKUMoPU8pW05IXVtDQEBIXShbQ0BIXShbT0hdKVtDSDNdKUMoPU8pW05IXVtDQEBIXShbQ0gyXVtDSF0oW0NIM10pW0NIM10pQyg9TylbTkhdW0NASF0oW0NIXT1PKVtDSDJdYzJbY0hdW25IXWMoYzIzKVtjSF1bY0hdW2NIXVtjSF0z

> <s_epik_cmdline>
J2VwaWtfYXBwJywgJy1pbWFlJywgJ2xpZ2FuZF9wcm8ubWFlJywgJy1vbWFlJywgJ2xpZ2FuZF9wcmVwLm1hZScsICctbXMnLCAnMScsICctcGgnLCAnNycsICctcGh0JywgJzAuNScsICctbnQn

> <r_lp_tautomer_probability>
0.99990000499975

> <r_epik_Ionization_Penalty>
  0.0430

> <r_epik_Ionization_Penalty_Charging>
  0.0422

> <r_epik_Ionization_Penalty_Neutral>
  0.0008

> <r_epik_State_Penalty>
  0.0357

> <r_epik_Charging_Adjusted_Penalty>
0.0778779878466336

> <i_epik_Tot_Q>
2

> <i_epik_Tot_abs_Q>
2

$$$$
