1jpl_ligand
                    3D
 Schrodinger Suite 2020-3.
126126  0  0  1  0            999 V2000
   58.5760   53.1330   23.4270 N   0  3  0  0  0  0
   58.8110   51.9560   24.2570 C   0  0  2  0  0  0
   57.5330   51.1390   24.4750 C   0  0  0  0  0  0
   56.7980   51.3600   25.4460 O   0  0  0  0  0  0
   59.3910   52.3750   25.6140 C   0  0  0  0  0  0
   59.7310   51.2480   26.4070 O   0  0  0  0  0  0
   57.2760   50.2110   23.5540 N   0  0  0  0  0  0
   56.1220   49.3060   23.6080 C   0  0  2  0  0  0
   56.0990   48.4940   22.3190 C   0  0  0  0  0  0
   56.4960   48.9930   21.2670 O   0  0  0  0  0  0
   54.7970   50.0720   23.7440 C   0  0  0  0  0  0
   53.6130   49.1490   24.0510 C   0  0  0  0  0  0
   53.8390   47.9500   24.3290 O   0  5  0  0  0  0
   52.4550   49.6220   24.0240 O   0  0  0  0  0  0
   55.6490   47.2450   22.3970 N   0  0  0  0  0  0
   55.5880   46.4100   21.2070 C   0  0  2  0  0  0
   54.2920   46.6500   20.4360 C   0  0  0  0  0  0
   53.4050   47.3670   20.9040 O   0  0  0  0  0  0
   55.7390   44.9250   21.5740 C   0  0  0  0  0  0
   54.7620   44.3820   22.6060 C   0  0  0  0  0  0
   55.0770   42.9300   22.9920 C   0  0  0  0  0  0
   56.2320   42.6640   23.4010 O   0  0  0  0  0  0
   54.1810   42.0570   22.8910 O   0  5  0  0  0  0
   54.1990   46.0720   19.2420 N   0  0  0  0  0  0
   53.0100   46.2280   18.4130 C   0  0  2  0  0  0
   51.9650   45.2330   18.8740 C   0  0  0  0  0  0
   52.3030   44.2030   19.4550 O   0  0  0  0  0  0
   53.3360   45.9480   16.9420 C   0  0  0  0  0  0
   54.4600   46.8180   16.4120 C   0  0  0  0  0  0
   54.3050   48.0620   16.4140 O   0  5  0  0  0  0
   55.4970   46.2530   15.9940 O   0  0  0  0  0  0
   50.6990   45.5420   18.6150 N   0  0  0  0  0  0
   49.6090   44.6470   18.9830 C   0  0  2  0  0  0
   49.8600   43.2610   18.3700 C   0  0  0  0  0  0
   50.2370   43.1440   17.2020 O   0  0  0  0  0  0
   48.2810   45.2220   18.4880 C   0  0  0  0  0  0
   47.0050   44.4030   18.6980 C   0  0  0  0  0  0
   46.8700   43.9900   20.1490 C   0  0  0  0  0  0
   45.8060   45.2300   18.2650 C   0  0  0  0  0  0
   49.6600   42.2180   19.1730 N   0  0  0  0  0  0
   49.8690   40.8380   18.7390 C   0  0  2  0  0  0
   48.7500   40.3640   17.8250 C   0  0  0  0  0  0
   47.8380   39.6680   18.2740 O   0  0  0  0  0  0
   49.9410   39.9050   19.9540 C   0  0  0  0  0  0
   50.1320   38.4090   19.6760 C   0  0  0  0  0  0
   51.5740   38.1600   19.2660 C   0  0  0  0  0  0
   49.7930   37.5890   20.9170 C   0  0  0  0  0  0
   48.8180   40.7260   16.5470 N   0  0  0  0  0  0
   47.7830   40.3130   15.6110 C   0  0  2  0  0  0
   47.7220   38.7960   15.4710 C   0  0  0  0  0  0
   48.6490   38.1630   14.9610 O   0  0  0  0  0  0
   47.9920   40.9770   14.2440 C   0  0  0  0  0  0
   47.7100   42.4500   14.2470 C   0  0  0  0  0  0
   48.5600   43.3720   14.8240 N   0  0  0  0  0  0
   46.6510   43.1570   13.7820 C   0  0  0  0  0  0
   48.0360   44.5820   14.7150 C   0  0  0  0  0  0
   46.8780   44.4790   14.0870 N   0  0  0  0  0  0
   46.6160   38.2300   15.9490 N   0  0  0  0  0  0
   46.3760   36.7920   15.9130 C   0  0  2  0  0  0
   45.5280   36.4070   14.6970 C   0  0  0  0  0  0
   45.1790   37.3210   13.9170 O   0  5  0  0  0  0
   45.6660   36.3290   17.2170 C   0  0  2  0  0  0
   44.4360   37.1940   17.4990 C   0  0  0  0  0  0
   46.6070   36.4580   18.3930 C   0  0  0  0  0  0
   43.2190   36.8030   16.7240 C   0  0  0  0  0  0
   45.2250   35.2050   14.5320 O   0  0  0  0  0  0
   58.1605   52.8209   22.4575 H   0  0  0  0  0  0
   59.5261   53.6632   23.2652 H   0  0  0  0  0  0
   57.8642   53.8021   23.9327 H   0  0  0  0  0  0
   59.5309   51.3549   23.6822 H   0  0  0  0  0  0
   60.2994   52.9746   25.4551 H   0  0  0  0  0  0
   58.6478   52.9734   26.1614 H   0  0  0  0  0  0
   60.1598   51.3904   27.4099 H   0  0  0  0  0  0
   57.9882   50.1448   22.7183 H   0  0  0  0  0  0
   56.2648   48.6736   24.4966 H   0  0  0  0  0  0
   54.8779   50.8020   24.5629 H   0  0  0  0  0  0
   54.5799   50.5990   22.8032 H   0  0  0  0  0  0
   55.3219   46.8439   23.3677 H   0  0  0  0  0  0
   56.4395   46.7321   20.5896 H   0  0  0  0  0  0
   55.6004   44.3088   20.6734 H   0  0  0  0  0  0
   56.7432   44.7497   21.9872 H   0  0  0  0  0  0
   54.8114   44.9968   23.5168 H   0  0  0  0  0  0
   53.7413   44.4139   22.1971 H   0  0  0  0  0  0
   55.0439   45.4658   18.8833 H   0  0  0  0  0  0
   52.6692   47.2656   18.5442 H   0  0  0  0  0  0
   53.6423   44.8977   16.8278 H   0  0  0  0  0  0
   52.4448   46.1391   16.3261 H   0  0  0  0  0  0
   50.4815   46.4958   18.1120 H   0  0  0  0  0  0
   49.5993   44.5845   20.0812 H   0  0  0  0  0  0
   48.0853   46.1797   18.9926 H   0  0  0  0  0  0
   48.3340   45.3842   17.4013 H   0  0  0  0  0  0
   47.0482   43.4837   18.0955 H   0  0  0  0  0  0
   47.7459   43.3933   20.4434 H   0  0  0  0  0  0
   45.9575   43.3890   20.2758 H   0  0  0  0  0  0
   46.8086   44.8878   20.7816 H   0  0  0  0  0  0
   45.9222   45.5199   17.2103 H   0  0  0  0  0  0
   45.7395   46.1338   18.8885 H   0  0  0  0  0  0
   44.8884   44.6349   18.3827 H   0  0  0  0  0  0
   49.3243   42.4269   20.1995 H   0  0  0  0  0  0
   50.8182   40.8584   18.1835 H   0  0  0  0  0  0
   50.7892   40.1969   20.5906 H   0  0  0  0  0  0
   49.0070   39.9806   20.5302 H   0  0  0  0  0  0
   49.4623   38.0954   18.8616 H   0  0  0  0  0  0
   51.8087   38.7551   18.3711 H   0  0  0  0  0  0
   51.7125   37.0918   19.0427 H   0  0  0  0  0  0
   52.2445   38.4529   20.0874 H   0  0  0  0  0  0
   48.7481   37.7758   21.2057 H   0  0  0  0  0  0
   50.4592   37.8805   21.7423 H   0  0  0  0  0  0
   49.9272   36.5195   20.6977 H   0  0  0  0  0  0
   49.6613   41.3403   16.1986 H   0  0  0  0  0  0
   46.8437   40.6624   16.0644 H   0  0  0  0  0  0
   48.3145   40.4806   13.3168 H   0  0  0  0  0  0
   45.7323   42.8646   13.2524 H   0  0  0  0  0  0
   48.4833   45.5062   15.0809 H   0  0  0  0  0  0
   45.8634   38.9024   16.3866 H   0  0  0  0  0  0
   47.3763   36.3442   15.8189 H   0  0  0  0  0  0
   45.3622   35.2776   17.1059 H   0  0  0  0  0  0
   44.1750   37.1238   18.5653 H   0  0  0  0  0  0
   44.6576   38.2408   17.2439 H   0  0  0  0  0  0
   47.5023   35.8441   18.2153 H   0  0  0  0  0  0
   46.1012   36.1129   19.3069 H   0  0  0  0  0  0
   46.9022   37.5109   18.5126 H   0  0  0  0  0  0
   42.3866   37.4727   16.9861 H   0  0  0  0  0  0
   42.9462   35.7658   16.9685 H   0  0  0  0  0  0
   43.4288   36.8828   15.6471 H   0  0  0  0  0  0
   49.5055   43.0399   15.2775 H   0  0  0  0  0  0
  1  2  1  0  0  0
  1 67  1  0  0  0
  1 68  1  0  0  0
  1 69  1  0  0  0
  2  3  1  0  0  0
  2  5  1  0  0  0
  2 70  1  0  0  0
  3  4  2  0  0  0
  3  7  1  0  0  0
  5  6  1  0  0  0
  5 71  1  0  0  0
  5 72  1  0  0  0
  6 73  1  0  0  0
  7  8  1  0  0  0
  7 74  1  0  0  0
  8  9  1  0  0  0
  8 11  1  0  0  0
  8 75  1  0  0  0
  9 10  2  0  0  0
  9 15  1  0  0  0
 11 12  1  0  0  0
 11 76  1  0  0  0
 11 77  1  0  0  0
 12 13  1  0  0  0
 12 14  2  0  0  0
 15 16  1  0  0  0
 15 78  1  0  0  0
 16 17  1  0  0  0
 16 19  1  0  0  0
 16 79  1  0  0  0
 17 18  2  0  0  0
 17 24  1  0  0  0
 19 20  1  0  0  0
 19 80  1  0  0  0
 19 81  1  0  0  0
 20 21  1  0  0  0
 20 82  1  0  0  0
 20 83  1  0  0  0
 21 22  2  0  0  0
 21 23  1  0  0  0
 24 25  1  0  0  0
 24 84  1  0  0  0
 25 26  1  0  0  0
 25 28  1  0  0  0
 25 85  1  0  0  0
 26 27  2  0  0  0
 26 32  1  0  0  0
 28 29  1  0  0  0
 28 86  1  0  0  0
 28 87  1  0  0  0
 29 30  1  0  0  0
 29 31  2  0  0  0
 32 33  1  0  0  0
 32 88  1  0  0  0
 33 34  1  0  0  0
 33 36  1  0  0  0
 33 89  1  0  0  0
 34 35  2  0  0  0
 34 40  1  0  0  0
 36 37  1  0  0  0
 36 90  1  0  0  0
 36 91  1  0  0  0
 37 38  1  0  0  0
 37 39  1  0  0  0
 37 92  1  0  0  0
 38 93  1  0  0  0
 38 94  1  0  0  0
 38 95  1  0  0  0
 39 96  1  0  0  0
 39 97  1  0  0  0
 39 98  1  0  0  0
 40 41  1  0  0  0
 40 99  1  0  0  0
 41 42  1  0  0  0
 41 44  1  0  0  0
 41100  1  0  0  0
 42 43  2  0  0  0
 42 48  1  0  0  0
 44 45  1  0  0  0
 44101  1  0  0  0
 44102  1  0  0  0
 45 46  1  0  0  0
 45 47  1  0  0  0
 45103  1  0  0  0
 46104  1  0  0  0
 46105  1  0  0  0
 46106  1  0  0  0
 47107  1  0  0  0
 47108  1  0  0  0
 47109  1  0  0  0
 48 49  1  0  0  0
 48110  1  0  0  0
 49 50  1  0  0  0
 49 52  1  0  0  0
 49111  1  0  0  0
 50 51  2  0  0  0
 50 58  1  0  0  0
 52 53  2  0  0  0
 52112  1  0  0  0
 53 54  1  0  0  0
 53 55  1  0  0  0
 54 56  1  0  0  0
 54126  1  0  0  0
 55 57  2  0  0  0
 55113  1  0  0  0
 56 57  1  0  0  0
 56114  1  0  0  0
 58 59  1  0  0  0
 58115  1  0  0  0
 59 60  1  0  0  0
 59 62  1  0  0  0
 59116  1  0  0  0
 60 61  1  0  0  0
 60 66  2  0  0  0
 62 63  1  0  0  0
 62 64  1  0  0  0
 62117  1  0  0  0
 63 65  1  0  0  0
 63118  1  0  0  0
 63119  1  0  0  0
 64120  1  0  0  0
 64121  1  0  0  0
 64122  1  0  0  0
 65123  1  0  0  0
 65124  1  0  0  0
 65125  1  0  0  0
M  CHG  5   1   1  13  -1  23  -1  30  -1  61  -1
M  END
> <s_m_source_file>
../1jpl_ligand.sdf

> <i_m_source_file_index>
1

> <s_epik_input>
W09IXVtDSDJdW0NASF0oW05IMytdKUMoPU8pW05IXVtDQEBIXShbQ0gyXUMoPU8pW09IXSlDKD1PKVtOSF1bQ0BASF0oW0NIMl1bQ0gyXUMoPU8pW09IXSlDKD1PKVtOSF1bQ0BASF0oW0NIMl1DKD1PKVtPSF0pQyg9TylbTkhdW0NAQEhdKFtDSDJdW0NIXShbQ0gzXSlbQ0gzXSlDKD1PKVtOSF1bQ0BASF0oW0NIMl1bQ0hdKFtDSDNdKVtDSDNdKUMoPU8pW05IXVtDQEhdKEMoPU8pW05IXVtDQEhdKEMoPU8pW09IXSlbQ0BASF0oW0NIM10pW0NIMl1bQ0gzXSlbQ0gyXUMxPU5bQ0gyXU49W0NIXTE=

> <s_epik_cmdline>
J2VwaWtfYXBwJywgJy1pbWFlJywgJ2xpZ2FuZF9wcm8ubWFlJywgJy1vbWFlJywgJ2xpZ2FuZF9wcmVwLm1hZScsICctbXMnLCAnMScsICctcGgnLCAnNycsICctcGh0JywgJzAuNScsICctbnQn

> <r_lp_tautomer_probability>
1

> <r_epik_Ionization_Penalty>
  0.1554

> <r_epik_Ionization_Penalty_Charging>
  0.1554

> <r_epik_Ionization_Penalty_Neutral>
  0.0000

> <r_epik_State_Penalty>
 -0.0000

> <r_epik_Charging_Adjusted_Penalty>
0.15541959379811

> <i_epik_Tot_Q>
-3

> <i_epik_Tot_abs_Q>
5

> <s_epik_Chemistry_Notes>
This compound has an imine and may undergo hydrolysis.

$$$$
