1jq3_ligand
                    3D
 Schrodinger Suite 2020-3.
 62 64  0  0  1  0            999 V2000
   21.5780   41.0790   14.0790 N   0  3  0  0  0  0
   22.7460   40.4890   14.5240 C   0  0  0  0  0  0
   22.7760   39.0760   14.1700 C   0  0  0  0  0  0
   22.4580   38.8830   12.7540 C   0  0  2  0  0  0
   21.0460   37.7910   12.6310 S   0  0  0  0  0  0
   21.0340   37.2430   10.9120 C   0  0  0  0  0  0
   19.6960   36.7540   10.4430 C   0  0  1  0  0  0
   19.6780   36.7320    9.1150 O   0  0  0  0  0  0
   19.3830   35.3960   10.8900 C   0  0  1  0  0  0
   18.2600   35.5530   11.6940 O   0  0  0  0  0  0
   19.0260   34.5680    9.5690 C   0  0  1  0  0  0
   17.9960   33.5940    9.6040 O   0  0  0  0  0  0
   18.8480   35.7300    8.6020 C   0  0  2  0  0  0
   19.3350   35.5300    7.2670 N   0  0  0  0  0  0
   20.1150   34.5520    6.7210 C   0  0  0  0  0  0
   19.8700   34.2260    5.4320 N   0  0  0  0  0  0
   18.8730   34.9980    5.1040 C   0  0  0  0  0  0
   18.1520   35.1230    3.8090 C   0  0  0  0  0  0
   18.4770   34.3680    2.6830 N   0  0  0  0  0  0
   17.0850   36.0300    3.6670 N   0  0  0  0  0  0
   16.7850   36.7660    4.8110 C   0  0  0  0  0  0
   17.4070   36.7240    6.0650 N   0  0  0  0  0  0
   18.4790   35.8210    6.1990 C   0  0  0  0  0  0
   23.6410   38.2720   12.0430 C   0  0  0  0  0  0
   25.0800   38.7400   12.0320 C   0  0  0  0  0  0
   25.9720   37.9360   12.9580 C   0  0  0  0  0  0
   27.3170   37.4020   12.5000 C   0  0  0  0  0  0
   28.2250   36.6020   13.4140 C   0  0  0  0  0  0
   29.4990   36.0030   13.2320 N   0  3  0  0  0  0
   21.5762   42.1435   14.3563 H   0  0  0  0  0  0
   20.7148   40.5781   14.5416 H   0  0  0  0  0  0
   21.5135   40.9850   12.9849 H   0  0  0  0  0  0
   23.6092   40.9899   14.0614 H   0  0  0  0  0  0
   22.8106   40.5830   15.6181 H   0  0  0  0  0  0
   23.7799   38.6705   14.3645 H   0  0  0  0  0  0
   22.0367   38.5306   14.7750 H   0  0  0  0  0  0
   22.3976   39.9079   12.3590 H   0  0  0  0  0  0
   21.3239   38.0791   10.2586 H   0  0  0  0  0  0
   21.7471   36.4150   10.7861 H   0  0  0  0  0  0
   18.9083   37.4509   10.7653 H   0  0  0  0  0  0
   20.1553   34.9414   11.5279 H   0  0  0  0  0  0
   18.3363   36.1019   12.6442 H   0  0  0  0  0  0
   19.7037   33.7589    9.2592 H   0  0  0  0  0  0
   18.0752   32.7339   10.2852 H   0  0  0  0  0  0
   17.7833   35.9864    8.4987 H   0  0  0  0  0  0
   20.8977   34.0577    7.2965 H   0  0  0  0  0  0
   19.3011   33.6408    2.7275 H   0  0  0  0  0  0
   17.9093   34.4995    1.7500 H   0  0  0  0  0  0
   15.9561   37.4677    4.7178 H   0  0  0  0  0  0
   23.7925   37.2430   12.4010 H   0  0  0  0  0  0
   23.4510   38.2591   10.9596 H   0  0  0  0  0  0
   25.4872   38.6494   11.0142 H   0  0  0  0  0  0
   25.1262   39.7910   12.3532 H   0  0  0  0  0  0
   26.2309   38.5443   13.8372 H   0  0  0  0  0  0
   25.4407   37.0293   13.2830 H   0  0  0  0  0  0
   27.1706   36.7219   11.6479 H   0  0  0  0  0  0
   27.9595   38.2407   12.1936 H   0  0  0  0  0  0
   28.4934   37.2117   14.2893 H   0  0  0  0  0  0
   27.7020   35.6933   13.7466 H   0  0  0  0  0  0
   29.8082   35.5084   14.1646 H   0  0  0  0  0  0
   30.2337   36.7774   12.9666 H   0  0  0  0  0  0
   29.4422   35.2590   12.4238 H   0  0  0  0  0  0
  1  2  1  0  0  0
  1 30  1  0  0  0
  1 31  1  0  0  0
  1 32  1  0  0  0
  2  3  1  0  0  0
  2 33  1  0  0  0
  2 34  1  0  0  0
  3  4  1  0  0  0
  3 35  1  0  0  0
  3 36  1  0  0  0
  4 24  1  0  0  0
  4  5  1  0  0  0
  4 37  1  0  0  0
  5  6  1  0  0  0
  6  7  1  0  0  0
  6 38  1  0  0  0
  6 39  1  0  0  0
  7  9  1  0  0  0
  7  8  1  0  0  0
  7 40  1  0  0  0
  8 13  1  0  0  0
  9 11  1  0  0  0
  9 10  1  0  0  0
  9 41  1  0  0  0
 10 42  1  0  0  0
 11 13  1  0  0  0
 11 12  1  0  0  0
 11 43  1  0  0  0
 12 44  1  0  0  0
 13 14  1  0  0  0
 13 45  1  0  0  0
 14 23  1  0  0  0
 14 15  1  0  0  0
 15 16  2  0  0  0
 15 46  1  0  0  0
 16 17  1  0  0  0
 17 23  2  0  0  0
 17 18  1  0  0  0
 18 20  2  0  0  0
 18 19  1  0  0  0
 19 47  1  0  0  0
 19 48  1  0  0  0
 20 21  1  0  0  0
 21 22  2  0  0  0
 21 49  1  0  0  0
 22 23  1  0  0  0
 24 25  1  0  0  0
 24 50  1  0  0  0
 24 51  1  0  0  0
 25 26  1  0  0  0
 25 52  1  0  0  0
 25 53  1  0  0  0
 26 27  1  0  0  0
 26 54  1  0  0  0
 26 55  1  0  0  0
 27 28  1  0  0  0
 27 56  1  0  0  0
 27 57  1  0  0  0
 28 29  1  0  0  0
 28 58  1  0  0  0
 28 59  1  0  0  0
 29 60  1  0  0  0
 29 61  1  0  0  0
 29 62  1  0  0  0
M  CHG  2   1   1  29   1
M  END
> <s_m_source_file>
../1jq3_ligand.sdf

> <i_m_source_file_index>
1

> <s_epik_input>
W05IMytdW0NIMl1bQ0gyXVtDSDJdW0NIMl1bQ0gyXVtDQEhdKFtDSDJdW0NIMl1bTkgzK10pU1tDSDJdW0NASF0xT1tDQEhdKFtDQEhdKFtPSF0pW0NAQEhdMVtPSF0pbihbY0hdbjIpYyhjMjMpbltjSF1uYzNbTkgyXQ==

> <s_epik_cmdline>
J2VwaWtfYXBwJywgJy1pbWFlJywgJ2xpZ2FuZF9wcm8ubWFlJywgJy1vbWFlJywgJ2xpZ2FuZF9wcmVwLm1hZScsICctbXMnLCAnMScsICctcGgnLCAnNycsICctcGh0JywgJzAuNScsICctbnQn

> <r_lp_tautomer_probability>
1

> <r_epik_Ionization_Penalty>
  0.0016

> <r_epik_Ionization_Penalty_Charging>
  0.0011

> <r_epik_Ionization_Penalty_Neutral>
  0.0004

> <r_epik_State_Penalty>
 -0.0000

> <r_epik_Charging_Adjusted_Penalty>
0.00113883794838464

> <i_epik_Tot_Q>
2

> <i_epik_Tot_abs_Q>
2

> <s_epik_Chemistry_Notes>
This compound contains an acetal/aminal-like group ( X-CH(R)-Y where X, Y are N, S, or O) that may be acid/base labile, releasing an aldehyde.

$$$$
