1jq8_ligand
                    3D
 Schrodinger Suite 2020-3.
 83 83  0  0  1  0            999 V2000
    9.9060   15.7700   37.3930 N   0  3  0  0  0  0
    9.0230   16.9600   37.4950 C   0  0  2  0  0  0
    9.8540   18.1800   37.8930 C   0  0  0  0  0  0
   11.0100   18.0540   38.3070 O   0  0  0  0  0  0
    7.9390   16.7100   38.5480 C   0  0  0  0  0  0
    6.5120   17.2500   38.3840 C   0  0  0  0  0  0
    6.4390   18.2960   37.2830 C   0  0  0  0  0  0
    5.5880   16.0870   38.0710 C   0  0  0  0  0  0
    9.2600   19.3600   37.7560 N   0  0  0  0  0  0
    9.9280   20.6050   38.1120 C   0  0  2  0  0  0
   10.4790   20.4350   39.5250 C   0  0  0  0  0  0
    9.8690   19.7440   40.3240 O   0  0  0  0  0  0
    8.9300   21.7390   38.0720 C   0  0  0  0  0  0
   11.6160   21.0590   39.8340 N   0  0  0  0  0  0
   12.2350   20.9540   41.1670 C   0  0  2  0  0  0
   12.7110   22.3290   41.6560 C   0  0  0  0  0  0
   12.6620   23.3020   40.9070 O   0  0  0  0  0  0
   13.4940   20.0800   41.1310 C   0  0  2  0  0  0
   13.9330   19.7280   42.5570 C   0  0  0  0  0  0
   14.6040   20.8460   40.4160 C   0  0  0  0  0  0
   15.4090   19.4820   42.7380 C   0  0  0  0  0  0
   13.1440   22.4150   42.9030 N   0  0  0  0  0  0
   13.7030   23.6520   43.3930 C   0  0  2  0  0  0
   15.1970   23.5630   43.0690 C   0  0  0  0  0  0
   15.9720   22.9800   43.8170 O   0  0  0  0  0  0
   13.3650   23.8970   44.8820 C   0  0  0  0  0  0
   14.4860   23.7370   45.9200 C   0  0  0  0  0  0
   15.6310   24.5330   45.9230 C   0  0  0  0  0  0
   14.3710   22.7480   46.8990 C   0  0  0  0  0  0
   16.6390   24.3360   46.8690 C   0  0  0  0  0  0
   15.3650   22.5490   47.8410 C   0  0  0  0  0  0
   16.4930   23.3370   47.8180 C   0  0  0  0  0  0
   17.4860   23.1350   48.7540 O   0  0  0  0  0  0
   15.5340   24.1240   41.9310 N   0  0  0  0  0  0
   16.8960   24.1240   41.3970 C   0  0  2  0  0  0
   17.9590   24.4720   42.4230 C   0  0  0  0  0  0
   17.6670   24.6320   43.6050 O   0  0  0  0  0  0
   16.5780   24.7590   40.0370 C   0  0  0  0  0  0
   17.9160   25.1700   39.8350 O   0  0  0  0  0  0
   19.2190   24.0740   42.0110 O   0  5  0  0  0  0
   10.6827   15.9536   36.6361 H   0  0  0  0  0  0
    9.3085   14.8941   37.1003 H   0  0  0  0  0  0
   10.3807   15.5811   38.3672 H   0  0  0  0  0  0
    8.5625   17.1208   36.5090 H   0  0  0  0  0  0
    7.7821   15.6273   38.6628 H   0  0  0  0  0  0
    8.2566   17.1385   39.5101 H   0  0  0  0  0  0
    6.1916   17.7396   39.3155 H   0  0  0  0  0  0
    7.1134   19.1306   37.5249 H   0  0  0  0  0  0
    5.4078   18.6699   37.2003 H   0  0  0  0  0  0
    6.7429   17.8441   36.3273 H   0  0  0  0  0  0
    5.6527   15.3403   38.8762 H   0  0  0  0  0  0
    5.8884   15.6261   37.1185 H   0  0  0  0  0  0
    4.5533   16.4519   37.9915 H   0  0  0  0  0  0
    8.2336   19.3800   37.3608 H   0  0  0  0  0  0
   10.7270   20.8064   37.3832 H   0  0  0  0  0  0
    8.5417   21.8498   37.0488 H   0  0  0  0  0  0
    9.4234   22.6726   38.3801 H   0  0  0  0  0  0
    8.0985   21.5200   38.7580 H   0  0  0  0  0  0
   12.0931   21.6687   39.0525 H   0  0  0  0  0  0
   11.4404   20.5225   41.7935 H   0  0  0  0  0  0
   13.2837   19.1460   40.5893 H   0  0  0  0  0  0
   13.6699   20.5527   43.2357 H   0  0  0  0  0  0
   13.4227   18.8091   42.8815 H   0  0  0  0  0  0
   14.2794   21.0936   39.3946 H   0  0  0  0  0  0
   15.5097   20.2232   40.3721 H   0  0  0  0  0  0
   14.8228   21.7731   40.9661 H   0  0  0  0  0  0
   15.6138   19.2390   43.7911 H   0  0  0  0  0  0
   15.9687   20.3855   42.4546 H   0  0  0  0  0  0
   15.7216   18.6420   42.1003 H   0  0  0  0  0  0
   13.0771   21.5405   43.5670 H   0  0  0  0  0  0
   13.2364   24.4969   42.8654 H   0  0  0  0  0  0
   13.0054   24.9285   45.0114 H   0  0  0  0  0  0
   12.5822   23.1931   45.2010 H   0  0  0  0  0  0
   15.7406   25.3198   45.1766 H   0  0  0  0  0  0
   13.4803   22.1201   46.9217 H   0  0  0  0  0  0
   17.5315   24.9617   46.8610 H   0  0  0  0  0  0
   15.2551   21.7720   48.5975 H   0  0  0  0  0  0
   18.3900   23.7616   48.7408 H   0  0  0  0  0  0
   14.7237   24.6136   41.3709 H   0  0  0  0  0  0
   17.4723   23.2059   41.2102 H   0  0  0  0  0  0
   16.1838   23.9899   39.3565 H   0  0  0  0  0  0
   15.8268   25.5516   40.1691 H   0  0  0  0  0  0
   18.1928   25.7105   38.9178 H   0  0  0  0  0  0
  1  2  1  0  0  0
  1 41  1  0  0  0
  1 42  1  0  0  0
  1 43  1  0  0  0
  2  3  1  0  0  0
  2  5  1  0  0  0
  2 44  1  0  0  0
  3  4  2  0  0  0
  3  9  1  0  0  0
  5  6  1  0  0  0
  5 45  1  0  0  0
  5 46  1  0  0  0
  6  8  1  0  0  0
  6  7  1  0  0  0
  6 47  1  0  0  0
  7 48  1  0  0  0
  7 49  1  0  0  0
  7 50  1  0  0  0
  8 51  1  0  0  0
  8 52  1  0  0  0
  8 53  1  0  0  0
  9 10  1  0  0  0
  9 54  1  0  0  0
 10 11  1  0  0  0
 10 13  1  0  0  0
 10 55  1  0  0  0
 11 12  2  0  0  0
 11 14  1  0  0  0
 13 56  1  0  0  0
 13 57  1  0  0  0
 13 58  1  0  0  0
 14 15  1  0  0  0
 14 59  1  0  0  0
 15 16  1  0  0  0
 15 18  1  0  0  0
 15 60  1  0  0  0
 16 17  2  0  0  0
 16 22  1  0  0  0
 18 19  1  0  0  0
 18 20  1  0  0  0
 18 61  1  0  0  0
 19 21  1  0  0  0
 19 62  1  0  0  0
 19 63  1  0  0  0
 20 64  1  0  0  0
 20 65  1  0  0  0
 20 66  1  0  0  0
 21 67  1  0  0  0
 21 68  1  0  0  0
 21 69  1  0  0  0
 22 23  1  0  0  0
 22 70  1  0  0  0
 23 24  1  0  0  0
 23 26  1  0  0  0
 23 71  1  0  0  0
 24 25  2  0  0  0
 24 34  1  0  0  0
 26 27  1  0  0  0
 26 72  1  0  0  0
 26 73  1  0  0  0
 27 29  2  0  0  0
 27 28  1  0  0  0
 28 30  2  0  0  0
 28 74  1  0  0  0
 29 31  1  0  0  0
 29 75  1  0  0  0
 30 32  1  0  0  0
 30 76  1  0  0  0
 31 32  2  0  0  0
 31 77  1  0  0  0
 32 33  1  0  0  0
 33 78  1  0  0  0
 34 35  1  0  0  0
 34 79  1  0  0  0
 35 36  1  0  0  0
 35 38  1  0  0  0
 35 80  1  0  0  0
 36 40  1  0  0  0
 36 37  2  0  0  0
 38 39  1  0  0  0
 38 81  1  0  0  0
 38 82  1  0  0  0
 39 83  1  0  0  0
M  CHG  2   1   1  40  -1
M  END
> <s_m_source_file>
../1jq8_ligand.sdf

> <i_m_source_file_index>
1

> <s_epik_input>
W0NIM11bQ0hdKFtDSDNdKVtDSDJdW0NASF0oW05IMytdKUMoPU8pW05IXVtDQEBIXShbQ0gzXSlDKD1PKVtOSF1bQ0BASF0oW0NAQEhdKFtDSDNdKVtDSDJdW0NIM10pQyg9TylbTkhdW0NASF0oQyg9TylbTkhdW0NASF0oQyg9TylbT0hdKVtDSDJdW09IXSlbQ0gyXWMxW2NIXVtjSF1jKFtPSF0pW2NIXVtjSF0x

> <s_epik_cmdline>
J2VwaWtfYXBwJywgJy1pbWFlJywgJ2xpZ2FuZF9wcm8ubWFlJywgJy1vbWFlJywgJ2xpZ2FuZF9wcmVwLm1hZScsICctbXMnLCAnMScsICctcGgnLCAnNycsICctcGh0JywgJzAuNScsICctbnQn

> <r_lp_tautomer_probability>
0.999999999997365

> <r_epik_Ionization_Penalty>
  0.0901

> <r_epik_Ionization_Penalty_Charging>
  0.0893

> <r_epik_Ionization_Penalty_Neutral>
  0.0008

> <r_epik_State_Penalty>
  0.0796

> <r_epik_Charging_Adjusted_Penalty>
0.168944871974316

> <i_epik_Tot_Q>
0

> <i_epik_Tot_abs_Q>
2

$$$$
