1jq9_ligand
                    3D
 Schrodinger Suite 2020-3.
 96 97  0  0  1  0            999 V2000
    8.5750   15.7090   38.3060 N   0  3  0  0  0  0
    9.6020   15.8610   37.2350 C   0  0  2  0  0  0
    9.8300   17.3450   36.9780 C   0  0  0  0  0  0
    9.8030   17.7720   35.8240 O   0  0  0  0  0  0
    9.1170   15.2150   35.9330 C   0  0  0  0  0  0
    8.0920   14.1340   36.1310 C   0  0  0  0  0  0
    8.4280   12.9400   36.7600 C   0  0  0  0  0  0
    6.7800   14.3170   35.7000 C   0  0  0  0  0  0
    7.4730   11.9440   36.9590 C   0  0  0  0  0  0
    5.8180   13.3280   35.8960 C   0  0  0  0  0  0
    6.1640   12.1390   36.5260 C   0  0  0  0  0  0
   10.1140   17.7640   38.5350 N   0  0  0  0  0  0
   10.3180   19.2050   38.4100 C   0  0  2  0  0  0
   10.7950   20.0580   39.5860 C   0  0  0  0  0  0
   10.3390   21.1900   39.7310 O   0  0  0  0  0  0
    9.0340   19.8430   37.8730 C   0  0  0  0  0  0
    7.6400   19.5000   38.4290 C   0  0  0  0  0  0
    7.2160   18.1030   38.0040 C   0  0  0  0  0  0
    7.6400   19.6160   39.9250 C   0  0  0  0  0  0
   11.7100   19.5640   40.4120 N   0  0  0  0  0  0
   12.1740   20.3780   41.5350 C   0  0  2  0  0  0
   13.6800   20.6050   41.5720 C   0  0  0  0  0  0
   14.4560   19.6990   41.2890 O   0  0  0  0  0  0
   11.7240   19.7650   42.8580 C   0  0  0  0  0  0
   12.1760   20.5610   43.9390 O   0  0  0  0  0  0
   14.0810   21.8210   41.9330 N   0  0  0  0  0  0
   15.4940   22.1830   42.0050 C   0  0  2  0  0  0
   15.9400   22.1160   43.4620 C   0  0  0  0  0  0
   15.3160   21.4330   44.2750 O   0  0  0  0  0  0
   15.6850   23.6030   41.4590 C   0  0  0  0  0  0
   17.0160   23.8740   40.7800 C   0  0  0  0  0  0
   18.0890   24.4260   41.4820 C   0  0  0  0  0  0
   17.1870   23.6100   39.4210 C   0  0  0  0  0  0
   19.2980   24.7160   40.8420 C   0  0  0  0  0  0
   18.3870   23.8930   38.7750 C   0  0  0  0  0  0
   19.4360   24.4480   39.4880 C   0  0  0  0  0  0
   20.6120   24.7520   38.8410 O   0  0  0  0  0  0
   17.0230   22.8160   43.7850 N   0  0  0  0  0  0
   17.4770   22.8520   45.1510 C   0  0  2  0  0  0
   18.0450   21.5090   45.6040 C   0  0  0  0  0  0
   17.9440   21.1520   46.7730 O   0  0  0  0  0  0
   16.3280   23.2500   46.0730 C   0  0  0  0  0  0
   16.6650   24.4650   46.8830 C   0  0  0  0  0  0
   18.0620   24.4670   47.2200 C   0  0  0  0  0  0
   18.8530   25.1120   46.5700 C   0  0  0  0  0  0
   19.9650   25.8140   47.2620 N   0  3  0  0  0  0
   18.9400   20.9320   44.9460 O   0  5  0  0  0  0
    8.9390   16.1777   39.2322 H   0  0  0  0  0  0
    8.3875   14.6400   38.4851 H   0  0  0  0  0  0
    7.6412   16.1973   37.9905 H   0  0  0  0  0  0
   10.5219   15.3695   37.5846 H   0  0  0  0  0  0
    8.6593   15.9823   35.2913 H   0  0  0  0  0  0
    9.9707   14.7604   35.4090 H   0  0  0  0  0  0
    9.4508   12.7809   37.1017 H   0  0  0  0  0  0
    6.5021   15.2463   35.2027 H   0  0  0  0  0  0
    7.7509   11.0131   37.4533 H   0  0  0  0  0  0
    4.7949   13.4871   35.5553 H   0  0  0  0  0  0
    5.4146   11.3627   36.6805 H   0  0  0  0  0  0
   10.1792   17.2829   39.5220 H   0  0  0  0  0  0
   11.1949   19.1616   37.7473 H   0  0  0  0  0  0
    9.0826   20.9337   38.0073 H   0  0  0  0  0  0
    8.9282   19.6096   36.8033 H   0  0  0  0  0  0
    6.9012   20.2144   38.0368 H   0  0  0  0  0  0
    7.2217   18.0362   36.9060 H   0  0  0  0  0  0
    6.2023   17.8976   38.3786 H   0  0  0  0  0  0
    7.9172   17.3646   38.4199 H   0  0  0  0  0  0
    7.9487   20.6315   40.2140 H   0  0  0  0  0  0
    8.3431   18.8843   40.3495 H   0  0  0  0  0  0
    6.6282   19.4173   40.3082 H   0  0  0  0  0  0
   12.1186   18.5542   40.2588 H   0  0  0  0  0  0
   11.6948   21.3494   41.3432 H   0  0  0  0  0  0
   10.6256   19.7114   42.8824 H   0  0  0  0  0  0
   12.1428   18.7524   42.9542 H   0  0  0  0  0  0
   11.9420   20.2682   44.9732 H   0  0  0  0  0  0
   13.3094   22.5645   42.1816 H   0  0  0  0  0  0
   16.0583   21.4624   41.3949 H   0  0  0  0  0  0
   14.9079   23.8154   40.7099 H   0  0  0  0  0  0
   15.6068   24.3266   42.2838 H   0  0  0  0  0  0
   17.9826   24.6344   42.5466 H   0  0  0  0  0  0
   16.3648   23.1736   38.8539 H   0  0  0  0  0  0
   20.1259   25.1495   41.4030 H   0  0  0  0  0  0
   18.5004   23.6786   37.7123 H   0  0  0  0  0  0
   21.4497   25.1932   39.4010 H   0  0  0  0  0  0
   17.5724   23.3679   43.0081 H   0  0  0  0  0  0
   18.2753   23.6087   45.1441 H   0  0  0  0  0  0
   15.4345   23.4715   45.4708 H   0  0  0  0  0  0
   16.1087   22.4225   46.7638 H   0  0  0  0  0  0
   16.4345   25.3693   46.3008 H   0  0  0  0  0  0
   16.0718   24.4642   47.8094 H   0  0  0  0  0  0
   18.1920   24.8520   48.2422 H   0  0  0  0  0  0
   18.4547   23.4411   47.1619 H   0  0  0  0  0  0
   19.3557   24.4538   45.8461 H   0  0  0  0  0  0
   18.3208   25.9102   46.0318 H   0  0  0  0  0  0
   20.5803   26.3457   46.5212 H   0  0  0  0  0  0
   20.5864   25.0798   47.7956 H   0  0  0  0  0  0
   19.5514   26.5362   47.9813 H   0  0  0  0  0  0
  1  2  1  0  0  0
  1 48  1  0  0  0
  1 49  1  0  0  0
  1 50  1  0  0  0
  2  3  1  0  0  0
  2  5  1  0  0  0
  2 51  1  0  0  0
  3  4  2  0  0  0
  3 12  1  0  0  0
  5  6  1  0  0  0
  5 52  1  0  0  0
  5 53  1  0  0  0
  6  8  2  0  0  0
  6  7  1  0  0  0
  7  9  2  0  0  0
  7 54  1  0  0  0
  8 10  1  0  0  0
  8 55  1  0  0  0
  9 11  1  0  0  0
  9 56  1  0  0  0
 10 11  2  0  0  0
 10 57  1  0  0  0
 11 58  1  0  0  0
 12 13  1  0  0  0
 12 59  1  0  0  0
 13 14  1  0  0  0
 13 16  1  0  0  0
 13 60  1  0  0  0
 14 15  2  0  0  0
 14 20  1  0  0  0
 16 17  1  0  0  0
 16 61  1  0  0  0
 16 62  1  0  0  0
 17 19  1  0  0  0
 17 18  1  0  0  0
 17 63  1  0  0  0
 18 64  1  0  0  0
 18 65  1  0  0  0
 18 66  1  0  0  0
 19 67  1  0  0  0
 19 68  1  0  0  0
 19 69  1  0  0  0
 20 21  1  0  0  0
 20 70  1  0  0  0
 21 22  1  0  0  0
 21 24  1  0  0  0
 21 71  1  0  0  0
 22 23  2  0  0  0
 22 26  1  0  0  0
 24 25  1  0  0  0
 24 72  1  0  0  0
 24 73  1  0  0  0
 25 74  1  0  0  0
 26 27  1  0  0  0
 26 75  1  0  0  0
 27 28  1  0  0  0
 27 30  1  0  0  0
 27 76  1  0  0  0
 28 29  2  0  0  0
 28 38  1  0  0  0
 30 31  1  0  0  0
 30 77  1  0  0  0
 30 78  1  0  0  0
 31 33  2  0  0  0
 31 32  1  0  0  0
 32 34  2  0  0  0
 32 79  1  0  0  0
 33 35  1  0  0  0
 33 80  1  0  0  0
 34 36  1  0  0  0
 34 81  1  0  0  0
 35 36  2  0  0  0
 35 82  1  0  0  0
 36 37  1  0  0  0
 37 83  1  0  0  0
 38 39  1  0  0  0
 38 84  1  0  0  0
 39 40  1  0  0  0
 39 42  1  0  0  0
 39 85  1  0  0  0
 40 47  1  0  0  0
 40 41  2  0  0  0
 42 43  1  0  0  0
 42 86  1  0  0  0
 42 87  1  0  0  0
 43 44  1  0  0  0
 43 88  1  0  0  0
 43 89  1  0  0  0
 44 45  1  0  0  0
 44 90  1  0  0  0
 44 91  1  0  0  0
 45 46  1  0  0  0
 45 92  1  0  0  0
 45 93  1  0  0  0
 46 94  1  0  0  0
 46 95  1  0  0  0
 46 96  1  0  0  0
M  CHG  3   1   1  46   1  47  -1
M  END
> <s_m_source_file>
../1jq9_ligand.sdf

> <i_m_source_file_index>
1

> <s_epik_input>
W2NIXTFbY0hdW2NIXVtjSF1bY0hdYzFbQ0gyXVtDQEhdKFtOSDMrXSlDKD1PKVtOSF1bQ0BASF0oW0NIMl1bQ0hdKFtDSDNdKVtDSDNdKUMoPU8pW05IXVtDQEBIXShbQ0gyXVtPSF0pQyg9TylbTkhdW0NAQEhdKFtDSDJdYzJbY0hdW2NIXWMoW09IXSlbY0hdW2NIXTIpQyg9TylbTkhdW0NASF0oQyg9TylbT0hdKVtDSDJdW0NIMl1bQ0gyXVtDSDJdW05IMytd

> <s_epik_cmdline>
J2VwaWtfYXBwJywgJy1pbWFlJywgJ2xpZ2FuZF9wcm8ubWFlJywgJy1vbWFlJywgJ2xpZ2FuZF9wcmVwLm1hZScsICctbXMnLCAnMScsICctcGgnLCAnNycsICctcGh0JywgJzAuNScsICctbnQn

> <r_lp_tautomer_probability>
0.999999999997365

> <r_epik_Ionization_Penalty>
  0.1894

> <r_epik_Ionization_Penalty_Charging>
  0.1886

> <r_epik_Ionization_Penalty_Neutral>
  0.0008

> <r_epik_State_Penalty>
  0.1776

> <r_epik_Charging_Adjusted_Penalty>
0.366201728989213

> <i_epik_Tot_Q>
1

> <i_epik_Tot_abs_Q>
3

$$$$
