1jqd_ligand
                    3D
 Schrodinger Suite 2020-3.
 46 48  0  0  1  0            999 V2000
   41.9950  -23.2310   -0.6930 N   0  3  0  0  0  0
   43.3370  -23.9400   -0.3730 C   0  0  1  0  0  0
   43.2460  -25.4210   -0.8620 C   0  0  0  0  0  0
   42.2290  -26.1880   -0.1680 C   0  0  0  0  0  0
   42.8660  -27.4470    0.8810 S   0  0  0  0  0  0
   44.4870  -23.3630   -1.1810 C   0  0  0  0  0  0
   44.2200  -23.0940   -2.3970 O   0  5  0  0  0  0
   45.6610  -23.6460   -0.8290 O   0  0  0  0  0  0
   41.2850  -27.6290    1.7190 C   0  0  0  0  0  0
   41.0400  -26.5490    2.7860 C   0  0  1  0  0  0
   39.6880  -26.7880    3.2020 O   0  0  0  0  0  0
   41.9820  -26.7020    4.0540 C   0  0  1  0  0  0
   42.5470  -25.4180    4.5000 O   0  0  0  0  0  0
   40.9480  -27.2130    5.0190 C   0  0  1  0  0  0
   41.1780  -26.9930    6.3780 O   0  0  0  0  0  0
   39.6510  -26.5530    4.5570 C   0  0  2  0  0  0
   38.3840  -27.1530    4.9780 N   0  0  0  0  0  0
   38.1510  -28.5230    5.3180 C   0  0  0  0  0  0
   36.9270  -28.7490    5.5670 N   0  0  0  0  0  0
   36.2710  -27.5280    5.4160 C   0  0  0  0  0  0
   34.8990  -27.1010    5.5240 C   0  0  0  0  0  0
   33.9370  -28.0030    5.7500 N   0  0  0  0  0  0
   34.5590  -25.7330    5.3580 N   0  0  0  0  0  0
   35.5600  -24.8210    5.0320 C   0  0  0  0  0  0
   36.8400  -25.1480    4.8430 N   0  0  0  0  0  0
   37.1600  -26.5080    5.0670 C   0  0  0  0  0  0
   42.0428  -22.1855   -0.3544 H   0  0  0  0  0  0
   41.1744  -23.7475   -0.1735 H   0  0  0  0  0  0
   41.8161  -23.2572   -1.7780 H   0  0  0  0  0  0
   43.5253  -23.8102    0.7030 H   0  0  0  0  0  0
   43.0026  -25.4387   -1.9346 H   0  0  0  0  0  0
   44.2114  -25.9217   -0.6969 H   0  0  0  0  0  0
   41.6292  -25.5154    0.4628 H   0  0  0  0  0  0
   41.5758  -26.6806   -0.9033 H   0  0  0  0  0  0
   40.4701  -27.5613    0.9832 H   0  0  0  0  0  0
   41.2461  -28.6074    2.2202 H   0  0  0  0  0  0
   41.1531  -25.5399    2.3630 H   0  0  0  0  0  0
   42.8984  -27.3034    3.9611 H   0  0  0  0  0  0
   43.3182  -24.9171    3.8963 H   0  0  0  0  0  0
   40.9741  -28.3114    5.0727 H   0  0  0  0  0  0
   42.0765  -27.4080    6.8580 H   0  0  0  0  0  0
   39.6040  -25.5050    4.8879 H   0  0  0  0  0  0
   38.9318  -29.2825    5.3584 H   0  0  0  0  0  0
   34.1972  -29.0640    5.8791 H   0  0  0  0  0  0
   32.8859  -27.6836    5.8067 H   0  0  0  0  0  0
   35.2800  -23.7731    4.9244 H   0  0  0  0  0  0
  1  2  1  0  0  0
  1 27  1  0  0  0
  1 28  1  0  0  0
  1 29  1  0  0  0
  2  6  1  0  0  0
  2  3  1  0  0  0
  2 30  1  0  0  0
  3  4  1  0  0  0
  3 31  1  0  0  0
  3 32  1  0  0  0
  4  5  1  0  0  0
  4 33  1  0  0  0
  4 34  1  0  0  0
  5  9  1  0  0  0
  6  8  2  0  0  0
  6  7  1  0  0  0
  9 10  1  0  0  0
  9 35  1  0  0  0
  9 36  1  0  0  0
 10 12  1  0  0  0
 10 11  1  0  0  0
 10 37  1  0  0  0
 11 16  1  0  0  0
 12 14  1  0  0  0
 12 13  1  0  0  0
 12 38  1  0  0  0
 13 39  1  0  0  0
 14 16  1  0  0  0
 14 15  1  0  0  0
 14 40  1  0  0  0
 15 41  1  0  0  0
 16 17  1  0  0  0
 16 42  1  0  0  0
 17 26  1  0  0  0
 17 18  1  0  0  0
 18 19  2  0  0  0
 18 43  1  0  0  0
 19 20  1  0  0  0
 20 26  2  0  0  0
 20 21  1  0  0  0
 21 23  2  0  0  0
 21 22  1  0  0  0
 22 44  1  0  0  0
 22 45  1  0  0  0
 23 24  1  0  0  0
 24 25  2  0  0  0
 24 46  1  0  0  0
 25 26  1  0  0  0
M  CHG  2   1   1   7  -1
M  END
> <s_m_source_file>
../1jqd_ligand.sdf

> <i_m_source_file_index>
1

> <s_epik_input>
W09IXUMoPU8pW0NAQEhdKFtOSDMrXSlbQ0gyXVtDSDJdU1tDSDJdW0NASF0xT1tDQEhdKFtDQEhdKFtPSF0pW0NAQEhdMVtPSF0pbihbY0hdbjIpYyhjMjMpbltjSF1uYzNbTkgyXQ==

> <s_epik_cmdline>
J2VwaWtfYXBwJywgJy1pbWFlJywgJ2xpZ2FuZF9wcm8ubWFlJywgJy1vbWFlJywgJ2xpZ2FuZF9wcmVwLm1hZScsICctbXMnLCAnMScsICctcGgnLCAnNycsICctcGh0JywgJzAuNScsICctbnQn

> <r_lp_tautomer_probability>
1

> <r_epik_Ionization_Penalty>
  0.0026

> <r_epik_Ionization_Penalty_Charging>
  0.0022

> <r_epik_Ionization_Penalty_Neutral>
  0.0004

> <r_epik_State_Penalty>
 -0.0000

> <r_epik_Charging_Adjusted_Penalty>
0.00216156469931729

> <i_epik_Tot_Q>
0

> <i_epik_Tot_abs_Q>
2

> <s_epik_Chemistry_Notes>
This compound contains an acetal/aminal-like group ( X-CH(R)-Y where X, Y are N, S, or O) that may be acid/base labile, releasing an aldehyde.

$$$$
