1jqe_ligand
                    3D
 Schrodinger Suite 2020-3.
 60 62  0  0  1  0            999 V2000
   41.6650  -31.1290    4.2750 C   0  0  0  0  0  0
   40.4360  -30.7000    5.0250 C   0  0  0  0  0  0
   39.4220  -31.7070    5.4890 C   0  0  0  0  0  0
   39.6240  -33.1750    5.2080 C   0  0  0  0  0  0
   40.9070  -33.6220    4.4270 C   0  0  0  0  0  0
   41.8640  -32.5680    4.0010 C   0  0  0  0  0  0
   38.6510  -34.1250    5.6560 N   0  3  0  0  0  0
   38.8290  -35.5270    5.3920 C   0  0  0  0  0  0
   40.0720  -36.0780    4.6280 C   0  0  0  0  0  0
   41.1140  -35.1620    4.1350 C   0  0  0  0  0  0
   37.8190  -36.5020    5.8680 C   0  0  0  0  0  0
   38.0080  -37.9840    5.5990 C   0  0  0  0  0  0
   39.1880  -38.4890    4.8670 C   0  0  0  0  0  0
   40.2050  -37.5440    4.3850 C   0  0  0  0  0  0
   36.8820  -39.0590    6.1370 Cl  0  0  0  0  0  0
   42.6930  -30.0960    3.7940 O   0  0  0  0  0  0
   43.5960  -29.6970    4.7700 C   0  0  0  0  0  0
   42.3760  -35.8550    3.3560 N   0  0  0  0  0  0
   42.9940  -35.5190    1.9830 C   0  0  2  0  0  0
   43.9280  -34.3130    2.0780 C   0  0  0  0  0  0
   41.9070  -35.3260    1.0170 C   0  0  0  0  0  0
   42.2820  -34.9680   -0.3890 C   0  0  0  0  0  0
   40.9470  -34.8860   -0.9480 C   0  0  0  0  0  0
   40.7170  -34.4950   -2.3570 N   0  3  0  0  0  0
   39.2470  -34.5690   -2.4480 C   0  0  0  0  0  0
   41.3410  -35.3620   -3.4010 C   0  0  0  0  0  0
   38.5020  -35.9590   -2.2620 C   0  0  0  0  0  0
   41.0260  -34.7940   -4.8390 C   0  0  0  0  0  0
   40.2775  -29.6424    5.2357 H   0  0  0  0  0  0
   38.5365  -31.3751    6.0311 H   0  0  0  0  0  0
   42.7592  -32.8717    3.4583 H   0  0  0  0  0  0
   36.9403  -36.1547    6.4114 H   0  0  0  0  0  0
   39.3036  -39.5575    4.6854 H   0  0  0  0  0  0
   41.0711  -37.9205    3.8408 H   0  0  0  0  0  0
   44.2935  -28.9602    4.3450 H   0  0  0  0  0  0
   44.1594  -30.5714    5.1278 H   0  0  0  0  0  0
   43.0506  -29.2432    5.6106 H   0  0  0  0  0  0
   42.7936  -36.6726    3.9619 H   0  0  0  0  0  0
   43.5973  -36.3507    1.5902 H   0  0  0  0  0  0
   44.7182  -34.5184    2.8151 H   0  0  0  0  0  0
   43.3542  -33.4287    2.3923 H   0  0  0  0  0  0
   44.3838  -34.1239    1.0949 H   0  0  0  0  0  0
   41.3220  -36.2538    0.9331 H   0  0  0  0  0  0
   41.2533  -34.5100    1.3588 H   0  0  0  0  0  0
   42.8399  -34.0200   -0.3896 H   0  0  0  0  0  0
   42.9109  -35.7638   -0.8147 H   0  0  0  0  0  0
   40.4601  -35.8700   -0.8802 H   0  0  0  0  0  0
   40.3587  -34.1462   -0.3853 H   0  0  0  0  0  0
   41.1709  -33.5136   -2.5589 H   0  0  0  0  0  0
   38.7990  -33.9254   -1.6766 H   0  0  0  0  0  0
   38.9236  -34.2285   -3.4427 H   0  0  0  0  0  0
   42.4308  -35.3864   -3.2539 H   0  0  0  0  0  0
   40.9372  -36.3820   -3.3199 H   0  0  0  0  0  0
   37.4169  -35.8100   -2.3641 H   0  0  0  0  0  0
   38.7242  -36.3634   -1.2634 H   0  0  0  0  0  0
   38.8488  -36.6665   -3.0296 H   0  0  0  0  0  0
   41.4904  -35.4404   -5.5983 H   0  0  0  0  0  0
   41.4309  -33.7751   -4.9275 H   0  0  0  0  0  0
   39.9372  -34.7706   -4.9936 H   0  0  0  0  0  0
   37.7613  -33.7836    6.2054 H   0  0  0  0  0  0
  1  2  2  0  0  0
  1  6  1  0  0  0
  1 16  1  0  0  0
  2  3  1  0  0  0
  2 29  1  0  0  0
  3  4  2  0  0  0
  3 30  1  0  0  0
  4  5  1  0  0  0
  4  7  1  0  0  0
  5  6  2  0  0  0
  5 10  1  0  0  0
  6 31  1  0  0  0
  7  8  2  0  0  0
  7 60  1  0  0  0
  8  9  1  0  0  0
  8 11  1  0  0  0
  9 10  2  0  0  0
  9 14  1  0  0  0
 10 18  1  0  0  0
 11 12  2  0  0  0
 11 32  1  0  0  0
 12 13  1  0  0  0
 12 15  1  0  0  0
 13 14  2  0  0  0
 13 33  1  0  0  0
 14 34  1  0  0  0
 16 17  1  0  0  0
 17 35  1  0  0  0
 17 36  1  0  0  0
 17 37  1  0  0  0
 18 19  1  0  0  0
 18 38  1  0  0  0
 19 20  1  0  0  0
 19 21  1  0  0  0
 19 39  1  0  0  0
 20 40  1  0  0  0
 20 41  1  0  0  0
 20 42  1  0  0  0
 21 22  1  0  0  0
 21 43  1  0  0  0
 21 44  1  0  0  0
 22 23  1  0  0  0
 22 45  1  0  0  0
 22 46  1  0  0  0
 23 24  1  0  0  0
 23 47  1  0  0  0
 23 48  1  0  0  0
 24 25  1  0  0  0
 24 26  1  0  0  0
 24 49  1  0  0  0
 25 27  1  0  0  0
 25 50  1  0  0  0
 25 51  1  0  0  0
 26 28  1  0  0  0
 26 52  1  0  0  0
 26 53  1  0  0  0
 27 54  1  0  0  0
 27 55  1  0  0  0
 27 56  1  0  0  0
 28 57  1  0  0  0
 28 58  1  0  0  0
 28 59  1  0  0  0
M  CHG  2   7   1  24   1
M  END
> <s_m_source_file>
../1jqe_ligand.sdf

> <i_m_source_file_index>
1

> <s_epik_input>
W2NIXTFbY0hdYyhDbClbY0hdYyhuMiljMWMoYyhjMjMpW2NIXWMoW2NIXVtjSF0zKU9bQ0gzXSlbTkhdW0NASF0oW0NIM10pW0NIMl1bQ0gyXVtDSDJdW05IK10oW0NIMl1bQ0gzXSlbQ0gyXVtDSDNd

> <s_epik_cmdline>
J2VwaWtfYXBwJywgJy1pbWFlJywgJ2xpZ2FuZF9wcm8ubWFlJywgJy1vbWFlJywgJ2xpZ2FuZF9wcmVwLm1hZScsICctbXMnLCAnMScsICctcGgnLCAnNycsICctcGh0JywgJzAuNScsICctbnQn

> <r_epik_Ionization_Penalty>
  0.2806

> <r_epik_Ionization_Penalty_Charging>
  0.2806

> <r_epik_Ionization_Penalty_Neutral>
  0.0000

> <r_epik_State_Penalty>
  0.2718

> <r_epik_Charging_Adjusted_Penalty>
0.552448526866173

> <i_epik_Tot_Q>
2

> <i_epik_Tot_abs_Q>
2

$$$$
