1jr1_ligand
                    3D
 Schrodinger Suite 2020-3.
 42 43  0  0  1  0            999 V2000
   65.4650   77.9460   82.6750 C   0  0  0  0  0  0
   64.9650   82.3900   86.1740 C   0  0  0  0  0  0
   65.1840   83.6670   86.5070 C   0  0  0  0  0  0
   64.2870   84.7070   85.8680 C   0  0  0  0  0  0
   65.1370   85.5900   84.9630 C   0  0  0  0  0  0
   65.2530   85.0450   83.5560 C   0  0  0  0  0  0
   69.7740   80.1380   83.5320 C   0  0  0  0  0  0
   68.4340   82.9550   84.9680 C   0  0  0  0  0  0
   66.2890   84.1040   87.4630 C   0  0  0  0  0  0
   67.7520   78.1120   82.1030 C   0  0  0  0  0  0
   67.4530   79.0770   83.2290 C   0  0  0  0  0  0
   68.3290   79.9770   83.9000 C   0  0  0  0  0  0
   67.7890   80.7240   84.9530 C   0  0  0  0  0  0
   66.4470   80.5640   85.3340 C   0  0  0  0  0  0
   65.5990   79.6820   84.6580 C   0  0  0  0  0  0
   66.1280   78.9430   83.5880 C   0  0  0  0  0  0
   65.9220   81.2770   86.5480 C   0  0  0  0  0  0
   64.3260   77.6140   82.5880 O   0  0  0  0  0  0
   66.4440   77.4740   81.8970 O   0  0  0  0  0  0
   68.5890   81.6440   85.5490 O   0  0  0  0  0  0
   64.2880   79.5520   85.1000 O   0  0  0  0  0  0
   64.2030   84.7050   82.9660 O   0  0  0  0  0  0
   66.3930   84.9550   83.0450 O   0  5  0  0  0  0
   64.0626   82.1163   85.6076 H   0  0  0  0  0  0
   63.5070   84.2050   85.2768 H   0  0  0  0  0  0
   63.8164   85.3174   86.6528 H   0  0  0  0  0  0
   64.6866   86.5916   84.9000 H   0  0  0  0  0  0
   66.1526   85.6701   85.3778 H   0  0  0  0  0  0
   70.0136   79.4744   82.6881 H   0  0  0  0  0  0
   70.4036   79.8756   84.3950 H   0  0  0  0  0  0
   69.9646   81.1821   83.2430 H   0  0  0  0  0  0
   69.0996   83.6646   85.4813 H   0  0  0  0  0  0
   67.3905   83.2845   85.0798 H   0  0  0  0  0  0
   68.6937   82.9157   83.8998 H   0  0  0  0  0  0
   66.8322   83.2185   87.8248 H   0  0  0  0  0  0
   65.8454   84.6365   88.3172 H   0  0  0  0  0  0
   66.9864   84.7722   86.9364 H   0  0  0  0  0  0
   68.1030   78.6720   81.2237 H   0  0  0  0  0  0
   68.5319   77.4054   82.4230 H   0  0  0  0  0  0
   66.7762   81.6976   87.0988 H   0  0  0  0  0  0
   65.4020   80.5439   87.1821 H   0  0  0  0  0  0
   63.9296   80.1589   85.9446 H   0  0  0  0  0  0
  1 16  1  0  0  0
  1 18  2  0  0  0
  1 19  1  0  0  0
  2  3  2  0  0  0
  2 17  1  0  0  0
  2 24  1  0  0  0
  3  4  1  0  0  0
  3  9  1  0  0  0
  4  5  1  0  0  0
  4 25  1  0  0  0
  4 26  1  0  0  0
  5  6  1  0  0  0
  5 27  1  0  0  0
  5 28  1  0  0  0
  6 22  2  0  0  0
  6 23  1  0  0  0
  7 12  1  0  0  0
  7 29  1  0  0  0
  7 30  1  0  0  0
  7 31  1  0  0  0
  8 20  1  0  0  0
  8 32  1  0  0  0
  8 33  1  0  0  0
  8 34  1  0  0  0
  9 35  1  0  0  0
  9 36  1  0  0  0
  9 37  1  0  0  0
 10 11  1  0  0  0
 10 19  1  0  0  0
 10 38  1  0  0  0
 10 39  1  0  0  0
 11 12  2  0  0  0
 11 16  1  0  0  0
 12 13  1  0  0  0
 13 14  2  0  0  0
 13 20  1  0  0  0
 14 15  1  0  0  0
 14 17  1  0  0  0
 15 16  2  0  0  0
 15 21  1  0  0  0
 17 40  1  0  0  0
 17 41  1  0  0  0
 21 42  1  0  0  0
M  CHG  1  23  -1
M  END
> <s_m_source_file>
../1jr1_ligand.sdf

> <i_m_source_file_index>
1

> <s_epik_input>
W0NIMl0xT0MoPU8pYyhjMTIpYyhbT0hdKWMoYyhjMltDSDNdKU9bQ0gzXSlbQ0gyXS9bQ0hdPUMoW0NIM10pL1tDSDJdW0NIMl1DKD1PKVtPSF0=

> <s_epik_cmdline>
J2VwaWtfYXBwJywgJy1pbWFlJywgJ2xpZ2FuZF9wcm8ubWFlJywgJy1vbWFlJywgJ2xpZ2FuZF9wcmVwLm1hZScsICctbXMnLCAnMScsICctcGgnLCAnNycsICctcGh0JywgJzAuNScsICctbnQn

> <r_epik_Ionization_Penalty>
  0.0407

> <r_epik_Ionization_Penalty_Charging>
  0.0034

> <r_epik_Ionization_Penalty_Neutral>
  0.0373

> <r_epik_State_Penalty>
  0.0312

> <r_epik_Charging_Adjusted_Penalty>
0.0346170092688838

> <i_epik_Tot_Q>
-1

> <i_epik_Tot_abs_Q>
1

> <s_epik_Chemistry_Notes>
This compound has an ester and may undergo hydrolysis at high or low pH.

$$$$
