1jrs_ligand
                    3D
 Schrodinger Suite 2020-3.
 71 70  0  0  1  0            999 V2000
   55.5410  -13.8830    9.6830 C   0  0  0  0  0  0
   56.0310  -12.9620    9.0020 O   0  0  0  0  0  0
   55.7130  -15.3410    9.2730 C   0  0  0  0  0  0
   54.7470  -13.6880   10.7460 N   0  0  0  0  0  0
   54.5780  -12.3540   11.2730 C   0  0  2  0  0  0
   55.4570  -12.2720   12.5000 C   0  0  0  0  0  0
   56.2130  -11.3200   12.6310 O   0  0  0  0  0  0
   53.1410  -12.0310   11.6780 C   0  0  0  0  0  0
   52.1010  -11.7480   10.5830 C   0  0  0  0  0  0
   50.8980  -11.1130   11.2610 C   0  0  0  0  0  0
   52.6050  -10.7660    9.5230 C   0  0  0  0  0  0
   55.3950  -13.2900   13.3740 N   0  0  0  0  0  0
   56.1860  -13.3330   14.6030 C   0  0  2  0  0  0
   57.6810  -13.3860   14.3570 C   0  0  0  0  0  0
   58.1760  -14.1670   13.5250 O   0  0  0  0  0  0
   55.8250  -14.5600   15.4670 C   0  0  0  0  0  0
   54.5730  -14.5940   16.3500 C   0  0  0  0  0  0
   53.3110  -14.4210   15.5080 C   0  0  0  0  0  0
   54.5100  -15.9360   17.0720 C   0  0  0  0  0  0
   58.3970  -12.5860   15.1320 N   0  0  0  0  0  0
   59.8310  -12.5560   15.0430 C   0  0  2  0  0  0
   60.4540  -13.3230   16.2390 C   0  0  0  0  0  0
   59.5220  -14.3590   16.5860 O   0  0  0  0  0  0
   60.2350  -11.0850   14.9760 C   0  0  0  0  0  0
   59.7910  -10.5330   13.6570 C   0  0  0  0  0  0
   60.2070   -9.0900   13.4780 C   0  0  0  0  0  0
   59.7380   -8.6660   12.1600 N   0  0  0  0  0  0
   59.9470   -7.4350   11.6560 C   0  0  0  0  0  0
   60.6380   -6.5380   12.3660 N   0  3  0  0  0  0
   59.4790   -7.0900   10.4370 N   0  0  0  0  0  0
   56.3766  -15.3999    8.3977 H   0  0  0  0  0  0
   54.7319  -15.7685    9.0187 H   0  0  0  0  0  0
   56.1546  -15.9067   10.1067 H   0  0  0  0  0  0
   54.2263  -14.5352   11.2162 H   0  0  0  0  0  0
   54.8642  -11.6705   10.4600 H   0  0  0  0  0  0
   52.7209  -12.8756   12.2439 H   0  0  0  0  0  0
   53.1312  -11.1279   12.3059 H   0  0  0  0  0  0
   51.8591  -12.6944   10.0772 H   0  0  0  0  0  0
   50.5092  -11.7948   12.0317 H   0  0  0  0  0  0
   50.1149  -10.9204   10.5129 H   0  0  0  0  0  0
   51.1994  -10.1643   11.7291 H   0  0  0  0  0  0
   53.4787  -11.1957    9.0110 H   0  0  0  0  0  0
   52.8915   -9.8202   10.0061 H   0  0  0  0  0  0
   51.8071  -10.5763    8.7900 H   0  0  0  0  0  0
   54.7107  -14.1163   13.1312 H   0  0  0  0  0  0
   55.9206  -12.3759   15.0758 H   0  0  0  0  0  0
   55.6908  -15.4384   14.8185 H   0  0  0  0  0  0
   56.6357  -14.7545   16.1846 H   0  0  0  0  0  0
   54.6260  -13.7707   17.0776 H   0  0  0  0  0  0
   53.3495  -13.4546   14.9840 H   0  0  0  0  0  0
   52.4271  -14.4485   16.1622 H   0  0  0  0  0  0
   53.2473  -15.2353   14.7712 H   0  0  0  0  0  0
   55.4165  -16.0676   17.6810 H   0  0  0  0  0  0
   54.4441  -16.7475   16.3324 H   0  0  0  0  0  0
   53.6239  -15.9607   17.7233 H   0  0  0  0  0  0
   57.8770  -11.9376   15.8525 H   0  0  0  0  0  0
   60.1397  -13.0672   14.1192 H   0  0  0  0  0  0
   61.4222  -13.7490   15.9371 H   0  0  0  0  0  0
   60.6045  -12.6305   17.0803 H   0  0  0  0  0  0
   59.7458  -15.0445   17.4167 H   0  0  0  0  0  0
   59.7517  -10.5343   15.7965 H   0  0  0  0  0  0
   61.3276  -11.0001   15.0711 H   0  0  0  0  0  0
   60.2383  -11.1229   12.8434 H   0  0  0  0  0  0
   58.6944  -10.5855   13.5879 H   0  0  0  0  0  0
   59.7496   -8.4759   14.2678 H   0  0  0  0  0  0
   61.3025   -9.0135   13.5422 H   0  0  0  0  0  0
   59.1813   -9.3683   11.5222 H   0  0  0  0  0  0
   61.0256   -6.8042   13.3604 H   0  0  0  0  0  0
   58.9086   -7.8174    9.8408 H   0  0  0  0  0  0
   59.6682   -6.0816   10.0404 H   0  0  0  0  0  0
   60.8191   -5.5335   11.9559 H   0  0  0  0  0  0
  1  2  2  0  0  0
  1  3  1  0  0  0
  1  4  1  0  0  0
  3 31  1  0  0  0
  3 32  1  0  0  0
  3 33  1  0  0  0
  4  5  1  0  0  0
  4 34  1  0  0  0
  5  6  1  0  0  0
  5  8  1  0  0  0
  5 35  1  0  0  0
  6  7  2  0  0  0
  6 12  1  0  0  0
  8  9  1  0  0  0
  8 36  1  0  0  0
  8 37  1  0  0  0
  9 10  1  0  0  0
  9 11  1  0  0  0
  9 38  1  0  0  0
 10 39  1  0  0  0
 10 40  1  0  0  0
 10 41  1  0  0  0
 11 42  1  0  0  0
 11 43  1  0  0  0
 11 44  1  0  0  0
 12 13  1  0  0  0
 12 45  1  0  0  0
 13 14  1  0  0  0
 13 16  1  0  0  0
 13 46  1  0  0  0
 14 15  2  0  0  0
 14 20  1  0  0  0
 16 17  1  0  0  0
 16 47  1  0  0  0
 16 48  1  0  0  0
 17 18  1  0  0  0
 17 19  1  0  0  0
 17 49  1  0  0  0
 18 50  1  0  0  0
 18 51  1  0  0  0
 18 52  1  0  0  0
 19 53  1  0  0  0
 19 54  1  0  0  0
 19 55  1  0  0  0
 20 21  1  0  0  0
 20 56  1  0  0  0
 21 22  1  0  0  0
 21 24  1  0  0  0
 21 57  1  0  0  0
 22 23  1  0  0  0
 22 58  1  0  0  0
 22 59  1  0  0  0
 23 60  1  0  0  0
 24 25  1  0  0  0
 24 61  1  0  0  0
 24 62  1  0  0  0
 25 26  1  0  0  0
 25 63  1  0  0  0
 25 64  1  0  0  0
 26 27  1  0  0  0
 26 65  1  0  0  0
 26 66  1  0  0  0
 27 28  1  0  0  0
 27 67  1  0  0  0
 28 29  2  0  0  0
 28 30  1  0  0  0
 29 68  1  0  0  0
 29 71  1  0  0  0
 30 69  1  0  0  0
 30 70  1  0  0  0
M  CHG  1  29   1
M  END
> <s_m_source_file>
../1jrs_ligand.sdf

> <i_m_source_file_index>
1

> <s_epik_input>
Tz1DKFtDSDNdKVtOSF1bQ0BASF0oW0NIMl1bQ0hdKFtDSDNdKVtDSDNdKUMoPU8pW05IXVtDQEBIXShbQ0gyXVtDSF0oW0NIM10pW0NIM10pQyg9TylbTkhdW0NASF0oW0NIMl1bT0hdKVtDSDJdW0NIMl1bQ0gyXVtOSF0vQyg9TlxbSF0pW05IMl0=

> <s_epik_cmdline>
J2VwaWtfYXBwJywgJy1pbWFlJywgJ2xpZ2FuZF9wcm8ubWFlJywgJy1vbWFlJywgJ2xpZ2FuZF9wcmVwLm1hZScsICctbXMnLCAnMScsICctcGgnLCAnNycsICctcGh0JywgJzAuNScsICctbnQn

> <r_lp_tautomer_probability>
1

> <r_epik_Ionization_Penalty>
  0.0000

> <r_epik_Ionization_Penalty_Charging>
  0.0000

> <r_epik_Ionization_Penalty_Neutral>
  0.0000

> <r_epik_State_Penalty>
 -0.0000

> <r_epik_Charging_Adjusted_Penalty>
1.4320953077285e-05

> <i_epik_Tot_Q>
1

> <i_epik_Tot_abs_Q>
1

> <s_epik_Chemistry_Notes>
This compound has an imine and may undergo hydrolysis.

$$$$
