1jsv_ligand
                    3D
 Schrodinger Suite 2020-3.
 29 30  0  0  1  0            999 V2000
   14.2130    8.6870   24.6230 N   0  0  0  0  0  0
   13.4030    9.5650   23.9370 C   0  0  0  0  0  0
   13.7080    9.8330   22.6380 N   0  0  0  0  0  0
   12.8280   10.6440   21.9280 C   0  0  0  0  0  0
   11.7900   11.2960   22.4730 N   0  0  0  0  0  0
   12.2500   10.1510   24.5330 C   0  0  0  0  0  0
   11.4710   11.0590   23.8010 C   0  0  0  0  0  0
   10.4610   11.7520   24.3080 N   0  0  0  0  0  0
    9.6680   11.5140   25.3580 C   0  0  0  0  0  0
    8.8140   12.5290   25.8590 C   0  0  0  0  0  0
    8.0310   12.3130   27.0080 C   0  0  0  0  0  0
    9.6380   10.2460   25.9770 C   0  0  0  0  0  0
    8.8770   10.0340   27.1320 C   0  0  0  0  0  0
    8.0690   11.0510   27.6560 C   0  0  0  0  0  0
    6.8790   10.6850   28.8500 S   0  0  0  0  0  0
    5.9160    9.7910   28.2910 O   0  0  0  0  0  0
    6.1970   11.9810   29.1600 O   0  0  0  0  0  0
    7.4650   10.1110   30.2190 N   0  0  0  0  0  0
   15.0959    8.2536   24.1303 H   0  0  0  0  0  0
   13.9769    8.4193   25.6635 H   0  0  0  0  0  0
   12.9932   10.7572   20.8566 H   0  0  0  0  0  0
   11.9735    9.8945   25.5557 H   0  0  0  0  0  0
   10.1571   12.7014   23.8430 H   0  0  0  0  0  0
    8.7634   13.4899   25.3470 H   0  0  0  0  0  0
    7.3988   13.1106   27.3982 H   0  0  0  0  0  0
   10.2132    9.4238   25.5512 H   0  0  0  0  0  0
    8.9135    9.0652   27.6302 H   0  0  0  0  0  0
    6.6380    9.9081   30.9153 H   0  0  0  0  0  0
    8.1466   10.8504   30.6647 H   0  0  0  0  0  0
  1  2  1  0  0  0
  1 19  1  0  0  0
  1 20  1  0  0  0
  2  3  2  0  0  0
  2  6  1  0  0  0
  3  4  1  0  0  0
  4  5  2  0  0  0
  4 21  1  0  0  0
  5  7  1  0  0  0
  6  7  2  0  0  0
  6 22  1  0  0  0
  7  8  1  0  0  0
  8  9  1  0  0  0
  8 23  1  0  0  0
  9 10  2  0  0  0
  9 12  1  0  0  0
 10 11  1  0  0  0
 10 24  1  0  0  0
 11 14  2  0  0  0
 11 25  1  0  0  0
 12 13  2  0  0  0
 12 26  1  0  0  0
 13 14  1  0  0  0
 13 27  1  0  0  0
 14 15  1  0  0  0
 15 16  2  0  0  0
 15 17  2  0  0  0
 15 18  1  0  0  0
 18 28  1  0  0  0
 18 29  1  0  0  0
M  END
> <s_m_source_file>
../1jsv_ligand.sdf

> <i_m_source_file_index>
1

> <s_epik_input>
W05IMl1jMW5bY0hdbmMoW2NIXTEpW05IXWMyW2NIXVtjSF1jKFtjSF1bY0hdMilTKD1PKSg9TylbTkgyXQ==

> <s_epik_cmdline>
J2VwaWtfYXBwJywgJy1pbWFlJywgJ2xpZ2FuZF9wcm8ubWFlJywgJy1vbWFlJywgJ2xpZ2FuZF9wcmVwLm1hZScsICctbXMnLCAnMScsICctcGgnLCAnNycsICctcGh0JywgJzAuNScsICctbnQn

> <r_lp_tautomer_probability>
0.999999968245435

> <r_epik_Ionization_Penalty>
  0.1029

> <r_epik_Ionization_Penalty_Charging>
  0.0000

> <r_epik_Ionization_Penalty_Neutral>
  0.1029

> <r_epik_State_Penalty>
  0.0889

> <r_epik_Charging_Adjusted_Penalty>
0.0889152616243652

> <i_epik_Tot_Q>
0

> <i_epik_Tot_abs_Q>
0

$$$$
