1jt1_ligand
                    3D
 Schrodinger Suite 2020-3.
 28 28  0  0  1  0            999 V2000
    5.3330   -5.8560   21.0830 O   0  5  0  0  0  0
    5.5950   -6.0160   19.8710 C   0  0  0  0  0  0
    4.7630   -6.2200   18.9810 O   0  0  0  0  0  0
    7.0410   -6.1420   19.4860 C   0  0  1  0  0  0
    7.2810   -7.4370   18.7230 C   0  0  0  0  0  0
    8.5890   -7.1950   18.0110 C   0  0  0  0  0  0
    8.4920   -5.7250   17.6040 C   0  0  0  0  0  0
    7.8740   -5.0940   18.7700 N   0  0  0  0  0  0
    7.8930   -3.7300   18.9410 C   0  0  0  0  0  0
    6.9850   -3.1660   19.5260 O   0  0  0  0  0  0
    9.0070   -2.9050   18.1980 C   0  0  1  0  0  0
    8.6750   -2.6310   16.7600 C   0  0  0  0  0  0
    9.4530   -1.6280   18.9340 C   0  0  0  0  0  0
   11.1410   -1.0070   18.4700 S   0  0  0  0  0  0
    7.3941   -6.0275   20.5215 H   0  0  0  0  0  0
    7.3415   -8.2750   19.4330 H   0  0  0  0  0  0
    6.4505   -7.6092   18.0225 H   0  0  0  0  0  0
    9.4234   -7.3884   18.7012 H   0  0  0  0  0  0
    8.6655   -7.8693   17.1452 H   0  0  0  0  0  0
    9.4995   -5.3341   17.3988 H   0  0  0  0  0  0
    7.8726   -5.6351   16.6994 H   0  0  0  0  0  0
    9.8967   -3.5509   18.1615 H   0  0  0  0  0  0
    8.3620   -3.5655   16.2715 H   0  0  0  0  0  0
    9.5624   -2.2294   16.2489 H   0  0  0  0  0  0
    7.8573   -1.8973   16.7059 H   0  0  0  0  0  0
    8.7460   -0.8137   18.7168 H   0  0  0  0  0  0
    9.4727   -1.8171   20.0174 H   0  0  0  0  0  0
   11.5431   -0.1000   18.9450 H   0  0  0  0  0  0
  1  2  1  0  0  0
  2  3  2  0  0  0
  2  4  1  0  0  0
  4  5  1  0  0  0
  4  8  1  0  0  0
  4 15  1  0  0  0
  5  6  1  0  0  0
  5 16  1  0  0  0
  5 17  1  0  0  0
  6  7  1  0  0  0
  6 18  1  0  0  0
  6 19  1  0  0  0
  7  8  1  0  0  0
  7 20  1  0  0  0
  7 21  1  0  0  0
  8  9  1  0  0  0
  9 10  2  0  0  0
  9 11  1  0  0  0
 11 12  1  0  0  0
 11 13  1  0  0  0
 11 22  1  0  0  0
 12 23  1  0  0  0
 12 24  1  0  0  0
 12 25  1  0  0  0
 13 14  1  0  0  0
 13 26  1  0  0  0
 13 27  1  0  0  0
 14 28  1  0  0  0
M  CHG  1   1  -1
M  END
> <s_m_source_file>
../1jt1_ligand.sdf

> <i_m_source_file_index>
1

> <s_epik_input>
W09IXUMoPU8pW0NASF0xW0NIMl1bQ0gyXVtDSDJdTjFDKD1PKVtDQEBIXShbQ0gzXSlbQ0gyXVtTSF0=

> <s_epik_cmdline>
J2VwaWtfYXBwJywgJy1pbWFlJywgJ2xpZ2FuZF9wcm8ubWFlJywgJy1vbWFlJywgJ2xpZ2FuZF9wcmVwLm1hZScsICctbXMnLCAnMScsICctcGgnLCAnNycsICctcGh0JywgJzAuNScsICctbnQn

> <r_lp_tautomer_probability>
1

> <r_epik_Ionization_Penalty>
  0.0024

> <r_epik_Ionization_Penalty_Charging>
  0.0004

> <r_epik_Ionization_Penalty_Neutral>
  0.0020

> <r_epik_State_Penalty>
 -0.0000

> <r_epik_Charging_Adjusted_Penalty>
0.000441835624439187

> <i_epik_Tot_Q>
-1

> <i_epik_Tot_abs_Q>
1

$$$$
