1jtq_ligand
                    3D
 Schrodinger Suite 2020-3.
 52 55  0  0  1  0            999 V2000
   13.8790   19.2360   32.6030 N   0  0  0  0  0  0
   13.0380   19.3160   31.5440 C   0  0  0  0  0  0
   13.1360   18.5310   30.5410 N   0  0  0  0  0  0
   14.2390   17.5570   30.5340 C   0  0  0  0  0  0
   15.0590   17.4380   31.5730 C   0  0  0  0  0  0
   14.9550   18.3880   32.7430 C   0  0  0  0  0  0
   14.6400   16.5220   29.5780 N   0  0  0  0  0  0
   15.8020   15.8320   30.1380 C   0  0  0  0  0  0
   16.0970   16.3780   31.3270 C   0  0  3  0  0  0
   17.1940   15.9880   32.2840 C   0  0  0  0  0  0
   17.1840   14.4810   32.5540 C   0  0  0  0  0  0
   16.1150   14.1800   33.5690 C   0  0  0  0  0  0
   16.3010   14.4480   34.9660 C   0  0  0  0  0  0
   15.2540   14.1510   35.9060 C   0  0  0  0  0  0
   14.0320   13.5890   35.4220 C   0  0  0  0  0  0
   13.8690   13.3300   34.0370 C   0  0  0  0  0  0
   14.9000   13.6240   33.1220 C   0  0  0  0  0  0
   12.8560   13.2220   36.3290 C   0  0  0  0  0  0
   15.6720   18.3530   33.7100 O   0  0  0  0  0  0
   11.9840   20.3260   31.6320 N   0  0  0  0  0  0
   11.9860   12.4410   38.4090 C   0  0  1  0  0  0
   11.6470   10.9450   38.3070 C   0  0  0  0  0  0
   12.1200   12.8240   39.8480 C   0  0  0  0  0  0
   13.5520   13.0040   40.2030 O   0  5  0  0  0  0
   11.1950   12.8940   40.6210 O   0  0  0  0  0  0
   13.1450   12.7960   37.6010 N   0  0  0  0  0  0
   11.7130   13.2830   35.9400 O   0  0  0  0  0  0
   12.0270   10.1820   39.5830 C   0  0  0  0  0  0
   12.7820    8.9690   39.1780 C   0  0  0  0  0  0
   13.7680    8.9940   38.1220 N   0  0  0  0  0  0
   14.1150    7.7910   38.1420 N   0  0  0  0  0  0
   13.4870    7.0070   39.0580 N   0  3  0  0  0  0
   12.6340    7.8400   39.6990 N   0  0  0  0  0  0
   13.7338   19.8951   33.4716 H   0  0  0  0  0  0
   16.2750   15.0101   29.5806 H   0  0  0  0  0  0
   18.1693   16.2609   31.8546 H   0  0  0  0  0  0
   17.0529   16.5162   33.2385 H   0  0  0  0  0  0
   16.9732   13.9423   31.6184 H   0  0  0  0  0  0
   18.1656   14.1715   32.9422 H   0  0  0  0  0  0
   17.2393   14.8783   35.3162 H   0  0  0  0  0  0
   15.3898   14.3509   36.9689 H   0  0  0  0  0  0
   12.9354   12.8985   33.6760 H   0  0  0  0  0  0
   14.7563   13.4198   32.0610 H   0  0  0  0  0  0
   11.9273   20.9867   32.5096 H   0  0  0  0  0  0
   11.2479   20.4250   30.8206 H   0  0  0  0  0  0
   11.1960   13.0687   37.9709 H   0  0  0  0  0  0
   10.5659   10.8244   38.1434 H   0  0  0  0  0  0
   12.1971   10.5010   37.4643 H   0  0  0  0  0  0
   14.1569   12.7119   38.0240 H   0  0  0  0  0  0
   12.6506   10.8242   40.2223 H   0  0  0  0  0  0
   11.1137    9.8994   40.1270 H   0  0  0  0  0  0
   13.7376    5.9385   39.1315 H   0  0  0  0  0  0
  1  2  1  0  0  0
  1  6  1  0  0  0
  1 34  1  0  0  0
  2  3  2  0  0  0
  2 20  1  0  0  0
  3  4  1  0  0  0
  4  5  2  0  0  0
  4  7  1  0  0  0
  5  6  1  0  0  0
  5  9  1  0  0  0
  6 19  2  0  0  0
  7  8  2  0  0  0
  8  9  1  0  0  0
  8 35  1  0  0  0
  9 10  1  0  0  0
 10 11  1  0  0  0
 10 36  1  0  0  0
 10 37  1  0  0  0
 11 12  1  0  0  0
 11 38  1  0  0  0
 11 39  1  0  0  0
 12 13  2  0  0  0
 12 17  1  0  0  0
 13 14  1  0  0  0
 13 40  1  0  0  0
 14 15  2  0  0  0
 14 41  1  0  0  0
 15 16  1  0  0  0
 15 18  1  0  0  0
 16 17  2  0  0  0
 16 42  1  0  0  0
 17 43  1  0  0  0
 18 26  1  0  0  0
 18 27  2  0  0  0
 20 44  1  0  0  0
 20 45  1  0  0  0
 21 22  1  0  0  0
 21 23  1  0  0  0
 21 26  1  0  0  0
 21 46  1  0  0  0
 22 28  1  0  0  0
 22 47  1  0  0  0
 22 48  1  0  0  0
 23 24  1  0  0  0
 23 25  2  0  0  0
 26 49  1  0  0  0
 28 29  1  0  0  0
 28 50  1  0  0  0
 28 51  1  0  0  0
 29 30  2  0  0  0
 29 33  1  0  0  0
 30 31  1  0  0  0
 31 32  1  0  0  0
 32 33  2  0  0  0
 32 52  1  0  0  0
M  CHG  2  24  -1  32   1
M  END
> <s_m_source_file>
../1jtq_ligand.sdf

> <i_m_source_file_index>
1

> <s_epik_input>
bjFjKFtOSDJdKVtuSF1jKD1PKWMoYzEyKVtDSF0oW0NIXT1OMilbQ0gyXVtDSDJdYzNbY0hdW2NIXWMoW2NIXVtjSF0zKUMoPU8pW05IXVtDQEhdKEMoPU8pW09IXSlbQ0gyXVtDSDJdYzRuW25IXW5uNA==

> <s_epik_cmdline>
J2VwaWtfYXBwJywgJy1pbWFlJywgJ2xpZ2FuZF9wcm8ubWFlJywgJy1vbWFlJywgJ2xpZ2FuZF9wcmVwLm1hZScsICctbXMnLCAnMScsICctcGgnLCAnNycsICctcGh0JywgJzAuNScsICctbnQn

> <r_epik_Ionization_Penalty>
  0.0443

> <r_epik_Ionization_Penalty_Charging>
  0.0079

> <r_epik_Ionization_Penalty_Neutral>
  0.0364

> <r_epik_State_Penalty>
  0.1806

> <r_epik_Charging_Adjusted_Penalty>
0.188481634446685

> <i_epik_Tot_Q>
0

> <i_epik_Tot_abs_Q>
2

> <s_epik_Chemistry_Notes>
This compound has an imine and may undergo hydrolysis.

$$$$
