1juf_ligand
                    3D
 Schrodinger Suite 2020-3.
147149  0  0  1  0            999 V2000
   33.4650    7.3440   -3.2500 N   0  3  0  0  0  0
   33.3600    8.7370   -3.7800 C   0  0  2  0  0  0
   31.9140    8.9970   -4.2080 C   0  0  0  0  0  0
   31.3730    8.3000   -5.0800 O   0  0  0  0  0  0
   34.3270    8.9180   -4.9490 C   0  0  0  0  0  0
   34.3640   10.2670   -5.3800 O   0  0  0  0  0  0
   31.3060    9.9960   -3.5720 N   0  0  0  0  0  0
   29.9060   10.3530   -3.7800 C   0  0  2  0  0  0
   29.6070   11.0700   -5.0770 C   0  0  0  0  0  0
   30.4570   11.7320   -5.6320 O   0  0  0  0  0  0
   29.3980   11.2090   -2.6100 C   0  0  0  0  0  0
   30.1850   12.3820   -2.4440 O   0  0  0  0  0  0
   28.3750   10.9070   -5.5450 N   0  0  0  0  0  0
   27.9130   11.5280   -6.7760 C   0  0  2  0  0  0
   27.3040   12.8490   -6.3720 C   0  0  0  0  0  0
   26.8420   13.0110   -5.2390 O   0  0  0  0  0  0
   26.8190   10.6520   -7.4750 C   0  0  0  0  0  0
   25.6040   10.5210   -6.5610 C   0  0  0  0  0  0
   26.4290   11.2470   -8.8190 C   0  0  0  0  0  0
   27.2990   13.8040   -7.2870 N   0  0  0  0  0  0
   26.7040   15.1000   -6.9930 C   0  0  2  0  0  0
   25.5450   15.3860   -7.9580 C   0  0  0  0  0  0
   25.4910   14.8300   -9.0700 O   0  0  0  0  0  0
   27.7250   16.2330   -7.1480 C   0  0  2  0  0  0
   28.1140   16.3730   -8.6060 C   0  0  0  0  0  0
   28.9800   15.9490   -6.2960 C   0  0  0  0  0  0
   28.8970   17.6230   -8.8800 C   0  0  0  0  0  0
   24.6150   16.2240   -7.5220 N   0  0  0  0  0  0
   23.5120   16.6020   -8.3890 C   0  0  0  0  0  0
   23.9160   17.8690   -9.1210 C   0  0  0  0  0  0
   24.7030   18.6740   -8.6110 O   0  0  0  0  0  0
   23.4070   18.0350  -10.3360 N   0  0  0  0  0  0
   23.6880   19.2260  -11.1260 C   0  0  2  0  0  0
   22.3150   19.8560  -11.3490 C   0  0  0  0  0  0
   21.9080   20.7260  -10.5940 O   0  0  0  0  0  0
   24.3430   18.8460  -12.4600 C   0  0  0  0  0  0
   24.6240   20.1010  -13.2740 C   0  0  0  0  0  0
   25.6320   18.0830  -12.1990 C   0  0  0  0  0  0
   21.5700   19.3760  -12.3440 N   0  0  0  0  0  0
   20.2170   19.8970  -12.5900 C   0  0  2  0  0  0
   19.3320   19.5210  -11.4020 C   0  0  0  0  0  0
   19.4300   18.4110  -10.8670 O   0  0  0  0  0  0
   19.6480   19.2950  -13.8840 C   0  0  0  0  0  0
   20.6200   19.6350  -14.9990 C   0  0  0  0  0  0
   20.6610   20.7700  -15.7010 C   0  0  0  0  0  0
   21.6650   18.7940  -15.4440 C   0  0  0  0  0  0
   21.7840   20.6760  -16.5740 N   0  3  0  0  0  0
   22.3720   19.5150  -16.3950 C   0  0  0  0  0  0
   22.0880   17.5000  -15.1120 C   0  0  0  0  0  0
   23.5270   19.0310  -17.0160 C   0  0  0  0  0  0
   23.2400   17.0110  -15.7610 C   0  0  0  0  0  0
   23.9280   17.7450  -16.6650 C   0  0  0  0  0  0
   18.4530   20.4320  -10.9920 N   0  0  0  0  0  0
   17.5910   20.1620   -9.8440 C   0  0  2  0  0  0
   16.3600   19.3740  -10.2490 C   0  0  0  0  0  0
   16.0540   19.2640  -11.4390 O   0  0  0  0  0  0
   17.1300   21.4730   -9.2010 C   0  0  0  0  0  0
   18.2600   22.4110   -8.8780 C   0  0  0  0  0  0
   18.4760   23.5630   -9.6350 C   0  0  0  0  0  0
   19.1230   22.1450   -7.7990 C   0  0  0  0  0  0
   19.5280   24.4430   -9.3190 C   0  0  0  0  0  0
   20.1610   22.9970   -7.4850 C   0  0  0  0  0  0
   20.3600   24.1450   -8.2360 C   0  0  0  0  0  0
   21.3610   25.0190   -7.8740 O   0  0  0  0  0  0
   15.6660   18.8090   -9.2630 N   0  0  0  0  0  0
   14.4280   18.0940   -9.5590 C   0  0  2  0  0  0
   13.4160   19.1260  -10.0810 C   0  0  0  0  0  0
   13.6490   20.3310   -9.8050 O   0  0  0  0  0  0
   13.8460   17.4770   -8.2990 C   0  0  0  0  0  0
   14.6880   16.3990   -7.6270 C   0  0  0  0  0  0
   13.9690   15.9650   -6.3440 C   0  0  0  0  0  0
   14.8850   15.2600   -8.5820 C   0  0  0  0  0  0
   12.4020   18.7070  -10.7050 O   0  5  0  0  0  0
   32.7674    7.2182   -2.4089 H   0  0  0  0  0  0
   34.4930    7.1597   -2.9046 H   0  0  0  0  0  0
   33.2120    6.6287   -4.0464 H   0  0  0  0  0  0
   33.6383    9.4455   -2.9859 H   0  0  0  0  0  0
   35.3393    8.6218   -4.6367 H   0  0  0  0  0  0
   34.0048    8.2893   -5.7921 H   0  0  0  0  0  0
   35.0155   10.5594   -6.2167 H   0  0  0  0  0  0
   31.9183   10.5650   -2.8569 H   0  0  0  0  0  0
   29.4247    9.3661   -3.8457 H   0  0  0  0  0  0
   28.3578   11.5112   -2.8014 H   0  0  0  0  0  0
   29.4445   10.6234   -1.6800 H   0  0  0  0  0  0
   29.9439   13.0974   -1.6440 H   0  0  0  0  0  0
   27.6937   10.2716   -4.9601 H   0  0  0  0  0  0
   28.7856   11.6518   -7.4342 H   0  0  0  0  0  0
   27.2042    9.6418   -7.6778 H   0  0  0  0  0  0
   25.9144   10.0890   -5.5982 H   0  0  0  0  0  0
   24.8584    9.8649   -7.0340 H   0  0  0  0  0  0
   25.1634   11.5147   -6.3921 H   0  0  0  0  0  0
   27.3218   11.3299   -9.4562 H   0  0  0  0  0  0
   25.9940   12.2456   -8.6655 H   0  0  0  0  0  0
   25.6891   10.5959   -9.3074 H   0  0  0  0  0  0
   27.7471   13.6156   -8.2738 H   0  0  0  0  0  0
   26.3669   15.0093   -5.9499 H   0  0  0  0  0  0
   27.2653   17.1753   -6.8152 H   0  0  0  0  0  0
   28.7347   15.5151   -8.9039 H   0  0  0  0  0  0
   27.2062   16.4018   -9.2266 H   0  0  0  0  0  0
   28.6908   15.8485   -5.2395 H   0  0  0  0  0  0
   29.6922   16.7804   -6.4038 H   0  0  0  0  0  0
   29.4515   15.0157   -6.6375 H   0  0  0  0  0  0
   29.1501   17.6701   -9.9495 H   0  0  0  0  0  0
   29.8218   17.6143   -8.2844 H   0  0  0  0  0  0
   28.2933   18.5011   -8.6071 H   0  0  0  0  0  0
   24.6788   16.6333   -6.5030 H   0  0  0  0  0  0
   23.3149   15.7915   -9.1061 H   0  0  0  0  0  0
   22.6126   16.7807   -7.7814 H   0  0  0  0  0  0
   22.7587   17.2452  -10.7433 H   0  0  0  0  0  0
   24.3870   19.8844  -10.5894 H   0  0  0  0  0  0
   23.6656   18.2004  -13.0382 H   0  0  0  0  0  0
   23.6821   20.6401  -13.4535 H   0  0  0  0  0  0
   25.0749   19.8200  -14.2372 H   0  0  0  0  0  0
   25.3180   20.7498  -12.7196 H   0  0  0  0  0  0
   25.4110   17.1803  -11.6105 H   0  0  0  0  0  0
   26.3303   18.7233  -11.6401 H   0  0  0  0  0  0
   26.0872   17.7934  -13.1576 H   0  0  0  0  0  0
   21.9781   18.5807  -12.9851 H   0  0  0  0  0  0
   20.2906   20.9898  -12.6921 H   0  0  0  0  0  0
   19.5535   18.2049  -13.7707 H   0  0  0  0  0  0
   18.6580   19.7298  -14.0863 H   0  0  0  0  0  0
   19.9026   21.5487  -15.5324 H   0  0  0  0  0  0
   21.5486   16.8964  -14.3821 H   0  0  0  0  0  0
   24.0843   19.6290  -17.7371 H   0  0  0  0  0  0
   23.5887   16.0054  -15.5258 H   0  0  0  0  0  0
   24.8175   17.3195  -17.1297 H   0  0  0  0  0  0
   18.3775   21.3926  -11.5226 H   0  0  0  0  0  0
   18.2143   19.5665   -9.1607 H   0  0  0  0  0  0
   16.4507   21.9992   -9.8878 H   0  0  0  0  0  0
   16.6035   21.2547   -8.2602 H   0  0  0  0  0  0
   17.8234   23.7837  -10.4797 H   0  0  0  0  0  0
   18.9681   21.2479   -7.1995 H   0  0  0  0  0  0
   19.6916   25.3440   -9.9103 H   0  0  0  0  0  0
   20.8225   22.7685   -6.6493 H   0  0  0  0  0  0
   21.5308   25.9341   -8.4603 H   0  0  0  0  0  0
   16.0251   18.8808   -8.2258 H   0  0  0  0  0  0
   14.6770   17.3035  -10.2823 H   0  0  0  0  0  0
   13.6965   18.2611   -7.5421 H   0  0  0  0  0  0
   12.8804   17.0053   -8.5339 H   0  0  0  0  0  0
   15.6941   16.7641   -7.3733 H   0  0  0  0  0  0
   13.8493   16.8332   -5.6792 H   0  0  0  0  0  0
   14.5630   15.1921   -5.8344 H   0  0  0  0  0  0
   12.9790   15.5585   -6.5981 H   0  0  0  0  0  0
   15.4029   15.6219   -9.4825 H   0  0  0  0  0  0
   13.9063   14.8445   -8.8639 H   0  0  0  0  0  0
   15.4903   14.4781   -8.1002 H   0  0  0  0  0  0
   22.0261   21.5090  -17.2504 H   0  0  0  0  0  0
  1  2  1  0  0  0
  1 74  1  0  0  0
  1 75  1  0  0  0
  1 76  1  0  0  0
  2  3  1  0  0  0
  2  5  1  0  0  0
  2 77  1  0  0  0
  3  4  2  0  0  0
  3  7  1  0  0  0
  5  6  1  0  0  0
  5 78  1  0  0  0
  5 79  1  0  0  0
  6 80  1  0  0  0
  7  8  1  0  0  0
  7 81  1  0  0  0
  8  9  1  0  0  0
  8 11  1  0  0  0
  8 82  1  0  0  0
  9 10  2  0  0  0
  9 13  1  0  0  0
 11 12  1  0  0  0
 11 83  1  0  0  0
 11 84  1  0  0  0
 12 85  1  0  0  0
 13 14  1  0  0  0
 13 86  1  0  0  0
 14 15  1  0  0  0
 14 17  1  0  0  0
 14 87  1  0  0  0
 15 16  2  0  0  0
 15 20  1  0  0  0
 17 18  1  0  0  0
 17 19  1  0  0  0
 17 88  1  0  0  0
 18 89  1  0  0  0
 18 90  1  0  0  0
 18 91  1  0  0  0
 19 92  1  0  0  0
 19 93  1  0  0  0
 19 94  1  0  0  0
 20 21  1  0  0  0
 20 95  1  0  0  0
 21 22  1  0  0  0
 21 24  1  0  0  0
 21 96  1  0  0  0
 22 23  2  0  0  0
 22 28  1  0  0  0
 24 25  1  0  0  0
 24 26  1  0  0  0
 24 97  1  0  0  0
 25 27  1  0  0  0
 25 98  1  0  0  0
 25 99  1  0  0  0
 26100  1  0  0  0
 26101  1  0  0  0
 26102  1  0  0  0
 27103  1  0  0  0
 27104  1  0  0  0
 27105  1  0  0  0
 28 29  1  0  0  0
 28106  1  0  0  0
 29 30  1  0  0  0
 29107  1  0  0  0
 29108  1  0  0  0
 30 31  2  0  0  0
 30 32  1  0  0  0
 32 33  1  0  0  0
 32109  1  0  0  0
 33 34  1  0  0  0
 33 36  1  0  0  0
 33110  1  0  0  0
 34 35  2  0  0  0
 34 39  1  0  0  0
 36 37  1  0  0  0
 36 38  1  0  0  0
 36111  1  0  0  0
 37112  1  0  0  0
 37113  1  0  0  0
 37114  1  0  0  0
 38115  1  0  0  0
 38116  1  0  0  0
 38117  1  0  0  0
 39 40  1  0  0  0
 39118  1  0  0  0
 40 41  1  0  0  0
 40 43  1  0  0  0
 40119  1  0  0  0
 41 42  2  0  0  0
 41 53  1  0  0  0
 43 44  1  0  0  0
 43120  1  0  0  0
 43121  1  0  0  0
 44 45  2  0  0  0
 44 46  1  0  0  0
 45 47  1  0  0  0
 45122  1  0  0  0
 46 48  2  0  0  0
 46 49  1  0  0  0
 47 48  1  0  0  0
 47147  1  0  0  0
 48 50  1  0  0  0
 49 51  2  0  0  0
 49123  1  0  0  0
 50 52  2  0  0  0
 50124  1  0  0  0
 51 52  1  0  0  0
 51125  1  0  0  0
 52126  1  0  0  0
 53 54  1  0  0  0
 53127  1  0  0  0
 54 55  1  0  0  0
 54 57  1  0  0  0
 54128  1  0  0  0
 55 56  2  0  0  0
 55 65  1  0  0  0
 57 58  1  0  0  0
 57129  1  0  0  0
 57130  1  0  0  0
 58 59  2  0  0  0
 58 60  1  0  0  0
 59 61  1  0  0  0
 59131  1  0  0  0
 60 62  2  0  0  0
 60132  1  0  0  0
 61 63  2  0  0  0
 61133  1  0  0  0
 62 63  1  0  0  0
 62134  1  0  0  0
 63 64  1  0  0  0
 64135  1  0  0  0
 65 66  1  0  0  0
 65136  1  0  0  0
 66 67  1  0  0  0
 66 69  1  0  0  0
 66137  1  0  0  0
 67 68  2  0  0  0
 67 73  1  0  0  0
 69 70  1  0  0  0
 69138  1  0  0  0
 69139  1  0  0  0
 70 71  1  0  0  0
 70 72  1  0  0  0
 70140  1  0  0  0
 71141  1  0  0  0
 71142  1  0  0  0
 71143  1  0  0  0
 72144  1  0  0  0
 72145  1  0  0  0
 72146  1  0  0  0
M  CHG  3   1   1  47   1  73  -1
M  END
> <s_m_source_file>
../1juf_ligand.sdf

> <i_m_source_file_index>
1

> <s_epik_input>
W09IXVtDSDJdW0NASF0oW05IMytdKUMoPU8pW05IXVtDQEBIXShbQ0gyXVtPSF0pQyg9TylbTkhdW0NAQEhdKFtDSF0oW0NIM10pW0NIM10pQyg9TylbTkhdW0NAQEhdKFtDQEBIXShbQ0gzXSlbQ0gyXVtDSDNdKUMoPU8pW05IXVtDSDJdQyg9TylbTkhdW0NAQEhdKFtDSF0oW0NIM10pW0NIM10pQyg9TylbTkhdW0NAQEhdKFtDSDJdYzFbY0hdW25IXWMoYzEyKVtjSF1bY0hdW2NIXVtjSF0yKUMoPU8pW05IXVtDQEhdKEMoPU8pW05IXVtDQEhdKEMoPU8pW09IXSlbQ0gyXVtDSF0oW0NIM10pW0NIM10pW0NIMl1jM1tjSF1bY0hdYyhbT0hdKVtjSF1bY0hdMw==

> <s_epik_cmdline>
J2VwaWtfYXBwJywgJy1pbWFlJywgJ2xpZ2FuZF9wcm8ubWFlJywgJy1vbWFlJywgJ2xpZ2FuZF9wcmVwLm1hZScsICctbXMnLCAnMScsICctcGgnLCAnNycsICctcGh0JywgJzAuNScsICctbnQn

> <r_epik_Ionization_Penalty>
  0.1640

> <r_epik_Ionization_Penalty_Charging>
  0.1631

> <r_epik_Ionization_Penalty_Neutral>
  0.0009

> <r_epik_State_Penalty>
  0.1523

> <r_epik_Charging_Adjusted_Penalty>
0.315384844246835

> <i_epik_Tot_Q>
1

> <i_epik_Tot_abs_Q>
3

$$$$
