1juj_ligand
                    3D
 Schrodinger Suite 2020-3.
 50 52  0  0  1  0            999 V2000
  -43.2240  -49.5530    3.6100 C   0  0  0  0  0  0
  -41.8100  -49.5780    3.4990 C   0  0  0  0  0  0
  -41.0650  -48.3700    3.6010 C   0  0  0  0  0  0
  -41.7200  -47.1000    3.8230 C   0  0  0  0  0  0
  -43.1380  -47.1140    3.9270 C   0  0  0  0  0  0
  -43.8790  -48.3100    3.8270 C   0  0  0  0  0  0
  -44.0360  -50.8660    3.5120 C   0  0  0  0  0  0
  -44.7080  -51.1660    2.1410 C   0  0  0  0  0  0
  -46.0890  -50.5260    2.0040 C   0  0  0  0  0  0
  -47.1920  -50.7660    2.8260 C   0  0  0  0  0  0
  -48.2910  -50.0040    2.4180 N   0  3  0  0  0  0
  -47.8810  -49.2770    1.3280 C   0  0  0  0  0  0
  -46.5220  -49.6080    1.0780 C   0  0  0  0  0  0
  -45.8010  -48.9190   -0.1210 C   0  0  0  0  0  0
  -44.6450  -49.1200   -0.4390 O   0  0  0  0  0  0
  -46.5480  -48.0350   -0.8460 N   0  0  0  0  0  0
  -47.9280  -47.7410   -0.5350 C   0  0  0  0  0  0
  -48.5370  -48.3140    0.4620 N   0  0  0  0  0  0
  -48.6050  -46.8440   -1.3060 N   0  0  0  0  0  0
  -41.0100  -45.7490    3.9590 C   0  0  0  0  0  0
  -41.6630  -44.7190    4.1540 O   0  0  0  0  0  0
  -39.6680  -45.7370    3.8750 N   0  0  0  0  0  0
  -38.7770  -44.5470    4.0060 C   0  0  1  0  0  0
  -38.0680  -44.4820    5.3950 C   0  0  0  0  0  0
  -38.9820  -44.2170    6.6360 C   0  0  0  0  0  0
  -38.3050  -44.1650    8.0130 C   0  0  0  0  0  0
  -37.1980  -43.5880    8.1380 O   0  5  0  0  0  0
  -38.8800  -44.7040    8.9860 O   0  0  0  0  0  0
  -37.7740  -44.5180    2.7860 C   0  0  0  0  0  0
  -37.5120  -43.4480    2.1570 O   0  5  0  0  0  0
  -37.2190  -45.6100    2.4630 O   0  0  0  0  0  0
  -41.2935  -50.5238    3.3354 H   0  0  0  0  0  0
  -39.9793  -48.4025    3.5100 H   0  0  0  0  0  0
  -43.6669  -46.1747    4.0884 H   0  0  0  0  0  0
  -44.9649  -48.2809    3.9170 H   0  0  0  0  0  0
  -43.3756  -51.7216    3.7166 H   0  0  0  0  0  0
  -44.8522  -50.8483    4.2492 H   0  0  0  0  0  0
  -44.0757  -50.7762    1.3297 H   0  0  0  0  0  0
  -44.8287  -52.2528    2.0218 H   0  0  0  0  0  0
  -47.1115  -51.4782    3.6604 H   0  0  0  0  0  0
  -46.1021  -47.5138   -1.7059 H   0  0  0  0  0  0
  -48.0999  -46.3537   -2.1513 H   0  0  0  0  0  0
  -49.6565  -46.6103   -1.0830 H   0  0  0  0  0  0
  -39.2345  -46.7310    3.6902 H   0  0  0  0  0  0
  -39.4362  -43.6670    3.9755 H   0  0  0  0  0  0
  -37.5628  -45.4387    5.5939 H   0  0  0  0  0  0
  -37.3263  -43.6697    5.3904 H   0  0  0  0  0  0
  -39.4841  -43.2451    6.5207 H   0  0  0  0  0  0
  -39.7372  -45.0132    6.7119 H   0  0  0  0  0  0
  -49.2433  -50.0759    2.9639 H   0  0  0  0  0  0
  1  2  2  0  0  0
  1  6  1  0  0  0
  1  7  1  0  0  0
  2  3  1  0  0  0
  2 32  1  0  0  0
  3  4  2  0  0  0
  3 33  1  0  0  0
  4  5  1  0  0  0
  4 20  1  0  0  0
  5  6  2  0  0  0
  5 34  1  0  0  0
  6 35  1  0  0  0
  7  8  1  0  0  0
  7 36  1  0  0  0
  7 37  1  0  0  0
  8  9  1  0  0  0
  8 38  1  0  0  0
  8 39  1  0  0  0
  9 10  2  0  0  0
  9 13  1  0  0  0
 10 11  1  0  0  0
 10 40  1  0  0  0
 11 12  1  0  0  0
 11 50  1  0  0  0
 12 13  2  0  0  0
 12 18  1  0  0  0
 13 14  1  0  0  0
 14 15  2  0  0  0
 14 16  1  0  0  0
 16 17  1  0  0  0
 16 41  1  0  0  0
 17 18  2  0  0  0
 17 19  1  0  0  0
 19 42  1  0  0  0
 19 43  1  0  0  0
 20 21  2  0  0  0
 20 22  1  0  0  0
 22 23  1  0  0  0
 22 44  1  0  0  0
 23 24  1  0  0  0
 23 29  1  0  0  0
 23 45  1  0  0  0
 24 25  1  0  0  0
 24 46  1  0  0  0
 24 47  1  0  0  0
 25 26  1  0  0  0
 25 48  1  0  0  0
 25 49  1  0  0  0
 26 27  1  0  0  0
 26 28  2  0  0  0
 29 30  1  0  0  0
 29 31  2  0  0  0
M  CHG  3  11   1  27  -1  30  -1
M  END
> <s_m_source_file>
../1juj_ligand.sdf

> <i_m_source_file_index>
1

> <s_epik_input>
bjFjKFtOSDJdKVtuSF1jKD1PKWMoYzEyKWMoW2NIXVtuSF0yKVtDSDJdW0NIMl1jM1tjSF1bY0hdYyhbY0hdW2NIXTMpQyg9TylbTkhdW0NASF0oQyg9TylbT0hdKVtDSDJdW0NIMl1DKD1PKVtPSF0=

> <s_epik_cmdline>
J2VwaWtfYXBwJywgJy1pbWFlJywgJ2xpZ2FuZF9wcm8ubWFlJywgJy1vbWFlJywgJ2xpZ2FuZF9wcmVwLm1hZScsICctbXMnLCAnMScsICctcGgnLCAnNycsICctcGh0JywgJzAuNScsICctbnQn

> <r_lp_tautomer_probability>
1

> <r_epik_Ionization_Penalty>
  0.0046

> <r_epik_Ionization_Penalty_Charging>
  0.0043

> <r_epik_Ionization_Penalty_Neutral>
  0.0003

> <r_epik_State_Penalty>
 -0.0000

> <r_epik_Charging_Adjusted_Penalty>
0.00433777112367292

> <i_epik_Tot_Q>
-1

> <i_epik_Tot_abs_Q>
3

$$$$
