1juq_ligand
                    3D
 Schrodinger Suite 2020-3.
 81 81  0  0  1  0            999 V2000
   39.3150   15.9840   58.2230 N   0  3  0  0  0  0
   39.3480   15.1040   57.0560 C   0  0  2  0  0  0
   40.6320   14.2830   57.0740 C   0  0  0  0  0  0
   41.6230   14.6830   57.6910 O   0  0  0  0  0  0
   39.2940   15.9270   55.7610 C   0  0  0  0  0  0
   39.0290   15.0730   54.5310 C   0  0  0  0  0  0
   38.5680   13.9220   54.6850 O   0  5  0  0  0  0
   39.2690   15.5590   53.4060 O   0  0  0  0  0  0
   40.6110   13.1400   56.3930 N   0  0  0  0  0  0
   41.7770   12.2670   56.3300 C   0  0  2  0  0  0
   42.4170   12.2480   54.9450 C   0  0  0  0  0  0
   42.2310   13.1710   54.1480 O   0  0  0  0  0  0
   41.3950   10.8420   56.7360 C   0  0  0  0  0  0
   40.1120   10.3770   56.0830 C   0  0  0  0  0  0
   39.0260   10.7960   56.5430 O   0  5  0  0  0  0
   40.1940    9.6020   55.1060 O   0  0  0  0  0  0
   43.1730   11.1880   54.6710 N   0  0  0  0  0  0
   43.8620   11.0330   53.3950 C   0  0  2  0  0  0
   43.1120   10.0990   52.4540 C   0  0  0  0  0  0
   42.1940    9.3880   52.8640 O   0  0  0  0  0  0
   45.2720   10.4840   53.6270 C   0  0  0  0  0  0
   46.1090   11.3290   54.5360 C   0  0  0  0  0  0
   46.4120   12.6460   54.2610 N   0  0  0  0  0  0
   46.7080   11.0440   55.7170 C   0  0  0  0  0  0
   47.1610   13.1360   55.2330 C   0  0  0  0  0  0
   47.3550   12.1850   56.1290 N   0  0  0  0  0  0
   43.5190   10.1060   51.1870 N   0  0  0  0  0  0
   42.9060    9.2580   50.1690 C   0  0  2  0  0  0
   43.3330    7.8060   50.3890 C   0  0  0  0  0  0
   44.4690    7.5450   50.7950 O   0  0  0  0  0  0
   43.3370    9.7320   48.7770 C   0  0  0  0  0  0
   42.7930    8.9710   47.5670 C   0  0  0  0  0  0
   41.2740    8.9740   47.5950 C   0  0  0  0  0  0
   43.3160    9.6120   46.2860 C   0  0  0  0  0  0
   42.4220    6.8690   50.1220 N   0  0  0  0  0  0
   42.6920    5.4400   50.2970 C   0  0  2  0  0  0
   44.0800    5.0100   49.8440 C   0  0  0  0  0  0
   44.7690    5.8230   49.1950 O   0  0  0  0  0  0
   41.6560    4.6030   49.5430 C   0  0  0  0  0  0
   40.2970    4.3970   50.2050 C   0  0  0  0  0  0
   39.4170    3.5500   49.2920 C   0  0  0  0  0  0
   40.4870    3.7130   51.5560 C   0  0  0  0  0  0
   39.3544   15.3782   59.1403 H   0  0  0  0  0  0
   38.3859   16.5728   58.2121 H   0  0  0  0  0  0
   40.1799   16.6631   58.1947 H   0  0  0  0  0  0
   38.4649   14.4533   57.1372 H   0  0  0  0  0  0
   38.4876   16.6717   55.8332 H   0  0  0  0  0  0
   40.2553   16.4407   55.6127 H   0  0  0  0  0  0
   39.6850   12.8595   55.8697 H   0  0  0  0  0  0
   42.4851   12.7123   57.0443 H   0  0  0  0  0  0
   42.1961   10.1490   56.4393 H   0  0  0  0  0  0
   41.2557   10.7962   57.8262 H   0  0  0  0  0  0
   43.2693   10.4131   55.4458 H   0  0  0  0  0  0
   43.8841   12.0444   52.9632 H   0  0  0  0  0  0
   45.6883    9.5620   53.1950 H   0  0  0  0  0  0
   46.7517   10.1339   56.3333 H   0  0  0  0  0  0
   47.5522   14.1520   55.2864 H   0  0  0  0  0  0
   44.3457   10.7795   50.9169 H   0  0  0  0  0  0
   41.8162    9.3543   50.2831 H   0  0  0  0  0  0
   43.0183   10.7744   48.6297 H   0  0  0  0  0  0
   44.4317    9.6676   48.6903 H   0  0  0  0  0  0
   43.1297    7.9243   47.5990 H   0  0  0  0  0  0
   40.9236    8.5071   48.5273 H   0  0  0  0  0  0
   40.8903    8.4068   46.7341 H   0  0  0  0  0  0
   40.9084   10.0102   47.5438 H   0  0  0  0  0  0
   44.4159    9.5970   46.2911 H   0  0  0  0  0  0
   42.9637   10.6524   46.2263 H   0  0  0  0  0  0
   42.9456    9.0490   45.4166 H   0  0  0  0  0  0
   41.4389    7.2025   49.7583 H   0  0  0  0  0  0
   42.6273    5.3122   51.3876 H   0  0  0  0  0  0
   44.4797    4.0115   50.0750 H   0  0  0  0  0  0
   41.4377    5.0757   48.5740 H   0  0  0  0  0  0
   42.0534    3.5910   49.3760 H   0  0  0  0  0  0
   39.8068    5.3679   50.3691 H   0  0  0  0  0  0
   39.2932    4.0604   48.3255 H   0  0  0  0  0  0
   38.4320    3.4081   49.7606 H   0  0  0  0  0  0
   39.8911    2.5705   49.1313 H   0  0  0  0  0  0
   41.1236    4.3396   52.1979 H   0  0  0  0  0  0
   40.9667    2.7344   51.4072 H   0  0  0  0  0  0
   39.5076    3.5720   52.0365 H   0  0  0  0  0  0
   46.0340   13.1169   53.3416 H   0  0  0  0  0  0
  1  2  1  0  0  0
  1 43  1  0  0  0
  1 44  1  0  0  0
  1 45  1  0  0  0
  2  3  1  0  0  0
  2  5  1  0  0  0
  2 46  1  0  0  0
  3  4  2  0  0  0
  3  9  1  0  0  0
  5  6  1  0  0  0
  5 47  1  0  0  0
  5 48  1  0  0  0
  6  7  1  0  0  0
  6  8  2  0  0  0
  9 10  1  0  0  0
  9 49  1  0  0  0
 10 11  1  0  0  0
 10 13  1  0  0  0
 10 50  1  0  0  0
 11 12  2  0  0  0
 11 17  1  0  0  0
 13 14  1  0  0  0
 13 51  1  0  0  0
 13 52  1  0  0  0
 14 15  1  0  0  0
 14 16  2  0  0  0
 17 18  1  0  0  0
 17 53  1  0  0  0
 18 19  1  0  0  0
 18 21  1  0  0  0
 18 54  1  0  0  0
 19 20  2  0  0  0
 19 27  1  0  0  0
 21 22  2  0  0  0
 21 55  1  0  0  0
 22 23  1  0  0  0
 22 24  1  0  0  0
 23 25  1  0  0  0
 23 81  1  0  0  0
 24 26  2  0  0  0
 24 56  1  0  0  0
 25 26  1  0  0  0
 25 57  1  0  0  0
 27 28  1  0  0  0
 27 58  1  0  0  0
 28 29  1  0  0  0
 28 31  1  0  0  0
 28 59  1  0  0  0
 29 30  2  0  0  0
 29 35  1  0  0  0
 31 32  1  0  0  0
 31 60  1  0  0  0
 31 61  1  0  0  0
 32 33  1  0  0  0
 32 34  1  0  0  0
 32 62  1  0  0  0
 33 63  1  0  0  0
 33 64  1  0  0  0
 33 65  1  0  0  0
 34 66  1  0  0  0
 34 67  1  0  0  0
 34 68  1  0  0  0
 35 36  1  0  0  0
 35 69  1  0  0  0
 36 37  1  0  0  0
 36 39  1  0  0  0
 36 70  1  0  0  0
 37 38  2  0  0  0
 37 71  1  0  0  0
 39 40  1  0  0  0
 39 72  1  0  0  0
 39 73  1  0  0  0
 40 41  1  0  0  0
 40 42  1  0  0  0
 40 74  1  0  0  0
 41 75  1  0  0  0
 41 76  1  0  0  0
 41 77  1  0  0  0
 42 78  1  0  0  0
 42 79  1  0  0  0
 42 80  1  0  0  0
M  CHG  3   1   1   7  -1  15  -1
M  END
> <s_m_source_file>
../1juq_ligand.sdf

> <i_m_source_file_index>
1

> <s_epik_input>
W09IXUMoPU8pW0NIMl1bQ0BIXShbTkgzK10pQyg9TylbTkhdW0NAQEhdKFtDSDJdQyg9TylbT0hdKUMoPU8pW05IXVtDQEBIXShbQ0gyXUMxPU5bQ0gyXU49W0NIXTEpQyg9TylbTkhdW0NAQEhdKFtDSDJdW0NIXShbQ0gzXSlbQ0gzXSlDKD1PKVtOSF1bQ0BIXShbQ0hdPU8pW0NIMl1bQ0hdKFtDSDNdKVtDSDNd

> <s_epik_cmdline>
J2VwaWtfYXBwJywgJy1pbWFlJywgJ2xpZ2FuZF9wcm8ubWFlJywgJy1vbWFlJywgJ2xpZ2FuZF9wcmVwLm1hZScsICctbXMnLCAnMScsICctcGgnLCAnNycsICctcGh0JywgJzAuNScsICctbnQn

> <r_epik_Ionization_Penalty>
  0.0213

> <r_epik_Ionization_Penalty_Charging>
  0.0212

> <r_epik_Ionization_Penalty_Neutral>
  0.0001

> <r_epik_State_Penalty>
  0.0159

> <r_epik_Charging_Adjusted_Penalty>
0.0371508246865414

> <i_epik_Tot_Q>
-1

> <i_epik_Tot_abs_Q>
3

> <s_epik_Chemistry_Notes>
This compound has an imine and may undergo hydrolysis.

$$$$
