1jut_ligand
                    3D
 Schrodinger Suite 2020-3.
 51 53  0  0  1  0            999 V2000
   16.2710   14.1400   34.8440 C   0  0  0  0  0  0
   15.9790   13.9600   33.4750 C   0  0  0  0  0  0
   14.6720   13.6520   33.0820 C   0  0  0  0  0  0
   13.6810   13.5130   34.0620 C   0  0  0  0  0  0
   13.9660   13.6740   35.4380 C   0  0  0  0  0  0
   15.2720   13.9980   35.8200 C   0  0  0  0  0  0
   12.9470   13.3100   36.4470 C   0  0  0  0  0  0
   11.7440   13.1300   36.1770 O   0  0  0  0  0  0
   13.4000   13.1300   37.7290 N   0  0  0  0  0  0
   12.5170   12.7010   38.8430 C   0  0  1  0  0  0
   12.5550   11.1730   39.0130 C   0  0  0  0  0  0
   12.1310   10.5130   37.7110 C   0  0  0  0  0  0
   11.6640   10.6630   40.1700 C   0  0  0  0  0  0
   17.0850   14.1000   32.4320 C   0  0  0  0  0  0
   17.1860   15.5340   31.8670 C   0  0  0  0  0  0
   15.8950   15.9590   31.1920 C   0  0  0  0  0  0
   12.9290   13.3750   40.1230 C   0  0  0  0  0  0
   14.1280   13.7090   40.1860 O   0  5  0  0  0  0
   12.0910   13.5040   41.0340 O   0  0  0  0  0  0
   15.4610   15.4320   30.0020 C   0  0  0  0  0  0
   14.3460   16.1660   29.5550 N   0  3  0  0  0  0
   14.1150   17.1650   30.4800 C   0  0  0  0  0  0
   15.0160   17.0520   31.5230 C   0  0  0  0  0  0
   14.9640   17.9840   32.6190 C   0  0  0  0  0  0
   15.7450   18.0520   33.5870 O   0  0  0  0  0  0
   13.9470   18.9760   32.5330 N   0  0  0  0  0  0
   12.9750   19.0190   31.5050 C   0  0  0  0  0  0
   13.0950   18.1440   30.4240 N   0  0  0  0  0  0
   11.8760   19.8550   31.6360 N   0  0  0  0  0  0
   17.2868   14.3929   35.1479 H   0  0  0  0  0  0
   14.4283   13.5220   32.0276 H   0  0  0  0  0  0
   12.6625   13.2743   33.7559 H   0  0  0  0  0  0
   15.5136   14.1399   36.8734 H   0  0  0  0  0  0
   14.4678   13.3179   37.9147 H   0  0  0  0  0  0
   11.4980   13.0259   38.5861 H   0  0  0  0  0  0
   13.5925   10.8985   39.2545 H   0  0  0  0  0  0
   12.7667   10.8781   36.8909 H   0  0  0  0  0  0
   11.0806   10.7613   37.4991 H   0  0  0  0  0  0
   12.2389    9.4220   37.8008 H   0  0  0  0  0  0
   11.9738   11.1427   41.1102 H   0  0  0  0  0  0
   11.7715    9.5722   40.2621 H   0  0  0  0  0  0
   10.6131   10.9115   39.9604 H   0  0  0  0  0  0
   18.0533   13.8464   32.8881 H   0  0  0  0  0  0
   16.8855   13.4181   31.5922 H   0  0  0  0  0  0
   17.3978   16.2368   32.6863 H   0  0  0  0  0  0
   17.9974   15.5798   31.1257 H   0  0  0  0  0  0
   15.9812   14.5693   29.5602 H   0  0  0  0  0  0
   13.8859   19.7684   33.2935 H   0  0  0  0  0  0
   11.8028   20.5364   32.4964 H   0  0  0  0  0  0
   11.0777   19.8366   30.8795 H   0  0  0  0  0  0
   13.8426   15.8855   28.6180 H   0  0  0  0  0  0
  1  2  2  0  0  0
  1  6  1  0  0  0
  1 30  1  0  0  0
  2  3  1  0  0  0
  2 14  1  0  0  0
  3  4  2  0  0  0
  3 31  1  0  0  0
  4  5  1  0  0  0
  4 32  1  0  0  0
  5  6  2  0  0  0
  5  7  1  0  0  0
  6 33  1  0  0  0
  7  8  2  0  0  0
  7  9  1  0  0  0
  9 10  1  0  0  0
  9 34  1  0  0  0
 10 11  1  0  0  0
 10 17  1  0  0  0
 10 35  1  0  0  0
 11 12  1  0  0  0
 11 13  1  0  0  0
 11 36  1  0  0  0
 12 37  1  0  0  0
 12 38  1  0  0  0
 12 39  1  0  0  0
 13 40  1  0  0  0
 13 41  1  0  0  0
 13 42  1  0  0  0
 14 15  1  0  0  0
 14 43  1  0  0  0
 14 44  1  0  0  0
 15 16  1  0  0  0
 15 45  1  0  0  0
 15 46  1  0  0  0
 16 20  2  0  0  0
 16 23  1  0  0  0
 17 18  1  0  0  0
 17 19  2  0  0  0
 20 21  1  0  0  0
 20 47  1  0  0  0
 21 22  1  0  0  0
 21 51  1  0  0  0
 22 23  2  0  0  0
 22 28  1  0  0  0
 23 24  1  0  0  0
 24 25  2  0  0  0
 24 26  1  0  0  0
 26 27  1  0  0  0
 26 48  1  0  0  0
 27 28  2  0  0  0
 27 29  1  0  0  0
 29 49  1  0  0  0
 29 50  1  0  0  0
M  CHG  2  18  -1  21   1
M  END
> <s_m_source_file>
../1jut_ligand.sdf

> <i_m_source_file_index>
1

> <s_epik_input>
W0NIM11bQ0hdKFtDSDNdKVtDQEBIXShDKD1PKVtPSF0pW05IXUMoPU8pYyhbY0hdW2NIXTEpW2NIXVtjSF1jMVtDSDJdW0NIMl1jKFtjSF1bbkhdMiljKGMyMyljKD1PKVtuSF1jKG4zKVtOSDJd

> <s_epik_cmdline>
J2VwaWtfYXBwJywgJy1pbWFlJywgJ2xpZ2FuZF9wcm8ubWFlJywgJy1vbWFlJywgJ2xpZ2FuZF9wcmVwLm1hZScsICctbXMnLCAnMScsICctcGgnLCAnNycsICctcGh0JywgJzAuNScsICctbnQn

> <r_lp_tautomer_probability>
1

> <r_epik_Ionization_Penalty>
  0.0006

> <r_epik_Ionization_Penalty_Charging>
  0.0004

> <r_epik_Ionization_Penalty_Neutral>
  0.0003

> <r_epik_State_Penalty>
 -0.0000

> <r_epik_Charging_Adjusted_Penalty>
0.000350144553572971

> <i_epik_Tot_Q>
0

> <i_epik_Tot_abs_Q>
2

$$$$
