1juy_ligand
                    3D
 Schrodinger Suite 2020-3.
 28 29  0  0  1  0            999 V2000
  -10.7280   52.8510   51.4510 C   0  0  0  0  0  0
  -10.1330   52.8610   52.5320 O   0  0  0  0  0  0
  -10.3390   52.3060   50.2360 N   0  0  0  0  0  0
  -11.3810   52.3040   49.3260 C   0  0  0  0  0  0
  -11.3370   51.8470   48.1890 O   0  0  0  0  0  0
  -12.4740   52.8990   49.9820 N   0  0  0  0  0  0
  -12.1960   53.2880   51.2970 C   0  0  2  0  0  0
  -12.3370   54.7540   51.5470 C   0  0  2  0  0  0
  -11.0840   55.3820   51.3910 O   0  0  0  0  0  0
  -12.9560   54.8880   52.9330 C   0  0  2  0  0  0
  -11.9760   55.0050   53.9940 O   0  0  0  0  0  0
  -13.7820   53.5840   52.9760 C   0  0  2  0  0  0
  -13.0360   52.6300   52.2600 O   0  0  0  0  0  0
  -15.1970   53.7780   52.4420 C   0  0  0  0  0  0
  -15.2850   54.5360   51.1590 O   0  0  0  0  0  0
  -15.9990   53.9340   49.8330 P   0  0  0  0  0  0
  -15.5040   54.8890   48.8390 O   0  0  0  0  0  0
  -17.4540   54.1050   50.0730 O   0  5  0  0  0  0
  -15.3420   52.6100   49.6380 O   0  5  0  0  0  0
   -9.3091   51.9445   50.0999 H   0  0  0  0  0  0
  -13.4744   53.0699   49.5577 H   0  0  0  0  0  0
  -12.9314   55.2940   50.7953 H   0  0  0  0  0  0
  -10.5628   55.3368   50.4234 H   0  0  0  0  0  0
  -13.5024   55.8217   53.1323 H   0  0  0  0  0  0
  -11.3347   55.8967   54.0545 H   0  0  0  0  0  0
  -13.9043   53.1601   53.9836 H   0  0  0  0  0  0
  -15.6587   52.7960   52.2617 H   0  0  0  0  0  0
  -15.7943   54.3340   53.1796 H   0  0  0  0  0  0
  1  2  2  0  0  0
  1  3  1  0  0  0
  1  7  1  0  0  0
  3  4  1  0  0  0
  3 20  1  0  0  0
  4  5  2  0  0  0
  4  6  1  0  0  0
  6  7  1  0  0  0
  6 21  1  0  0  0
  7  8  1  0  0  0
  7 13  1  0  0  0
  8  9  1  0  0  0
  8 10  1  0  0  0
  8 22  1  0  0  0
  9 23  1  0  0  0
 10 11  1  0  0  0
 10 12  1  0  0  0
 10 24  1  0  0  0
 11 25  1  0  0  0
 12 13  1  0  0  0
 12 14  1  0  0  0
 12 26  1  0  0  0
 14 15  1  0  0  0
 14 27  1  0  0  0
 14 28  1  0  0  0
 15 16  1  0  0  0
 16 17  2  0  0  0
 16 18  1  0  0  0
 16 19  1  0  0  0
M  CHG  2  18  -1  19  -1
M  END
> <s_m_source_file>
../1juy_ligand.sdf

> <i_m_source_file_index>
1

> <s_epik_input>
Tz1DKFtOSF0xKVtOSF1DKD1PKVtDQEBdMTJbQ0BIXShbT0hdKVtDQEhdKFtPSF0pW0NASF0oTzIpW0NIMl1PUCg9TykoW09IXSlbT0hd

> <s_epik_cmdline>
J2VwaWtfYXBwJywgJy1pbWFlJywgJ2xpZ2FuZF9wcm8ubWFlJywgJy1vbWFlJywgJ2xpZ2FuZF9wcmVwLm1hZScsICctbXMnLCAnMScsICctcGgnLCAnNycsICctcGh0JywgJzAuNScsICctbnQn

> <r_lp_tautomer_probability>
0.99999999978137

> <r_epik_Ionization_Penalty>
  0.4852

> <r_epik_Ionization_Penalty_Charging>
  0.0976

> <r_epik_Ionization_Penalty_Neutral>
  0.3875

> <r_epik_State_Penalty>
  0.3751

> <r_epik_Charging_Adjusted_Penalty>
0.472774036004026

> <i_epik_Tot_Q>
-2

> <i_epik_Tot_abs_Q>
2

$$$$
