1jwm_ligand
                    3D
 Schrodinger Suite 2020-3.
228229  0  0  1  0            999 V2000
  -17.4770   37.1480   20.6740 N   0  3  0  0  0  0
  -17.7500   38.5230   20.1900 C   0  0  2  0  0  0
  -18.4550   38.5070   18.8340 C   0  0  0  0  0  0
  -17.9440   37.9450   17.8550 O   0  0  0  0  0  0
  -16.4080   39.2390   20.1020 C   0  0  0  0  0  0
  -15.6130   38.4970   21.1700 C   0  0  0  0  0  0
  -16.0480   37.0190   21.0110 C   0  0  0  0  0  0
  -19.6270   39.1400   18.7870 N   0  0  0  0  0  0
  -20.4210   39.1820   17.5700 C   0  0  2  0  0  0
  -20.4020   40.5260   16.8360 C   0  0  0  0  0  0
  -20.7350   41.5610   17.4090 O   0  0  0  0  0  0
  -21.8640   38.7770   17.8900 C   0  0  0  0  0  0
  -22.6420   38.3930   16.6470 C   0  0  0  0  0  0
  -23.8600   37.5270   16.9390 C   0  0  0  0  0  0
  -24.2250   36.7340   15.6850 C   0  0  0  0  0  0
  -25.4680   35.9400   15.8450 N   0  3  0  0  0  0
  -19.9990   40.4930   15.5640 N   0  0  0  0  0  0
  -19.9560   41.6870   14.7140 C   0  0  2  0  0  0
  -21.3750   42.1860   14.4390 C   0  0  0  0  0  0
  -22.2800   41.3930   14.1790 O   0  0  0  0  0  0
  -19.2630   41.3680   13.3800 C   0  0  0  0  0  0
  -17.7670   41.6140   13.3720 C   0  0  0  0  0  0
  -17.2600   42.9070   13.4120 C   0  0  0  0  0  0
  -16.8570   40.5530   13.3520 C   0  0  0  0  0  0
  -15.8870   43.1470   13.4380 C   0  0  0  0  0  0
  -15.4740   40.7840   13.3780 C   0  0  0  0  0  0
  -15.0020   42.0880   13.4240 C   0  0  0  0  0  0
  -13.6520   42.3480   13.4730 O   0  0  0  0  0  0
  -21.5660   43.4980   14.5060 N   0  0  0  0  0  0
  -22.8770   44.0820   14.2590 C   0  0  2  0  0  0
  -22.8660   44.9970   13.0430 C   0  0  0  0  0  0
  -21.9560   45.8080   12.8860 O   0  0  0  0  0  0
  -23.3550   44.9010   15.4690 C   0  0  0  0  0  0
  -24.7010   45.5280   15.1710 C   0  0  0  0  0  0
  -23.4570   44.0040   16.6880 C   0  0  0  0  0  0
  -23.8880   44.8760   12.2000 N   0  0  0  0  0  0
  -23.9960   45.6980   10.9900 C   0  0  2  0  0  0
  -24.8880   46.9200   11.1880 C   0  0  0  0  0  0
  -25.6520   46.9970   12.1500 O   0  0  0  0  0  0
  -24.6010   44.8900    9.8380 C   0  0  0  0  0  0
  -26.1330   44.7890    9.9050 C   0  0  0  0  0  0
  -26.7090   44.2180    8.6190 C   0  0  0  0  0  0
  -28.2220   44.3200    8.5700 C   0  0  0  0  0  0
  -28.8550   43.4610    9.5890 N   0  3  0  0  0  0
  -24.7880   47.8680   10.2650 N   0  0  0  0  0  0
  -25.6400   49.0470   10.2980 C   0  0  2  0  0  0
  -26.7270   48.7180    9.2930 C   0  0  0  0  0  0
  -26.4610   48.0830    8.2740 O   0  0  0  0  0  0
  -24.8830   50.2950    9.8470 C   0  0  0  0  0  0
  -24.1700   51.0580   10.9580 C   0  0  0  0  0  0
  -25.1240   51.5610   12.0260 C   0  0  0  0  0  0
  -25.4660   50.8400   12.9600 O   0  0  0  0  0  0
  -25.5700   52.8030   11.8840 N   0  0  0  0  0  0
  -27.9560   49.1160    9.5690 N   0  0  0  0  0  0
  -29.0170   48.8200    8.6250 C   0  0  2  0  0  0
  -29.1320   49.8520    7.5070 C   0  0  0  0  0  0
  -29.0050   51.0610    7.7250 O   0  0  0  0  0  0
  -30.3500   48.6810    9.3500 C   0  0  0  0  0  0
  -30.3810   47.4790   10.2590 C   0  0  0  0  0  0
  -29.9420   46.3950    9.8770 O   0  0  0  0  0  0
  -30.9080   47.6550   11.4630 N   0  0  0  0  0  0
  -29.3670   49.3530    6.3010 N   0  0  0  0  0  0
  -29.5180   50.2030    5.1320 C   0  0  2  0  0  0
  -30.8630   50.9320    5.1760 C   0  0  0  0  0  0
  -31.9110   50.3340    5.4190 O   0  0  0  0  0  0
  -29.4340   49.3650    3.8280 C   0  0  2  0  0  0
  -29.8970   48.0350    4.0860 O   0  0  0  0  0  0
  -28.0200   49.2710    3.3300 C   0  0  0  0  0  0
  -30.8130   52.2330    4.9490 N   0  0  0  0  0  0
  -32.0030   53.0580    4.9410 C   0  0  2  0  0  0
  -32.5580   53.1380    3.5340 C   0  0  0  0  0  0
  -31.7940   53.2140    2.5700 O   0  0  0  0  0  0
  -31.6470   54.4720    5.3780 C   0  0  0  0  0  0
  -31.1010   54.6300    6.7860 C   0  0  0  0  0  0
  -30.2510   55.8780    6.8560 C   0  0  0  0  0  0
  -32.2680   54.6710    7.7690 C   0  0  0  0  0  0
  -33.8820   53.1240    3.4220 N   0  0  0  0  0  0
  -34.5500   53.2670    2.1230 C   0  0  2  0  0  0
  -34.4670   54.7360    1.7110 C   0  0  0  0  0  0
  -34.4850   55.6380    2.5560 O   0  0  0  0  0  0
  -36.0320   52.8710    2.1970 C   0  0  0  0  0  0
  -36.2850   51.3740    2.3550 C   0  0  0  0  0  0
  -37.0690   51.0420    3.6450 C   0  0  0  0  0  0
  -37.4250   49.5390    3.6760 C   0  0  0  0  0  0
  -38.2370   49.1200    2.4610 N   0  3  0  0  0  0
  -34.3710   54.9610    0.4060 N   0  0  0  0  0  0
  -34.2760   56.3060   -0.1240 C   0  0  2  0  0  0
  -35.6390   56.9620   -0.1910 C   0  0  0  0  0  0
  -36.6710   56.2920   -0.1490 O   0  0  0  0  0  0
  -33.6600   56.2920   -1.5240 C   0  0  0  0  0  0
  -32.1960   55.8820   -1.6700 C   0  0  0  0  0  0
  -31.7460   56.1240   -3.1060 C   0  0  0  0  0  0
  -31.3320   56.6950   -0.7260 C   0  0  0  0  0  0
  -35.6280   58.2850   -0.2880 N   0  0  0  0  0  0
  -36.8550   59.0480   -0.4000 C   0  0  2  0  0  0
  -37.5250   58.6400   -1.7020 C   0  0  0  0  0  0
  -36.8760   58.5730   -2.7520 O   0  0  0  0  0  0
  -36.5440   60.5340   -0.4210 C   0  0  0  0  0  0
  -38.8200   58.3540   -1.6240 N   0  0  0  0  0  0
  -39.5940   57.9630   -2.7960 C   0  0  2  0  0  0
  -40.6460   59.0310   -3.0880 C   0  0  0  0  0  0
  -40.5400   59.6810   -4.1530 O   0  0  0  0  0  0
  -40.3170   56.6270   -2.5710 C   0  0  2  0  0  0
  -39.3740   55.6400   -2.1380 O   0  0  0  0  0  0
  -40.9710   56.1570   -3.8600 C   0  0  0  0  0  0
  -41.5580   59.2080   -2.2420 O   0  0  0  0  0  0
  -18.0839   36.9471   21.5692 H   0  0  0  0  0  0
  -17.7343   36.4243   19.8866 H   0  0  0  0  0  0
  -18.4241   39.0230   20.9011 H   0  0  0  0  0  0
  -15.9966   39.1235   19.0884 H   0  0  0  0  0  0
  -16.5476   40.3078   20.3214 H   0  0  0  0  0  0
  -14.5369   38.6322   20.9862 H   0  0  0  0  0  0
  -15.8687   38.8977   22.1620 H   0  0  0  0  0  0
  -15.9411   36.4382   21.9391 H   0  0  0  0  0  0
  -15.5235   36.5031   20.1932 H   0  0  0  0  0  0
  -19.9901   39.6382   19.6980 H   0  0  0  0  0  0
  -19.9110   38.4558   16.9199 H   0  0  0  0  0  0
  -21.8599   37.9126   18.5702 H   0  0  0  0  0  0
  -22.3833   39.6193   18.3706 H   0  0  0  0  0  0
  -22.9974   39.3029   16.1412 H   0  0  0  0  0  0
  -21.9895   37.8263   15.9665 H   0  0  0  0  0  0
  -23.6280   36.8329   17.7602 H   0  0  0  0  0  0
  -24.7051   38.1686   17.2290 H   0  0  0  0  0  0
  -24.3762   37.4269   14.8441 H   0  0  0  0  0  0
  -23.4104   36.0356   15.4427 H   0  0  0  0  0  0
  -25.6768   35.3940   14.9132 H   0  0  0  0  0  0
  -26.3072   36.6143   16.0709 H   0  0  0  0  0  0
  -25.3415   35.2230   16.6696 H   0  0  0  0  0  0
  -19.6911   39.5179   15.1586 H   0  0  0  0  0  0
  -19.3851   42.4397   15.2774 H   0  0  0  0  0  0
  -19.4132   40.3066   13.1334 H   0  0  0  0  0  0
  -19.6935   41.9937   12.5843 H   0  0  0  0  0  0
  -17.9498   43.7509   13.4233 H   0  0  0  0  0  0
  -17.2286   39.5290   13.3156 H   0  0  0  0  0  0
  -15.5127   44.1702   13.4694 H   0  0  0  0  0  0
  -14.7762   39.9468   13.3622 H   0  0  0  0  0  0
  -13.2930   43.3871   13.5091 H   0  0  0  0  0  0
  -20.7127   44.1466   14.7531 H   0  0  0  0  0  0
  -23.5187   43.2076   14.0758 H   0  0  0  0  0  0
  -22.6373   45.7067   15.6828 H   0  0  0  0  0  0
  -24.6158   46.1758   14.2861 H   0  0  0  0  0  0
  -25.0255   46.1274   16.0344 H   0  0  0  0  0  0
  -25.4392   44.7362   14.9761 H   0  0  0  0  0  0
  -22.4749   43.5541   16.8954 H   0  0  0  0  0  0
  -24.1919   43.2081   16.4971 H   0  0  0  0  0  0
  -23.7782   44.5993   17.5554 H   0  0  0  0  0  0
  -24.6658   44.1335   12.4317 H   0  0  0  0  0  0
  -22.9567   46.0033   10.7985 H   0  0  0  0  0  0
  -24.3420   45.3659    8.8807 H   0  0  0  0  0  0
  -24.2004   43.8658    9.8585 H   0  0  0  0  0  0
  -26.4210   44.1312   10.7383 H   0  0  0  0  0  0
  -26.5599   45.7903   10.0639 H   0  0  0  0  0  0
  -26.3026   44.7697    7.7585 H   0  0  0  0  0  0
  -26.4366   43.1556    8.5352 H   0  0  0  0  0  0
  -28.5255   45.3610    8.7549 H   0  0  0  0  0  0
  -28.5789   44.0047    7.5784 H   0  0  0  0  0  0
  -29.9486   43.5602    9.5242 H   0  0  0  0  0  0
  -28.5175   43.7694   10.5895 H   0  0  0  0  0  0
  -28.5708   42.4130    9.4130 H   0  0  0  0  0  0
  -24.0432   47.7499    9.4642 H   0  0  0  0  0  0
  -25.9991   49.2258   11.3222 H   0  0  0  0  0  0
  -24.1112   50.0116    9.1163 H   0  0  0  0  0  0
  -25.5858   51.0022    9.3823 H   0  0  0  0  0  0
  -23.4368   50.3977   11.4441 H   0  0  0  0  0  0
  -23.6520   51.9292   10.5305 H   0  0  0  0  0  0
  -25.2367   53.4130   11.0315 H   0  0  0  0  0  0
  -26.2730   53.2223   12.6188 H   0  0  0  0  0  0
  -28.1816   49.6632   10.4962 H   0  0  0  0  0  0
  -28.7055   47.8628    8.1814 H   0  0  0  0  0  0
  -30.5296   49.5771    9.9622 H   0  0  0  0  0  0
  -31.1590   48.5726    8.6125 H   0  0  0  0  0  0
  -31.2873   48.6445   11.7581 H   0  0  0  0  0  0
  -30.9659   46.8115   12.1667 H   0  0  0  0  0  0
  -29.4471   48.2605    6.2007 H   0  0  0  0  0  0
  -28.6872   50.9208    5.2001 H   0  0  0  0  0  0
  -30.0730   49.7969    3.0437 H   0  0  0  0  0  0
  -30.9178   47.8712    4.4617 H   0  0  0  0  0  0
  -27.6364   50.2809    3.1227 H   0  0  0  0  0  0
  -27.9953   48.6728    2.4072 H   0  0  0  0  0  0
  -27.3929   48.7905    4.0954 H   0  0  0  0  0  0
  -29.8283   52.6862    4.7623 H   0  0  0  0  0  0
  -32.7133   52.5785    5.6305 H   0  0  0  0  0  0
  -30.8742   54.8788    4.7092 H   0  0  0  0  0  0
  -32.5439   55.1071    5.3310 H   0  0  0  0  0  0
  -30.4536   53.7815    7.0523 H   0  0  0  0  0  0
  -29.4265   55.8011    6.1320 H   0  0  0  0  0  0
  -29.8394   55.9849    7.8705 H   0  0  0  0  0  0
  -30.8686   56.7562    6.6165 H   0  0  0  0  0  0
  -32.8546   53.7446    7.6806 H   0  0  0  0  0  0
  -32.9098   55.5346    7.5404 H   0  0  0  0  0  0
  -31.8806   54.7633    8.7944 H   0  0  0  0  0  0
  -34.4797   53.0010    4.3372 H   0  0  0  0  0  0
  -34.0224   52.5958    1.4294 H   0  0  0  0  0  0
  -36.5010   53.3656    3.0604 H   0  0  0  0  0  0
  -36.5417   53.1839    1.2738 H   0  0  0  0  0  0
  -36.8703   51.0086    1.4983 H   0  0  0  0  0  0
  -35.3232   50.8418    2.3956 H   0  0  0  0  0  0
  -36.4516   51.2855    4.5222 H   0  0  0  0  0  0
  -37.9958   51.6337    3.6734 H   0  0  0  0  0  0
  -36.5003   48.9435    3.6927 H   0  0  0  0  0  0
  -38.0178   49.3211    4.5766 H   0  0  0  0  0  0
  -38.4664   48.0462    2.5259 H   0  0  0  0  0  0
  -37.6573   49.3165    1.5470 H   0  0  0  0  0  0
  -39.1748   49.6942    2.4310 H   0  0  0  0  0  0
  -34.3645   54.0989   -0.2772 H   0  0  0  0  0  0
  -33.6340   56.8420    0.5905 H   0  0  0  0  0  0
  -34.2145   55.5877   -2.1615 H   0  0  0  0  0  0
  -33.7145   57.3010   -1.9587 H   0  0  0  0  0  0
  -32.0869   54.8167   -1.4184 H   0  0  0  0  0  0
  -32.3728   55.5342   -3.7910 H   0  0  0  0  0  0
  -30.6948   55.8197   -3.2170 H   0  0  0  0  0  0
  -31.8457   57.1928   -3.3463 H   0  0  0  0  0  0
  -31.6567   56.5204    0.3104 H   0  0  0  0  0  0
  -31.4317   57.7638   -0.9664 H   0  0  0  0  0  0
  -30.2808   56.3906   -0.8371 H   0  0  0  0  0  0
  -34.6573   58.8023   -0.2820 H   0  0  0  0  0  0
  -37.4820   58.8205    0.4747 H   0  0  0  0  0  0
  -36.0597   60.8206    0.5241 H   0  0  0  0  0  0
  -37.4780   61.1024   -0.5415 H   0  0  0  0  0  0
  -35.8690   60.7555   -1.2608 H   0  0  0  0  0  0
  -39.3070   58.4189   -0.6398 H   0  0  0  0  0  0
  -38.8580   57.8726   -3.6085 H   0  0  0  0  0  0
  -41.0663   56.7166   -1.7706 H   0  0  0  0  0  0
  -38.7949   55.7995   -1.2165 H   0  0  0  0  0  0
  -41.6971   56.9107   -4.1988 H   0  0  0  0  0  0
  -41.4889   55.2030   -3.6817 H   0  0  0  0  0  0
  -40.2003   56.0171   -4.6323 H   0  0  0  0  0  0
  -42.3326   59.9687   -2.4193 H   0  0  0  0  0  0
  1  2  1  0  0  0
  1  7  1  0  0  0
  1107  1  0  0  0
  1108  1  0  0  0
  2  3  1  0  0  0
  2  5  1  0  0  0
  2109  1  0  0  0
  3  4  2  0  0  0
  3  8  1  0  0  0
  5  6  1  0  0  0
  5110  1  0  0  0
  5111  1  0  0  0
  6  7  1  0  0  0
  6112  1  0  0  0
  6113  1  0  0  0
  7114  1  0  0  0
  7115  1  0  0  0
  8  9  1  0  0  0
  8116  1  0  0  0
  9 10  1  0  0  0
  9 12  1  0  0  0
  9117  1  0  0  0
 10 11  2  0  0  0
 10 17  1  0  0  0
 12 13  1  0  0  0
 12118  1  0  0  0
 12119  1  0  0  0
 13 14  1  0  0  0
 13120  1  0  0  0
 13121  1  0  0  0
 14 15  1  0  0  0
 14122  1  0  0  0
 14123  1  0  0  0
 15 16  1  0  0  0
 15124  1  0  0  0
 15125  1  0  0  0
 16126  1  0  0  0
 16127  1  0  0  0
 16128  1  0  0  0
 17 18  1  0  0  0
 17129  1  0  0  0
 18 19  1  0  0  0
 18 21  1  0  0  0
 18130  1  0  0  0
 19 20  2  0  0  0
 19 29  1  0  0  0
 21 22  1  0  0  0
 21131  1  0  0  0
 21132  1  0  0  0
 22 23  2  0  0  0
 22 24  1  0  0  0
 23 25  1  0  0  0
 23133  1  0  0  0
 24 26  2  0  0  0
 24134  1  0  0  0
 25 27  2  0  0  0
 25135  1  0  0  0
 26 27  1  0  0  0
 26136  1  0  0  0
 27 28  1  0  0  0
 28137  1  0  0  0
 29 30  1  0  0  0
 29138  1  0  0  0
 30 31  1  0  0  0
 30 33  1  0  0  0
 30139  1  0  0  0
 31 32  2  0  0  0
 31 36  1  0  0  0
 33 34  1  0  0  0
 33 35  1  0  0  0
 33140  1  0  0  0
 34141  1  0  0  0
 34142  1  0  0  0
 34143  1  0  0  0
 35144  1  0  0  0
 35145  1  0  0  0
 35146  1  0  0  0
 36 37  1  0  0  0
 36147  1  0  0  0
 37 38  1  0  0  0
 37 40  1  0  0  0
 37148  1  0  0  0
 38 39  2  0  0  0
 38 45  1  0  0  0
 40 41  1  0  0  0
 40149  1  0  0  0
 40150  1  0  0  0
 41 42  1  0  0  0
 41151  1  0  0  0
 41152  1  0  0  0
 42 43  1  0  0  0
 42153  1  0  0  0
 42154  1  0  0  0
 43 44  1  0  0  0
 43155  1  0  0  0
 43156  1  0  0  0
 44157  1  0  0  0
 44158  1  0  0  0
 44159  1  0  0  0
 45 46  1  0  0  0
 45160  1  0  0  0
 46 47  1  0  0  0
 46 49  1  0  0  0
 46161  1  0  0  0
 47 48  2  0  0  0
 47 54  1  0  0  0
 49 50  1  0  0  0
 49162  1  0  0  0
 49163  1  0  0  0
 50 51  1  0  0  0
 50164  1  0  0  0
 50165  1  0  0  0
 51 52  2  0  0  0
 51 53  1  0  0  0
 53166  1  0  0  0
 53167  1  0  0  0
 54 55  1  0  0  0
 54168  1  0  0  0
 55 56  1  0  0  0
 55 58  1  0  0  0
 55169  1  0  0  0
 56 57  2  0  0  0
 56 62  1  0  0  0
 58 59  1  0  0  0
 58170  1  0  0  0
 58171  1  0  0  0
 59 60  2  0  0  0
 59 61  1  0  0  0
 61172  1  0  0  0
 61173  1  0  0  0
 62 63  1  0  0  0
 62174  1  0  0  0
 63 64  1  0  0  0
 63 66  1  0  0  0
 63175  1  0  0  0
 64 65  2  0  0  0
 64 69  1  0  0  0
 66 67  1  0  0  0
 66 68  1  0  0  0
 66176  1  0  0  0
 67177  1  0  0  0
 68178  1  0  0  0
 68179  1  0  0  0
 68180  1  0  0  0
 69 70  1  0  0  0
 69181  1  0  0  0
 70 71  1  0  0  0
 70 73  1  0  0  0
 70182  1  0  0  0
 71 72  2  0  0  0
 71 77  1  0  0  0
 73 74  1  0  0  0
 73183  1  0  0  0
 73184  1  0  0  0
 74 75  1  0  0  0
 74 76  1  0  0  0
 74185  1  0  0  0
 75186  1  0  0  0
 75187  1  0  0  0
 75188  1  0  0  0
 76189  1  0  0  0
 76190  1  0  0  0
 76191  1  0  0  0
 77 78  1  0  0  0
 77192  1  0  0  0
 78 79  1  0  0  0
 78 81  1  0  0  0
 78193  1  0  0  0
 79 80  2  0  0  0
 79 86  1  0  0  0
 81 82  1  0  0  0
 81194  1  0  0  0
 81195  1  0  0  0
 82 83  1  0  0  0
 82196  1  0  0  0
 82197  1  0  0  0
 83 84  1  0  0  0
 83198  1  0  0  0
 83199  1  0  0  0
 84 85  1  0  0  0
 84200  1  0  0  0
 84201  1  0  0  0
 85202  1  0  0  0
 85203  1  0  0  0
 85204  1  0  0  0
 86 87  1  0  0  0
 86205  1  0  0  0
 87 88  1  0  0  0
 87 90  1  0  0  0
 87206  1  0  0  0
 88 89  2  0  0  0
 88 94  1  0  0  0
 90 91  1  0  0  0
 90207  1  0  0  0
 90208  1  0  0  0
 91 92  1  0  0  0
 91 93  1  0  0  0
 91209  1  0  0  0
 92210  1  0  0  0
 92211  1  0  0  0
 92212  1  0  0  0
 93213  1  0  0  0
 93214  1  0  0  0
 93215  1  0  0  0
 94 95  1  0  0  0
 94216  1  0  0  0
 95 96  1  0  0  0
 95 98  1  0  0  0
 95217  1  0  0  0
 96 97  2  0  0  0
 96 99  1  0  0  0
 98218  1  0  0  0
 98219  1  0  0  0
 98220  1  0  0  0
 99100  1  0  0  0
 99221  1  0  0  0
100101  1  0  0  0
100103  1  0  0  0
100222  1  0  0  0
101102  2  0  0  0
101106  1  0  0  0
103104  1  0  0  0
103105  1  0  0  0
103223  1  0  0  0
104224  1  0  0  0
105225  1  0  0  0
105226  1  0  0  0
105227  1  0  0  0
106228  1  0  0  0
M  CHG  4   1   1  16   1  44   1  85   1
M  END
> <s_m_source_file>
../1jwm_ligand.sdf

> <i_m_source_file_index>
1

> <s_epik_input>
W0NIMl0xW0NIMl1bQ0gyXVtOSDIrXVtDQEBIXTFDKD1PKVtOSF1bQ0BASF0oW0NIMl1bQ0gyXVtDSDJdW0NIMl1bTkgzK10pQyg9TylbTkhdW0NAQEhdKFtDSDJdYzJbY0hdW2NIXWMoW09IXSlbY0hdW2NIXTIpQyg9TylbTkhdW0NAQEhdKFtDSF0oW0NIM10pW0NIM10pQyg9TylbTkhdW0NAQEhdKFtDSDJdW0NIMl1bQ0gyXVtDSDJdW05IMytdKUMoPU8pW05IXVtDQEBIXShbQ0gyXVtDSDJdQyg9TylbTkgyXSlDKD1PKVtOSF1bQ0BASF0oW0NIMl1DKD1PKVtOSDJdKUMoPU8pW05IXVtDQEBIXShbQ0BIXShbT0hdKVtDSDNdKUMoPU8pW05IXVtDQEBIXShbQ0gyXVtDSF0oW0NIM10pW0NIM10pQyg9TylbTkhdW0NAQEhdKFtDSDJdW0NIMl1bQ0gyXVtDSDJdW05IMytdKUMoPU8pW05IXVtDQEBIXShbQ0gyXVtDSF0oW0NIM10pW0NIM10pQyg9TylbTkhdW0NAQEhdKFtDSDNdKUMoPU8pW05IXVtDQEhdKEMoPU8pW09IXSlbQ0BIXShbT0hdKVtDSDNd

> <s_epik_cmdline>
J2VwaWtfYXBwJywgJy1pbWFlJywgJ2xpZ2FuZF9wcm8ubWFlJywgJy1vbWFlJywgJ2xpZ2FuZF9wcmVwLm1hZScsICctbXMnLCAnMScsICctcGgnLCAnNycsICctcGh0JywgJzAuNScsICctbnQn

> <s_epik_pKa_notes>
Molecule size exceeds maximum supported for generating protonation states

$$$$
