1jws_ligand
                    3D
 Schrodinger Suite 2020-3.
228229  0  0  1  0            999 V2000
  -17.3320   37.1360   20.9390 N   0  3  0  0  0  0
  -17.4920   38.5250   20.4470 C   0  0  2  0  0  0
  -18.2330   38.5170   19.1190 C   0  0  0  0  0  0
  -17.8960   37.7400   18.2210 O   0  0  0  0  0  0
  -16.0920   39.0990   20.3000 C   0  0  0  0  0  0
  -15.3540   38.3240   21.3800 C   0  0  0  0  0  0
  -15.9190   36.8910   21.2750 C   0  0  0  0  0  0
  -19.2310   39.3920   18.9960 N   0  0  0  0  0  0
  -20.0380   39.4440   17.7860 C   0  0  2  0  0  0
  -20.0460   40.7670   17.0120 C   0  0  0  0  0  0
  -20.3880   41.8210   17.5520 O   0  0  0  0  0  0
  -21.4770   39.0660   18.1260 C   0  0  0  0  0  0
  -22.3230   38.7480   16.9080 C   0  0  0  0  0  0
  -22.7530   37.2730   16.9120 C   0  0  0  0  0  0
  -23.0200   36.7640   15.4850 C   0  0  0  0  0  0
  -23.6240   35.3750   15.4970 N   0  3  0  0  0  0
  -19.6820   40.6920   15.7340 N   0  0  0  0  0  0
  -19.6750   41.8640   14.8690 C   0  0  2  0  0  0
  -21.1110   42.2650   14.6100 C   0  0  0  0  0  0
  -21.9680   41.4170   14.3900 O   0  0  0  0  0  0
  -18.9870   41.5540   13.5370 C   0  0  0  0  0  0
  -17.4890   41.7640   13.5550 C   0  0  0  0  0  0
  -16.9460   43.0390   13.6890 C   0  0  0  0  0  0
  -16.6090   40.6880   13.4410 C   0  0  0  0  0  0
  -15.5660   43.2410   13.7100 C   0  0  0  0  0  0
  -15.2190   40.8810   13.4590 C   0  0  0  0  0  0
  -14.7090   42.1590   13.5950 C   0  0  0  0  0  0
  -13.3490   42.3600   13.6340 O   0  0  0  0  0  0
  -21.3780   43.5600   14.6390 N   0  0  0  0  0  0
  -22.7270   44.0420   14.4020 C   0  0  2  0  0  0
  -22.7650   44.9090   13.1630 C   0  0  0  0  0  0
  -21.8110   45.6270   12.8740 O   0  0  0  0  0  0
  -23.2260   44.8630   15.5790 C   0  0  0  0  0  0
  -24.6550   45.2600   15.3430 C   0  0  0  0  0  0
  -23.0970   44.0580   16.8630 C   0  0  0  0  0  0
  -23.8670   44.8510   12.4290 N   0  0  0  0  0  0
  -23.9860   45.6480   11.2120 C   0  0  2  0  0  0
  -24.8780   46.8630   11.3840 C   0  0  0  0  0  0
  -25.6310   46.9660   12.3510 O   0  0  0  0  0  0
  -24.5730   44.8070   10.0760 C   0  0  0  0  0  0
  -26.0660   44.6160   10.1770 C   0  0  0  0  0  0
  -26.6350   44.1290    8.8750 C   0  0  0  0  0  0
  -28.1500   44.2150    8.8780 C   0  0  0  0  0  0
  -28.7520   43.2950    9.8640 N   0  3  0  0  0  0
  -24.7880   47.7790   10.4280 N   0  0  0  0  0  0
  -25.6420   48.9630   10.4150 C   0  0  2  0  0  0
  -26.7010   48.5940    9.4030 C   0  0  0  0  0  0
  -26.3790   48.0340    8.3630 O   0  0  0  0  0  0
  -24.8850   50.1940    9.9280 C   0  0  0  0  0  0
  -24.2260   51.0170   11.0270 C   0  0  0  0  0  0
  -25.2350   51.5720   12.0230 C   0  0  0  0  0  0
  -25.7460   50.8460   12.8790 O   0  0  0  0  0  0
  -25.5370   52.8650   11.9060 N   0  0  0  0  0  0
  -27.9630   48.8710    9.6990 N   0  0  0  0  0  0
  -29.0120   48.5290    8.7480 C   0  0  2  0  0  0
  -29.0790   49.5770    7.6460 C   0  0  0  0  0  0
  -28.9060   50.7680    7.9050 O   0  0  0  0  0  0
  -30.3670   48.4290    9.4470 C   0  0  0  0  0  0
  -30.3230   47.5430   10.6730 C   0  0  0  0  0  0
  -29.5560   46.5820   10.7340 O   0  0  0  0  0  0
  -31.1570   47.8550   11.6560 N   0  0  0  0  0  0
  -29.3100   49.1290    6.4150 N   0  0  0  0  0  0
  -29.4100   50.0510    5.2900 C   0  0  2  0  0  0
  -30.7890   50.7100    5.2830 C   0  0  0  0  0  0
  -31.8190   50.0570    5.4800 O   0  0  0  0  0  0
  -29.1720   49.3380    3.9250 C   0  0  2  0  0  0
  -30.0300   48.2050    3.8170 O   0  0  0  0  0  0
  -27.7590   48.8500    3.8150 C   0  0  0  0  0  0
  -30.7960   52.0170    5.0820 N   0  0  0  0  0  0
  -32.0400   52.7610    5.0440 C   0  0  2  0  0  0
  -32.5920   52.7620    3.6350 C   0  0  0  0  0  0
  -31.8490   52.6910    2.6630 O   0  0  0  0  0  0
  -31.7970   54.2040    5.4880 C   0  0  0  0  0  0
  -31.3700   54.3670    6.9450 C   0  0  0  0  0  0
  -30.9750   55.8110    7.2040 C   0  0  0  0  0  0
  -32.5140   53.9330    7.8530 C   0  0  0  0  0  0
  -33.9050   52.8330    3.5260 N   0  0  0  0  0  0
  -34.5320   52.8900    2.2120 C   0  0  2  0  0  0
  -34.5710   54.3550    1.7470 C   0  0  0  0  0  0
  -34.8510   55.2600    2.5350 O   0  0  0  0  0  0
  -35.9590   52.3480    2.2700 C   0  0  0  0  0  0
  -36.5830   52.0320    0.9060 C   0  0  0  0  0  0
  -38.0440   51.5580    1.0910 C   0  0  0  0  0  0
  -38.2390   50.6700    2.3810 C   0  0  0  0  0  0
  -37.8830   51.3310    3.7220 N   0  3  0  0  0  0
  -34.2870   54.5640    0.4660 N   0  0  0  0  0  0
  -34.2870   55.8920   -0.1040 C   0  0  2  0  0  0
  -35.6830   56.5040   -0.1500 C   0  0  0  0  0  0
  -36.6970   55.8060   -0.0470 O   0  0  0  0  0  0
  -33.6970   55.8620   -1.5100 C   0  0  0  0  0  0
  -32.2160   55.5010   -1.6240 C   0  0  0  0  0  0
  -31.7440   55.7200   -3.0600 C   0  0  0  0  0  0
  -31.3990   56.3600   -0.6770 C   0  0  0  0  0  0
  -35.7100   57.8250   -0.2980 N   0  0  0  0  0  0
  -36.9470   58.5850   -0.3740 C   0  0  2  0  0  0
  -37.6580   58.2570   -1.6680 C   0  0  0  0  0  0
  -37.0530   58.2570   -2.7400 O   0  0  0  0  0  0
  -36.6470   60.0810   -0.3140 C   0  0  0  0  0  0
  -38.9520   57.9910   -1.5520 N   0  0  0  0  0  0
  -39.7810   57.6570   -2.6990 C   0  0  2  0  0  0
  -40.9570   58.6190   -2.8460 C   0  0  0  0  0  0
  -41.1100   59.1820   -3.9540 O   0  0  0  0  0  0
  -40.3370   56.2330   -2.5730 C   0  0  2  0  0  0
  -39.2620   55.2930   -2.6870 O   0  0  0  0  0  0
  -41.3750   55.9690   -3.6580 C   0  0  0  0  0  0
  -41.7160   58.7800   -1.8580 O   0  0  0  0  0  0
  -17.9517   36.9912   21.8363 H   0  0  0  0  0  0
  -17.6494   36.4310   20.1565 H   0  0  0  0  0  0
  -18.0842   39.1201   21.1578 H   0  0  0  0  0  0
  -15.7201   38.9026   19.2836 H   0  0  0  0  0  0
  -16.1202   40.1843   20.4768 H   0  0  0  0  0  0
  -14.2728   38.3560   21.1803 H   0  0  0  0  0  0
  -15.5592   38.7767   22.3613 H   0  0  0  0  0  0
  -15.8584   36.3355   22.2225 H   0  0  0  0  0  0
  -15.4484   36.3020   20.4740 H   0  0  0  0  0  0
  -19.4406   40.0816   19.8270 H   0  0  0  0  0  0
  -19.5146   38.7137   17.1514 H   0  0  0  0  0  0
  -21.4794   38.1745   18.7704 H   0  0  0  0  0  0
  -21.9606   39.9012   18.6538 H   0  0  0  0  0  0
  -23.2235   39.3797   16.9120 H   0  0  0  0  0  0
  -21.7409   38.9450   15.9957 H   0  0  0  0  0  0
  -21.9562   36.6600   17.3585 H   0  0  0  0  0  0
  -23.6751   37.1615   17.5012 H   0  0  0  0  0  0
  -23.7200   37.4444   14.9780 H   0  0  0  0  0  0
  -22.0736   36.7280   14.9255 H   0  0  0  0  0  0
  -23.8013   35.0433   14.4633 H   0  0  0  0  0  0
  -24.5779   35.3947   16.0445 H   0  0  0  0  0  0
  -22.9314   34.6783   15.9920 H   0  0  0  0  0  0
  -19.3811   39.7121   15.3349 H   0  0  0  0  0  0
  -19.1232   42.6540   15.3996 H   0  0  0  0  0  0
  -19.1642   40.5020   13.2689 H   0  0  0  0  0  0
  -19.3969   42.2065   12.7520 H   0  0  0  0  0  0
  -17.6127   43.8966   13.7793 H   0  0  0  0  0  0
  -17.0080   39.6791   13.3360 H   0  0  0  0  0  0
  -15.1629   44.2481   13.8167 H   0  0  0  0  0  0
  -14.5457   40.0288   13.3664 H   0  0  0  0  0  0
  -12.9463   43.3779   13.7423 H   0  0  0  0  0  0
  -20.5671   44.2741   14.8450 H   0  0  0  0  0  0
  -23.3370   43.1361   14.2705 H   0  0  0  0  0  0
  -22.6277   45.7810   15.6754 H   0  0  0  0  0  0
  -24.7252   45.8401   14.4111 H   0  0  0  0  0  0
  -25.0088   45.8737   16.1845 H   0  0  0  0  0  0
  -25.2776   44.3569   15.2606 H   0  0  0  0  0  0
  -22.0443   43.7782   17.0161 H   0  0  0  0  0  0
  -23.7111   43.1484   16.7888 H   0  0  0  0  0  0
  -23.4423   44.6652   17.7127 H   0  0  0  0  0  0
  -24.6948   44.1975   12.7416 H   0  0  0  0  0  0
  -22.9518   45.9697   11.0196 H   0  0  0  0  0  0
  -24.3686   45.2978    9.1130 H   0  0  0  0  0  0
  -24.1124   43.8081   10.0834 H   0  0  0  0  0  0
  -26.2888   43.8749   10.9588 H   0  0  0  0  0  0
  -26.5417   45.5740   10.4337 H   0  0  0  0  0  0
  -26.2481   44.7474    8.0516 H   0  0  0  0  0  0
  -26.3414   43.0810    8.7157 H   0  0  0  0  0  0
  -28.4585   45.2402    9.1304 H   0  0  0  0  0  0
  -28.5342   43.9513    7.8816 H   0  0  0  0  0  0
  -29.8475   43.3897    9.8326 H   0  0  0  0  0  0
  -28.3906   43.5495   10.8713 H   0  0  0  0  0  0
  -28.4663   42.2606    9.6224 H   0  0  0  0  0  0
  -24.0451   47.6279    9.6309 H   0  0  0  0  0  0
  -26.0174   49.1820   11.4255 H   0  0  0  0  0  0
  -24.0835   49.8837    9.2415 H   0  0  0  0  0  0
  -25.5785   50.8666    9.4019 H   0  0  0  0  0  0
  -23.5147   50.3865   11.5807 H   0  0  0  0  0  0
  -23.6905   51.8665   10.5779 H   0  0  0  0  0  0
  -25.0555   53.4739   11.1266 H   0  0  0  0  0  0
  -26.2677   53.3231   12.5888 H   0  0  0  0  0  0
  -28.2214   49.3546   10.6526 H   0  0  0  0  0  0
  -28.7291   47.5506    8.3324 H   0  0  0  0  0  0
  -30.6903   49.4312    9.7650 H   0  0  0  0  0  0
  -31.1081   48.0081    8.7516 H   0  0  0  0  0  0
  -31.8243   48.7237   11.5562 H   0  0  0  0  0  0
  -31.1814   47.2450   12.5710 H   0  0  0  0  0  0
  -29.4260   48.0474    6.2517 H   0  0  0  0  0  0
  -28.6193   50.7923    5.4776 H   0  0  0  0  0  0
  -29.4050   50.0053    3.0821 H   0  0  0  0  0  0
  -31.1210   48.3341    3.8716 H   0  0  0  0  0  0
  -27.0692   49.7031    3.8948 H   0  0  0  0  0  0
  -27.6172   48.3533    2.8438 H   0  0  0  0  0  0
  -27.5537   48.1354    4.6257 H   0  0  0  0  0  0
  -29.8381   52.5395    4.9424 H   0  0  0  0  0  0
  -32.7297   52.2446    5.7278 H   0  0  0  0  0  0
  -30.9989   54.6470    4.8741 H   0  0  0  0  0  0
  -32.7217   54.7866    5.3634 H   0  0  0  0  0  0
  -30.4948   53.7366    7.1608 H   0  0  0  0  0  0
  -30.1490   56.0910    6.5337 H   0  0  0  0  0  0
  -30.6519   55.9208    8.2497 H   0  0  0  0  0  0
  -31.8381   56.4666    7.0161 H   0  0  0  0  0  0
  -32.7742   52.8857    7.6399 H   0  0  0  0  0  0
  -33.3899   54.5729    7.6705 H   0  0  0  0  0  0
  -32.2037   54.0271    8.9041 H   0  0  0  0  0  0
  -34.5268   52.8491    4.4333 H   0  0  0  0  0  0
  -33.9203   52.2586    1.5508 H   0  0  0  0  0  0
  -35.9727   51.4128    2.8490 H   0  0  0  0  0  0
  -36.6131   53.0884    2.7538 H   0  0  0  0  0  0
  -36.5720   52.9361    0.2795 H   0  0  0  0  0  0
  -36.0039   51.2372    0.4131 H   0  0  0  0  0  0
  -38.7046   52.4329    1.1819 H   0  0  0  0  0  0
  -38.3479   50.9580    0.2206 H   0  0  0  0  0  0
  -39.2937   50.3686    2.4626 H   0  0  0  0  0  0
  -37.6060   49.7733    2.3080 H   0  0  0  0  0  0
  -38.0595   50.6178    4.5406 H   0  0  0  0  0  0
  -38.5112   52.2218    3.8699 H   0  0  0  0  0  0
  -36.8235   51.6265    3.7152 H   0  0  0  0  0  0
  -34.0478   53.6949   -0.1644 H   0  0  0  0  0  0
  -33.6576   56.4746    0.5848 H   0  0  0  0  0  0
  -34.2339   55.1182   -2.1171 H   0  0  0  0  0  0
  -33.7993   56.8551   -1.9719 H   0  0  0  0  0  0
  -32.0751   54.4453   -1.3489 H   0  0  0  0  0  0
  -32.3399   55.0948   -3.7412 H   0  0  0  0  0  0
  -30.6825   55.4440   -3.1431 H   0  0  0  0  0  0
  -31.8697   56.7790   -3.3298 H   0  0  0  0  0  0
  -31.7436   56.1978    0.3549 H   0  0  0  0  0  0
  -31.5242   57.4200   -0.9430 H   0  0  0  0  0  0
  -30.3369   56.0850   -0.7564 H   0  0  0  0  0  0
  -34.7416   58.3426   -0.3633 H   0  0  0  0  0  0
  -37.5610   58.2817    0.4868 H   0  0  0  0  0  0
  -36.1301   60.3138    0.6287 H   0  0  0  0  0  0
  -37.5893   60.6462   -0.3648 H   0  0  0  0  0  0
  -36.0055   60.3606   -1.1627 H   0  0  0  0  0  0
  -39.3949   58.0294   -0.5458 H   0  0  0  0  0  0
  -39.0955   57.7542   -3.5538 H   0  0  0  0  0  0
  -40.7813   56.0682   -1.5803 H   0  0  0  0  0  0
  -38.4184   55.3340   -1.9822 H   0  0  0  0  0  0
  -42.1965   56.6944   -3.5637 H   0  0  0  0  0  0
  -41.7716   54.9492   -3.5456 H   0  0  0  0  0  0
  -40.9057   56.0730   -4.6474 H   0  0  0  0  0  0
  -42.5731   59.4658   -1.9289 H   0  0  0  0  0  0
  1  2  1  0  0  0
  1  7  1  0  0  0
  1107  1  0  0  0
  1108  1  0  0  0
  2  3  1  0  0  0
  2  5  1  0  0  0
  2109  1  0  0  0
  3  4  2  0  0  0
  3  8  1  0  0  0
  5  6  1  0  0  0
  5110  1  0  0  0
  5111  1  0  0  0
  6  7  1  0  0  0
  6112  1  0  0  0
  6113  1  0  0  0
  7114  1  0  0  0
  7115  1  0  0  0
  8  9  1  0  0  0
  8116  1  0  0  0
  9 10  1  0  0  0
  9 12  1  0  0  0
  9117  1  0  0  0
 10 11  2  0  0  0
 10 17  1  0  0  0
 12 13  1  0  0  0
 12118  1  0  0  0
 12119  1  0  0  0
 13 14  1  0  0  0
 13120  1  0  0  0
 13121  1  0  0  0
 14 15  1  0  0  0
 14122  1  0  0  0
 14123  1  0  0  0
 15 16  1  0  0  0
 15124  1  0  0  0
 15125  1  0  0  0
 16126  1  0  0  0
 16127  1  0  0  0
 16128  1  0  0  0
 17 18  1  0  0  0
 17129  1  0  0  0
 18 19  1  0  0  0
 18 21  1  0  0  0
 18130  1  0  0  0
 19 20  2  0  0  0
 19 29  1  0  0  0
 21 22  1  0  0  0
 21131  1  0  0  0
 21132  1  0  0  0
 22 23  2  0  0  0
 22 24  1  0  0  0
 23 25  1  0  0  0
 23133  1  0  0  0
 24 26  2  0  0  0
 24134  1  0  0  0
 25 27  2  0  0  0
 25135  1  0  0  0
 26 27  1  0  0  0
 26136  1  0  0  0
 27 28  1  0  0  0
 28137  1  0  0  0
 29 30  1  0  0  0
 29138  1  0  0  0
 30 31  1  0  0  0
 30 33  1  0  0  0
 30139  1  0  0  0
 31 32  2  0  0  0
 31 36  1  0  0  0
 33 34  1  0  0  0
 33 35  1  0  0  0
 33140  1  0  0  0
 34141  1  0  0  0
 34142  1  0  0  0
 34143  1  0  0  0
 35144  1  0  0  0
 35145  1  0  0  0
 35146  1  0  0  0
 36 37  1  0  0  0
 36147  1  0  0  0
 37 38  1  0  0  0
 37 40  1  0  0  0
 37148  1  0  0  0
 38 39  2  0  0  0
 38 45  1  0  0  0
 40 41  1  0  0  0
 40149  1  0  0  0
 40150  1  0  0  0
 41 42  1  0  0  0
 41151  1  0  0  0
 41152  1  0  0  0
 42 43  1  0  0  0
 42153  1  0  0  0
 42154  1  0  0  0
 43 44  1  0  0  0
 43155  1  0  0  0
 43156  1  0  0  0
 44157  1  0  0  0
 44158  1  0  0  0
 44159  1  0  0  0
 45 46  1  0  0  0
 45160  1  0  0  0
 46 47  1  0  0  0
 46 49  1  0  0  0
 46161  1  0  0  0
 47 48  2  0  0  0
 47 54  1  0  0  0
 49 50  1  0  0  0
 49162  1  0  0  0
 49163  1  0  0  0
 50 51  1  0  0  0
 50164  1  0  0  0
 50165  1  0  0  0
 51 52  2  0  0  0
 51 53  1  0  0  0
 53166  1  0  0  0
 53167  1  0  0  0
 54 55  1  0  0  0
 54168  1  0  0  0
 55 56  1  0  0  0
 55 58  1  0  0  0
 55169  1  0  0  0
 56 57  2  0  0  0
 56 62  1  0  0  0
 58 59  1  0  0  0
 58170  1  0  0  0
 58171  1  0  0  0
 59 60  2  0  0  0
 59 61  1  0  0  0
 61172  1  0  0  0
 61173  1  0  0  0
 62 63  1  0  0  0
 62174  1  0  0  0
 63 64  1  0  0  0
 63 66  1  0  0  0
 63175  1  0  0  0
 64 65  2  0  0  0
 64 69  1  0  0  0
 66 67  1  0  0  0
 66 68  1  0  0  0
 66176  1  0  0  0
 67177  1  0  0  0
 68178  1  0  0  0
 68179  1  0  0  0
 68180  1  0  0  0
 69 70  1  0  0  0
 69181  1  0  0  0
 70 71  1  0  0  0
 70 73  1  0  0  0
 70182  1  0  0  0
 71 72  2  0  0  0
 71 77  1  0  0  0
 73 74  1  0  0  0
 73183  1  0  0  0
 73184  1  0  0  0
 74 75  1  0  0  0
 74 76  1  0  0  0
 74185  1  0  0  0
 75186  1  0  0  0
 75187  1  0  0  0
 75188  1  0  0  0
 76189  1  0  0  0
 76190  1  0  0  0
 76191  1  0  0  0
 77 78  1  0  0  0
 77192  1  0  0  0
 78 79  1  0  0  0
 78 81  1  0  0  0
 78193  1  0  0  0
 79 80  2  0  0  0
 79 86  1  0  0  0
 81 82  1  0  0  0
 81194  1  0  0  0
 81195  1  0  0  0
 82 83  1  0  0  0
 82196  1  0  0  0
 82197  1  0  0  0
 83 84  1  0  0  0
 83198  1  0  0  0
 83199  1  0  0  0
 84 85  1  0  0  0
 84200  1  0  0  0
 84201  1  0  0  0
 85202  1  0  0  0
 85203  1  0  0  0
 85204  1  0  0  0
 86 87  1  0  0  0
 86205  1  0  0  0
 87 88  1  0  0  0
 87 90  1  0  0  0
 87206  1  0  0  0
 88 89  2  0  0  0
 88 94  1  0  0  0
 90 91  1  0  0  0
 90207  1  0  0  0
 90208  1  0  0  0
 91 92  1  0  0  0
 91 93  1  0  0  0
 91209  1  0  0  0
 92210  1  0  0  0
 92211  1  0  0  0
 92212  1  0  0  0
 93213  1  0  0  0
 93214  1  0  0  0
 93215  1  0  0  0
 94 95  1  0  0  0
 94216  1  0  0  0
 95 96  1  0  0  0
 95 98  1  0  0  0
 95217  1  0  0  0
 96 97  2  0  0  0
 96 99  1  0  0  0
 98218  1  0  0  0
 98219  1  0  0  0
 98220  1  0  0  0
 99100  1  0  0  0
 99221  1  0  0  0
100101  1  0  0  0
100103  1  0  0  0
100222  1  0  0  0
101102  2  0  0  0
101106  1  0  0  0
103104  1  0  0  0
103105  1  0  0  0
103223  1  0  0  0
104224  1  0  0  0
105225  1  0  0  0
105226  1  0  0  0
105227  1  0  0  0
106228  1  0  0  0
M  CHG  4   1   1  16   1  44   1  85   1
M  END
> <s_m_source_file>
../1jws_ligand.sdf

> <i_m_source_file_index>
1

> <s_epik_input>
W0NIMl0xW0NIMl1bQ0gyXVtOSDIrXVtDQEBIXTFDKD1PKVtOSF1bQ0BASF0oW0NIMl1bQ0gyXVtDSDJdW0NIMl1bTkgzK10pQyg9TylbTkhdW0NAQEhdKFtDSDJdYzJbY0hdW2NIXWMoW09IXSlbY0hdW2NIXTIpQyg9TylbTkhdW0NAQEhdKFtDSF0oW0NIM10pW0NIM10pQyg9TylbTkhdW0NAQEhdKFtDSDJdW0NIMl1bQ0gyXVtDSDJdW05IMytdKUMoPU8pW05IXVtDQEBIXShbQ0gyXVtDSDJdQyg9TylbTkgyXSlDKD1PKVtOSF1bQ0BASF0oW0NIMl1DKD1PKVtOSDJdKUMoPU8pW05IXVtDQEBIXShbQ0BIXShbT0hdKVtDSDNdKUMoPU8pW05IXVtDQEBIXShbQ0gyXVtDSF0oW0NIM10pW0NIM10pQyg9TylbTkhdW0NAQEhdKFtDSDJdW0NIMl1bQ0gyXVtDSDJdW05IMytdKUMoPU8pW05IXVtDQEBIXShbQ0gyXVtDSF0oW0NIM10pW0NIM10pQyg9TylbTkhdW0NAQEhdKFtDSDNdKUMoPU8pW05IXVtDQEhdKEMoPU8pW09IXSlbQ0BIXShbT0hdKVtDSDNd

> <s_epik_cmdline>
J2VwaWtfYXBwJywgJy1pbWFlJywgJ2xpZ2FuZF9wcm8ubWFlJywgJy1vbWFlJywgJ2xpZ2FuZF9wcmVwLm1hZScsICctbXMnLCAnMScsICctcGgnLCAnNycsICctcGh0JywgJzAuNScsICctbnQn

> <s_epik_pKa_notes>
Molecule size exceeds maximum supported for generating protonation states

$$$$
