1jwu_ligand
                    3D
 Schrodinger Suite 2020-3.
228229  0  0  1  0            999 V2000
  -17.3870   36.9230   20.5290 N   0  3  0  0  0  0
  -17.9130   38.2840   20.2530 C   0  0  2  0  0  0
  -18.5060   38.3410   18.8490 C   0  0  0  0  0  0
  -17.9520   37.7670   17.9080 O   0  0  0  0  0  0
  -16.7470   39.2570   20.3810 C   0  0  0  0  0  0
  -15.7660   38.4510   21.2420 C   0  0  0  0  0  0
  -15.9390   36.9980   20.7830 C   0  0  0  0  0  0
  -19.6220   39.0500   18.7110 N   0  0  0  0  0  0
  -20.2900   39.1490   17.4280 C   0  0  2  0  0  0
  -20.2410   40.5370   16.7920 C   0  0  0  0  0  0
  -20.5230   41.5430   17.4350 O   0  0  0  0  0  0
  -21.7460   38.6830   17.5630 C   0  0  0  0  0  0
  -22.4000   38.3570   16.2240 C   0  0  0  0  0  0
  -23.5590   37.3730   16.3540 C   0  0  0  0  0  0
  -23.8250   36.6860   15.0100 C   0  0  0  0  0  0
  -24.8560   35.6060   15.0740 N   0  3  0  0  0  0
  -19.8550   40.5700   15.5200 N   0  0  0  0  0  0
  -19.7850   41.8060   14.7510 C   0  0  2  0  0  0
  -21.2170   42.2510   14.4910 C   0  0  0  0  0  0
  -22.0790   41.4240   14.2080 O   0  0  0  0  0  0
  -19.0970   41.5620   13.4020 C   0  0  0  0  0  0
  -17.5890   41.6780   13.4170 C   0  0  0  0  0  0
  -16.9620   42.9250   13.4830 C   0  0  0  0  0  0
  -16.7850   40.5410   13.3470 C   0  0  0  0  0  0
  -15.5710   43.0340   13.4740 C   0  0  0  0  0  0
  -15.3940   40.6380   13.3430 C   0  0  0  0  0  0
  -14.7950   41.8830   13.4030 C   0  0  0  0  0  0
  -13.4230   41.9700   13.3670 O   0  0  0  0  0  0
  -21.4790   43.5450   14.5980 N   0  0  0  0  0  0
  -22.8200   44.0450   14.3280 C   0  0  2  0  0  0
  -22.7840   44.9350   13.0970 C   0  0  0  0  0  0
  -21.7980   45.6320   12.8610 O   0  0  0  0  0  0
  -23.3740   44.8470   15.5160 C   0  0  0  0  0  0
  -24.7170   45.4430   15.1530 C   0  0  0  0  0  0
  -23.5290   43.9340   16.7290 C   0  0  0  0  0  0
  -23.8610   44.9100   12.3180 N   0  0  0  0  0  0
  -23.9490   45.7130   11.1010 C   0  0  2  0  0  0
  -24.8700   46.9180   11.2280 C   0  0  0  0  0  0
  -25.7830   46.9390   12.0540 O   0  0  0  0  0  0
  -24.4850   44.8680    9.9390 C   0  0  0  0  0  0
  -26.0250   44.7200    9.9330 C   0  0  0  0  0  0
  -26.5120   44.0240    8.6710 C   0  0  0  0  0  0
  -28.0300   44.0570    8.5400 C   0  0  0  0  0  0
  -28.7470   43.2800    9.5790 N   0  3  0  0  0  0
  -24.6250   47.9170   10.3890 N   0  0  0  0  0  0
  -25.4810   49.0940   10.3310 C   0  0  2  0  0  0
  -26.4960   48.7470    9.2380 C   0  0  0  0  0  0
  -26.1180   48.2270    8.1830 O   0  0  0  0  0  0
  -24.6800   50.3310    9.9260 C   0  0  0  0  0  0
  -24.1270   51.1250   11.1010 C   0  0  0  0  0  0
  -25.2250   51.5340   12.0720 C   0  0  0  0  0  0
  -25.6930   50.7250   12.8720 O   0  0  0  0  0  0
  -25.6520   52.7870   11.9900 N   0  0  0  0  0  0
  -27.7760   49.0050    9.4950 N   0  0  0  0  0  0
  -28.8190   48.6940    8.5250 C   0  0  2  0  0  0
  -28.9060   49.7510    7.4330 C   0  0  0  0  0  0
  -28.7360   50.9480    7.6890 O   0  0  0  0  0  0
  -30.1920   48.5730    9.2080 C   0  0  0  0  0  0
  -30.2170   47.5120   10.3000 C   0  0  0  0  0  0
  -29.5930   46.4570   10.1780 O   0  0  0  0  0  0
  -30.9600   47.7830   11.3690 N   0  0  0  0  0  0
  -29.1780   49.2960    6.2150 N   0  0  0  0  0  0
  -29.3080   50.1840    5.0720 C   0  0  2  0  0  0
  -30.7000   50.8270    5.0760 C   0  0  0  0  0  0
  -31.7240   50.1500    5.2030 O   0  0  0  0  0  0
  -29.0730   49.4030    3.7440 C   0  0  2  0  0  0
  -29.8030   48.1760    3.7700 O   0  0  0  0  0  0
  -27.6160   49.0430    3.5810 C   0  0  0  0  0  0
  -30.7280   52.1450    4.9530 N   0  0  0  0  0  0
  -31.9830   52.8850    4.9400 C   0  0  2  0  0  0
  -32.5560   52.9510    3.5290 C   0  0  0  0  0  0
  -31.8090   52.9890    2.5520 O   0  0  0  0  0  0
  -31.7330   54.3040    5.4400 C   0  0  0  0  0  0
  -31.1220   54.3620    6.8360 C   0  0  0  0  0  0
  -30.5330   55.7320    7.0940 C   0  0  0  0  0  0
  -32.1920   54.0100    7.8530 C   0  0  0  0  0  0
  -33.8780   52.9710    3.4270 N   0  0  0  0  0  0
  -34.5380   53.0610    2.1260 C   0  0  2  0  0  0
  -34.4690   54.5290    1.6950 C   0  0  0  0  0  0
  -34.6340   55.4260    2.5230 O   0  0  0  0  0  0
  -36.0020   52.6240    2.2460 C   0  0  0  0  0  0
  -36.2210   51.4740    3.2250 C   0  0  0  0  0  0
  -37.6990   51.1630    3.4420 C   0  0  0  0  0  0
  -38.3550   50.6390    2.1720 C   0  0  0  0  0  0
  -39.7620   50.2070    2.4110 N   0  3  0  0  0  0
  -34.2140   54.7750    0.4120 N   0  0  0  0  0  0
  -34.1270   56.1410   -0.0970 C   0  0  2  0  0  0
  -35.4850   56.8210   -0.1280 C   0  0  0  0  0  0
  -36.5160   56.1630   -0.0200 O   0  0  0  0  0  0
  -33.5420   56.1510   -1.5090 C   0  0  0  0  0  0
  -32.0860   55.7160   -1.6510 C   0  0  0  0  0  0
  -31.6920   55.7780   -3.1140 C   0  0  0  0  0  0
  -31.1840   56.6280   -0.8250 C   0  0  0  0  0  0
  -35.4800   58.1440   -0.2720 N   0  0  0  0  0  0
  -36.7250   58.9010   -0.3370 C   0  0  2  0  0  0
  -37.4470   58.5580   -1.6330 C   0  0  0  0  0  0
  -36.8410   58.5370   -2.7050 O   0  0  0  0  0  0
  -36.4420   60.3940   -0.2840 C   0  0  0  0  0  0
  -38.7410   58.2850   -1.5280 N   0  0  0  0  0  0
  -39.5450   57.9550   -2.7000 C   0  0  2  0  0  0
  -40.4380   59.1320   -3.0720 C   0  0  0  0  0  0
  -40.4350   59.5130   -4.2620 O   0  0  0  0  0  0
  -40.4310   56.7240   -2.4470 C   0  0  2  0  0  0
  -39.6000   55.5730   -2.2550 O   0  0  0  0  0  0
  -41.3610   56.4880   -3.6280 C   0  0  0  0  0  0
  -41.1310   59.6510   -2.1680 O   0  0  0  0  0  0
  -17.8929   36.5066   21.4126 H   0  0  0  0  0  0
  -17.5735   36.2746   19.6602 H   0  0  0  0  0  0
  -18.7071   38.5232   20.9756 H   0  0  0  0  0  0
  -16.3546   39.4927   19.3807 H   0  0  0  0  0  0
  -17.0926   40.1816   20.8665 H   0  0  0  0  0  0
  -14.7421   38.8132   21.0677 H   0  0  0  0  0  0
  -16.0230   38.5751   22.3043 H   0  0  0  0  0  0
  -15.6643   36.2671   21.5579 H   0  0  0  0  0  0
  -15.3919   36.7724   19.8558 H   0  0  0  0  0  0
  -20.0379   39.5661   19.5889 H   0  0  0  0  0  0
  -19.6899   38.4807   16.7930 H   0  0  0  0  0  0
  -21.7842   37.7739   18.1811 H   0  0  0  0  0  0
  -22.3420   39.4755   18.0393 H   0  0  0  0  0  0
  -22.7930   39.2803   15.7735 H   0  0  0  0  0  0
  -21.6540   37.9093   15.5509 H   0  0  0  0  0  0
  -23.3090   36.6091   17.1050 H   0  0  0  0  0  0
  -24.4648   37.9127   16.6675 H   0  0  0  0  0  0
  -24.1789   37.4303   14.2815 H   0  0  0  0  0  0
  -22.8955   36.2266   14.6427 H   0  0  0  0  0  0
  -24.9880   35.1654   14.0748 H   0  0  0  0  0  0
  -25.8111   36.0307   15.4165 H   0  0  0  0  0  0
  -24.5277   34.8270   15.7778 H   0  0  0  0  0  0
  -19.5822   39.6136   15.0500 H   0  0  0  0  0  0
  -19.2117   42.5349   15.3426 H   0  0  0  0  0  0
  -19.3291   40.5458   13.0506 H   0  0  0  0  0  0
  -19.4599   42.2958   12.6673 H   0  0  0  0  0  0
  -17.5698   43.8278   13.5425 H   0  0  0  0  0  0
  -17.2526   39.5578   13.2944 H   0  0  0  0  0  0
  -15.0966   44.0141   13.5223 H   0  0  0  0  0  0
  -14.7821   39.7374   13.2929 H   0  0  0  0  0  0
  -12.9329   42.9536   13.4139 H   0  0  0  0  0  0
  -20.6807   44.2425   14.8916 H   0  0  0  0  0  0
  -23.4374   43.1507   14.1577 H   0  0  0  0  0  0
  -22.6829   45.6662   15.7635 H   0  0  0  0  0  0
  -24.6021   46.1004   14.2786 H   0  0  0  0  0  0
  -25.1008   46.0267   16.0027 H   0  0  0  0  0  0
  -25.4241   44.6350   14.9139 H   0  0  0  0  0  0
  -22.5515   43.5024   16.9904 H   0  0  0  0  0  0
  -24.2352   43.1249   16.4911 H   0  0  0  0  0  0
  -23.9119   44.5166   17.5799 H   0  0  0  0  0  0
  -24.7002   44.2621   12.6113 H   0  0  0  0  0  0
  -22.9107   46.0490   10.9630 H   0  0  0  0  0  0
  -24.1980   45.3332    8.9844 H   0  0  0  0  0  0
  -24.0599   43.8550    9.9956 H   0  0  0  0  0  0
  -26.3395   44.1247   10.8029 H   0  0  0  0  0  0
  -26.4893   45.7160    9.9831 H   0  0  0  0  0  0
  -26.0835   44.5223    7.7889 H   0  0  0  0  0  0
  -26.1948   42.9709    8.6874 H   0  0  0  0  0  0
  -28.3819   45.0965    8.6144 H   0  0  0  0  0  0
  -28.3231   43.6396    7.5654 H   0  0  0  0  0  0
  -29.8314   43.3569    9.4113 H   0  0  0  0  0  0
  -28.5002   43.6818   10.5728 H   0  0  0  0  0  0
  -28.4414   42.2247    9.5238 H   0  0  0  0  0  0
  -23.7500   47.8402    9.7269 H   0  0  0  0  0  0
  -25.9217   49.2910   11.3194 H   0  0  0  0  0  0
  -23.8221   50.0263    9.3086 H   0  0  0  0  0  0
  -25.3233   51.0118    9.3493 H   0  0  0  0  0  0
  -23.3945   50.5113   11.6459 H   0  0  0  0  0  0
  -23.6370   52.0369   10.7292 H   0  0  0  0  0  0
  -25.2026   53.4744   11.2582 H   0  0  0  0  0  0
  -26.4556   53.1388   12.6537 H   0  0  0  0  0  0
  -28.0409   49.4614   10.4601 H   0  0  0  0  0  0
  -28.4981   47.7345    8.0933 H   0  0  0  0  0  0
  -30.4583   49.5356    9.6690 H   0  0  0  0  0  0
  -30.9513   48.3024    8.4595 H   0  0  0  0  0  0
  -31.5004   48.7388   11.4352 H   0  0  0  0  0  0
  -31.0342   47.0514   12.1871 H   0  0  0  0  0  0
  -29.3056   48.2111    6.0859 H   0  0  0  0  0  0
  -28.5358   50.9555    5.2081 H   0  0  0  0  0  0
  -29.4291   49.9863    2.8821 H   0  0  0  0  0  0
  -30.8972   48.1893    3.8822 H   0  0  0  0  0  0
  -27.0119   49.9619    3.5557 H   0  0  0  0  0  0
  -27.4784   48.4877    2.6415 H   0  0  0  0  0  0
  -27.2961   48.4171    4.4271 H   0  0  0  0  0  0
  -29.7722   52.6814    4.8592 H   0  0  0  0  0  0
  -32.6695   52.3362    5.6015 H   0  0  0  0  0  0
  -31.0396   54.8166    4.7570 H   0  0  0  0  0  0
  -32.6854   54.8533    5.4758 H   0  0  0  0  0  0
  -30.2987   53.6382    6.9272 H   0  0  0  0  0  0
  -29.7640   55.9488    6.3379 H   0  0  0  0  0  0
  -30.0787   55.7531    8.0956 H   0  0  0  0  0  0
  -31.3282   56.4898    7.0360 H   0  0  0  0  0  0
  -32.5937   53.0102    7.6315 H   0  0  0  0  0  0
  -33.0037   54.7507    7.8025 H   0  0  0  0  0  0
  -31.7542   54.0140    8.8621 H   0  0  0  0  0  0
  -34.4796   52.9183    4.3464 H   0  0  0  0  0  0
  -34.0167   52.3937    1.4239 H   0  0  0  0  0  0
  -36.6101   53.4715    2.5953 H   0  0  0  0  0  0
  -36.3671   52.2912    1.2632 H   0  0  0  0  0  0
  -35.7377   50.5652    2.8371 H   0  0  0  0  0  0
  -35.7835   51.7342    4.2001 H   0  0  0  0  0  0
  -37.8015   50.3983    4.2261 H   0  0  0  0  0  0
  -38.2247   52.0783    3.7515 H   0  0  0  0  0  0
  -38.3627   51.4317    1.4094 H   0  0  0  0  0  0
  -37.7881   49.7744    1.7964 H   0  0  0  0  0  0
  -40.1966   49.8368    1.4708 H   0  0  0  0  0  0
  -40.3509   51.0615    2.7758 H   0  0  0  0  0  0
  -39.7763   49.4041    3.1628 H   0  0  0  0  0  0
  -34.0676   53.9238   -0.2693 H   0  0  0  0  0  0
  -33.4693   56.6580    0.6173 H   0  0  0  0  0  0
  -34.1209   55.4703   -2.1505 H   0  0  0  0  0  0
  -33.5903   57.1707   -1.9187 H   0  0  0  0  0  0
  -31.9688   54.6841   -1.2885 H   0  0  0  0  0  0
  -32.3486   55.1171   -3.6989 H   0  0  0  0  0  0
  -30.6479   55.4507   -3.2267 H   0  0  0  0  0  0
  -31.7937   56.8112   -3.4776 H   0  0  0  0  0  0
  -31.4791   56.5747    0.2333 H   0  0  0  0  0  0
  -31.2842   57.6637   -1.1819 H   0  0  0  0  0  0
  -30.1384   56.3032   -0.9310 H   0  0  0  0  0  0
  -34.5144   58.6663   -0.3423 H   0  0  0  0  0  0
  -37.3239   58.6090    0.5383 H   0  0  0  0  0  0
  -35.9206   60.6353    0.6541 H   0  0  0  0  0  0
  -37.3907   60.9488   -0.3294 H   0  0  0  0  0  0
  -35.8099   60.6779   -1.1383 H   0  0  0  0  0  0
  -39.2062   58.3111   -0.5315 H   0  0  0  0  0  0
  -38.8111   57.7473   -3.4926 H   0  0  0  0  0  0
  -41.0165   56.8401   -1.5230 H   0  0  0  0  0  0
  -38.8590   55.5590   -1.4421 H   0  0  0  0  0  0
  -41.9988   57.3721   -3.7749 H   0  0  0  0  0  0
  -41.9923   55.6097   -3.4278 H   0  0  0  0  0  0
  -40.7642   56.3116   -4.5351 H   0  0  0  0  0  0
  -41.7878   60.5026   -2.3989 H   0  0  0  0  0  0
  1  2  1  0  0  0
  1  7  1  0  0  0
  1107  1  0  0  0
  1108  1  0  0  0
  2  3  1  0  0  0
  2  5  1  0  0  0
  2109  1  0  0  0
  3  4  2  0  0  0
  3  8  1  0  0  0
  5  6  1  0  0  0
  5110  1  0  0  0
  5111  1  0  0  0
  6  7  1  0  0  0
  6112  1  0  0  0
  6113  1  0  0  0
  7114  1  0  0  0
  7115  1  0  0  0
  8  9  1  0  0  0
  8116  1  0  0  0
  9 10  1  0  0  0
  9 12  1  0  0  0
  9117  1  0  0  0
 10 11  2  0  0  0
 10 17  1  0  0  0
 12 13  1  0  0  0
 12118  1  0  0  0
 12119  1  0  0  0
 13 14  1  0  0  0
 13120  1  0  0  0
 13121  1  0  0  0
 14 15  1  0  0  0
 14122  1  0  0  0
 14123  1  0  0  0
 15 16  1  0  0  0
 15124  1  0  0  0
 15125  1  0  0  0
 16126  1  0  0  0
 16127  1  0  0  0
 16128  1  0  0  0
 17 18  1  0  0  0
 17129  1  0  0  0
 18 19  1  0  0  0
 18 21  1  0  0  0
 18130  1  0  0  0
 19 20  2  0  0  0
 19 29  1  0  0  0
 21 22  1  0  0  0
 21131  1  0  0  0
 21132  1  0  0  0
 22 23  2  0  0  0
 22 24  1  0  0  0
 23 25  1  0  0  0
 23133  1  0  0  0
 24 26  2  0  0  0
 24134  1  0  0  0
 25 27  2  0  0  0
 25135  1  0  0  0
 26 27  1  0  0  0
 26136  1  0  0  0
 27 28  1  0  0  0
 28137  1  0  0  0
 29 30  1  0  0  0
 29138  1  0  0  0
 30 31  1  0  0  0
 30 33  1  0  0  0
 30139  1  0  0  0
 31 32  2  0  0  0
 31 36  1  0  0  0
 33 34  1  0  0  0
 33 35  1  0  0  0
 33140  1  0  0  0
 34141  1  0  0  0
 34142  1  0  0  0
 34143  1  0  0  0
 35144  1  0  0  0
 35145  1  0  0  0
 35146  1  0  0  0
 36 37  1  0  0  0
 36147  1  0  0  0
 37 38  1  0  0  0
 37 40  1  0  0  0
 37148  1  0  0  0
 38 39  2  0  0  0
 38 45  1  0  0  0
 40 41  1  0  0  0
 40149  1  0  0  0
 40150  1  0  0  0
 41 42  1  0  0  0
 41151  1  0  0  0
 41152  1  0  0  0
 42 43  1  0  0  0
 42153  1  0  0  0
 42154  1  0  0  0
 43 44  1  0  0  0
 43155  1  0  0  0
 43156  1  0  0  0
 44157  1  0  0  0
 44158  1  0  0  0
 44159  1  0  0  0
 45 46  1  0  0  0
 45160  1  0  0  0
 46 47  1  0  0  0
 46 49  1  0  0  0
 46161  1  0  0  0
 47 48  2  0  0  0
 47 54  1  0  0  0
 49 50  1  0  0  0
 49162  1  0  0  0
 49163  1  0  0  0
 50 51  1  0  0  0
 50164  1  0  0  0
 50165  1  0  0  0
 51 52  2  0  0  0
 51 53  1  0  0  0
 53166  1  0  0  0
 53167  1  0  0  0
 54 55  1  0  0  0
 54168  1  0  0  0
 55 56  1  0  0  0
 55 58  1  0  0  0
 55169  1  0  0  0
 56 57  2  0  0  0
 56 62  1  0  0  0
 58 59  1  0  0  0
 58170  1  0  0  0
 58171  1  0  0  0
 59 60  2  0  0  0
 59 61  1  0  0  0
 61172  1  0  0  0
 61173  1  0  0  0
 62 63  1  0  0  0
 62174  1  0  0  0
 63 64  1  0  0  0
 63 66  1  0  0  0
 63175  1  0  0  0
 64 65  2  0  0  0
 64 69  1  0  0  0
 66 67  1  0  0  0
 66 68  1  0  0  0
 66176  1  0  0  0
 67177  1  0  0  0
 68178  1  0  0  0
 68179  1  0  0  0
 68180  1  0  0  0
 69 70  1  0  0  0
 69181  1  0  0  0
 70 71  1  0  0  0
 70 73  1  0  0  0
 70182  1  0  0  0
 71 72  2  0  0  0
 71 77  1  0  0  0
 73 74  1  0  0  0
 73183  1  0  0  0
 73184  1  0  0  0
 74 75  1  0  0  0
 74 76  1  0  0  0
 74185  1  0  0  0
 75186  1  0  0  0
 75187  1  0  0  0
 75188  1  0  0  0
 76189  1  0  0  0
 76190  1  0  0  0
 76191  1  0  0  0
 77 78  1  0  0  0
 77192  1  0  0  0
 78 79  1  0  0  0
 78 81  1  0  0  0
 78193  1  0  0  0
 79 80  2  0  0  0
 79 86  1  0  0  0
 81 82  1  0  0  0
 81194  1  0  0  0
 81195  1  0  0  0
 82 83  1  0  0  0
 82196  1  0  0  0
 82197  1  0  0  0
 83 84  1  0  0  0
 83198  1  0  0  0
 83199  1  0  0  0
 84 85  1  0  0  0
 84200  1  0  0  0
 84201  1  0  0  0
 85202  1  0  0  0
 85203  1  0  0  0
 85204  1  0  0  0
 86 87  1  0  0  0
 86205  1  0  0  0
 87 88  1  0  0  0
 87 90  1  0  0  0
 87206  1  0  0  0
 88 89  2  0  0  0
 88 94  1  0  0  0
 90 91  1  0  0  0
 90207  1  0  0  0
 90208  1  0  0  0
 91 92  1  0  0  0
 91 93  1  0  0  0
 91209  1  0  0  0
 92210  1  0  0  0
 92211  1  0  0  0
 92212  1  0  0  0
 93213  1  0  0  0
 93214  1  0  0  0
 93215  1  0  0  0
 94 95  1  0  0  0
 94216  1  0  0  0
 95 96  1  0  0  0
 95 98  1  0  0  0
 95217  1  0  0  0
 96 97  2  0  0  0
 96 99  1  0  0  0
 98218  1  0  0  0
 98219  1  0  0  0
 98220  1  0  0  0
 99100  1  0  0  0
 99221  1  0  0  0
100101  1  0  0  0
100103  1  0  0  0
100222  1  0  0  0
101102  2  0  0  0
101106  1  0  0  0
103104  1  0  0  0
103105  1  0  0  0
103223  1  0  0  0
104224  1  0  0  0
105225  1  0  0  0
105226  1  0  0  0
105227  1  0  0  0
106228  1  0  0  0
M  CHG  4   1   1  16   1  44   1  85   1
M  END
> <s_m_source_file>
../1jwu_ligand.sdf

> <i_m_source_file_index>
1

> <s_epik_input>
W0NIMl0xW0NIMl1bQ0gyXVtOSDIrXVtDQEBIXTFDKD1PKVtOSF1bQ0BASF0oW0NIMl1bQ0gyXVtDSDJdW0NIMl1bTkgzK10pQyg9TylbTkhdW0NAQEhdKFtDSDJdYzJbY0hdW2NIXWMoW09IXSlbY0hdW2NIXTIpQyg9TylbTkhdW0NAQEhdKFtDSF0oW0NIM10pW0NIM10pQyg9TylbTkhdW0NAQEhdKFtDSDJdW0NIMl1bQ0gyXVtDSDJdW05IMytdKUMoPU8pW05IXVtDQEBIXShbQ0gyXVtDSDJdQyg9TylbTkgyXSlDKD1PKVtOSF1bQ0BASF0oW0NIMl1DKD1PKVtOSDJdKUMoPU8pW05IXVtDQEBIXShbQ0BIXShbT0hdKVtDSDNdKUMoPU8pW05IXVtDQEBIXShbQ0gyXVtDSF0oW0NIM10pW0NIM10pQyg9TylbTkhdW0NAQEhdKFtDSDJdW0NIMl1bQ0gyXVtDSDJdW05IMytdKUMoPU8pW05IXVtDQEBIXShbQ0gyXVtDSF0oW0NIM10pW0NIM10pQyg9TylbTkhdW0NAQEhdKFtDSDNdKUMoPU8pW05IXVtDQEhdKEMoPU8pW09IXSlbQ0BIXShbT0hdKVtDSDNd

> <s_epik_cmdline>
J2VwaWtfYXBwJywgJy1pbWFlJywgJ2xpZ2FuZF9wcm8ubWFlJywgJy1vbWFlJywgJ2xpZ2FuZF9wcmVwLm1hZScsICctbXMnLCAnMScsICctcGgnLCAnNycsICctcGh0JywgJzAuNScsICctbnQn

> <s_epik_pKa_notes>
Molecule size exceeds maximum supported for generating protonation states

$$$$
