1jyc_ligand
                    3D
 Schrodinger Suite 2020-3.
233238  0  0  1  0            999 V2000
   60.8100   21.4450  127.5200 N   0  3  0  0  0  0
   61.5100   22.7130  127.1340 C   0  0  2  0  0  0
   62.7600   22.4960  126.2860 C   0  0  0  0  0  0
   63.8390   22.2980  126.8660 O   0  0  0  0  0  0
   61.9100   23.5030  128.4050 C   0  0  0  0  0  0
   62.4970   22.6460  129.5530 C   0  0  0  0  0  0
   62.9900   23.5150  130.7110 C   0  0  0  0  0  0
   62.0020   24.5310  131.0740 N   0  0  0  0  0  0
   62.2190   25.5240  131.9350 C   0  0  0  0  0  0
   63.4010   25.6450  132.5340 N   0  0  0  0  0  0
   61.2520   26.4020  132.1930 N   0  0  0  0  0  0
   62.6360   22.5090  124.9490 N   0  0  0  0  0  0
   63.8240   22.3730  124.1180 C   0  0  2  0  0  0
   64.4960   23.6290  124.6260 C   0  0  0  0  0  0
   64.0080   24.7540  124.3980 O   0  0  0  0  0  0
   63.5850   22.5320  122.5890 C   0  0  0  0  0  0
   64.9130   22.3770  121.8500 C   0  0  0  0  0  0
   62.5820   21.5020  122.0860 C   0  0  0  0  0  0
   65.5300   23.4270  125.4190 N   0  0  0  0  0  0
   66.2900   24.5570  125.9250 C   0  0  2  0  0  0
   66.7420   25.3200  124.6910 C   0  0  0  0  0  0
   65.9220   26.0900  124.1240 O   0  0  0  0  0  0
   67.5260   24.0610  126.6720 C   0  0  0  0  0  0
   67.8220   24.6430  128.0120 C   0  0  0  0  0  0
   67.6310   24.0440  129.2200 C   0  0  0  0  0  0
   68.3310   25.9420  128.2860 C   0  0  0  0  0  0
   68.0000   24.8870  130.2410 N   0  0  0  0  0  0
   68.4470   26.0650  129.6900 C   0  0  0  0  0  0
   68.7390   27.0090  127.4850 C   0  0  0  0  0  0
   68.9000   27.2410  130.3100 C   0  0  0  0  0  0
   69.1910   28.1570  128.0930 C   0  0  0  0  0  0
   69.2860   28.2650  129.4900 C   0  0  0  0  0  0
   68.0250   25.2020  124.2580 N   0  0  0  0  0  0
   68.5280   25.9200  123.0480 C   0  0  2  0  0  0
   70.0150   26.3290  123.0950 C   0  0  0  0  0  0
   70.6420   26.4740  124.1400 O   0  0  0  0  0  0
   67.7960   27.2450  122.8250 C   0  0  0  0  0  0
   68.2840   28.2060  123.8640 C   0  0  0  0  0  0
   67.5990   28.2730  125.0600 C   0  0  0  0  0  0
   69.4100   29.0080  123.6740 C   0  0  0  0  0  0
   68.0530   29.0630  126.0660 C   0  0  0  0  0  0
   69.8920   29.7890  124.6970 C   0  0  0  0  0  0
   69.2040   29.8050  125.8830 C   0  0  0  0  0  0
   69.6770   30.5710  126.9340 O   0  0  0  0  0  0
   70.5090   26.4880  121.8940 N   0  0  0  0  0  0
   71.8760   26.8250  121.5120 C   0  0  2  0  0  0
   72.1930   28.2920  121.5720 C   0  0  0  0  0  0
   72.7140   28.7870  122.5740 O   0  0  0  0  0  0
   71.9810   26.3090  120.0720 C   0  0  0  0  0  0
   70.6200   25.7990  119.7350 C   0  0  0  0  0  0
   69.6660   26.4140  120.6980 C   0  0  0  0  0  0
   71.8790   28.9820  120.4850 N   0  0  0  0  0  0
   72.1520   30.3880  120.3390 C   0  0  2  0  0  0
   71.6590   31.4090  121.3460 C   0  0  0  0  0  0
   70.8530   32.2990  121.0600 O   0  0  0  0  0  0
   71.8770   30.8100  118.8890 C   0  0  0  0  0  0
   73.1700   30.6170  118.2010 C   0  0  0  0  0  0
   73.4600   29.4350  117.5120 C   0  0  0  0  0  0
   74.2180   31.4670  118.5220 C   0  0  0  0  0  0
   74.7690   29.1210  117.1700 C   0  0  0  0  0  0
   75.5060   31.1580  118.2080 C   0  0  0  0  0  0
   75.7940   29.9810  117.5350 C   0  0  0  0  0  0
   77.1080   29.6970  117.2290 O   0  0  0  0  0  0
   72.2330   31.2620  122.5370 N   0  0  0  0  0  0
   71.9710   32.1020  123.6850 C   0  0  0  0  0  0
   73.2650   32.0520  124.5030 C   0  0  0  0  0  0
   73.7310   30.9800  124.8540 O   0  0  0  0  0  0
   73.8300   33.1940  124.8500 N   0  0  0  0  0  0
   75.1210   33.2570  125.5720 C   0  0  2  0  0  0
   75.1820   32.4680  126.9310 C   0  0  0  0  0  0
   74.4040   31.5190  127.1100 O   0  0  0  0  0  0
   75.5030   34.7260  125.8170 C   0  0  0  0  0  0
   76.9100   34.8780  125.9060 O   0  0  0  0  0  0
   76.1300   32.8400  127.8540 N   0  0  0  0  0  0
   76.3500   32.1500  129.1560 C   0  0  2  0  0  0
   76.3730   33.0830  130.3730 C   0  0  0  0  0  0
   75.9670   34.2350  130.2540 O   0  0  0  0  0  0
   77.6710   31.3990  129.1130 C   0  0  0  0  0  0
   78.8170   32.0950  128.4070 C   0  0  0  0  0  0
   80.0960   32.1910  128.9990 C   0  0  0  0  0  0
   78.6690   32.6520  127.1450 C   0  0  0  0  0  0
   81.1710   32.7640  128.3200 C   0  0  0  0  0  0
   79.7320   33.2230  126.4670 C   0  0  0  0  0  0
   80.9930   33.2620  127.0570 C   0  0  0  0  0  0
   82.0550   33.8000  126.3840 O   0  0  0  0  0  0
   76.7600   32.5690  131.5450 N   0  0  0  0  0  0
   76.8390   33.3480  132.7880 C   0  0  2  0  0  0
   75.6730   33.1340  133.7630 C   0  0  0  0  0  0
   75.5660   32.0430  134.3130 O   0  0  0  0  0  0
   77.1140   34.8080  132.4700 C   0  0  0  0  0  0
   78.5670   35.2370  132.6910 C   0  0  0  0  0  0
   79.3250   35.2780  131.3760 C   0  0  0  0  0  0
   78.6390   36.5800  133.4080 C   0  0  0  0  0  0
   74.8330   34.0980  134.0070 N   0  0  0  0  0  0
   73.8050   33.8490  135.0050 C   0  0  2  0  0  0
   72.4510   33.4610  134.4290 C   0  0  0  0  0  0
   71.8780   34.1390  133.5800 O   0  0  0  0  0  0
   73.7520   35.0910  135.9600 C   0  0  2  0  0  0
   72.4990   35.0290  136.6440 O   0  0  0  0  0  0
   73.8660   36.4250  135.2480 C   0  0  0  0  0  0
   71.9010   32.3730  134.9810 N   0  0  0  0  0  0
   70.6120   31.8930  134.4770 C   0  0  2  0  0  0
   69.5380   31.4360  135.4930 C   0  0  0  0  0  0
   69.6100   31.7140  136.6970 O   0  0  0  0  0  0
   70.8310   30.7930  133.4770 C   0  0  0  0  0  0
   68.5350   30.7140  134.9830 N   0  0  0  0  0  0
   67.3950   30.2410  135.7720 C   0  0  2  0  0  0
   66.5780   29.1880  134.9870 C   0  0  0  0  0  0
   66.2710   29.4000  133.8120 O   0  0  0  0  0  0
   66.5140   31.4610  136.1180 C   0  0  0  0  0  0
   66.8200   32.6040  135.2990 O   0  0  0  0  0  0
   66.2240   28.0670  135.6230 N   0  0  0  0  0  0
   65.4350   27.0520  134.9240 C   0  0  0  0  0  0
   65.2730   25.6960  135.6010 C   0  0  0  0  0  0
   65.5950   25.5370  136.7880 O   0  0  0  0  0  0
   64.7720   24.7160  134.8430 N   0  0  0  0  0  0
   64.5570   23.3610  135.3670 C   0  0  2  0  0  0
   64.0310   22.3610  134.3210 C   0  0  0  0  0  0
   64.6440   21.2730  134.2080 O   0  0  0  0  0  0
   63.5870   23.4180  136.5620 C   0  0  0  0  0  0
   63.5020   22.1830  137.2620 O   0  0  0  0  0  0
   63.0130   22.6620  133.6470 O   0  0  0  0  0  0
   60.5294   20.8902  126.6125 H   0  0  0  0  0  0
   59.9049   21.6867  128.0965 H   0  0  0  0  0  0
   61.4820   20.8276  128.1342 H   0  0  0  0  0  0
   60.7784   23.2483  126.5109 H   0  0  0  0  0  0
   62.6757   24.2494  128.1470 H   0  0  0  0  0  0
   61.0249   24.0122  128.8140 H   0  0  0  0  0  0
   61.7221   21.9656  129.9358 H   0  0  0  0  0  0
   63.3464   22.0584  129.1745 H   0  0  0  0  0  0
   63.1786   22.8816  131.5903 H   0  0  0  0  0  0
   63.9210   24.0224  130.4182 H   0  0  0  0  0  0
   60.9979   24.5068  130.6255 H   0  0  0  0  0  0
   64.2015   24.9208  132.3224 H   0  0  0  0  0  0
   60.2740   26.3040  131.6991 H   0  0  0  0  0  0
   61.4310   27.2254  132.9001 H   0  0  0  0  0  0
   61.6471   22.6212  124.4806 H   0  0  0  0  0  0
   64.3026   21.3899  124.2384 H   0  0  0  0  0  0
   63.1674   23.5272  122.3765 H   0  0  0  0  0  0
   65.6287   23.1253  122.2213 H   0  0  0  0  0  0
   64.7524   22.5264  120.7721 H   0  0  0  0  0  0
   65.3141   21.3677  122.0246 H   0  0  0  0  0  0
   61.6306   21.6231  122.6247 H   0  0  0  0  0  0
   62.9764   20.4902  122.2612 H   0  0  0  0  0  0
   62.4146   21.6488  121.0088 H   0  0  0  0  0  0
   65.8170   22.4022  125.6973 H   0  0  0  0  0  0
   65.6560   25.1466  126.6035 H   0  0  0  0  0  0
   67.4390   22.9784  126.8466 H   0  0  0  0  0  0
   68.4242   24.2644  126.0704 H   0  0  0  0  0  0
   67.2398   23.0360  129.3580 H   0  0  0  0  0  0
   68.7003   26.9343  126.3983 H   0  0  0  0  0  0
   68.9420   27.3332  131.3953 H   0  0  0  0  0  0
   69.4832   29.0054  127.4742 H   0  0  0  0  0  0
   69.6752   29.1834  129.9294 H   0  0  0  0  0  0
   68.7008   24.5508  124.8317 H   0  0  0  0  0  0
   68.3396   25.1604  122.2750 H   0  0  0  0  0  0
   68.0195   27.6221  121.8161 H   0  0  0  0  0  0
   66.7121   27.0866  122.9254 H   0  0  0  0  0  0
   66.6891   27.6888  125.1975 H   0  0  0  0  0  0
   69.9114   29.0151  122.7062 H   0  0  0  0  0  0
   67.5133   29.1117  127.0117 H   0  0  0  0  0  0
   70.7983   30.3808  124.5688 H   0  0  0  0  0  0
   69.1321   30.5903  127.8893 H   0  0  0  0  0  0
   72.5665   26.3763  122.2413 H   0  0  0  0  0  0
   72.2782   27.1339  119.4077 H   0  0  0  0  0  0
   72.7346   25.5092  120.0231 H   0  0  0  0  0  0
   70.3661   26.0854  118.7037 H   0  0  0  0  0  0
   70.6065   24.7028  119.8249 H   0  0  0  0  0  0
   68.7844   25.7909  120.9088 H   0  0  0  0  0  0
   69.3406   27.4261  120.4156 H   0  0  0  0  0  0
   71.3872   28.4298  119.6707 H   0  0  0  0  0  0
   73.2092   30.3504  120.6406 H   0  0  0  0  0  0
   71.0862   30.1734  118.4656 H   0  0  0  0  0  0
   71.5523   31.8608  118.8682 H   0  0  0  0  0  0
   72.6524   28.7549  117.2413 H   0  0  0  0  0  0
   74.0054   32.4036  119.0374 H   0  0  0  0  0  0
   74.9889   28.2064  116.6194 H   0  0  0  0  0  0
   76.3120   31.8371  118.4862 H   0  0  0  0  0  0
   77.3602   28.7688  116.6954 H   0  0  0  0  0  0
   72.9513   30.4326  122.6149 H   0  0  0  0  0  0
   71.7393   33.1229  123.3471 H   0  0  0  0  0  0
   71.1156   31.6988  124.2468 H   0  0  0  0  0  0
   73.3037   34.1221  124.5822 H   0  0  0  0  0  0
   75.8017   32.7617  124.8640 H   0  0  0  0  0  0
   75.1336   35.3444  124.9857 H   0  0  0  0  0  0
   75.0511   35.0702  126.7590 H   0  0  0  0  0  0
   77.3458   35.8729  126.0802 H   0  0  0  0  0  0
   76.7482   33.7076  127.5800 H   0  0  0  0  0  0
   75.4844   31.4784  129.2546 H   0  0  0  0  0  0
   78.0187   31.2097  130.1393 H   0  0  0  0  0  0
   77.5314   30.4411  128.5906 H   0  0  0  0  0  0
   80.2460   31.8088  130.0087 H   0  0  0  0  0  0
   77.6864   32.6396  126.6734 H   0  0  0  0  0  0
   82.1512   32.8153  128.7939 H   0  0  0  0  0  0
   79.5823   33.6419  125.4719 H   0  0  0  0  0  0
   83.0483   33.8276  126.8559 H   0  0  0  0  0  0
   77.0274   31.5020  131.5467 H   0  0  0  0  0  0
   77.7095   32.9289  133.3139 H   0  0  0  0  0  0
   76.8773   35.0041  131.4138 H   0  0  0  0  0  0
   76.4885   35.4470  133.1107 H   0  0  0  0  0  0
   79.0551   34.4887  133.3327 H   0  0  0  0  0  0
   79.2557   34.2975  130.8821 H   0  0  0  0  0  0
   80.3811   35.5176  131.5689 H   0  0  0  0  0  0
   78.8873   36.0486  130.7244 H   0  0  0  0  0  0
   78.0825   36.5204  134.3549 H   0  0  0  0  0  0
   78.1963   37.3599  132.7710 H   0  0  0  0  0  0
   79.6902   36.8289  133.6155 H   0  0  0  0  0  0
   74.8772   35.0698  133.4936 H   0  0  0  0  0  0
   74.1207   32.9301  135.5207 H   0  0  0  0  0  0
   74.5674   35.0685  136.6980 H   0  0  0  0  0  0
   72.2318   34.1321  137.2221 H   0  0  0  0  0  0
   74.8294   36.4775  134.7197 H   0  0  0  0  0  0
   73.8068   37.2399  135.9845 H   0  0  0  0  0  0
   73.0445   36.5252  134.5233 H   0  0  0  0  0  0
   72.4032   31.8406  135.8022 H   0  0  0  0  0  0
   70.2368   32.8242  134.0274 H   0  0  0  0  0  0
   71.5933   31.1062  132.7485 H   0  0  0  0  0  0
   69.8876   30.5812  132.9525 H   0  0  0  0  0  0
   71.1724   29.8864  133.9981 H   0  0  0  0  0  0
   68.5972   30.4783  133.9104 H   0  0  0  0  0  0
   67.8061   29.7695  136.6768 H   0  0  0  0  0  0
   65.4555   31.2044  135.9638 H   0  0  0  0  0  0
   66.6736   31.7422  137.1694 H   0  0  0  0  0  0
   66.2668   33.5445  135.4385 H   0  0  0  0  0  0
   66.5241   27.9063  136.6690 H   0  0  0  0  0  0
   64.4113   27.4244  134.7712 H   0  0  0  0  0  0
   65.8961   26.8364  133.9489 H   0  0  0  0  0  0
   64.5186   24.9482  133.7981 H   0  0  0  0  0  0
   65.5657   23.0366  135.6623 H   0  0  0  0  0  0
   63.9266   24.1849  137.2737 H   0  0  0  0  0  0
   62.5783   23.6713  136.2037 H   0  0  0  0  0  0
   62.8423   22.0913  138.1374 H   0  0  0  0  0  0
   62.6235   21.9595  132.8954 H   0  0  0  0  0  0
  1  2  1  0  0  0
  1123  1  0  0  0
  1124  1  0  0  0
  1125  1  0  0  0
  2  3  1  0  0  0
  2  5  1  0  0  0
  2126  1  0  0  0
  3  4  2  0  0  0
  3 12  1  0  0  0
  5  6  1  0  0  0
  5127  1  0  0  0
  5128  1  0  0  0
  6  7  1  0  0  0
  6129  1  0  0  0
  6130  1  0  0  0
  7  8  1  0  0  0
  7131  1  0  0  0
  7132  1  0  0  0
  8  9  1  0  0  0
  8133  1  0  0  0
  9 10  2  0  0  0
  9 11  1  0  0  0
 10134  1  0  0  0
 11135  1  0  0  0
 11136  1  0  0  0
 12 13  1  0  0  0
 12137  1  0  0  0
 13 14  1  0  0  0
 13 16  1  0  0  0
 13138  1  0  0  0
 14 15  2  0  0  0
 14 19  1  0  0  0
 16 17  1  0  0  0
 16 18  1  0  0  0
 16139  1  0  0  0
 17140  1  0  0  0
 17141  1  0  0  0
 17142  1  0  0  0
 18143  1  0  0  0
 18144  1  0  0  0
 18145  1  0  0  0
 19 20  1  0  0  0
 19146  1  0  0  0
 20 21  1  0  0  0
 20 23  1  0  0  0
 20147  1  0  0  0
 21 22  2  0  0  0
 21 33  1  0  0  0
 23 24  1  0  0  0
 23148  1  0  0  0
 23149  1  0  0  0
 24 25  2  0  0  0
 24 26  1  0  0  0
 25 27  1  0  0  0
 25150  1  0  0  0
 26 28  2  0  0  0
 26 29  1  0  0  0
 27 28  1  0  0  0
 28 30  1  0  0  0
 29 31  2  0  0  0
 29151  1  0  0  0
 30 32  2  0  0  0
 30152  1  0  0  0
 31 32  1  0  0  0
 31153  1  0  0  0
 32154  1  0  0  0
 33 34  1  0  0  0
 33155  1  0  0  0
 34 35  1  0  0  0
 34 37  1  0  0  0
 34156  1  0  0  0
 35 36  2  0  0  0
 35 45  1  0  0  0
 37 38  1  0  0  0
 37157  1  0  0  0
 37158  1  0  0  0
 38 39  2  0  0  0
 38 40  1  0  0  0
 39 41  1  0  0  0
 39159  1  0  0  0
 40 42  2  0  0  0
 40160  1  0  0  0
 41 43  2  0  0  0
 41161  1  0  0  0
 42 43  1  0  0  0
 42162  1  0  0  0
 43 44  1  0  0  0
 44163  1  0  0  0
 45 46  1  0  0  0
 45 51  1  0  0  0
 46 47  1  0  0  0
 46 49  1  0  0  0
 46164  1  0  0  0
 47 48  2  0  0  0
 47 52  1  0  0  0
 49 50  1  0  0  0
 49165  1  0  0  0
 49166  1  0  0  0
 50 51  1  0  0  0
 50167  1  0  0  0
 50168  1  0  0  0
 51169  1  0  0  0
 51170  1  0  0  0
 52 53  1  0  0  0
 52171  1  0  0  0
 53 54  1  0  0  0
 53 56  1  0  0  0
 53172  1  0  0  0
 54 55  2  0  0  0
 54 64  1  0  0  0
 56 57  1  0  0  0
 56173  1  0  0  0
 56174  1  0  0  0
 57 58  2  0  0  0
 57 59  1  0  0  0
 58 60  1  0  0  0
 58175  1  0  0  0
 59 61  2  0  0  0
 59176  1  0  0  0
 60 62  2  0  0  0
 60177  1  0  0  0
 61 62  1  0  0  0
 61178  1  0  0  0
 62 63  1  0  0  0
 63179  1  0  0  0
 64 65  1  0  0  0
 64180  1  0  0  0
 65 66  1  0  0  0
 65181  1  0  0  0
 65182  1  0  0  0
 66 67  2  0  0  0
 66 68  1  0  0  0
 68 69  1  0  0  0
 68183  1  0  0  0
 69 70  1  0  0  0
 69 72  1  0  0  0
 69184  1  0  0  0
 70 71  2  0  0  0
 70 74  1  0  0  0
 72 73  1  0  0  0
 72185  1  0  0  0
 72186  1  0  0  0
 73187  1  0  0  0
 74 75  1  0  0  0
 74188  1  0  0  0
 75 76  1  0  0  0
 75 78  1  0  0  0
 75189  1  0  0  0
 76 77  2  0  0  0
 76 86  1  0  0  0
 78 79  1  0  0  0
 78190  1  0  0  0
 78191  1  0  0  0
 79 80  2  0  0  0
 79 81  1  0  0  0
 80 82  1  0  0  0
 80192  1  0  0  0
 81 83  2  0  0  0
 81193  1  0  0  0
 82 84  2  0  0  0
 82194  1  0  0  0
 83 84  1  0  0  0
 83195  1  0  0  0
 84 85  1  0  0  0
 85196  1  0  0  0
 86 87  1  0  0  0
 86197  1  0  0  0
 87 88  1  0  0  0
 87 90  1  0  0  0
 87198  1  0  0  0
 88 89  2  0  0  0
 88 94  1  0  0  0
 90 91  1  0  0  0
 90199  1  0  0  0
 90200  1  0  0  0
 91 92  1  0  0  0
 91 93  1  0  0  0
 91201  1  0  0  0
 92202  1  0  0  0
 92203  1  0  0  0
 92204  1  0  0  0
 93205  1  0  0  0
 93206  1  0  0  0
 93207  1  0  0  0
 94 95  1  0  0  0
 94208  1  0  0  0
 95 96  1  0  0  0
 95 98  1  0  0  0
 95209  1  0  0  0
 96 97  2  0  0  0
 96101  1  0  0  0
 98 99  1  0  0  0
 98100  1  0  0  0
 98210  1  0  0  0
 99211  1  0  0  0
100212  1  0  0  0
100213  1  0  0  0
100214  1  0  0  0
101102  1  0  0  0
101215  1  0  0  0
102103  1  0  0  0
102105  1  0  0  0
102216  1  0  0  0
103104  2  0  0  0
103106  1  0  0  0
105217  1  0  0  0
105218  1  0  0  0
105219  1  0  0  0
106107  1  0  0  0
106220  1  0  0  0
107108  1  0  0  0
107110  1  0  0  0
107221  1  0  0  0
108109  2  0  0  0
108112  1  0  0  0
110111  1  0  0  0
110222  1  0  0  0
110223  1  0  0  0
111224  1  0  0  0
112113  1  0  0  0
112225  1  0  0  0
113114  1  0  0  0
113226  1  0  0  0
113227  1  0  0  0
114115  2  0  0  0
114116  1  0  0  0
116117  1  0  0  0
116228  1  0  0  0
117118  1  0  0  0
117120  1  0  0  0
117229  1  0  0  0
118119  2  0  0  0
118122  1  0  0  0
120121  1  0  0  0
120230  1  0  0  0
120231  1  0  0  0
121232  1  0  0  0
122233  1  0  0  0
M  CHG  1   1   1
M  END
> <s_m_source_file>
../1jyc_ligand.sdf

> <i_m_source_file_index>
1

> <s_epik_input>
W0hdL049QyhbTkgyXSlcW05IXVtDSDJdW0NIMl1bQ0gyXVtDQEhdKFtOSDMrXSlDKD1PKVtOSF1bQ0BASF0oW0NIXShbQ0gzXSlbQ0gzXSlDKD1PKVtOSF1bQ0BASF0oW0NIMl1jMVtjSF1bbkhdYyhjMTIpW2NIXVtjSF1bY0hdW2NIXTIpQyg9TylbTkhdW0NAQEhdKFtDSDJdYzNbY0hdW2NIXWMoW09IXSlbY0hdW2NIXTMpQyg9TylONFtDQEBIXShbQ0gyXVtDSDJdW0NIMl00KUMoPU8pW05IXVtDQEBIXShbQ0gyXWM1W2NIXVtjSF1jKFtPSF0pW2NIXVtjSF01KUMoPU8pW05IXVtDSDJdQyg9TylbTkhdW0NAQEhdKFtDSDJdW09IXSlDKD1PKVtOSF1bQ0BASF0oW0NIMl1jNltjSF1bY0hdYyhbT0hdKVtjSF1bY0hdNilDKD1PKVtOSF1bQ0BASF0oW0NIMl1bQ0hdKFtDSDNdKVtDSDNdKUMoPU8pW05IXVtDQEBIXShbQ0BIXShbT0hdKVtDSDNdKUMoPU8pW05IXVtDQEBIXShbQ0gzXSlDKD1PKVtOSF1bQ0BASF0oW0NIMl1bT0hdKUMoPU8pW05IXVtDSDJdQyg9TylbTkhdW0NASF0oQyg9TylbT0hdKVtDSDJdW09IXQ==

> <s_epik_cmdline>
J2VwaWtfYXBwJywgJy1pbWFlJywgJ2xpZ2FuZF9wcm8ubWFlJywgJy1vbWFlJywgJ2xpZ2FuZF9wcmVwLm1hZScsICctbXMnLCAnMScsICctcGgnLCAnNycsICctcGh0JywgJzAuNScsICctbnQn

> <s_epik_pKa_notes>
Molecule size exceeds maximum supported for generating protonation states

> <s_epik_Chemistry_Notes>
This compound has an imine and may undergo hydrolysis.

$$$$
