1jyi_ligand
                    3D
 Schrodinger Suite 2020-3.
183188  0  0  1  0            999 V2000
   57.1440   24.4590  125.3390 N   0  3  0  0  0  0
   57.0060   23.5990  124.1270 C   0  0  2  0  0  0
   58.3890   23.3350  123.5270 C   0  0  0  0  0  0
   58.5800   22.3780  122.7730 O   0  0  0  0  0  0
   56.0970   24.2920  123.0980 C   0  0  0  0  0  0
   55.6380   23.3550  121.9870 C   0  0  0  0  0  0
   55.0780   22.2840  122.3040 O   0  0  0  0  0  0
   55.8240   23.6920  120.7960 O   0  0  0  0  0  0
   59.3500   24.1890  123.8750 N   0  0  0  0  0  0
   60.7250   24.0680  123.3880 C   0  0  2  0  0  0
   61.7320   24.3680  124.5070 C   0  0  0  0  0  0
   61.4970   25.2380  125.3480 O   0  0  0  0  0  0
   60.9750   25.0220  122.1830 C   0  0  0  0  0  0
   62.4500   25.0800  121.8510 C   0  0  0  0  0  0
   60.2090   24.5280  120.9670 C   0  0  0  0  0  0
   62.8480   23.6370  124.5050 N   0  0  0  0  0  0
   63.8930   23.7890  125.5230 C   0  0  2  0  0  0
   65.3010   24.0840  124.9830 C   0  0  0  0  0  0
   65.8420   23.3220  124.1760 O   0  0  0  0  0  0
   63.9500   22.5280  126.3950 C   0  0  0  0  0  0
   62.8610   22.4480  127.4290 C   0  0  0  0  0  0
   62.6110   21.2540  128.0980 C   0  0  0  0  0  0
   62.1030   23.5700  127.7570 C   0  0  0  0  0  0
   61.6230   21.1780  129.0790 C   0  0  0  0  0  0
   61.1140   23.5050  128.7350 C   0  0  0  0  0  0
   60.8730   22.3070  129.3980 C   0  0  0  0  0  0
   65.8790   25.1890  125.4600 N   0  0  0  0  0  0
   67.2220   25.6670  125.0950 C   0  0  2  0  0  0
   67.8440   25.1170  123.8090 C   0  0  0  0  0  0
   69.0080   24.7110  123.8210 O   0  0  0  0  0  0
   68.2370   25.3980  126.2200 C   0  0  0  0  0  0
   67.7010   25.2920  127.6340 C   0  0  0  0  0  0
   66.7350   24.3400  127.9680 C   0  0  0  0  0  0
   68.2310   26.0770  128.6570 C   0  0  0  0  0  0
   66.3150   24.1700  129.2840 C   0  0  0  0  0  0
   67.8190   25.9150  129.9770 C   0  0  0  0  0  0
   66.8630   24.9570  130.2840 C   0  0  0  0  0  0
   66.4620   24.7730  131.5870 O   0  0  0  0  0  0
   67.0980   25.0970  122.6880 N   0  0  0  0  0  0
   67.6510   24.5840  121.4350 C   0  0  2  0  0  0
   69.1490   24.7940  121.2970 C   0  0  0  0  0  0
   69.8850   23.8460  121.0360 O   0  0  0  0  0  0
   66.8320   25.3310  120.4040 C   0  0  0  0  0  0
   65.4870   25.1880  120.9930 C   0  0  0  0  0  0
   65.7240   25.5700  122.4590 C   0  0  0  0  0  0
   69.6060   26.0270  121.4770 N   0  0  0  0  0  0
   71.0340   26.2900  121.4080 C   0  0  2  0  0  0
   71.4440   27.4710  122.2830 C   0  0  0  0  0  0
   72.2490   27.3130  123.2040 O   0  0  0  0  0  0
   71.4870   26.5280  119.9660 C   0  0  0  0  0  0
   72.9720   26.3060  119.7570 C   0  0  0  0  0  0
   73.9110   26.7750  120.6840 C   0  0  0  0  0  0
   73.4440   25.6570  118.6170 C   0  0  0  0  0  0
   75.2820   26.6060  120.4780 C   0  0  0  0  0  0
   74.8160   25.4840  118.3980 C   0  0  0  0  0  0
   75.7270   25.9610  119.3310 C   0  0  0  0  0  0
   77.0760   25.7970  119.1070 O   0  0  0  0  0  0
   70.8980   28.6710  122.0120 N   0  0  0  0  0  0
   71.2540   29.8440  122.8170 C   0  0  2  0  0  0
   71.0550   29.6430  124.3240 C   0  0  0  0  0  0
   69.9930   29.2000  124.7750 O   0  0  0  0  0  0
   70.3510   30.9350  122.2500 C   0  0  0  0  0  0
   70.2050   30.5380  120.8230 C   0  0  0  0  0  0
   69.9670   29.0490  120.9330 C   0  0  0  0  0  0
   72.0980   29.9720  125.0830 N   0  0  0  0  0  0
   72.1150   29.8520  126.5410 C   0  0  2  0  0  0
   70.9040   30.4680  127.2420 C   0  0  0  0  0  0
   70.7860   31.6920  127.3470 O   0  0  0  0  0  0
   73.4030   30.4830  127.0970 C   0  0  0  0  0  0
   74.1380   31.3600  126.0990 C   0  0  0  0  0  0
   73.4850   32.4100  125.4450 C   0  0  0  0  0  0
   75.4790   31.1280  125.7930 C   0  0  0  0  0  0
   74.1460   33.2020  124.5110 C   0  0  0  0  0  0
   76.1500   31.9150  124.8610 C   0  0  0  0  0  0
   75.4770   32.9480  124.2240 C   0  0  0  0  0  0
   76.1340   33.7270  123.3020 O   0  0  0  0  0  0
   70.0070   29.6090  127.7230 N   0  0  0  0  0  0
   68.8160   30.0620  128.4330 C   0  0  2  0  0  0
   69.1020   30.0180  129.9350 C   0  0  0  0  0  0
   69.1260   28.9430  130.5370 O   0  0  0  0  0  0
   67.6200   29.1700  128.0870 C   0  0  0  0  0  0
   69.3230   31.1930  130.5250 N   0  0  0  0  0  0
   69.6310   31.3200  131.9530 C   0  0  2  0  0  0
   68.4470   30.9880  132.8610 C   0  0  0  0  0  0
   67.5400   31.8040  133.0470 O   0  0  0  0  0  0
   70.1250   32.7400  132.2600 C   0  0  0  0  0  0
   70.4840   32.8750  133.6260 O   0  0  0  0  0  0
   68.4760   29.7880  133.4350 N   0  0  0  0  0  0
   67.4060   29.3520  134.3140 C   0  0  0  0  0  0
   66.7920   28.0470  133.8450 C   0  0  0  0  0  0
   67.3130   26.9660  134.1290 O   0  0  0  0  0  0
   65.6800   28.1440  133.1180 N   0  0  0  0  0  0
   64.9920   26.9620  132.6040 C   0  0  2  0  0  0
   64.5590   27.1400  131.1480 C   0  0  0  0  0  0
   64.9260   28.1700  130.5390 O   0  0  0  0  0  0
   63.7730   26.6360  133.4760 C   0  0  0  0  0  0
   64.1670   26.2600  134.7860 O   0  0  0  0  0  0
   63.8630   26.2400  130.6320 O   0  0  0  0  0  0
   57.7948   23.9588  126.0713 H   0  0  0  0  0  0
   56.1523   24.6269  125.7843 H   0  0  0  0  0  0
   57.5866   25.4250  125.0546 H   0  0  0  0  0  0
   56.5532   22.6452  124.4356 H   0  0  0  0  0  0
   55.1994   24.6782  123.6031 H   0  0  0  0  0  0
   56.6416   25.1254  122.6301 H   0  0  0  0  0  0
   55.4999   23.0295  119.9799 H   0  0  0  0  0  0
   59.0777   25.0093  124.5555 H   0  0  0  0  0  0
   60.8153   23.0156  123.0811 H   0  0  0  0  0  0
   60.6392   26.0390  122.4340 H   0  0  0  0  0  0
   63.0095   25.4371  122.7282 H   0  0  0  0  0  0
   62.6094   25.7694  121.0088 H   0  0  0  0  0  0
   62.8034   24.0756  121.5747 H   0  0  0  0  0  0
   59.1355   24.4839  121.2029 H   0  0  0  0  0  0
   60.5655   23.5244  120.6919 H   0  0  0  0  0  0
   60.3715   25.2182  120.1260 H   0  0  0  0  0  0
   62.9683   22.8977  123.6994 H   0  0  0  0  0  0
   63.5576   24.6819  126.0709 H   0  0  0  0  0  0
   63.8573   21.6366  125.7571 H   0  0  0  0  0  0
   64.9096   22.4965  126.9319 H   0  0  0  0  0  0
   63.1948   20.3669  127.8522 H   0  0  0  0  0  0
   62.2868   24.5122  127.2406 H   0  0  0  0  0  0
   61.4380   20.2361  129.5954 H   0  0  0  0  0  0
   60.5297   24.3919  128.9804 H   0  0  0  0  0  0
   60.1000   22.2517  130.1645 H   0  0  0  0  0  0
   65.2697   25.7566  126.1787 H   0  0  0  0  0  0
   66.9816   26.7274  124.9282 H   0  0  0  0  0  0
   68.7498   24.4434  126.0306 H   0  0  0  0  0  0
   68.9764   26.2119  126.2491 H   0  0  0  0  0  0
   66.3022   23.7189  127.1837 H   0  0  0  0  0  0
   68.9813   26.8310  128.4191 H   0  0  0  0  0  0
   65.5597   23.4224  129.5264 H   0  0  0  0  0  0
   68.2447   26.5368  130.7645 H   0  0  0  0  0  0
   65.7040   24.0128  131.8271 H   0  0  0  0  0  0
   67.5572   23.4898  121.3725 H   0  0  0  0  0  0
   67.1837   26.3713  120.3400 H   0  0  0  0  0  0
   66.9448   24.8448  119.4237 H   0  0  0  0  0  0
   64.7890   25.8677  120.4823 H   0  0  0  0  0  0
   65.1424   24.1503  120.8727 H   0  0  0  0  0  0
   65.0397   25.0577  123.1513 H   0  0  0  0  0  0
   65.6761   26.6552  122.6322 H   0  0  0  0  0  0
   68.9043   26.8498  121.6784 H   0  0  0  0  0  0
   71.4845   25.3683  121.8050 H   0  0  0  0  0  0
   70.9525   25.8392  119.2953 H   0  0  0  0  0  0
   71.2645   27.5662  119.6784 H   0  0  0  0  0  0
   73.5649   27.2822  121.5846 H   0  0  0  0  0  0
   72.7326   25.2777  117.8835 H   0  0  0  0  0  0
   75.9974   26.9774  121.2117 H   0  0  0  0  0  0
   75.1674   24.9772  117.4992 H   0  0  0  0  0  0
   77.8049   26.1717  119.8407 H   0  0  0  0  0  0
   72.3294   30.0527  122.7174 H   0  0  0  0  0  0
   69.3925   30.9348  122.7897 H   0  0  0  0  0  0
   70.8389   31.9136  122.3695 H   0  0  0  0  0  0
   69.3567   31.0780  120.3771 H   0  0  0  0  0  0
   71.1266   30.7877  120.2768 H   0  0  0  0  0  0
   70.2275   28.5012  120.0154 H   0  0  0  0  0  0
   68.9386   28.7970  121.2310 H   0  0  0  0  0  0
   72.9829   30.3530  124.5521 H   0  0  0  0  0  0
   72.0673   28.7647  126.7009 H   0  0  0  0  0  0
   73.1578   31.1124  127.9652 H   0  0  0  0  0  0
   74.0975   29.6876  127.4052 H   0  0  0  0  0  0
   72.4380   32.6118  125.6714 H   0  0  0  0  0  0
   76.0102   30.3173  126.2917 H   0  0  0  0  0  0
   73.6209   34.0151  124.0097 H   0  0  0  0  0  0
   77.1980   31.7209  124.6329 H   0  0  0  0  0  0
   75.6026   34.5464  122.7958 H   0  0  0  0  0  0
   70.1823   28.5334  127.5733 H   0  0  0  0  0  0
   68.6079   31.0904  128.1028 H   0  0  0  0  0  0
   67.4303   29.2148  127.0044 H   0  0  0  0  0  0
   66.7306   29.5223  128.6300 H   0  0  0  0  0  0
   67.8402   28.1323  128.3781 H   0  0  0  0  0  0
   69.2663   32.0912  129.8926 H   0  0  0  0  0  0
   70.4142   30.5659  132.1201 H   0  0  0  0  0  0
   71.0072   32.9629  131.6420 H   0  0  0  0  0  0
   69.3271   33.4627  132.0341 H   0  0  0  0  0  0
   70.8585   33.8379  134.0037 H   0  0  0  0  0  0
   69.3286   29.1225  133.2343 H   0  0  0  0  0  0
   67.8031   29.2029  135.3289 H   0  0  0  0  0  0
   66.6163   30.1174  134.3380 H   0  0  0  0  0  0
   65.2814   29.1474  132.9075 H   0  0  0  0  0  0
   65.7412   26.1584  132.6584 H   0  0  0  0  0  0
   64.6294   28.3244  129.4910 H   0  0  0  0  0  0
   63.1240   27.5215  133.5447 H   0  0  0  0  0  0
   63.2117   25.8042  133.0254 H   0  0  0  0  0  0
   63.4058   25.9948  135.5345 H   0  0  0  0  0  0
  1  2  1  0  0  0
  1 99  1  0  0  0
  1100  1  0  0  0
  1101  1  0  0  0
  2  3  1  0  0  0
  2  5  1  0  0  0
  2102  1  0  0  0
  3  4  2  0  0  0
  3  9  1  0  0  0
  5  6  1  0  0  0
  5103  1  0  0  0
  5104  1  0  0  0
  6  7  2  0  0  0
  6  8  1  0  0  0
  8105  1  0  0  0
  9 10  1  0  0  0
  9106  1  0  0  0
 10 11  1  0  0  0
 10 13  1  0  0  0
 10107  1  0  0  0
 11 12  2  0  0  0
 11 16  1  0  0  0
 13 14  1  0  0  0
 13 15  1  0  0  0
 13108  1  0  0  0
 14109  1  0  0  0
 14110  1  0  0  0
 14111  1  0  0  0
 15112  1  0  0  0
 15113  1  0  0  0
 15114  1  0  0  0
 16 17  1  0  0  0
 16115  1  0  0  0
 17 18  1  0  0  0
 17 20  1  0  0  0
 17116  1  0  0  0
 18 19  2  0  0  0
 18 27  1  0  0  0
 20 21  1  0  0  0
 20117  1  0  0  0
 20118  1  0  0  0
 21 22  2  0  0  0
 21 23  1  0  0  0
 22 24  1  0  0  0
 22119  1  0  0  0
 23 25  2  0  0  0
 23120  1  0  0  0
 24 26  2  0  0  0
 24121  1  0  0  0
 25 26  1  0  0  0
 25122  1  0  0  0
 26123  1  0  0  0
 27 28  1  0  0  0
 27124  1  0  0  0
 28 29  1  0  0  0
 28 31  1  0  0  0
 28125  1  0  0  0
 29 30  2  0  0  0
 29 39  1  0  0  0
 31 32  1  0  0  0
 31126  1  0  0  0
 31127  1  0  0  0
 32 33  2  0  0  0
 32 34  1  0  0  0
 33 35  1  0  0  0
 33128  1  0  0  0
 34 36  2  0  0  0
 34129  1  0  0  0
 35 37  2  0  0  0
 35130  1  0  0  0
 36 37  1  0  0  0
 36131  1  0  0  0
 37 38  1  0  0  0
 38132  1  0  0  0
 39 40  1  0  0  0
 39 45  1  0  0  0
 40 41  1  0  0  0
 40 43  1  0  0  0
 40133  1  0  0  0
 41 42  2  0  0  0
 41 46  1  0  0  0
 43 44  1  0  0  0
 43134  1  0  0  0
 43135  1  0  0  0
 44 45  1  0  0  0
 44136  1  0  0  0
 44137  1  0  0  0
 45138  1  0  0  0
 45139  1  0  0  0
 46 47  1  0  0  0
 46140  1  0  0  0
 47 48  1  0  0  0
 47 50  1  0  0  0
 47141  1  0  0  0
 48 49  2  0  0  0
 48 58  1  0  0  0
 50 51  1  0  0  0
 50142  1  0  0  0
 50143  1  0  0  0
 51 52  2  0  0  0
 51 53  1  0  0  0
 52 54  1  0  0  0
 52144  1  0  0  0
 53 55  2  0  0  0
 53145  1  0  0  0
 54 56  2  0  0  0
 54146  1  0  0  0
 55 56  1  0  0  0
 55147  1  0  0  0
 56 57  1  0  0  0
 57148  1  0  0  0
 58 59  1  0  0  0
 58 64  1  0  0  0
 59 60  1  0  0  0
 59 62  1  0  0  0
 59149  1  0  0  0
 60 61  2  0  0  0
 60 65  1  0  0  0
 62 63  1  0  0  0
 62150  1  0  0  0
 62151  1  0  0  0
 63 64  1  0  0  0
 63152  1  0  0  0
 63153  1  0  0  0
 64154  1  0  0  0
 64155  1  0  0  0
 65 66  1  0  0  0
 65156  1  0  0  0
 66 67  1  0  0  0
 66 69  1  0  0  0
 66157  1  0  0  0
 67 68  2  0  0  0
 67 77  1  0  0  0
 69 70  1  0  0  0
 69158  1  0  0  0
 69159  1  0  0  0
 70 71  2  0  0  0
 70 72  1  0  0  0
 71 73  1  0  0  0
 71160  1  0  0  0
 72 74  2  0  0  0
 72161  1  0  0  0
 73 75  2  0  0  0
 73162  1  0  0  0
 74 75  1  0  0  0
 74163  1  0  0  0
 75 76  1  0  0  0
 76164  1  0  0  0
 77 78  1  0  0  0
 77165  1  0  0  0
 78 79  1  0  0  0
 78 81  1  0  0  0
 78166  1  0  0  0
 79 80  2  0  0  0
 79 82  1  0  0  0
 81167  1  0  0  0
 81168  1  0  0  0
 81169  1  0  0  0
 82 83  1  0  0  0
 82170  1  0  0  0
 83 84  1  0  0  0
 83 86  1  0  0  0
 83171  1  0  0  0
 84 85  2  0  0  0
 84 88  1  0  0  0
 86 87  1  0  0  0
 86172  1  0  0  0
 86173  1  0  0  0
 87174  1  0  0  0
 88 89  1  0  0  0
 88175  1  0  0  0
 89 90  1  0  0  0
 89176  1  0  0  0
 89177  1  0  0  0
 90 91  2  0  0  0
 90 92  1  0  0  0
 92 93  1  0  0  0
 92178  1  0  0  0
 93 94  1  0  0  0
 93 96  1  0  0  0
 93179  1  0  0  0
 94 95  1  0  0  0
 94 98  2  0  0  0
 95180  1  0  0  0
 96 97  1  0  0  0
 96181  1  0  0  0
 96182  1  0  0  0
 97183  1  0  0  0
M  CHG  1   1   1
M  END
> <s_m_source_file>
../1jyi_ligand.sdf

> <i_m_source_file_index>
1

> <s_epik_input>
Tz1DKFtPSF0pW0NIMl1bQ0BIXShbTkgzK10pQyg9TylbTkhdW0NAQEhdKFtDSF0oW0NIM10pW0NIM10pQyg9TylbTkhdW0NAQEhdKFtDSDJdYzFbY0hdW2NIXVtjSF1bY0hdW2NIXTEpQyg9TylbTkhdW0NAQEhdKFtDSDJdYzJbY0hdW2NIXWMoW09IXSlbY0hdW2NIXTIpQyg9TylOM1tDQEBIXShbQ0gyXVtDSDJdW0NIMl0zKUMoPU8pW05IXVtDQEBIXShbQ0gyXWM0W2NIXVtjSF1jKFtPSF0pW2NIXVtjSF00KUMoPU8pTjVbQ0BASF0oW0NIMl1bQ0gyXVtDSDJdNSlDKD1PKVtOSF1bQ0BASF0oW0NIMl1jNltjSF1bY0hdYyhbT0hdKVtjSF1bY0hdNilDKD1PKVtOSF1bQ0BASF0oW0NIM10pQyg9TylbTkhdW0NAQEhdKFtDSDJdW09IXSlDKD1PKVtOSF1bQ0gyXUMoPU8pW05IXVtDQEhdKEMoPU8pW09IXSlbQ0gyXVtPSF0=

> <s_epik_cmdline>
J2VwaWtfYXBwJywgJy1pbWFlJywgJ2xpZ2FuZF9wcm8ubWFlJywgJy1vbWFlJywgJ2xpZ2FuZF9wcmVwLm1hZScsICctbXMnLCAnMScsICctcGgnLCAnNycsICctcGh0JywgJzAuNScsICctbnQn

> <s_epik_pKa_notes>
Molecule size exceeds maximum supported for generating protonation states

$$$$
