1jys_ligand
                    3D
 Schrodinger Suite 2020-3.
 15 16  0  0  1  0            999 V2000
   -7.2690  -38.5160   -0.5560 N   0  3  0  0  0  0
   -7.1530  -37.9600   -1.7750 C   0  0  0  0  0  0
   -6.1740  -37.0530   -1.8720 N   0  0  0  0  0  0
   -5.6320  -37.0380   -0.6110 C   0  0  0  0  0  0
   -4.5680  -36.3110   -0.0170 C   0  0  0  0  0  0
   -3.8590  -35.4220   -0.7110 N   0  0  0  0  0  0
   -4.2920  -36.5620    1.3210 N   0  0  0  0  0  0
   -5.0260  -37.4710    2.0100 C   0  0  0  0  0  0
   -6.0590  -38.2140    1.5360 N   0  0  0  0  0  0
   -6.3000  -37.9380    0.2120 C   0  0  0  0  0  0
   -7.8001  -38.2251   -2.6111 H   0  0  0  0  0  0
   -4.0933  -35.2375   -1.7698 H   0  0  0  0  0  0
   -3.0393  -34.8724   -0.2252 H   0  0  0  0  0  0
   -4.7580  -37.6211    3.0558 H   0  0  0  0  0  0
   -8.0430  -39.2749   -0.3690 H   0  0  0  0  0  0
  1  2  2  0  0  0
  1 10  1  0  0  0
  1 15  1  0  0  0
  2  3  1  0  0  0
  2 11  1  0  0  0
  3  4  1  0  0  0
  4  5  1  0  0  0
  4 10  2  0  0  0
  5  6  1  0  0  0
  5  7  2  0  0  0
  6 12  1  0  0  0
  6 13  1  0  0  0
  7  8  1  0  0  0
  8  9  2  0  0  0
  8 14  1  0  0  0
  9 10  1  0  0  0
M  CHG  1   1   1
M  END
> <s_m_source_file>
../1jys_ligand.sdf

> <i_m_source_file_index>
1

> <s_epik_input>
W25IXTFbY0hdbmMoYzEyKW5bY0hdbmMyW05IMl0=

> <s_epik_cmdline>
J2VwaWtfYXBwJywgJy1pbWFlJywgJ2xpZ2FuZF9wcm8ubWFlJywgJy1vbWFlJywgJ2xpZ2FuZF9wcmVwLm1hZScsICctbXMnLCAnMScsICctcGgnLCAnNycsICctcGh0JywgJzAuNScsICctbnQn

> <r_epik_Ionization_Penalty>
  0.0017

> <r_epik_Ionization_Penalty_Charging>
  0.0000

> <r_epik_Ionization_Penalty_Neutral>
  0.0017

> <r_epik_State_Penalty>
  0.0711

> <r_epik_Charging_Adjusted_Penalty>
0.0711426176655068

> <i_epik_Tot_Q>
1

> <i_epik_Tot_abs_Q>
1

$$$$
