1k06_ligand
                    3D
 Schrodinger Suite 2020-3.
 41 42  0  0  1  0            999 V2000
   33.1100   21.5100   28.3840 O   0  0  0  0  0  0
   33.2740   22.9230   28.0680 C   0  0  2  0  0  0
   33.7430   23.1030   26.5760 C   0  0  2  0  0  0
   33.9270   24.4960   26.2810 O   0  0  0  0  0  0
   32.6530   22.4710   25.6550 C   0  0  1  0  0  0
   33.0420   22.6130   24.2810 O   0  0  0  0  0  0
   32.5080   20.9830   26.0360 C   0  0  2  0  0  0
   31.5000   20.3850   25.2030 O   0  0  0  0  0  0
   32.1280   20.8610   27.5430 C   0  0  1  0  0  0
   32.0230   19.3760   27.9840 C   0  0  0  0  0  0
   33.2020   18.6690   27.5350 O   0  0  0  0  0  0
   34.2330   23.4910   29.0030 N   0  0  0  0  0  0
   33.8060   24.1330   30.1390 C   0  0  0  0  0  0
   32.5820   24.2130   30.3440 O   0  0  0  0  0  0
   34.7020   24.6680   31.0290 N   0  0  0  0  0  0
   34.3990   25.3220   32.2000 C   0  0  0  0  0  0
   33.2410   25.5190   32.5960 O   0  0  0  0  0  0
   35.5240   25.8380   33.0700 C   0  0  0  0  0  0
   36.7620   26.2740   32.5040 C   0  0  0  0  0  0
   37.8070   26.7480   33.3380 C   0  0  0  0  0  0
   37.6230   26.7940   34.7600 C   0  0  0  0  0  0
   36.3950   26.3610   35.3350 C   0  0  0  0  0  0
   35.3490   25.8850   34.4950 C   0  0  0  0  0  0
   32.3141   23.4280   28.2510 H   0  0  0  0  0  0
   34.7394   22.6820   26.3760 H   0  0  0  0  0  0
   34.6637   25.0854   26.8467 H   0  0  0  0  0  0
   31.6843   22.9895   25.7073 H   0  0  0  0  0  0
   33.1881   23.6151   23.8515 H   0  0  0  0  0  0
   33.4255   20.4161   25.8197 H   0  0  0  0  0  0
   31.6179   20.3873   24.1093 H   0  0  0  0  0  0
   31.1829   21.3978   27.7122 H   0  0  0  0  0  0
   31.9531   19.3232   29.0805 H   0  0  0  0  0  0
   31.1255   18.9234   27.5372 H   0  0  0  0  0  0
   33.3161   17.5966   27.7517 H   0  0  0  0  0  0
   35.3115   23.4082   28.8029 H   0  0  0  0  0  0
   35.7820   24.5937   30.8339 H   0  0  0  0  0  0
   36.9041   26.2420   31.4238 H   0  0  0  0  0  0
   38.7488   27.0769   32.8989 H   0  0  0  0  0  0
   38.4246   27.1610   35.4010 H   0  0  0  0  0  0
   36.2560   26.3938   36.4156 H   0  0  0  0  0  0
   34.4088   25.5539   34.9361 H   0  0  0  0  0  0
  1  2  1  0  0  0
  1  9  1  0  0  0
  2  3  1  0  0  0
  2 12  1  0  0  0
  2 24  1  0  0  0
  3  4  1  0  0  0
  3  5  1  0  0  0
  3 25  1  0  0  0
  4 26  1  0  0  0
  5  6  1  0  0  0
  5  7  1  0  0  0
  5 27  1  0  0  0
  6 28  1  0  0  0
  7  8  1  0  0  0
  7  9  1  0  0  0
  7 29  1  0  0  0
  8 30  1  0  0  0
  9 10  1  0  0  0
  9 31  1  0  0  0
 10 11  1  0  0  0
 10 32  1  0  0  0
 10 33  1  0  0  0
 11 34  1  0  0  0
 12 13  1  0  0  0
 12 35  1  0  0  0
 13 14  2  0  0  0
 13 15  1  0  0  0
 15 16  1  0  0  0
 15 36  1  0  0  0
 16 17  2  0  0  0
 16 18  1  0  0  0
 18 19  2  0  0  0
 18 23  1  0  0  0
 19 20  1  0  0  0
 19 37  1  0  0  0
 20 21  2  0  0  0
 20 38  1  0  0  0
 21 22  1  0  0  0
 21 39  1  0  0  0
 22 23  2  0  0  0
 22 40  1  0  0  0
 23 41  1  0  0  0
M  END
> <s_m_source_file>
../1k06_ligand.sdf

> <i_m_source_file_index>
1

> <s_epik_input>
W09IXVtDQEBIXTFbQ0BASF0oW09IXSlbQ0BIXShbT0hdKVtDQEBIXShbQ0gyXVtPSF0pT1tDQEhdMVtOSF1DKD1PKVtOSF1DKD1PKWMyW2NIXVtjSF1bY0hdW2NIXVtjSF0y

> <s_epik_cmdline>
J2VwaWtfYXBwJywgJy1pbWFlJywgJ2xpZ2FuZF9wcm8ubWFlJywgJy1vbWFlJywgJ2xpZ2FuZF9wcmVwLm1hZScsICctbXMnLCAnMScsICctcGgnLCAnNycsICctcGh0JywgJzAuNScsICctbnQn

> <r_lp_tautomer_probability>
1

> <r_epik_Ionization_Penalty>
  0.0000

> <r_epik_Ionization_Penalty_Charging>
  0.0000

> <r_epik_Ionization_Penalty_Neutral>
  0.0000

> <r_epik_State_Penalty>
 -0.0000

> <r_epik_Charging_Adjusted_Penalty>
0

> <i_epik_Tot_Q>
0

> <i_epik_Tot_abs_Q>
0

> <s_epik_Chemistry_Notes>
This compound contains an acetal/aminal-like group ( X-CH(R)-Y where X, Y are N, S, or O) that may be acid/base labile, releasing an aldehyde.

$$$$
