1k08_ligand
                    3D
 Schrodinger Suite 2020-3.
 41 42  0  0  1  0            999 V2000
   33.0340   21.4550   28.3080 O   0  0  0  0  0  0
   33.2180   22.8720   28.0120 C   0  0  2  0  0  0
   33.6690   23.0910   26.5230 C   0  0  2  0  0  0
   33.8610   24.4910   26.2670 O   0  0  0  0  0  0
   32.5700   22.4860   25.5930 C   0  0  1  0  0  0
   32.9420   22.6730   24.2170 O   0  0  0  0  0  0
   32.4250   20.9850   25.9410 C   0  0  2  0  0  0
   31.4160   20.4120   25.0930 O   0  0  0  0  0  0
   32.0500   20.8360   27.4520 C   0  0  1  0  0  0
   31.9300   19.3510   27.8850 C   0  0  0  0  0  0
   33.1280   18.6500   27.5000 O   0  0  0  0  0  0
   34.1870   23.4130   28.9550 N   0  0  0  0  0  0
   33.7740   24.0780   30.0800 C   0  0  0  0  0  0
   32.5540   24.2070   30.2650 O   0  0  0  0  0  0
   34.6780   24.5900   30.9740 N   0  0  0  0  0  0
   34.3860   25.2680   32.1370 C   0  0  0  0  0  0
   33.2320   25.5070   32.5170 O   0  0  0  0  0  0
   35.5100   25.7640   33.0240 C   0  0  0  0  0  0
   36.7370   26.2540   32.4820 C   0  0  0  0  0  0
   37.7770   26.7080   33.3360 C   0  0  0  0  0  0
   37.6040   26.6690   34.7490 C   0  0  0  0  0  0
   36.3900   26.1830   35.3040 C   0  0  0  0  0  0
   35.3490   25.7290   34.4460 C   0  0  0  0  0  0
   32.2618   23.3803   28.2054 H   0  0  0  0  0  0
   34.6610   22.6703   26.3017 H   0  0  0  0  0  0
   34.6048   25.0589   26.8452 H   0  0  0  0  0  0
   31.6020   23.0036   25.6645 H   0  0  0  0  0  0
   33.0834   23.6885   23.8186 H   0  0  0  0  0  0
   33.3354   20.4126   25.7095 H   0  0  0  0  0  0
   31.5362   20.4385   23.9999 H   0  0  0  0  0  0
   31.1092   21.3804   27.6206 H   0  0  0  0  0  0
   31.8036   19.2964   28.9764 H   0  0  0  0  0  0
   31.0592   18.8944   27.3918 H   0  0  0  0  0  0
   33.2334   17.5779   27.7224 H   0  0  0  0  0  0
   35.2640   23.2900   28.7682 H   0  0  0  0  0  0
   35.7568   24.4755   30.7920 H   0  0  0  0  0  0
   36.8768   26.2798   31.4013 H   0  0  0  0  0  0
   38.7066   27.0859   32.9104 H   0  0  0  0  0  0
   38.4038   27.0123   35.4052 H   0  0  0  0  0  0
   36.2559   26.1578   36.3854 H   0  0  0  0  0  0
   34.4211   25.3514   34.8755 H   0  0  0  0  0  0
  1  2  1  0  0  0
  1  9  1  0  0  0
  2  3  1  0  0  0
  2 12  1  0  0  0
  2 24  1  0  0  0
  3  4  1  0  0  0
  3  5  1  0  0  0
  3 25  1  0  0  0
  4 26  1  0  0  0
  5  6  1  0  0  0
  5  7  1  0  0  0
  5 27  1  0  0  0
  6 28  1  0  0  0
  7  8  1  0  0  0
  7  9  1  0  0  0
  7 29  1  0  0  0
  8 30  1  0  0  0
  9 10  1  0  0  0
  9 31  1  0  0  0
 10 11  1  0  0  0
 10 32  1  0  0  0
 10 33  1  0  0  0
 11 34  1  0  0  0
 12 13  1  0  0  0
 12 35  1  0  0  0
 13 14  2  0  0  0
 13 15  1  0  0  0
 15 16  1  0  0  0
 15 36  1  0  0  0
 16 17  2  0  0  0
 16 18  1  0  0  0
 18 19  2  0  0  0
 18 23  1  0  0  0
 19 20  1  0  0  0
 19 37  1  0  0  0
 20 21  2  0  0  0
 20 38  1  0  0  0
 21 22  1  0  0  0
 21 39  1  0  0  0
 22 23  2  0  0  0
 22 40  1  0  0  0
 23 41  1  0  0  0
M  END
> <s_m_source_file>
../1k08_ligand.sdf

> <i_m_source_file_index>
1

> <s_epik_input>
W09IXVtDQEBIXTFbQ0BASF0oW09IXSlbQ0BIXShbT0hdKVtDQEBIXShbQ0gyXVtPSF0pT1tDQEhdMVtOSF1DKD1PKVtOSF1DKD1PKWMyW2NIXVtjSF1bY0hdW2NIXVtjSF0y

> <s_epik_cmdline>
J2VwaWtfYXBwJywgJy1pbWFlJywgJ2xpZ2FuZF9wcm8ubWFlJywgJy1vbWFlJywgJ2xpZ2FuZF9wcmVwLm1hZScsICctbXMnLCAnMScsICctcGgnLCAnNycsICctcGh0JywgJzAuNScsICctbnQn

> <r_lp_tautomer_probability>
1

> <r_epik_Ionization_Penalty>
  0.0000

> <r_epik_Ionization_Penalty_Charging>
  0.0000

> <r_epik_Ionization_Penalty_Neutral>
  0.0000

> <r_epik_State_Penalty>
 -0.0000

> <r_epik_Charging_Adjusted_Penalty>
0

> <i_epik_Tot_Q>
0

> <i_epik_Tot_abs_Q>
0

> <s_epik_Chemistry_Notes>
This compound contains an acetal/aminal-like group ( X-CH(R)-Y where X, Y are N, S, or O) that may be acid/base labile, releasing an aldehyde.

$$$$
