1k1j_ligand
                    3D
 Schrodinger Suite 2020-3.
 68 71  0  0  1  0            999 V2000
   -3.0350    5.6090   20.2470 C   0  0  0  0  0  0
   -3.6800    6.8610   20.1780 C   0  0  0  0  0  0
   -1.6740    5.5160   19.8930 C   0  0  0  0  0  0
   -0.9650    6.6510   19.4760 C   0  0  0  0  0  0
   -1.6110    7.8990   19.4040 C   0  0  0  0  0  0
   -2.9750    8.0140   19.7580 C   0  0  0  0  0  0
   -3.6690    9.3600   19.6700 C   0  0  0  0  0  0
   -2.9760   10.4020   19.2870 N   0  3  0  0  0  0
   -4.9510    9.4660   19.9690 N   0  0  0  0  0  0
   -3.8050    4.3610   20.7070 C   0  0  0  0  0  0
   -3.7930    4.1530   22.2540 C   0  0  1  0  0  0
   -2.4690    4.5140   22.9040 C   0  0  0  0  0  0
   -2.4170    5.6590   23.3450 O   0  0  0  0  0  0
   -1.4140    3.6780   23.0210 N   0  0  0  0  0  0
   -1.5090    2.3460   22.4450 C   0  0  0  0  0  0
   -1.0240    1.3160   23.4920 C   0  0  0  0  0  0
    0.3360    3.1580   24.6370 C   0  0  0  0  0  0
   -0.1640    4.1730   23.5710 C   0  0  0  0  0  0
    0.3750    1.7080   24.0550 C   0  0  0  0  0  0
    0.7960    0.8060   25.0540 C   0  0  0  0  0  0
    0.1850   -0.1870   25.4370 O   0  0  0  0  0  0
    1.9990    1.1680   25.5360 O   0  0  0  0  0  0
    2.1760    0.9340   26.9510 C   0  0  0  0  0  0
   -4.8630    4.9280   22.8860 N   0  0  3  0  0  0
   -5.7780    4.2560   24.1930 S   0  0  0  0  0  0
   -6.7940    5.2050   24.5670 O   0  0  0  0  0  0
   -6.1130    2.9050   23.9020 O   0  0  0  0  0  0
   -4.5700    4.2890   25.4220 C   0  0  0  0  0  0
   -4.2840    5.5260   26.0170 C   0  0  0  0  0  0
   -3.3060    5.6250   27.0190 C   0  0  0  0  0  0
   -2.8900    3.2070   26.8370 C   0  0  0  0  0  0
   -2.6000    4.4590   27.4390 C   0  0  0  0  0  0
   -3.8950    3.1320   25.8170 C   0  0  0  0  0  0
   -1.6050    4.5230   28.4600 C   0  0  0  0  0  0
   -0.9040    3.3530   28.8800 C   0  0  0  0  0  0
   -1.2080    2.1070   28.2660 C   0  0  0  0  0  0
   -2.1910    2.0370   27.2620 C   0  0  0  0  0  0
   -4.7322    6.9416   20.4509 H   0  0  0  0  0  0
   -1.1678    4.5520   19.9440 H   0  0  0  0  0  0
    0.0880    6.5668   19.2072 H   0  0  0  0  0  0
   -1.0586    8.7790   19.0746 H   0  0  0  0  0  0
   -1.9091   10.2933   19.0423 H   0  0  0  0  0  0
   -5.5163    8.5783   20.2890 H   0  0  0  0  0  0
   -5.4534   10.4420   19.8980 H   0  0  0  0  0  0
   -4.8567    4.4435   20.3953 H   0  0  0  0  0  0
   -3.3569    3.4653   20.2521 H   0  0  0  0  0  0
   -3.9844    3.0902   22.4635 H   0  0  0  0  0  0
   -2.5543    2.1378   22.1731 H   0  0  0  0  0  0
   -0.8780    2.2895   21.5458 H   0  0  0  0  0  0
   -1.7407    1.2752   24.3255 H   0  0  0  0  0  0
   -0.9500    0.3237   23.0232 H   0  0  0  0  0  0
   -0.3454    3.1885   25.5000 H   0  0  0  0  0  0
    1.3465    3.4519   24.9572 H   0  0  0  0  0  0
    0.5783    4.2700   22.7650 H   0  0  0  0  0  0
   -0.3315    5.1560   24.0354 H   0  0  0  0  0  0
    1.1479    1.5894   23.2813 H   0  0  0  0  0  0
    3.1827    1.2585   27.2532 H   0  0  0  0  0  0
    2.0576   -0.1389   27.1628 H   0  0  0  0  0  0
    1.4225    1.5043   27.5140 H   0  0  0  0  0  0
   -4.9836    5.9951   22.6478 H   0  0  0  0  0  0
   -4.8251    6.4172   25.6991 H   0  0  0  0  0  0
   -3.0866    6.5904   27.4749 H   0  0  0  0  0  0
   -4.1313    2.1752   25.3515 H   0  0  0  0  0  0
   -1.3767    5.4812   28.9267 H   0  0  0  0  0  0
   -0.1459    3.4137   29.6608 H   0  0  0  0  0  0
   -0.6788    1.2051   28.5736 H   0  0  0  0  0  0
   -2.4221    1.0761   26.8022 H   0  0  0  0  0  0
   -3.4604   11.3866   19.2098 H   0  0  0  0  0  0
  1 10  1  0  0  0
  1  3  2  0  0  0
  1  2  1  0  0  0
  2  6  2  0  0  0
  2 38  1  0  0  0
  3  4  1  0  0  0
  3 39  1  0  0  0
  4  5  2  0  0  0
  4 40  1  0  0  0
  5  6  1  0  0  0
  5 41  1  0  0  0
  6  7  1  0  0  0
  7  9  1  0  0  0
  7  8  2  0  0  0
  8 42  1  0  0  0
  8 68  1  0  0  0
  9 43  1  0  0  0
  9 44  1  0  0  0
 10 11  1  0  0  0
 10 45  1  0  0  0
 10 46  1  0  0  0
 11 24  1  0  0  0
 11 12  1  0  0  0
 11 47  1  0  0  0
 12 14  1  0  0  0
 12 13  2  0  0  0
 14 18  1  0  0  0
 14 15  1  0  0  0
 15 16  1  0  0  0
 15 48  1  0  0  0
 15 49  1  0  0  0
 16 19  1  0  0  0
 16 50  1  0  0  0
 16 51  1  0  0  0
 17 19  1  0  0  0
 17 18  1  0  0  0
 17 52  1  0  0  0
 17 53  1  0  0  0
 18 54  1  0  0  0
 18 55  1  0  0  0
 19 20  1  0  0  0
 19 56  1  0  0  0
 20 22  1  0  0  0
 20 21  2  0  0  0
 22 23  1  0  0  0
 23 57  1  0  0  0
 23 58  1  0  0  0
 23 59  1  0  0  0
 24 25  1  0  0  0
 24 60  1  0  0  0
 25 28  1  0  0  0
 25 27  2  0  0  0
 25 26  2  0  0  0
 28 33  2  0  0  0
 28 29  1  0  0  0
 29 30  2  0  0  0
 29 61  1  0  0  0
 30 32  1  0  0  0
 30 62  1  0  0  0
 31 32  2  0  0  0
 31 37  1  0  0  0
 31 33  1  0  0  0
 32 34  1  0  0  0
 33 63  1  0  0  0
 34 35  2  0  0  0
 34 64  1  0  0  0
 35 36  1  0  0  0
 35 65  1  0  0  0
 36 37  2  0  0  0
 36 66  1  0  0  0
 37 67  1  0  0  0
M  CHG  1   8   1
M  END
> <s_m_source_file>
../1k1j_ligand.sdf

> <i_m_source_file_index>
1

> <s_epik_input>
W0NIM11PQyg9TylbQ0hdKFtDSDJdW0NIMl0xKVtDSDJdW0NIMl1OMUMoPU8pW0NASF0oW0NIMl1jMltjSF1jKC9DKD1OL1tIXSlbTkgyXSlbY0hdW2NIXVtjSF0yKVtOSF1TKD1PKSg9TyljKFtjSF0zKVtjSF1bY0hdYyhjMzQpW2NIXVtjSF1bY0hdW2NIXTQ=

> <s_epik_cmdline>
J2VwaWtfYXBwJywgJy1pbWFlJywgJ2xpZ2FuZF9wcm8ubWFlJywgJy1vbWFlJywgJ2xpZ2FuZF9wcmVwLm1hZScsICctbXMnLCAnMScsICctcGgnLCAnNycsICctcGh0JywgJzAuNScsICctbnQn

> <r_lp_tautomer_probability>
1

> <r_epik_Ionization_Penalty>
  0.0013

> <r_epik_Ionization_Penalty_Charging>
  0.0002

> <r_epik_Ionization_Penalty_Neutral>
  0.0012

> <r_epik_State_Penalty>
 -0.0000

> <r_epik_Charging_Adjusted_Penalty>
0.000184009597780671

> <i_epik_Tot_Q>
1

> <i_epik_Tot_abs_Q>
1

> <s_epik_Chemistry_Notes>
This compound has an ester and may undergo hydrolysis at high or low pH. This compound has an imine and may undergo hydrolysis.

$$$$
