1k1l_ligand
                    3D
 Schrodinger Suite 2020-3.
 62 65  0  0  1  0            999 V2000
   -3.2450    5.7480   20.2080 C   0  0  0  0  0  0
   -3.8130    7.0280   20.1030 C   0  0  0  0  0  0
   -1.8960    5.5640   19.8250 C   0  0  0  0  0  0
   -1.1280    6.6450   19.3710 C   0  0  0  0  0  0
   -1.7070    7.9240   19.2760 C   0  0  0  0  0  0
   -3.0560    8.1170   19.6400 C   0  0  0  0  0  0
   -3.6940    9.4740   19.5440 C   0  0  0  0  0  0
   -2.9810   10.4910   19.1390 N   0  3  0  0  0  0
   -4.9560    9.6140   19.8860 N   0  0  0  0  0  0
   -4.0900    4.5600   20.7130 C   0  0  0  0  0  0
   -4.0520    4.3820   22.2420 C   0  0  1  0  0  0
   -2.7330    4.7590   22.8850 C   0  0  0  0  0  0
   -2.7060    5.8960   23.3530 O   0  0  0  0  0  0
   -1.6530    3.9220   22.9120 N   0  0  0  0  0  0
   -1.5950    2.7340   22.0300 C   0  0  0  0  0  0
   -1.1190    1.5670   22.9310 C   0  0  0  0  0  0
    0.1300    3.3040   24.3760 C   0  0  0  0  0  0
   -0.3720    4.4270   23.4370 C   0  0  0  0  0  0
   -0.0250    1.9370   23.8060 N   0  3  0  0  0  0
   -5.1560    5.1010   22.8930 N   0  0  3  0  0  0
   -6.0160    4.3560   24.1820 S   0  0  0  0  0  0
   -7.0700    5.2380   24.6080 O   0  0  0  0  0  0
   -6.2660    2.9880   23.8750 O   0  0  0  0  0  0
   -4.7590    4.4100   25.3600 C   0  0  0  0  0  0
   -4.4710    5.6480   25.9580 C   0  0  0  0  0  0
   -3.4430    5.7550   26.9290 C   0  0  0  0  0  0
   -3.0190    3.3300   26.6770 C   0  0  0  0  0  0
   -2.7100    4.5860   27.2970 C   0  0  0  0  0  0
   -4.0540    3.2590   25.7070 C   0  0  0  0  0  0
   -1.6680    4.6280   28.2750 C   0  0  0  0  0  0
   -0.9450    3.4410   28.6250 C   0  0  0  0  0  0
   -1.2660    2.2110   28.0000 C   0  0  0  0  0  0
   -2.2910    2.1500   27.0330 C   0  0  0  0  0  0
   -4.8552    7.1785   20.3845 H   0  0  0  0  0  0
   -1.4491    4.5715   19.8835 H   0  0  0  0  0  0
   -0.0849    6.4953   19.0922 H   0  0  0  0  0  0
   -1.1128    8.7660   18.9210 H   0  0  0  0  0  0
   -1.9271   10.3470   18.8586 H   0  0  0  0  0  0
   -5.5344    8.7414   20.2237 H   0  0  0  0  0  0
   -5.4333   10.6037   19.8344 H   0  0  0  0  0  0
   -5.1413    4.7096   20.4259 H   0  0  0  0  0  0
   -3.7166    3.6276   20.2646 H   0  0  0  0  0  0
   -4.2009    3.3102   22.4397 H   0  0  0  0  0  0
   -2.5941    2.5369   21.6142 H   0  0  0  0  0  0
   -0.8867    2.9208   21.2094 H   0  0  0  0  0  0
   -1.9528    1.2285   23.5636 H   0  0  0  0  0  0
   -0.7753    0.7337   22.3006 H   0  0  0  0  0  0
   -0.4428    3.3780   25.3122 H   0  0  0  0  0  0
    1.1933    3.4976   24.5805 H   0  0  0  0  0  0
    0.3218    4.6050   22.6021 H   0  0  0  0  0  0
   -0.5434    5.3690   23.9784 H   0  0  0  0  0  0
   -0.0474    1.3071   24.7075 H   0  0  0  0  0  0
    0.9303    1.7912   23.2805 H   0  0  0  0  0  0
   -5.3248    6.1654   22.6727 H   0  0  0  0  0  0
   -5.0414    6.5323   25.6738 H   0  0  0  0  0  0
   -3.2153    6.7169   27.3884 H   0  0  0  0  0  0
   -4.2963    2.3067   25.2352 H   0  0  0  0  0  0
   -1.4208    5.5726   28.7595 H   0  0  0  0  0  0
   -0.1505    3.4846   29.3699 H   0  0  0  0  0  0
   -0.7183    1.3074   28.2676 H   0  0  0  0  0  0
   -2.5298    1.2001   26.5547 H   0  0  0  0  0  0
   -3.4345   11.4913   19.0784 H   0  0  0  0  0  0
  1 10  1  0  0  0
  1  3  2  0  0  0
  1  2  1  0  0  0
  2  6  2  0  0  0
  2 34  1  0  0  0
  3  4  1  0  0  0
  3 35  1  0  0  0
  4  5  2  0  0  0
  4 36  1  0  0  0
  5  6  1  0  0  0
  5 37  1  0  0  0
  6  7  1  0  0  0
  7  9  1  0  0  0
  7  8  2  0  0  0
  8 38  1  0  0  0
  8 62  1  0  0  0
  9 39  1  0  0  0
  9 40  1  0  0  0
 10 11  1  0  0  0
 10 41  1  0  0  0
 10 42  1  0  0  0
 11 20  1  0  0  0
 11 12  1  0  0  0
 11 43  1  0  0  0
 12 14  1  0  0  0
 12 13  2  0  0  0
 14 18  1  0  0  0
 14 15  1  0  0  0
 15 16  1  0  0  0
 15 44  1  0  0  0
 15 45  1  0  0  0
 16 19  1  0  0  0
 16 46  1  0  0  0
 16 47  1  0  0  0
 17 19  1  0  0  0
 17 18  1  0  0  0
 17 48  1  0  0  0
 17 49  1  0  0  0
 18 50  1  0  0  0
 18 51  1  0  0  0
 19 52  1  0  0  0
 19 53  1  0  0  0
 20 21  1  0  0  0
 20 54  1  0  0  0
 21 24  1  0  0  0
 21 23  2  0  0  0
 21 22  2  0  0  0
 24 29  2  0  0  0
 24 25  1  0  0  0
 25 26  2  0  0  0
 25 55  1  0  0  0
 26 28  1  0  0  0
 26 56  1  0  0  0
 27 28  2  0  0  0
 27 33  1  0  0  0
 27 29  1  0  0  0
 28 30  1  0  0  0
 29 57  1  0  0  0
 30 31  2  0  0  0
 30 58  1  0  0  0
 31 32  1  0  0  0
 31 59  1  0  0  0
 32 33  2  0  0  0
 32 60  1  0  0  0
 33 61  1  0  0  0
M  CHG  2   8   1  19   1
M  END
> <s_m_source_file>
../1k1l_ligand.sdf

> <i_m_source_file_index>
1

> <s_epik_input>
W2NIXTFbY0hdW2NIXWMoL0MoPU4vW0hdKVtOSDJdKVtjSF1jMVtDSDJdW0NAQEhdKEMoPU8pTjJbQ0gyXVtDSDJdW05IMitdW0NIMl1bQ0gyXTIpW05IXVMoPU8pKD1PKWMoW2NIXTMpW2NIXVtjSF1jKGMzNClbY0hdW2NIXVtjSF1bY0hdNA==

> <s_epik_cmdline>
J2VwaWtfYXBwJywgJy1pbWFlJywgJ2xpZ2FuZF9wcm8ubWFlJywgJy1vbWFlJywgJ2xpZ2FuZF9wcmVwLm1hZScsICctbXMnLCAnMScsICctcGgnLCAnNycsICctcGh0JywgJzAuNScsICctbnQn

> <r_epik_Ionization_Penalty>
  0.0266

> <r_epik_Ionization_Penalty_Charging>
  0.0249

> <r_epik_Ionization_Penalty_Neutral>
  0.0017

> <r_epik_State_Penalty>
  0.0201

> <r_epik_Charging_Adjusted_Penalty>
0.0450618616783752

> <i_epik_Tot_Q>
2

> <i_epik_Tot_abs_Q>
2

> <s_epik_Chemistry_Notes>
This compound has an imine and may undergo hydrolysis.

$$$$
