1k1m_ligand
                    3D
 Schrodinger Suite 2020-3.
 66 69  0  0  1  0            999 V2000
   -3.1730    5.6540   20.2490 C   0  0  0  0  0  0
   -3.7450    6.9360   20.2070 C   0  0  0  0  0  0
   -1.8430    5.4820   19.8390 C   0  0  0  0  0  0
   -1.0840    6.5810   19.4160 C   0  0  0  0  0  0
   -1.6560    7.8650   19.3790 C   0  0  0  0  0  0
   -2.9970    8.0490   19.7770 C   0  0  0  0  0  0
   -3.6340    9.4260   19.7420 C   0  0  0  0  0  0
   -2.9550   10.4400   19.2660 N   0  3  0  0  0  0
   -4.8630    9.5760   20.1840 N   0  0  0  0  0  0
   -3.9970    4.4420   20.7130 C   0  0  0  0  0  0
   -3.9400    4.2160   22.2590 C   0  0  1  0  0  0
   -2.6100    4.6180   22.8620 C   0  0  0  0  0  0
   -2.5170    5.8040   23.1540 O   0  0  0  0  0  0
   -1.5750    3.7580   23.0680 N   0  0  0  0  0  0
   -1.5450    2.4380   22.4400 C   0  0  0  0  0  0
   -1.1290    1.4750   23.5690 C   0  0  0  0  0  0
    0.1600    3.3960   24.6590 C   0  0  0  0  0  0
   -0.2940    4.3020   23.4970 C   0  0  0  0  0  0
   -0.0020    1.9730   24.3640 N   0  0  0  0  0  0
   -5.0150    4.9480   22.9320 N   0  0  3  0  0  0
   -5.8890    4.2530   24.2530 S   0  0  0  0  0  0
   -6.9290    5.1660   24.6370 O   0  0  0  0  0  0
   -6.2180    2.8790   23.9270 O   0  0  0  0  0  0
   -4.6560    4.2900   25.4950 C   0  0  0  0  0  0
   -4.3000    5.5150   26.0860 C   0  0  0  0  0  0
   -3.3270    5.5790   27.0850 C   0  0  0  0  0  0
   -3.0350    3.1740   26.9510 C   0  0  0  0  0  0
   -2.6930    4.4190   27.5220 C   0  0  0  0  0  0
   -4.0290    3.1110   25.9330 C   0  0  0  0  0  0
   -1.7280    4.4860   28.5210 C   0  0  0  0  0  0
   -1.0640    3.3260   28.9270 C   0  0  0  0  0  0
   -1.4180    2.0830   28.3780 C   0  0  0  0  0  0
   -2.4000    2.0060   27.3840 C   0  0  0  0  0  0
    0.9320    1.0670   24.7960 C   0  0  0  0  0  0
    1.8470    1.3940   25.5380 O   0  0  0  0  0  0
    0.8910   -0.3950   24.4080 C   0  0  0  0  0  0
   -4.7828    7.0714   20.5116 H   0  0  0  0  0  0
   -1.3971    4.4874   19.8495 H   0  0  0  0  0  0
   -0.0461    6.4402   19.1144 H   0  0  0  0  0  0
   -1.0644    8.7167   19.0434 H   0  0  0  0  0  0
   -1.9278   10.2916   18.9015 H   0  0  0  0  0  0
   -5.4147    8.7105   20.5796 H   0  0  0  0  0  0
   -5.3396   10.5670   20.1583 H   0  0  0  0  0  0
   -5.0516    4.5882   20.4367 H   0  0  0  0  0  0
   -3.6141    3.5313   20.2292 H   0  0  0  0  0  0
   -4.0955    3.1479   22.4711 H   0  0  0  0  0  0
   -2.5431    2.1970   22.0454 H   0  0  0  0  0  0
   -0.8158    2.4402   21.6164 H   0  0  0  0  0  0
   -1.9774    1.3231   24.2525 H   0  0  0  0  0  0
   -0.8299    0.5093   23.1356 H   0  0  0  0  0  0
   -0.4396    3.6577   25.5433 H   0  0  0  0  0  0
    1.2203    3.6108   24.8582 H   0  0  0  0  0  0
    0.4169    4.2710   22.6582 H   0  0  0  0  0  0
   -0.4291    5.3433   23.8248 H   0  0  0  0  0  0
   -5.1740    6.0145   22.7147 H   0  0  0  0  0  0
   -4.7923    6.4307   25.7585 H   0  0  0  0  0  0
   -3.0626    6.5408   27.5246 H   0  0  0  0  0  0
   -4.3026    2.1512   25.4949 H   0  0  0  0  0  0
   -1.4900    5.4424   28.9866 H   0  0  0  0  0  0
   -0.2698    3.3858   29.6712 H   0  0  0  0  0  0
   -0.9263    1.1751   28.7272 H   0  0  0  0  0  0
   -2.6679    1.0425   26.9505 H   0  0  0  0  0  0
    0.0329   -0.5740   23.7434 H   0  0  0  0  0  0
    0.7888   -1.0118   25.3131 H   0  0  0  0  0  0
    1.8214   -0.6619   23.8855 H   0  0  0  0  0  0
   -3.4120   11.4400   19.2308 H   0  0  0  0  0  0
  1 10  1  0  0  0
  1  3  2  0  0  0
  1  2  1  0  0  0
  2  6  2  0  0  0
  2 37  1  0  0  0
  3  4  1  0  0  0
  3 38  1  0  0  0
  4  5  2  0  0  0
  4 39  1  0  0  0
  5  6  1  0  0  0
  5 40  1  0  0  0
  6  7  1  0  0  0
  7  9  1  0  0  0
  7  8  2  0  0  0
  8 41  1  0  0  0
  8 66  1  0  0  0
  9 42  1  0  0  0
  9 43  1  0  0  0
 10 11  1  0  0  0
 10 44  1  0  0  0
 10 45  1  0  0  0
 11 20  1  0  0  0
 11 12  1  0  0  0
 11 46  1  0  0  0
 12 14  1  0  0  0
 12 13  2  0  0  0
 14 18  1  0  0  0
 14 15  1  0  0  0
 15 16  1  0  0  0
 15 47  1  0  0  0
 15 48  1  0  0  0
 16 19  1  0  0  0
 16 49  1  0  0  0
 16 50  1  0  0  0
 17 19  1  0  0  0
 17 18  1  0  0  0
 17 51  1  0  0  0
 17 52  1  0  0  0
 18 53  1  0  0  0
 18 54  1  0  0  0
 19 34  1  0  0  0
 20 21  1  0  0  0
 20 55  1  0  0  0
 21 24  1  0  0  0
 21 23  2  0  0  0
 21 22  2  0  0  0
 24 29  2  0  0  0
 24 25  1  0  0  0
 25 26  2  0  0  0
 25 56  1  0  0  0
 26 28  1  0  0  0
 26 57  1  0  0  0
 27 28  2  0  0  0
 27 33  1  0  0  0
 27 29  1  0  0  0
 28 30  1  0  0  0
 29 58  1  0  0  0
 30 31  2  0  0  0
 30 59  1  0  0  0
 31 32  1  0  0  0
 31 60  1  0  0  0
 32 33  2  0  0  0
 32 61  1  0  0  0
 33 62  1  0  0  0
 34 36  1  0  0  0
 34 35  2  0  0  0
 36 63  1  0  0  0
 36 64  1  0  0  0
 36 65  1  0  0  0
M  CHG  1   8   1
M  END
> <s_m_source_file>
../1k1m_ligand.sdf

> <i_m_source_file_index>
1

> <s_epik_input>
W2NIXTFbY0hdW2NIXWMoL0MoPU4vW0hdKVtOSDJdKVtjSF1jMVtDSDJdW0NAQEhdKEMoPU8pTjJbQ0gyXVtDSDJdTihbQ0gyXVtDSDJdMilDKD1PKVtDSDNdKVtOSF1TKD1PKSg9TyljKFtjSF0zKVtjSF1bY0hdYyhjMzQpW2NIXVtjSF1bY0hdW2NIXTQ=

> <s_epik_cmdline>
J2VwaWtfYXBwJywgJy1pbWFlJywgJ2xpZ2FuZF9wcm8ubWFlJywgJy1vbWFlJywgJ2xpZ2FuZF9wcmVwLm1hZScsICctbXMnLCAnMScsICctcGgnLCAnNycsICctcGh0JywgJzAuNScsICctbnQn

> <r_lp_tautomer_probability>
1

> <r_epik_Ionization_Penalty>
  0.0014

> <r_epik_Ionization_Penalty_Charging>
  0.0002

> <r_epik_Ionization_Penalty_Neutral>
  0.0012

> <r_epik_State_Penalty>
 -0.0000

> <r_epik_Charging_Adjusted_Penalty>
0.000184009597780671

> <i_epik_Tot_Q>
1

> <i_epik_Tot_abs_Q>
1

> <s_epik_Chemistry_Notes>
This compound has an imine and may undergo hydrolysis.

$$$$
