1k1n_ligand
                    3D
 Schrodinger Suite 2020-3.
 81 83  0  0  1  0            999 V2000
   -1.1610   15.9210   18.7940 C   0  0  0  0  0  0
   -2.2510   16.2390   17.9570 C   0  0  0  0  0  0
   -2.4960   15.4860   16.8130 C   0  0  0  0  0  0
   -0.6290   14.0620   17.3350 C   0  0  0  0  0  0
   -0.3600   14.8220   18.4810 C   0  0  0  0  0  0
   -1.7020   14.3660   16.4650 C   0  0  0  0  0  0
   -1.9850   13.5460   15.2290 C   0  0  0  0  0  0
   -2.6060   14.0610   14.1910 N   0  3  0  0  0  0
   -1.6020   12.2830   15.1330 N   0  0  0  0  0  0
   -0.8830   16.7710   20.0210 C   0  0  0  0  0  0
    0.1430   17.8700   19.6190 C   0  0  1  0  0  0
   -0.5090   18.8490   18.7710 N   0  0  0  0  0  0
    0.5480   18.6580   20.8480 C   0  0  0  0  0  0
   -0.2610   18.7330   21.7610 O   0  0  0  0  0  0
    1.7630   19.2570   20.9060 N   0  0  0  0  0  0
    2.1020   20.0820   22.0650 C   0  0  0  0  0  0
    2.1600   21.5440   21.6280 C   0  0  0  0  0  0
    3.1630   21.6850   20.4460 C   0  0  0  0  0  0
    2.6840   20.8010   19.2710 C   0  0  0  0  0  0
    2.6240   19.3280   19.7190 C   0  0  0  0  0  0
   -0.6380   20.4090   15.4420 N   0  0  3  0  0  0
   -0.5480   21.9710   14.9630 S   0  0  0  0  0  0
   -1.7860   22.5480   15.4320 O   0  0  0  0  0  0
   -0.4330   21.9640   13.5300 O   0  0  0  0  0  0
    0.9230   22.5860   15.6520 C   0  0  0  0  0  0
    0.8790   23.6800   16.5800 C   0  0  0  0  0  0
    2.0660   24.1870   17.1710 C   0  0  0  0  0  0
    3.3110   23.6100   16.8580 C   0  0  0  0  0  0
    3.3440   22.5220   15.9590 C   0  0  0  0  0  0
    2.1830   22.0070   15.3510 C   0  0  0  0  0  0
   -0.4370   24.3850   16.9880 C   0  0  0  0  0  0
    2.0720   25.3710   18.1710 C   0  0  0  0  0  0
    2.5000   20.8290   14.3960 C   0  0  0  0  0  0
    4.4940   24.1220   17.4630 O   0  0  0  0  0  0
    5.7750   23.4850   17.2280 C   0  0  0  0  0  0
   -1.0760   20.0720   16.7690 C   0  0  1  0  0  0
   -2.5130   19.5450   16.6440 C   0  0  0  0  0  0
   -3.3320   19.8250   17.8750 C   0  0  0  0  0  0
   -4.5130   19.4630   17.8290 O   0  0  0  0  0  0
   -2.8240   20.4280   18.8600 O   0  5  0  0  0  0
   -0.2230   19.0280   17.4520 C   0  0  0  0  0  0
    0.6400   18.4310   16.8340 O   0  0  0  0  0  0
   -2.9026   17.0763   18.2070 H   0  0  0  0  0  0
   -3.3254   15.7670   16.1639 H   0  0  0  0  0  0
    0.0095   13.2086   17.1065 H   0  0  0  0  0  0
    0.4753   14.5547   19.1283 H   0  0  0  0  0  0
   -2.9463   15.1067   14.2168 H   0  0  0  0  0  0
   -1.0782   11.8018   15.9721 H   0  0  0  0  0  0
   -1.8074   11.7143   14.2141 H   0  0  0  0  0  0
   -1.8195   17.2327   20.3671 H   0  0  0  0  0  0
   -0.4694   16.1378   20.8197 H   0  0  0  0  0  0
    0.9984   17.4211   19.0929 H   0  0  0  0  0  0
   -1.2882   19.5048   19.1867 H   0  0  0  0  0  0
    1.3341   19.9554   22.8424 H   0  0  0  0  0  0
    3.0801   19.7725   22.4620 H   0  0  0  0  0  0
    1.1603   21.8701   21.3050 H   0  0  0  0  0  0
    2.4937   22.1659   22.4717 H   0  0  0  0  0  0
    3.2065   22.7364   20.1255 H   0  0  0  0  0  0
    4.1619   21.3594   20.7719 H   0  0  0  0  0  0
    1.6826   21.1259   18.9522 H   0  0  0  0  0  0
    3.3859   20.8976   18.4296 H   0  0  0  0  0  0
    3.6304   18.9644   19.9738 H   0  0  0  0  0  0
    2.1995   18.7023   18.9201 H   0  0  0  0  0  0
   -0.2042   19.6343   14.7926 H   0  0  0  0  0  0
    4.3050   22.0630   15.7266 H   0  0  0  0  0  0
   -1.2833   23.9094   16.4708 H   0  0  0  0  0  0
   -0.3860   25.4474   16.7074 H   0  0  0  0  0  0
   -0.5769   24.2993   18.0757 H   0  0  0  0  0  0
    1.0422   25.7252   18.3260 H   0  0  0  0  0  0
    2.6844   26.1900   17.7658 H   0  0  0  0  0  0
    2.4937   25.0381   19.1309 H   0  0  0  0  0  0
    1.5664   20.4605   13.9459 H   0  0  0  0  0  0
    2.9796   20.0169   14.9621 H   0  0  0  0  0  0
    3.1790   21.1732   13.6020 H   0  0  0  0  0  0
    6.5594   24.0248   17.7788 H   0  0  0  0  0  0
    6.0025   23.5050   16.1520 H   0  0  0  0  0  0
    5.7349   22.4419   17.5750 H   0  0  0  0  0  0
   -0.9661   21.0009   17.3479 H   0  0  0  0  0  0
   -3.0075   20.0279   15.7883 H   0  0  0  0  0  0
   -2.4921   18.4562   16.4887 H   0  0  0  0  0  0
   -2.7853   13.4462   13.2967 H   0  0  0  0  0  0
  1 10  1  0  0  0
  1  5  2  0  0  0
  1  2  1  0  0  0
  2  3  2  0  0  0
  2 43  1  0  0  0
  3  6  1  0  0  0
  3 44  1  0  0  0
  4  6  2  0  0  0
  4  5  1  0  0  0
  4 45  1  0  0  0
  5 46  1  0  0  0
  6  7  1  0  0  0
  7  9  1  0  0  0
  7  8  2  0  0  0
  8 47  1  0  0  0
  8 81  1  0  0  0
  9 48  1  0  0  0
  9 49  1  0  0  0
 10 11  1  0  0  0
 10 50  1  0  0  0
 10 51  1  0  0  0
 11 13  1  0  0  0
 11 12  1  0  0  0
 11 52  1  0  0  0
 12 41  1  0  0  0
 12 53  1  0  0  0
 13 15  1  0  0  0
 13 14  2  0  0  0
 15 20  1  0  0  0
 15 16  1  0  0  0
 16 17  1  0  0  0
 16 54  1  0  0  0
 16 55  1  0  0  0
 17 18  1  0  0  0
 17 56  1  0  0  0
 17 57  1  0  0  0
 18 19  1  0  0  0
 18 58  1  0  0  0
 18 59  1  0  0  0
 19 20  1  0  0  0
 19 60  1  0  0  0
 19 61  1  0  0  0
 20 62  1  0  0  0
 20 63  1  0  0  0
 21 36  1  0  0  0
 21 22  1  0  0  0
 21 64  1  0  0  0
 22 25  1  0  0  0
 22 24  2  0  0  0
 22 23  2  0  0  0
 25 30  2  0  0  0
 25 26  1  0  0  0
 26 31  1  0  0  0
 26 27  2  0  0  0
 27 32  1  0  0  0
 27 28  1  0  0  0
 28 34  1  0  0  0
 28 29  2  0  0  0
 29 30  1  0  0  0
 29 65  1  0  0  0
 30 33  1  0  0  0
 31 66  1  0  0  0
 31 67  1  0  0  0
 31 68  1  0  0  0
 32 69  1  0  0  0
 32 70  1  0  0  0
 32 71  1  0  0  0
 33 72  1  0  0  0
 33 73  1  0  0  0
 33 74  1  0  0  0
 34 35  1  0  0  0
 35 75  1  0  0  0
 35 76  1  0  0  0
 35 77  1  0  0  0
 36 41  1  0  0  0
 36 37  1  0  0  0
 36 78  1  0  0  0
 37 38  1  0  0  0
 37 79  1  0  0  0
 37 80  1  0  0  0
 38 40  1  0  0  0
 38 39  2  0  0  0
 41 42  2  0  0  0
M  CHG  2   8   1  40  -1
M  END
> <s_m_source_file>
../1k1n_ligand.sdf

> <i_m_source_file_index>
1

> <s_epik_input>
W0hdXE49QyhbTkgyXSlcYyhbY0hdW2NIXTEpW2NIXVtjSF1jMVtDSDJdW0NASF0oQyg9TylOMltDSDJdW0NIMl1bQ0gyXVtDSDJdW0NIMl0yKVtOSF1DKD1PKVtDQEhdKFtDSDJdQyg9TylbT0hdKVtOSF1TKD1PKSg9TyljM2MoW0NIM10pYyhbQ0gzXSljKE9bQ0gzXSlbY0hdYzNbQ0gzXQ==

> <s_epik_cmdline>
J2VwaWtfYXBwJywgJy1pbWFlJywgJ2xpZ2FuZF9wcm8ubWFlJywgJy1vbWFlJywgJ2xpZ2FuZF9wcmVwLm1hZScsICctbXMnLCAnMScsICctcGgnLCAnNycsICctcGh0JywgJzAuNScsICctbnQn

> <r_lp_tautomer_probability>
1

> <r_epik_Ionization_Penalty>
  0.0015

> <r_epik_Ionization_Penalty_Charging>
  0.0014

> <r_epik_Ionization_Penalty_Neutral>
  0.0000

> <r_epik_State_Penalty>
 -0.0000

> <r_epik_Charging_Adjusted_Penalty>
0.00143950439421382

> <i_epik_Tot_Q>
0

> <i_epik_Tot_abs_Q>
2

> <s_epik_Chemistry_Notes>
This compound has an imine and may undergo hydrolysis.

$$$$
