1k1o_ligand
                    3D
 Schrodinger Suite 2020-3.
 70 71  0  0  1  0            999 V2000
   43.4400   22.9820   50.9150 C   0  0  0  0  0  0
   44.5390   23.4540   51.1630 O   0  0  0  0  0  0
   43.2750   21.6880   50.5110 N   0  0  0  0  0  0
   44.4400   20.8410   50.3640 C   0  0  0  0  0  0
   44.2490   19.5460   51.1810 C   0  0  0  0  0  0
   45.6050   19.0610   51.7200 C   0  0  0  0  0  0
   45.4150   17.9810   52.6720 N   0  0  0  0  0  0
   45.8710   18.0630   53.8890 C   0  0  0  0  0  0
   46.3220   19.1800   54.4130 N   0  0  0  0  0  0
   45.8990   16.9860   54.6130 N   0  3  0  0  0  0
   42.4870   24.9140   52.0770 N   0  0  0  0  0  0
   42.2220   23.8780   51.0500 C   0  0  1  0  0  0
   42.0170   24.5030   49.6710 C   0  0  0  0  0  0
   40.8310   25.5080   49.6850 C   0  0  0  0  0  0
   41.1820   26.6250   50.7080 C   0  0  0  0  0  0
   41.4450   26.0160   52.1120 C   0  0  0  0  0  0
   43.0750   23.1830   53.4900 O   0  0  0  0  0  0
   42.6750   24.3610   53.3240 C   0  0  0  0  0  0
   42.3870   25.1930   54.5340 C   0  0  1  0  0  0
   41.2530   24.4910   55.3750 C   0  0  0  0  0  0
   39.0480   24.5180   56.5380 C   0  0  0  0  0  0
   40.1120   25.4250   55.8380 C   0  0  0  0  0  0
   39.4760   26.2390   54.6620 C   0  0  0  0  0  0
   38.1080   26.8590   55.0430 C   0  0  0  0  0  0
   37.1670   25.7630   55.5090 C   0  0  0  0  0  0
   37.7150   25.2280   56.8220 C   0  0  0  0  0  0
   43.5210   25.3000   55.4180 N   0  3  0  0  0  0
   44.8470   24.9030   54.9380 C   0  0  0  0  0  0
   45.7340   24.7210   56.1220 C   0  0  0  0  0  0
   45.2390   24.7270   57.2860 O   0  0  0  0  0  0
   47.0460   24.5800   55.9490 O   0  5  0  0  0  0
   42.2731   21.2870   50.2981 H   0  0  0  0  0  0
   44.5760   20.5855   49.3028 H   0  0  0  0  0  0
   45.3298   21.3745   50.7296 H   0  0  0  0  0  0
   43.5723   19.7419   52.0258 H   0  0  0  0  0  0
   43.8154   18.7667   50.5370 H   0  0  0  0  0  0
   46.2227   18.6980   50.8853 H   0  0  0  0  0  0
   46.1194   19.8940   52.2216 H   0  0  0  0  0  0
   44.8766   17.0704   52.3705 H   0  0  0  0  0  0
   46.3106   20.1082   53.8229 H   0  0  0  0  0  0
   46.7110   19.1871   55.4419 H   0  0  0  0  0  0
   45.5280   16.0362   54.2005 H   0  0  0  0  0  0
   41.3249   23.3410   51.3918 H   0  0  0  0  0  0
   42.9298   25.0391   49.3720 H   0  0  0  0  0  0
   41.7999   23.7117   48.9384 H   0  0  0  0  0  0
   40.6992   25.9337   48.6793 H   0  0  0  0  0  0
   39.9109   24.9853   49.9853 H   0  0  0  0  0  0
   42.0856   27.1565   50.3748 H   0  0  0  0  0  0
   40.3442   27.3344   50.7782 H   0  0  0  0  0  0
   40.4950   25.6104   52.4902 H   0  0  0  0  0  0
   41.7882   26.8243   52.7745 H   0  0  0  0  0  0
   42.1818   26.2095   54.1671 H   0  0  0  0  0  0
   40.7867   23.6981   54.7718 H   0  0  0  0  0  0
   41.6894   24.0514   56.2840 H   0  0  0  0  0  0
   38.8257   23.6521   55.8971 H   0  0  0  0  0  0
   39.4426   24.1679   57.5033 H   0  0  0  0  0  0
   40.5220   26.1783   56.5268 H   0  0  0  0  0  0
   40.1517   27.0584   54.3757 H   0  0  0  0  0  0
   39.3189   25.5749   53.7993 H   0  0  0  0  0  0
   38.2494   27.5895   55.8532 H   0  0  0  0  0  0
   37.6769   27.3634   54.1657 H   0  0  0  0  0  0
   36.1596   26.1809   55.6519 H   0  0  0  0  0  0
   37.1292   24.9658   54.7520 H   0  0  0  0  0  0
   37.0050   24.5125   57.2624 H   0  0  0  0  0  0
   37.8836   26.0570   57.5250 H   0  0  0  0  0  0
   43.6467   26.3479   55.7280 H   0  0  0  0  0  0
   43.3543   24.6725   56.3059 H   0  0  0  0  0  0
   44.7667   23.9604   54.3767 H   0  0  0  0  0  0
   45.2492   25.6880   54.2807 H   0  0  0  0  0  0
   46.2938   17.0231   55.6390 H   0  0  0  0  0  0
  1  2  2  0  0  0
  1  3  1  0  0  0
  1 12  1  0  0  0
  3  4  1  0  0  0
  3 32  1  0  0  0
  4  5  1  0  0  0
  4 33  1  0  0  0
  4 34  1  0  0  0
  5  6  1  0  0  0
  5 35  1  0  0  0
  5 36  1  0  0  0
  6  7  1  0  0  0
  6 37  1  0  0  0
  6 38  1  0  0  0
  7  8  1  0  0  0
  7 39  1  0  0  0
  8  9  1  0  0  0
  8 10  2  0  0  0
  9 40  1  0  0  0
  9 41  1  0  0  0
 10 42  1  0  0  0
 10 70  1  0  0  0
 11 12  1  0  0  0
 11 16  1  0  0  0
 11 18  1  0  0  0
 12 13  1  0  0  0
 12 43  1  0  0  0
 13 14  1  0  0  0
 13 44  1  0  0  0
 13 45  1  0  0  0
 14 15  1  0  0  0
 14 46  1  0  0  0
 14 47  1  0  0  0
 15 16  1  0  0  0
 15 48  1  0  0  0
 15 49  1  0  0  0
 16 50  1  0  0  0
 16 51  1  0  0  0
 17 18  2  0  0  0
 18 19  1  0  0  0
 19 20  1  0  0  0
 19 27  1  0  0  0
 19 52  1  0  0  0
 20 22  1  0  0  0
 20 53  1  0  0  0
 20 54  1  0  0  0
 21 22  1  0  0  0
 21 26  1  0  0  0
 21 55  1  0  0  0
 21 56  1  0  0  0
 22 23  1  0  0  0
 22 57  1  0  0  0
 23 24  1  0  0  0
 23 58  1  0  0  0
 23 59  1  0  0  0
 24 25  1  0  0  0
 24 60  1  0  0  0
 24 61  1  0  0  0
 25 26  1  0  0  0
 25 62  1  0  0  0
 25 63  1  0  0  0
 26 64  1  0  0  0
 26 65  1  0  0  0
 27 28  1  0  0  0
 27 66  1  0  0  0
 27 67  1  0  0  0
 28 29  1  0  0  0
 28 68  1  0  0  0
 28 69  1  0  0  0
 29 30  2  0  0  0
 29 31  1  0  0  0
M  CHG  3  10   1  27   1  31  -1
M  END
> <s_m_source_file>
../1k1o_ligand.sdf

> <i_m_source_file_index>
1

> <s_epik_input>
W0hdXE49QyhbTkgyXSlcW05IXVtDSDJdW0NIMl1bQ0gyXVtOSF1DKD1PKVtDQEhdKFtDSDJdW0NIMl1bQ0gyXVtDSDJdMSlOMUMoPU8pW0NASF0oW05IMitdW0NIMl1DKD1PKVtPSF0pW0NIMl1bQ0hdMltDSDJdW0NIMl1bQ0gyXVtDSDJdW0NIMl0y

> <s_epik_cmdline>
J2VwaWtfYXBwJywgJy1pbWFlJywgJ2xpZ2FuZF9wcm8ubWFlJywgJy1vbWFlJywgJ2xpZ2FuZF9wcmVwLm1hZScsICctbXMnLCAnMScsICctcGgnLCAnNycsICctcGh0JywgJzAuNScsICctbnQn

> <r_lp_tautomer_probability>
1

> <r_epik_Ionization_Penalty>
  0.1502

> <r_epik_Ionization_Penalty_Charging>
  0.1502

> <r_epik_Ionization_Penalty_Neutral>
  0.0000

> <r_epik_State_Penalty>
 -0.0000

> <r_epik_Charging_Adjusted_Penalty>
0.150177461904276

> <i_epik_Tot_Q>
1

> <i_epik_Tot_abs_Q>
3

> <s_epik_Chemistry_Notes>
This compound has an imine and may undergo hydrolysis.

$$$$
