1k1p_ligand
                    3D
 Schrodinger Suite 2020-3.
 63 65  0  0  1  0            999 V2000
   40.2620   24.9760   55.8330 C   0  0  0  0  0  0
   39.0840   25.9120   55.3820 C   0  0  0  0  0  0
   37.7310   25.3530   55.9250 C   0  0  0  0  0  0
   37.7780   25.2940   57.4640 C   0  0  0  0  0  0
   38.9620   24.4070   57.9160 C   0  0  0  0  0  0
   40.3050   24.9610   57.3840 C   0  0  0  0  0  0
   42.7580   25.0960   56.0500 N   0  3  0  0  0  0
   41.6120   25.2920   55.1120 C   0  0  1  0  0  0
   41.7490   24.4670   53.8410 C   0  0  0  0  0  0
   42.3380   23.4110   53.8620 O   0  0  0  0  0  0
   41.0590   24.8760   52.7780 N   0  0  0  0  0  0
   41.3670   24.3570   51.3970 C   0  0  2  0  0  0
   42.8260   23.8700   51.1850 C   0  0  0  0  0  0
   43.7430   24.6850   51.3900 O   0  0  0  0  0  0
   43.0530   22.6320   50.7290 N   0  0  0  0  0  0
   44.4260   22.1590   50.4740 C   0  0  0  0  0  0
   44.7950   21.0400   51.4280 C   0  0  0  0  0  0
   45.0830   21.3600   52.7650 C   0  0  0  0  0  0
   45.4330   20.3360   53.6710 C   0  0  0  0  0  0
   45.5050   18.9900   53.2470 C   0  0  0  0  0  0
   45.2370   18.6750   51.9070 C   0  0  0  0  0  0
   44.8830   19.6920   51.0110 C   0  0  0  0  0  0
   45.8740   17.9020   54.2140 C   0  0  0  0  0  0
   46.6570   18.1780   55.2140 N   0  3  0  0  0  0
   45.4050   16.6840   54.0250 N   0  0  0  0  0  0
   41.0450   25.7450   50.8200 C   0  0  0  0  0  0
   41.2710   26.2580   52.2740 C   0  0  0  0  0  0
   44.0940   25.5280   55.5730 C   0  0  0  0  0  0
   45.2120   25.1060   56.4780 C   0  0  0  0  0  0
   45.0270   25.1420   57.7020 O   0  0  0  0  0  0
   46.3050   24.7400   55.9750 O   0  5  0  0  0  0
   40.0817   23.9385   55.5151 H   0  0  0  0  0  0
   39.2468   26.9242   55.7806 H   0  0  0  0  0  0
   39.0475   25.9521   54.2833 H   0  0  0  0  0  0
   36.9088   26.0119   55.6090 H   0  0  0  0  0  0
   37.5650   24.3419   55.5249 H   0  0  0  0  0  0
   37.9090   26.3095   57.8660 H   0  0  0  0  0  0
   36.8376   24.8679   57.8435 H   0  0  0  0  0  0
   39.0019   24.3809   59.0150 H   0  0  0  0  0  0
   38.8239   23.3863   57.5298 H   0  0  0  0  0  0
   41.1323   24.3194   57.7217 H   0  0  0  0  0  0
   40.4592   25.9845   57.7565 H   0  0  0  0  0  0
   42.5752   25.6618   56.9754 H   0  0  0  0  0  0
   42.8585   24.0267   56.2878 H   0  0  0  0  0  0
   41.6649   26.3472   54.8058 H   0  0  0  0  0  0
   40.8452   23.4632   51.0244 H   0  0  0  0  0  0
   42.1982   21.9647   50.5446 H   0  0  0  0  0  0
   44.4990   21.7843   49.4424 H   0  0  0  0  0  0
   45.1321   22.9909   50.6128 H   0  0  0  0  0  0
   45.0363   22.3956   53.1017 H   0  0  0  0  0  0
   45.6502   20.5862   54.7094 H   0  0  0  0  0  0
   45.3039   17.6426   51.5639 H   0  0  0  0  0  0
   44.6713   19.4391   49.9721 H   0  0  0  0  0  0
   47.0352   19.2019   55.3501 H   0  0  0  0  0  0
   44.7438   16.4756   53.1710 H   0  0  0  0  0  0
   45.6750   15.8765   54.7214 H   0  0  0  0  0  0
   41.7725   25.9927   50.0330 H   0  0  0  0  0  0
   40.0312   25.7385   50.3933 H   0  0  0  0  0  0
   40.5182   26.9284   52.7143 H   0  0  0  0  0  0
   42.2773   26.6010   52.5564 H   0  0  0  0  0  0
   44.2879   25.0923   54.5818 H   0  0  0  0  0  0
   44.1211   26.6254   55.5028 H   0  0  0  0  0  0
   46.9415   17.3877   55.9242 H   0  0  0  0  0  0
  1  2  1  0  0  0
  1  6  1  0  0  0
  1  8  1  0  0  0
  1 32  1  0  0  0
  2  3  1  0  0  0
  2 33  1  0  0  0
  2 34  1  0  0  0
  3  4  1  0  0  0
  3 35  1  0  0  0
  3 36  1  0  0  0
  4  5  1  0  0  0
  4 37  1  0  0  0
  4 38  1  0  0  0
  5  6  1  0  0  0
  5 39  1  0  0  0
  5 40  1  0  0  0
  6 41  1  0  0  0
  6 42  1  0  0  0
  7  8  1  0  0  0
  7 28  1  0  0  0
  7 43  1  0  0  0
  7 44  1  0  0  0
  8  9  1  0  0  0
  8 45  1  0  0  0
  9 10  2  0  0  0
  9 11  1  0  0  0
 11 12  1  0  0  0
 11 27  1  0  0  0
 12 13  1  0  0  0
 12 26  1  0  0  0
 12 46  1  0  0  0
 13 14  2  0  0  0
 13 15  1  0  0  0
 15 16  1  0  0  0
 15 47  1  0  0  0
 16 17  1  0  0  0
 16 48  1  0  0  0
 16 49  1  0  0  0
 17 18  2  0  0  0
 17 22  1  0  0  0
 18 19  1  0  0  0
 18 50  1  0  0  0
 19 20  2  0  0  0
 19 51  1  0  0  0
 20 21  1  0  0  0
 20 23  1  0  0  0
 21 22  2  0  0  0
 21 52  1  0  0  0
 22 53  1  0  0  0
 23 24  2  0  0  0
 23 25  1  0  0  0
 24 54  1  0  0  0
 24 63  1  0  0  0
 25 55  1  0  0  0
 25 56  1  0  0  0
 26 27  1  0  0  0
 26 57  1  0  0  0
 26 58  1  0  0  0
 27 59  1  0  0  0
 27 60  1  0  0  0
 28 29  1  0  0  0
 28 61  1  0  0  0
 28 62  1  0  0  0
 29 30  2  0  0  0
 29 31  1  0  0  0
M  CHG  3   7   1  24   1  31  -1
M  END
> <s_m_source_file>
../1k1p_ligand.sdf

> <i_m_source_file_index>
1

> <s_epik_input>
W0NIMl0xW0NIMl1bQ0gyXVtDSDJdW0NIMl1bQ0hdMVtDQEBIXShbTkgyK11bQ0gyXUMoPU8pW09IXSlDKD1PKU4yW0NAQEhdKFtDSDJdW0NIMl0yKUMoPU8pW05IXVtDSDJdYzNbY0hdW2NIXWMoW2NIXVtjSF0zKS9DKD1OXFtIXSlbTkgyXQ==

> <s_epik_cmdline>
J2VwaWtfYXBwJywgJy1pbWFlJywgJ2xpZ2FuZF9wcm8ubWFlJywgJy1vbWFlJywgJ2xpZ2FuZF9wcmVwLm1hZScsICctbXMnLCAnMScsICctcGgnLCAnNycsICctcGh0JywgJzAuNScsICctbnQn

> <r_lp_tautomer_probability>
1

> <r_epik_Ionization_Penalty>
  0.1721

> <r_epik_Ionization_Penalty_Charging>
  0.1721

> <r_epik_Ionization_Penalty_Neutral>
  0.0000

> <r_epik_State_Penalty>
 -0.0000

> <r_epik_Charging_Adjusted_Penalty>
0.172058159196904

> <i_epik_Tot_Q>
1

> <i_epik_Tot_abs_Q>
3

> <s_epik_Chemistry_Notes>
This compound has an imine and may undergo hydrolysis.

$$$$
