1k1y_ligand
                    3D
 Schrodinger Suite 2020-3.
 88 91  0  0  1  0            999 V2000
   -2.3020   58.4640   91.4770 C   0  0  2  0  0  0
   -1.8660   59.5760   90.3780 C   0  0  1  0  0  0
   -0.8760   60.5950   91.0570 C   0  0  2  0  0  0
   -1.6140   61.3480   92.2200 C   0  0  1  0  0  0
   -2.4050   60.4240   93.1780 C   0  0  0  0  0  0
   -2.8700   60.9790   94.5230 C   0  0  0  0  0  0
   -2.7130   59.1290   92.8200 C   0  0  0  0  0  0
   -1.2660   58.9040   89.3080 O   0  0  0  0  0  0
   -0.4630   61.5620   90.1130 O   0  0  0  0  0  0
   -0.6090   62.2080   92.8250 O   0  0  0  0  0  0
   -3.9460   61.9000   94.2730 O   0  0  0  0  0  0
   -0.7920   53.2100   92.2520 C   0  0  2  0  0  0
   -1.0570   53.8110   90.8370 C   0  0  1  0  0  0
   -0.6710   55.3020   90.7580 C   0  0  2  0  0  0
   -1.4690   56.0850   91.8370 C   0  0  1  0  0  0
   -1.0590   55.4950   93.2600 C   0  0  1  0  0  0
   -1.7620   56.1580   94.4310 C   0  0  0  0  0  0
   -1.1460   57.5380   91.7470 N   0  3  0  0  0  0
   -0.3830   53.0070   89.8790 O   0  0  0  0  0  0
   -0.9700   55.7690   89.4390 O   0  0  0  0  0  0
   -1.3880   54.0240   93.2990 O   0  0  0  0  0  0
    3.2500   50.7820   94.9360 C   0  0  2  0  0  0
    3.0790   50.4450   93.4210 C   0  0  1  0  0  0
    2.4910   51.6670   92.6720 C   0  0  2  0  0  0
    1.1030   51.9910   93.3180 C   0  0  1  0  0  0
    1.3890   52.3810   94.8090 C   0  0  1  0  0  0
    0.0970   52.7070   95.5950 C   0  0  0  0  0  0
    4.3410   50.0470   92.9060 O   0  0  0  0  0  0
    2.3500   51.2870   91.3140 O   0  0  0  0  0  0
    0.4840   53.1440   92.7350 O   0  0  0  0  0  0
    2.0160   51.2480   95.5000 O   0  0  0  0  0  0
    0.3750   53.0740   96.9260 O   0  0  0  0  0  0
    7.3020   52.4550   98.0040 C   0  0  1  0  0  0
    7.0760   50.9960   97.4840 C   0  0  1  0  0  0
    6.3180   51.0190   96.1540 C   0  0  2  0  0  0
    4.9660   51.7240   96.3640 C   0  0  1  0  0  0
    5.2210   53.2140   96.8690 C   0  0  1  0  0  0
    3.9260   54.0020   97.1230 C   0  0  0  0  0  0
    8.1320   53.1600   97.1290 O   0  0  0  0  0  0
    8.3540   50.3510   97.3380 O   0  0  0  0  0  0
    6.1230   49.6580   95.7030 O   0  0  0  0  0  0
    4.2330   51.7500   95.1130 O   0  0  0  0  0  0
    6.0000   53.1740   98.1390 O   0  0  0  0  0  0
    3.1700   53.4700   98.2160 O   0  0  0  0  0  0
   -3.1435   57.8576   91.1107 H   0  0  0  0  0  0
   -2.6823   60.1171   89.8772 H   0  0  0  0  0  0
    0.0515   60.1006   91.3815 H   0  0  0  0  0  0
   -2.4093   62.0305   91.8858 H   0  0  0  0  0  0
   -3.2167   60.1524   95.1606 H   0  0  0  0  0  0
   -2.0331   61.4958   95.0155 H   0  0  0  0  0  0
   -3.2885   58.4907   93.5065 H   0  0  0  0  0  0
   -1.8383   58.1588   88.7361 H   0  0  0  0  0  0
    0.0790   61.2506   89.2079 H   0  0  0  0  0  0
   -0.0147   62.8866   92.1955 H   0  0  0  0  0  0
   -4.4320   62.4189   95.1124 H   0  0  0  0  0  0
   -1.1144   52.1621   92.1627 H   0  0  0  0  0  0
   -2.1127   53.7425   90.5358 H   0  0  0  0  0  0
    0.4086   55.4774   90.8752 H   0  0  0  0  0  0
   -2.5527   56.0284   91.6572 H   0  0  0  0  0  0
    0.0172   55.6577   93.4190 H   0  0  0  0  0  0
   -1.5403   57.2354   94.4294 H   0  0  0  0  0  0
   -1.4072   55.7120   95.3719 H   0  0  0  0  0  0
   -2.8478   56.0069   94.3401 H   0  0  0  0  0  0
   -0.4040   57.6330   90.9405 H   0  0  0  0  0  0
   -0.6798   57.8037   92.7072 H   0  0  0  0  0  0
   -0.5751   51.9247   89.8365 H   0  0  0  0  0  0
   -0.4798   55.3089   88.5684 H   0  0  0  0  0  0
    3.5798   49.9246   95.5410 H   0  0  0  0  0  0
    2.4414   49.5689   93.2316 H   0  0  0  0  0  0
    3.1430   52.5525   92.6464 H   0  0  0  0  0  0
    0.3925   51.1700   93.1415 H   0  0  0  0  0  0
    2.0732   53.2422   94.8191 H   0  0  0  0  0  0
   -0.4274   53.5424   95.1081 H   0  0  0  0  0  0
   -0.5566   51.8223   95.6094 H   0  0  0  0  0  0
    4.8701   49.1901   93.3484 H   0  0  0  0  0  0
    3.2389   51.0273   90.7204 H   0  0  0  0  0  0
   -0.4478   53.3345   97.6080 H   0  0  0  0  0  0
    7.8349   52.4817   98.9659 H   0  0  0  0  0  0
    6.5191   50.3711   98.1977 H   0  0  0  0  0  0
    6.8941   51.5148   95.3588 H   0  0  0  0  0  0
    4.3369   51.1403   97.0521 H   0  0  0  0  0  0
    5.7950   53.7664   96.1104 H   0  0  0  0  0  0
    4.1733   55.0478   97.3578 H   0  0  0  0  0  0
    3.2936   53.9678   96.2236 H   0  0  0  0  0  0
    9.1401   52.7824   96.9030 H   0  0  0  0  0  0
    9.0230   50.2530   98.2057 H   0  0  0  0  0  0
    6.9927   49.0142   95.5053 H   0  0  0  0  0  0
    2.2187   53.9394   98.5068 H   0  0  0  0  0  0
  1  2  1  0  0  0
  1  7  1  0  0  0
  1 18  1  0  0  0
  1 45  1  0  0  0
  2  3  1  0  0  0
  2  8  1  0  0  0
  2 46  1  0  0  0
  3  4  1  0  0  0
  3  9  1  0  0  0
  3 47  1  0  0  0
  4  5  1  0  0  0
  4 10  1  0  0  0
  4 48  1  0  0  0
  5  6  1  0  0  0
  5  7  2  0  0  0
  6 11  1  0  0  0
  6 49  1  0  0  0
  6 50  1  0  0  0
  7 51  1  0  0  0
  8 52  1  0  0  0
  9 53  1  0  0  0
 10 54  1  0  0  0
 11 55  1  0  0  0
 12 13  1  0  0  0
 12 21  1  0  0  0
 12 30  1  0  0  0
 12 56  1  0  0  0
 13 14  1  0  0  0
 13 19  1  0  0  0
 13 57  1  0  0  0
 14 15  1  0  0  0
 14 20  1  0  0  0
 14 58  1  0  0  0
 15 16  1  0  0  0
 15 18  1  0  0  0
 15 59  1  0  0  0
 16 17  1  0  0  0
 16 21  1  0  0  0
 16 60  1  0  0  0
 17 61  1  0  0  0
 17 62  1  0  0  0
 17 63  1  0  0  0
 18 64  1  0  0  0
 18 65  1  0  0  0
 19 66  1  0  0  0
 20 67  1  0  0  0
 22 23  1  0  0  0
 22 31  1  0  0  0
 22 42  1  0  0  0
 22 68  1  0  0  0
 23 24  1  0  0  0
 23 28  1  0  0  0
 23 69  1  0  0  0
 24 25  1  0  0  0
 24 29  1  0  0  0
 24 70  1  0  0  0
 25 26  1  0  0  0
 25 30  1  0  0  0
 25 71  1  0  0  0
 26 27  1  0  0  0
 26 31  1  0  0  0
 26 72  1  0  0  0
 27 32  1  0  0  0
 27 73  1  0  0  0
 27 74  1  0  0  0
 28 75  1  0  0  0
 29 76  1  0  0  0
 32 77  1  0  0  0
 33 34  1  0  0  0
 33 39  1  0  0  0
 33 43  1  0  0  0
 33 78  1  0  0  0
 34 35  1  0  0  0
 34 40  1  0  0  0
 34 79  1  0  0  0
 35 36  1  0  0  0
 35 41  1  0  0  0
 35 80  1  0  0  0
 36 37  1  0  0  0
 36 42  1  0  0  0
 36 81  1  0  0  0
 37 38  1  0  0  0
 37 43  1  0  0  0
 37 82  1  0  0  0
 38 44  1  0  0  0
 38 83  1  0  0  0
 38 84  1  0  0  0
 39 85  1  0  0  0
 40 86  1  0  0  0
 41 87  1  0  0  0
 44 88  1  0  0  0
M  CHG  1  18   1
M  END
> <s_m_source_file>
../1k1y_ligand.sdf

> <i_m_source_file_index>
1

> <s_epik_input>
W09IXVtDSDJdQyg9W0NIXTEpW0NAQEhdKFtPSF0pW0NASF0oW09IXSlbQ0BASF0oW09IXSlbQ0BIXTFbTkgyK11bQ0BIXShbQ0BIXShPMilbQ0gzXSlbQ0BIXShbT0hdKVtDQEBIXShbT0hdKVtDQEhdMk9bQ0BIXShbQ0BIXShPMylbQ0gyXVtPSF0pW0NASF0oW09IXSlbQ0BASF0oW09IXSlbQ0BIXTNPW0NASF0oW0NASF0oTzQpW0NIMl1bT0hdKVtDQEhdKFtPSF0pW0NAQEhdKFtPSF0pW0NASF00W09IXQ==

> <s_epik_cmdline>
J2VwaWtfYXBwJywgJy1pbWFlJywgJ2xpZ2FuZF9wcm8ubWFlJywgJy1vbWFlJywgJ2xpZ2FuZF9wcmVwLm1hZScsICctbXMnLCAnMScsICctcGgnLCAnNycsICctcGh0JywgJzAuNScsICctbnQn

> <r_epik_Ionization_Penalty>
  0.1167

> <r_epik_Ionization_Penalty_Charging>
  0.1167

> <r_epik_Ionization_Penalty_Neutral>
  0.0001

> <r_epik_State_Penalty>
  0.1063

> <r_epik_Charging_Adjusted_Penalty>
0.222957502643002

> <i_epik_Tot_Q>
1

> <i_epik_Tot_abs_Q>
1

> <s_epik_Chemistry_Notes>
This compound contains an acetal/aminal-like group ( X-CH(R)-Y where X, Y are N, S, or O) that may be acid/base labile, releasing an aldehyde.

$$$$
