1k21_ligand
                    3D
 Schrodinger Suite 2020-3.
 70 71  0  0  1  0            999 V2000
   16.1560  -11.6220   20.2070 C   0  0  0  0  0  0
   15.4510  -12.5640   19.8270 O   0  0  0  0  0  0
   15.6340  -10.3970   20.3990 N   0  0  0  0  0  0
   14.2220  -10.0260   20.1930 C   0  0  0  0  0  0
   13.4950   -9.7650   21.5200 C   0  0  0  0  0  0
   12.0090  -10.0930   21.4210 C   0  0  0  0  0  0
   11.6090  -11.1220   22.3900 N   0  0  0  0  0  0
   11.0030  -10.8830   23.6710 C   0  0  0  0  0  0
   10.6870  -11.9160   24.4420 N   0  3  0  0  0  0
   10.7580   -9.6370   24.0780 N   0  0  0  0  0  0
   17.9500  -13.2540   21.0630 N   0  0  0  0  0  0
   17.6790  -11.8530   20.4870 C   0  0  1  0  0  0
   18.4230  -11.6090   19.1400 C   0  0  0  0  0  0
   19.8990  -12.0490   19.1810 C   0  0  0  0  0  0
   20.0010  -13.5800   19.4210 C   0  0  0  0  0  0
   18.8870  -14.1930   20.3230 C   0  0  0  0  0  0
   16.5740  -12.9000   22.8600 O   0  0  0  0  0  0
   17.3450  -13.6610   22.2510 C   0  0  0  0  0  0
   17.5520  -15.0700   22.9300 C   0  0  1  0  0  0
   17.9260  -15.0000   24.4670 C   0  0  0  0  0  0
   20.4370  -14.8210   23.5540 C   0  0  0  0  0  0
   19.4520  -14.7400   24.8050 C   0  0  0  0  0  0
   19.7200  -13.3720   25.5260 C   0  0  0  0  0  0
   21.2120  -13.2650   25.9910 C   0  0  0  0  0  0
   22.1600  -13.3700   24.7530 C   0  0  0  0  0  0
   21.9280  -14.7230   24.0130 C   0  0  0  0  0  0
   16.2730  -15.8300   22.8380 N   0  3  0  0  0  0
   15.6600  -16.2720   21.5460 C   0  0  0  0  0  0
   14.2430  -16.7860   21.7690 C   0  0  0  0  0  0
   13.8040  -16.9480   22.9320 O   0  5  0  0  0  0
   13.5190  -17.0470   20.7800 O   0  0  0  0  0  0
   16.3575   -9.6409   20.7378 H   0  0  0  0  0  0
   14.1684   -9.1098   19.5866 H   0  0  0  0  0  0
   13.7008  -10.8421   19.6712 H   0  0  0  0  0  0
   13.9366  -10.3911   22.3093 H   0  0  0  0  0  0
   13.5987   -8.7043   21.7925 H   0  0  0  0  0  0
   11.4193   -9.1858   21.6191 H   0  0  0  0  0  0
   11.7820  -10.4646   20.4108 H   0  0  0  0  0  0
   11.7674  -12.1858   22.1594 H   0  0  0  0  0  0
   10.8921  -12.9410   24.0995 H   0  0  0  0  0  0
   11.0227   -8.7858   23.4335 H   0  0  0  0  0  0
   10.2912   -9.4604   25.0583 H   0  0  0  0  0  0
   18.0540  -11.1694   21.2629 H   0  0  0  0  0  0
   17.9267  -12.1765   18.3390 H   0  0  0  0  0  0
   18.4002  -10.5363   18.8976 H   0  0  0  0  0  0
   20.3815  -11.8036   18.2234 H   0  0  0  0  0  0
   20.4158  -11.5232   19.9973 H   0  0  0  0  0  0
   19.9448  -14.1068   18.4570 H   0  0  0  0  0  0
   20.9588  -13.8115   19.9100 H   0  0  0  0  0  0
   19.4279  -14.8182   21.0486 H   0  0  0  0  0  0
   18.3036  -14.8363   19.6478 H   0  0  0  0  0  0
   18.3516  -15.5870   22.3792 H   0  0  0  0  0  0
   17.3662  -14.1818   24.9437 H   0  0  0  0  0  0
   17.6662  -15.9528   24.9514 H   0  0  0  0  0  0
   20.2892  -15.7781   23.0323 H   0  0  0  0  0  0
   20.2233  -13.9908   22.8647 H   0  0  0  0  0  0
   19.6709  -15.5633   25.5009 H   0  0  0  0  0  0
   19.5063  -12.5445   24.8335 H   0  0  0  0  0  0
   19.0688  -13.2889   26.4086 H   0  0  0  0  0  0
   21.3718  -12.2983   26.4910 H   0  0  0  0  0  0
   21.4370  -14.0821   26.6922 H   0  0  0  0  0  0
   21.9529  -12.5402   24.0612 H   0  0  0  0  0  0
   23.2067  -13.3163   25.0870 H   0  0  0  0  0  0
   22.1575  -15.5559   24.6939 H   0  0  0  0  0  0
   22.5866  -14.7761   23.1336 H   0  0  0  0  0  0
   16.3723  -16.7819   23.3803 H   0  0  0  0  0  0
   15.4611  -15.2368   23.2841 H   0  0  0  0  0  0
   15.6239  -15.4227   20.8478 H   0  0  0  0  0  0
   16.2662  -17.0797   21.1099 H   0  0  0  0  0  0
   10.2200  -11.7472   25.4235 H   0  0  0  0  0  0
  1 12  1  0  0  0
  1  3  1  0  0  0
  1  2  2  0  0  0
  3  4  1  0  0  0
  3 32  1  0  0  0
  4  5  1  0  0  0
  4 33  1  0  0  0
  4 34  1  0  0  0
  5  6  1  0  0  0
  5 35  1  0  0  0
  5 36  1  0  0  0
  6  7  1  0  0  0
  6 37  1  0  0  0
  6 38  1  0  0  0
  7  8  1  0  0  0
  7 39  1  0  0  0
  8 10  1  0  0  0
  8  9  2  0  0  0
  9 40  1  0  0  0
  9 70  1  0  0  0
 10 41  1  0  0  0
 10 42  1  0  0  0
 11 12  1  0  0  0
 11 16  1  0  0  0
 11 18  1  0  0  0
 12 13  1  0  0  0
 12 43  1  0  0  0
 13 14  1  0  0  0
 13 44  1  0  0  0
 13 45  1  0  0  0
 14 15  1  0  0  0
 14 46  1  0  0  0
 14 47  1  0  0  0
 15 16  1  0  0  0
 15 48  1  0  0  0
 15 49  1  0  0  0
 16 50  1  0  0  0
 16 51  1  0  0  0
 17 18  2  0  0  0
 18 19  1  0  0  0
 19 27  1  0  0  0
 19 20  1  0  0  0
 19 52  1  0  0  0
 20 22  1  0  0  0
 20 53  1  0  0  0
 20 54  1  0  0  0
 21 22  1  0  0  0
 21 26  1  0  0  0
 21 55  1  0  0  0
 21 56  1  0  0  0
 22 23  1  0  0  0
 22 57  1  0  0  0
 23 24  1  0  0  0
 23 58  1  0  0  0
 23 59  1  0  0  0
 24 25  1  0  0  0
 24 60  1  0  0  0
 24 61  1  0  0  0
 25 26  1  0  0  0
 25 62  1  0  0  0
 25 63  1  0  0  0
 26 64  1  0  0  0
 26 65  1  0  0  0
 27 28  1  0  0  0
 27 66  1  0  0  0
 27 67  1  0  0  0
 28 29  1  0  0  0
 28 68  1  0  0  0
 28 69  1  0  0  0
 29 31  2  0  0  0
 29 30  1  0  0  0
M  CHG  3   9   1  27   1  30  -1
M  END
> <s_m_source_file>
../1k21_ligand.sdf

> <i_m_source_file_index>
1

> <s_epik_input>
W0hdXE49QyhbTkgyXSlcW05IXVtDSDJdW0NIMl1bQ0gyXVtOSF1DKD1PKVtDQEhdKFtDSDJdW0NIMl1bQ0gyXVtDSDJdMSlOMUMoPU8pW0NASF0oW05IMitdW0NIMl1DKD1PKVtPSF0pW0NIMl1bQ0hdMltDSDJdW0NIMl1bQ0gyXVtDSDJdW0NIMl0y

> <s_epik_cmdline>
J2VwaWtfYXBwJywgJy1pbWFlJywgJ2xpZ2FuZF9wcm8ubWFlJywgJy1vbWFlJywgJ2xpZ2FuZF9wcmVwLm1hZScsICctbXMnLCAnMScsICctcGgnLCAnNycsICctcGh0JywgJzAuNScsICctbnQn

> <r_lp_tautomer_probability>
1

> <r_epik_Ionization_Penalty>
  0.1502

> <r_epik_Ionization_Penalty_Charging>
  0.1502

> <r_epik_Ionization_Penalty_Neutral>
  0.0000

> <r_epik_State_Penalty>
 -0.0000

> <r_epik_Charging_Adjusted_Penalty>
0.150192679939976

> <i_epik_Tot_Q>
1

> <i_epik_Tot_abs_Q>
3

> <s_epik_Chemistry_Notes>
This compound has an imine and may undergo hydrolysis.

$$$$
