1k22_ligand
                    3D
 Schrodinger Suite 2020-3.
 63 65  0  0  1  0            999 V2000
   18.7400  -14.4090   24.4190 C   0  0  0  0  0  0
   18.9060  -15.7460   25.2000 C   0  0  0  0  0  0
   19.4890  -15.5290   26.6320 C   0  0  0  0  0  0
   20.8110  -14.7180   26.5380 C   0  0  0  0  0  0
   20.5890  -13.3450   25.8180 C   0  0  0  0  0  0
   20.0880  -13.6120   24.3660 C   0  0  0  0  0  0
   17.0410  -15.5660   22.9810 N   0  3  0  0  0  0
   18.2480  -14.6920   22.9380 C   0  0  1  0  0  0
   17.8690  -13.4020   22.2810 C   0  0  0  0  0  0
   16.8270  -12.7900   22.6660 O   0  0  0  0  0  0
   18.6150  -12.9120   21.2930 N   0  0  0  0  0  0
   18.4550  -11.6940   20.4810 C   0  0  2  0  0  0
   17.0860  -11.8150   19.8150 C   0  0  0  0  0  0
   16.8180  -12.8260   19.1830 O   0  0  0  0  0  0
   16.1420  -10.7990   19.9520 N   0  0  0  0  0  0
   14.7890  -11.0010   19.4880 C   0  0  0  0  0  0
   13.8470  -10.9690   20.6190 C   0  0  0  0  0  0
   13.2900   -9.7430   21.0060 C   0  0  0  0  0  0
   12.3680   -9.6780   22.1010 C   0  0  0  0  0  0
   12.0130  -10.8460   22.8000 C   0  0  0  0  0  0
   12.5810  -12.1100   22.4090 C   0  0  0  0  0  0
   13.5050  -12.1640   21.3070 C   0  0  0  0  0  0
   11.1080  -10.7790   23.8690 C   0  0  0  0  0  0
   10.9490   -9.6150   24.5710 N   0  3  0  0  0  0
   10.3630  -11.8800   24.2150 N   0  0  0  0  0  0
   19.7830  -11.9190   19.8420 C   0  0  0  0  0  0
   19.8320  -13.2830   20.5760 C   0  0  0  0  0  0
   16.4900  -16.1470   21.7190 C   0  0  0  0  0  0
   14.9780  -16.4710   21.8140 C   0  0  0  0  0  0
   14.3890  -16.5990   23.0010 O   0  5  0  0  0  0
   14.2770  -16.6270   20.7220 O   0  0  0  0  0  0
   17.9969  -13.8106   24.9665 H   0  0  0  0  0  0
   17.9260  -16.2350   25.3023 H   0  0  0  0  0  0
   19.5909  -16.4088   24.6509 H   0  0  0  0  0  0
   18.7622  -14.9743   27.2436 H   0  0  0  0  0  0
   19.6908  -16.5050   27.0975 H   0  0  0  0  0  0
   21.1944  -14.5232   27.5504 H   0  0  0  0  0  0
   21.5551  -15.2944   25.9687 H   0  0  0  0  0  0
   19.8382  -12.7593   26.3688 H   0  0  0  0  0  0
   21.5377  -12.7891   25.7879 H   0  0  0  0  0  0
   20.8404  -14.2001   23.8201 H   0  0  0  0  0  0
   19.9273  -12.6535   23.8508 H   0  0  0  0  0  0
   17.2472  -16.4453   23.6089 H   0  0  0  0  0  0
   16.1958  -15.0034   23.4042 H   0  0  0  0  0  0
   19.0189  -15.1845   22.3271 H   0  0  0  0  0  0
   18.3754  -10.6476   20.8108 H   0  0  0  0  0  0
   16.4280   -9.8426   20.4140 H   0  0  0  0  0  0
   14.5223  -10.2046   18.7777 H   0  0  0  0  0  0
   14.7148  -11.9781   18.9882 H   0  0  0  0  0  0
   13.5598   -8.8327   20.4706 H   0  0  0  0  0  0
   11.9398   -8.7193   22.3936 H   0  0  0  0  0  0
   12.3127  -13.0207   22.9445 H   0  0  0  0  0  0
   13.9398  -13.1159   21.0021 H   0  0  0  0  0  0
   11.5397   -8.7264   24.3037 H   0  0  0  0  0  0
   10.4816  -12.8214   23.6585 H   0  0  0  0  0  0
    9.6478  -11.8203   25.0486 H   0  0  0  0  0  0
   19.6704  -11.9057   18.7479 H   0  0  0  0  0  0
   20.4772  -11.1228   20.1488 H   0  0  0  0  0  0
   20.6427  -13.4618   21.2977 H   0  0  0  0  0  0
   19.6502  -14.1988   19.9944 H   0  0  0  0  0  0
   16.6280  -15.4314   20.8951 H   0  0  0  0  0  0
   17.0189  -17.0826   21.4845 H   0  0  0  0  0  0
   10.2305   -9.5680   25.4026 H   0  0  0  0  0  0
  1  8  1  0  0  0
  1  6  1  0  0  0
  1  2  1  0  0  0
  1 32  1  0  0  0
  2  3  1  0  0  0
  2 33  1  0  0  0
  2 34  1  0  0  0
  3  4  1  0  0  0
  3 35  1  0  0  0
  3 36  1  0  0  0
  4  5  1  0  0  0
  4 37  1  0  0  0
  4 38  1  0  0  0
  5  6  1  0  0  0
  5 39  1  0  0  0
  5 40  1  0  0  0
  6 41  1  0  0  0
  6 42  1  0  0  0
  7  8  1  0  0  0
  7 28  1  0  0  0
  7 43  1  0  0  0
  7 44  1  0  0  0
  8  9  1  0  0  0
  8 45  1  0  0  0
  9 11  1  0  0  0
  9 10  2  0  0  0
 11 27  1  0  0  0
 11 12  1  0  0  0
 12 26  1  0  0  0
 12 13  1  0  0  0
 12 46  1  0  0  0
 13 15  1  0  0  0
 13 14  2  0  0  0
 15 16  1  0  0  0
 15 47  1  0  0  0
 16 17  1  0  0  0
 16 48  1  0  0  0
 16 49  1  0  0  0
 17 22  2  0  0  0
 17 18  1  0  0  0
 18 19  2  0  0  0
 18 50  1  0  0  0
 19 20  1  0  0  0
 19 51  1  0  0  0
 20 23  1  0  0  0
 20 21  2  0  0  0
 21 22  1  0  0  0
 21 52  1  0  0  0
 22 53  1  0  0  0
 23 25  1  0  0  0
 23 24  2  0  0  0
 24 54  1  0  0  0
 24 63  1  0  0  0
 25 55  1  0  0  0
 25 56  1  0  0  0
 26 27  1  0  0  0
 26 57  1  0  0  0
 26 58  1  0  0  0
 27 59  1  0  0  0
 27 60  1  0  0  0
 28 29  1  0  0  0
 28 61  1  0  0  0
 28 62  1  0  0  0
 29 31  2  0  0  0
 29 30  1  0  0  0
M  CHG  3   7   1  24   1  30  -1
M  END
> <s_m_source_file>
../1k22_ligand.sdf

> <i_m_source_file_index>
1

> <s_epik_input>
W0NIMl0xW0NIMl1bQ0gyXVtDSDJdW0NIMl1bQ0hdMVtDQEBIXShbTkgyK11bQ0gyXUMoPU8pW09IXSlDKD1PKU4yW0NAQEhdKFtDSDJdW0NIMl0yKUMoPU8pW05IXVtDSDJdYzNbY0hdW2NIXWMoW2NIXVtjSF0zKS9DKD1OXFtIXSlbTkgyXQ==

> <s_epik_cmdline>
J2VwaWtfYXBwJywgJy1pbWFlJywgJ2xpZ2FuZF9wcm8ubWFlJywgJy1vbWFlJywgJ2xpZ2FuZF9wcmVwLm1hZScsICctbXMnLCAnMScsICctcGgnLCAnNycsICctcGh0JywgJzAuNScsICctbnQn

> <r_lp_tautomer_probability>
1

> <r_epik_Ionization_Penalty>
  0.1721

> <r_epik_Ionization_Penalty_Charging>
  0.1721

> <r_epik_Ionization_Penalty_Neutral>
  0.0000

> <r_epik_State_Penalty>
 -0.0000

> <r_epik_Charging_Adjusted_Penalty>
0.172058159196904

> <i_epik_Tot_Q>
1

> <i_epik_Tot_abs_Q>
3

> <s_epik_Chemistry_Notes>
This compound has an imine and may undergo hydrolysis.

$$$$
