1k27_ligand
                    3D
 Schrodinger Suite 2020-3.
 38 40  0  0  1  0            999 V2000
   58.5210   13.4930   31.9010 C   0  0  0  0  0  0
   58.5890   14.5390   30.4230 S   0  0  0  0  0  0
   59.2520   16.0890   31.1300 C   0  0  0  0  0  0
   60.7460   16.0410   31.4360 C   0  0  1  0  0  0
   61.4390   15.5330   30.2470 N   0  0  1  0  0  0
   61.9800   17.8430   30.3960 C   0  0  2  0  0  0
   63.3420   18.3630   30.6010 O   0  0  0  0  0  0
   61.3410   17.4070   31.7860 C   0  0  2  0  0  0
   62.3740   17.2840   32.8510 O   0  0  0  0  0  0
   62.0150   16.6010   29.4380 C   0  0  2  0  0  0
   61.1390   16.7030   28.0930 C   0  0  0  0  0  0
   60.8640   15.6420   27.2360 C   0  0  0  0  0  0
   60.1240   15.9570   26.1900 N   0  3  0  0  0  0
   59.8810   17.3110   26.3470 C   0  0  0  0  0  0
   59.1570   18.2780   25.5860 C   0  0  0  0  0  0
   58.5200   17.9650   24.4520 N   0  0  0  0  0  0
   59.1320   19.5860   26.0670 N   0  0  0  0  0  0
   59.7750   19.9130   27.2120 C   0  0  0  0  0  0
   60.4840   19.0820   28.0040 N   0  3  0  0  0  0
   60.4940   17.7950   27.5090 C   0  0  0  0  0  0
   58.1317   12.5005   31.6302 H   0  0  0  0  0  0
   57.8584   13.9556   32.6474 H   0  0  0  0  0  0
   59.5315   13.3880   32.3227 H   0  0  0  0  0  0
   59.0920   16.9137   30.4199 H   0  0  0  0  0  0
   58.7338   16.3124   32.0742 H   0  0  0  0  0  0
   60.8997   15.3651   32.2902 H   0  0  0  0  0  0
   62.2557   14.8642   30.5564 H   0  0  0  0  0  0
   61.4327   18.6791   29.9361 H   0  0  0  0  0  0
   63.5053   19.2371   31.2485 H   0  0  0  0  0  0
   60.6232   18.1088   32.2358 H   0  0  0  0  0  0
   62.0815   16.9889   33.8695 H   0  0  0  0  0  0
   63.0567   16.4076   29.1424 H   0  0  0  0  0  0
   61.2567   14.6390   27.4589 H   0  0  0  0  0  0
   58.5423   16.9315   24.0759 H   0  0  0  0  0  0
   57.9740   18.7411   23.8957 H   0  0  0  0  0  0
   59.7138   20.9548   27.5268 H   0  0  0  0  0  0
   59.8546   15.1849   25.4543 H   0  0  0  0  0  0
   60.9637   19.4673   28.9159 H   0  0  0  0  0  0
  1  2  1  0  0  0
  1 21  1  0  0  0
  1 22  1  0  0  0
  1 23  1  0  0  0
  2  3  1  0  0  0
  3  4  1  0  0  0
  3 24  1  0  0  0
  3 25  1  0  0  0
  4  5  1  0  0  0
  4  8  1  0  0  0
  4 26  1  0  0  0
  5 10  1  0  0  0
  5 27  1  0  0  0
  6  7  1  0  0  0
  6  8  1  0  0  0
  6 10  1  0  0  0
  6 28  1  0  0  0
  7 29  1  0  0  0
  8  9  1  0  0  0
  8 30  1  0  0  0
  9 31  1  0  0  0
 10 11  1  0  0  0
 10 32  1  0  0  0
 11 12  2  0  0  0
 11 20  1  0  0  0
 12 13  1  0  0  0
 12 33  1  0  0  0
 13 14  1  0  0  0
 13 37  1  0  0  0
 14 15  1  0  0  0
 14 20  2  0  0  0
 15 16  1  0  0  0
 15 17  2  0  0  0
 16 34  1  0  0  0
 16 35  1  0  0  0
 17 18  1  0  0  0
 18 19  2  0  0  0
 18 36  1  0  0  0
 19 20  1  0  0  0
 19 38  1  0  0  0
M  CHG  2  13   1  19   1
M  END
> <s_m_source_file>
../1k27_ligand.sdf

> <i_m_source_file_index>
1

> <s_epik_input>
W0NIM11TW0NIMl1bQ0BIXTFbTkgyK11bQ0BIXShbQ0BIXShbT0hdKVtDQEBIXTFbT0hdKWMoW2NIXVtuSF0yKWMoYzIzKW5bY0hdbmMzW05IMl0=

> <s_epik_cmdline>
J2VwaWtfYXBwJywgJy1pbWFlJywgJ2xpZ2FuZF9wcm8ubWFlJywgJy1vbWFlJywgJ2xpZ2FuZF9wcmVwLm1hZScsICctbXMnLCAnMScsICctcGgnLCAnNycsICctcGh0JywgJzAuNScsICctbnQn

> <r_lp_tautomer_probability>
1

> <r_epik_Ionization_Penalty>
  0.0945

> <r_epik_Ionization_Penalty_Charging>
  0.0506

> <r_epik_Ionization_Penalty_Neutral>
  0.0439

> <r_epik_State_Penalty>
 -0.0000

> <r_epik_Charging_Adjusted_Penalty>
0.0506427636279056

> <i_epik_Tot_Q>
2

> <i_epik_Tot_abs_Q>
2

$$$$
