1k2i_ligand
                    3D
 Schrodinger Suite 2020-3.
 20 20  0  0  1  0            999 V2000
   27.6610    1.8660   38.5860 C   0  0  0  0  0  0
   26.9660    2.7040   39.3520 C   0  0  0  0  0  0
   27.0890    2.9510   40.7920 C   0  0  0  0  0  0
   26.6240    4.1620   41.3260 C   0  0  0  0  0  0
   26.7160    4.3990   42.6790 C   0  0  0  0  0  0
   27.6540    2.0020   41.6360 C   0  0  0  0  0  0
   27.7440    2.2420   43.0020 C   0  0  0  0  0  0
   27.2690    3.4470   43.5130 C   0  0  0  0  0  0
   27.3370    3.7200   44.8580 O   0  0  0  0  0  0
   26.0660    5.1130   40.5050 O   0  0  0  0  0  0
   27.3410    1.7760   37.1560 C   0  0  0  0  0  0
   26.9590    0.7370   36.6120 O   0  0  0  0  0  0
   28.4617    1.2537   39.0265 H   0  0  0  0  0  0
   26.1755    3.3273   38.9087 H   0  0  0  0  0  0
   26.3519    5.3394   43.0927 H   0  0  0  0  0  0
   28.0284    1.0647   41.2244 H   0  0  0  0  0  0
   28.1812    1.4958   43.6654 H   0  0  0  0  0  0
   26.9570    4.6771   45.2449 H   0  0  0  0  0  0
   25.9898    4.9293   39.4231 H   0  0  0  0  0  0
   27.4566    2.6962   36.5644 H   0  0  0  0  0  0
  1  2  2  0  0  0
  1 11  1  0  0  0
  1 13  1  0  0  0
  2  3  1  0  0  0
  2 14  1  0  0  0
  3  4  2  0  0  0
  3  6  1  0  0  0
  4  5  1  0  0  0
  4 10  1  0  0  0
  5  8  2  0  0  0
  5 15  1  0  0  0
  6  7  2  0  0  0
  6 16  1  0  0  0
  7  8  1  0  0  0
  7 17  1  0  0  0
  8  9  1  0  0  0
  9 18  1  0  0  0
 10 19  1  0  0  0
 11 12  2  0  0  0
 11 20  1  0  0  0
M  END
> <s_m_source_file>
../1k2i_ligand.sdf

> <i_m_source_file_index>
1

> <s_epik_input>
Tz1bQ0hdL1tDSF09W0NIXS9jMWMoW09IXSlbY0hdYyhbT0hdKVtjSF1bY0hdMQ==

> <s_epik_cmdline>
J2VwaWtfYXBwJywgJy1pbWFlJywgJ2xpZ2FuZF9wcm8ubWFlJywgJy1vbWFlJywgJ2xpZ2FuZF9wcmVwLm1hZScsICctbXMnLCAnMScsICctcGgnLCAnNycsICctcGh0JywgJzAuNScsICctbnQn

> <r_epik_Ionization_Penalty>
  0.5581

> <r_epik_Ionization_Penalty_Charging>
  0.0000

> <r_epik_Ionization_Penalty_Neutral>
  0.5581

> <r_epik_State_Penalty>
  0.4590

> <r_epik_Charging_Adjusted_Penalty>
0.459028060152764

> <i_epik_Tot_Q>
0

> <i_epik_Tot_abs_Q>
0

$$$$
