1k2v_ligand
                    3D
 Schrodinger Suite 2020-3.
 71 75  0  0  1  0            999 V2000
   24.8950   -7.1950  -29.6650 Fe  0  0  0  0  0  0
   24.9780   -5.2650  -30.0300 O   0  0  0  0  0  0
   24.4400   -6.5410  -27.8780 O   0  0  0  0  0  0
   23.0230   -7.7500  -29.8750 O   0  0  0  0  0  0
   24.8780   -7.2720  -31.6130 O   0  0  0  0  0  0
   26.7340   -6.9720  -30.2790 O   0  0  0  0  0  0
   25.5220   -9.0530  -29.2860 O   0  0  0  0  0  0
   24.6820   -4.5800  -28.8940 N   0  0  0  0  0  0
   24.4020   -5.2860  -27.7960 C   0  0  0  0  0  0
   24.0290   -4.6080  -26.4230 C   0  0  0  0  0  0
   22.5590   -4.0590  -26.3770 C   0  0  0  0  0  0
   21.4560   -5.1600  -26.3910 C   0  0  0  0  0  0
   21.4410   -6.0510  -25.4830 O   0  0  0  0  0  0
   20.4960   -5.1380  -27.3900 N   0  0  0  0  0  0
   19.5600   -6.1420  -27.2930 C   0  0  0  0  0  0
   19.9880   -7.3670  -28.1550 C   0  0  0  0  0  0
   20.4430   -8.3620  -30.4260 C   0  0  0  0  0  0
   20.0000   -7.0800  -29.6760 C   0  0  0  0  0  0
   21.4250   -8.0490  -31.5830 C   0  0  0  0  0  0
   22.7050   -7.7460  -31.1710 N   0  0  0  0  0  0
   23.6930   -7.4970  -32.0460 C   0  0  0  0  0  0
   23.3280   -7.5600  -33.5900 C   0  0  0  0  0  0
   24.5260   -7.2960  -34.5910 C   0  0  0  0  0  0
   25.4240   -6.0690  -34.2480 C   0  0  0  0  0  0
   24.9020   -4.9770  -33.9540 O   0  0  0  0  0  0
   26.7890   -6.2240  -34.2790 N   0  0  0  0  0  0
   27.5330   -5.1140  -33.9580 C   0  0  0  0  0  0
   28.9040   -5.5720  -33.3510 C   0  0  0  0  0  0
   28.6690   -6.8770  -32.5510 C   0  0  0  0  0  0
   29.2310   -6.8650  -31.1150 C   0  0  0  0  0  0
   28.8010   -8.2000  -30.4200 C   0  0  0  0  0  0
   27.4460   -8.1340  -30.0740 N   0  0  0  0  0  0
   26.7700   -9.1850  -29.5580 C   0  0  0  0  0  0
   27.5220  -10.5310  -29.3250 C   0  0  0  0  0  0
   24.6810   -3.2170  -28.9060 C   0  0  0  0  0  0
   24.1324   -5.3430  -25.6111 H   0  0  0  0  0  0
   24.7041   -3.7595  -26.2376 H   0  0  0  0  0  0
   22.4147   -3.4740  -25.4567 H   0  0  0  0  0  0
   22.3800   -3.4164  -27.2517 H   0  0  0  0  0  0
   20.4372   -4.4087  -28.2114 H   0  0  0  0  0  0
   19.4676   -6.4570  -26.2431 H   0  0  0  0  0  0
   18.5879   -5.7730  -27.6520 H   0  0  0  0  0  0
   21.0043   -7.6778  -27.8713 H   0  0  0  0  0  0
   19.2888   -8.1986  -27.9831 H   0  0  0  0  0  0
   20.9465   -9.0423  -29.7234 H   0  0  0  0  0  0
   19.5601   -8.8617  -30.8512 H   0  0  0  0  0  0
   18.9906   -6.7887  -30.0021 H   0  0  0  0  0  0
   20.7044   -6.2625  -29.8894 H   0  0  0  0  0  0
   21.4982   -8.9221  -32.2481 H   0  0  0  0  0  0
   21.0561   -7.1836  -32.1531 H   0  0  0  0  0  0
   22.9374   -8.5589  -33.8339 H   0  0  0  0  0  0
   22.5640   -6.8020  -33.8174 H   0  0  0  0  0  0
   25.1897   -8.1730  -34.6079 H   0  0  0  0  0  0
   24.1277   -7.1182  -35.6008 H   0  0  0  0  0  0
   27.2922   -7.1665  -34.5409 H   0  0  0  0  0  0
   27.7111   -4.5172  -34.8647 H   0  0  0  0  0  0
   26.9868   -4.5070  -33.2210 H   0  0  0  0  0  0
   29.6231   -5.7518  -34.1638 H   0  0  0  0  0  0
   29.2914   -4.7861  -32.6859 H   0  0  0  0  0  0
   27.5886   -7.0661  -32.4671 H   0  0  0  0  0  0
   29.1491   -7.7182  -33.0724 H   0  0  0  0  0  0
   30.3279   -6.7903  -31.1512 H   0  0  0  0  0  0
   28.8225   -6.0021  -30.5686 H   0  0  0  0  0  0
   28.9614   -9.0411  -31.1106 H   0  0  0  0  0  0
   29.4032   -8.3512  -29.5120 H   0  0  0  0  0  0
   26.8263  -11.2715  -28.9034 H   0  0  0  0  0  0
   28.3544  -10.3694  -28.6243 H   0  0  0  0  0  0
   27.9158  -10.9016  -30.2829 H   0  0  0  0  0  0
   24.9388   -2.8590  -29.9137 H   0  0  0  0  0  0
   25.4216   -2.8434  -28.1835 H   0  0  0  0  0  0
   23.6818   -2.8486  -28.6305 H   0  0  0  0  0  0
  1  2  1  0  0  0
  1  3  1  0  0  0
  1  4  1  0  0  0
  1  5  1  0  0  0
  1  6  1  0  0  0
  1  7  1  0  0  0
  2  8  1  0  0  0
  3  9  2  0  0  0
  4 20  1  0  0  0
  5 21  2  0  0  0
  6 32  1  0  0  0
  7 33  2  0  0  0
  8  9  1  0  0  0
  8 35  1  0  0  0
  9 10  1  0  0  0
 10 11  1  0  0  0
 10 36  1  0  0  0
 10 37  1  0  0  0
 11 12  1  0  0  0
 11 38  1  0  0  0
 11 39  1  0  0  0
 12 13  2  0  0  0
 12 14  1  0  0  0
 14 15  1  0  0  0
 14 40  1  0  0  0
 15 16  1  0  0  0
 15 41  1  0  0  0
 15 42  1  0  0  0
 16 18  1  0  0  0
 16 43  1  0  0  0
 16 44  1  0  0  0
 17 18  1  0  0  0
 17 19  1  0  0  0
 17 45  1  0  0  0
 17 46  1  0  0  0
 18 47  1  0  0  0
 18 48  1  0  0  0
 19 20  1  0  0  0
 19 49  1  0  0  0
 19 50  1  0  0  0
 20 21  1  0  0  0
 21 22  1  0  0  0
 22 23  1  0  0  0
 22 51  1  0  0  0
 22 52  1  0  0  0
 23 24  1  0  0  0
 23 53  1  0  0  0
 23 54  1  0  0  0
 24 25  2  0  0  0
 24 26  1  0  0  0
 26 27  1  0  0  0
 26 55  1  0  0  0
 27 28  1  0  0  0
 27 56  1  0  0  0
 27 57  1  0  0  0
 28 29  1  0  0  0
 28 58  1  0  0  0
 28 59  1  0  0  0
 29 30  1  0  0  0
 29 60  1  0  0  0
 29 61  1  0  0  0
 30 31  1  0  0  0
 30 62  1  0  0  0
 30 63  1  0  0  0
 31 32  1  0  0  0
 31 64  1  0  0  0
 31 65  1  0  0  0
 32 33  1  0  0  0
 33 34  1  0  0  0
 34 66  1  0  0  0
 34 67  1  0  0  0
 34 68  1  0  0  0
 35 69  1  0  0  0
 35 70  1  0  0  0
 35 71  1  0  0  0
M  END
> <s_m_source_file>
../1k2v_ligand.sdf

> <i_m_source_file_index>
1

> <s_epik_input>
W0ZlXTEyMzQ1T04oW0NIM10pQyg9W09dMSlbQ0gyXVtDSDJdQyg9TylbTkhdW0NIMl1bQ0gyXVtDSDJdW0NIMl1bQ0gyXU4oTzIpQyg9W09dMylbQ0gyXVtDSDJdQyg9TylbTkhdW0NIMl1bQ0gyXVtDSDJdW0NIMl1bQ0gyXU4oTzQpQyg9W09dNSlbQ0gzXQ==

> <s_epik_cmdline>
J2VwaWtfYXBwJywgJy1pbWFlJywgJ2xpZ2FuZF9wcm8ubWFlJywgJy1vbWFlJywgJ2xpZ2FuZF9wcmVwLm1hZScsICctbXMnLCAnMScsICctcGgnLCAnNycsICctcGh0JywgJzAuNScsICctbnQn

> <r_lp_tautomer_probability>
1

> <r_epik_Ionization_Penalty>
  0.0000

> <r_epik_Ionization_Penalty_Charging>
  0.0000

> <r_epik_Ionization_Penalty_Neutral>
  0.0000

> <r_epik_State_Penalty>
 -0.0000

> <r_epik_Charging_Adjusted_Penalty>
0

> <i_epik_Tot_Q>
0

> <i_epik_Tot_abs_Q>
0

> <s_epik_Chemistry_Notes>
This compound has a N-S or N-O group and may undergo hydrolysis at high or low pH.

$$$$
