1k3n_ligand
                    3D
 Schrodinger Suite 2020-3.
225227  0  0  1  0            999 V2000
   -9.3640  -26.7210  -10.1300 N   0  3  0  0  0  0
   -9.8410  -26.0320  -11.3600 C   0  0  2  0  0  0
   -8.8300  -26.1700  -12.4940 C   0  0  0  0  0  0
   -7.6500  -26.4340  -12.2600 O   0  0  0  0  0  0
  -10.0720  -24.5560  -11.0320 C   0  0  0  0  0  0
  -11.5040  -24.2390  -10.6340 C   0  0  0  0  0  0
  -11.6110  -22.8710   -9.9810 C   0  0  0  0  0  0
  -12.8730  -22.1440  -10.4140 C   0  0  0  0  0  0
  -12.7240  -20.6650  -10.3140 N   0  3  0  0  0  0
   -9.3010  -25.9860  -13.7240 N   0  0  0  0  0  0
   -8.4400  -26.0890  -14.8960 C   0  0  2  0  0  0
   -8.9880  -25.2540  -16.0480 C   0  0  0  0  0  0
  -10.0470  -25.5560  -16.5980 O   0  0  0  0  0  0
   -8.3050  -27.5510  -15.3280 C   0  0  0  0  0  0
   -7.0880  -28.2500  -14.7420 C   0  0  0  0  0  0
   -6.1060  -28.6670  -15.8250 C   0  0  0  0  0  0
   -4.6680  -28.3980  -15.4100 C   0  0  0  0  0  0
   -4.1360  -27.1520  -16.0250 N   0  3  0  0  0  0
   -8.2610  -24.2010  -16.4090 N   0  0  0  0  0  0
   -8.6750  -23.3230  -17.4950 C   0  0  2  0  0  0
   -7.4620  -22.7720  -18.2420 C   0  0  0  0  0  0
   -6.3190  -23.0320  -17.8650 O   0  0  0  0  0  0
   -9.5220  -22.1700  -16.9520 C   0  0  0  0  0  0
  -10.7530  -21.8710  -17.7930 C   0  0  0  0  0  0
  -10.8940  -20.1260  -18.2310 S   0  0  0  0  0  0
  -12.3330  -19.6510  -17.2780 C   0  0  0  0  0  0
   -7.7200  -22.0120  -19.3000 N   0  0  0  0  0  0
   -6.6490  -21.4250  -20.0990 C   0  0  2  0  0  0
   -6.3060  -20.0250  -19.6020 C   0  0  0  0  0  0
   -7.1690  -19.3040  -19.1020 O   0  0  0  0  0  0
   -7.0540  -21.3710  -21.5730 C   0  0  2  0  0  0
   -7.8560  -22.4870  -21.9140 O   0  0  0  0  0  0
   -5.8710  -21.3500  -22.5170 C   0  0  0  0  0  0
   -5.0400  -19.6460  -19.7450 N   0  0  0  0  0  0
   -4.5820  -18.3310  -19.3110 C   0  0  2  0  0  0
   -5.2310  -17.2280  -20.1410 C   0  0  0  0  0  0
   -5.7720  -17.4830  -21.2170 O   0  0  0  0  0  0
   -3.0600  -18.2370  -19.4170 C   0  0  0  0  0  0
   -2.5170  -18.7290  -20.7290 C   0  0  0  0  0  0
   -2.8120  -18.0650  -21.9090 C   0  0  0  0  0  0
   -1.7110  -19.8540  -20.7810 C   0  0  0  0  0  0
   -2.3130  -18.5160  -23.1170 C   0  0  0  0  0  0
   -1.2080  -20.3090  -21.9870 C   0  0  0  0  0  0
   -1.5110  -19.6390  -23.1560 C   0  0  0  0  0  0
   -5.1720  -16.0010  -19.6330 N   0  0  0  0  0  0
   -5.7530  -14.8570  -20.3270 C   0  0  2  0  0  0
   -4.6730  -14.0380  -21.0260 C   0  0  0  0  0  0
   -4.6890  -13.8840  -22.2470 O   0  0  0  0  0  0
   -6.5220  -13.9750  -19.3430 C   0  0  0  0  0  0
   -7.5290  -13.0530  -20.0120 C   0  0  0  0  0  0
   -8.7070  -12.7280  -19.1110 C   0  0  0  0  0  0
   -8.9640  -11.5640  -18.8040 O   0  0  0  0  0  0
   -9.4280  -13.7570  -18.6870 N   0  0  0  0  0  0
   -3.7350  -13.5160  -20.2430 N   0  0  0  0  0  0
   -2.6460  -12.7120  -20.7850 C   0  0  1  0  0  0
   -2.5180  -11.3680  -20.0390 C   0  0  1  0  0  0
   -1.3630  -10.5440  -20.5890 C   0  0  0  0  0  0
   -3.7100  -10.6390  -20.1610 O   0  0  0  0  0  0
   -4.2150   -9.8440  -18.9170 P   0  0  0  0  0  0
   -5.6020   -9.2940  -19.3390 O   0  0  0  0  0  0
   -4.4080  -10.9170  -17.8160 O   0  0  0  0  0  0
   -3.2660   -8.7570  -18.5030 O   0  0  0  0  0  0
   -1.3200  -13.4650  -20.6960 C   0  0  0  0  0  0
   -0.6500  -13.4370  -19.6630 O   0  0  0  0  0  0
   -0.9200  -14.1520  -21.7820 N   0  0  0  0  0  0
    0.3350  -14.9130  -21.8140 C   0  0  2  0  0  0
    1.5610  -14.0100  -21.7340 C   0  0  0  0  0  0
    2.0820  -13.5610  -22.7560 O   0  0  0  0  0  0
    0.2850  -15.6340  -23.1640 C   0  0  0  0  0  0
   -0.6340  -14.8160  -24.0010 C   0  0  0  0  0  0
   -1.6530  -14.2430  -23.0580 C   0  0  0  0  0  0
    2.0210  -13.7500  -20.5150 N   0  0  0  0  0  0
    3.1870  -12.9020  -20.3010 C   0  0  2  0  0  0
    4.4770  -13.6870  -20.5140 C   0  0  0  0  0  0
    4.7080  -14.7080  -19.8670 O   0  0  0  0  0  0
    3.1640  -12.3130  -18.8900 C   0  0  2  0  0  0
    1.9390  -11.6440  -18.6460 O   0  0  0  0  0  0
    4.2850  -11.3270  -18.6340 C   0  0  0  0  0  0
    5.3160  -13.2030  -21.4250 N   0  0  0  0  0  0
    6.5820  -13.8610  -21.7220 C   0  0  2  0  0  0
    7.4650  -13.9300  -20.4750 C   0  0  0  0  0  0
    7.7160  -12.9130  -19.8300 O   0  0  0  0  0  0
    7.3160  -13.1150  -22.8390 C   0  0  0  0  0  0
    6.6530  -13.2980  -24.1890 C   0  0  0  0  0  0
    6.2360  -14.4340  -24.4970 O   0  0  0  0  0  0
    6.5500  -12.3040  -24.9390 O   0  0  0  0  0  0
    7.9500  -15.1340  -20.1170 N   0  0  0  0  0  0
    8.8050  -15.3160  -18.9390 C   0  0  2  0  0  0
   10.0120  -14.3850  -18.9520 C   0  0  0  0  0  0
   10.9520  -14.5830  -19.7220 O   0  0  0  0  0  0
    9.2560  -16.7750  -19.0460 C   0  0  0  0  0  0
    8.1980  -17.4430  -19.8560 C   0  0  0  0  0  0
    7.7070  -16.4040  -20.8250 C   0  0  0  0  0  0
    9.9800  -13.3710  -18.0940 N   0  0  0  0  0  0
   11.0720  -12.4080  -18.0070 C   0  0  2  0  0  0
   10.8610  -11.4480  -16.8410 C   0  0  0  0  0  0
    9.8760  -11.5480  -16.1110 O   0  0  0  0  0  0
   11.1910  -11.6220  -19.3140 C   0  0  0  0  0  0
    9.9790  -10.7550  -19.6620 C   0  0  0  0  0  0
   10.1850   -9.3280  -19.1740 C   0  0  0  0  0  0
    9.7200  -10.7740  -21.1610 C   0  0  0  0  0  0
   11.7930  -10.5150  -16.6740 N   0  0  0  0  0  0
   11.7080   -9.5350  -15.5970 C   0  0  2  0  0  0
   12.2250   -8.1760  -16.0570 C   0  0  0  0  0  0
   13.3560   -8.1210  -16.5850 O   0  0  0  0  0  0
   12.5060  -10.0130  -14.3810 C   0  0  0  0  0  0
   11.6620  -10.7490  -13.3530 C   0  0  0  0  0  0
   11.2920   -9.8790  -12.1680 C   0  0  0  0  0  0
   12.1680   -9.1260  -11.6880 O   0  0  0  0  0  0
   10.1280   -9.9470  -11.7220 O   0  0  0  0  0  0
   11.4940   -7.1780  -15.8860 O   0  0  0  0  0  0
   -9.1927  -27.7853  -10.3489 H   0  0  0  0  0  0
  -10.1229  -26.6268   -9.3393 H   0  0  0  0  0  0
   -8.4239  -26.2601   -9.7928 H   0  0  0  0  0  0
  -10.7773  -26.5154  -11.6758 H   0  0  0  0  0  0
   -9.4247  -24.2612  -10.1929 H   0  0  0  0  0  0
   -9.8322  -23.9427  -11.9131 H   0  0  0  0  0  0
  -12.1439  -24.2486  -11.5287 H   0  0  0  0  0  0
  -11.8618  -24.9947   -9.9193 H   0  0  0  0  0  0
  -11.6344  -22.9875   -8.8874 H   0  0  0  0  0  0
  -10.7421  -22.2596  -10.2660 H   0  0  0  0  0  0
  -13.1015  -22.3973  -11.4598 H   0  0  0  0  0  0
  -13.7114  -22.4500   -9.7710 H   0  0  0  0  0  0
  -13.6573  -20.1799  -10.6359 H   0  0  0  0  0  0
  -11.8974  -20.3352  -10.9606 H   0  0  0  0  0  0
  -12.5073  -20.3880   -9.2718 H   0  0  0  0  0  0
  -10.3688  -25.7509  -13.8449 H   0  0  0  0  0  0
   -7.4653  -25.6881  -14.5808 H   0  0  0  0  0  0
   -9.1936  -28.1126  -15.0040 H   0  0  0  0  0  0
   -8.2176  -27.6031  -16.4233 H   0  0  0  0  0  0
   -6.5720  -27.5688  -14.0494 H   0  0  0  0  0  0
   -7.4089  -29.1512  -14.1989 H   0  0  0  0  0  0
   -6.2146  -29.7435  -16.0236 H   0  0  0  0  0  0
   -6.3134  -28.1016  -16.7455 H   0  0  0  0  0  0
   -4.6158  -28.2914  -14.3164 H   0  0  0  0  0  0
   -4.0316  -29.2372  -15.7274 H   0  0  0  0  0  0
   -3.0970  -26.9968  -15.6989 H   0  0  0  0  0  0
   -4.7509  -26.2961  -15.7099 H   0  0  0  0  0  0
   -4.1668  -27.2419  -17.1209 H   0  0  0  0  0  0
   -7.3261  -24.0001  -15.8653 H   0  0  0  0  0  0
   -9.2716  -23.9547  -18.1696 H   0  0  0  0  0  0
   -9.8689  -22.4160  -15.9375 H   0  0  0  0  0  0
   -8.9154  -21.2529  -16.9197 H   0  0  0  0  0  0
  -10.7078  -22.4493  -18.7276 H   0  0  0  0  0  0
  -11.6570  -22.1506  -17.2322 H   0  0  0  0  0  0
  -12.5488  -18.5856  -17.4461 H   0  0  0  0  0  0
  -12.1374  -19.8212  -16.2090 H   0  0  0  0  0  0
  -13.1971  -20.2543  -17.5933 H   0  0  0  0  0  0
   -8.7707  -21.8288  -19.5692 H   0  0  0  0  0  0
   -5.7821  -22.0883  -19.9628 H   0  0  0  0  0  0
   -7.6694  -20.4714  -21.7210 H   0  0  0  0  0  0
   -8.7771  -22.6953  -21.3499 H   0  0  0  0  0  0
   -5.2261  -20.4917  -22.2776 H   0  0  0  0  0  0
   -6.2301  -21.2612  -23.5529 H   0  0  0  0  0  0
   -5.2971  -22.2819  -22.4065 H   0  0  0  0  0  0
   -4.3314  -20.3515  -20.2034 H   0  0  0  0  0  0
   -4.8998  -18.2406  -18.2618 H   0  0  0  0  0  0
   -2.7488  -17.1879  -19.3054 H   0  0  0  0  0  0
   -2.5990  -18.8427  -18.6228 H   0  0  0  0  0  0
   -3.4443  -17.1775  -21.8846 H   0  0  0  0  0  0
   -1.4701  -20.3871  -19.8613 H   0  0  0  0  0  0
   -2.5528  -17.9850  -24.0382 H   0  0  0  0  0  0
   -0.5736  -21.1949  -22.0144 H   0  0  0  0  0  0
   -1.1176  -19.9962  -24.1077 H   0  0  0  0  0  0
   -4.6696  -15.8597  -18.6647 H   0  0  0  0  0  0
   -6.4359  -15.2834  -21.0765 H   0  0  0  0  0  0
   -7.0766  -14.6106  -18.6370 H   0  0  0  0  0  0
   -5.8144  -13.3415  -18.7880 H   0  0  0  0  0  0
   -7.0372  -12.1066  -20.2813 H   0  0  0  0  0  0
   -7.9200  -13.5345  -20.9205 H   0  0  0  0  0  0
   -9.1579  -14.7796  -18.9892 H   0  0  0  0  0  0
  -10.2962  -13.5880  -18.0331 H   0  0  0  0  0  0
   -3.7944  -13.7035  -19.1607 H   0  0  0  0  0  0
   -2.9247  -12.5493  -21.8366 H   0  0  0  0  0  0
   -2.3922  -11.5273  -18.9579 H   0  0  0  0  0  0
   -0.4275  -11.1147  -20.4939 H   0  0  0  0  0  0
   -1.2793   -9.6054  -20.0215 H   0  0  0  0  0  0
   -1.5474  -10.3162  -21.6492 H   0  0  0  0  0  0
   -6.3921   -9.9863  -19.6655 H   0  0  0  0  0  0
   -5.0794  -11.7705  -17.9914 H   0  0  0  0  0  0
    0.3908  -15.5787  -20.9401 H   0  0  0  0  0  0
    1.2965  -15.6776  -23.5940 H   0  0  0  0  0  0
   -0.0966  -16.6556  -23.0202 H   0  0  0  0  0  0
   -0.0633  -14.0197  -24.5012 H   0  0  0  0  0  0
   -1.1092  -15.4573  -24.7579 H   0  0  0  0  0  0
   -2.5265  -14.8998  -22.9330 H   0  0  0  0  0  0
   -1.9887  -13.2401  -23.3604 H   0  0  0  0  0  0
    1.4979  -14.1932  -19.6548 H   0  0  0  0  0  0
    3.1098  -12.1035  -21.0536 H   0  0  0  0  0  0
    3.2274  -13.1478  -18.1765 H   0  0  0  0  0  0
    0.9858  -12.1783  -18.7725 H   0  0  0  0  0  0
    5.2529  -11.8171  -18.8153 H   0  0  0  0  0  0
    4.2385  -10.9818  -17.5906 H   0  0  0  0  0  0
    4.1776  -10.4661  -19.3102 H   0  0  0  0  0  0
    5.0353  -12.2835  -21.9596 H   0  0  0  0  0  0
    6.3148  -14.8773  -22.0471 H   0  0  0  0  0  0
    7.3323  -12.0388  -22.6119 H   0  0  0  0  0  0
    8.3475  -13.4896  -22.9139 H   0  0  0  0  0  0
    6.0734  -12.4061  -25.9251 H   0  0  0  0  0  0
    8.2406  -15.0728  -18.0267 H   0  0  0  0  0  0
   10.2373  -16.8201  -19.5409 H   0  0  0  0  0  0
    9.3332  -17.2098  -18.0385 H   0  0  0  0  0  0
    8.6299  -18.3070  -20.3822 H   0  0  0  0  0  0
    7.3893  -17.7842  -19.1930 H   0  0  0  0  0  0
    6.6327  -16.5047  -21.0391 H   0  0  0  0  0  0
    8.2713  -16.4112  -21.7692 H   0  0  0  0  0  0
    9.1021  -13.2676  -17.4393 H   0  0  0  0  0  0
   11.9779  -13.0071  -17.8326 H   0  0  0  0  0  0
   12.0560  -10.9448  -19.2571 H   0  0  0  0  0  0
   11.3277  -12.3218  -20.1516 H   0  0  0  0  0  0
    9.0941  -11.1681  -19.1558 H   0  0  0  0  0  0
   10.3706   -9.3345  -18.0898 H   0  0  0  0  0  0
    9.2846   -8.7336  -19.3883 H   0  0  0  0  0  0
   11.0487   -8.8847  -19.6912 H   0  0  0  0  0  0
    9.5738  -11.8119  -21.4947 H   0  0  0  0  0  0
   10.5815  -10.3375  -21.6875 H   0  0  0  0  0  0
    8.8174  -10.1864  -21.3846 H   0  0  0  0  0  0
   12.6431  -10.4930  -17.3718 H   0  0  0  0  0  0
   10.6384   -9.4594  -15.3517 H   0  0  0  0  0  0
   13.7569   -7.1555  -16.9272 H   0  0  0  0  0  0
   13.2985  -10.7013  -14.7100 H   0  0  0  0  0  0
   12.9588   -9.1470  -13.8761 H   0  0  0  0  0  0
   10.7286  -11.0924  -13.8230 H   0  0  0  0  0  0
   12.2215  -11.6162  -12.9723 H   0  0  0  0  0  0
   11.9294   -8.4829  -10.8280 H   0  0  0  0  0  0
  1  2  1  0  0  0
  1112  1  0  0  0
  1113  1  0  0  0
  1114  1  0  0  0
  2  3  1  0  0  0
  2  5  1  0  0  0
  2115  1  0  0  0
  3  4  2  0  0  0
  3 10  1  0  0  0
  5  6  1  0  0  0
  5116  1  0  0  0
  5117  1  0  0  0
  6  7  1  0  0  0
  6118  1  0  0  0
  6119  1  0  0  0
  7  8  1  0  0  0
  7120  1  0  0  0
  7121  1  0  0  0
  8  9  1  0  0  0
  8122  1  0  0  0
  8123  1  0  0  0
  9124  1  0  0  0
  9125  1  0  0  0
  9126  1  0  0  0
 10 11  1  0  0  0
 10127  1  0  0  0
 11 12  1  0  0  0
 11 14  1  0  0  0
 11128  1  0  0  0
 12 13  2  0  0  0
 12 19  1  0  0  0
 14 15  1  0  0  0
 14129  1  0  0  0
 14130  1  0  0  0
 15 16  1  0  0  0
 15131  1  0  0  0
 15132  1  0  0  0
 16 17  1  0  0  0
 16133  1  0  0  0
 16134  1  0  0  0
 17 18  1  0  0  0
 17135  1  0  0  0
 17136  1  0  0  0
 18137  1  0  0  0
 18138  1  0  0  0
 18139  1  0  0  0
 19 20  1  0  0  0
 19140  1  0  0  0
 20 21  1  0  0  0
 20 23  1  0  0  0
 20141  1  0  0  0
 21 22  2  0  0  0
 21 27  1  0  0  0
 23 24  1  0  0  0
 23142  1  0  0  0
 23143  1  0  0  0
 24 25  1  0  0  0
 24144  1  0  0  0
 24145  1  0  0  0
 25 26  1  0  0  0
 26146  1  0  0  0
 26147  1  0  0  0
 26148  1  0  0  0
 27 28  1  0  0  0
 27149  1  0  0  0
 28 29  1  0  0  0
 28 31  1  0  0  0
 28150  1  0  0  0
 29 30  2  0  0  0
 29 34  1  0  0  0
 31 32  1  0  0  0
 31 33  1  0  0  0
 31151  1  0  0  0
 32152  1  0  0  0
 33153  1  0  0  0
 33154  1  0  0  0
 33155  1  0  0  0
 34 35  1  0  0  0
 34156  1  0  0  0
 35 36  1  0  0  0
 35 38  1  0  0  0
 35157  1  0  0  0
 36 37  2  0  0  0
 36 45  1  0  0  0
 38 39  1  0  0  0
 38158  1  0  0  0
 38159  1  0  0  0
 39 40  2  0  0  0
 39 41  1  0  0  0
 40 42  1  0  0  0
 40160  1  0  0  0
 41 43  2  0  0  0
 41161  1  0  0  0
 42 44  2  0  0  0
 42162  1  0  0  0
 43 44  1  0  0  0
 43163  1  0  0  0
 44164  1  0  0  0
 45 46  1  0  0  0
 45165  1  0  0  0
 46 47  1  0  0  0
 46 49  1  0  0  0
 46166  1  0  0  0
 47 48  2  0  0  0
 47 54  1  0  0  0
 49 50  1  0  0  0
 49167  1  0  0  0
 49168  1  0  0  0
 50 51  1  0  0  0
 50169  1  0  0  0
 50170  1  0  0  0
 51 52  2  0  0  0
 51 53  1  0  0  0
 53171  1  0  0  0
 53172  1  0  0  0
 54 55  1  0  0  0
 54173  1  0  0  0
 55 56  1  0  0  0
 55 63  1  0  0  0
 55174  1  0  0  0
 56 57  1  0  0  0
 56 58  1  0  0  0
 56175  1  0  0  0
 57176  1  0  0  0
 57177  1  0  0  0
 57178  1  0  0  0
 58 59  1  0  0  0
 59 60  1  0  0  0
 59 61  1  0  0  0
 59 62  2  0  0  0
 60179  1  0  0  0
 61180  1  0  0  0
 63 64  2  0  0  0
 63 65  1  0  0  0
 65 66  1  0  0  0
 65 71  1  0  0  0
 66 67  1  0  0  0
 66 69  1  0  0  0
 66181  1  0  0  0
 67 68  2  0  0  0
 67 72  1  0  0  0
 69 70  1  0  0  0
 69182  1  0  0  0
 69183  1  0  0  0
 70 71  1  0  0  0
 70184  1  0  0  0
 70185  1  0  0  0
 71186  1  0  0  0
 71187  1  0  0  0
 72 73  1  0  0  0
 72188  1  0  0  0
 73 74  1  0  0  0
 73 76  1  0  0  0
 73189  1  0  0  0
 74 75  2  0  0  0
 74 79  1  0  0  0
 76 77  1  0  0  0
 76 78  1  0  0  0
 76190  1  0  0  0
 77191  1  0  0  0
 78192  1  0  0  0
 78193  1  0  0  0
 78194  1  0  0  0
 79 80  1  0  0  0
 79195  1  0  0  0
 80 81  1  0  0  0
 80 83  1  0  0  0
 80196  1  0  0  0
 81 82  2  0  0  0
 81 87  1  0  0  0
 83 84  1  0  0  0
 83197  1  0  0  0
 83198  1  0  0  0
 84 85  2  0  0  0
 84 86  1  0  0  0
 86199  1  0  0  0
 87 88  1  0  0  0
 87 93  1  0  0  0
 88 89  1  0  0  0
 88 91  1  0  0  0
 88200  1  0  0  0
 89 90  2  0  0  0
 89 94  1  0  0  0
 91 92  1  0  0  0
 91201  1  0  0  0
 91202  1  0  0  0
 92 93  1  0  0  0
 92203  1  0  0  0
 92204  1  0  0  0
 93205  1  0  0  0
 93206  1  0  0  0
 94 95  1  0  0  0
 94207  1  0  0  0
 95 96  1  0  0  0
 95 98  1  0  0  0
 95208  1  0  0  0
 96 97  2  0  0  0
 96102  1  0  0  0
 98 99  1  0  0  0
 98209  1  0  0  0
 98210  1  0  0  0
 99100  1  0  0  0
 99101  1  0  0  0
 99211  1  0  0  0
100212  1  0  0  0
100213  1  0  0  0
100214  1  0  0  0
101215  1  0  0  0
101216  1  0  0  0
101217  1  0  0  0
102103  1  0  0  0
102218  1  0  0  0
103104  1  0  0  0
103106  1  0  0  0
103219  1  0  0  0
104105  1  0  0  0
104111  2  0  0  0
105220  1  0  0  0
106107  1  0  0  0
106221  1  0  0  0
106222  1  0  0  0
107108  1  0  0  0
107223  1  0  0  0
107224  1  0  0  0
108109  1  0  0  0
108110  2  0  0  0
109225  1  0  0  0
M  CHG  3   1   1   9   1  18   1
M  END
> <s_m_source_file>
../1k3n_ligand.sdf

> <i_m_source_file_index>
1

> <s_epik_input>
W05IMytdW0NIMl1bQ0gyXVtDSDJdW0NIMl1bQ0BIXShbTkgzK10pQyg9TylbTkhdW0NAQEhdKFtDSDJdW0NIMl1bQ0gyXVtDSDJdW05IMytdKUMoPU8pW05IXVtDQEBIXShbQ0gyXVtDSDJdU1tDSDNdKUMoPU8pW05IXVtDQEBIXShbQ0BIXShbT0hdKVtDSDNdKUMoPU8pW05IXVtDQEBIXShbQ0gyXWMxW2NIXVtjSF1bY0hdW2NIXVtjSF0xKUMoPU8pW05IXVtDQEBIXShbQ0gyXVtDSDJdQyg9TylbTkgyXSlDKD1PKVtOSF1bQ0BASF0oW0NAQEhdKFtDSDNdKU9QKD1PKShbT0hdKVtPSF0pQyg9TylOMltDQEBIXShbQ0gyXVtDSDJdW0NIMl0yKUMoPU8pW05IXVtDQEBIXShbQ0BIXShbT0hdKVtDSDNdKUMoPU8pW05IXVtDQEBIXShbQ0gyXUMoPU8pW09IXSlDKD1PKU4zW0NAQEhdKFtDSDJdW0NIMl1bQ0gyXTMpQyg9TylbTkhdW0NAQEhdKFtDSDJdW0NIXShbQ0gzXSlbQ0gzXSlDKD1PKVtOSF1bQ0BIXShDKD1PKVtPSF0pW0NIMl1bQ0gyXUMoPU8pW09IXQ==

> <s_epik_cmdline>
J2VwaWtfYXBwJywgJy1pbWFlJywgJ2xpZ2FuZF9wcm8ubWFlJywgJy1vbWFlJywgJ2xpZ2FuZF9wcmVwLm1hZScsICctbXMnLCAnMScsICctcGgnLCAnNycsICctcGh0JywgJzAuNScsICctbnQn

> <s_epik_pKa_notes>
Molecule size exceeds maximum supported for generating protonation states

$$$$
