1k3q_ligand
                    3D
 Schrodinger Suite 2020-3.
201201  0  0  1  0            999 V2000
   -1.5670  -21.1210  -13.0870 N   0  3  0  0  0  0
   -2.9850  -21.2020  -13.5280 C   0  0  2  0  0  0
   -3.0840  -21.6070  -14.9950 C   0  0  0  0  0  0
   -2.3150  -21.1370  -15.8320 O   0  0  0  0  0  0
   -3.6410  -19.8380  -13.3100 C   0  0  0  0  0  0
   -4.9200  -19.7830  -13.9200 O   0  0  0  0  0  0
   -4.0380  -22.4810  -15.3000 N   0  0  0  0  0  0
   -4.2380  -22.9480  -16.6670 C   0  0  2  0  0  0
   -5.7090  -23.2570  -16.9250 C   0  0  0  0  0  0
   -6.2760  -24.1750  -16.3310 O   0  0  0  0  0  0
   -3.3840  -24.1910  -16.9320 C   0  0  0  0  0  0
   -2.4530  -24.0900  -18.1410 C   0  0  0  0  0  0
   -1.2010  -24.9240  -17.9230 C   0  0  0  0  0  0
   -3.1740  -24.5270  -19.4070 C   0  0  0  0  0  0
   -6.3220  -22.4850  -17.8170 N   0  0  0  0  0  0
   -7.7280  -22.6750  -18.1550 C   0  0  2  0  0  0
   -8.1200  -21.8080  -19.3470 C   0  0  0  0  0  0
   -8.5370  -22.3170  -20.3880 O   0  0  0  0  0  0
   -8.6140  -22.3430  -16.9530 C   0  0  0  0  0  0
   -9.8270  -23.2490  -16.8230 C   0  0  0  0  0  0
   -9.4900  -24.5850  -16.1900 C   0  0  0  0  0  0
   -9.1500  -24.6040  -14.9880 O   0  0  0  0  0  0
   -9.5670  -25.6120  -16.8960 O   0  0  0  0  0  0
   -7.9830  -20.4960  -19.1880 N   0  0  0  0  0  0
   -8.3210  -19.5580  -20.2510 C   0  0  2  0  0  0
   -7.0640  -18.9820  -20.8930 C   0  0  0  0  0  0
   -5.9900  -18.9890  -20.2920 O   0  0  0  0  0  0
   -9.1930  -18.4010  -19.7250 C   0  0  0  0  0  0
   -9.6550  -17.5120  -20.8700 C   0  0  0  0  0  0
  -10.3840  -18.9390  -18.9450 C   0  0  0  0  0  0
   -7.2050  -18.4850  -22.1170 N   0  0  0  0  0  0
   -6.0820  -17.9050  -22.8420 C   0  0  1  0  0  0
   -5.4580  -16.7300  -22.0610 C   0  0  1  0  0  0
   -4.2650  -16.1460  -22.8070 C   0  0  0  0  0  0
   -6.4170  -15.7280  -21.8590 O   0  0  0  0  0  0
   -6.5810  -15.1500  -20.4200 P   0  0  0  0  0  0
   -6.8780  -16.3860  -19.5310 O   0  0  0  0  0  0
   -5.1800  -14.5920  -20.0590 O   0  0  0  0  0  0
   -7.6570  -14.1080  -20.3340 O   0  0  0  0  0  0
   -5.0080  -18.9550  -23.1110 C   0  0  0  0  0  0
   -4.4770  -19.5680  -22.1850 O   0  0  0  0  0  0
   -4.6910  -19.1570  -24.3870 N   0  0  0  0  0  0
   -3.6810  -20.1320  -24.7780 C   0  0  2  0  0  0
   -2.3160  -19.7590  -24.2090 C   0  0  0  0  0  0
   -1.9460  -18.5850  -24.1760 O   0  0  0  0  0  0
   -3.6000  -20.2330  -26.3020 C   0  0  0  0  0  0
   -4.5940  -21.2130  -26.9010 C   0  0  0  0  0  0
   -4.3440  -21.4700  -28.3750 C   0  0  0  0  0  0
   -4.4890  -20.5220  -29.1740 O   0  0  0  0  0  0
   -4.0020  -22.6180  -28.7270 O   0  0  0  0  0  0
   -1.5710  -20.7640  -23.7610 N   0  0  0  0  0  0
   -0.2470  -20.5410  -23.1940 C   0  0  2  0  0  0
    0.7510  -21.5750  -23.7030 C   0  0  0  0  0  0
    0.3690  -22.5770  -24.3070 O   0  0  0  0  0  0
   -0.3130  -20.5740  -21.6750 C   0  0  0  0  0  0
    2.0330  -21.3240  -23.4560 N   0  0  0  0  0  0
    3.0880  -22.2330  -23.8890 C   0  0  2  0  0  0
    4.0680  -22.5090  -22.7540 C   0  0  0  0  0  0
    4.0570  -21.8240  -21.7310 O   0  0  0  0  0  0
    3.8310  -21.6500  -25.0920 C   0  0  0  0  0  0
    2.8910  -21.2380  -26.2080 C   0  0  0  0  0  0
    2.4720  -22.1200  -26.9870 O   0  0  0  0  0  0
    2.5750  -20.0340  -26.3040 O   0  0  0  0  0  0
    4.9150  -23.5160  -22.9420 N   0  0  0  0  0  0
    5.9030  -23.8810  -21.9340 C   0  0  2  0  0  0
    6.8330  -24.9750  -22.4470 C   0  0  0  0  0  0
    6.3810  -26.0270  -22.8990 O   0  0  0  0  0  0
    5.2110  -24.3310  -20.6570 C   0  0  0  0  0  0
    8.1350  -24.7200  -22.3750 N   0  0  0  0  0  0
    9.1300  -25.6840  -22.8330 C   0  0  2  0  0  0
    9.4340  -26.7090  -21.7460 C   0  0  0  0  0  0
    9.4260  -26.3900  -20.5560 O   0  0  0  0  0  0
   10.4150  -24.9630  -23.2450 C   0  0  2  0  0  0
   10.9330  -24.2030  -22.1680 O   0  0  0  0  0  0
   10.2260  -24.0270  -24.4180 C   0  0  0  0  0  0
    9.7010  -27.9420  -22.1610 N   0  0  0  0  0  0
   10.0060  -29.0150  -21.2230 C   0  0  2  0  0  0
   11.4960  -29.3480  -21.2410 C   0  0  0  0  0  0
   11.8820  -30.5130  -21.3420 O   0  0  0  0  0  0
    9.1870  -30.2620  -21.5590 C   0  0  0  0  0  0
    8.9000  -31.1330  -20.3690 C   0  0  0  0  0  0
    7.8400  -30.8470  -19.5240 C   0  0  0  0  0  0
    9.6920  -32.2380  -20.0960 C   0  0  0  0  0  0
    7.5750  -31.6460  -18.4280 C   0  0  0  0  0  0
    9.4300  -33.0400  -19.0020 C   0  0  0  0  0  0
    8.3710  -32.7440  -18.1670 C   0  0  0  0  0  0
   12.3290  -28.3170  -21.1430 N   0  0  0  0  0  0
   13.7750  -28.5000  -21.1480 C   0  0  2  0  0  0
   14.4510  -27.5610  -20.1550 C   0  0  0  0  0  0
   14.6970  -26.3930  -20.4570 O   0  0  0  0  0  0
   14.3670  -28.2580  -22.5480 C   0  0  0  0  0  0
   14.0070  -29.4000  -23.4850 C   0  0  0  0  0  0
   13.8870  -26.9280  -23.1090 C   0  0  0  0  0  0
   14.7500  -28.0800  -18.9680 N   0  0  0  0  0  0
   15.3990  -27.2890  -17.9290 C   0  0  2  0  0  0
   16.2390  -28.1750  -17.0150 C   0  0  0  0  0  0
   17.3590  -27.7570  -16.6520 O   0  0  0  0  0  0
   14.3550  -26.5330  -17.1060 C   0  0  0  0  0  0
   13.2180  -27.4120  -16.6110 C   0  0  0  0  0  0
   12.1110  -26.6150  -15.9490 C   0  0  0  0  0  0
   11.6410  -25.6140  -16.4890 O   0  0  0  0  0  0
   11.6890  -27.0550  -14.7690 N   0  0  0  0  0  0
   15.7700  -29.2800  -16.6700 O   0  0  0  0  0  0
   -1.0800  -22.0958  -13.2374 H   0  0  0  0  0  0
   -1.5294  -20.8529  -12.0208 H   0  0  0  0  0  0
   -1.0429  -20.3544  -13.6766 H   0  0  0  0  0  0
   -3.4796  -21.9779  -12.9252 H   0  0  0  0  0  0
   -3.7576  -19.6554  -12.2315 H   0  0  0  0  0  0
   -3.0081  -19.0524  -13.7486 H   0  0  0  0  0  0
   -5.5224  -18.8651  -13.8528 H   0  0  0  0  0  0
   -4.6849  -22.8526  -14.4917 H   0  0  0  0  0  0
   -3.9187  -22.1171  -17.3133 H   0  0  0  0  0  0
   -2.7456  -24.3902  -16.0587 H   0  0  0  0  0  0
   -4.0403  -25.0554  -17.1112 H   0  0  0  0  0  0
   -2.1471  -23.0406  -18.2641 H   0  0  0  0  0  0
   -0.6952  -24.5927  -17.0041 H   0  0  0  0  0  0
   -0.5232  -24.7988  -18.7802 H   0  0  0  0  0  0
   -1.4787  -25.9840  -17.8269 H   0  0  0  0  0  0
   -4.0755  -23.9123  -19.5463 H   0  0  0  0  0  0
   -3.4617  -25.5850  -19.3184 H   0  0  0  0  0  0
   -2.5062  -24.3997  -20.2718 H   0  0  0  0  0  0
   -5.7421  -21.6873  -18.3042 H   0  0  0  0  0  0
   -7.8259  -23.7378  -18.4213 H   0  0  0  0  0  0
   -8.0285  -22.4431  -16.0272 H   0  0  0  0  0  0
   -8.9832  -21.3108  -17.0436 H   0  0  0  0  0  0
  -10.5852  -22.7587  -16.1947 H   0  0  0  0  0  0
  -10.2477  -23.4439  -17.8205 H   0  0  0  0  0  0
   -8.8998  -25.5587  -14.5022 H   0  0  0  0  0  0
   -7.6041  -20.1228  -18.2251 H   0  0  0  0  0  0
   -8.8763  -20.1685  -20.9783 H   0  0  0  0  0  0
   -8.5935  -17.7823  -19.0410 H   0  0  0  0  0  0
   -8.7789  -17.1355  -21.4184 H   0  0  0  0  0  0
  -10.2279  -16.6637  -20.4674 H   0  0  0  0  0  0
  -10.2922  -18.0941  -21.5520 H   0  0  0  0  0  0
  -10.0263  -19.5777  -18.1239 H   0  0  0  0  0  0
  -11.0253  -19.5293  -19.6160 H   0  0  0  0  0  0
  -10.9611  -18.0989  -18.5313 H   0  0  0  0  0  0
   -8.2012  -18.5193  -22.5821 H   0  0  0  0  0  0
   -6.5218  -17.5569  -23.7883 H   0  0  0  0  0  0
   -5.1603  -17.0437  -21.0496 H   0  0  0  0  0  0
   -3.5117  -16.9316  -22.9661 H   0  0  0  0  0  0
   -3.8250  -15.3308  -22.2139 H   0  0  0  0  0  0
   -4.5970  -15.7539  -23.7797 H   0  0  0  0  0  0
   -6.1679  -17.2256  -19.5014 H   0  0  0  0  0  0
   -4.3016  -15.2537  -20.0825 H   0  0  0  0  0  0
   -5.2120  -18.5666  -25.1551 H   0  0  0  0  0  0
   -4.0149  -21.0870  -24.3461 H   0  0  0  0  0  0
   -3.8029  -19.2473  -26.7461 H   0  0  0  0  0  0
   -2.5934  -20.5667  -26.5944 H   0  0  0  0  0  0
   -4.5229  -22.1757  -26.3736 H   0  0  0  0  0  0
   -5.6129  -20.8119  -26.7963 H   0  0  0  0  0  0
   -3.8138  -22.8345  -29.7889 H   0  0  0  0  0  0
   -1.9767  -21.7844  -23.8261 H   0  0  0  0  0  0
    0.0568  -19.5411  -23.5374 H   0  0  0  0  0  0
   -1.0362  -19.8236  -21.3230 H   0  0  0  0  0  0
    0.6805  -20.3488  -21.2599 H   0  0  0  0  0  0
   -0.6310  -21.5735  -21.3435 H   0  0  0  0  0  0
    2.2894  -20.4039  -22.9104 H   0  0  0  0  0  0
    2.5758  -23.1654  -24.1689 H   0  0  0  0  0  0
    4.3959  -20.7599  -24.7779 H   0  0  0  0  0  0
    4.5258  -22.4023  -25.4937 H   0  0  0  0  0  0
    1.7888  -21.8510  -27.8061 H   0  0  0  0  0  0
    4.8579  -24.0789  -23.8854 H   0  0  0  0  0  0
    6.4846  -22.9667  -21.7448 H   0  0  0  0  0  0
    4.5445  -23.5320  -20.3000 H   0  0  0  0  0  0
    5.9666  -24.5492  -19.8879 H   0  0  0  0  0  0
    4.6213  -25.2373  -20.8593 H   0  0  0  0  0  0
    8.4562  -23.7543  -21.9576 H   0  0  0  0  0  0
    8.6761  -26.1883  -23.6988 H   0  0  0  0  0  0
   11.1653  -25.7282  -23.4930 H   0  0  0  0  0  0
   11.1482  -24.6893  -21.2051 H   0  0  0  0  0  0
    9.8234  -24.5885  -25.2739 H   0  0  0  0  0  0
   11.1944  -23.5837  -24.6931 H   0  0  0  0  0  0
    9.5228  -23.2281  -24.1400 H   0  0  0  0  0  0
    9.6880  -28.1438  -23.2422 H   0  0  0  0  0  0
    9.7255  -28.6265  -20.2329 H   0  0  0  0  0  0
    8.2191  -29.9608  -21.9861 H   0  0  0  0  0  0
    9.7353  -30.8750  -22.2895 H   0  0  0  0  0  0
    7.2080  -29.9822  -19.7259 H   0  0  0  0  0  0
   10.5298  -32.4763  -20.7512 H   0  0  0  0  0  0
    6.7386  -31.4098  -17.7702 H   0  0  0  0  0  0
   10.0593  -33.9063  -18.7981 H   0  0  0  0  0  0
    8.1636  -33.3758  -17.3033 H   0  0  0  0  0  0
   11.9028  -27.3066  -21.0566 H   0  0  0  0  0  0
   13.9116  -29.5470  -20.8394 H   0  0  0  0  0  0
   15.4637  -28.2166  -22.4729 H   0  0  0  0  0  0
   14.3634  -30.3497  -23.0594 H   0  0  0  0  0  0
   14.4823  -29.2353  -24.4633 H   0  0  0  0  0  0
   12.9149  -29.4412  -23.6102 H   0  0  0  0  0  0
   14.1581  -26.1183  -22.4155 H   0  0  0  0  0  0
   12.7942  -26.9549  -23.2320 H   0  0  0  0  0  0
   14.3616  -26.7491  -24.0851 H   0  0  0  0  0  0
   14.4957  -29.1334  -18.7791 H   0  0  0  0  0  0
   16.0523  -26.5837  -18.4636 H   0  0  0  0  0  0
   17.9886  -28.3727  -15.9928 H   0  0  0  0  0  0
   14.8362  -26.0893  -16.2219 H   0  0  0  0  0  0
   13.9107  -25.7360  -17.7203 H   0  0  0  0  0  0
   12.7802  -27.9577  -17.4598 H   0  0  0  0  0  0
   13.6045  -28.1306  -15.8733 H   0  0  0  0  0  0
   12.1390  -27.9550  -14.3246 H   0  0  0  0  0  0
   10.8895  -26.5194  -14.2361 H   0  0  0  0  0  0
  1  2  1  0  0  0
  1104  1  0  0  0
  1105  1  0  0  0
  1106  1  0  0  0
  2  3  1  0  0  0
  2  5  1  0  0  0
  2107  1  0  0  0
  3  4  2  0  0  0
  3  7  1  0  0  0
  5  6  1  0  0  0
  5108  1  0  0  0
  5109  1  0  0  0
  6110  1  0  0  0
  7  8  1  0  0  0
  7111  1  0  0  0
  8  9  1  0  0  0
  8 11  1  0  0  0
  8112  1  0  0  0
  9 10  2  0  0  0
  9 15  1  0  0  0
 11 12  1  0  0  0
 11113  1  0  0  0
 11114  1  0  0  0
 12 13  1  0  0  0
 12 14  1  0  0  0
 12115  1  0  0  0
 13116  1  0  0  0
 13117  1  0  0  0
 13118  1  0  0  0
 14119  1  0  0  0
 14120  1  0  0  0
 14121  1  0  0  0
 15 16  1  0  0  0
 15122  1  0  0  0
 16 17  1  0  0  0
 16 19  1  0  0  0
 16123  1  0  0  0
 17 18  2  0  0  0
 17 24  1  0  0  0
 19 20  1  0  0  0
 19124  1  0  0  0
 19125  1  0  0  0
 20 21  1  0  0  0
 20126  1  0  0  0
 20127  1  0  0  0
 21 22  1  0  0  0
 21 23  2  0  0  0
 22128  1  0  0  0
 24 25  1  0  0  0
 24129  1  0  0  0
 25 26  1  0  0  0
 25 28  1  0  0  0
 25130  1  0  0  0
 26 27  2  0  0  0
 26 31  1  0  0  0
 28 29  1  0  0  0
 28 30  1  0  0  0
 28131  1  0  0  0
 29132  1  0  0  0
 29133  1  0  0  0
 29134  1  0  0  0
 30135  1  0  0  0
 30136  1  0  0  0
 30137  1  0  0  0
 31 32  1  0  0  0
 31138  1  0  0  0
 32 33  1  0  0  0
 32 40  1  0  0  0
 32139  1  0  0  0
 33 34  1  0  0  0
 33 35  1  0  0  0
 33140  1  0  0  0
 34141  1  0  0  0
 34142  1  0  0  0
 34143  1  0  0  0
 35 36  1  0  0  0
 36 37  1  0  0  0
 36 38  1  0  0  0
 36 39  2  0  0  0
 37144  1  0  0  0
 38145  1  0  0  0
 40 41  2  0  0  0
 40 42  1  0  0  0
 42 43  1  0  0  0
 42146  1  0  0  0
 43 44  1  0  0  0
 43 46  1  0  0  0
 43147  1  0  0  0
 44 45  2  0  0  0
 44 51  1  0  0  0
 46 47  1  0  0  0
 46148  1  0  0  0
 46149  1  0  0  0
 47 48  1  0  0  0
 47150  1  0  0  0
 47151  1  0  0  0
 48 49  2  0  0  0
 48 50  1  0  0  0
 50152  1  0  0  0
 51 52  1  0  0  0
 51153  1  0  0  0
 52 53  1  0  0  0
 52 55  1  0  0  0
 52154  1  0  0  0
 53 54  2  0  0  0
 53 56  1  0  0  0
 55155  1  0  0  0
 55156  1  0  0  0
 55157  1  0  0  0
 56 57  1  0  0  0
 56158  1  0  0  0
 57 58  1  0  0  0
 57 60  1  0  0  0
 57159  1  0  0  0
 58 59  2  0  0  0
 58 64  1  0  0  0
 60 61  1  0  0  0
 60160  1  0  0  0
 60161  1  0  0  0
 61 62  1  0  0  0
 61 63  2  0  0  0
 62162  1  0  0  0
 64 65  1  0  0  0
 64163  1  0  0  0
 65 66  1  0  0  0
 65 68  1  0  0  0
 65164  1  0  0  0
 66 67  2  0  0  0
 66 69  1  0  0  0
 68165  1  0  0  0
 68166  1  0  0  0
 68167  1  0  0  0
 69 70  1  0  0  0
 69168  1  0  0  0
 70 71  1  0  0  0
 70 73  1  0  0  0
 70169  1  0  0  0
 71 72  2  0  0  0
 71 76  1  0  0  0
 73 74  1  0  0  0
 73 75  1  0  0  0
 73170  1  0  0  0
 74171  1  0  0  0
 75172  1  0  0  0
 75173  1  0  0  0
 75174  1  0  0  0
 76 77  1  0  0  0
 76175  1  0  0  0
 77 78  1  0  0  0
 77 80  1  0  0  0
 77176  1  0  0  0
 78 79  2  0  0  0
 78 87  1  0  0  0
 80 81  1  0  0  0
 80177  1  0  0  0
 80178  1  0  0  0
 81 82  2  0  0  0
 81 83  1  0  0  0
 82 84  1  0  0  0
 82179  1  0  0  0
 83 85  2  0  0  0
 83180  1  0  0  0
 84 86  2  0  0  0
 84181  1  0  0  0
 85 86  1  0  0  0
 85182  1  0  0  0
 86183  1  0  0  0
 87 88  1  0  0  0
 87184  1  0  0  0
 88 89  1  0  0  0
 88 91  1  0  0  0
 88185  1  0  0  0
 89 90  2  0  0  0
 89 94  1  0  0  0
 91 92  1  0  0  0
 91 93  1  0  0  0
 91186  1  0  0  0
 92187  1  0  0  0
 92188  1  0  0  0
 92189  1  0  0  0
 93190  1  0  0  0
 93191  1  0  0  0
 93192  1  0  0  0
 94 95  1  0  0  0
 94193  1  0  0  0
 95 96  1  0  0  0
 95 98  1  0  0  0
 95194  1  0  0  0
 96 97  1  0  0  0
 96103  2  0  0  0
 97195  1  0  0  0
 98 99  1  0  0  0
 98196  1  0  0  0
 98197  1  0  0  0
 99100  1  0  0  0
 99198  1  0  0  0
 99199  1  0  0  0
100101  2  0  0  0
100102  1  0  0  0
102200  1  0  0  0
102201  1  0  0  0
M  CHG  1   1   1
M  END
> <s_m_source_file>
../1k3q_ligand.sdf

> <i_m_source_file_index>
1

> <s_epik_input>
W09IXVtDSDJdW0NASF0oW05IMytdKUMoPU8pW05IXVtDQEBIXShbQ0gyXVtDSF0oW0NIM10pW0NIM10pQyg9TylbTkhdW0NAQEhdKFtDSDJdW0NIMl1DKD1PKVtPSF0pQyg9TylbTkhdW0NAQEhdKFtDSF0oW0NIM10pW0NIM10pQyg9TylbTkhdW0NAQEhdKFtDQEBIXShbQ0gzXSlPUCg9TykoW09IXSlbT0hdKUMoPU8pW05IXVtDQEBIXShbQ0gyXVtDSDJdQyg9TylbT0hdKUMoPU8pW05IXVtDQEBIXShbQ0gzXSlDKD1PKVtOSF1bQ0BASF0oW0NIMl1DKD1PKVtPSF0pQyg9TylbTkhdW0NAQEhdKFtDSDNdKUMoPU8pW05IXVtDQEBIXShbQ0BIXShbT0hdKVtDSDNdKUMoPU8pW05IXVtDQEBIXShbQ0gyXWMxW2NIXVtjSF1bY0hdW2NIXVtjSF0xKUMoPU8pW05IXVtDQEBIXShbQ0hdKFtDSDNdKVtDSDNdKUMoPU8pW05IXVtDQEhdKEMoPU8pW09IXSlbQ0gyXVtDSDJdQyg9TylbTkgyXQ==

> <s_epik_cmdline>
J2VwaWtfYXBwJywgJy1pbWFlJywgJ2xpZ2FuZF9wcm8ubWFlJywgJy1vbWFlJywgJ2xpZ2FuZF9wcmVwLm1hZScsICctbXMnLCAnMScsICctcGgnLCAnNycsICctcGh0JywgJzAuNScsICctbnQn

> <s_epik_pKa_notes>
Molecule size exceeds maximum supported for generating protonation states

$$$$
