1k3t_ligand
                    3D
 Schrodinger Suite 2020-3.
 47 49  0  0  1  0            999 V2000
   26.4600    9.6930    7.8100 C   0  0  0  0  0  0
   27.8250    9.8620    7.9860 C   0  0  0  0  0  0
   28.1220   10.8250    8.9560 C   0  0  0  0  0  0
   27.1210   11.5020    9.6200 C   0  0  0  0  0  0
   25.7470   11.3070    9.4130 C   0  0  0  0  0  0
   25.3840   10.3520    8.4590 C   0  0  0  0  0  0
   24.0140   10.0930    8.1850 O   0  0  0  0  0  0
   23.5040    9.1440    7.2600 C   0  0  3  0  0  0
   24.7270    8.4850    6.5790 C   0  0  0  0  0  0
   26.0380    8.6720    6.7800 C   0  0  0  0  0  0
   27.5970   12.4240   10.5220 O   0  0  0  0  0  0
   29.0370   12.3260   10.5190 C   0  0  1  0  0  0
   29.4660   11.2920    9.4280 C   0  0  0  0  0  0
   22.3140    8.8240    6.9000 O   0  0  0  0  0  0
   24.3570    7.3970    5.5230 C   0  0  0  0  0  0
   25.5250    6.4030    5.1820 C   0  0  0  0  0  0
   24.1130    8.1880    4.2430 C   0  0  0  0  0  0
   23.3900    6.5730    6.3380 C   0  0  0  0  0  0
   23.0800    6.3460    7.6070 C   0  0  0  0  0  0
   29.9000   13.5870   10.7530 C   0  0  0  0  0  0
   29.4600   14.9070   10.4370 O   0  0  0  0  0  0
   30.3940   13.6950   12.2080 C   0  0  0  0  0  0
   31.1440   13.2520    9.8870 C   0  0  0  0  0  0
   28.5813    9.3070    7.4310 H   0  0  0  0  0  0
   24.9992   11.8726    9.9689 H   0  0  0  0  0  0
   22.4298    9.2033    7.4895 H   0  0  0  0  0  0
   26.7715    8.0900    6.2026 H   0  0  0  0  0  0
   29.2129   11.9398   11.5338 H   0  0  0  0  0  0
   30.0327   10.4368    9.8249 H   0  0  0  0  0  0
   30.0160   11.7373    8.5859 H   0  0  0  0  0  0
   21.4469    9.2947    7.3865 H   0  0  0  0  0  0
   26.2860    6.9235    4.5820 H   0  0  0  0  0  0
   25.1268    5.5516    4.6106 H   0  0  0  0  0  0
   25.9799    6.0381    6.1147 H   0  0  0  0  0  0
   25.0497    8.6691    3.9251 H   0  0  0  0  0  0
   23.3496    8.9581    4.4278 H   0  0  0  0  0  0
   23.7636    7.5076    3.4525 H   0  0  0  0  0  0
   22.8400    6.0577    5.5368 H   0  0  0  0  0  0
   23.6300    6.8613    8.4082 H   0  0  0  0  0  0
   22.2728    5.6424    7.8586 H   0  0  0  0  0  0
   28.5840   15.3321   10.9488 H   0  0  0  0  0  0
   29.5456   13.9326   12.8666 H   0  0  0  0  0  0
   31.1489   14.4917   12.2807 H   0  0  0  0  0  0
   30.8402   12.7378   12.5157 H   0  0  0  0  0  0
   30.8436   13.1636    8.8325 H   0  0  0  0  0  0
   31.5806   12.3006   10.2249 H   0  0  0  0  0  0
   31.8893   14.0545    9.9899 H   0  0  0  0  0  0
  1  2  2  0  0  0
  1  6  1  0  0  0
  1 10  1  0  0  0
  2  3  1  0  0  0
  2 24  1  0  0  0
  3  4  2  0  0  0
  3 13  1  0  0  0
  4  5  1  0  0  0
  4 11  1  0  0  0
  5  6  2  0  0  0
  5 25  1  0  0  0
  6  7  1  0  0  0
  7  8  1  0  0  0
  8  9  1  0  0  0
  8 14  1  0  0  0
  8 26  1  0  0  0
  9 10  2  0  0  0
  9 15  1  0  0  0
 10 27  1  0  0  0
 11 12  1  0  0  0
 12 13  1  0  0  0
 12 20  1  0  0  0
 12 28  1  0  0  0
 13 29  1  0  0  0
 13 30  1  0  0  0
 14 31  1  0  0  0
 15 16  1  0  0  0
 15 17  1  0  0  0
 15 18  1  0  0  0
 16 32  1  0  0  0
 16 33  1  0  0  0
 16 34  1  0  0  0
 17 35  1  0  0  0
 17 36  1  0  0  0
 17 37  1  0  0  0
 18 19  2  0  0  0
 18 38  1  0  0  0
 19 39  1  0  0  0
 19 40  1  0  0  0
 20 21  1  0  0  0
 20 22  1  0  0  0
 20 23  1  0  0  0
 21 41  1  0  0  0
 22 42  1  0  0  0
 22 43  1  0  0  0
 22 44  1  0  0  0
 23 45  1  0  0  0
 23 46  1  0  0  0
 23 47  1  0  0  0
M  END
> <s_m_source_file>
../1k3t_ligand.sdf

> <i_m_source_file_index>
1

> <s_epik_input>
W0NIMl09W0NIXUMoW0NIM10pKFtDSDNdKUMoPVtDSF0xKVtDSF0oW09IXSlPYyhjMTIpW2NIXWMzYyhbY0hdMilbQ0gyXVtDQEhdKE8zKUMoW09IXSkoW0NIM10pW0NIM10=

> <s_epik_cmdline>
J2VwaWtfYXBwJywgJy1pbWFlJywgJ2xpZ2FuZF9wcm8ubWFlJywgJy1vbWFlJywgJ2xpZ2FuZF9wcmVwLm1hZScsICctbXMnLCAnMScsICctcGgnLCAnNycsICctcGh0JywgJzAuNScsICctbnQn

> <r_lp_tautomer_probability>
1

> <r_epik_Ionization_Penalty>
  0.0000

> <r_epik_Ionization_Penalty_Charging>
  0.0000

> <r_epik_Ionization_Penalty_Neutral>
  0.0000

> <r_epik_State_Penalty>
 -0.0000

> <r_epik_Charging_Adjusted_Penalty>
0

> <i_epik_Tot_Q>
0

> <i_epik_Tot_abs_Q>
0

> <s_epik_Chemistry_Notes>
This compound contains an acetal/aminal-like group ( X-CH(R)-Y where X, Y are N, S, or O) that may be acid/base labile, releasing an aldehyde.

$$$$
