1k6t_ligand
                    3D
 Schrodinger Suite 2020-3.
 96100  0  0  1  0            999 V2000
    3.1820   -5.3320   16.3030 N   0  0  1  0  0  0
    4.6020   -5.1460   15.8000 C   0  0  0  0  0  0
    5.4030   -3.9970   16.4070 C   0  0  1  0  0  0
    6.7370   -4.0250   15.7400 C   0  0  0  0  0  0
    6.8500   -3.5830   14.5800 O   0  0  0  0  0  0
    7.7600   -4.5330   16.4390 N   0  0  0  0  0  0
    9.1730   -4.7000   16.0900 C   0  0  0  0  0  0
    9.9070   -5.3650   17.2820 C   0  0  0  0  0  0
    9.8290   -3.4800   15.8720 C   0  0  0  0  0  0
    9.4110   -5.5860   14.9160 C   0  0  0  0  0  0
    4.4900   -2.7760   16.1220 N   0  3  1  0  0  0
    3.0610   -2.8590   16.5660 C   0  0  0  0  0  0
    2.4390   -4.1420   16.0320 C   0  0  0  0  0  0
    5.0120   -1.4890   16.6570 C   0  0  0  0  0  0
    4.9970   -0.4370   15.6040 C   0  0  1  0  0  0
    5.1220    0.6140   16.5270 O   0  0  0  0  0  0
    6.1660   -0.2630   14.6360 C   0  0  0  0  0  0
    6.1370    0.8190   13.5370 C   0  0  1  0  0  0
    7.4940    0.7770   12.6920 C   0  0  1  0  0  0
    7.4930    1.8430   11.5870 C   0  0  0  0  0  0
    7.3260    3.2730   11.8930 C   0  0  0  0  0  0
    7.3180    4.2330   10.8230 C   0  0  0  0  0  0
    7.4810    3.7660    9.4410 C   0  0  0  0  0  0
    7.6480    2.3510    9.1530 C   0  0  0  0  0  0
    7.6530    1.4040   10.2200 C   0  0  0  0  0  0
    4.9510    0.6120   12.5330 C   0  0  0  0  0  0
    4.4830   -0.5370   12.1980 O   0  0  0  0  0  0
    4.5160    1.7590   12.0580 N   0  0  0  0  0  0
    3.4530    1.8920   11.0810 C   0  0  2  0  0  0
    3.4150    3.2820   10.4760 C   0  0  2  0  0  0
    3.7030    4.2740   11.4470 O   0  0  0  0  0  0
    2.0500    3.3980    9.8540 C   0  0  0  0  0  0
    1.0530    2.6850   10.7290 C   0  0  0  0  0  0
   -0.3210    2.7010   10.9570 C   0  0  0  0  0  0
   -0.8560    1.7970   11.9360 C   0  0  0  0  0  0
    0.0030    0.8880   12.6750 C   0  0  0  0  0  0
    1.3940    0.8600   12.4570 C   0  0  0  0  0  0
    1.9990    1.6960   11.5320 C   0  0  0  0  0  0
    2.4960   -6.4920   15.7040 C   0  0  0  0  0  0
    3.1180   -7.8800   15.8760 C   0  0  0  0  0  0
    3.2680   -8.5080   17.1620 C   0  0  0  0  0  0
    3.8580   -9.8240   17.3710 N   0  0  0  0  0  0
    4.2940  -10.4710   16.1490 C   0  0  0  0  0  0
    4.1720   -9.8990   14.8360 C   0  0  0  0  0  0
    3.5750   -8.5820   14.7060 C   0  0  0  0  0  0
    8.8850    0.7840   13.3100 C   0  0  0  0  0  0
    5.1855   -6.0558   16.0045 H   0  0  0  0  0  0
    4.5854   -4.9569   14.7165 H   0  0  0  0  0  0
    5.6634   -4.0272   17.4753 H   0  0  0  0  0  0
    7.3955   -4.8546   17.4257 H   0  0  0  0  0  0
    9.4381   -6.3344   17.5066 H   0  0  0  0  0  0
    9.8397   -4.7118   18.1645 H   0  0  0  0  0  0
   10.9641   -5.5208   17.0208 H   0  0  0  0  0  0
    9.3534   -2.9530   15.0317 H   0  0  0  0  0  0
   10.8863   -3.6695   15.6348 H   0  0  0  0  0  0
    9.7619   -2.8605   16.7785 H   0  0  0  0  0  0
    8.9112   -5.1646   14.0313 H   0  0  0  0  0  0
    9.0056   -6.5872   15.1241 H   0  0  0  0  0  0
   10.4919   -5.6603   14.7259 H   0  0  0  0  0  0
    4.4848   -2.7612   15.0221 H   0  0  0  0  0  0
    3.0180   -2.8598   17.6652 H   0  0  0  0  0  0
    2.5056   -1.9924   16.1780 H   0  0  0  0  0  0
    2.3367   -4.0134   14.9444 H   0  0  0  0  0  0
    1.4408   -4.2213   16.4874 H   0  0  0  0  0  0
    4.3837   -1.1596   17.4977 H   0  0  0  0  0  0
    6.0461   -1.6290   17.0050 H   0  0  0  0  0  0
    4.1302   -0.5516   14.9365 H   0  0  0  0  0  0
    4.3923    0.7187   17.3434 H   0  0  0  0  0  0
    7.0788   -0.0260   15.2023 H   0  0  0  0  0  0
    6.3164   -1.1950   14.0714 H   0  0  0  0  0  0
    5.9942    1.7692   14.0724 H   0  0  0  0  0  0
    7.4630   -0.2699   12.3559 H   0  0  0  0  0  0
    7.2090    3.6023   12.9254 H   0  0  0  0  0  0
    7.1924    5.2947   11.0353 H   0  0  0  0  0  0
    7.4768    4.4868    8.6233 H   0  0  0  0  0  0
    7.7692    2.0141    8.1235 H   0  0  0  0  0  0
    7.7782    0.3433   10.0026 H   0  0  0  0  0  0
    5.0164    2.6559   12.4519 H   0  0  0  0  0  0
    3.7878    1.0641   10.4388 H   0  0  0  0  0  0
    4.2095    3.4976    9.7465 H   0  0  0  0  0  0
    4.6761    4.2754   11.9599 H   0  0  0  0  0  0
    1.7758    4.4597    9.7668 H   0  0  0  0  0  0
    2.0624    2.9392    8.8543 H   0  0  0  0  0  0
   -0.9721    3.3809   10.4075 H   0  0  0  0  0  0
   -1.9288    1.7927   12.1286 H   0  0  0  0  0  0
   -0.4370    0.2156   13.4114 H   0  0  0  0  0  0
    2.0088    0.1649   13.0288 H   0  0  0  0  0  0
    1.4869   -6.5825   16.1323 H   0  0  0  0  0  0
    2.4211   -6.3518   14.6155 H   0  0  0  0  0  0
    2.9169   -7.9630   18.0382 H   0  0  0  0  0  0
    4.7456  -11.4596   16.2317 H   0  0  0  0  0  0
    4.5200  -10.4420   13.9573 H   0  0  0  0  0  0
    3.4729   -8.1248   13.7218 H   0  0  0  0  0  0
    8.9340    0.0320   14.1113 H   0  0  0  0  0  0
    9.0955    1.7795   13.7280 H   0  0  0  0  0  0
    9.6307    0.5456   12.5373 H   0  0  0  0  0  0
  1 39  1  0  0  0
  1 13  1  0  0  0
  1  2  1  0  0  0
  2  3  1  0  0  0
  2 47  1  0  0  0
  2 48  1  0  0  0
  3 11  1  0  0  0
  3  4  1  0  0  0
  3 49  1  0  0  0
  4  6  1  0  0  0
  4  5  2  0  0  0
  6  7  1  0  0  0
  6 50  1  0  0  0
  7 10  1  0  0  0
  7  9  1  0  0  0
  7  8  1  0  0  0
  8 51  1  0  0  0
  8 52  1  0  0  0
  8 53  1  0  0  0
  9 54  1  0  0  0
  9 55  1  0  0  0
  9 56  1  0  0  0
 10 57  1  0  0  0
 10 58  1  0  0  0
 10 59  1  0  0  0
 11 14  1  0  0  0
 11 12  1  0  0  0
 11 60  1  0  0  0
 12 13  1  0  0  0
 12 61  1  0  0  0
 12 62  1  0  0  0
 13 63  1  0  0  0
 13 64  1  0  0  0
 14 15  1  0  0  0
 14 65  1  0  0  0
 14 66  1  0  0  0
 15 17  1  0  0  0
 15 16  1  0  0  0
 15 67  1  0  0  0
 16 68  1  0  0  0
 17 18  1  0  0  0
 17 69  1  0  0  0
 17 70  1  0  0  0
 18 26  1  0  0  0
 18 19  1  0  0  0
 18 71  1  0  0  0
 19 46  1  0  0  0
 19 20  1  0  0  0
 19 72  1  0  0  0
 20 25  2  0  0  0
 20 21  1  0  0  0
 21 22  2  0  0  0
 21 73  1  0  0  0
 22 23  1  0  0  0
 22 74  1  0  0  0
 23 24  2  0  0  0
 23 75  1  0  0  0
 24 25  1  0  0  0
 24 76  1  0  0  0
 25 77  1  0  0  0
 26 28  1  0  0  0
 26 27  2  0  0  0
 28 29  1  0  0  0
 28 78  1  0  0  0
 29 38  1  0  0  0
 29 30  1  0  0  0
 29 79  1  0  0  0
 30 32  1  0  0  0
 30 31  1  0  0  0
 30 80  1  0  0  0
 31 81  1  0  0  0
 32 33  1  0  0  0
 32 82  1  0  0  0
 32 83  1  0  0  0
 33 38  2  0  0  0
 33 34  1  0  0  0
 34 35  2  0  0  0
 34 84  1  0  0  0
 35 36  1  0  0  0
 35 85  1  0  0  0
 36 37  2  0  0  0
 36 86  1  0  0  0
 37 38  1  0  0  0
 37 87  1  0  0  0
 39 40  1  0  0  0
 39 88  1  0  0  0
 39 89  1  0  0  0
 40 45  2  0  0  0
 40 41  1  0  0  0
 41 42  2  0  0  0
 41 90  1  0  0  0
 42 43  1  0  0  0
 43 44  2  0  0  0
 43 91  1  0  0  0
 44 45  1  0  0  0
 44 92  1  0  0  0
 45 93  1  0  0  0
 46 94  1  0  0  0
 46 95  1  0  0  0
 46 96  1  0  0  0
M  CHG  1  11   1
M  END
> <s_m_source_file>
../1k6t_ligand.sdf

> <i_m_source_file_index>
1

> <s_epik_input>
W2NIXTFbY0hdW2NIXW5bY0hdYzFbQ0gyXVtOQEgrXTJbQ0gyXVtDQEBIXShDKD1PKVtOSF1DKFtDSDNdKShbQ0gzXSlbQ0gzXSlbTkBASCtdKFtDSDJdW0NIMl0yKVtDSDJdW0NAQEhdKFtPSF0pW0NIMl1bQ0BASF0oW0NASF0oW0NIM10pYzNbY0hdW2NIXVtjSF1bY0hdW2NIXTMpQyg9TylbTkhdW0NASF0oW0NASF0oW09IXSlbQ0gyXTQpYyhjNDUpW2NIXVtjSF1bY0hdW2NIXTU=

> <s_epik_cmdline>
J2VwaWtfYXBwJywgJy1pbWFlJywgJ2xpZ2FuZF9wcm8ubWFlJywgJy1vbWFlJywgJ2xpZ2FuZF9wcmVwLm1hZScsICctbXMnLCAnMScsICctcGgnLCAnNycsICctcGh0JywgJzAuNScsICctbnQn

> <r_epik_Ionization_Penalty>
  0.1660

> <r_epik_Ionization_Penalty_Charging>
  0.1551

> <r_epik_Ionization_Penalty_Neutral>
  0.0109

> <r_epik_State_Penalty>
  0.3877

> <r_epik_Charging_Adjusted_Penalty>
0.542793334329735

> <i_epik_Tot_Q>
1

> <i_epik_Tot_abs_Q>
1

$$$$
