1k6v_ligand
                    3D
 Schrodinger Suite 2020-3.
100105  0  0  1  0            999 V2000
    3.1180   -5.2840   16.2850 N   0  3  1  0  0  0
    4.5860   -5.1680   15.7160 C   0  0  0  0  0  0
    5.3840   -4.0130   16.3090 C   0  0  1  0  0  0
    6.7110   -4.0500   15.6500 C   0  0  0  0  0  0
    6.7840   -3.6980   14.4150 O   0  0  0  0  0  0
    7.7990   -4.4460   16.4110 N   0  0  0  0  0  0
    9.2450   -4.5680   16.0530 C   0  0  0  0  0  0
   10.0490   -5.0680   17.2840 C   0  0  0  0  0  0
    9.8370   -3.3260   15.7490 C   0  0  0  0  0  0
    9.5300   -5.5060   14.9120 C   0  0  0  0  0  0
    4.4720   -2.7710   16.0070 N   0  0  1  0  0  0
    3.0220   -2.7640   16.4400 C   0  0  0  0  0  0
    2.4060   -4.0570   15.8710 C   0  0  0  0  0  0
    5.0920   -1.5070   16.5610 C   0  0  0  0  0  0
    5.0370   -0.4330   15.5530 C   0  0  1  0  0  0
    5.1910    0.5900   16.5100 O   0  0  0  0  0  0
    6.1970   -0.2170   14.6540 C   0  0  0  0  0  0
    6.1500    0.8690   13.5930 C   0  0  1  0  0  0
    7.5870    0.8640   12.7980 C   0  0  1  0  0  0
    7.5480    1.9760   11.6720 C   0  0  0  0  0  0
    7.3350    3.4760   11.9910 C   0  0  0  0  0  0
    7.2970    4.4600   10.8930 C   0  0  0  0  0  0
    7.4670    3.9730    9.4580 C   0  0  0  0  0  0
    7.6730    2.5090    9.1600 C   0  0  0  0  0  0
    7.7110    1.5320   10.2530 C   0  0  0  0  0  0
    4.9970    0.6110   12.5050 C   0  0  0  0  0  0
    4.6510   -0.5420   12.0120 O   0  0  0  0  0  0
    4.4610    1.7520   12.1510 N   0  0  0  0  0  0
    3.4190    1.8900   11.1550 C   0  0  2  0  0  0
    3.4300    3.2720   10.5340 C   0  0  2  0  0  0
    3.7100    4.2880   11.4950 O   0  0  0  0  0  0
    2.1000    3.3840    9.8350 C   0  0  0  0  0  0
    1.0540    2.7220   10.6700 C   0  0  0  0  0  0
   -0.3600    2.7710   10.8350 C   0  0  0  0  0  0
   -0.9730    1.8760   11.8430 C   0  0  0  0  0  0
   -0.1500    0.9330   12.6790 C   0  0  0  0  0  0
    1.2870    0.8820   12.5130 C   0  0  0  0  0  0
    1.9540    1.7150   11.5640 C   0  0  0  0  0  0
    2.4080   -6.4070   15.6970 C   0  0  0  0  0  0
    2.9580   -7.7770   16.0440 C   0  0  0  0  0  0
    2.7520   -8.2970   17.4260 C   0  0  0  0  0  0
    3.9750  -10.4000   16.8410 C   0  0  0  0  0  0
    4.2190   -9.9650   15.4650 C   0  0  0  0  0  0
    3.7020   -8.6230   15.0450 C   0  0  0  0  0  0
    4.5420  -11.6570   16.9900 O   0  0  0  0  0  0
    5.2090  -12.2010   15.7870 C   0  0  0  0  0  0
    4.9220  -11.0170   14.9000 O   0  0  0  0  0  0
    3.2400   -9.6210   17.9060 C   0  0  0  0  0  0
    8.8100    0.8990   13.2310 C   0  0  0  0  0  0
    3.0861   -5.4365   17.3739 H   0  0  0  0  0  0
    5.1383   -6.0937   15.9350 H   0  0  0  0  0  0
    4.5463   -5.0135   14.6276 H   0  0  0  0  0  0
    5.6471   -4.0473   17.3765 H   0  0  0  0  0  0
    7.4615   -4.6932   17.4283 H   0  0  0  0  0  0
    9.6591   -6.0455   17.6041 H   0  0  0  0  0  0
    9.9469   -4.3451   18.1068 H   0  0  0  0  0  0
   11.1104   -5.1675   17.0129 H   0  0  0  0  0  0
    9.3319   -2.8824   14.8783 H   0  0  0  0  0  0
   10.9024   -3.4742   15.5187 H   0  0  0  0  0  0
    9.7389   -2.6519   16.6127 H   0  0  0  0  0  0
    8.9738   -5.1792   14.0210 H   0  0  0  0  0  0
    9.2164   -6.5239   15.1871 H   0  0  0  0  0  0
   10.6081   -5.5008   14.6937 H   0  0  0  0  0  0
    2.9675   -2.7464   17.5385 H   0  0  0  0  0  0
    2.5223   -1.8722   16.0338 H   0  0  0  0  0  0
    2.4248   -3.9746   14.7743 H   0  0  0  0  0  0
    1.3630   -4.1037   16.2173 H   0  0  0  0  0  0
    4.5390   -1.1898   17.4574 H   0  0  0  0  0  0
    6.1419   -1.6996   16.8269 H   0  0  0  0  0  0
    4.1730   -0.5371   14.8802 H   0  0  0  0  0  0
    4.4639    0.6908   17.3292 H   0  0  0  0  0  0
    7.0830    0.0385   15.2537 H   0  0  0  0  0  0
    6.3938   -1.1358   14.0822 H   0  0  0  0  0  0
    5.9244    1.7884   14.1532 H   0  0  0  0  0  0
    7.8221   -0.2064   12.7032 H   0  0  0  0  0  0
    7.2135    3.8037   13.0235 H   0  0  0  0  0  0
    7.1496    5.5192   11.1041 H   0  0  0  0  0  0
    7.4393    4.6911    8.6384 H   0  0  0  0  0  0
    7.7940    2.1761    8.1292 H   0  0  0  0  0  0
    7.8590    0.4754   10.0299 H   0  0  0  0  0  0
    4.8524    2.6426   12.6646 H   0  0  0  0  0  0
    3.7455    1.0429   10.5338 H   0  0  0  0  0  0
    4.2615    3.4711    9.8420 H   0  0  0  0  0  0
    4.6610    4.2753   12.0476 H   0  0  0  0  0  0
    1.8468    4.4455    9.6965 H   0  0  0  0  0  0
    2.1586    2.8900    8.8539 H   0  0  0  0  0  0
   -0.9721    3.4466   10.2376 H   0  0  0  0  0  0
   -2.0536    1.9009   11.9839 H   0  0  0  0  0  0
   -0.6367    0.2877   13.4103 H   0  0  0  0  0  0
    1.8714    0.1944   13.1243 H   0  0  0  0  0  0
    1.3613   -6.3967   16.0353 H   0  0  0  0  0  0
    2.4397   -6.3273   14.6004 H   0  0  0  0  0  0
    2.2091   -7.6679   18.1314 H   0  0  0  0  0  0
    3.8625   -8.2634   14.0286 H   0  0  0  0  0  0
    6.2705  -12.3858   16.0083 H   0  0  0  0  0  0
    4.7256  -13.1449   15.4950 H   0  0  0  0  0  0
    3.0828   -9.9888   18.9200 H   0  0  0  0  0  0
    8.9385    0.1512   14.0274 H   0  0  0  0  0  0
    9.0293    1.9005   13.6296 H   0  0  0  0  0  0
    9.4986    0.6750   12.4030 H   0  0  0  0  0  0
  1 39  1  0  0  0
  1 13  1  0  0  0
  1  2  1  0  0  0
  1 50  1  0  0  0
  2  3  1  0  0  0
  2 51  1  0  0  0
  2 52  1  0  0  0
  3 11  1  0  0  0
  3  4  1  0  0  0
  3 53  1  0  0  0
  4  6  1  0  0  0
  4  5  2  0  0  0
  6  7  1  0  0  0
  6 54  1  0  0  0
  7 10  1  0  0  0
  7  9  1  0  0  0
  7  8  1  0  0  0
  8 55  1  0  0  0
  8 56  1  0  0  0
  8 57  1  0  0  0
  9 58  1  0  0  0
  9 59  1  0  0  0
  9 60  1  0  0  0
 10 61  1  0  0  0
 10 62  1  0  0  0
 10 63  1  0  0  0
 11 14  1  0  0  0
 11 12  1  0  0  0
 12 13  1  0  0  0
 12 64  1  0  0  0
 12 65  1  0  0  0
 13 66  1  0  0  0
 13 67  1  0  0  0
 14 15  1  0  0  0
 14 68  1  0  0  0
 14 69  1  0  0  0
 15 17  1  0  0  0
 15 16  1  0  0  0
 15 70  1  0  0  0
 16 71  1  0  0  0
 17 18  1  0  0  0
 17 72  1  0  0  0
 17 73  1  0  0  0
 18 26  1  0  0  0
 18 19  1  0  0  0
 18 74  1  0  0  0
 19 49  1  0  0  0
 19 20  1  0  0  0
 19 75  1  0  0  0
 20 25  2  0  0  0
 20 21  1  0  0  0
 21 22  2  0  0  0
 21 76  1  0  0  0
 22 23  1  0  0  0
 22 77  1  0  0  0
 23 24  2  0  0  0
 23 78  1  0  0  0
 24 25  1  0  0  0
 24 79  1  0  0  0
 25 80  1  0  0  0
 26 28  1  0  0  0
 26 27  2  0  0  0
 28 29  1  0  0  0
 28 81  1  0  0  0
 29 38  1  0  0  0
 29 30  1  0  0  0
 29 82  1  0  0  0
 30 32  1  0  0  0
 30 31  1  0  0  0
 30 83  1  0  0  0
 31 84  1  0  0  0
 32 33  1  0  0  0
 32 85  1  0  0  0
 32 86  1  0  0  0
 33 38  2  0  0  0
 33 34  1  0  0  0
 34 35  2  0  0  0
 34 87  1  0  0  0
 35 36  1  0  0  0
 35 88  1  0  0  0
 36 37  2  0  0  0
 36 89  1  0  0  0
 37 38  1  0  0  0
 37 90  1  0  0  0
 39 40  1  0  0  0
 39 91  1  0  0  0
 39 92  1  0  0  0
 40 44  2  0  0  0
 40 41  1  0  0  0
 41 48  2  0  0  0
 41 93  1  0  0  0
 42 48  1  0  0  0
 42 45  1  0  0  0
 42 43  2  0  0  0
 43 47  1  0  0  0
 43 44  1  0  0  0
 44 94  1  0  0  0
 45 46  1  0  0  0
 46 47  1  0  0  0
 46 95  1  0  0  0
 46 96  1  0  0  0
 48 97  1  0  0  0
 49 98  1  0  0  0
 49 99  1  0  0  0
 49100  1  0  0  0
M  CHG  1   1   1
M  END
> <s_m_source_file>
../1k6v_ligand.sdf

> <i_m_source_file_index>
1

> <s_epik_input>
TzFbQ0gyXU9jKGMxMilbY0hdYyhbY0hdW2NIXTIpW0NIMl1bTkBIK10zW0NIMl1bQ0BASF0oQyg9TylbTkhdQyhbQ0gzXSkoW0NIM10pW0NIM10pW05AQEgrXShbQ0gyXVtDSDJdMylbQ0gyXVtDQEBIXShbT0hdKVtDSDJdW0NAQEhdKFtDQEhdKFtDSDNdKWM0W2NIXVtjSF1bY0hdW2NIXVtjSF00KUMoPU8pW05IXVtDQEhdKFtDQEhdKFtPSF0pW0NIMl01KWMoYzU2KVtjSF1bY0hdW2NIXVtjSF02

> <s_epik_cmdline>
J2VwaWtfYXBwJywgJy1pbWFlJywgJ2xpZ2FuZF9wcm8ubWFlJywgJy1vbWFlJywgJ2xpZ2FuZF9wcmVwLm1hZScsICctbXMnLCAnMScsICctcGgnLCAnNycsICctcGh0JywgJzAuNScsICctbnQn

> <r_lp_tautomer_probability>
1

> <r_epik_Ionization_Penalty>
  0.1225

> <r_epik_Ionization_Penalty_Charging>
  0.1222

> <r_epik_Ionization_Penalty_Neutral>
  0.0003

> <r_epik_State_Penalty>
  0.4243

> <r_epik_Charging_Adjusted_Penalty>
0.546479600285126

> <i_epik_Tot_Q>
1

> <i_epik_Tot_abs_Q>
1

> <s_epik_Chemistry_Notes>
This compound contains an acetal/aminal-like group ( X-CH(R)-Y where X, Y are N, S, or O) that may be acid/base labile, releasing an aldehyde.

$$$$
