1k9q_ligand
                    3D
 Schrodinger Suite 2020-3.
 99102  0  0  1  0            999 V2000
    6.1050    9.1340    7.4560 N   0  3  0  0  0  0
    5.2020   10.1580    6.8600 C   0  0  0  0  0  0
    4.2400    9.4820    5.8750 C   0  0  0  0  0  0
    4.6070    9.1990    4.7520 O   0  0  0  0  0  0
    3.0300    9.2420    6.3240 N   0  0  0  0  0  0
    2.0180    8.5900    5.4570 C   0  0  2  0  0  0
    1.5140    9.5760    4.3920 C   0  0  0  0  0  0
    1.3360   10.7440    4.6720 O   0  0  0  0  0  0
    0.9000    8.2180    6.4250 C   0  0  0  0  0  0
    1.0380    9.1760    7.5670 C   0  0  0  0  0  0
    2.4960    9.5470    7.6600 C   0  0  0  0  0  0
    1.2970    9.0730    3.1990 N   0  0  0  0  0  0
    0.8080    9.9360    2.0960 C   0  0  2  0  0  0
   -0.6720   10.2860    2.3060 C   0  0  0  0  0  0
   -1.3500    9.6480    3.0850 O   0  0  0  0  0  0
    0.9890    9.0700    0.8530 C   0  0  0  0  0  0
    0.9590    7.6610    1.3540 C   0  0  0  0  0  0
    1.4830    7.6790    2.7670 C   0  0  0  0  0  0
   -1.1280   11.2940    1.6010 N   0  0  0  0  0  0
   -2.5450   11.7220    1.7220 C   0  0  2  0  0  0
   -3.4700   10.7110    1.0370 C   0  0  0  0  0  0
   -3.0490    9.6440    0.6350 O   0  0  0  0  0  0
   -2.5790   13.0640    0.9980 C   0  0  0  0  0  0
   -1.4370   13.0140    0.0330 C   0  0  0  0  0  0
   -0.3840   12.1220    0.6380 C   0  0  0  0  0  0
   -4.7260   11.0380    0.9010 N   0  0  0  0  0  0
   -5.6750   10.0960    0.2400 C   0  0  2  0  0  0
   -6.2540   10.7310   -1.0280 C   0  0  0  0  0  0
   -6.0980   10.2010   -2.1110 O   0  0  0  0  0  0
   -6.7800    9.8560    1.2710 C   0  0  0  0  0  0
   -7.3920    8.4930    1.0480 C   0  0  0  0  0  0
   -7.8540    8.1310   -0.2240 C   0  0  0  0  0  0
   -7.4990    7.5910    2.1130 C   0  0  0  0  0  0
   -8.4220    6.8690   -0.4290 C   0  0  0  0  0  0
   -8.0660    6.3290    1.9070 C   0  0  0  0  0  0
   -8.5280    5.9680    0.6360 C   0  0  0  0  0  0
   -9.0880    4.7230    0.4340 O   0  0  0  0  0  0
   -6.9190   11.8490   -0.9380 N   0  0  0  0  0  0
    7.0720    9.7210    8.4260 C   0  0  0  0  0  0
    8.3520    8.9010    8.2490 C   0  0  0  0  0  0
    9.5660    9.7680    8.5890 C   0  0  0  0  0  0
   10.8440    8.9450    8.4220 C   0  0  0  0  0  0
   11.7190    9.5750    7.3370 C   0  0  0  0  0  0
   12.6950   10.5650    7.9780 C   0  0  0  0  0  0
   14.1230   10.2270    7.5430 C   0  0  0  0  0  0
   14.2830   10.5110    6.0480 C   0  0  0  0  0  0
    5.5050    8.3818    7.9892 H   0  0  0  0  0  0
    6.6816    8.6442    6.6575 H   0  0  0  0  0  0
    4.6247   10.6470    7.6585 H   0  0  0  0  0  0
    5.8020   10.9107    6.3277 H   0  0  0  0  0  0
    2.4367    7.7209    4.9284 H   0  0  0  0  0  0
   -0.0720    8.3255    5.9213 H   0  0  0  0  0  0
    1.0301    7.1759    6.7524 H   0  0  0  0  0  0
    0.4224   10.0671    7.3745 H   0  0  0  0  0  0
    0.7011    8.6912    8.4951 H   0  0  0  0  0  0
    3.0279    8.9472    8.4132 H   0  0  0  0  0  0
    2.6375   10.6162    7.8761 H   0  0  0  0  0  0
    1.3646   10.8836    2.0479 H   0  0  0  0  0  0
    0.1692    9.2669    0.1464 H   0  0  0  0  0  0
    1.9503    9.3104    0.3754 H   0  0  0  0  0  0
   -0.0745    7.2850    1.3294 H   0  0  0  0  0  0
    1.5938    7.0306    0.7140 H   0  0  0  0  0  0
    2.5508    7.4193    2.8160 H   0  0  0  0  0  0
    0.9124    7.0108    3.4288 H   0  0  0  0  0  0
   -2.8599   11.7887    2.7739 H   0  0  0  0  0  0
   -3.5429   13.1769    0.4801 H   0  0  0  0  0  0
   -2.4576   13.8777    1.7281 H   0  0  0  0  0  0
   -1.7859   12.6059   -0.9271 H   0  0  0  0  0  0
   -1.0429   14.0293   -0.1217 H   0  0  0  0  0  0
    0.3898   12.6959    1.1689 H   0  0  0  0  0  0
    0.0909   11.4736   -0.1130 H   0  0  0  0  0  0
   -5.0848   12.0086    1.2740 H   0  0  0  0  0  0
   -5.1644    9.1673   -0.0545 H   0  0  0  0  0  0
   -6.3533    9.9044    2.2837 H   0  0  0  0  0  0
   -7.5563   10.6278    1.1629 H   0  0  0  0  0  0
   -7.7709    8.8326   -1.0540 H   0  0  0  0  0  0
   -7.1404    7.8721    3.1032 H   0  0  0  0  0  0
   -8.7820    6.5877   -1.4186 H   0  0  0  0  0  0
   -8.1481    5.6266    2.7364 H   0  0  0  0  0  0
   -9.4512    4.4388   -0.5646 H   0  0  0  0  0  0
   -7.0597   12.3279    0.0422 H   0  0  0  0  0  0
   -7.3393   12.3133   -1.8423 H   0  0  0  0  0  0
    7.2322   10.7827    8.1870 H   0  0  0  0  0  0
    6.6688    9.6315    9.4455 H   0  0  0  0  0  0
    8.3249    8.0297    8.9198 H   0  0  0  0  0  0
    8.4270    8.5587    7.2063 H   0  0  0  0  0  0
    9.5979   10.6354    7.9133 H   0  0  0  0  0  0
    9.4879   10.1164    9.6294 H   0  0  0  0  0  0
   11.3958    8.9276    9.3734 H   0  0  0  0  0  0
   10.5827    7.9169    8.1308 H   0  0  0  0  0  0
   12.2845    8.7868    6.8185 H   0  0  0  0  0  0
   11.0817   10.1051    6.6139 H   0  0  0  0  0  0
   12.4454   11.5867    7.6557 H   0  0  0  0  0  0
   12.6194   10.4973    9.0733 H   0  0  0  0  0  0
   14.8350   10.8437    8.1111 H   0  0  0  0  0  0
   14.3233    9.1629    7.7371 H   0  0  0  0  0  0
   15.3095   10.2678    5.7364 H   0  0  0  0  0  0
   14.0831   11.5751    5.8535 H   0  0  0  0  0  0
   13.5714    9.8943    5.4794 H   0  0  0  0  0  0
  1  2  1  0  0  0
  1 39  1  0  0  0
  1 47  1  0  0  0
  1 48  1  0  0  0
  2  3  1  0  0  0
  2 49  1  0  0  0
  2 50  1  0  0  0
  3  4  2  0  0  0
  3  5  1  0  0  0
  5  6  1  0  0  0
  5 11  1  0  0  0
  6  7  1  0  0  0
  6  9  1  0  0  0
  6 51  1  0  0  0
  7  8  2  0  0  0
  7 12  1  0  0  0
  9 10  1  0  0  0
  9 52  1  0  0  0
  9 53  1  0  0  0
 10 11  1  0  0  0
 10 54  1  0  0  0
 10 55  1  0  0  0
 11 56  1  0  0  0
 11 57  1  0  0  0
 12 13  1  0  0  0
 12 18  1  0  0  0
 13 14  1  0  0  0
 13 16  1  0  0  0
 13 58  1  0  0  0
 14 15  2  0  0  0
 14 19  1  0  0  0
 16 17  1  0  0  0
 16 59  1  0  0  0
 16 60  1  0  0  0
 17 18  1  0  0  0
 17 61  1  0  0  0
 17 62  1  0  0  0
 18 63  1  0  0  0
 18 64  1  0  0  0
 19 20  1  0  0  0
 19 25  1  0  0  0
 20 21  1  0  0  0
 20 23  1  0  0  0
 20 65  1  0  0  0
 21 22  2  0  0  0
 21 26  1  0  0  0
 23 24  1  0  0  0
 23 66  1  0  0  0
 23 67  1  0  0  0
 24 25  1  0  0  0
 24 68  1  0  0  0
 24 69  1  0  0  0
 25 70  1  0  0  0
 25 71  1  0  0  0
 26 27  1  0  0  0
 26 72  1  0  0  0
 27 30  1  0  0  0
 27 28  1  0  0  0
 27 73  1  0  0  0
 28 38  1  0  0  0
 28 29  2  0  0  0
 30 31  1  0  0  0
 30 74  1  0  0  0
 30 75  1  0  0  0
 31 32  2  0  0  0
 31 33  1  0  0  0
 32 34  1  0  0  0
 32 76  1  0  0  0
 33 35  2  0  0  0
 33 77  1  0  0  0
 34 36  2  0  0  0
 34 78  1  0  0  0
 35 36  1  0  0  0
 35 79  1  0  0  0
 36 37  1  0  0  0
 37 80  1  0  0  0
 38 81  1  0  0  0
 38 82  1  0  0  0
 39 40  1  0  0  0
 39 83  1  0  0  0
 39 84  1  0  0  0
 40 41  1  0  0  0
 40 85  1  0  0  0
 40 86  1  0  0  0
 41 42  1  0  0  0
 41 87  1  0  0  0
 41 88  1  0  0  0
 42 43  1  0  0  0
 42 89  1  0  0  0
 42 90  1  0  0  0
 43 44  1  0  0  0
 43 91  1  0  0  0
 43 92  1  0  0  0
 44 45  1  0  0  0
 44 93  1  0  0  0
 44 94  1  0  0  0
 45 46  1  0  0  0
 45 95  1  0  0  0
 45 96  1  0  0  0
 46 97  1  0  0  0
 46 98  1  0  0  0
 46 99  1  0  0  0
M  CHG  1   1   1
M  END
> <s_m_source_file>
../1k9q_ligand.sdf

> <i_m_source_file_index>
1

> <s_epik_input>
W0NIM11bQ0gyXVtDSDJdW0NIMl1bQ0gyXVtDSDJdW0NIMl1bQ0gyXVtOSDIrXVtDSDJdQyg9TylOMVtDQEBIXShbQ0gyXVtDSDJdW0NIMl0xKUMoPU8pTjJbQ0BASF0oW0NIMl1bQ0gyXVtDSDJdMilDKD1PKU4zW0NAQEhdKFtDSDJdW0NIMl1bQ0gyXTMpQyg9TylbTkhdW0NASF0oQyg9TylbTkgyXSlbQ0gyXWM0W2NIXVtjSF1jKFtPSF0pW2NIXVtjSF00

> <s_epik_cmdline>
J2VwaWtfYXBwJywgJy1pbWFlJywgJ2xpZ2FuZF9wcm8ubWFlJywgJy1vbWFlJywgJ2xpZ2FuZF9wcmVwLm1hZScsICctbXMnLCAnMScsICctcGgnLCAnNycsICctcGh0JywgJzAuNScsICctbnQn

> <r_lp_tautomer_probability>
0.999999999997365

> <r_epik_Ionization_Penalty>
  0.0464

> <r_epik_Ionization_Penalty_Charging>
  0.0453

> <r_epik_Ionization_Penalty_Neutral>
  0.0011

> <r_epik_State_Penalty>
  0.0385

> <r_epik_Charging_Adjusted_Penalty>
0.0838234374810116

> <i_epik_Tot_Q>
1

> <i_epik_Tot_abs_Q>
1

$$$$
