1k9r_ligand
                    3D
 Schrodinger Suite 2020-3.
 89 92  0  0  1  0            999 V2000
    6.8370   15.2150    1.1390 C   0  0  0  0  0  0
    5.8480   15.7360    1.6160 O   0  0  0  0  0  0
    7.2950   15.5600   -0.2800 C   0  0  0  0  0  0
    7.5760   14.3400    1.7650 N   0  0  0  0  0  0
    7.7850   12.9940    1.1670 C   0  0  2  0  0  0
    6.4400   12.3470    0.8180 C   0  0  0  0  0  0
    5.3930   12.8900    1.0990 O   0  0  0  0  0  0
    8.4920   12.2090    2.2660 C   0  0  0  0  0  0
    8.0950   12.8820    3.5380 C   0  0  0  0  0  0
    7.8370   14.3310    3.2110 C   0  0  0  0  0  0
    6.4720   11.1870    0.2070 N   0  0  0  0  0  0
    5.2050   10.4810   -0.1720 C   0  0  2  0  0  0
    4.3850   11.3330   -1.1580 C   0  0  0  0  0  0
    4.2940   12.5350   -1.0080 O   0  0  0  0  0  0
    4.4390   10.2720    1.1390 C   0  0  0  0  0  0
    3.2530    9.3390    0.8930 C   0  0  0  0  0  0
    3.7580    7.9040    0.7320 C   0  0  0  0  0  0
    2.2910    9.4120    2.0800 C   0  0  0  0  0  0
    3.8140   10.6820   -2.1470 N   0  0  0  0  0  0
    3.0060   11.4060   -3.1600 C   0  0  2  0  0  0
    1.6470   11.8190   -2.5750 C   0  0  0  0  0  0
    0.8320   10.9730   -2.2690 O   0  0  0  0  0  0
    2.8120   10.3750   -4.2680 C   0  0  0  0  0  0
    2.9400    9.0490   -3.5890 C   0  0  0  0  0  0
    3.8660    9.2360   -2.4160 C   0  0  0  0  0  0
    1.4360   13.1070   -2.4440 N   0  0  0  0  0  0
    0.1490   13.6030   -1.8980 C   0  0  2  0  0  0
   -0.9590   13.4600   -2.9480 C   0  0  0  0  0  0
   -1.0280   14.2160   -3.8960 O   0  0  0  0  0  0
    0.4270   15.0730   -1.6010 C   0  0  0  0  0  0
    1.5450   15.4520   -2.5210 C   0  0  0  0  0  0
    2.3540   14.2050   -2.7790 C   0  0  0  0  0  0
   -1.8240   12.4940   -2.7890 N   0  0  0  0  0  0
   -2.9240   12.3060   -3.7840 C   0  0  2  0  0  0
   -3.6690   13.6250   -4.0100 C   0  0  0  0  0  0
   -3.5550   14.1670   -5.0960 O   0  0  0  0  0  0
   -3.8570   11.2660   -3.1560 C   0  0  0  0  0  0
   -4.4820   10.4080   -4.2390 C   0  0  0  0  0  0
   -4.8900   10.9830   -5.4520 C   0  0  0  0  0  0
   -4.6560    9.0360   -4.0260 C   0  0  0  0  0  0
   -5.4690   10.1850   -6.4460 C   0  0  0  0  0  0
   -5.2360    8.2380   -5.0200 C   0  0  0  0  0  0
   -5.6420    8.8120   -6.2300 C   0  0  0  0  0  0
   -6.2130    8.0270   -7.2100 O   0  0  0  0  0  0
   -4.3390   14.0690   -3.0910 O   0  5  0  0  0  0
    6.6093   16.3011   -0.7166 H   0  0  0  0  0  0
    7.2926   14.6497   -0.8975 H   0  0  0  0  0  0
    8.3122   15.9772   -0.2457 H   0  0  0  0  0  0
    8.3694   13.0533    0.2370 H   0  0  0  0  0  0
    8.1591   11.1609    2.2401 H   0  0  0  0  0  0
    9.5794   12.2523    2.1060 H   0  0  0  0  0  0
    7.1865   12.4066    3.9363 H   0  0  0  0  0  0
    8.9093   12.7890    4.2717 H   0  0  0  0  0  0
    8.7103   14.9631    3.4299 H   0  0  0  0  0  0
    6.9583   14.7222    3.7447 H   0  0  0  0  0  0
    7.4460   10.7325   -0.0270 H   0  0  0  0  0  0
    5.4307    9.5266   -0.6701 H   0  0  0  0  0  0
    5.1089    9.8240    1.8876 H   0  0  0  0  0  0
    4.0727   11.2413    1.5082 H   0  0  0  0  0  0
    2.7280    9.6479   -0.0230 H   0  0  0  0  0  0
    4.4497    7.8523   -0.1218 H   0  0  0  0  0  0
    2.9048    7.2329    0.5538 H   0  0  0  0  0  0
    4.2826    7.5950    1.6481 H   0  0  0  0  0  0
    1.9283   10.4441    2.1951 H   0  0  0  0  0  0
    2.8153    9.1032    2.9964 H   0  0  0  0  0  0
    1.4376    8.7412    1.9021 H   0  0  0  0  0  0
    3.5146   12.3222   -3.4945 H   0  0  0  0  0  0
    1.8178   10.5054   -4.7202 H   0  0  0  0  0  0
    3.5858   10.5136   -5.0375 H   0  0  0  0  0  0
    1.9489    8.7137   -3.2496 H   0  0  0  0  0  0
    3.3538    8.3139   -4.2950 H   0  0  0  0  0  0
    4.8996    8.9442   -2.6537 H   0  0  0  0  0  0
    3.5248    8.6852   -1.5271 H   0  0  0  0  0  0
   -0.1636   13.0347   -1.0096 H   0  0  0  0  0  0
   -0.4789   15.6647   -1.7990 H   0  0  0  0  0  0
    0.7151   15.1857   -0.5454 H   0  0  0  0  0  0
    1.1294   15.8445   -3.4608 H   0  0  0  0  0  0
    2.1665   16.2242   -2.0441 H   0  0  0  0  0  0
    3.2438   14.1485   -2.1347 H   0  0  0  0  0  0
    2.6583   14.1200   -3.8326 H   0  0  0  0  0  0
   -1.7436   11.8192   -1.9240 H   0  0  0  0  0  0
   -2.5222   11.9814   -4.7552 H   0  0  0  0  0  0
   -3.2827   10.6237   -2.4721 H   0  0  0  0  0  0
   -4.6532   11.7783   -2.5960 H   0  0  0  0  0  0
   -4.7561   12.0515   -5.6206 H   0  0  0  0  0  0
   -4.3394    8.5874   -3.0844 H   0  0  0  0  0  0
   -5.7853   10.6324   -7.3883 H   0  0  0  0  0  0
   -5.3712    7.1697   -4.8512 H   0  0  0  0  0  0
   -6.5317    8.4793   -8.1607 H   0  0  0  0  0  0
  1  2  2  0  0  0
  1  3  1  0  0  0
  1  4  1  0  0  0
  3 46  1  0  0  0
  3 47  1  0  0  0
  3 48  1  0  0  0
  4  5  1  0  0  0
  4 10  1  0  0  0
  5  6  1  0  0  0
  5  8  1  0  0  0
  5 49  1  0  0  0
  6  7  2  0  0  0
  6 11  1  0  0  0
  8  9  1  0  0  0
  8 50  1  0  0  0
  8 51  1  0  0  0
  9 10  1  0  0  0
  9 52  1  0  0  0
  9 53  1  0  0  0
 10 54  1  0  0  0
 10 55  1  0  0  0
 11 12  1  0  0  0
 11 56  1  0  0  0
 12 13  1  0  0  0
 12 15  1  0  0  0
 12 57  1  0  0  0
 13 14  2  0  0  0
 13 19  1  0  0  0
 15 16  1  0  0  0
 15 58  1  0  0  0
 15 59  1  0  0  0
 16 17  1  0  0  0
 16 18  1  0  0  0
 16 60  1  0  0  0
 17 61  1  0  0  0
 17 62  1  0  0  0
 17 63  1  0  0  0
 18 64  1  0  0  0
 18 65  1  0  0  0
 18 66  1  0  0  0
 19 20  1  0  0  0
 19 25  1  0  0  0
 20 21  1  0  0  0
 20 23  1  0  0  0
 20 67  1  0  0  0
 21 22  2  0  0  0
 21 26  1  0  0  0
 23 24  1  0  0  0
 23 68  1  0  0  0
 23 69  1  0  0  0
 24 25  1  0  0  0
 24 70  1  0  0  0
 24 71  1  0  0  0
 25 72  1  0  0  0
 25 73  1  0  0  0
 26 27  1  0  0  0
 26 32  1  0  0  0
 27 28  1  0  0  0
 27 30  1  0  0  0
 27 74  1  0  0  0
 28 29  2  0  0  0
 28 33  1  0  0  0
 30 31  1  0  0  0
 30 75  1  0  0  0
 30 76  1  0  0  0
 31 32  1  0  0  0
 31 77  1  0  0  0
 31 78  1  0  0  0
 32 79  1  0  0  0
 32 80  1  0  0  0
 33 34  1  0  0  0
 33 81  1  0  0  0
 34 35  1  0  0  0
 34 37  1  0  0  0
 34 82  1  0  0  0
 35 36  2  0  0  0
 35 45  1  0  0  0
 37 38  1  0  0  0
 37 83  1  0  0  0
 37 84  1  0  0  0
 38 39  2  0  0  0
 38 40  1  0  0  0
 39 41  1  0  0  0
 39 85  1  0  0  0
 40 42  2  0  0  0
 40 86  1  0  0  0
 41 43  2  0  0  0
 41 87  1  0  0  0
 42 43  1  0  0  0
 42 88  1  0  0  0
 43 44  1  0  0  0
 44 89  1  0  0  0
M  CHG  1  45  -1
M  END
> <s_m_source_file>
../1k9r_ligand.sdf

> <i_m_source_file_index>
1

> <s_epik_input>
Tz1DKFtDSDNdKU4xW0NAQEhdKFtDSDJdW0NIMl1bQ0gyXTEpQyg9TylbTkhdW0NAQEhdKFtDSDJdW0NIXShbQ0gzXSlbQ0gzXSlDKD1PKU4yW0NAQEhdKFtDSDJdW0NIMl1bQ0gyXTIpQyg9TylOM1tDQEBIXShbQ0gyXVtDSDJdW0NIMl0zKUMoPU8pW05IXVtDQEhdKEMoPU8pW09IXSlbQ0gyXWM0W2NIXVtjSF1jKFtPSF0pW2NIXVtjSF00

> <s_epik_cmdline>
J2VwaWtfYXBwJywgJy1pbWFlJywgJ2xpZ2FuZF9wcm8ubWFlJywgJy1vbWFlJywgJ2xpZ2FuZF9wcmVwLm1hZScsICctbXMnLCAnMScsICctcGgnLCAnNycsICctcGh0JywgJzAuNScsICctbnQn

> <r_lp_tautomer_probability>
1

> <r_epik_Ionization_Penalty>
  0.0009

> <r_epik_Ionization_Penalty_Charging>
  0.0003

> <r_epik_Ionization_Penalty_Neutral>
  0.0006

> <r_epik_State_Penalty>
 -0.0000

> <r_epik_Charging_Adjusted_Penalty>
0.000251032119381924

> <i_epik_Tot_Q>
-1

> <i_epik_Tot_abs_Q>
1

$$$$
