1ka7_ligand
                    3D
 Schrodinger Suite 2020-3.
215215  0  0  1  0            999 V2000
   16.7400   12.4160    5.4490 N   0  3  0  0  0  0
   17.8870   11.4760    5.5300 C   0  0  2  0  0  0
   17.6770   10.4430    6.6330 C   0  0  0  0  0  0
   17.0270   10.7230    7.6410 O   0  0  0  0  0  0
   19.1600   12.2830    5.7960 C   0  0  0  0  0  0
   19.4910   13.2730    4.6920 C   0  0  0  0  0  0
   20.7320   14.0830    5.0260 C   0  0  0  0  0  0
   21.9600   13.3550    4.7180 N   0  0  0  0  0  0
   22.6070   13.4550    3.5600 C   0  0  0  0  0  0
   22.1460   14.2510    2.6040 N   0  0  0  0  0  0
   23.7170   12.7590    3.3580 N   0  0  0  0  0  0
   18.2300    9.2490    6.4330 N   0  0  0  0  0  0
   18.1050    8.1690    7.4060 C   0  0  2  0  0  0
   16.6390    7.8510    7.6850 C   0  0  0  0  0  0
   16.2960    7.3430    8.7540 O   0  0  0  0  0  0
   18.8170    8.5420    8.7090 C   0  0  0  0  0  0
   20.2970    8.1960    8.7150 C   0  0  0  0  0  0
   21.1610    9.4470    8.6690 C   0  0  0  0  0  0
   22.3770    9.3190    9.5730 C   0  0  0  0  0  0
   22.3640   10.3280   10.6670 N   0  3  0  0  0  0
   15.7780    8.1520    6.7170 N   0  0  0  0  0  0
   14.3490    7.8980    6.8550 C   0  0  2  0  0  0
   13.6640    7.9020    5.4930 C   0  0  0  0  0  0
   13.3910    8.9610    4.9270 O   0  0  0  0  0  0
   13.7060    8.9470    7.7640 C   0  0  0  0  0  0
   14.1760   10.2480    7.4550 O   0  0  0  0  0  0
   13.3880    6.7110    4.9710 N   0  0  0  0  0  0
   12.7360    6.5770    3.6740 C   0  0  2  0  0  0
   11.2860    6.1310    3.8390 C   0  0  0  0  0  0
   10.8500    5.1540    3.2290 O   0  0  0  0  0  0
   13.4960    5.5800    2.7930 C   0  0  0  0  0  0
   14.8160    5.0670    3.3740 C   0  0  0  0  0  0
   15.2040    3.7450    2.7290 C   0  0  0  0  0  0
   15.9190    6.0980    3.1850 C   0  0  0  0  0  0
   10.5420    6.8560    4.6720 N   0  0  0  0  0  0
    9.1400    6.5380    4.9210 C   0  0  2  0  0  0
    8.3570    7.7860    5.3220 C   0  0  0  0  0  0
    8.8270    8.5940    6.1230 O   0  0  0  0  0  0
    8.9920    5.4780    6.0270 C   0  0  2  0  0  0
   10.0930    4.5630    5.9820 O   0  0  0  0  0  0
    7.6860    4.7120    5.8720 C   0  0  0  0  0  0
    7.1620    7.9370    4.7580 N   0  0  0  0  0  0
    6.3150    9.0870    5.0560 C   0  0  2  0  0  0
    5.1280    8.6890    5.9270 C   0  0  0  0  0  0
    4.7090    9.4470    6.8010 O   0  0  0  0  0  0
    5.7920    9.7500    3.7640 C   0  0  2  0  0  0
    6.9570   10.1060    2.8330 C   0  0  0  0  0  0
    4.9700   10.9890    4.0960 C   0  0  0  0  0  0
    7.9230   11.1150    3.4180 C   0  0  0  0  0  0
    4.5910    7.4970    5.6790 N   0  0  0  0  0  0
    3.4490    6.9940    6.4390 C   0  0  2  0  0  0
    2.2570    7.9400    6.3240 C   0  0  0  0  0  0
    1.4090    7.9990    7.2160 O   0  0  0  0  0  0
    3.8260    6.8100    7.9100 C   0  0  0  0  0  0
    3.8750    5.3630    8.3480 C   0  0  0  0  0  0
    2.7520    4.7400    8.8810 C   0  0  0  0  0  0
    5.0430    4.6220    8.2320 C   0  0  0  0  0  0
    2.7950    3.4200    9.2850 C   0  0  0  0  0  0
    5.0930    3.3010    8.6330 C   0  0  0  0  0  0
    3.9660    2.7040    9.1590 C   0  0  0  0  0  0
    4.0110    1.3890    9.5600 O   0  0  0  0  0  0
    2.1980    8.6770    5.2200 N   0  0  0  0  0  0
    1.1110    9.6200    4.9870 C   0  0  2  0  0  0
   -0.1920    8.8920    4.6750 C   0  0  0  0  0  0
   -0.2810    7.6710    4.8120 O   0  0  0  0  0  0
    1.4680   10.5650    3.8510 C   0  0  0  0  0  0
   -1.1980    9.6500    4.2520 N   0  0  0  0  0  0
   -2.4970    9.0810    3.9160 C   0  0  2  0  0  0
   -2.8730    9.4030    2.4740 C   0  0  0  0  0  0
   -2.1660   10.1390    1.7860 O   0  0  0  0  0  0
   -3.5710    9.6090    4.8680 C   0  0  0  0  0  0
   -3.7790    8.7330    6.0930 C   0  0  0  0  0  0
   -4.0880    9.5380    7.3410 C   0  0  0  0  0  0
   -3.1820    9.9730    8.0540 O   0  0  0  0  0  0
   -5.3720    9.7380    7.6150 N   0  0  0  0  0  0
   -3.9930    8.8460    2.0230 N   0  0  0  0  0  0
   -4.4690    9.0710    0.6640 C   0  0  2  0  0  0
   -5.0390   10.4790    0.5100 C   0  0  0  0  0  0
   -6.0300   10.8310    1.1490 O   0  0  0  0  0  0
   -5.5480    8.0410    0.2740 C   0  0  0  0  0  0
   -6.0010    8.2510   -1.1630 C   0  0  0  0  0  0
   -5.0310    6.6240    0.4740 C   0  0  0  0  0  0
   -4.4020   11.2810   -0.3410 N   0  0  0  0  0  0
   -4.8420   12.6530   -0.5760 C   0  0  2  0  0  0
   -5.7640   12.7360   -1.7910 C   0  0  0  0  0  0
   -5.9530   13.8100   -2.3630 O   0  0  0  0  0  0
   -3.6340   13.5710   -0.7790 C   0  0  0  0  0  0
   -2.5610   13.4140    0.2860 C   0  0  0  0  0  0
   -1.1620   13.3700   -0.2980 C   0  0  0  0  0  0
   -0.9730   13.5340   -1.5040 O   0  0  0  0  0  0
   -0.1720   13.1470    0.5580 N   0  0  0  0  0  0
   -6.3340   11.6000   -2.1790 N   0  0  0  0  0  0
   -7.2350   11.5520   -3.3260 C   0  0  2  0  0  0
   -8.5190   10.8040   -2.9820 C   0  0  0  0  0  0
   -9.6060   11.3010   -3.3430 O   0  0  0  0  0  0
   -6.5440   10.8850   -4.5170 C   0  0  0  0  0  0
   -6.2950   11.8290   -5.6830 C   0  0  0  0  0  0
   -4.8170   11.9030   -6.0330 C   0  0  0  0  0  0
   -4.2820   13.3190   -5.8930 C   0  0  0  0  0  0
   -4.8180   14.2220   -6.9480 N   0  3  0  0  0  0
   -8.4260    9.7280   -2.3570 O   0  0  0  0  0  0
   15.8157   11.8510    5.2579 H   0  0  0  0  0  0
   16.9088   13.1308    4.6301 H   0  0  0  0  0  0
   16.6459   12.9624    6.3991 H   0  0  0  0  0  0
   17.9496   10.9435    4.5695 H   0  0  0  0  0  0
   19.0431   12.8556    6.7279 H   0  0  0  0  0  0
   20.0153   11.5979    5.8915 H   0  0  0  0  0  0
   19.6722   12.7286    3.7535 H   0  0  0  0  0  0
   18.6480   13.9666    4.5566 H   0  0  0  0  0  0
   20.7297   15.0151    4.4418 H   0  0  0  0  0  0
   20.7352   14.3231    6.0995 H   0  0  0  0  0  0
   22.4000   12.6778    5.4649 H   0  0  0  0  0  0
   21.2253   14.8304    2.7672 H   0  0  0  0  0  0
   22.6844   14.3316    1.6482 H   0  0  0  0  0  0
   24.1029   12.0977    4.1478 H   0  0  0  0  0  0
   18.7940    9.0883    5.5024 H   0  0  0  0  0  0
   18.5877    7.2980    6.9387 H   0  0  0  0  0  0
   18.7328    9.6261    8.8755 H   0  0  0  0  0  0
   18.3510    8.0048    9.5482 H   0  0  0  0  0  0
   20.5395    7.6385    9.6317 H   0  0  0  0  0  0
   20.5325    7.5773    7.8365 H   0  0  0  0  0  0
   21.5093    9.6143    7.6391 H   0  0  0  0  0  0
   20.5701   10.3132    9.0015 H   0  0  0  0  0  0
   22.3917    8.3177   10.0281 H   0  0  0  0  0  0
   23.2918    9.4657    8.9800 H   0  0  0  0  0  0
   23.2583   10.1999   11.2946 H   0  0  0  0  0  0
   21.4620   10.1909   11.2815 H   0  0  0  0  0  0
   22.3621   11.3389   10.2334 H   0  0  0  0  0  0
   16.1696    8.6040    5.7938 H   0  0  0  0  0  0
   14.2717    6.8982    7.3071 H   0  0  0  0  0  0
   12.6142    8.9271    7.6317 H   0  0  0  0  0  0
   13.9524    8.7241    8.8126 H   0  0  0  0  0  0
   13.8070   11.1152    8.0222 H   0  0  0  0  0  0
   13.6642    5.8130    5.5431 H   0  0  0  0  0  0
   12.7652    7.5821    3.2279 H   0  0  0  0  0  0
   12.8680    4.6944    2.6158 H   0  0  0  0  0  0
   13.7417    6.0537    1.8311 H   0  0  0  0  0  0
   14.6856    4.8977    4.4530 H   0  0  0  0  0  0
   14.3953    3.0140    2.8761 H   0  0  0  0  0  0
   16.1277    3.3681    3.1923 H   0  0  0  0  0  0
   15.3695    3.8970    1.6522 H   0  0  0  0  0  0
   15.6202    7.0454    3.6574 H   0  0  0  0  0  0
   16.0879    6.2614    2.1104 H   0  0  0  0  0  0
   16.8462    5.7325    3.6505 H   0  0  0  0  0  0
   11.0098    7.7134    5.1781 H   0  0  0  0  0  0
    8.7791    6.1502    3.9570 H   0  0  0  0  0  0
    9.0353    5.9500    7.0196 H   0  0  0  0  0  0
   11.1231    4.9368    6.0783 H   0  0  0  0  0  0
    6.8416    5.4161    5.9068 H   0  0  0  0  0  0
    7.5893    3.9828    6.6899 H   0  0  0  0  0  0
    7.6832    4.1835    4.9073 H   0  0  0  0  0  0
    6.8167    7.1680    4.0513 H   0  0  0  0  0  0
    6.9788    9.7678    5.6091 H   0  0  0  0  0  0
    5.1345    9.0423    3.2378 H   0  0  0  0  0  0
    7.5338    9.1979    2.6037 H   0  0  0  0  0  0
    6.5629   10.5353    1.9001 H   0  0  0  0  0  0
    4.1412   10.7111    4.7637 H   0  0  0  0  0  0
    4.5649   11.4197    3.1684 H   0  0  0  0  0  0
    5.6104   11.7308    4.5956 H   0  0  0  0  0  0
    8.7258   11.3167    2.6936 H   0  0  0  0  0  0
    8.3579   10.7118    4.3445 H   0  0  0  0  0  0
    7.3869   12.0493    3.6409 H   0  0  0  0  0  0
    5.0301    6.8856    4.8769 H   0  0  0  0  0  0
    3.1985    6.0251    5.9825 H   0  0  0  0  0  0
    4.8220    7.2407    8.0899 H   0  0  0  0  0  0
    3.0861    7.3196    8.5447 H   0  0  0  0  0  0
    1.8235    5.3020    8.9815 H   0  0  0  0  0  0
    5.9357    5.0903    7.8175 H   0  0  0  0  0  0
    1.9063    2.9463    9.7019 H   0  0  0  0  0  0
    6.0182    2.7332    8.5343 H   0  0  0  0  0  0
    3.1136    0.9110    9.9797 H   0  0  0  0  0  0
    2.9963    8.5621    4.4720 H   0  0  0  0  0  0
    1.0020   10.1815    5.9266 H   0  0  0  0  0  0
    2.4087   11.0837    4.0875 H   0  0  0  0  0  0
    0.6638   11.3044    3.7227 H   0  0  0  0  0  0
    1.5898    9.9906    2.9208 H   0  0  0  0  0  0
   -1.0311   10.7332    4.1580 H   0  0  0  0  0  0
   -2.3813    7.9935    4.0340 H   0  0  0  0  0  0
   -3.2857   10.6101    5.2236 H   0  0  0  0  0  0
   -4.5333    9.6685    4.3384 H   0  0  0  0  0  0
   -4.6218    8.0487    5.9156 H   0  0  0  0  0  0
   -2.8669    8.1491    6.2854 H   0  0  0  0  0  0
   -6.1465    9.3301    6.9489 H   0  0  0  0  0  0
   -5.6610   10.3115    8.5081 H   0  0  0  0  0  0
   -4.5645    8.2005    2.7062 H   0  0  0  0  0  0
   -3.5708    8.9538    0.0399 H   0  0  0  0  0  0
   -6.4250    8.1768    0.9239 H   0  0  0  0  0  0
   -6.3701    9.2801   -1.2844 H   0  0  0  0  0  0
   -6.8076    7.5417   -1.4005 H   0  0  0  0  0  0
   -5.1529    8.0830   -1.8431 H   0  0  0  0  0  0
   -4.7096    6.4949    1.5180 H   0  0  0  0  0  0
   -4.1775    6.4470   -0.1970 H   0  0  0  0  0  0
   -5.8322    5.9057    0.2455 H   0  0  0  0  0  0
   -3.5239   10.8862   -0.8731 H   0  0  0  0  0  0
   -5.3978   12.9370    0.3297 H   0  0  0  0  0  0
   -3.1659   13.3517   -1.7500 H   0  0  0  0  0  0
   -3.9635   14.6203   -0.7594 H   0  0  0  0  0  0
   -2.6094   14.2634    0.9833 H   0  0  0  0  0  0
   -2.7263   12.4769    0.8377 H   0  0  0  0  0  0
   -0.3903   13.0065    1.6269 H   0  0  0  0  0  0
    0.8666   13.1028    0.1983 H   0  0  0  0  0  0
   -6.1133   10.6822   -1.6142 H   0  0  0  0  0  0
   -7.4714   12.6013   -3.5563 H   0  0  0  0  0  0
  -10.5501   10.7866   -3.1106 H   0  0  0  0  0  0
   -5.5676   10.4897   -4.2001 H   0  0  0  0  0  0
   -7.1699   10.0607   -4.8896 H   0  0  0  0  0  0
   -6.8450   11.4732   -6.5667 H   0  0  0  0  0  0
   -6.6413   12.8388   -5.4177 H   0  0  0  0  0  0
   -4.2472   11.2471   -5.3584 H   0  0  0  0  0  0
   -4.6696   11.5763   -7.0730 H   0  0  0  0  0  0
   -4.5715   13.7251   -4.9125 H   0  0  0  0  0  0
   -3.1852   13.3064   -5.9752 H   0  0  0  0  0  0
   -4.4065   15.2327   -6.8094 H   0  0  0  0  0  0
   -5.9150   14.2597   -6.8757 H   0  0  0  0  0  0
   -4.5286   13.8409   -7.9385 H   0  0  0  0  0  0
  1  2  1  0  0  0
  1102  1  0  0  0
  1103  1  0  0  0
  1104  1  0  0  0
  2  3  1  0  0  0
  2  5  1  0  0  0
  2105  1  0  0  0
  3  4  2  0  0  0
  3 12  1  0  0  0
  5  6  1  0  0  0
  5106  1  0  0  0
  5107  1  0  0  0
  6  7  1  0  0  0
  6108  1  0  0  0
  6109  1  0  0  0
  7  8  1  0  0  0
  7110  1  0  0  0
  7111  1  0  0  0
  8  9  1  0  0  0
  8112  1  0  0  0
  9 10  1  0  0  0
  9 11  2  0  0  0
 10113  1  0  0  0
 10114  1  0  0  0
 11115  1  0  0  0
 12 13  1  0  0  0
 12116  1  0  0  0
 13 14  1  0  0  0
 13 16  1  0  0  0
 13117  1  0  0  0
 14 15  2  0  0  0
 14 21  1  0  0  0
 16 17  1  0  0  0
 16118  1  0  0  0
 16119  1  0  0  0
 17 18  1  0  0  0
 17120  1  0  0  0
 17121  1  0  0  0
 18 19  1  0  0  0
 18122  1  0  0  0
 18123  1  0  0  0
 19 20  1  0  0  0
 19124  1  0  0  0
 19125  1  0  0  0
 20126  1  0  0  0
 20127  1  0  0  0
 20128  1  0  0  0
 21 22  1  0  0  0
 21129  1  0  0  0
 22 23  1  0  0  0
 22 25  1  0  0  0
 22130  1  0  0  0
 23 24  2  0  0  0
 23 27  1  0  0  0
 25 26  1  0  0  0
 25131  1  0  0  0
 25132  1  0  0  0
 26133  1  0  0  0
 27 28  1  0  0  0
 27134  1  0  0  0
 28 29  1  0  0  0
 28 31  1  0  0  0
 28135  1  0  0  0
 29 30  2  0  0  0
 29 35  1  0  0  0
 31 32  1  0  0  0
 31136  1  0  0  0
 31137  1  0  0  0
 32 33  1  0  0  0
 32 34  1  0  0  0
 32138  1  0  0  0
 33139  1  0  0  0
 33140  1  0  0  0
 33141  1  0  0  0
 34142  1  0  0  0
 34143  1  0  0  0
 34144  1  0  0  0
 35 36  1  0  0  0
 35145  1  0  0  0
 36 37  1  0  0  0
 36 39  1  0  0  0
 36146  1  0  0  0
 37 38  2  0  0  0
 37 42  1  0  0  0
 39 40  1  0  0  0
 39 41  1  0  0  0
 39147  1  0  0  0
 40148  1  0  0  0
 41149  1  0  0  0
 41150  1  0  0  0
 41151  1  0  0  0
 42 43  1  0  0  0
 42152  1  0  0  0
 43 44  1  0  0  0
 43 46  1  0  0  0
 43153  1  0  0  0
 44 45  2  0  0  0
 44 50  1  0  0  0
 46 47  1  0  0  0
 46 48  1  0  0  0
 46154  1  0  0  0
 47 49  1  0  0  0
 47155  1  0  0  0
 47156  1  0  0  0
 48157  1  0  0  0
 48158  1  0  0  0
 48159  1  0  0  0
 49160  1  0  0  0
 49161  1  0  0  0
 49162  1  0  0  0
 50 51  1  0  0  0
 50163  1  0  0  0
 51 52  1  0  0  0
 51 54  1  0  0  0
 51164  1  0  0  0
 52 53  2  0  0  0
 52 62  1  0  0  0
 54 55  1  0  0  0
 54165  1  0  0  0
 54166  1  0  0  0
 55 56  2  0  0  0
 55 57  1  0  0  0
 56 58  1  0  0  0
 56167  1  0  0  0
 57 59  2  0  0  0
 57168  1  0  0  0
 58 60  2  0  0  0
 58169  1  0  0  0
 59 60  1  0  0  0
 59170  1  0  0  0
 60 61  1  0  0  0
 61171  1  0  0  0
 62 63  1  0  0  0
 62172  1  0  0  0
 63 64  1  0  0  0
 63 66  1  0  0  0
 63173  1  0  0  0
 64 65  2  0  0  0
 64 67  1  0  0  0
 66174  1  0  0  0
 66175  1  0  0  0
 66176  1  0  0  0
 67 68  1  0  0  0
 67177  1  0  0  0
 68 69  1  0  0  0
 68 71  1  0  0  0
 68178  1  0  0  0
 69 70  2  0  0  0
 69 76  1  0  0  0
 71 72  1  0  0  0
 71179  1  0  0  0
 71180  1  0  0  0
 72 73  1  0  0  0
 72181  1  0  0  0
 72182  1  0  0  0
 73 74  2  0  0  0
 73 75  1  0  0  0
 75183  1  0  0  0
 75184  1  0  0  0
 76 77  1  0  0  0
 76185  1  0  0  0
 77 78  1  0  0  0
 77 80  1  0  0  0
 77186  1  0  0  0
 78 79  2  0  0  0
 78 83  1  0  0  0
 80 81  1  0  0  0
 80 82  1  0  0  0
 80187  1  0  0  0
 81188  1  0  0  0
 81189  1  0  0  0
 81190  1  0  0  0
 82191  1  0  0  0
 82192  1  0  0  0
 82193  1  0  0  0
 83 84  1  0  0  0
 83194  1  0  0  0
 84 85  1  0  0  0
 84 87  1  0  0  0
 84195  1  0  0  0
 85 86  2  0  0  0
 85 92  1  0  0  0
 87 88  1  0  0  0
 87196  1  0  0  0
 87197  1  0  0  0
 88 89  1  0  0  0
 88198  1  0  0  0
 88199  1  0  0  0
 89 90  2  0  0  0
 89 91  1  0  0  0
 91200  1  0  0  0
 91201  1  0  0  0
 92 93  1  0  0  0
 92202  1  0  0  0
 93 94  1  0  0  0
 93 96  1  0  0  0
 93203  1  0  0  0
 94 95  1  0  0  0
 94101  2  0  0  0
 95204  1  0  0  0
 96 97  1  0  0  0
 96205  1  0  0  0
 96206  1  0  0  0
 97 98  1  0  0  0
 97207  1  0  0  0
 97208  1  0  0  0
 98 99  1  0  0  0
 98209  1  0  0  0
 98210  1  0  0  0
 99100  1  0  0  0
 99211  1  0  0  0
 99212  1  0  0  0
100213  1  0  0  0
100214  1  0  0  0
100215  1  0  0  0
M  CHG  3   1   1  20   1 100   1
M  END
> <s_m_source_file>
../1ka7_ligand.sdf

> <i_m_source_file_index>
1

> <s_epik_input>
W0hdL049QyhbTkgyXSlcW05IXVtDSDJdW0NIMl1bQ0gyXVtDQEhdKFtOSDMrXSlDKD1PKVtOSF1bQ0BASF0oW0NIMl1bQ0gyXVtDSDJdW0NIMl1bTkgzK10pQyg9TylbTkhdW0NAQEhdKFtDSDJdW09IXSlDKD1PKVtOSF1bQ0BASF0oW0NIMl1bQ0hdKFtDSDNdKVtDSDNdKUMoPU8pW05IXVtDQEBIXShbQ0BIXShbT0hdKVtDSDNdKUMoPU8pW05IXVtDQEBIXShbQ0BASF0oW0NIM10pW0NIMl1bQ0gzXSlDKD1PKVtOSF1bQ0BASF0oW0NIMl1jMVtjSF1bY0hdYyhbT0hdKVtjSF1bY0hdMSlDKD1PKVtOSF1bQ0BASF0oW0NIM10pQyg9TylbTkhdW0NAQEhdKFtDSDJdW0NIMl1DKD1PKVtOSDJdKUMoPU8pW05IXVtDQEBIXShbQ0hdKFtDSDNdKVtDSDNdKUMoPU8pW05IXVtDQEBIXShbQ0gyXVtDSDJdQyg9TylbTkgyXSlDKD1PKVtOSF1bQ0BIXShDKD1PKVtPSF0pW0NIMl1bQ0gyXVtDSDJdW0NIMl1bTkgzK10=

> <s_epik_cmdline>
J2VwaWtfYXBwJywgJy1pbWFlJywgJ2xpZ2FuZF9wcm8ubWFlJywgJy1vbWFlJywgJ2xpZ2FuZF9wcmVwLm1hZScsICctbXMnLCAnMScsICctcGgnLCAnNycsICctcGh0JywgJzAuNScsICctbnQn

> <s_epik_pKa_notes>
Molecule size exceeds maximum supported for generating protonation states

> <s_epik_Chemistry_Notes>
This compound has an imine and may undergo hydrolysis.

$$$$
