1kat_ligand
                    3D
 Schrodinger Suite 2020-3.
306311  0  0  1  0            999 V2000
  -16.2950  -32.3660   15.7520 N   0  3  0  0  0  0
  -16.6790  -33.7040   16.2800 C   0  0  0  0  0  0
  -17.1120  -34.6720   15.1900 C   0  0  0  0  0  0
  -17.0330  -35.8880   15.3760 O   0  0  0  0  0  0
  -17.5760  -34.1380   14.0560 N   0  0  0  0  0  0
  -18.0190  -34.9820   12.9560 C   0  0  0  0  0  0
  -17.5300  -34.4890   11.6060 C   0  0  0  0  0  0
  -16.4740  -34.9070   11.1290 O   0  0  0  0  0  0
  -18.3050  -33.6040   10.9840 N   0  0  0  0  0  0
  -17.9500  -33.0590    9.6780 C   0  0  2  0  0  0
  -18.6460  -31.7120    9.4490 C   0  0  0  0  0  0
  -19.2480  -31.4690    8.3990 O   0  0  0  0  0  0
  -18.3280  -34.0590    8.5800 C   0  0  0  0  0  0
  -17.3600  -34.0340    7.4130 C   0  0  0  0  0  0
  -16.1440  -34.0950    7.6000 O   0  0  0  0  0  0
  -17.8930  -33.9430    6.1980 N   0  0  0  0  0  0
  -18.5610  -30.8370   10.4480 N   0  0  0  0  0  0
  -19.1820  -29.5180   10.3730 C   0  0  2  0  0  0
  -18.1470  -28.4440   10.0030 C   0  0  0  0  0  0
  -18.1650  -27.3320   10.5340 O   0  0  0  0  0  0
  -19.8690  -29.1980   11.7160 C   0  0  0  0  0  0
  -21.3940  -29.3000   11.6580 C   0  0  0  0  0  0
  -22.0940  -27.9680   11.8740 C   0  0  0  0  0  0
  -21.9720  -27.4060   12.9810 O   0  0  0  0  0  0
  -22.7650  -27.4910   10.9340 O   0  0  0  0  0  0
  -17.2500  -28.7850    9.0760 N   0  0  0  0  0  0
  -16.2160  -27.8500    8.6300 C   0  0  2  0  0  0
  -16.7210  -26.9890    7.4740 C   0  0  0  0  0  0
  -16.6170  -27.3760    6.3090 O   0  0  0  0  0  0
  -14.9580  -28.6080    8.1980 C   0  0  0  0  0  0
  -14.0320  -29.3760    9.5710 S   0  0  0  0  0  0
  -17.2600  -25.8170    7.8000 N   0  0  0  0  0  0
  -17.7710  -24.8990    6.7870 C   0  0  2  0  0  0
  -16.6180  -24.1860    6.0800 C   0  0  0  0  0  0
  -15.6720  -23.7310    6.7230 O   0  0  0  0  0  0
  -18.7170  -23.8820    7.4310 C   0  0  0  0  0  0
  -20.1700  -24.3150    7.3600 C   0  0  0  0  0  0
  -20.5210  -25.0670    6.4260 O   0  0  0  0  0  0
  -20.9580  -23.9040    8.2360 O   0  0  0  0  0  0
  -16.6970  -24.1100    4.7550 N   0  0  0  0  0  0
  -15.6520  -23.4740    3.9600 C   0  0  2  0  0  0
  -15.4970  -21.9880    4.3070 C   0  0  0  0  0  0
  -14.3830  -21.4660    4.3330 O   0  0  0  0  0  0
  -15.9270  -23.6460    2.4410 C   0  0  2  0  0  0
  -14.7330  -23.1540    1.6200 C   0  0  0  0  0  0
  -17.2030  -22.9230    2.0160 C   0  0  0  0  0  0
  -14.6490  -23.7810    0.2460 C   0  0  0  0  0  0
  -16.6150  -21.3130    4.5610 N   0  0  0  0  0  0
  -16.5920  -19.8880    4.8910 C   0  0  2  0  0  0
  -16.6600  -19.6520    6.3990 C   0  0  0  0  0  0
  -17.2330  -18.6620    6.8540 O   0  0  0  0  0  0
  -17.7320  -19.1680    4.1820 C   0  0  0  0  0  0
  -16.0670  -20.5610    7.1670 N   0  0  0  0  0  0
  -16.0470  -20.4450    8.6260 C   0  0  2  0  0  0
  -14.6450  -20.7220    9.1590 C   0  0  0  0  0  0
  -13.8190  -21.3150    8.4660 O   0  0  0  0  0  0
  -17.0550  -21.4120    9.2560 C   0  0  0  0  0  0
  -18.4840  -20.8700    9.2680 C   0  0  0  0  0  0
  -19.1820  -21.0880   10.6080 C   0  0  0  0  0  0
  -19.3670  -22.5090   10.9070 N   0  0  0  0  0  0
  -19.5800  -23.0080   12.1330 C   0  0  0  0  0  0
  -19.6700  -22.2100   13.1940 N   0  0  0  0  0  0
  -19.7150  -24.3180   12.2900 N   0  0  0  0  0  0
  -14.3730  -20.2760   10.3870 N   0  0  0  0  0  0
  -13.0590  -20.4650   11.0130 C   0  0  2  0  0  0
  -12.6350  -21.9360   11.0330 C   0  0  0  0  0  0
  -13.0220  -22.6980   11.9210 O   0  0  0  0  0  0
  -13.0740  -19.9120   12.4380 C   0  0  0  0  0  0
  -11.6970  -19.5300   12.9550 C   0  0  0  0  0  0
  -11.7630  -18.2750   14.2470 S   0  0  0  0  0  0
  -11.0840  -16.8620   13.3810 C   0  0  0  0  0  0
  -11.8330  -22.3230   10.0430 N   0  0  0  0  0  0
  -11.3530  -23.6980    9.9280 C   0  0  2  0  0  0
  -10.3850  -24.0360   11.0640 C   0  0  0  0  0  0
   -9.1840  -23.8080   10.9510 O   0  0  0  0  0  0
  -10.6540  -23.8980    8.5730 C   0  0  0  0  0  0
  -11.5770  -24.2840    7.4450 C   0  0  0  0  0  0
  -12.8980  -24.6450    7.5260 C   0  0  0  0  0  0
  -11.2310  -24.3540    6.0570 C   0  0  0  0  0  0
  -13.3860  -24.9310    6.2730 N   0  0  0  0  0  0
  -12.3820  -24.7590    5.3560 C   0  0  0  0  0  0
  -10.0580  -24.1100    5.3390 C   0  0  0  0  0  0
  -12.3910  -24.9250    3.9730 C   0  0  0  0  0  0
  -10.0670  -24.2760    3.9670 C   0  0  0  0  0  0
  -11.2280  -24.6810    3.2960 C   0  0  0  0  0  0
  -10.9150  -24.5960   12.1520 N   0  0  0  0  0  0
  -10.0900  -24.9740   13.3030 C   0  0  2  0  0  0
   -9.0240  -26.0050   12.8990 C   0  0  0  0  0  0
   -8.8470  -26.2900   11.7150 O   0  0  0  0  0  0
  -10.9770  -25.5300   14.4210 C   0  0  0  0  0  0
  -11.7430  -26.7780   14.0190 C   0  0  0  0  0  0
  -12.8680  -27.1050   14.9810 C   0  0  0  0  0  0
  -12.5830  -27.3030   16.1810 O   0  0  0  0  0  0
  -14.0320  -27.1630   14.5340 O   0  0  0  0  0  0
   -8.3020  -26.5460   13.8830 N   0  0  0  0  0  0
   -7.2380  -27.5230   13.6230 C   0  0  2  0  0  0
   -7.7450  -28.7460   12.8440 C   0  0  0  0  0  0
   -7.2030  -29.0850   11.7910 O   0  0  0  0  0  0
   -6.6090  -27.9730   14.9460 C   0  0  0  0  0  0
   -5.4740  -27.1020   15.3850 C   0  0  0  0  0  0
   -5.3020  -26.5340   16.6160 C   0  0  0  0  0  0
   -4.3480  -26.7010   14.5980 C   0  0  0  0  0  0
   -4.1390  -25.8030   16.6400 N   0  0  0  0  0  0
   -3.5360  -25.8900   15.4120 C   0  0  0  0  0  0
   -3.9480  -26.9490   13.2810 C   0  0  0  0  0  0
   -2.3490  -25.3260   14.9520 C   0  0  0  0  0  0
   -2.7690  -26.3870   12.8260 C   0  0  0  0  0  0
   -1.9810  -25.5850   13.6590 C   0  0  0  0  0  0
   -8.7700  -29.4160   13.3780 N   0  0  0  0  0  0
   -9.3360  -30.6230   12.7510 C   0  0  2  0  0  0
   -9.6790  -30.4140   11.2710 C   0  0  0  0  0  0
   -9.4430  -31.2960   10.4420 O   0  0  0  0  0  0
  -10.5880  -31.0660   13.5100 C   0  0  0  0  0  0
  -10.2800  -31.7970   14.8060 C   0  0  0  0  0  0
  -10.0850  -30.8510   15.9730 C   0  0  0  0  0  0
   -8.9610  -30.3330   16.1370 O   0  0  0  0  0  0
  -11.0570  -30.6280   16.7250 O   0  0  0  0  0  0
  -10.2410  -29.2530   10.9440 N   0  0  0  0  0  0
  -10.6100  -28.9460    9.5640 C   0  0  2  0  0  0
   -9.3610  -28.7490    8.7070 C   0  0  0  0  0  0
   -9.3490  -29.0990    7.5270 O   0  0  0  0  0  0
  -11.4900  -27.6940    9.5050 C   0  0  0  0  0  0
  -13.0490  -27.8240   10.4410 S   0  0  0  0  0  0
   -8.3070  -28.1920    9.3070 N   0  0  0  0  0  0
   -7.0530  -27.9600    8.5880 C   0  0  2  0  0  0
   -6.3710  -29.2860    8.2620 C   0  0  0  0  0  0
   -5.7790  -29.4440    7.1940 O   0  0  0  0  0  0
   -6.0900  -27.0930    9.4110 C   0  0  0  0  0  0
   -6.4080  -25.6160    9.4440 C   0  0  0  0  0  0
   -6.9130  -24.9470    8.3310 C   0  0  0  0  0  0
   -6.1800  -24.8900   10.6020 C   0  0  0  0  0  0
   -7.1840  -23.5910    8.3860 C   0  0  0  0  0  0
   -6.4460  -23.5360   10.6580 C   0  0  0  0  0  0
   -6.9490  -22.8860    9.5500 C   0  0  0  0  0  0
   -6.4500  -30.2320    9.1930 N   0  0  0  0  0  0
   -5.8360  -31.5410    9.0060 C   0  0  2  0  0  0
   -6.4870  -32.2840    7.8440 C   0  0  0  0  0  0
   -5.8150  -32.9810    7.0840 O   0  0  0  0  0  0
   -5.9500  -32.3690   10.2880 C   0  0  0  0  0  0
   -5.1160  -31.8190   11.4330 C   0  0  0  0  0  0
   -4.6760  -32.8960   12.4030 C   0  0  0  0  0  0
   -5.5050  -33.7670   12.7400 O   0  0  0  0  0  0
   -3.5010  -32.8680   12.8270 O   0  0  0  0  0  0
   -7.8030  -32.1250    7.7130 N   0  0  0  0  0  0
   -8.5580  -32.7730    6.6410 C   0  0  2  0  0  0
   -9.1960  -31.7250    5.7250 C   0  0  0  0  0  0
  -10.4140  -31.5280    5.7230 O   0  0  0  0  0  0
   -9.6280  -33.6940    7.2370 C   0  0  0  0  0  0
  -10.5580  -32.9890    8.2170 C   0  0  0  0  0  0
  -11.9750  -33.5630    8.1790 C   0  0  0  0  0  0
  -12.5460  -33.7000    9.5290 N   0  0  0  0  0  0
  -13.2040  -34.7780   10.0050 C   0  0  0  0  0  0
  -13.4480  -35.8650    9.2600 N   0  0  0  0  0  0
  -13.6430  -34.7510   11.2580 N   0  0  0  0  0  0
   -8.3550  -31.0480    4.9470 N   0  0  0  0  0  0
   -8.8210  -30.0180    4.0270 C   0  0  2  0  0  0
   -9.1730  -30.6210    2.6720 C   0  0  0  0  0  0
   -8.4540  -31.5410    2.2310 O   0  0  0  0  0  0
   -7.7520  -28.9380    3.8570 C   0  0  0  0  0  0
   -7.5130  -28.0770    5.0970 C   0  0  0  0  0  0
   -6.1460  -27.4160    5.0370 C   0  0  0  0  0  0
   -8.6040  -27.0280    5.2360 C   0  0  0  0  0  0
  -10.1680  -30.1700    2.0650 O   0  0  0  0  0  0
  -15.9933  -31.7155   16.5861 H   0  0  0  0  0  0
  -17.1530  -31.9180   15.2294 H   0  0  0  0  0  0
  -15.4550  -32.4760   15.0504 H   0  0  0  0  0  0
  -15.8210  -34.1520   16.8026 H   0  0  0  0  0  0
  -17.5190  -33.5941   16.9816 H   0  0  0  0  0  0
  -17.6202  -33.0430   13.9614 H   0  0  0  0  0  0
  -17.6367  -36.0033   13.1005 H   0  0  0  0  0  0
  -19.1185  -35.0024   12.9293 H   0  0  0  0  0  0
  -19.2338  -33.2846   11.4793 H   0  0  0  0  0  0
  -16.8605  -32.9080    9.6940 H   0  0  0  0  0  0
  -18.3301  -35.0772    8.9963 H   0  0  0  0  0  0
  -19.3297  -33.8186    8.1941 H   0  0  0  0  0  0
  -18.9853  -33.8910    6.0791 H   0  0  0  0  0  0
  -17.2416  -33.9197    5.3120 H   0  0  0  0  0  0
  -18.0032  -31.1318   11.3490 H   0  0  0  0  0  0
  -19.9278  -29.5757    9.5664 H   0  0  0  0  0  0
  -19.5198  -29.9040   12.4838 H   0  0  0  0  0  0
  -19.6181  -28.1713   12.0207 H   0  0  0  0  0  0
  -21.6989  -29.6784   10.6712 H   0  0  0  0  0  0
  -21.7454  -29.9896   12.4397 H   0  0  0  0  0  0
  -23.2828  -26.5288   11.0608 H   0  0  0  0  0  0
  -17.3003  -29.7959    8.6451 H   0  0  0  0  0  0
  -16.0014  -27.2147    9.5020 H   0  0  0  0  0  0
  -15.2367  -29.4170    7.5067 H   0  0  0  0  0  0
  -14.2680  -27.9158    7.6932 H   0  0  0  0  0  0
  -17.3149  -25.5469    8.8649 H   0  0  0  0  0  0
  -18.3190  -25.5187    6.0620 H   0  0  0  0  0  0
  -18.4525  -23.7553    8.4912 H   0  0  0  0  0  0
  -18.6254  -22.9163    6.9123 H   0  0  0  0  0  0
  -21.5675  -25.3970    6.3492 H   0  0  0  0  0  0
  -17.5788  -24.5422    4.2594 H   0  0  0  0  0  0
  -14.7364  -24.0068    4.2563 H   0  0  0  0  0  0
  -16.0758  -24.7154    2.2305 H   0  0  0  0  0  0
  -14.8066  -22.0652    1.4821 H   0  0  0  0  0  0
  -13.7996  -23.3942    2.1501 H   0  0  0  0  0  0
  -18.0491  -23.2892    2.6161 H   0  0  0  0  0  0
  -17.3973  -23.1177    0.9510 H   0  0  0  0  0  0
  -17.0817  -21.8413    2.1748 H   0  0  0  0  0  0
  -13.7718  -23.3834   -0.2854 H   0  0  0  0  0  0
  -15.5606  -23.5432   -0.3219 H   0  0  0  0  0  0
  -14.5536  -24.8723    0.3462 H   0  0  0  0  0  0
  -17.5728  -21.8523    4.5182 H   0  0  0  0  0  0
  -15.6236  -19.5191    4.5221 H   0  0  0  0  0  0
  -17.6642  -19.3509    3.0994 H   0  0  0  0  0  0
  -17.6606  -18.0877    4.3766 H   0  0  0  0  0  0
  -18.6943  -19.5455    4.5581 H   0  0  0  0  0  0
  -15.5824  -21.4182    6.6767 H   0  0  0  0  0  0
  -16.3325  -19.4070    8.8519 H   0  0  0  0  0  0
  -17.0624  -22.3547    8.6891 H   0  0  0  0  0  0
  -16.7677  -21.6134   10.2985 H   0  0  0  0  0  0
  -18.4677  -19.7886    9.0672 H   0  0  0  0  0  0
  -19.0754  -21.3781    8.4921 H   0  0  0  0  0  0
  -18.5775  -20.6442   11.4128 H   0  0  0  0  0  0
  -20.1726  -20.6102   10.5875 H   0  0  0  0  0  0
  -19.3357  -23.2505   10.0951 H   0  0  0  0  0  0
  -19.5596  -21.1221   13.0749 H   0  0  0  0  0  0
  -19.8548  -22.6383   14.1902 H   0  0  0  0  0  0
  -19.6424  -24.9866   11.4196 H   0  0  0  0  0  0
  -15.1718  -19.7521   10.9324 H   0  0  0  0  0  0
  -12.3588  -19.9010   10.3793 H   0  0  0  0  0  0
  -13.7013  -19.0091   12.4743 H   0  0  0  0  0  0
  -13.4833  -20.6706   13.1214 H   0  0  0  0  0  0
  -11.2029  -20.4191   13.3738 H   0  0  0  0  0  0
  -11.0925  -19.1303   12.1275 H   0  0  0  0  0  0
  -11.0593  -15.9947   14.0572 H   0  0  0  0  0  0
  -11.7130  -16.6294   12.5091 H   0  0  0  0  0  0
  -10.0627  -17.0941   13.0448 H   0  0  0  0  0  0
  -11.5327  -21.5715    9.2980 H   0  0  0  0  0  0
  -12.2497  -24.3303   10.0066 H   0  0  0  0  0  0
  -10.1579  -22.9626    8.2748 H   0  0  0  0  0  0
   -9.9047  -24.6984    8.6616 H   0  0  0  0  0  0
  -13.4760  -24.6974    8.4486 H   0  0  0  0  0  0
   -9.1501  -23.7937    5.8526 H   0  0  0  0  0  0
  -13.2936  -25.2385    3.4485 H   0  0  0  0  0  0
   -9.1563  -24.0888    3.3981 H   0  0  0  0  0  0
  -11.2040  -24.8041    2.2132 H   0  0  0  0  0  0
  -12.0005  -24.7726   12.1717 H   0  0  0  0  0  0
   -9.5961  -24.0496   13.6371 H   0  0  0  0  0  0
  -10.3531  -25.7906   15.2887 H   0  0  0  0  0  0
  -11.7155  -24.7698   14.7155 H   0  0  0  0  0  0
  -12.1827  -26.6328   13.0212 H   0  0  0  0  0  0
  -11.0571  -27.6377   13.9959 H   0  0  0  0  0  0
  -13.3778  -27.5422   16.9028 H   0  0  0  0  0  0
   -8.5256  -26.2379   14.9150 H   0  0  0  0  0  0
   -6.5086  -26.9841   13.0005 H   0  0  0  0  0  0
   -7.3703  -27.9521   15.7397 H   0  0  0  0  0  0
   -6.2201  -28.9963   14.8378 H   0  0  0  0  0  0
   -5.9875  -26.6448   17.4562 H   0  0  0  0  0  0
   -4.5543  -27.5738   12.6252 H   0  0  0  0  0  0
   -1.7342  -24.7001   15.5988 H   0  0  0  0  0  0
   -2.4481  -26.5720   11.8009 H   0  0  0  0  0  0
   -1.0562  -25.1582   13.2709 H   0  0  0  0  0  0
   -9.1921  -29.0362   14.3201 H   0  0  0  0  0  0
   -8.5385  -31.3771   12.8239 H   0  0  0  0  0  0
  -11.1941  -30.1839   13.7640 H   0  0  0  0  0  0
  -11.1779  -31.7467   12.8786 H   0  0  0  0  0  0
  -11.1125  -32.4723   15.0528 H   0  0  0  0  0  0
   -9.3563  -32.3822   14.6863 H   0  0  0  0  0  0
  -10.9453  -29.9456   17.5805 H   0  0  0  0  0  0
  -10.4266  -28.5166   11.7398 H   0  0  0  0  0  0
  -11.1750  -29.8204    9.2087 H   0  0  0  0  0  0
  -10.9376  -26.8377    9.9194 H   0  0  0  0  0  0
  -11.7602  -27.4847    8.4595 H   0  0  0  0  0  0
   -8.3953  -27.9054   10.3653 H   0  0  0  0  0  0
   -7.3492  -27.4366    7.6669 H   0  0  0  0  0  0
   -6.0928  -27.4336   10.4569 H   0  0  0  0  0  0
   -5.0738  -27.1816    8.9993 H   0  0  0  0  0  0
   -7.0964  -25.4970    7.4080 H   0  0  0  0  0  0
   -5.7844  -25.3957   11.4828 H   0  0  0  0  0  0
   -7.5831  -23.0792    7.5103 H   0  0  0  0  0  0
   -6.2586  -22.9811   11.5773 H   0  0  0  0  0  0
   -7.1606  -21.8176    9.5932 H   0  0  0  0  0  0
   -6.9949  -30.0077   10.1219 H   0  0  0  0  0  0
   -4.7803  -31.3404    8.7710 H   0  0  0  0  0  0
   -6.9984  -32.3878   10.6203 H   0  0  0  0  0  0
   -5.6088  -33.3963   10.0926 H   0  0  0  0  0  0
   -4.2126  -31.3377   11.0303 H   0  0  0  0  0  0
   -5.7061  -31.0796   11.9943 H   0  0  0  0  0  0
   -3.1524  -33.6367   13.5324 H   0  0  0  0  0  0
   -8.3216  -31.4841    8.4412 H   0  0  0  0  0  0
   -7.8301  -33.3649    6.0667 H   0  0  0  0  0  0
  -10.2508  -34.1039    6.4282 H   0  0  0  0  0  0
   -9.1416  -34.5184    7.7790 H   0  0  0  0  0  0
  -10.1688  -33.1043    9.2394 H   0  0  0  0  0  0
  -10.6144  -31.9199    7.9645 H   0  0  0  0  0  0
  -12.6255  -32.8952    7.5951 H   0  0  0  0  0  0
  -11.9552  -34.5578    7.7100 H   0  0  0  0  0  0
  -12.4535  -32.8757   10.2515 H   0  0  0  0  0  0
  -13.0939  -35.9095    8.2195 H   0  0  0  0  0  0
  -14.0024  -36.7127    9.6890 H   0  0  0  0  0  0
  -13.4543  -33.8692   11.8880 H   0  0  0  0  0  0
   -7.2824  -31.2835    5.0114 H   0  0  0  0  0  0
   -9.7252  -29.5953    4.4894 H   0  0  0  0  0  0
   -6.7904  -29.4101    3.6070 H   0  0  0  0  0  0
   -8.0466  -28.2547    3.0469 H   0  0  0  0  0  0
   -7.5413  -28.7261    5.9846 H   0  0  0  0  0  0
   -5.3693  -28.1885    4.9366 H   0  0  0  0  0  0
   -5.9754  -26.8422    5.9599 H   0  0  0  0  0  0
   -6.1039  -26.7389    4.1711 H   0  0  0  0  0  0
   -9.5854  -27.5230    5.2779 H   0  0  0  0  0  0
   -8.5723  -26.3492    4.3710 H   0  0  0  0  0  0
   -8.4438  -26.4526    6.1597 H   0  0  0  0  0  0
  -10.4485  -30.5837    1.0851 H   0  0  0  0  0  0
  1  2  1  0  0  0
  1164  1  0  0  0
  1165  1  0  0  0
  1166  1  0  0  0
  2  3  1  0  0  0
  2167  1  0  0  0
  2168  1  0  0  0
  3  4  2  0  0  0
  3  5  1  0  0  0
  5  6  1  0  0  0
  5169  1  0  0  0
  6  7  1  0  0  0
  6170  1  0  0  0
  6171  1  0  0  0
  7  8  2  0  0  0
  7  9  1  0  0  0
  9 10  1  0  0  0
  9172  1  0  0  0
 10 11  1  0  0  0
 10 13  1  0  0  0
 10173  1  0  0  0
 11 12  2  0  0  0
 11 17  1  0  0  0
 13 14  1  0  0  0
 13174  1  0  0  0
 13175  1  0  0  0
 14 15  2  0  0  0
 14 16  1  0  0  0
 16176  1  0  0  0
 16177  1  0  0  0
 17 18  1  0  0  0
 17178  1  0  0  0
 18 19  1  0  0  0
 18 21  1  0  0  0
 18179  1  0  0  0
 19 20  2  0  0  0
 19 26  1  0  0  0
 21 22  1  0  0  0
 21180  1  0  0  0
 21181  1  0  0  0
 22 23  1  0  0  0
 22182  1  0  0  0
 22183  1  0  0  0
 23 24  2  0  0  0
 23 25  1  0  0  0
 25184  1  0  0  0
 26 27  1  0  0  0
 26185  1  0  0  0
 27 28  1  0  0  0
 27 30  1  0  0  0
 27186  1  0  0  0
 28 29  2  0  0  0
 28 32  1  0  0  0
 30 31  1  0  0  0
 30187  1  0  0  0
 30188  1  0  0  0
 31123  1  0  0  0
 32 33  1  0  0  0
 32189  1  0  0  0
 33 34  1  0  0  0
 33 36  1  0  0  0
 33190  1  0  0  0
 34 35  2  0  0  0
 34 40  1  0  0  0
 36 37  1  0  0  0
 36191  1  0  0  0
 36192  1  0  0  0
 37 38  1  0  0  0
 37 39  2  0  0  0
 38193  1  0  0  0
 40 41  1  0  0  0
 40194  1  0  0  0
 41 42  1  0  0  0
 41 44  1  0  0  0
 41195  1  0  0  0
 42 43  2  0  0  0
 42 48  1  0  0  0
 44 45  1  0  0  0
 44 46  1  0  0  0
 44196  1  0  0  0
 45 47  1  0  0  0
 45197  1  0  0  0
 45198  1  0  0  0
 46199  1  0  0  0
 46200  1  0  0  0
 46201  1  0  0  0
 47202  1  0  0  0
 47203  1  0  0  0
 47204  1  0  0  0
 48 49  1  0  0  0
 48205  1  0  0  0
 49 50  1  0  0  0
 49 52  1  0  0  0
 49206  1  0  0  0
 50 51  2  0  0  0
 50 53  1  0  0  0
 52207  1  0  0  0
 52208  1  0  0  0
 52209  1  0  0  0
 53 54  1  0  0  0
 53210  1  0  0  0
 54 55  1  0  0  0
 54 57  1  0  0  0
 54211  1  0  0  0
 55 56  2  0  0  0
 55 64  1  0  0  0
 57 58  1  0  0  0
 57212  1  0  0  0
 57213  1  0  0  0
 58 59  1  0  0  0
 58214  1  0  0  0
 58215  1  0  0  0
 59 60  1  0  0  0
 59216  1  0  0  0
 59217  1  0  0  0
 60 61  1  0  0  0
 60218  1  0  0  0
 61 62  1  0  0  0
 61 63  2  0  0  0
 62219  1  0  0  0
 62220  1  0  0  0
 63221  1  0  0  0
 64 65  1  0  0  0
 64222  1  0  0  0
 65 66  1  0  0  0
 65 68  1  0  0  0
 65223  1  0  0  0
 66 67  2  0  0  0
 66 72  1  0  0  0
 68 69  1  0  0  0
 68224  1  0  0  0
 68225  1  0  0  0
 69 70  1  0  0  0
 69226  1  0  0  0
 69227  1  0  0  0
 70 71  1  0  0  0
 71228  1  0  0  0
 71229  1  0  0  0
 71230  1  0  0  0
 72 73  1  0  0  0
 72231  1  0  0  0
 73 74  1  0  0  0
 73 76  1  0  0  0
 73232  1  0  0  0
 74 75  2  0  0  0
 74 86  1  0  0  0
 76 77  1  0  0  0
 76233  1  0  0  0
 76234  1  0  0  0
 77 78  2  0  0  0
 77 79  1  0  0  0
 78 80  1  0  0  0
 78235  1  0  0  0
 79 81  2  0  0  0
 79 82  1  0  0  0
 80 81  1  0  0  0
 81 83  1  0  0  0
 82 84  2  0  0  0
 82236  1  0  0  0
 83 85  2  0  0  0
 83237  1  0  0  0
 84 85  1  0  0  0
 84238  1  0  0  0
 85239  1  0  0  0
 86 87  1  0  0  0
 86240  1  0  0  0
 87 88  1  0  0  0
 87 90  1  0  0  0
 87241  1  0  0  0
 88 89  2  0  0  0
 88 95  1  0  0  0
 90 91  1  0  0  0
 90242  1  0  0  0
 90243  1  0  0  0
 91 92  1  0  0  0
 91244  1  0  0  0
 91245  1  0  0  0
 92 93  1  0  0  0
 92 94  2  0  0  0
 93246  1  0  0  0
 95 96  1  0  0  0
 95247  1  0  0  0
 96 97  1  0  0  0
 96 99  1  0  0  0
 96248  1  0  0  0
 97 98  2  0  0  0
 97109  1  0  0  0
 99100  1  0  0  0
 99249  1  0  0  0
 99250  1  0  0  0
100101  2  0  0  0
100102  1  0  0  0
101103  1  0  0  0
101251  1  0  0  0
102104  2  0  0  0
102105  1  0  0  0
103104  1  0  0  0
104106  1  0  0  0
105107  2  0  0  0
105252  1  0  0  0
106108  2  0  0  0
106253  1  0  0  0
107108  1  0  0  0
107254  1  0  0  0
108255  1  0  0  0
109110  1  0  0  0
109256  1  0  0  0
110111  1  0  0  0
110113  1  0  0  0
110257  1  0  0  0
111112  2  0  0  0
111118  1  0  0  0
113114  1  0  0  0
113258  1  0  0  0
113259  1  0  0  0
114115  1  0  0  0
114260  1  0  0  0
114261  1  0  0  0
115116  2  0  0  0
115117  1  0  0  0
117262  1  0  0  0
118119  1  0  0  0
118263  1  0  0  0
119120  1  0  0  0
119122  1  0  0  0
119264  1  0  0  0
120121  2  0  0  0
120124  1  0  0  0
122123  1  0  0  0
122265  1  0  0  0
122266  1  0  0  0
124125  1  0  0  0
124267  1  0  0  0
125126  1  0  0  0
125128  1  0  0  0
125268  1  0  0  0
126127  2  0  0  0
126135  1  0  0  0
128129  1  0  0  0
128269  1  0  0  0
128270  1  0  0  0
129130  2  0  0  0
129131  1  0  0  0
130132  1  0  0  0
130271  1  0  0  0
131133  2  0  0  0
131272  1  0  0  0
132134  2  0  0  0
132273  1  0  0  0
133134  1  0  0  0
133274  1  0  0  0
134275  1  0  0  0
135136  1  0  0  0
135276  1  0  0  0
136137  1  0  0  0
136139  1  0  0  0
136277  1  0  0  0
137138  2  0  0  0
137144  1  0  0  0
139140  1  0  0  0
139278  1  0  0  0
139279  1  0  0  0
140141  1  0  0  0
140280  1  0  0  0
140281  1  0  0  0
141142  2  0  0  0
141143  1  0  0  0
143282  1  0  0  0
144145  1  0  0  0
144283  1  0  0  0
145146  1  0  0  0
145148  1  0  0  0
145284  1  0  0  0
146147  2  0  0  0
146155  1  0  0  0
148149  1  0  0  0
148285  1  0  0  0
148286  1  0  0  0
149150  1  0  0  0
149287  1  0  0  0
149288  1  0  0  0
150151  1  0  0  0
150289  1  0  0  0
150290  1  0  0  0
151152  1  0  0  0
151291  1  0  0  0
152153  1  0  0  0
152154  2  0  0  0
153292  1  0  0  0
153293  1  0  0  0
154294  1  0  0  0
155156  1  0  0  0
155295  1  0  0  0
156157  1  0  0  0
156159  1  0  0  0
156296  1  0  0  0
157158  2  0  0  0
157163  1  0  0  0
159160  1  0  0  0
159297  1  0  0  0
159298  1  0  0  0
160161  1  0  0  0
160162  1  0  0  0
160299  1  0  0  0
161300  1  0  0  0
161301  1  0  0  0
161302  1  0  0  0
162303  1  0  0  0
162304  1  0  0  0
162305  1  0  0  0
163306  1  0  0  0
M  CHG  1   1   1
M  END
> <s_m_source_file>
../1kat_ligand.sdf

> <i_m_source_file_index>
1

> <s_epik_input>
W05IMytdW0NIMl1DKD1PKVtOSF1bQ0gyXUMoPU8pW05IXVtDQEBIXShbQ0gyXUMoPU8pW05IMl0pQyg9TylbTkhdW0NAQEhdKFtDSDJdW0NIMl1DKD1PKVtPSF0pQyg9TylbTkhdW0NAQEhdMUMoPU8pW05IXVtDQEBIXShbQ0gyXUMoPU8pW09IXSlDKD1PKVtOSF1bQ0BASF0oW0NAQEhdKFtDSDNdKVtDSDJdW0NIM10pQyg9TylbTkhdW0NAQEhdKFtDSDNdKUMoPU8pW05IXVtDQEBIXShbQ0gyXVtDSDJdW0NIMl1bTkhdL0MoW05IMl0pPU5cW0hdKUMoPU8pW05IXVtDQEBIXShbQ0gyXVtDSDJdU1tDSDNdKUMoPU8pW05IXVtDQEBIXShbQ0gyXWMyW2NIXVtuSF1jKGMyMylbY0hdW2NIXVtjSF1bY0hdMylDKD1PKVtOSF1bQ0BASF0oW0NIMl1bQ0gyXUMoPU8pW09IXSlDKD1PKVtOSF1bQ0BASF0oW0NIMl1jNFtjSF1bbkhdYyhjNDUpW2NIXVtjSF1bY0hdW2NIXTUpQyg9TylbTkhdW0NAQEhdKFtDSDJdW0NIMl1DKD1PKVtPSF0pQyg9TylbTkhdW0NAQEhdKFtDSDJdU1NbQ0gyXTEpQyg9TylbTkhdW0NAQEhdKFtDSDJdYzZbY0hdW2NIXVtjSF1bY0hdW2NIXTYpQyg9TylbTkhdW0NAQEhdKFtDSDJdW0NIMl1DKD1PKVtPSF0pQyg9TylbTkhdW0NASF0oQyg9TylbTkhdW0NASF0oQyg9TylbT0hdKVtDSDJdW0NIXShbQ0gzXSlbQ0gzXSlbQ0gyXVtDSDJdW0NIMl1bTkhdL0MoW05IMl0pPU5cW0hd

> <s_epik_cmdline>
J2VwaWtfYXBwJywgJy1pbWFlJywgJ2xpZ2FuZF9wcm8ubWFlJywgJy1vbWFlJywgJ2xpZ2FuZF9wcmVwLm1hZScsICctbXMnLCAnMScsICctcGgnLCAnNycsICctcGh0JywgJzAuNScsICctbnQn

> <s_epik_pKa_notes>
Molecule size exceeds maximum supported for generating protonation states

> <s_epik_Chemistry_Notes>
This compound has an imine and may undergo hydrolysis.

$$$$
