1kc5_ligand
                    3D
 Schrodinger Suite 2020-3.
117119  0  0  1  0            999 V2000
  -20.2960    2.9210   -6.9600 N   0  0  0  0  0  0
  -20.4190    3.7190   -5.7080 C   0  0  2  0  0  0
  -21.4790    3.1670   -4.7620 C   0  0  0  0  0  0
  -22.4230    3.8620   -4.3800 O   0  0  0  0  0  0
  -20.7080    5.1900   -6.0420 C   0  0  0  0  0  0
  -21.5730    5.3870   -7.2500 C   0  0  0  0  0  0
  -21.7270    6.6180   -7.8530 N   0  0  0  0  0  0
  -22.3230    4.5200   -7.9670 C   0  0  0  0  0  0
  -22.5330    6.4980   -8.8910 C   0  0  0  0  0  0
  -22.9100    5.2360   -8.9850 N   0  0  0  0  0  0
  -21.3030    1.9010   -4.3950 N   0  0  0  0  0  0
  -22.2090    1.2190   -3.4820 C   0  0  2  0  0  0
  -21.7200    1.3580   -2.0530 C   0  0  0  0  0  0
  -20.7090    0.7740   -1.6640 O   0  0  0  0  0  0
  -22.3310   -0.2650   -3.8390 C   0  0  0  0  0  0
  -21.0910   -0.8750   -4.4700 C   0  0  0  0  0  0
  -21.3210   -1.2540   -5.9240 C   0  0  0  0  0  0
  -21.1250   -0.4440   -6.8310 O   0  0  0  0  0  0
  -21.7620   -2.4890   -6.1480 N   0  0  0  0  0  0
  -22.4450    2.1530   -1.2790 N   0  0  0  0  0  0
  -22.1120    2.3860    0.1150 C   0  0  2  0  0  0
  -23.1020    1.6220    0.9690 C   0  0  0  0  0  0
  -24.2600    1.4520    0.5890 O   0  0  0  0  0  0
  -22.1730    3.8800    0.4250 C   0  0  0  0  0  0
  -20.9590    4.6940   -0.0290 C   0  0  0  0  0  0
  -20.4620    4.2340   -1.3790 C   0  0  0  0  0  0
  -21.3460    6.1570   -0.0740 C   0  0  0  0  0  0
  -22.6390    1.1430    2.1140 N   0  0  0  0  0  0
  -23.5010    0.3800    3.0020 C   0  0  2  0  0  0
  -24.5720    1.2750    3.6160 C   0  0  0  0  0  0
  -24.4330    2.4930    3.6450 O   0  0  0  0  0  0
  -22.6610   -0.2900    4.0870 C   0  0  0  0  0  0
  -21.6060   -1.2080    3.5110 C   0  0  0  0  0  0
  -21.6600   -1.4600    2.2920 O   0  0  0  0  0  0
  -20.7340   -1.6810    4.2690 O   0  5  0  0  0  0
  -25.6640    0.6790    4.1070 N   0  0  0  0  0  0
  -26.7520    1.4530    4.7120 C   0  0  2  0  0  0
  -26.3340    2.6200    5.6170 C   0  0  0  0  0  0
  -26.8200    3.7320    5.4420 O   0  0  0  0  0  0
  -27.5530    0.3800    5.4570 C   0  0  0  0  0  0
  -27.4310   -0.7830    4.5490 C   0  0  0  0  0  0
  -25.9540   -0.7640    4.1740 C   0  0  0  0  0  0
  -25.4340    2.3710    6.5670 N   0  0  0  0  0  0
  -24.9850    3.4010    7.5070 C   0  0  2  0  0  0
  -24.3260    4.6120    6.8620 C   0  0  0  0  0  0
  -24.3320    5.7050    7.4380 O   0  0  0  0  0  0
  -24.0340    2.7920    8.5390 C   0  0  0  0  0  0
  -23.7600    4.4220    5.6740 N   0  0  0  0  0  0
  -23.0830    5.4990    4.9590 C   0  0  2  0  0  0
  -23.9770    6.2160    3.9580 C   0  0  0  0  0  0
  -24.5300    5.5980    3.0530 O   0  0  0  0  0  0
  -21.8480    4.9460    4.2380 C   0  0  0  0  0  0
  -20.7720    4.4730    5.1670 C   0  0  0  0  0  0
  -20.0910    3.2880    4.9170 C   0  0  0  0  0  0
  -20.4540    5.2010    6.3140 C   0  0  0  0  0  0
  -19.1140    2.8380    5.7980 C   0  0  0  0  0  0
  -19.4830    4.7570    7.1940 C   0  0  0  0  0  0
  -18.8140    3.5790    6.9410 C   0  0  0  0  0  0
  -24.1100    7.5270    4.1270 N   0  0  0  0  0  0
  -24.9240    8.3180    3.2210 C   0  0  0  0  0  0
  -26.3940    7.9510    3.1550 C   0  0  0  0  0  0
  -26.7710    6.7970    3.3530 O   0  0  0  0  0  0
  -27.2438    8.8436    2.8928 O   0  5  0  0  0  0
  -21.2401    2.9729   -7.5221 H   0  0  0  0  0  0
  -19.4801    3.3278   -7.5754 H   0  0  0  0  0  0
  -19.4476    3.6231   -5.2009 H   0  0  0  0  0  0
  -20.3401    6.0617   -5.4809 H   0  0  0  0  0  0
  -22.5159    3.4413   -7.8710 H   0  0  0  0  0  0
  -22.8364    7.3047   -9.5583 H   0  0  0  0  0  0
  -20.4342    1.3677   -4.8083 H   0  0  0  0  0  0
  -23.1787    1.7240   -3.6031 H   0  0  0  0  0  0
  -22.5401   -0.8452   -2.9282 H   0  0  0  0  0  0
  -23.1519   -0.4029   -4.5581 H   0  0  0  0  0  0
  -20.2648   -0.1498   -4.4302 H   0  0  0  0  0  0
  -20.8081   -1.7837   -3.9184 H   0  0  0  0  0  0
  -21.9221   -3.1772   -5.3049 H   0  0  0  0  0  0
  -21.9665   -2.8219   -7.1763 H   0  0  0  0  0  0
  -23.3233    2.6434   -1.7240 H   0  0  0  0  0  0
  -21.0892    2.0187    0.2850 H   0  0  0  0  0  0
  -23.0485    4.3223   -0.0729 H   0  0  0  0  0  0
  -22.2569    4.0258    1.5121 H   0  0  0  0  0  0
  -20.1289    4.5519    0.6786 H   0  0  0  0  0  0
  -20.1864    3.1704   -1.3253 H   0  0  0  0  0  0
  -19.5814    4.8269   -1.6670 H   0  0  0  0  0  0
  -21.2563    4.3697   -2.1278 H   0  0  0  0  0  0
  -21.7047    6.4720    0.9170 H   0  0  0  0  0  0
  -22.1447    6.3023   -0.8163 H   0  0  0  0  0  0
  -20.4698    6.7595   -0.3554 H   0  0  0  0  0  0
  -21.5904    1.3278    2.3902 H   0  0  0  0  0  0
  -23.9879   -0.3824    2.3762 H   0  0  0  0  0  0
  -22.1524    0.4805    4.6850 H   0  0  0  0  0  0
  -23.3141   -0.8885    4.7391 H   0  0  0  0  0  0
  -27.2934    1.9752    3.9094 H   0  0  0  0  0  0
  -27.1011    0.2046    6.4444 H   0  0  0  0  0  0
  -28.5914    0.7199    5.5842 H   0  0  0  0  0  0
  -27.7214   -1.6987    5.0850 H   0  0  0  0  0  0
  -28.0915   -0.6413    3.6808 H   0  0  0  0  0  0
  -25.7551   -1.2238    3.1947 H   0  0  0  0  0  0
  -25.3130   -1.2319    4.9357 H   0  0  0  0  0  0
  -25.0258    1.3516    6.6319 H   0  0  0  0  0  0
  -25.9273    3.7484    7.9558 H   0  0  0  0  0  0
  -24.5104    1.9169    9.0050 H   0  0  0  0  0  0
  -23.8045    3.5398    9.3124 H   0  0  0  0  0  0
  -23.1033    2.4814    8.0416 H   0  0  0  0  0  0
  -23.8131    3.4164    5.2314 H   0  0  0  0  0  0
  -22.8190    6.2163    5.7501 H   0  0  0  0  0  0
  -22.1413    4.0899    3.6126 H   0  0  0  0  0  0
  -21.4117    5.7313    3.6033 H   0  0  0  0  0  0
  -20.3242    2.7074    4.0245 H   0  0  0  0  0  0
  -20.9786    6.1340    6.5200 H   0  0  0  0  0  0
  -18.5833    1.9076    5.5958 H   0  0  0  0  0  0
  -19.2476    5.3379    8.0858 H   0  0  0  0  0  0
  -18.0503    3.2263    7.6342 H   0  0  0  0  0  0
  -23.5928    8.0124    4.9677 H   0  0  0  0  0  0
  -24.8866    9.3752    3.5227 H   0  0  0  0  0  0
  -24.5375    8.2153    2.1963 H   0  0  0  0  0  0
  -21.2091    7.4987   -7.4454 H   0  0  0  0  0  0
  1  2  1  0  0  0
  1 64  1  0  0  0
  1 65  1  0  0  0
  2  3  1  0  0  0
  2  5  1  0  0  0
  2 66  1  0  0  0
  3  4  2  0  0  0
  3 11  1  0  0  0
  5  6  2  0  0  0
  5 67  1  0  0  0
  6  7  1  0  0  0
  6  8  1  0  0  0
  7  9  1  0  0  0
  7117  1  0  0  0
  8 10  2  0  0  0
  8 68  1  0  0  0
  9 10  1  0  0  0
  9 69  1  0  0  0
 11 12  1  0  0  0
 11 70  1  0  0  0
 12 13  1  0  0  0
 12 15  1  0  0  0
 12 71  1  0  0  0
 13 14  2  0  0  0
 13 20  1  0  0  0
 15 16  1  0  0  0
 15 72  1  0  0  0
 15 73  1  0  0  0
 16 17  1  0  0  0
 16 74  1  0  0  0
 16 75  1  0  0  0
 17 18  2  0  0  0
 17 19  1  0  0  0
 19 76  1  0  0  0
 19 77  1  0  0  0
 20 21  1  0  0  0
 20 78  1  0  0  0
 21 22  1  0  0  0
 21 24  1  0  0  0
 21 79  1  0  0  0
 22 23  2  0  0  0
 22 28  1  0  0  0
 24 25  1  0  0  0
 24 80  1  0  0  0
 24 81  1  0  0  0
 25 26  1  0  0  0
 25 27  1  0  0  0
 25 82  1  0  0  0
 26 83  1  0  0  0
 26 84  1  0  0  0
 26 85  1  0  0  0
 27 86  1  0  0  0
 27 87  1  0  0  0
 27 88  1  0  0  0
 28 29  1  0  0  0
 28 89  1  0  0  0
 29 30  1  0  0  0
 29 32  1  0  0  0
 29 90  1  0  0  0
 30 31  2  0  0  0
 30 36  1  0  0  0
 32 33  1  0  0  0
 32 91  1  0  0  0
 32 92  1  0  0  0
 33 34  2  0  0  0
 33 35  1  0  0  0
 36 37  1  0  0  0
 36 42  1  0  0  0
 37 38  1  0  0  0
 37 40  1  0  0  0
 37 93  1  0  0  0
 38 39  2  0  0  0
 38 43  1  0  0  0
 40 41  1  0  0  0
 40 94  1  0  0  0
 40 95  1  0  0  0
 41 42  1  0  0  0
 41 96  1  0  0  0
 41 97  1  0  0  0
 42 98  1  0  0  0
 42 99  1  0  0  0
 43 44  1  0  0  0
 43100  1  0  0  0
 44 45  1  0  0  0
 44 47  1  0  0  0
 44101  1  0  0  0
 45 46  2  0  0  0
 45 48  1  0  0  0
 47102  1  0  0  0
 47103  1  0  0  0
 47104  1  0  0  0
 48 49  1  0  0  0
 48105  1  0  0  0
 49 50  1  0  0  0
 49 52  1  0  0  0
 49106  1  0  0  0
 50 51  2  0  0  0
 50 59  1  0  0  0
 52 53  1  0  0  0
 52107  1  0  0  0
 52108  1  0  0  0
 53 54  2  0  0  0
 53 55  1  0  0  0
 54 56  1  0  0  0
 54109  1  0  0  0
 55 57  2  0  0  0
 55110  1  0  0  0
 56 58  2  0  0  0
 56111  1  0  0  0
 57 58  1  0  0  0
 57112  1  0  0  0
 58113  1  0  0  0
 59 60  1  0  0  0
 59114  1  0  0  0
 60 61  1  0  0  0
 60115  1  0  0  0
 60116  1  0  0  0
 61 62  2  0  0  0
 61 63  1  0  0  0
M  CHG  2  35  -1  63  -1
M  END
> <s_m_source_file>
../1kc5_ligand.sdf

> <i_m_source_file_index>
1

> <s_epik_input>
W0NIXTE9TltDSDJdTj1DMVtDSDJdW0NASF0oW05IMytdKUMoPU8pW05IXVtDQEBIXShbQ0gyXVtDSDJdQyg9TylbTkgyXSlDKD1PKVtOSF1bQ0BASF0oW0NIMl1bQ0hdKFtDSDNdKVtDSDNdKUMoPU8pW05IXVtDQEBIXShbQ0gyXUMoPU8pW09IXSlDKD1PKU4yW0NAQEhdKFtDSDJdW0NIMl1bQ0gyXTIpQyg9TylbTkhdW0NAQEhdKFtDSDNdKUMoPU8pW05IXVtDQEhdKEMoPU8pW05IXVtDSDJdQyg9TylbT0hdKVtDSDJdYzNbY0hdW2NIXVtjSF1bY0hdW2NIXTM=

> <s_epik_cmdline>
J2VwaWtfYXBwJywgJy1pbWFlJywgJ2xpZ2FuZF9wcm8ubWFlJywgJy1vbWFlJywgJ2xpZ2FuZF9wcmVwLm1hZScsICctbXMnLCAnMScsICctcGgnLCAnNycsICctcGh0JywgJzAuNScsICctbnQn

> <r_epik_Ionization_Penalty>
  0.0997

> <r_epik_Ionization_Penalty_Charging>
  0.0012

> <r_epik_Ionization_Penalty_Neutral>
  0.0984

> <r_epik_State_Penalty>
  0.0885

> <r_epik_Charging_Adjusted_Penalty>
0.0897467123033869

> <i_epik_Tot_Q>
-2

> <i_epik_Tot_abs_Q>
2

> <s_epik_Chemistry_Notes>
This compound has an imine and may undergo hydrolysis.

$$$$
