1kc7_ligand
                    3D
 Schrodinger Suite 2020-3.
 13 12  0  0  1  0            999 V2000
   12.2140    8.4000    4.2270 C   0  0  0  0  0  0
   12.8380    8.8970    3.2100 O   0  5  0  0  0  0
   10.9970    8.4700    4.3360 O   0  0  0  0  0  0
   13.0990    7.7160    5.2690 C   0  0  0  0  0  0
   14.4390    7.5000    5.2770 C   0  0  0  0  0  0
   12.4330    7.2480    6.3020 O   0  0  0  0  0  0
   14.5980    5.6080    4.7980 P   0  0  0  0  0  0
   15.9860    5.4370    4.1140 O   0  5  0  0  0  0
   13.4770    5.3690    3.9050 O   0  0  0  0  0  0
   14.5940    4.8220    6.0460 O   0  0  0  0  0  0
   14.9212    8.1605    4.5414 H   0  0  0  0  0  0
   14.8389    7.7136    6.2792 H   0  0  0  0  0  0
   13.6983    4.8081    6.6843 H   0  0  0  0  0  0
  1  4  1  0  0  0
  1  3  2  0  0  0
  1  2  1  0  0  0
  4  6  2  0  0  0
  4  5  1  0  0  0
  5  7  1  0  0  0
  5 11  1  0  0  0
  5 12  1  0  0  0
  7 10  1  0  0  0
  7  9  2  0  0  0
  7  8  1  0  0  0
 10 13  1  0  0  0
M  CHG  2   2  -1   8  -1
M  END
> <s_m_source_file>
../1kc7_ligand.sdf

> <i_m_source_file_index>
1

> <s_epik_input>
W09IXUMoPU8pQyg9TylbQ0gyXVAoPU8pKFtPSF0pW09IXQ==

> <s_epik_cmdline>
J2VwaWtfYXBwJywgJy1pbWFlJywgJ2xpZ2FuZF9wcm8ubWFlJywgJy1vbWFlJywgJ2xpZ2FuZF9wcmVwLm1hZScsICctbXMnLCAnMScsICctcGgnLCAnNycsICctcGh0JywgJzAuNScsICctbnQn

> <r_epik_Ionization_Penalty>
  0.1875

> <r_epik_Ionization_Penalty_Charging>
  0.0001

> <r_epik_Ionization_Penalty_Neutral>
  0.1875

> <r_epik_State_Penalty>
  0.1771

> <r_epik_Charging_Adjusted_Penalty>
0.17713037928495

> <i_epik_Tot_Q>
-2

> <i_epik_Tot_abs_Q>
2

$$$$
