1kcs_ligand
                    3D
 Schrodinger Suite 2020-3.
102103  0  0  1  0            999 V2000
   -3.8900   -7.4420   -4.6880 N   0  3  0  0  0  0
   -4.2740   -6.1630   -4.0170 C   0  0  2  0  0  0
   -3.0520   -5.4300   -3.4560 C   0  0  0  0  0  0
   -2.7400   -5.5210   -2.2630 O   0  0  0  0  0  0
   -5.2820   -6.4470   -2.8960 C   0  0  0  0  0  0
   -6.5780   -7.0790   -3.3900 C   0  0  0  0  0  0
   -7.4200   -6.1220   -4.2120 C   0  0  0  0  0  0
   -8.0440   -6.5160   -5.2010 O   0  0  0  0  0  0
   -7.4560   -4.8570   -3.7990 N   0  0  0  0  0  0
   -2.3650   -4.7060   -4.3370 N   0  0  0  0  0  0
   -1.1750   -3.9420   -3.9660 C   0  0  2  0  0  0
   -1.4700   -2.4460   -4.0160 C   0  0  0  0  0  0
   -2.2880   -1.9960   -4.8220 O   0  0  0  0  0  0
   -0.0060   -4.2600   -4.9180 C   0  0  0  0  0  0
    0.5560   -5.6900   -4.9600 C   0  0  0  0  0  0
    1.7790   -5.7150   -5.8640 C   0  0  0  0  0  0
    0.9500   -6.1520   -3.5690 C   0  0  0  0  0  0
   -0.8070   -1.6830   -3.1480 N   0  0  0  0  0  0
   -0.9930   -0.2340   -3.1200 C   0  0  2  0  0  0
   -0.4330    0.3370   -4.4140 C   0  0  0  0  0  0
    0.5970   -0.1060   -4.9030 O   0  0  0  0  0  0
   -0.2730    0.3930   -1.9300 C   0  0  0  0  0  0
   -0.8940    0.0160   -0.6170 C   0  0  0  0  0  0
   -2.0470   -0.4570   -0.6140 O   0  5  0  0  0  0
   -0.2310    0.2080    0.4200 O   0  0  0  0  0  0
   -1.0880    1.3650   -4.9560 N   0  0  0  0  0  0
   -0.6720    2.0060   -6.2110 C   0  0  2  0  0  0
    0.8280    2.1950   -6.3630 C   0  0  0  0  0  0
    1.3920    1.9140   -7.4220 O   0  0  0  0  0  0
   -1.4180    3.3410   -6.1940 C   0  0  0  0  0  0
   -2.6240    3.0820   -5.3050 C   0  0  0  0  0  0
   -2.0560    2.1980   -4.2160 C   0  0  0  0  0  0
    1.4650    2.6600   -5.2910 N   0  0  0  0  0  0
    2.9000    2.9360   -5.2870 C   0  0  2  0  0  0
    3.7740    1.7420   -5.6710 C   0  0  0  0  0  0
    4.9670    1.8850   -5.9250 O   0  0  0  0  0  0
    3.3130    3.4670   -3.9090 C   0  0  0  0  0  0
    3.1790    0.5590   -5.7180 N   0  0  0  0  0  0
    3.9400   -0.6300   -6.0450 C   0  0  2  0  0  0
    3.8100   -1.0500   -7.4970 C   0  0  0  0  0  0
    3.7780   -2.2360   -7.8020 O   0  0  0  0  0  0
    3.5360   -1.7770   -5.1140 C   0  0  0  0  0  0
    3.8830   -1.5330   -3.6600 C   0  0  0  0  0  0
    5.2150   -1.4090   -3.2560 C   0  0  0  0  0  0
    2.8850   -1.4200   -2.7010 C   0  0  0  0  0  0
    5.5500   -1.1750   -1.9160 C   0  0  0  0  0  0
    3.2130   -1.1850   -1.3590 C   0  0  0  0  0  0
    4.5490   -1.0630   -0.9720 C   0  0  0  0  0  0
    3.7490   -0.0730   -8.3940 N   0  0  0  0  0  0
    3.6550   -0.3830   -9.8100 C   0  0  0  0  0  0
    2.2360   -0.4960  -10.3190 C   0  0  0  0  0  0
    1.2983   -0.1667   -9.5445 O   0  0  0  0  0  0
    1.9975   -0.9081  -11.4856 O   0  5  0  0  0  0
   -3.1674   -7.2325   -5.4905 H   0  0  0  0  0  0
   -4.7862   -7.9151   -5.1158 H   0  0  0  0  0  0
   -3.4337   -8.1198   -3.9515 H   0  0  0  0  0  0
   -4.7314   -5.5282   -4.7902 H   0  0  0  0  0  0
   -4.8347   -7.1392   -2.1674 H   0  0  0  0  0  0
   -5.5458   -5.5051   -2.3927 H   0  0  0  0  0  0
   -6.3443   -7.9492   -4.0210 H   0  0  0  0  0  0
   -7.1802   -7.4022   -2.5281 H   0  0  0  0  0  0
   -6.8828   -4.5518   -2.9112 H   0  0  0  0  0  0
   -8.0590   -4.1169   -4.3456 H   0  0  0  0  0  0
   -2.7229   -4.6959   -5.3771 H   0  0  0  0  0  0
   -0.9383   -4.2521   -2.9375 H   0  0  0  0  0  0
   -0.3109   -4.0540   -5.9546 H   0  0  0  0  0  0
    0.8592   -3.6322   -4.6587 H   0  0  0  0  0  0
   -0.2122   -6.3766   -5.3452 H   0  0  0  0  0  0
    1.4960   -5.3805   -6.8730 H   0  0  0  0  0  0
    2.1762   -6.7395   -5.9153 H   0  0  0  0  0  0
    2.5492   -5.0431   -5.4575 H   0  0  0  0  0  0
    0.0671   -6.1348   -2.9132 H   0  0  0  0  0  0
    1.7208   -5.4798   -3.1640 H   0  0  0  0  0  0
    1.3477   -7.1762   -3.6218 H   0  0  0  0  0  0
   -0.1099   -2.1617   -2.4445 H   0  0  0  0  0  0
   -2.0730   -0.0491   -3.0228 H   0  0  0  0  0  0
    0.7746    0.0577   -1.9171 H   0  0  0  0  0  0
   -0.3062    1.4890   -2.0173 H   0  0  0  0  0  0
   -0.9257    1.3433   -7.0515 H   0  0  0  0  0  0
   -0.7620    4.1224   -5.7829 H   0  0  0  0  0  0
   -1.7110    3.6104   -7.2195 H   0  0  0  0  0  0
   -3.0066    4.0381   -4.9184 H   0  0  0  0  0  0
   -3.4101    2.5821   -5.8899 H   0  0  0  0  0  0
   -2.8149    1.5521   -3.7503 H   0  0  0  0  0  0
   -1.5292    2.7663   -3.4353 H   0  0  0  0  0  0
    0.8685    2.8361   -4.3837 H   0  0  0  0  0  0
    3.0186    3.6886   -6.0804 H   0  0  0  0  0  0
    2.6790    4.3252   -3.6417 H   0  0  0  0  0  0
    4.3659    3.7841   -3.9387 H   0  0  0  0  0  0
    3.1904    2.6726   -3.1581 H   0  0  0  0  0  0
    2.1021    0.4821   -5.5073 H   0  0  0  0  0  0
    4.9852   -0.3249   -5.8884 H   0  0  0  0  0  0
    2.4479   -1.9285   -5.1697 H   0  0  0  0  0  0
    4.0508   -2.6987   -5.4229 H   0  0  0  0  0  0
    6.0088   -1.4960   -3.9979 H   0  0  0  0  0  0
    1.8394   -1.5147   -2.9941 H   0  0  0  0  0  0
    6.5950   -1.0819   -1.6205 H   0  0  0  0  0  0
    2.4220   -1.0971   -0.6143 H   0  0  0  0  0  0
    4.8009   -0.8798    0.0726 H   0  0  0  0  0  0
    3.7699    0.9751   -8.0606 H   0  0  0  0  0  0
    4.1477    0.4095  -10.3923 H   0  0  0  0  0  0
    4.1497   -1.3452  -10.0083 H   0  0  0  0  0  0
  1  2  1  0  0  0
  1 54  1  0  0  0
  1 55  1  0  0  0
  1 56  1  0  0  0
  2  3  1  0  0  0
  2  5  1  0  0  0
  2 57  1  0  0  0
  3  4  2  0  0  0
  3 10  1  0  0  0
  5  6  1  0  0  0
  5 58  1  0  0  0
  5 59  1  0  0  0
  6  7  1  0  0  0
  6 60  1  0  0  0
  6 61  1  0  0  0
  7  8  2  0  0  0
  7  9  1  0  0  0
  9 62  1  0  0  0
  9 63  1  0  0  0
 10 11  1  0  0  0
 10 64  1  0  0  0
 11 12  1  0  0  0
 11 14  1  0  0  0
 11 65  1  0  0  0
 12 13  2  0  0  0
 12 18  1  0  0  0
 14 15  1  0  0  0
 14 66  1  0  0  0
 14 67  1  0  0  0
 15 16  1  0  0  0
 15 17  1  0  0  0
 15 68  1  0  0  0
 16 69  1  0  0  0
 16 70  1  0  0  0
 16 71  1  0  0  0
 17 72  1  0  0  0
 17 73  1  0  0  0
 17 74  1  0  0  0
 18 19  1  0  0  0
 18 75  1  0  0  0
 19 20  1  0  0  0
 19 22  1  0  0  0
 19 76  1  0  0  0
 20 21  2  0  0  0
 20 26  1  0  0  0
 22 23  1  0  0  0
 22 77  1  0  0  0
 22 78  1  0  0  0
 23 24  1  0  0  0
 23 25  2  0  0  0
 26 27  1  0  0  0
 26 32  1  0  0  0
 27 28  1  0  0  0
 27 30  1  0  0  0
 27 79  1  0  0  0
 28 29  2  0  0  0
 28 33  1  0  0  0
 30 31  1  0  0  0
 30 80  1  0  0  0
 30 81  1  0  0  0
 31 32  1  0  0  0
 31 82  1  0  0  0
 31 83  1  0  0  0
 32 84  1  0  0  0
 32 85  1  0  0  0
 33 34  1  0  0  0
 33 86  1  0  0  0
 34 35  1  0  0  0
 34 37  1  0  0  0
 34 87  1  0  0  0
 35 36  2  0  0  0
 35 38  1  0  0  0
 37 88  1  0  0  0
 37 89  1  0  0  0
 37 90  1  0  0  0
 38 39  1  0  0  0
 38 91  1  0  0  0
 39 40  1  0  0  0
 39 42  1  0  0  0
 39 92  1  0  0  0
 40 41  2  0  0  0
 40 49  1  0  0  0
 42 43  1  0  0  0
 42 93  1  0  0  0
 42 94  1  0  0  0
 43 44  2  0  0  0
 43 45  1  0  0  0
 44 46  1  0  0  0
 44 95  1  0  0  0
 45 47  2  0  0  0
 45 96  1  0  0  0
 46 48  2  0  0  0
 46 97  1  0  0  0
 47 48  1  0  0  0
 47 98  1  0  0  0
 48 99  1  0  0  0
 49 50  1  0  0  0
 49100  1  0  0  0
 50 51  1  0  0  0
 50101  1  0  0  0
 50102  1  0  0  0
 51 52  2  0  0  0
 51 53  1  0  0  0
M  CHG  3   1   1  24  -1  53  -1
M  END
> <s_m_source_file>
../1kcs_ligand.sdf

> <i_m_source_file_index>
1

> <s_epik_input>
Tz1DKFtOSDJdKVtDSDJdW0NIMl1bQ0BIXShbTkgzK10pQyg9TylbTkhdW0NAQEhdKFtDSDJdW0NIXShbQ0gzXSlbQ0gzXSlDKD1PKVtOSF1bQ0BASF0oW0NIMl1DKD1PKVtPSF0pQyg9TylOMVtDQEBIXShbQ0gyXVtDSDJdW0NIMl0xKUMoPU8pW05IXVtDQEBIXShbQ0gzXSlDKD1PKVtOSF1bQ0BIXShDKD1PKVtOSF1bQ0gyXUMoPU8pW09IXSlbQ0gyXWMyW2NIXVtjSF1bY0hdW2NIXVtjSF0y

> <s_epik_cmdline>
J2VwaWtfYXBwJywgJy1pbWFlJywgJ2xpZ2FuZF9wcm8ubWFlJywgJy1vbWFlJywgJ2xpZ2FuZF9wcmVwLm1hZScsICctbXMnLCAnMScsICctcGgnLCAnNycsICctcGh0JywgJzAuNScsICctbnQn

> <r_epik_Ionization_Penalty>
  0.1674

> <r_epik_Ionization_Penalty_Charging>
  0.1673

> <r_epik_Ionization_Penalty_Neutral>
  0.0000

> <r_epik_State_Penalty>
  0.1555

> <r_epik_Charging_Adjusted_Penalty>
0.322823347762443

> <i_epik_Tot_Q>
-1

> <i_epik_Tot_abs_Q>
3

$$$$
