1kdk_ligand
                    3D
 Schrodinger Suite 2020-3.
 51 54  0  0  1  0            999 V2000
   24.0520   10.0270   31.5730 C   0  0  0  0  0  0
   25.5770   10.2030   31.4680 C   0  0  0  0  0  0
   26.0140   11.6250   31.6660 C   0  0  0  0  0  0
   26.8450   12.2080   30.9600 O   0  0  0  0  0  0
   25.3430   12.3870   32.7590 C   0  0  0  0  0  0
   23.8560   12.1460   32.9140 C   0  0  2  0  0  0
   23.2530   12.8000   34.1710 C   0  0  0  0  0  0
   21.7230   12.7710   34.0700 C   0  0  0  0  0  0
   21.2400   11.2890   34.0470 C   0  0  2  0  0  0
   21.8950   10.5780   32.8330 C   0  0  1  0  0  0
   23.4260   10.6590   32.8330 C   0  0  1  0  0  0
   21.4010    9.0980   32.7140 C   0  0  0  0  0  0
   19.8740    9.0050   32.7010 C   0  0  0  0  0  0
   19.2260    9.7660   33.8590 C   0  0  1  0  0  0
   19.7430   11.2230   33.8270 C   0  0  1  0  0  0
   18.8410   11.9420   34.8510 C   0  0  0  0  0  0
   17.4550   11.2710   34.6930 C   0  0  0  0  0  0
   17.7560   10.0950   33.7410 C   0  0  2  0  0  0
   16.8200    9.0140   33.9480 O   0  0  0  0  0  0
   19.5610    9.0160   35.1640 C   0  0  0  0  0  0
   24.0270    9.9370   34.0760 C   0  0  0  0  0  0
   23.8516    8.9454   31.5671 H   0  0  0  0  0  0
   23.6123   10.4863   30.6753 H   0  0  0  0  0  0
   26.0706    9.5900   32.2365 H   0  0  0  0  0  0
   25.9152    9.8836   30.4712 H   0  0  0  0  0  0
   25.7994   12.1222   33.7242 H   0  0  0  0  0  0
   25.4624   13.4659   32.5807 H   0  0  0  0  0  0
   23.4611   12.6610   32.0258 H   0  0  0  0  0  0
   23.5746   12.2438   35.0638 H   0  0  0  0  0  0
   23.5984   13.8418   34.2439 H   0  0  0  0  0  0
   21.2884   13.2879   34.9383 H   0  0  0  0  0  0
   21.4069   13.2771   33.1459 H   0  0  0  0  0  0
   21.4841   10.8096   35.0065 H   0  0  0  0  0  0
   21.5834   11.1392   31.9397 H   0  0  0  0  0  0
   21.7806    8.6588   31.7797 H   0  0  0  0  0  0
   21.7740    8.5170   33.5703 H   0  0  0  0  0  0
   19.4888    9.4291   31.7619 H   0  0  0  0  0  0
   19.5702    7.9507   32.7790 H   0  0  0  0  0  0
   19.6836   11.7348   32.8551 H   0  0  0  0  0  0
   19.2501   11.8013   35.8624 H   0  0  0  0  0  0
   18.8040   13.0161   34.6166 H   0  0  0  0  0  0
   17.0936   10.9399   35.6777 H   0  0  0  0  0  0
   16.7443   11.9937   34.2656 H   0  0  0  0  0  0
   17.5617   10.2901   32.6760 H   0  0  0  0  0  0
   16.8973    8.0967   33.3459 H   0  0  0  0  0  0
   19.1625    7.9921   35.1111 H   0  0  0  0  0  0
   19.1070    9.5426   36.0164 H   0  0  0  0  0  0
   20.6525    8.9783   35.2954 H   0  0  0  0  0  0
   25.1241   10.0117   34.0485 H   0  0  0  0  0  0
   23.7312    8.8776   34.0633 H   0  0  0  0  0  0
   23.6500   10.4120   34.9938 H   0  0  0  0  0  0
  1 11  1  0  0  0
  1  2  1  0  0  0
  1 22  1  0  0  0
  1 23  1  0  0  0
  2  3  1  0  0  0
  2 24  1  0  0  0
  2 25  1  0  0  0
  3  5  1  0  0  0
  3  4  2  0  0  0
  5  6  1  0  0  0
  5 26  1  0  0  0
  5 27  1  0  0  0
  6 11  1  0  0  0
  6  7  1  0  0  0
  6 28  1  0  0  0
  7  8  1  0  0  0
  7 29  1  0  0  0
  7 30  1  0  0  0
  8  9  1  0  0  0
  8 31  1  0  0  0
  8 32  1  0  0  0
  9 15  1  0  0  0
  9 10  1  0  0  0
  9 33  1  0  0  0
 10 12  1  0  0  0
 10 11  1  0  0  0
 10 34  1  0  0  0
 11 21  1  0  0  0
 12 13  1  0  0  0
 12 35  1  0  0  0
 12 36  1  0  0  0
 13 14  1  0  0  0
 13 37  1  0  0  0
 13 38  1  0  0  0
 14 20  1  0  0  0
 14 18  1  0  0  0
 14 15  1  0  0  0
 15 16  1  0  0  0
 15 39  1  0  0  0
 16 17  1  0  0  0
 16 40  1  0  0  0
 16 41  1  0  0  0
 17 18  1  0  0  0
 17 42  1  0  0  0
 17 43  1  0  0  0
 18 19  1  0  0  0
 18 44  1  0  0  0
 19 45  1  0  0  0
 20 46  1  0  0  0
 20 47  1  0  0  0
 20 48  1  0  0  0
 21 49  1  0  0  0
 21 50  1  0  0  0
 21 51  1  0  0  0
M  END
> <s_m_source_file>
../1kdk_ligand.sdf

> <i_m_source_file_index>
1

> <s_epik_input>
W0NIMl0xW0NIMl1DKD1PKVtDSDJdW0NAQEhdKFtDQF0xMltDSDNdKVtDSDJdW0NIMl1bQ0BASF0zW0NAQEhdMltDSDJdW0NIMl1bQ0BAXTQoW0NIM10pW0NASF0zW0NIMl1bQ0gyXVtDQEBIXTRbT0hd

> <s_epik_cmdline>
J2VwaWtfYXBwJywgJy1pbWFlJywgJ2xpZ2FuZF9wcm8ubWFlJywgJy1vbWFlJywgJ2xpZ2FuZF9wcmVwLm1hZScsICctbXMnLCAnMScsICctcGgnLCAnNycsICctcGh0JywgJzAuNScsICctbnQn

> <r_lp_tautomer_probability>
1

> <r_epik_Ionization_Penalty>
  0.0000

> <r_epik_Ionization_Penalty_Charging>
  0.0000

> <r_epik_Ionization_Penalty_Neutral>
  0.0000

> <r_epik_State_Penalty>
 -0.0000

> <r_epik_Charging_Adjusted_Penalty>
0

> <i_epik_Tot_Q>
0

> <i_epik_Tot_abs_Q>
0

$$$$
