1kdw_ligand
                    3D
 Schrodinger Suite 2020-3.
 18 18  0  0  1  0            999 V2000
   26.8510    5.1730   16.5180 B   0  0  0  0  0  0
   25.9270    4.0310   16.7630 O   0  0  0  0  0  0
   26.8840    6.0520   17.7150 O   0  0  0  0  0  0
   26.3490    5.9660   15.2700 C   0  0  0  0  0  0
   25.9760    5.2620   14.1300 C   0  0  0  0  0  0
   25.4330    5.9070   13.0250 C   0  0  0  0  0  0
   25.2570    7.3210   13.0760 C   0  0  0  0  0  0
   24.5450    8.0490   11.9530 C   0  0  0  0  0  0
   24.1170    9.3100   12.1510 O   0  5  0  0  0  0
   24.3310    7.4840   10.8710 O   0  0  0  0  0  0
   25.6650    8.0250   14.2480 C   0  0  0  0  0  0
   26.1960    7.3470   15.3120 C   0  0  0  0  0  0
   25.7734    3.2707   15.9831 H   0  0  0  0  0  0
   27.5160    6.9523   17.7190 H   0  0  0  0  0  0
   26.1125    4.1809   14.1025 H   0  0  0  0  0  0
   25.1474    5.3430   12.1370 H   0  0  0  0  0  0
   25.5533    9.1082   14.2964 H   0  0  0  0  0  0
   26.5023    7.8962   16.2023 H   0  0  0  0  0  0
  1  4  1  0  0  0
  1  3  1  0  0  0
  1  2  1  0  0  0
  2 13  1  0  0  0
  3 14  1  0  0  0
  4 12  2  0  0  0
  4  5  1  0  0  0
  5  6  2  0  0  0
  5 15  1  0  0  0
  6  7  1  0  0  0
  6 16  1  0  0  0
  7 11  2  0  0  0
  7  8  1  0  0  0
  8  9  1  0  0  0
  8 10  2  0  0  0
 11 12  1  0  0  0
 11 17  1  0  0  0
 12 18  1  0  0  0
M  CHG  1   9  -1
M  END
> <s_m_source_file>
../1kdw_ligand.sdf

> <i_m_source_file_index>
1

> <s_epik_input>
W09IXUIoW09IXSljMVtjSF1bY0hdYyhDKD1PKVtPSF0pW2NIXVtjSF0x

> <s_epik_cmdline>
J2VwaWtfYXBwJywgJy1pbWFlJywgJ2xpZ2FuZF9wcm8ubWFlJywgJy1vbWFlJywgJ2xpZ2FuZF9wcmVwLm1hZScsICctbXMnLCAnMScsICctcGgnLCAnNycsICctcGh0JywgJzAuNScsICctbnQn

> <r_lp_tautomer_probability>
1

> <r_epik_Ionization_Penalty>
  0.0006

> <r_epik_Ionization_Penalty_Charging>
  0.0006

> <r_epik_Ionization_Penalty_Neutral>
  0.0000

> <r_epik_State_Penalty>
 -0.0000

> <r_epik_Charging_Adjusted_Penalty>
0.000634520047985296

> <i_epik_Tot_Q>
-1

> <i_epik_Tot_abs_Q>
1

> <s_epik_Chemistry_Notes>
This compound contains a Lewis acid (boronic acid) which adds nucleophiles to form tetrahedral complexes, lowering the experimental pKa

$$$$
