1ke0_ligand
                    3D
 Schrodinger Suite 2020-3.
 22 22  0  0  1  0            999 V2000
   26.7830    5.2470   16.5060 B   0  0  0  0  0  0
   25.8040    4.1980   16.8610 O   0  0  0  0  0  0
   26.9610    6.1880   17.6600 O   0  0  0  0  0  0
   26.2480    6.0170   15.2510 C   0  0  0  0  0  0
   25.8420    5.3060   14.1270 C   0  0  0  0  0  0
   25.3330    5.9500   12.9990 C   0  0  0  0  0  0
   25.2360    7.3750   13.0170 C   0  0  0  0  0  0
   24.7100    8.1480   11.8870 C   0  0  0  0  0  0
   24.2680    7.5960   10.7340 C   0  0  0  0  0  0
   23.7670    8.4730    9.6810 C   0  0  0  0  0  0
   24.4540    8.6260    8.5410 O   0  5  0  0  0  0
   22.7100    9.0930    9.8470 O   0  0  0  0  0  0
   25.6640    8.0650   14.1790 C   0  0  0  0  0  0
   26.1540    7.3880   15.2580 C   0  0  0  0  0  0
   25.9919    3.5387   17.7213 H   0  0  0  0  0  0
   27.3313    5.8112   18.6248 H   0  0  0  0  0  0
   25.9234    4.2190   14.1273 H   0  0  0  0  0  0
   25.0171    5.3798   12.1254 H   0  0  0  0  0  0
   24.6875    9.2399   12.0181 H   0  0  0  0  0  0
   24.2903    6.5041   10.6030 H   0  0  0  0  0  0
   25.6008    9.1527   14.2112 H   0  0  0  0  0  0
   26.4758    7.9434   16.1390 H   0  0  0  0  0  0
  1  2  1  0  0  0
  1  3  1  0  0  0
  1  4  1  0  0  0
  2 15  1  0  0  0
  3 16  1  0  0  0
  4  5  2  0  0  0
  4 14  1  0  0  0
  5  6  1  0  0  0
  5 17  1  0  0  0
  6  7  2  0  0  0
  6 18  1  0  0  0
  7  8  1  0  0  0
  7 13  1  0  0  0
  8  9  2  0  0  0
  8 19  1  0  0  0
  9 10  1  0  0  0
  9 20  1  0  0  0
 10 11  1  0  0  0
 10 12  2  0  0  0
 13 14  2  0  0  0
 13 21  1  0  0  0
 14 22  1  0  0  0
M  CHG  1  11  -1
M  END
> <s_m_source_file>
../1ke0_ligand.sdf

> <i_m_source_file_index>
1

> <s_epik_input>
W09IXUIoW09IXSljMVtjSF1bY0hdYyhbY0hdW2NIXTEpL1tDSF09W0NIXS9DKD1PKVtPSF0=

> <s_epik_cmdline>
J2VwaWtfYXBwJywgJy1pbWFlJywgJ2xpZ2FuZF9wcm8ubWFlJywgJy1vbWFlJywgJ2xpZ2FuZF9wcmVwLm1hZScsICctbXMnLCAnMScsICctcGgnLCAnNycsICctcGh0JywgJzAuNScsICctbnQn

> <r_lp_tautomer_probability>
1

> <r_epik_Ionization_Penalty>
  0.0015

> <r_epik_Ionization_Penalty_Charging>
  0.0015

> <r_epik_Ionization_Penalty_Neutral>
  0.0000

> <r_epik_State_Penalty>
 -0.0000

> <r_epik_Charging_Adjusted_Penalty>
0.00146467411160425

> <i_epik_Tot_Q>
-1

> <i_epik_Tot_abs_Q>
1

> <s_epik_Chemistry_Notes>
This compound contains a Lewis acid (boronic acid) which adds nucleophiles to form tetrahedral complexes, lowering the experimental pKa

$$$$
