1ke5_ligand
                    3D
 Schrodinger Suite 2020-3.
 38 40  0  0  1  0            999 V2000
   -9.5330   52.7730   40.6960 N   0  0  0  0  0  0
   -9.9690   51.9100   39.7440 C   0  0  0  0  0  0
   -9.3390   50.5690   39.9840 C   0  0  0  0  0  0
   -7.5730   49.8180   41.8530 C   0  0  0  0  0  0
   -6.8050   50.3380   43.0180 C   0  0  0  0  0  0
   -6.9720   51.7510   43.4380 C   0  0  0  0  0  0
   -7.8640   52.6690   42.6680 C   0  0  0  0  0  0
   -8.6350   52.1420   41.5260 C   0  0  0  0  0  0
   -8.4880   50.7530   41.1260 C   0  0  0  0  0  0
  -10.7110   52.1550   38.7830 O   0  0  0  0  0  0
   -9.4920   49.4720   39.2340 C   0  0  0  0  0  0
  -10.2290   49.4510   37.9610 N   0  0  0  0  0  0
  -10.2480   48.4250   37.0840 C   0  0  0  0  0  0
   -9.1600   47.3970   36.9390 C   0  0  0  0  0  0
   -9.2920   46.3320   35.9690 C   0  0  0  0  0  0
  -10.4960   46.2570   35.1340 C   0  0  0  0  0  0
  -11.5720   47.2770   35.2400 C   0  0  0  0  0  0
  -11.4480   48.3620   36.2220 C   0  0  0  0  0  0
  -10.4970   45.1020   33.8130 S   0  0  0  0  0  0
   -9.4930   45.5150   32.8900 O   0  0  0  0  0  0
  -11.8370   44.9790   33.3220 O   0  0  0  0  0  0
  -10.1440   43.5980   34.3930 N   0  0  3  0  0  0
   -8.9430   43.1360   35.0740 C   0  0  0  0  0  0
   -9.7920   53.8284   40.8667 H   0  0  0  0  0  0
   -7.4711   48.7798   41.5368 H   0  0  0  0  0  0
   -6.1228   49.6830   43.5600 H   0  0  0  0  0  0
   -6.4403   52.1218   44.3143 H   0  0  0  0  0  0
   -7.9446   53.7195   42.9476 H   0  0  0  0  0  0
   -9.0541   48.5171   39.5604 H   0  0  0  0  0  0
  -10.8280   50.3224   37.6578 H   0  0  0  0  0  0
   -8.2702   47.4545   37.5660 H   0  0  0  0  0  0
   -8.5016   45.5896   35.8591 H   0  0  0  0  0  0
  -12.4474   47.2201   34.5931 H   0  0  0  0  0  0
  -12.2324   49.1132   36.3145 H   0  0  0  0  0  0
  -10.9002   42.8725   34.0586 H   0  0  0  0  0  0
   -9.0491   42.0694   35.3213 H   0  0  0  0  0  0
   -8.8004   43.7144   35.9987 H   0  0  0  0  0  0
   -8.0722   43.2751   34.4165 H   0  0  0  0  0  0
  1  8  1  0  0  0
  1  2  1  0  0  0
  1 24  1  0  0  0
  2 10  2  0  0  0
  2  3  1  0  0  0
  3 11  2  0  0  0
  3  9  1  0  0  0
  4  9  1  0  0  0
  4  5  2  0  0  0
  4 25  1  0  0  0
  5  6  1  0  0  0
  5 26  1  0  0  0
  6  7  2  0  0  0
  6 27  1  0  0  0
  7  8  1  0  0  0
  7 28  1  0  0  0
  8  9  2  0  0  0
 11 12  1  0  0  0
 11 29  1  0  0  0
 12 13  1  0  0  0
 12 30  1  0  0  0
 13 18  2  0  0  0
 13 14  1  0  0  0
 14 15  2  0  0  0
 14 31  1  0  0  0
 15 16  1  0  0  0
 15 32  1  0  0  0
 16 19  1  0  0  0
 16 17  2  0  0  0
 17 18  1  0  0  0
 17 33  1  0  0  0
 18 34  1  0  0  0
 19 22  1  0  0  0
 19 21  2  0  0  0
 19 20  2  0  0  0
 22 23  1  0  0  0
 22 35  1  0  0  0
 23 36  1  0  0  0
 23 37  1  0  0  0
 23 38  1  0  0  0
M  END
> <s_m_source_file>
../1ke5_ligand.sdf

> <i_m_source_file_index>
1

> <s_epik_input>
W2NIXTFbY0hdW2NIXVtjSF1jKGMxMilDKFxDKD1PKVtOSF0yKT1bQ0hdXFtOSF1jM1tjSF1bY0hdYyhbY0hdW2NIXTMpUyg9TykoPU8pW05IXVtDSDNd

> <s_epik_cmdline>
J2VwaWtfYXBwJywgJy1pbWFlJywgJ2xpZ2FuZF9wcm8ubWFlJywgJy1vbWFlJywgJ2xpZ2FuZF9wcmVwLm1hZScsICctbXMnLCAnMScsICctcGgnLCAnNycsICctcGh0JywgJzAuNScsICctbnQn

> <r_lp_tautomer_probability>
1

> <r_epik_Ionization_Penalty>
  0.0003

> <r_epik_Ionization_Penalty_Charging>
  0.0000

> <r_epik_Ionization_Penalty_Neutral>
  0.0003

> <r_epik_State_Penalty>
 -0.0000

> <r_epik_Charging_Adjusted_Penalty>
0

> <i_epik_Tot_Q>
0

> <i_epik_Tot_abs_Q>
0

$$$$
