1ke7_ligand
                    3D
 Schrodinger Suite 2020-3.
 43 47  0  0  1  0            999 V2000
  -10.9100   52.3530   11.7630 O   0  0  0  0  0  0
  -10.1870   51.8690   12.6200 C   0  0  0  0  0  0
   -9.6420   52.5270   13.6990 N   0  0  0  0  0  0
   -8.8130   51.6860   14.3930 C   0  0  0  0  0  0
   -7.9970   51.9080   15.6130 C   0  0  0  0  0  0
   -7.1340   50.7930   16.1090 C   0  0  0  0  0  0
   -7.0150   49.4940   15.3550 C   0  0  0  0  0  0
   -6.1390   48.4270   15.8200 C   0  0  0  0  0  0
   -5.8340   48.2230   17.1420 O   0  0  0  0  0  0
   -5.1820   47.0170   17.1810 C   0  0  0  0  0  0
   -4.8760   46.5750   15.9410 N   0  0  0  0  0  0
   -5.4640   47.4140   15.0610 C   0  0  0  0  0  0
   -7.8730   49.3310   14.1390 C   0  0  0  0  0  0
   -8.7920   50.4060   13.7060 C   0  0  0  0  0  0
   -9.7530   50.4380   12.6230 C   0  0  0  0  0  0
  -10.1730   49.4120   11.8460 C   0  0  0  0  0  0
  -10.9420   49.3820   10.5820 N   0  0  0  0  0  0
  -11.1170   48.2830    9.7730 C   0  0  0  0  0  0
  -10.0100   47.3440    9.3940 C   0  0  0  0  0  0
  -10.2970   46.1970    8.5330 C   0  0  0  0  0  0
   -9.3360   45.1630    8.0910 C   0  0  0  0  0  0
   -9.9210   44.4500    6.5620 S   0  0  0  0  0  0
   -9.6840   43.0320    6.5110 O   0  0  0  0  0  0
   -9.4570   45.3080    5.5090 O   0  0  0  0  0  0
  -11.6310   44.8710    6.9850 C   0  0  0  0  0  0
  -11.6380   45.9950    7.9680 C   0  0  0  0  0  0
  -12.7620   46.8820    8.3510 C   0  0  0  0  0  0
  -12.4880   48.0360    9.2410 C   0  0  0  0  0  0
   -9.9002   53.5792   13.8893 H   0  0  0  0  0  0
   -8.0265   52.8639   16.1360 H   0  0  0  0  0  0
   -6.5780   50.9226   17.0375 H   0  0  0  0  0  0
   -4.9404   46.4811   18.0989 H   0  0  0  0  0  0
   -5.4316   47.3358   13.9743 H   0  0  0  0  0  0
   -7.8196   48.4064   13.5642 H   0  0  0  0  0  0
   -9.9438   48.3751   12.1330 H   0  0  0  0  0  0
  -11.4351   50.2948   10.2164 H   0  0  0  0  0  0
   -8.9972   47.5157    9.7584 H   0  0  0  0  0  0
   -8.3490   45.6227    7.9344 H   0  0  0  0  0  0
   -9.2583   44.3814    8.8611 H   0  0  0  0  0  0
  -12.1693   45.1759    6.0754 H   0  0  0  0  0  0
  -12.1259   43.9938    7.4273 H   0  0  0  0  0  0
  -13.7707   46.6897    7.9854 H   0  0  0  0  0  0
  -13.2993   48.7125    9.5098 H   0  0  0  0  0  0
  1  2  2  0  0  0
  2 15  1  0  0  0
  2  3  1  0  0  0
  3  4  1  0  0  0
  3 29  1  0  0  0
  4 14  2  0  0  0
  4  5  1  0  0  0
  5  6  2  0  0  0
  5 30  1  0  0  0
  6  7  1  0  0  0
  6 31  1  0  0  0
  7 13  2  0  0  0
  7  8  1  0  0  0
  8 12  2  0  0  0
  8  9  1  0  0  0
  9 10  1  0  0  0
 10 11  2  0  0  0
 10 32  1  0  0  0
 11 12  1  0  0  0
 12 33  1  0  0  0
 13 14  1  0  0  0
 13 34  1  0  0  0
 14 15  1  0  0  0
 15 16  2  0  0  0
 16 17  1  0  0  0
 16 35  1  0  0  0
 17 18  1  0  0  0
 17 36  1  0  0  0
 18 28  2  0  0  0
 18 19  1  0  0  0
 19 20  2  0  0  0
 19 37  1  0  0  0
 20 26  1  0  0  0
 20 21  1  0  0  0
 21 22  1  0  0  0
 21 38  1  0  0  0
 21 39  1  0  0  0
 22 25  1  0  0  0
 22 24  2  0  0  0
 22 23  2  0  0  0
 25 26  1  0  0  0
 25 40  1  0  0  0
 25 41  1  0  0  0
 26 27  2  0  0  0
 27 28  1  0  0  0
 27 42  1  0  0  0
 28 43  1  0  0  0
M  END
> <s_m_source_file>
../1ke7_ligand.sdf

> <i_m_source_file_index>
1

> <s_epik_input>
W2NIXTFuW2NIXW9jMS1jKFtjSF1bY0hdMilbY0hdYyhjMjMpQyhcQyg9TylbTkhdMyk9W0NIXVxbTkhdYyhbY0hdNClbY0hdW2NIXWMoYzQ1KVtDSDJdUyg9TykoPU8pW0NIMl01

> <s_epik_cmdline>
J2VwaWtfYXBwJywgJy1pbWFlJywgJ2xpZ2FuZF9wcm8ubWFlJywgJy1vbWFlJywgJ2xpZ2FuZF9wcmVwLm1hZScsICctbXMnLCAnMScsICctcGgnLCAnNycsICctcGh0JywgJzAuNScsICctbnQn

> <r_lp_tautomer_probability>
1

> <r_epik_Ionization_Penalty>
  0.0002

> <r_epik_Ionization_Penalty_Charging>
  0.0000

> <r_epik_Ionization_Penalty_Neutral>
  0.0002

> <r_epik_State_Penalty>
 -0.0000

> <r_epik_Charging_Adjusted_Penalty>
0

> <i_epik_Tot_Q>
0

> <i_epik_Tot_abs_Q>
0

$$$$
