1kf0_ligand
                    3D
 Schrodinger Suite 2020-3.
 46 48  0  0  1  0            999 V2000
    9.5650   -0.7210   24.4990 P   0  0  0  0  0  0
    9.5580   -1.9430   25.3310 O   0  5  0  0  0  0
    8.2190   -0.1530   24.2760 O   0  0  0  0  0  0
   10.5680    0.2770   24.9220 O   0  0  0  0  0  0
    9.7390   -0.1940   21.4120 P   0  0  2  0  0  0
    8.6580   -0.8620   20.6200 O   0  0  0  0  0  0
   11.0430    0.1630   20.7530 O   0  5  0  0  0  0
   10.1320   -1.2880   22.8410 C   0  0  0  0  0  0
    9.4590    2.6690   21.9500 P   0  0  1  0  0  0
   10.7040    2.9020   22.6890 O   0  0  0  0  0  0
    9.3130    3.1580   20.5720 O   0  5  0  0  0  0
    9.1310    1.1160   21.9790 O   0  0  0  0  0  0
    8.2720    3.2090   22.8060 O   0  0  0  0  0  0
    6.8950    3.1420   22.3850 C   0  0  0  0  0  0
    6.0380    2.8650   23.5820 C   0  0  1  0  0  0
    6.1960    3.9950   24.4600 O   0  0  0  0  0  0
    4.5590    2.7680   23.2980 C   0  0  1  0  0  0
    4.1120    1.4180   23.5260 O   0  0  0  0  0  0
    3.9210    3.7810   24.2320 C   0  0  1  0  0  0
    2.8200    3.2690   24.9720 O   0  0  0  0  0  0
    5.0270    4.1220   25.2540 C   0  0  2  0  0  0
    4.9600    5.5180   25.7800 N   0  0  0  0  0  0
    4.8440    6.7060   25.0930 C   0  0  0  0  0  0
    4.8110    7.7710   25.8340 N   0  0  0  0  0  0
    4.9120    7.2540   27.1120 C   0  0  0  0  0  0
    4.9370    7.8660   28.4010 C   0  0  0  0  0  0
    4.8530    9.1810   28.5340 N   0  0  0  0  0  0
    5.0480    7.0740   29.5010 N   0  0  0  0  0  0
    5.1320    5.7460   29.3510 C   0  0  0  0  0  0
    5.1200    5.0430   28.2000 N   0  0  0  0  0  0
    5.0060    5.8800   27.0980 C   0  0  0  0  0  0
    7.6505    0.2626   25.1210 H   0  0  0  0  0  0
   11.2270   -1.3928   22.8440 H   0  0  0  0  0  0
    9.6714   -2.2594   22.6084 H   0  0  0  0  0  0
    6.6033    4.1006   21.9312 H   0  0  0  0  0  0
    6.7762    2.3355   21.6465 H   0  0  0  0  0  0
    6.3749    1.9138   24.0198 H   0  0  0  0  0  0
    4.2735    2.9419   22.2500 H   0  0  0  0  0  0
    4.5056    0.5967   22.9091 H   0  0  0  0  0  0
    3.4737    4.6046   23.6561 H   0  0  0  0  0  0
    1.9044    2.9550   24.4494 H   0  0  0  0  0  0
    5.0298    3.4796   26.1469 H   0  0  0  0  0  0
    4.7842    6.7487   24.0055 H   0  0  0  0  0  0
    4.7633    9.8193   27.6427 H   0  0  0  0  0  0
    4.8729    9.6349   29.5358 H   0  0  0  0  0  0
    5.2206    5.1639   30.2683 H   0  0  0  0  0  0
  1  2  1  0  0  0
  1  3  1  0  0  0
  1  4  2  0  0  0
  1  8  1  0  0  0
  3 32  1  0  0  0
  5  6  2  0  0  0
  5  7  1  0  0  0
  5  8  1  0  0  0
  5 12  1  0  0  0
  8 33  1  0  0  0
  8 34  1  0  0  0
  9 10  2  0  0  0
  9 11  1  0  0  0
  9 12  1  0  0  0
  9 13  1  0  0  0
 13 14  1  0  0  0
 14 15  1  0  0  0
 14 35  1  0  0  0
 14 36  1  0  0  0
 15 16  1  0  0  0
 15 17  1  0  0  0
 15 37  1  0  0  0
 16 21  1  0  0  0
 17 18  1  0  0  0
 17 19  1  0  0  0
 17 38  1  0  0  0
 18 39  1  0  0  0
 19 20  1  0  0  0
 19 21  1  0  0  0
 19 40  1  0  0  0
 20 41  1  0  0  0
 21 22  1  0  0  0
 21 42  1  0  0  0
 22 23  1  0  0  0
 22 31  1  0  0  0
 23 24  2  0  0  0
 23 43  1  0  0  0
 24 25  1  0  0  0
 25 26  2  0  0  0
 25 31  1  0  0  0
 26 27  1  0  0  0
 26 28  1  0  0  0
 27 44  1  0  0  0
 27 45  1  0  0  0
 28 29  2  0  0  0
 29 30  1  0  0  0
 29 46  1  0  0  0
 30 31  2  0  0  0
M  CHG  3   2  -1   7  -1  11  -1
M  END
> <s_m_source_file>
../1kf0_ligand.sdf

> <i_m_source_file_index>
1

> <s_epik_input>
W09IXVAoPU8pKFtPSF0pW0NIMl1bUEBdKD1PKShbT0hdKU9bUEBAXSg9TykoW09IXSlPW0NIMl1bQ0BIXTFPW0NASF0oW0NASF0oW09IXSlbQ0BASF0xW09IXSluKFtjSF1uMiljKGMyMyluW2NIXW5jM1tOSDJd

> <s_epik_cmdline>
J2VwaWtfYXBwJywgJy1pbWFlJywgJ2xpZ2FuZF9wcm8ubWFlJywgJy1vbWFlJywgJ2xpZ2FuZF9wcmVwLm1hZScsICctbXMnLCAnMScsICctcGgnLCAnNycsICctcGh0JywgJzAuNScsICctbnQn

> <r_lp_tautomer_probability>
0.999997216410988

> <r_epik_Ionization_Penalty>
  0.1707

> <r_epik_Ionization_Penalty_Charging>
  0.0003

> <r_epik_Ionization_Penalty_Neutral>
  0.1704

> <r_epik_State_Penalty>
  0.1593

> <r_epik_Charging_Adjusted_Penalty>
0.159669573191128

> <i_epik_Tot_Q>
-3

> <i_epik_Tot_abs_Q>
3

> <s_epik_Chemistry_Notes>
This compound contains an acetal/aminal-like group ( X-CH(R)-Y where X, Y are N, S, or O) that may be acid/base labile, releasing an aldehyde.

$$$$
