1kf6_ligand
                    3D
 Schrodinger Suite 2020-3.
 39 40  0  0  1  0            999 V2000
   25.0950   16.1830  -54.7110 C   0  0  0  0  0  0
   24.3460   16.5860  -55.6420 O   0  0  0  0  0  0
   25.9340   17.1060  -54.0530 C   0  0  0  0  0  0
   26.7890   16.6710  -52.9970 C   0  0  0  0  0  0
   26.8000   15.3390  -52.6140 N   0  3  0  0  0  0
   27.5440   14.9840  -51.6990 O   0  0  0  0  0  0
   25.9890   14.4010  -53.2440 C   0  0  0  0  0  0
   26.0070   13.0160  -52.8500 C   0  0  0  0  0  0
   25.1750   12.0740  -53.5100 C   0  0  0  0  0  0
   24.3120   12.4970  -54.5730 C   0  0  0  0  0  0
   24.2760   13.8540  -54.9770 C   0  0  0  0  0  0
   25.1060   14.8140  -54.3250 C   0  0  0  0  0  0
   27.6270   17.6070  -52.3440 C   0  0  0  0  0  0
   29.9850   17.7090  -53.2420 C   0  0  0  0  0  0
   28.5760   18.3220  -53.3330 C   0  0  0  0  0  0
   30.9470   18.7290  -52.6560 C   0  0  0  0  0  0
   32.1480   17.9680  -52.1110 C   0  0  0  0  0  0
   33.3800   18.8790  -52.2700 C   0  0  0  0  0  0
   34.4870   18.4300  -51.2950 C   0  0  0  0  0  0
   25.9282   18.1635  -54.3557 H   0  0  0  0  0  0
   26.6619   12.6898  -52.0420 H   0  0  0  0  0  0
   25.1926   11.0269  -53.2077 H   0  0  0  0  0  0
   23.6771   11.7673  -55.0755 H   0  0  0  0  0  0
   23.6145   14.1648  -55.7857 H   0  0  0  0  0  0
   27.0084   18.3699  -51.8487 H   0  0  0  0  0  0
   28.2407   17.0882  -51.5928 H   0  0  0  0  0  0
   29.9568   16.8194  -52.5957 H   0  0  0  0  0  0
   30.3252   17.4209  -54.2476 H   0  0  0  0  0  0
   28.1942   18.2039  -54.3578 H   0  0  0  0  0  0
   28.6286   19.3918  -53.0823 H   0  0  0  0  0  0
   31.2619   19.4302  -53.4428 H   0  0  0  0  0  0
   30.4462   19.2841  -51.8491 H   0  0  0  0  0  0
   31.9799   17.7284  -51.0506 H   0  0  0  0  0  0
   32.2812   17.0365  -52.6807 H   0  0  0  0  0  0
   33.7542   18.8128  -53.3023 H   0  0  0  0  0  0
   33.0982   19.9189  -52.0481 H   0  0  0  0  0  0
   35.3649   19.0826  -51.4113 H   0  0  0  0  0  0
   34.7709   17.3905  -51.5162 H   0  0  0  0  0  0
   34.1149   18.4966  -50.2620 H   0  0  0  0  0  0
  1  2  2  0  0  0
  1  3  1  0  0  0
  1 12  1  0  0  0
  3  4  2  0  0  0
  3 20  1  0  0  0
  4  5  1  0  0  0
  4 13  1  0  0  0
  5  6  2  0  0  0
  5  7  1  0  0  0
  7  8  2  0  0  0
  7 12  1  0  0  0
  8  9  1  0  0  0
  8 21  1  0  0  0
  9 10  2  0  0  0
  9 22  1  0  0  0
 10 11  1  0  0  0
 10 23  1  0  0  0
 11 12  2  0  0  0
 11 24  1  0  0  0
 13 15  1  0  0  0
 13 25  1  0  0  0
 13 26  1  0  0  0
 14 15  1  0  0  0
 14 16  1  0  0  0
 14 27  1  0  0  0
 14 28  1  0  0  0
 15 29  1  0  0  0
 15 30  1  0  0  0
 16 17  1  0  0  0
 16 31  1  0  0  0
 16 32  1  0  0  0
 17 18  1  0  0  0
 17 33  1  0  0  0
 17 34  1  0  0  0
 18 19  1  0  0  0
 18 35  1  0  0  0
 18 36  1  0  0  0
 19 37  1  0  0  0
 19 38  1  0  0  0
 19 39  1  0  0  0
M  CHG  1   5   1
M  END
> <s_m_source_file>
../1kf6_ligand.sdf

> <i_m_source_file_index>
1

> <s_epik_input>
W2NIXTFbY0hdW2NIXVtjSF1jKGMxMilDKD1PKVtDSF09QyhbTitdMj1PKVtDSDJdW0NIMl1bQ0gyXVtDSDJdW0NIMl1bQ0gyXVtDSDNd

> <s_epik_cmdline>
J2VwaWtfYXBwJywgJy1pbWFlJywgJ2xpZ2FuZF9wcm8ubWFlJywgJy1vbWFlJywgJ2xpZ2FuZF9wcmVwLm1hZScsICctbXMnLCAnMScsICctcGgnLCAnNycsICctcGh0JywgJzAuNScsICctbnQn

> <r_lp_tautomer_probability>
1

> <r_epik_Ionization_Penalty>
  0.0000

> <r_epik_Ionization_Penalty_Charging>
  0.0000

> <r_epik_Ionization_Penalty_Neutral>
  0.0000

> <r_epik_State_Penalty>
 -0.0000

> <r_epik_Charging_Adjusted_Penalty>
0

> <i_epik_Tot_Q>
1

> <i_epik_Tot_abs_Q>
1

$$$$
