1kfy_ligand
                    3D
 Schrodinger Suite 2020-3.
 32 33  0  0  1  0            999 V2000
   25.3350   14.7020  -52.6310 N   0  3  0  0  0  0
   25.4160   13.6360  -51.9960 O   0  0  0  0  0  0
   24.4050   14.7850  -53.4360 O   0  5  0  0  0  0
   26.6160   19.3300  -54.1660 N   0  3  0  0  0  0
   27.3360   20.3430  -54.1610 O   0  0  0  0  0  0
   25.6620   19.3360  -54.9310 O   0  5  0  0  0  0
   26.0690   16.9970  -53.2970 C   0  0  0  0  0  0
   26.8970   18.1150  -53.2590 C   0  0  0  0  0  0
   27.9910   18.1170  -52.3950 C   0  0  0  0  0  0
   28.2620   17.0100  -51.5580 C   0  0  0  0  0  0
   27.4520   15.8860  -51.5780 C   0  0  0  0  0  0
   26.3150   15.8770  -52.4740 C   0  0  0  0  0  0
   27.7670   14.8180  -50.7240 O   0  5  0  0  0  0
   31.1630   16.3180  -52.4580 C   0  0  0  0  0  0
   30.7940   17.2530  -51.4560 C   0  0  0  0  0  0
   31.6760   18.3560  -51.2570 C   0  0  0  0  0  0
   32.9040   18.4940  -52.0540 C   0  0  0  0  0  0
   33.2360   17.5080  -53.0570 C   0  0  0  0  0  0
   32.3560   16.4480  -53.2330 C   0  0  0  0  0  0
   34.7260   17.5660  -54.0890 Cl  0  0  0  0  0  0
   29.4610   17.0260  -50.6320 C   0  0  1  0  0  0
   29.2310   18.1050  -49.5920 C   0  0  0  0  0  0
   25.2152   16.9861  -53.9745 H   0  0  0  0  0  0
   28.6482   18.9860  -52.3641 H   0  0  0  0  0  0
   30.5093   15.4658  -52.6438 H   0  0  0  0  0  0
   31.4366   19.1068  -50.5040 H   0  0  0  0  0  0
   33.5665   19.3434  -51.8876 H   0  0  0  0  0  0
   32.5825   15.6924  -53.9852 H   0  0  0  0  0  0
   29.5326   16.0644  -50.1027 H   0  0  0  0  0  0
   28.2956   17.8993  -49.0510 H   0  0  0  0  0  0
   29.1597   19.0838  -50.0888 H   0  0  0  0  0  0
   30.0709   18.1146  -48.8817 H   0  0  0  0  0  0
  1  2  2  0  0  0
  1  3  1  0  0  0
  1 12  1  0  0  0
  4  5  2  0  0  0
  4  6  1  0  0  0
  4  8  1  0  0  0
  7  8  2  0  0  0
  7 12  1  0  0  0
  7 23  1  0  0  0
  8  9  1  0  0  0
  9 10  2  0  0  0
  9 24  1  0  0  0
 10 11  1  0  0  0
 10 21  1  0  0  0
 11 12  2  0  0  0
 11 13  1  0  0  0
 14 15  2  0  0  0
 14 19  1  0  0  0
 14 25  1  0  0  0
 15 16  1  0  0  0
 15 21  1  0  0  0
 16 17  2  0  0  0
 16 26  1  0  0  0
 17 18  1  0  0  0
 17 27  1  0  0  0
 18 19  2  0  0  0
 18 20  1  0  0  0
 19 28  1  0  0  0
 21 22  1  0  0  0
 21 29  1  0  0  0
 22 30  1  0  0  0
 22 31  1  0  0  0
 22 32  1  0  0  0
M  CHG  5   1   1   3  -1   4   1   6  -1  13  -1
M  END
> <s_m_source_file>
../1kfy_ligand.sdf

> <i_m_source_file_index>
1

> <s_epik_input>
Tz1bTitdKFtPLV0pYzFbY0hdYyhbTitdKD1PKVtPLV0pYyhbT0hdKWMoW2NIXTEpW0NASF0oW0NIM10pYzJbY0hdW2NIXWMoQ2wpW2NIXVtjSF0y

> <s_epik_cmdline>
J2VwaWtfYXBwJywgJy1pbWFlJywgJ2xpZ2FuZF9wcm8ubWFlJywgJy1vbWFlJywgJ2xpZ2FuZF9wcmVwLm1hZScsICctbXMnLCAnMScsICctcGgnLCAnNycsICctcGh0JywgJzAuNScsICctbnQn

> <r_lp_tautomer_probability>
1

> <r_epik_Ionization_Penalty>
  0.0011

> <r_epik_Ionization_Penalty_Charging>
  0.0011

> <r_epik_Ionization_Penalty_Neutral>
  0.0000

> <r_epik_State_Penalty>
 -0.0000

> <r_epik_Charging_Adjusted_Penalty>
0.00108376918394135

> <i_epik_Tot_Q>
-1

> <i_epik_Tot_abs_Q>
5

$$$$
