1kjr_ligand
                    3D
 Schrodinger Suite 2020-3.
 68 70  0  0  1  0            999 V2000
    2.6590   -8.2880    1.5890 C   0  0  0  0  0  0
    2.5350   -7.6440    2.7720 O   0  0  0  0  0  0
    1.4680   -8.5870    0.9860 N   0  0  0  0  0  0
    3.7870   -8.7550    0.9030 C   0  0  0  0  0  0
    4.7170   -9.5220    1.7030 C   0  0  0  0  0  0
    4.0600   -8.4890   -0.5510 C   0  0  0  0  0  0
    4.5020   -9.7230    2.8510 F   0  0  0  0  0  0
    3.3160   -7.8610   -1.2350 F   0  0  0  0  0  0
    5.9010  -10.0330    1.1040 C   0  0  0  0  0  0
    5.2700   -9.0100   -1.1410 C   0  0  0  0  0  0
    6.2220   -9.7970   -0.3160 C   0  0  0  0  0  0
    6.5870  -10.6120    1.7440 F   0  0  0  0  0  0
    5.4670   -8.8140   -2.2160 F   0  0  0  0  0  0
    7.2250  -10.2610   -0.6760 O   0  0  0  0  0  0
    7.8410  -10.2180   -1.9470 C   0  0  0  0  0  0
   -2.2820   -8.9560    1.3620 C   0  0  1  0  0  0
   -0.8600   -9.4000    1.1410 C   0  0  1  0  0  0
    0.1110   -8.2710    1.3610 C   0  0  2  0  0  0
   -0.3190   -6.9710    0.6680 C   0  0  2  0  0  0
   -1.7690   -6.6680    0.9560 C   0  0  1  0  0  0
   -2.3000   -5.4840    0.1980 C   0  0  0  0  0  0
   -0.5360  -10.4400    2.0540 O   0  0  0  0  0  0
   -0.1090   -7.1380   -0.7080 O   0  0  0  0  0  0
   -2.5880   -7.7960    0.5840 O   0  0  0  0  0  0
   -3.6860   -5.3160    0.4510 O   0  0  0  0  0  0
   -6.9250  -11.3630    1.2440 C   0  0  2  0  0  0
   -6.7210  -10.4140    0.0340 C   0  0  1  0  0  0
   -5.1990  -10.3290   -0.1730 C   0  0  2  0  0  0
   -4.4900   -9.8840    1.1130 C   0  0  1  0  0  0
   -4.8440  -10.8490    2.2350 C   0  0  1  0  0  0
   -4.2030  -10.4790    3.5600 C   0  0  0  0  0  0
   -8.4650  -10.3970   -1.6860 C   0  0  0  0  0  0
   -9.0160  -11.0320   -2.9560 C   0  0  0  0  0  0
   -7.3870  -10.9760   -1.1430 N   0  0  0  0  0  0
   -8.2690  -11.4640    1.5530 O   0  0  0  0  0  0
   -4.8580   -9.4470   -1.2430 O   0  0  0  0  0  0
   -3.0990   -9.9760    0.9050 O   0  0  0  0  0  0
   -6.2610  -10.8290    2.3950 O   0  0  0  0  0  0
   -4.5500   -9.1600    3.9020 O   0  0  0  0  0  0
   -9.0280   -9.3990   -1.2220 O   0  0  0  0  0  0
    1.6654   -9.1649    0.0711 H   0  0  0  0  0  0
    8.7897  -10.7737   -1.9136 H   0  0  0  0  0  0
    8.0384   -9.1718   -2.2236 H   0  0  0  0  0  0
    7.1744  -10.6750   -2.6932 H   0  0  0  0  0  0
   -2.4988   -8.7356    2.4177 H   0  0  0  0  0  0
   -0.7644   -9.8014    0.1213 H   0  0  0  0  0  0
    0.1483   -8.1480    2.4535 H   0  0  0  0  0  0
    0.2863   -6.1012    0.9632 H   0  0  0  0  0  0
   -1.8452   -6.4797    2.0371 H   0  0  0  0  0  0
   -1.7654   -4.5762    0.5145 H   0  0  0  0  0  0
   -2.1491   -5.6412   -0.8802 H   0  0  0  0  0  0
   -1.1268  -11.3679    2.0629 H   0  0  0  0  0  0
    0.8984   -7.3650   -1.0871 H   0  0  0  0  0  0
   -4.2364   -4.4921   -0.0267 H   0  0  0  0  0  0
   -6.5719  -12.3882    1.0586 H   0  0  0  0  0  0
   -7.1756   -9.4197    0.1553 H   0  0  0  0  0  0
   -4.8266  -11.3088   -0.5067 H   0  0  0  0  0  0
   -4.7181   -8.8395    1.3717 H   0  0  0  0  0  0
   -4.5271  -11.8665    1.9624 H   0  0  0  0  0  0
   -4.5585  -11.1645    4.3434 H   0  0  0  0  0  0
   -3.1093  -10.5575    3.4728 H   0  0  0  0  0  0
   -8.4007  -11.9024   -3.2274 H   0  0  0  0  0  0
   -8.9921  -10.2967   -3.7738 H   0  0  0  0  0  0
  -10.0532  -11.3555   -2.7840 H   0  0  0  0  0  0
   -7.0031  -11.8978   -1.6044 H   0  0  0  0  0  0
   -8.9770  -11.8546    0.8072 H   0  0  0  0  0  0
   -5.2763   -9.6126   -2.2468 H   0  0  0  0  0  0
   -4.1743   -8.7171    4.8362 H   0  0  0  0  0  0
  1  2  2  0  0  0
  1  3  1  0  0  0
  1  4  1  0  0  0
  3 18  1  0  0  0
  3 41  1  0  0  0
  4  5  2  0  0  0
  4  6  1  0  0  0
  5  7  1  0  0  0
  5  9  1  0  0  0
  6  8  1  0  0  0
  6 10  2  0  0  0
  9 11  2  0  0  0
  9 12  1  0  0  0
 10 11  1  0  0  0
 10 13  1  0  0  0
 11 14  1  0  0  0
 14 15  1  0  0  0
 15 42  1  0  0  0
 15 43  1  0  0  0
 15 44  1  0  0  0
 16 17  1  0  0  0
 16 24  1  0  0  0
 16 37  1  0  0  0
 16 45  1  0  0  0
 17 18  1  0  0  0
 17 22  1  0  0  0
 17 46  1  0  0  0
 18 19  1  0  0  0
 18 47  1  0  0  0
 19 20  1  0  0  0
 19 23  1  0  0  0
 19 48  1  0  0  0
 20 21  1  0  0  0
 20 24  1  0  0  0
 20 49  1  0  0  0
 21 25  1  0  0  0
 21 50  1  0  0  0
 21 51  1  0  0  0
 22 52  1  0  0  0
 23 53  1  0  0  0
 25 54  1  0  0  0
 26 27  1  0  0  0
 26 35  1  0  0  0
 26 38  1  0  0  0
 26 55  1  0  0  0
 27 28  1  0  0  0
 27 34  1  0  0  0
 27 56  1  0  0  0
 28 29  1  0  0  0
 28 36  1  0  0  0
 28 57  1  0  0  0
 29 30  1  0  0  0
 29 37  1  0  0  0
 29 58  1  0  0  0
 30 31  1  0  0  0
 30 38  1  0  0  0
 30 59  1  0  0  0
 31 39  1  0  0  0
 31 60  1  0  0  0
 31 61  1  0  0  0
 32 33  1  0  0  0
 32 34  1  0  0  0
 32 40  2  0  0  0
 33 62  1  0  0  0
 33 63  1  0  0  0
 33 64  1  0  0  0
 34 65  1  0  0  0
 35 66  1  0  0  0
 36 67  1  0  0  0
 39 68  1  0  0  0
M  END
> <s_m_source_file>
../1kjr_ligand.sdf

> <i_m_source_file_index>
1

> <s_epik_input>
RmMxYyhGKWMoT1tDSDNdKWMoRiljKEYpYzFDKD1PKVtOSF1bQ0BASF0oW0NAQEhdKFtPSF0pW0NASF0oTzIpW0NIMl1bT0hdKVtDQEBIXShbT0hdKVtDQEBIXTJPW0NASF0oW0NASF0oTzMpW0NIMl1bT0hdKVtDQEhdKFtPSF0pW0NASF0oW0NAQEhdM1tPSF0pW05IXUMoPU8pW0NIM10=

> <s_epik_cmdline>
J2VwaWtfYXBwJywgJy1pbWFlJywgJ2xpZ2FuZF9wcm8ubWFlJywgJy1vbWFlJywgJ2xpZ2FuZF9wcmVwLm1hZScsICctbXMnLCAnMScsICctcGgnLCAnNycsICctcGh0JywgJzAuNScsICctbnQn

> <r_lp_tautomer_probability>
1

> <r_epik_Ionization_Penalty>
  0.0000

> <r_epik_Ionization_Penalty_Charging>
  0.0000

> <r_epik_Ionization_Penalty_Neutral>
  0.0000

> <r_epik_State_Penalty>
 -0.0000

> <r_epik_Charging_Adjusted_Penalty>
0

> <i_epik_Tot_Q>
0

> <i_epik_Tot_abs_Q>
0

> <s_epik_Chemistry_Notes>
This compound contains an acetal/aminal-like group ( X-CH(R)-Y where X, Y are N, S, or O) that may be acid/base labile, releasing an aldehyde.

$$$$
