1kkq_ligand
                    3D
 Schrodinger Suite 2020-3.
 81 84  0  0  1  0            999 V2000
   73.3010   29.3380   26.3950 N   0  0  0  0  0  0
   72.7480   29.0630   27.7190 C   0  0  1  0  0  0
   73.8590   28.9180   28.7580 C   0  0  0  0  0  0
   75.1810   28.3010   28.3640 C   0  0  0  0  0  0
   76.1160   29.0330   27.7400 C   0  0  0  0  0  0
   75.4560   27.0130   28.6190 C   0  0  0  0  0  0
   77.2910   28.4990   27.3750 C   0  0  0  0  0  0
   76.6310   26.4790   28.2550 C   0  0  0  0  0  0
   77.5640   27.2100   27.6250 C   0  0  0  0  0  0
   78.7660   26.6740   27.2410 O   0  0  0  0  0  0
   72.9910   28.7860   25.1550 C   0  0  0  0  0  0
   73.6520   29.1940   24.0740 C   0  0  0  0  0  0
   71.9440   27.7310   24.9480 C   0  0  0  0  0  0
   75.3750   30.5410   22.7220 C   0  0  0  0  0  0
   74.7370   30.7140   21.5550 C   0  0  0  0  0  0
   75.4150   31.0310   20.4420 C   0  0  0  0  0  0
   76.7480   31.1860   20.4490 C   0  0  0  0  0  0
   77.5390   31.5450   19.2120 C   0  0  0  0  0  0
   76.7870   31.5670   18.0750 F   0  0  0  0  0  0
   78.0850   32.7870   19.3410 F   0  0  0  0  0  0
   78.5640   30.6760   18.9850 F   0  0  0  0  0  0
   77.3830   31.0100   21.6170 C   0  0  0  0  0  0
   76.7070   30.6930   22.7320 C   0  0  0  0  0  0
   74.7450   30.2120   23.9300 C   0  0  0  0  0  0
   75.1210   30.8060   24.9390 O   0  0  0  0  0  0
   80.4760   25.6080   21.7450 O   0  0  0  0  0  0
   80.3680   24.2810   22.0700 C   0  0  0  0  0  0
   80.2490   24.1640   23.4410 N   0  0  0  0  0  0
   80.2860   25.4400   23.9660 C   0  0  0  0  0  0
   80.4280   26.3320   22.9070 C   0  0  0  0  0  0
   80.5220   27.8390   22.9190 C   0  0  0  0  0  0
   80.3820   23.3000   21.1560 C   0  0  0  0  0  0
   80.2790   22.0010   21.4770 C   0  0  0  0  0  0
   80.2990   21.0430   20.5370 C   0  0  0  0  0  0
   80.4240   21.3730   19.2440 C   0  0  0  0  0  0
   80.5270   22.6660   18.9030 C   0  0  0  0  0  0
   80.5060   23.6090   19.8560 C   0  0  0  0  0  0
   78.7840   26.0100   25.9790 C   0  0  0  0  0  0
   80.1870   25.7310   25.4450 C   0  0  0  0  0  0
   71.7930   30.1840   28.1210 C   0  0  0  0  0  0
   70.3870   29.8840   27.8630 N   0  0  0  0  0  0
   69.6470   30.4980   26.9570 C   0  0  0  0  0  0
   70.0640   31.3960   26.2270 O   0  0  0  0  0  0
   68.2010   30.0440   26.8410 C   0  0  0  0  0  0
   67.9990   28.8270   25.9410 C   0  0  0  0  0  0
   72.2074   28.1092   27.6298 H   0  0  0  0  0  0
   74.1319   29.9112   29.1440 H   0  0  0  0  0  0
   73.5058   28.2869   29.5868 H   0  0  0  0  0  0
   75.9169   30.0829   27.5253 H   0  0  0  0  0  0
   74.7167   26.3941   29.1274 H   0  0  0  0  0  0
   78.0316   29.1191   26.8700 H   0  0  0  0  0  0
   76.8324   25.4306   28.4751 H   0  0  0  0  0  0
   74.1719   28.3388   23.6176 H   0  0  0  0  0  0
   71.4761   27.4846   25.9125 H   0  0  0  0  0  0
   72.4109   26.8289   24.5259 H   0  0  0  0  0  0
   71.1776   28.1062   24.2539 H   0  0  0  0  0  0
   73.6544   30.5955   21.5106 H   0  0  0  0  0  0
   74.8694   31.1662   19.5081 H   0  0  0  0  0  0
   78.4659   31.1263   21.6614 H   0  0  0  0  0  0
   77.2525   30.5562   23.6657 H   0  0  0  0  0  0
   80.6287   28.2079   21.8882 H   0  0  0  0  0  0
   81.3963   28.1471   23.5111 H   0  0  0  0  0  0
   79.6094   28.2597   23.3664 H   0  0  0  0  0  0
   80.1768   21.7175   22.5245 H   0  0  0  0  0  0
   80.2135   19.9954   20.8256 H   0  0  0  0  0  0
   80.4418   20.5984   18.4774 H   0  0  0  0  0  0
   80.6274   22.9492   17.8552 H   0  0  0  0  0  0
   80.5921   24.6563   19.5666 H   0  0  0  0  0  0
   78.2712   25.0408   26.0673 H   0  0  0  0  0  0
   78.2690   26.6305   25.2308 H   0  0  0  0  0  0
   80.5650   24.8691   26.0144 H   0  0  0  0  0  0
   80.7878   26.6207   25.6847 H   0  0  0  0  0  0
   71.8916   30.3808   29.1988 H   0  0  0  0  0  0
   72.0402   31.0959   27.5577 H   0  0  0  0  0  0
   69.8765   29.1006   28.4423 H   0  0  0  0  0  0
   67.8198   29.7761   27.8374 H   0  0  0  0  0  0
   67.5929   30.8598   26.4229 H   0  0  0  0  0  0
   66.9309   28.5657   25.9120 H   0  0  0  0  0  0
   68.5737   27.9775   26.3386 H   0  0  0  0  0  0
   68.3469   29.0612   24.9241 H   0  0  0  0  0  0
   72.9426   29.6208   23.3497 H   0  0  0  0  0  0
  1  2  1  0  0  0
  1 11  2  0  0  0
  2  3  1  0  0  0
  2 40  1  0  0  0
  2 46  1  0  0  0
  3  4  1  0  0  0
  3 47  1  0  0  0
  3 48  1  0  0  0
  4  5  2  0  0  0
  4  6  1  0  0  0
  5  7  1  0  0  0
  5 49  1  0  0  0
  6  8  2  0  0  0
  6 50  1  0  0  0
  7  9  2  0  0  0
  7 51  1  0  0  0
  8  9  1  0  0  0
  8 52  1  0  0  0
  9 10  1  0  0  0
 10 38  1  0  0  0
 11 12  1  0  0  0
 11 13  1  0  0  0
 12 24  1  0  0  0
 12 53  1  0  0  0
 12 81  1  0  0  0
 13 54  1  0  0  0
 13 55  1  0  0  0
 13 56  1  0  0  0
 14 15  2  0  0  0
 14 23  1  0  0  0
 14 24  1  0  0  0
 15 16  1  0  0  0
 15 57  1  0  0  0
 16 17  2  0  0  0
 16 58  1  0  0  0
 17 18  1  0  0  0
 17 22  1  0  0  0
 18 19  1  0  0  0
 18 20  1  0  0  0
 18 21  1  0  0  0
 22 23  2  0  0  0
 22 59  1  0  0  0
 23 60  1  0  0  0
 24 25  2  0  0  0
 26 27  1  0  0  0
 26 30  1  0  0  0
 27 28  2  0  0  0
 27 32  1  0  0  0
 28 29  1  0  0  0
 29 30  2  0  0  0
 29 39  1  0  0  0
 30 31  1  0  0  0
 31 61  1  0  0  0
 31 62  1  0  0  0
 31 63  1  0  0  0
 32 33  2  0  0  0
 32 37  1  0  0  0
 33 34  1  0  0  0
 33 64  1  0  0  0
 34 35  2  0  0  0
 34 65  1  0  0  0
 35 36  1  0  0  0
 35 66  1  0  0  0
 36 37  2  0  0  0
 36 67  1  0  0  0
 37 68  1  0  0  0
 38 39  1  0  0  0
 38 69  1  0  0  0
 38 70  1  0  0  0
 39 71  1  0  0  0
 39 72  1  0  0  0
 40 41  1  0  0  0
 40 73  1  0  0  0
 40 74  1  0  0  0
 41 42  1  0  0  0
 41 75  1  0  0  0
 42 43  2  0  0  0
 42 44  1  0  0  0
 44 45  1  0  0  0
 44 76  1  0  0  0
 44 77  1  0  0  0
 45 78  1  0  0  0
 45 79  1  0  0  0
 45 80  1  0  0  0
M  END
> <s_m_source_file>
../1kkq_ligand.sdf

> <i_m_source_file_index>
1

> <s_epik_input>
RkMoRikoRiljKFtjSF1bY0hdMSlbY0hdW2NIXWMxQyg9TykvW0NIXT1DKFtDSDNdKVxbTkhdW0NASF0oW0NIMl1bTkhdQyg9TylbQ0gyXVtDSDNdKVtDSDJdYzJbY0hdW2NIXWMoW2NIXVtjSF0yKU9bQ0gyXVtDSDJdYyhuMyljKFtDSDNdKW9jMy1jNFtjSF1bY0hdW2NIXVtjSF1bY0hdNA==

> <s_epik_cmdline>
J2VwaWtfYXBwJywgJy1pbWFlJywgJ2xpZ2FuZF9wcm8ubWFlJywgJy1vbWFlJywgJ2xpZ2FuZF9wcmVwLm1hZScsICctbXMnLCAnMScsICctcGgnLCAnNycsICctcGh0JywgJzAuNScsICctbnQn

> <r_lp_tautomer_probability>
1

> <r_epik_Ionization_Penalty>
  0.0032

> <r_epik_Ionization_Penalty_Charging>
  0.0000

> <r_epik_Ionization_Penalty_Neutral>
  0.0032

> <r_epik_State_Penalty>
 -0.0000

> <r_epik_Charging_Adjusted_Penalty>
0

> <i_epik_Tot_Q>
0

> <i_epik_Tot_abs_Q>
0

> <s_epik_Chemistry_Notes>
This compound has an imine and may undergo hydrolysis.

$$$$
