1kl3_ligand
                    3D
 Schrodinger Suite 2020-3.
 96 98  0  0  1  0            999 V2000
   11.7480   -0.0020   34.0530 N   0  3  0  0  0  0
   11.6390    1.4920   34.1360 C   0  0  2  0  0  0
   12.7950    2.1520   33.3880 C   0  0  0  0  0  0
   13.8410    2.4190   33.9460 O   0  0  0  0  0  0
   11.6190    1.9930   35.5860 C   0  0  0  0  0  0
   12.8820    1.9400   36.2520 O   0  0  0  0  0  0
   12.6650    2.4310   32.1060 N   0  0  0  0  0  0
   13.7990    3.0940   31.4670 C   0  0  2  0  0  0
   13.6270    4.6080   31.5290 C   0  0  0  0  0  0
   12.5060    5.1180   31.4120 O   0  0  0  0  0  0
   13.8020    2.5630   30.0380 C   0  0  0  0  0  0
   15.0120    2.9680   29.2720 C   0  0  0  0  0  0
   15.1420    4.2430   28.7610 N   0  0  0  0  0  0
   16.1380    2.2850   28.9460 C   0  0  0  0  0  0
   16.3240    4.3250   28.1710 C   0  0  0  0  0  0
   16.9470    3.1540   28.2630 N   0  0  0  0  0  0
   14.7300    5.3410   31.6740 N   0  0  0  0  0  0
   14.6360    6.7940   31.7520 C   0  0  2  0  0  0
   13.9090    7.3890   30.5630 C   0  0  0  0  0  0
   13.1600    8.3510   30.7290 O   0  0  0  0  0  0
   16.0970    7.2570   31.7370 C   0  0  0  0  0  0
   16.9330    6.0750   31.8530 C   0  0  0  0  0  0
   16.1280    4.8800   31.7040 C   0  0  0  0  0  0
   14.0330    6.8510   29.3530 N   0  0  0  0  0  0
   13.3680    7.5680   28.2550 C   0  0  2  0  0  0
   11.8610    7.7470   28.4710 C   0  0  0  0  0  0
   11.2480    8.7040   27.9820 O   0  0  0  0  0  0
   13.5160    6.7470   26.9660 C   0  0  0  0  0  0
   13.1820    7.4450   25.7360 C   0  0  0  0  0  0
   13.5500    6.6790   24.4470 C   0  0  0  0  0  0
   12.9460    6.8250   23.3770 O   0  0  0  0  0  0
   14.5750    5.9160   24.5660 N   0  0  0  0  0  0
   11.2610    6.8700   29.2630 N   0  0  0  0  0  0
    9.8070    6.8630   29.3740 C   0  0  2  0  0  0
    9.2910    7.1030   30.7810 C   0  0  0  0  0  0
    8.1300    6.8160   31.0450 O   0  0  0  0  0  0
    9.2740    5.4980   28.9930 C   0  0  0  0  0  0
    9.8920    4.9660   27.7160 C   0  0  0  0  0  0
    9.6370    5.6230   26.5240 C   0  0  0  0  0  0
   10.7200    3.8790   27.7240 C   0  0  0  0  0  0
   10.1930    5.1940   25.3240 C   0  0  0  0  0  0
   11.2940    3.4420   26.4980 C   0  0  0  0  0  0
   11.0210    4.1220   25.3210 C   0  0  0  0  0  0
   10.1330    7.6580   31.6270 N   0  0  0  0  0  0
    9.7960    7.7870   33.0470 C   0  0  2  0  0  0
    8.8910    8.9960   33.2880 C   0  0  0  0  0  0
    8.7860    9.8140   32.3740 O   0  0  0  0  0  0
   11.0930    7.8780   33.8350 C   0  0  0  0  0  0
   11.7620    9.2360   33.8850 C   0  0  0  0  0  0
   13.1030    9.1090   34.5930 C   0  0  0  0  0  0
   13.9250   10.0500   34.4680 O   0  0  0  0  0  0
   13.3350    8.0380   35.2330 O   0  5  0  0  0  0
   11.7584   -0.3108   32.9973 H   0  0  0  0  0  0
   10.8871   -0.4612   34.5609 H   0  0  0  0  0  0
   12.6784   -0.3294   34.5400 H   0  0  0  0  0  0
   10.6811    1.7482   33.6598 H   0  0  0  0  0  0
   11.2919    3.0430   35.6066 H   0  0  0  0  0  0
   10.9218    1.3801   36.1761 H   0  0  0  0  0  0
   12.9683    2.2780   37.2952 H   0  0  0  0  0  0
   11.7658    2.1917   31.5193 H   0  0  0  0  0  0
   14.7379    2.8634   31.9916 H   0  0  0  0  0  0
   13.0295    1.9435   29.5589 H   0  0  0  0  0  0
   16.4686    1.2513   29.1253 H   0  0  0  0  0  0
   16.7246    5.2146   27.6850 H   0  0  0  0  0  0
   14.0582    7.0696   32.6466 H   0  0  0  0  0  0
   16.3052    7.7830   30.7936 H   0  0  0  0  0  0
   16.2748    7.9371   32.5830 H   0  0  0  0  0  0
   17.7030    6.0920   31.0676 H   0  0  0  0  0  0
   17.4169    6.0636   32.8408 H   0  0  0  0  0  0
   16.2698    4.1944   32.5524 H   0  0  0  0  0  0
   16.3614    4.3555   30.7657 H   0  0  0  0  0  0
   14.5917    5.9261   29.1472 H   0  0  0  0  0  0
   13.8682    8.5475   28.2370 H   0  0  0  0  0  0
   14.5595    6.4155   26.8602 H   0  0  0  0  0  0
   12.8553    5.8688   27.0127 H   0  0  0  0  0  0
   12.0980    7.6285   25.7013 H   0  0  0  0  0  0
   13.7177    8.4052   25.7022 H   0  0  0  0  0  0
   15.0784    5.8190   25.5392 H   0  0  0  0  0  0
   14.9501    5.3590   23.6948 H   0  0  0  0  0  0
   11.8599    6.1473   29.8367 H   0  0  0  0  0  0
    9.5101    7.6827   28.7032 H   0  0  0  0  0  0
    9.4931    4.7811   29.7980 H   0  0  0  0  0  0
    8.1861    5.5583   28.8417 H   0  0  0  0  0  0
    8.9853    6.4967   26.5265 H   0  0  0  0  0  0
   10.9372    3.3552   28.6549 H   0  0  0  0  0  0
    9.9647    5.7154   24.3944 H   0  0  0  0  0  0
   11.9495    2.5712   26.4839 H   0  0  0  0  0  0
   11.4757    3.7918   24.3870 H   0  0  0  0  0  0
   11.1003    8.0273   31.2555 H   0  0  0  0  0  0
    9.2367    6.8886   33.3470 H   0  0  0  0  0  0
    8.3454    9.1513   34.2305 H   0  0  0  0  0  0
   10.9063    7.5972   34.8821 H   0  0  0  0  0  0
   11.8358    7.1939   33.3988 H   0  0  0  0  0  0
   11.9194    9.6051   32.8608 H   0  0  0  0  0  0
   11.1205    9.9408   34.4342 H   0  0  0  0  0  0
   14.3290    4.9727   28.8898 H   0  0  0  0  0  0
  1  2  1  0  0  0
  1 53  1  0  0  0
  1 54  1  0  0  0
  1 55  1  0  0  0
  2  3  1  0  0  0
  2  5  1  0  0  0
  2 56  1  0  0  0
  3  4  2  0  0  0
  3  7  1  0  0  0
  5  6  1  0  0  0
  5 57  1  0  0  0
  5 58  1  0  0  0
  6 59  1  0  0  0
  7  8  1  0  0  0
  7 60  1  0  0  0
  8  9  1  0  0  0
  8 11  1  0  0  0
  8 61  1  0  0  0
  9 10  2  0  0  0
  9 17  1  0  0  0
 11 12  2  0  0  0
 11 62  1  0  0  0
 12 13  1  0  0  0
 12 14  1  0  0  0
 13 15  1  0  0  0
 13 96  1  0  0  0
 14 16  2  0  0  0
 14 63  1  0  0  0
 15 16  1  0  0  0
 15 64  1  0  0  0
 17 18  1  0  0  0
 17 23  1  0  0  0
 18 19  1  0  0  0
 18 21  1  0  0  0
 18 65  1  0  0  0
 19 20  2  0  0  0
 19 24  1  0  0  0
 21 22  1  0  0  0
 21 66  1  0  0  0
 21 67  1  0  0  0
 22 23  1  0  0  0
 22 68  1  0  0  0
 22 69  1  0  0  0
 23 70  1  0  0  0
 23 71  1  0  0  0
 24 25  1  0  0  0
 24 72  1  0  0  0
 25 26  1  0  0  0
 25 28  1  0  0  0
 25 73  1  0  0  0
 26 27  2  0  0  0
 26 33  1  0  0  0
 28 29  1  0  0  0
 28 74  1  0  0  0
 28 75  1  0  0  0
 29 30  1  0  0  0
 29 76  1  0  0  0
 29 77  1  0  0  0
 30 31  2  0  0  0
 30 32  1  0  0  0
 32 78  1  0  0  0
 32 79  1  0  0  0
 33 34  1  0  0  0
 33 80  1  0  0  0
 34 35  1  0  0  0
 34 37  1  0  0  0
 34 81  1  0  0  0
 35 36  2  0  0  0
 35 44  1  0  0  0
 37 38  1  0  0  0
 37 82  1  0  0  0
 37 83  1  0  0  0
 38 39  2  0  0  0
 38 40  1  0  0  0
 39 41  1  0  0  0
 39 84  1  0  0  0
 40 42  2  0  0  0
 40 85  1  0  0  0
 41 43  2  0  0  0
 41 86  1  0  0  0
 42 43  1  0  0  0
 42 87  1  0  0  0
 43 88  1  0  0  0
 44 45  1  0  0  0
 44 89  1  0  0  0
 45 46  1  0  0  0
 45 48  1  0  0  0
 45 90  1  0  0  0
 46 47  2  0  0  0
 46 91  1  0  0  0
 48 49  1  0  0  0
 48 92  1  0  0  0
 48 93  1  0  0  0
 49 50  1  0  0  0
 49 94  1  0  0  0
 49 95  1  0  0  0
 50 51  2  0  0  0
 50 52  1  0  0  0
M  CHG  2   1   1  52  -1
M  END
> <s_m_source_file>
../1kl3_ligand.sdf

> <i_m_source_file_index>
1

> <s_epik_input>
W0NIXTE9TltDSDJdTj1DMVtDSDJdW0NASF0oW05IXUMoPU8pW0NAQEhdKFtOSDMrXSlbQ0gyXVtPSF0pQyg9TylOMltDQEBIXShbQ0gyXVtDSDJdW0NIMl0yKUMoPU8pW05IXVtDQEBIXShbQ0gyXVtDSDJdQyg9TylbTkgyXSlDKD1PKVtOSF1bQ0BIXShDKD1PKVtOSF1bQ0BIXShbQ0hdPU8pW0NIMl1bQ0gyXUMoPU8pW09IXSlbQ0gyXWMzW2NIXVtjSF1bY0hdW2NIXVtjSF0z

> <s_epik_cmdline>
J2VwaWtfYXBwJywgJy1pbWFlJywgJ2xpZ2FuZF9wcm8ubWFlJywgJy1vbWFlJywgJ2xpZ2FuZF9wcmVwLm1hZScsICctbXMnLCAnMScsICctcGgnLCAnNycsICctcGh0JywgJzAuNScsICctbnQn

> <r_epik_Ionization_Penalty>
  0.1932

> <r_epik_Ionization_Penalty_Charging>
  0.1931

> <r_epik_Ionization_Penalty_Neutral>
  0.0001

> <r_epik_State_Penalty>
  0.1812

> <r_epik_Charging_Adjusted_Penalty>
0.374331435136964

> <i_epik_Tot_Q>
0

> <i_epik_Tot_abs_Q>
2

> <s_epik_Chemistry_Notes>
This compound has an imine and may undergo hydrolysis.

$$$$
