1kl5_ligand
                    3D
 Schrodinger Suite 2020-3.
 81 83  0  0  1  0            999 V2000
   11.5330    0.3250   34.0670 N   0  3  0  0  0  0
   11.5370    1.8240   34.1380 C   0  0  2  0  0  0
   12.7320    2.4260   33.3920 C   0  0  0  0  0  0
   13.8220    2.5500   33.9280 O   0  0  0  0  0  0
   11.6100    2.3360   35.5780 C   0  0  0  0  0  0
   12.9430    2.1940   36.0450 O   0  0  0  0  0  0
   12.5810    2.7670   32.1270 N   0  0  0  0  0  0
   13.6590    3.4450   31.4150 C   0  0  2  0  0  0
   13.5460    4.9750   31.4110 C   0  0  0  0  0  0
   12.4530    5.5460   31.2940 O   0  0  0  0  0  0
   13.5930    2.9100   30.0040 C   0  0  0  0  0  0
   14.7960    3.2450   29.1830 C   0  0  0  0  0  0
   14.9630    4.4830   28.6020 N   0  0  0  0  0  0
   15.8710    2.4960   28.8330 C   0  0  0  0  0  0
   16.1070    4.4870   27.9450 C   0  0  0  0  0  0
   16.6820    3.3000   28.0720 N   0  0  0  0  0  0
   14.6790    5.6720   31.5000 N   0  0  0  0  0  0
   14.6570    7.1400   31.5420 C   0  0  2  0  0  0
   14.0300    7.8020   30.3250 C   0  0  0  0  0  0
   13.5740    8.9220   30.4820 O   0  0  0  0  0  0
   16.1210    7.5520   31.5070 C   0  0  0  0  0  0
   16.8870    6.3370   31.6880 C   0  0  0  0  0  0
   16.0530    5.1360   31.5340 C   0  0  0  0  0  0
   14.0150    7.2070   29.1430 N   0  0  0  0  0  0
   13.3190    7.8620   28.0330 C   0  0  2  0  0  0
   11.8200    8.0350   28.3270 C   0  0  0  0  0  0
   11.1940    8.9550   27.7750 O   0  0  0  0  0  0
   13.4280    7.0220   26.7540 C   0  0  0  0  0  0
   12.9670    7.7140   25.4960 C   0  0  0  0  0  0
   13.3060    6.8750   24.2520 C   0  0  0  0  0  0
   12.6210    6.8810   23.2180 O   0  0  0  0  0  0
   14.3380    6.1310   24.3830 N   0  0  0  0  0  0
   11.2610    7.1800   29.1940 N   0  0  0  0  0  0
    9.8290    7.2140   29.5000 C   0  0  2  0  0  0
    9.5290    7.4700   30.9770 C   0  0  0  0  0  0
    8.4290    7.1090   31.3880 O   0  0  0  0  0  0
    9.1770    5.8920   29.0840 C   0  0  0  0  0  0
    9.6880    5.3960   27.7690 C   0  0  0  0  0  0
    9.4040    6.1200   26.6290 C   0  0  0  0  0  0
   10.4510    4.2450   27.6770 C   0  0  0  0  0  0
    9.8760    5.6900   25.4070 C   0  0  0  0  0  0
   10.9220    3.8150   26.4540 C   0  0  0  0  0  0
   10.6400    4.5350   25.3100 C   0  0  0  0  0  0
   11.4797    0.0079   33.0150 H   0  0  0  0  0  0
   10.6612   -0.0656   34.6123 H   0  0  0  0  0  0
   12.4552   -0.0660   34.5216 H   0  0  0  0  0  0
   10.5852    2.1139   33.6689 H   0  0  0  0  0  0
   11.3154    3.3955   35.6058 H   0  0  0  0  0  0
   10.9281    1.7491   36.2109 H   0  0  0  0  0  0
   13.2043    2.5079   37.0664 H   0  0  0  0  0  0
   11.6380    2.5385   31.6087 H   0  0  0  0  0  0
   14.5966    3.2085   31.9394 H   0  0  0  0  0  0
   12.7716    2.3260   29.5633 H   0  0  0  0  0  0
   16.1652    1.4565   29.0401 H   0  0  0  0  0  0
   16.5137    5.3308   27.3875 H   0  0  0  0  0  0
   14.0673    7.4105   32.4303 H   0  0  0  0  0  0
   16.3467    8.0214   30.5381 H   0  0  0  0  0  0
   16.3195    8.2693   32.3170 H   0  0  0  0  0  0
   17.6919    6.2961   30.9394 H   0  0  0  0  0  0
   17.3241    6.3261   32.6974 H   0  0  0  0  0  0
   16.1556    4.4437   32.3827 H   0  0  0  0  0  0
   16.2607    4.5998   30.5963 H   0  0  0  0  0  0
   14.5125    6.2387   28.9854 H   0  0  0  0  0  0
   13.8285    8.8326   27.9412 H   0  0  0  0  0  0
   14.4780    6.7376   26.5905 H   0  0  0  0  0  0
   12.8144    6.1150   26.8576 H   0  0  0  0  0  0
   11.8777    7.8615   25.5368 H   0  0  0  0  0  0
   13.4663    8.6905   25.4106 H   0  0  0  0  0  0
   14.9187    6.1555   25.3169 H   0  0  0  0  0  0
   14.6449    5.4666   23.5618 H   0  0  0  0  0  0
   11.9101    6.4375   29.6813 H   0  0  0  0  0  0
    9.4566    8.0674   28.9143 H   0  0  0  0  0  0
   10.2417    7.9512   31.6630 H   0  0  0  0  0  0
    9.3882    5.1242   29.8429 H   0  0  0  0  0  0
    8.0894    6.0312   28.9961 H   0  0  0  0  0  0
    8.8077    7.0301   26.6945 H   0  0  0  0  0  0
   10.6812    3.6746   28.5769 H   0  0  0  0  0  0
    9.6470    6.2626   24.5082 H   0  0  0  0  0  0
   11.5182    2.9047   26.3904 H   0  0  0  0  0  0
   11.0129    4.2004   24.3420 H   0  0  0  0  0  0
   14.1971    5.2612   28.7357 H   0  0  0  0  0  0
  1  2  1  0  0  0
  1 44  1  0  0  0
  1 45  1  0  0  0
  1 46  1  0  0  0
  2  3  1  0  0  0
  2  5  1  0  0  0
  2 47  1  0  0  0
  3  4  2  0  0  0
  3  7  1  0  0  0
  5  6  1  0  0  0
  5 48  1  0  0  0
  5 49  1  0  0  0
  6 50  1  0  0  0
  7  8  1  0  0  0
  7 51  1  0  0  0
  8  9  1  0  0  0
  8 11  1  0  0  0
  8 52  1  0  0  0
  9 10  2  0  0  0
  9 17  1  0  0  0
 11 12  2  0  0  0
 11 53  1  0  0  0
 12 13  1  0  0  0
 12 14  1  0  0  0
 13 15  1  0  0  0
 13 81  1  0  0  0
 14 16  2  0  0  0
 14 54  1  0  0  0
 15 16  1  0  0  0
 15 55  1  0  0  0
 17 18  1  0  0  0
 17 23  1  0  0  0
 18 19  1  0  0  0
 18 21  1  0  0  0
 18 56  1  0  0  0
 19 20  2  0  0  0
 19 24  1  0  0  0
 21 22  1  0  0  0
 21 57  1  0  0  0
 21 58  1  0  0  0
 22 23  1  0  0  0
 22 59  1  0  0  0
 22 60  1  0  0  0
 23 61  1  0  0  0
 23 62  1  0  0  0
 24 25  1  0  0  0
 24 63  1  0  0  0
 25 26  1  0  0  0
 25 28  1  0  0  0
 25 64  1  0  0  0
 26 27  2  0  0  0
 26 33  1  0  0  0
 28 29  1  0  0  0
 28 65  1  0  0  0
 28 66  1  0  0  0
 29 30  1  0  0  0
 29 67  1  0  0  0
 29 68  1  0  0  0
 30 31  2  0  0  0
 30 32  1  0  0  0
 32 69  1  0  0  0
 32 70  1  0  0  0
 33 34  1  0  0  0
 33 71  1  0  0  0
 34 35  1  0  0  0
 34 37  1  0  0  0
 34 72  1  0  0  0
 35 36  2  0  0  0
 35 73  1  0  0  0
 37 38  1  0  0  0
 37 74  1  0  0  0
 37 75  1  0  0  0
 38 39  2  0  0  0
 38 40  1  0  0  0
 39 41  1  0  0  0
 39 76  1  0  0  0
 40 42  2  0  0  0
 40 77  1  0  0  0
 41 43  2  0  0  0
 41 78  1  0  0  0
 42 43  1  0  0  0
 42 79  1  0  0  0
 43 80  1  0  0  0
M  CHG  1   1   1
M  END
> <s_m_source_file>
../1kl5_ligand.sdf

> <i_m_source_file_index>
1

> <s_epik_input>
W0NIXTE9TltDSDJdTj1DMVtDSDJdW0NASF0oW05IXUMoPU8pW0NAQEhdKFtOSDMrXSlbQ0gyXVtPSF0pQyg9TylOMltDQEBIXShbQ0gyXVtDSDJdW0NIMl0yKUMoPU8pW05IXVtDQEBIXShbQ0gyXVtDSDJdQyg9TylbTkgyXSlDKD1PKVtOSF1bQ0BIXShbQ0hdPU8pW0NIMl1jM1tjSF1bY0hdW2NIXVtjSF1bY0hdMw==

> <s_epik_cmdline>
J2VwaWtfYXBwJywgJy1pbWFlJywgJ2xpZ2FuZF9wcm8ubWFlJywgJy1vbWFlJywgJ2xpZ2FuZF9wcmVwLm1hZScsICctbXMnLCAnMScsICctcGgnLCAnNycsICctcGh0JywgJzAuNScsICctbnQn

> <r_epik_Ionization_Penalty>
  0.1926

> <r_epik_Ionization_Penalty_Charging>
  0.1916

> <r_epik_Ionization_Penalty_Neutral>
  0.0011

> <r_epik_State_Penalty>
  0.1812

> <r_epik_Charging_Adjusted_Penalty>
0.372810470690495

> <i_epik_Tot_Q>
1

> <i_epik_Tot_abs_Q>
1

> <s_epik_Chemistry_Notes>
This compound has an imine and may undergo hydrolysis.

$$$$
