1klg_ligand
                    3D
 Schrodinger Suite 2020-3.
219219  0  0  1  0            999 V2000
  123.5620   51.4380  -17.7730 N   0  3  0  0  0  0
  124.2760   52.5390  -18.4910 C   0  0  0  0  0  0
  125.7420   52.2350  -18.7720 C   0  0  0  0  0  0
  126.1860   51.0910  -18.6280 O   0  0  0  0  0  0
  126.4900   53.2650  -19.1740 N   0  0  0  0  0  0
  127.9230   53.1500  -19.4860 C   0  0  2  0  0  0
  128.7470   52.8300  -18.2310 C   0  0  0  0  0  0
  128.4480   53.3330  -17.1410 O   0  0  0  0  0  0
  128.4090   54.4480  -20.1420 C   0  0  0  0  0  0
  127.3310   55.5330  -20.2400 C   0  0  0  0  0  0
  127.7040   56.6630  -21.1930 C   0  0  0  0  0  0
  126.9000   57.6150  -21.3320 O   0  0  0  0  0  0
  128.7980   56.5970  -21.8030 O   0  0  0  0  0  0
  129.7900   52.0130  -18.3850 N   0  0  0  0  0  0
  130.5990   51.5950  -17.2390 C   0  0  2  0  0  0
  131.6810   52.5590  -16.7480 C   0  0  0  0  0  0
  132.5510   52.9940  -17.5050 O   0  0  0  0  0  0
  131.2450   50.2280  -17.5220 C   0  0  0  0  0  0
  131.7350   49.3940  -16.3270 C   0  0  0  0  0  0
  130.5450   48.7880  -15.6090 C   0  0  0  0  0  0
  132.6490   48.2750  -16.8030 C   0  0  0  0  0  0
  131.5990   52.8900  -15.4620 N   0  0  0  0  0  0
  132.5930   53.7420  -14.8320 C   0  0  2  0  0  0
  133.7350   52.8330  -14.4410 C   0  0  0  0  0  0
  133.5590   51.8440  -13.7230 O   0  0  0  0  0  0
  132.0680   54.4420  -13.5780 C   0  0  2  0  0  0
  131.0740   55.5410  -13.9800 C   0  0  0  0  0  0
  133.2330   55.0620  -12.8000 C   0  0  0  0  0  0
  131.6160   56.7300  -14.8240 C   0  0  0  0  0  0
  134.9200   53.1790  -14.9250 N   0  0  0  0  0  0
  136.0910   52.3640  -14.6550 C   0  0  0  0  0  0
  136.7140   52.6290  -13.2970 C   0  0  0  0  0  0
  136.6010   53.7120  -12.7160 O   0  0  0  0  0  0
  137.3570   51.4070  -12.5810 N   0  0  0  0  0  0
  137.9670   51.5830  -11.2950 C   0  0  2  0  0  0
  139.4890   51.6090  -11.4020 C   0  0  0  0  0  0
  140.0390   51.3970  -12.4760 O   0  0  0  0  0  0
  137.5620   50.4200  -10.3800 C   0  0  2  0  0  0
  137.4760   50.9190   -8.9530 C   0  0  0  0  0  0
  138.5550   49.2290  -10.5380 C   0  0  0  0  0  0
  137.1370   49.7940   -7.9540 C   0  0  0  0  0  0
  140.3130   51.9570  -10.6710 N   0  0  0  0  0  0
  141.7730   51.8630  -10.6670 C   0  0  2  0  0  0
  142.0550   50.9120   -9.5050 C   0  0  0  0  0  0
  141.5510   51.1140   -8.4040 O   0  0  0  0  0  0
  142.3860   53.2500  -10.4200 C   0  0  0  0  0  0
  143.5520   53.6340  -11.3410 C   0  0  0  0  0  0
  143.1650   53.3270  -12.7810 C   0  0  0  0  0  0
  143.9000   55.1180  -11.1880 C   0  0  0  0  0  0
  142.8340   49.8680   -9.7480 N   0  0  0  0  0  0
  143.1260   48.8910   -8.7020 C   0  0  2  0  0  0
  144.1030   49.3710   -7.6460 C   0  0  0  0  0  0
  145.1050   50.0050   -7.9600 O   0  0  0  0  0  0
  143.6520   47.5950   -9.3220 C   0  0  0  0  0  0
  142.6250   46.9190  -10.2270 C   0  0  0  0  0  0
  141.4700   46.7190   -9.8410 O   0  0  0  0  0  0
  143.0490   46.5530  -11.4290 N   0  0  0  0  0  0
  143.8020   49.0630   -6.3880 N   0  0  0  0  0  0
  144.6690   49.4580   -5.2770 C   0  0  2  0  0  0
  145.9990   48.7220   -5.3900 C   0  0  0  0  0  0
  146.0350   47.5440   -5.7560 O   0  0  0  0  0  0
  143.9980   49.1340   -3.9330 C   0  0  0  0  0  0
  147.0910   49.4110   -5.0800 N   0  0  0  0  0  0
  148.4170   48.8030   -5.1520 C   0  0  2  0  0  0
  148.8130   48.2470   -3.7890 C   0  0  0  0  0  0
  148.7030   48.9410   -2.7850 O   0  0  0  0  0  0
  149.4430   49.8380   -5.6040 C   0  0  0  0  0  0
  149.2710   47.0000   -3.7560 N   0  0  0  0  0  0
  149.6950   46.3740   -2.5070 C   0  0  2  0  0  0
  151.0400   46.9760   -2.0810 C   0  0  0  0  0  0
  151.9550   47.0570   -2.9040 O   0  0  0  0  0  0
  149.8580   44.8560   -2.7050 C   0  0  0  0  0  0
  148.6200   44.1280   -3.2470 C   0  0  0  0  0  0
  148.7880   42.6050   -3.2450 C   0  0  0  0  0  0
  149.1130   42.0490   -1.8440 C   0  0  0  0  0  0
  148.0850   42.3320   -0.7880 N   0  3  0  0  0  0
  151.1750   47.4080   -0.8220 N   0  0  0  0  0  0
  152.4570   47.9680   -0.3820 C   0  0  2  0  0  0
  153.3970   46.7890   -0.0980 C   0  0  0  0  0  0
  152.9370   45.6590    0.1000 O   0  0  0  0  0  0
  152.3320   48.8320    0.9130 C   0  0  0  0  0  0
  151.1220   49.7410    0.8320 C   0  0  0  0  0  0
  152.2650   47.9470    2.1400 C   0  0  0  0  0  0
  154.7180   47.0330   -0.0690 N   0  0  0  0  0  0
  155.6820   45.9560    0.1950 C   0  0  2  0  0  0
  155.4390   45.2450    1.5310 C   0  0  0  0  0  0
  155.1710   45.8860    2.5370 O   0  0  0  0  0  0
  157.0240   46.6790    0.1410 C   0  0  0  0  0  0
  156.6880   48.0730    0.5960 C   0  0  0  0  0  0
  155.3870   48.3460   -0.1310 C   0  0  0  0  0  0
  155.5490   43.9190    1.5180 N   0  0  0  0  0  0
  155.3270   43.0820    2.7000 C   0  0  2  0  0  0
  156.3170   43.3230    3.8320 C   0  0  0  0  0  0
  157.4040   43.8410    3.6090 O   0  0  0  0  0  0
  155.3560   41.6060    2.3130 C   0  0  0  0  0  0
  155.9560   42.9300    5.0550 N   0  0  0  0  0  0
  156.8340   43.1010    6.2400 C   0  0  2  0  0  0
  158.0470   42.1730    6.1820 C   0  0  0  0  0  0
  159.1560   42.6650    6.4580 O   0  0  0  0  0  0
  156.0790   42.7930    7.5520 C   0  0  0  0  0  0
  155.0210   43.8230    7.8900 C   0  0  0  0  0  0
  155.2390   45.0230    7.6260 O   0  0  0  0  0  0
  153.9740   43.4190    8.4330 O   0  0  0  0  0  0
  157.8550   40.9680    5.9010 O   0  0  0  0  0  0
  122.5142   51.7282  -17.6061 H   0  0  0  0  0  0
  124.0504   51.2547  -16.8046 H   0  0  0  0  0  0
  123.5964   50.5215  -18.3804 H   0  0  0  0  0  0
  123.7876   52.7223  -19.4594 H   0  0  0  0  0  0
  124.2416   53.4555  -17.8837 H   0  0  0  0  0  0
  125.9829   54.2366  -19.2678 H   0  0  0  0  0  0
  128.0177   52.3082  -20.1877 H   0  0  0  0  0  0
  129.2406   54.8661  -19.5557 H   0  0  0  0  0  0
  128.7522   54.2355  -21.1653 H   0  0  0  0  0  0
  126.3936   55.0867  -20.6034 H   0  0  0  0  0  0
  127.1653   55.9760  -19.2469 H   0  0  0  0  0  0
  129.0905   57.3994  -22.4962 H   0  0  0  0  0  0
  130.0383   51.6527  -19.3942 H   0  0  0  0  0  0
  129.8292   51.5824  -16.4533 H   0  0  0  0  0  0
  130.5224   49.5815  -18.0416 H   0  0  0  0  0  0
  132.1342   50.3665  -18.1546 H   0  0  0  0  0  0
  132.2919   50.0418  -15.6341 H   0  0  0  0  0  0
  129.8786   49.5912  -15.2613 H   0  0  0  0  0  0
  130.8963   48.2036  -14.7458 H   0  0  0  0  0  0
  129.9968   48.1296  -16.2990 H   0  0  0  0  0  0
  133.5155   48.7066  -17.3254 H   0  0  0  0  0  0
  132.0965   47.6177  -17.4905 H   0  0  0  0  0  0
  132.9959   47.6917  -15.9373 H   0  0  0  0  0  0
  130.7541   52.5028  -14.8736 H   0  0  0  0  0  0
  132.8666   54.5119  -15.5685 H   0  0  0  0  0  0
  131.5625   53.7019  -12.9403 H   0  0  0  0  0  0
  130.2663   55.1018  -14.5839 H   0  0  0  0  0  0
  130.6478   55.9988  -13.0751 H   0  0  0  0  0  0
  133.9436   54.2728  -12.5132 H   0  0  0  0  0  0
  132.8483   55.5555  -11.8953 H   0  0  0  0  0  0
  133.7435   55.8028  -13.4329 H   0  0  0  0  0  0
  130.7969   57.4333  -15.0350 H   0  0  0  0  0  0
  132.0264   56.3502  -15.7713 H   0  0  0  0  0  0
  132.4080   57.2472  -14.2625 H   0  0  0  0  0  0
  135.0126   54.0900  -15.5345 H   0  0  0  0  0  0
  135.8127   51.3003  -14.6873 H   0  0  0  0  0  0
  136.8607   52.5649  -15.4148 H   0  0  0  0  0  0
  137.3464   50.4137  -13.0534 H   0  0  0  0  0  0
  137.5918   52.5547  -10.9413 H   0  0  0  0  0  0
  136.5585   50.0598  -10.6508 H   0  0  0  0  0  0
  138.4421   51.3544   -8.6580 H   0  0  0  0  0  0
  136.6906   51.6856   -8.8793 H   0  0  0  0  0  0
  138.5780   48.9079  -11.5898 H   0  0  0  0  0  0
  138.2260   48.3910   -9.9059 H   0  0  0  0  0  0
  139.5617   49.5476  -10.2298 H   0  0  0  0  0  0
  137.0870   50.2097   -6.9368 H   0  0  0  0  0  0
  137.9169   49.0194   -7.9957 H   0  0  0  0  0  0
  136.1653   49.3506   -8.2170 H   0  0  0  0  0  0
  139.7913   52.4501   -9.8375 H   0  0  0  0  0  0
  142.1604   51.4996  -11.6303 H   0  0  0  0  0  0
  141.6148   54.0219  -10.5597 H   0  0  0  0  0  0
  142.7743   53.3015   -9.3921 H   0  0  0  0  0  0
  144.4427   53.0479  -11.0705 H   0  0  0  0  0  0
  142.9183   52.2591  -12.8746 H   0  0  0  0  0  0
  144.0070   53.5685  -13.4464 H   0  0  0  0  0  0
  142.2902   53.9315  -13.0624 H   0  0  0  0  0  0
  144.1771   55.3238  -10.1436 H   0  0  0  0  0  0
  143.0280   55.7294  -11.4633 H   0  0  0  0  0  0
  144.7448   55.3664  -11.8473 H   0  0  0  0  0  0
  143.2627   49.7423  -10.7532 H   0  0  0  0  0  0
  142.1504   48.7613   -8.2106 H   0  0  0  0  0  0
  144.5439   47.8138   -9.9275 H   0  0  0  0  0  0
  143.9161   46.8869   -8.5227 H   0  0  0  0  0  0
  144.0881   46.7522  -11.7299 H   0  0  0  0  0  0
  142.3616   46.0502  -12.1252 H   0  0  0  0  0  0
  142.8785   48.4988   -6.1912 H   0  0  0  0  0  0
  144.8242   50.5433   -5.3665 H   0  0  0  0  0  0
  143.0401   49.6701   -3.8628 H   0  0  0  0  0  0
  144.6557   49.4490   -3.1095 H   0  0  0  0  0  0
  143.8179   48.0510   -3.8648 H   0  0  0  0  0  0
  146.9829   50.4591   -4.7642 H   0  0  0  0  0  0
  148.3451   47.9889   -5.8882 H   0  0  0  0  0  0
  149.1532   50.2363   -6.5876 H   0  0  0  0  0  0
  150.4333   49.3648   -5.6773 H   0  0  0  0  0  0
  149.4821   50.6590   -4.8730 H   0  0  0  0  0  0
  149.3266   46.4376   -4.6997 H   0  0  0  0  0  0
  148.9090   46.5843   -1.7667 H   0  0  0  0  0  0
  150.6707   44.6648   -3.4212 H   0  0  0  0  0  0
  150.1001   44.3844   -1.7412 H   0  0  0  0  0  0
  147.7479   44.3735   -2.6232 H   0  0  0  0  0  0
  148.4313   44.4468   -4.2828 H   0  0  0  0  0  0
  147.8559   42.1329   -3.5890 H   0  0  0  0  0  0
  149.6109   42.3260   -3.9195 H   0  0  0  0  0  0
  149.2125   40.9548   -1.8978 H   0  0  0  0  0  0
  150.0569   42.4858   -1.4860 H   0  0  0  0  0  0
  148.4110   41.8952    0.1675 H   0  0  0  0  0  0
  147.1230   41.8886   -1.0846 H   0  0  0  0  0  0
  147.9675   43.4196   -0.6729 H   0  0  0  0  0  0
  150.3318   47.3451   -0.1184 H   0  0  0  0  0  0
  152.7971   48.6053   -1.2116 H   0  0  0  0  0  0
  153.2160   49.4766    1.0273 H   0  0  0  0  0  0
  151.1964   50.3713   -0.0665 H   0  0  0  0  0  0
  151.0832   50.3804    1.7263 H   0  0  0  0  0  0
  150.2082   49.1311    0.7774 H   0  0  0  0  0  0
  153.1534   47.2992    2.1738 H   0  0  0  0  0  0
  151.3590   47.3249    2.0943 H   0  0  0  0  0  0
  152.2340   48.5742    3.0432 H   0  0  0  0  0  0
  155.5828   45.1557   -0.5531 H   0  0  0  0  0  0
  157.7371   46.1790    0.8129 H   0  0  0  0  0  0
  157.4118   46.6558   -0.8881 H   0  0  0  0  0  0
  156.5777   48.0849    1.6904 H   0  0  0  0  0  0
  157.4954   48.7595    0.3014 H   0  0  0  0  0  0
  155.5336   48.6335   -1.1826 H   0  0  0  0  0  0
  154.7629   49.0996    0.3716 H   0  0  0  0  0  0
  155.8213   43.4548    0.5586 H   0  0  0  0  0  0
  154.3339   43.4005    3.0497 H   0  0  0  0  0  0
  154.6422   41.4272    1.4954 H   0  0  0  0  0  0
  155.0778   40.9933    3.1832 H   0  0  0  0  0  0
  156.3689   41.3337    1.9815 H   0  0  0  0  0  0
  154.9659   42.4639    5.1667 H   0  0  0  0  0  0
  157.1483   44.1539    6.1884 H   0  0  0  0  0  0
  155.5768   41.8181    7.4658 H   0  0  0  0  0  0
  156.7932   42.7649    8.3881 H   0  0  0  0  0  0
  154.4822   45.7849    7.8643 H   0  0  0  0  0  0
  158.7058   40.2726    5.8508 H   0  0  0  0  0  0
  1  2  1  0  0  0
  1105  1  0  0  0
  1106  1  0  0  0
  1107  1  0  0  0
  2  3  1  0  0  0
  2108  1  0  0  0
  2109  1  0  0  0
  3  4  2  0  0  0
  3  5  1  0  0  0
  5  6  1  0  0  0
  5110  1  0  0  0
  6  7  1  0  0  0
  6  9  1  0  0  0
  6111  1  0  0  0
  7  8  2  0  0  0
  7 14  1  0  0  0
  9 10  1  0  0  0
  9112  1  0  0  0
  9113  1  0  0  0
 10 11  1  0  0  0
 10114  1  0  0  0
 10115  1  0  0  0
 11 12  2  0  0  0
 11 13  1  0  0  0
 13116  1  0  0  0
 14 15  1  0  0  0
 14117  1  0  0  0
 15 16  1  0  0  0
 15 18  1  0  0  0
 15118  1  0  0  0
 16 17  2  0  0  0
 16 22  1  0  0  0
 18 19  1  0  0  0
 18119  1  0  0  0
 18120  1  0  0  0
 19 20  1  0  0  0
 19 21  1  0  0  0
 19121  1  0  0  0
 20122  1  0  0  0
 20123  1  0  0  0
 20124  1  0  0  0
 21125  1  0  0  0
 21126  1  0  0  0
 21127  1  0  0  0
 22 23  1  0  0  0
 22128  1  0  0  0
 23 24  1  0  0  0
 23 26  1  0  0  0
 23129  1  0  0  0
 24 25  2  0  0  0
 24 30  1  0  0  0
 26 27  1  0  0  0
 26 28  1  0  0  0
 26130  1  0  0  0
 27 29  1  0  0  0
 27131  1  0  0  0
 27132  1  0  0  0
 28133  1  0  0  0
 28134  1  0  0  0
 28135  1  0  0  0
 29136  1  0  0  0
 29137  1  0  0  0
 29138  1  0  0  0
 30 31  1  0  0  0
 30139  1  0  0  0
 31 32  1  0  0  0
 31140  1  0  0  0
 31141  1  0  0  0
 32 33  2  0  0  0
 32 34  1  0  0  0
 34 35  1  0  0  0
 34142  1  0  0  0
 35 36  1  0  0  0
 35 38  1  0  0  0
 35143  1  0  0  0
 36 37  2  0  0  0
 36 42  1  0  0  0
 38 39  1  0  0  0
 38 40  1  0  0  0
 38144  1  0  0  0
 39 41  1  0  0  0
 39145  1  0  0  0
 39146  1  0  0  0
 40147  1  0  0  0
 40148  1  0  0  0
 40149  1  0  0  0
 41150  1  0  0  0
 41151  1  0  0  0
 41152  1  0  0  0
 42 43  1  0  0  0
 42153  1  0  0  0
 43 44  1  0  0  0
 43 46  1  0  0  0
 43154  1  0  0  0
 44 45  2  0  0  0
 44 50  1  0  0  0
 46 47  1  0  0  0
 46155  1  0  0  0
 46156  1  0  0  0
 47 48  1  0  0  0
 47 49  1  0  0  0
 47157  1  0  0  0
 48158  1  0  0  0
 48159  1  0  0  0
 48160  1  0  0  0
 49161  1  0  0  0
 49162  1  0  0  0
 49163  1  0  0  0
 50 51  1  0  0  0
 50164  1  0  0  0
 51 52  1  0  0  0
 51 54  1  0  0  0
 51165  1  0  0  0
 52 53  2  0  0  0
 52 58  1  0  0  0
 54 55  1  0  0  0
 54166  1  0  0  0
 54167  1  0  0  0
 55 56  2  0  0  0
 55 57  1  0  0  0
 57168  1  0  0  0
 57169  1  0  0  0
 58 59  1  0  0  0
 58170  1  0  0  0
 59 60  1  0  0  0
 59 62  1  0  0  0
 59171  1  0  0  0
 60 61  2  0  0  0
 60 63  1  0  0  0
 62172  1  0  0  0
 62173  1  0  0  0
 62174  1  0  0  0
 63 64  1  0  0  0
 63175  1  0  0  0
 64 65  1  0  0  0
 64 67  1  0  0  0
 64176  1  0  0  0
 65 66  2  0  0  0
 65 68  1  0  0  0
 67177  1  0  0  0
 67178  1  0  0  0
 67179  1  0  0  0
 68 69  1  0  0  0
 68180  1  0  0  0
 69 70  1  0  0  0
 69 72  1  0  0  0
 69181  1  0  0  0
 70 71  2  0  0  0
 70 77  1  0  0  0
 72 73  1  0  0  0
 72182  1  0  0  0
 72183  1  0  0  0
 73 74  1  0  0  0
 73184  1  0  0  0
 73185  1  0  0  0
 74 75  1  0  0  0
 74186  1  0  0  0
 74187  1  0  0  0
 75 76  1  0  0  0
 75188  1  0  0  0
 75189  1  0  0  0
 76190  1  0  0  0
 76191  1  0  0  0
 76192  1  0  0  0
 77 78  1  0  0  0
 77193  1  0  0  0
 78 79  1  0  0  0
 78 81  1  0  0  0
 78194  1  0  0  0
 79 80  2  0  0  0
 79 84  1  0  0  0
 81 82  1  0  0  0
 81 83  1  0  0  0
 81195  1  0  0  0
 82196  1  0  0  0
 82197  1  0  0  0
 82198  1  0  0  0
 83199  1  0  0  0
 83200  1  0  0  0
 83201  1  0  0  0
 84 85  1  0  0  0
 84 90  1  0  0  0
 85 86  1  0  0  0
 85 88  1  0  0  0
 85202  1  0  0  0
 86 87  2  0  0  0
 86 91  1  0  0  0
 88 89  1  0  0  0
 88203  1  0  0  0
 88204  1  0  0  0
 89 90  1  0  0  0
 89205  1  0  0  0
 89206  1  0  0  0
 90207  1  0  0  0
 90208  1  0  0  0
 91 92  1  0  0  0
 91209  1  0  0  0
 92 93  1  0  0  0
 92 95  1  0  0  0
 92210  1  0  0  0
 93 94  2  0  0  0
 93 96  1  0  0  0
 95211  1  0  0  0
 95212  1  0  0  0
 95213  1  0  0  0
 96 97  1  0  0  0
 96214  1  0  0  0
 97 98  1  0  0  0
 97100  1  0  0  0
 97215  1  0  0  0
 98 99  2  0  0  0
 98104  1  0  0  0
100101  1  0  0  0
100216  1  0  0  0
100217  1  0  0  0
101102  1  0  0  0
101103  2  0  0  0
102218  1  0  0  0
104219  1  0  0  0
M  CHG  2   1   1  76   1
M  END
> <s_m_source_file>
../1klg_ligand.sdf

> <i_m_source_file_index>
1

> <s_epik_input>
W05IMytdW0NIMl1DKD1PKVtOSF1bQ0BASF0oW0NIMl1bQ0gyXUMoPU8pW09IXSlDKD1PKVtOSF1bQ0BASF0oW0NIMl1bQ0hdKFtDSDNdKVtDSDNdKUMoPU8pW05IXVtDQEBIXShbQ0BASF0oW0NIM10pW0NIMl1bQ0gzXSlDKD1PKVtOSF1bQ0gyXUMoPU8pW05IXVtDQEBIXShbQ0BASF0oW0NIM10pW0NIMl1bQ0gzXSlDKD1PKVtOSF1bQ0BASF0oW0NIMl1bQ0hdKFtDSDNdKVtDSDNdKUMoPU8pW05IXVtDQEBIXShbQ0gyXUMoPU8pW05IMl0pQyg9TylbTkhdW0NAQEhdKFtDSDNdKUMoPU8pW05IXVtDQEBIXShbQ0gzXSlDKD1PKVtOSF1bQ0BASF0oW0NIMl1bQ0gyXVtDSDJdW0NIMl1bTkgzK10pQyg9TylbTkhdW0NAQEhdKFtDSF0oW0NIM10pW0NIM10pQyg9TylOMVtDQEBIXShbQ0gyXVtDSDJdW0NIMl0xKUMoPU8pW05IXVtDQEBIXShbQ0gzXSlDKD1PKVtOSF1bQ0BIXShDKD1PKVtPSF0pW0NIMl1DKD1PKVtPSF0=

> <s_epik_cmdline>
J2VwaWtfYXBwJywgJy1pbWFlJywgJ2xpZ2FuZF9wcm8ubWFlJywgJy1vbWFlJywgJ2xpZ2FuZF9wcmVwLm1hZScsICctbXMnLCAnMScsICctcGgnLCAnNycsICctcGh0JywgJzAuNScsICctbnQn

> <s_epik_pKa_notes>
Molecule size exceeds maximum supported for generating protonation states

$$$$
