1klu_ligand
                    3D
 Schrodinger Suite 2020-3.
214214  0  0  1  0            999 V2000
  122.6220   51.1040  -18.2500 N   0  3  0  0  0  0
  123.4320   52.2200  -18.8150 C   0  0  0  0  0  0
  124.8710   51.8070  -19.0430 C   0  0  0  0  0  0
  125.2960   50.7110  -18.8090 O   0  0  0  0  0  0
  125.6380   52.7530  -19.5250 N   0  0  0  0  0  0
  127.0520   52.6360  -19.8320 C   0  0  2  0  0  0
  127.7800   52.3250  -18.5180 C   0  0  0  0  0  0
  127.3760   52.7600  -17.4550 O   0  0  0  0  0  0
  127.5110   53.9710  -20.4280 C   0  0  0  0  0  0
  126.3560   54.6750  -21.1660 C   0  0  0  0  0  0
  126.7830   55.8540  -21.9990 C   0  0  0  0  0  0
  125.9580   56.7700  -22.2310 O   0  0  0  0  0  0
  127.9510   55.8570  -22.4310 O   0  0  0  0  0  0
  128.7820   51.4610  -18.5530 N   0  0  0  0  0  0
  129.4560   51.0330  -17.3150 C   0  0  2  0  0  0
  130.5360   51.9540  -16.7460 C   0  0  0  0  0  0
  131.5150   52.2790  -17.4150 O   0  0  0  0  0  0
  130.0620   49.6340  -17.5280 C   0  0  0  0  0  0
  130.4850   48.8210  -16.3050 C   0  0  0  0  0  0
  129.2560   48.3900  -15.5040 C   0  0  0  0  0  0
  131.2360   47.5940  -16.7870 C   0  0  0  0  0  0
  130.3570   52.3760  -15.4990 N   0  0  0  0  0  0
  131.3470   53.2240  -14.8280 C   0  0  2  0  0  0
  132.4920   52.2830  -14.4460 C   0  0  0  0  0  0
  132.2570   51.2440  -13.8390 O   0  0  0  0  0  0
  130.7650   53.8730  -13.5500 C   0  0  2  0  0  0
  129.7440   54.9470  -13.9440 C   0  0  0  0  0  0
  131.8940   54.4910  -12.7100 C   0  0  0  0  0  0
  128.8630   55.4230  -12.8020 C   0  0  0  0  0  0
  133.7230   52.6390  -14.8040 N   0  0  0  0  0  0
  134.8490   51.7720  -14.5020 C   0  0  0  0  0  0
  135.5390   51.9960  -13.1710 C   0  0  0  0  0  0
  135.5450   53.1080  -12.6310 O   0  0  0  0  0  0
  136.1380   50.9290  -12.6540 N   0  0  0  0  0  0
  136.8610   50.9640  -11.3840 C   0  0  2  0  0  0
  138.3710   50.8140  -11.5830 C   0  0  0  0  0  0
  138.8210   50.0440  -12.4290 O   0  0  0  0  0  0
  136.4200   49.8030  -10.4570 C   0  0  2  0  0  0
  135.0580   49.9930  -10.0600 O   0  0  0  0  0  0
  137.2980   49.7340   -9.2110 C   0  0  0  0  0  0
  139.1480   51.5500  -10.7990 N   0  0  0  0  0  0
  140.5960   51.4250  -10.8630 C   0  0  2  0  0  0
  140.9110   50.4970   -9.6810 C   0  0  0  0  0  0
  140.4210   50.7180   -8.5730 O   0  0  0  0  0  0
  141.2480   52.8020  -10.6870 C   0  0  0  0  0  0
  142.6570   52.9980  -11.2600 C   0  0  0  0  0  0
  142.7970   52.2760  -12.5930 C   0  0  0  0  0  0
  142.9240   54.4940  -11.4370 C   0  0  0  0  0  0
  141.7000   49.4540   -9.9120 N   0  0  0  0  0  0
  142.0270   48.4990   -8.8490 C   0  0  2  0  0  0
  143.0500   48.9840   -7.8260 C   0  0  0  0  0  0
  144.0300   49.6350   -8.1730 O   0  0  0  0  0  0
  142.5300   47.1790   -9.4460 C   0  0  0  0  0  0
  141.5220   46.5320  -10.3850 C   0  0  0  0  0  0
  140.3140   46.5390  -10.1290 O   0  0  0  0  0  0
  142.0160   45.9540  -11.4720 N   0  0  0  0  0  0
  142.8220   48.6260   -6.5640 N   0  0  0  0  0  0
  143.7130   48.9940   -5.4690 C   0  0  2  0  0  0
  145.0510   48.2610   -5.5580 C   0  0  0  0  0  0
  145.0940   47.0590   -5.8170 O   0  0  0  0  0  0
  143.0470   48.6770   -4.1320 C   0  0  0  0  0  0
  146.1390   48.9900   -5.3410 N   0  0  0  0  0  0
  147.4780   48.3980   -5.3740 C   0  0  2  0  0  0
  147.8050   47.8370   -3.9910 C   0  0  0  0  0  0
  147.5070   48.4680   -2.9740 O   0  0  0  0  0  0
  148.5120   49.4620   -5.7640 C   0  0  0  0  0  0
  148.4070   46.6520   -3.9520 N   0  0  0  0  0  0
  148.7790   46.0390   -2.6840 C   0  0  2  0  0  0
  150.1200   46.5960   -2.2100 C   0  0  0  0  0  0
  151.0840   46.6470   -2.9780 O   0  0  0  0  0  0
  148.8980   44.5150   -2.8270 C   0  0  0  0  0  0
  147.6090   43.7990   -3.2170 C   0  0  0  0  0  0
  147.7370   42.2840   -3.0560 C   0  0  0  0  0  0
  147.9730   41.8620   -1.5990 C   0  0  0  0  0  0
  146.7320   41.8230   -0.7540 N   0  3  0  0  0  0
  150.1780   47.0200   -0.9510 N   0  0  0  0  0  0
  151.4110   47.5490   -0.3890 C   0  0  2  0  0  0
  152.3900   46.3900   -0.2200 C   0  0  0  0  0  0
  151.9780   45.2280   -0.1440 O   0  0  0  0  0  0
  151.1710   48.1790    1.0040 C   0  0  0  0  0  0
  150.2170   49.3600    0.8900 C   0  0  0  0  0  0
  150.6130   47.1320    1.9540 C   0  0  0  0  0  0
  153.6990   46.6850   -0.1740 N   0  0  0  0  0  0
  154.6930   45.6190   -0.0040 C   0  0  2  0  0  0
  154.4340   44.8500    1.3000 C   0  0  0  0  0  0
  154.0980   45.4460    2.3170 O   0  0  0  0  0  0
  156.0260   46.3870    0.0060 C   0  0  0  0  0  0
  155.6340   47.7750    0.4750 C   0  0  0  0  0  0
  154.3490   48.0040   -0.2710 C   0  0  0  0  0  0
  154.5900   43.5310    1.2650 N   0  0  0  0  0  0
  154.3520   42.7060    2.4480 C   0  0  2  0  0  0
  155.4120   42.8200    3.5610 C   0  0  0  0  0  0
  156.5620   43.1850    3.3070 O   0  0  0  0  0  0
  154.2030   41.2480    2.0390 C   0  0  0  0  0  0
  154.9930   42.4840    4.7870 N   0  0  0  0  0  0
  155.8180   42.4970    5.9980 C   0  0  2  0  0  0
  157.0140   41.5530    5.9130 C   0  0  0  0  0  0
  157.0760   40.6020    6.7220 O   0  0  0  0  0  0
  154.9770   42.1110    7.2260 C   0  0  0  0  0  0
  154.2150   43.2900    7.8070 C   0  0  0  0  0  0
  154.7660   44.4000    7.7700 O   0  0  0  0  0  0
  153.0860   43.1050    8.3040 O   0  0  0  0  0  0
  157.8830   41.7720    5.0440 O   0  0  0  0  0  0
  121.5863   51.4425  -18.0992 H   0  0  0  0  0  0
  123.0498   50.7920  -17.2858 H   0  0  0  0  0  0
  122.6320   50.2538  -18.9479 H   0  0  0  0  0  0
  123.0042   52.5320  -19.7792 H   0  0  0  0  0  0
  123.4220   53.0702  -18.1171 H   0  0  0  0  0  0
  125.1151   53.7056  -19.6957 H   0  0  0  0  0  0
  127.2130   51.8265  -20.5592 H   0  0  0  0  0  0
  127.8667   54.6295  -19.6218 H   0  0  0  0  0  0
  128.3279   53.7920  -21.1425 H   0  0  0  0  0  0
  125.8655   53.9615  -21.8445 H   0  0  0  0  0  0
  125.6246   55.0460  -20.4330 H   0  0  0  0  0  0
  126.2558   57.6376  -22.8381 H   0  0  0  0  0  0
  129.1100   51.0617  -19.5241 H   0  0  0  0  0  0
  128.6273   51.0739  -16.5928 H   0  0  0  0  0  0
  129.3340   48.9944  -18.0485 H   0  0  0  0  0  0
  130.9755   49.7186  -18.1349 H   0  0  0  0  0  0
  131.1325   49.4282  -15.6554 H   0  0  0  0  0  0
  128.7139   49.2817  -15.1561 H   0  0  0  0  0  0
  129.5745   47.7929  -14.6368 H   0  0  0  0  0  0
  128.5955   47.7854  -16.1429 H   0  0  0  0  0  0
  132.1193   47.9075  -17.3627 H   0  0  0  0  0  0
  130.5771   46.9887  -17.4269 H   0  0  0  0  0  0
  131.5560   46.9963  -15.9208 H   0  0  0  0  0  0
  129.4411   52.0752  -14.9692 H   0  0  0  0  0  0
  131.6465   54.0235  -15.5216 H   0  0  0  0  0  0
  130.2597   53.1092  -12.9407 H   0  0  0  0  0  0
  130.2723   55.8305  -14.3317 H   0  0  0  0  0  0
  129.0750   54.5494  -14.7214 H   0  0  0  0  0  0
  132.6172   53.7088  -12.4357 H   0  0  0  0  0  0
  131.4707   54.9354  -11.7971 H   0  0  0  0  0  0
  132.4021   55.2710  -13.2960 H   0  0  0  0  0  0
  128.1647   56.1881  -13.1720 H   0  0  0  0  0  0
  129.4918   55.8534  -12.0087 H   0  0  0  0  0  0
  128.2945   54.5722  -12.3983 H   0  0  0  0  0  0
  133.8875   53.5913  -15.3294 H   0  0  0  0  0  0
  134.5132   50.7245  -14.4932 H   0  0  0  0  0  0
  135.6272   51.9011  -15.2687 H   0  0  0  0  0  0
  136.0733   49.9906  -13.2244 H   0  0  0  0  0  0
  136.6059   51.9566  -10.9843 H   0  0  0  0  0  0
  136.4522   48.8430  -10.9931 H   0  0  0  0  0  0
  134.2683   50.0678  -10.8221 H   0  0  0  0  0  0
  138.3467   49.5880   -9.5091 H   0  0  0  0  0  0
  136.9752   48.8919   -8.5812 H   0  0  0  0  0  0
  137.2050   50.6723   -8.6446 H   0  0  0  0  0  0
  138.6878   52.2598  -10.0959 H   0  0  0  0  0  0
  140.9252   51.0321  -11.8363 H   0  0  0  0  0  0
  140.6269   53.5670  -11.1759 H   0  0  0  0  0  0
  141.3362   53.0316   -9.6149 H   0  0  0  0  0  0
  143.3974   52.5709  -10.5676 H   0  0  0  0  0  0
  142.6026   51.2027  -12.4508 H   0  0  0  0  0  0
  143.8170   52.4157  -12.9803 H   0  0  0  0  0  0
  142.0725   52.6879  -13.3110 H   0  0  0  0  0  0
  142.8195   55.0024  -10.4671 H   0  0  0  0  0  0
  142.2000   54.9137  -12.1509 H   0  0  0  0  0  0
  143.9445   54.6415  -11.8202 H   0  0  0  0  0  0
  142.1103   49.3135  -10.9229 H   0  0  0  0  0  0
  141.0594   48.4022   -8.3349 H   0  0  0  0  0  0
  143.4512   47.3629  -10.0184 H   0  0  0  0  0  0
  142.7385   46.4657   -8.6350 H   0  0  0  0  0  0
  143.0996   45.9719  -11.6603 H   0  0  0  0  0  0
  141.3420   45.4568  -12.1851 H   0  0  0  0  0  0
  141.9201   48.0294   -6.3624 H   0  0  0  0  0  0
  143.8800   50.0750   -5.5856 H   0  0  0  0  0  0
  142.0839   49.2046   -4.0679 H   0  0  0  0  0  0
  143.7003   49.0051   -3.3101 H   0  0  0  0  0  0
  142.8771   47.5929   -4.0549 H   0  0  0  0  0  0
  146.0171   50.0632   -5.1326 H   0  0  0  0  0  0
  147.4619   47.5954   -6.1260 H   0  0  0  0  0  0
  148.2699   49.8608   -6.7602 H   0  0  0  0  0  0
  149.5143   49.0093   -5.7839 H   0  0  0  0  0  0
  148.4932   50.2788   -5.0275 H   0  0  0  0  0  0
  148.6235   46.1338   -4.8979 H   0  0  0  0  0  0
  147.9697   46.3023   -1.9870 H   0  0  0  0  0  0
  149.6376   44.2764   -3.6055 H   0  0  0  0  0  0
  149.2209   44.0809   -1.8692 H   0  0  0  0  0  0
  146.7869   44.1485   -2.5752 H   0  0  0  0  0  0
  147.3717   44.0179   -4.2685 H   0  0  0  0  0  0
  146.8123   41.7991   -3.4020 H   0  0  0  0  0  0
  148.5866   41.9222   -3.6538 H   0  0  0  0  0  0
  148.4081   40.8520   -1.5757 H   0  0  0  0  0  0
  148.6647   42.5703   -1.1195 H   0  0  0  0  0  0
  146.9941   41.5125    0.2682 H   0  0  0  0  0  0
  146.0182   41.1048   -1.1838 H   0  0  0  0  0  0
  146.2748   42.8231   -0.7276 H   0  0  0  0  0  0
  149.2705   46.9651   -0.3318 H   0  0  0  0  0  0
  151.7645   48.3060   -1.1045 H   0  0  0  0  0  0
  152.1199   48.5490    1.4195 H   0  0  0  0  0  0
  150.6376   50.1057    0.1994 H   0  0  0  0  0  0
  150.0777   49.8158    1.8814 H   0  0  0  0  0  0
  149.2465   49.0117    0.5069 H   0  0  0  0  0  0
  151.3152   46.2881    2.0230 H   0  0  0  0  0  0
  149.6444   46.7730    1.5760 H   0  0  0  0  0  0
  150.4756   47.5771    2.9505 H   0  0  0  0  0  0
  154.6368   44.8705   -0.8081 H   0  0  0  0  0  0
  156.7273   45.8952    0.6962 H   0  0  0  0  0  0
  156.4531   46.3935   -1.0077 H   0  0  0  0  0  0
  155.5038   47.7698    1.5673 H   0  0  0  0  0  0
  156.4240   48.4906    0.2034 H   0  0  0  0  0  0
  154.5048   48.2590   -1.3296 H   0  0  0  0  0  0
  153.7076   48.7643    0.1987 H   0  0  0  0  0  0
  154.9049   43.0615    0.3214 H   0  0  0  0  0  0
  153.4149   43.1293    2.8387 H   0  0  0  0  0  0
  153.4466   41.1655    1.2446 H   0  0  0  0  0  0
  153.8873   40.6536    2.9090 H   0  0  0  0  0  0
  155.1674   40.8710    1.6677 H   0  0  0  0  0  0
  153.9374   42.1800    4.8439 H   0  0  0  0  0  0
  156.1809   43.5341    6.0505 H   0  0  0  0  0  0
  157.9255   39.9041    6.6864 H   0  0  0  0  0  0
  154.2434   41.3424    6.9411 H   0  0  0  0  0  0
  155.6365   41.7149    8.0123 H   0  0  0  0  0  0
  152.5259   43.9518    8.7273 H   0  0  0  0  0  0
  1  2  1  0  0  0
  1104  1  0  0  0
  1105  1  0  0  0
  1106  1  0  0  0
  2  3  1  0  0  0
  2107  1  0  0  0
  2108  1  0  0  0
  3  4  2  0  0  0
  3  5  1  0  0  0
  5  6  1  0  0  0
  5109  1  0  0  0
  6  7  1  0  0  0
  6  9  1  0  0  0
  6110  1  0  0  0
  7  8  2  0  0  0
  7 14  1  0  0  0
  9 10  1  0  0  0
  9111  1  0  0  0
  9112  1  0  0  0
 10 11  1  0  0  0
 10113  1  0  0  0
 10114  1  0  0  0
 11 12  1  0  0  0
 11 13  2  0  0  0
 12115  1  0  0  0
 14 15  1  0  0  0
 14116  1  0  0  0
 15 16  1  0  0  0
 15 18  1  0  0  0
 15117  1  0  0  0
 16 17  2  0  0  0
 16 22  1  0  0  0
 18 19  1  0  0  0
 18118  1  0  0  0
 18119  1  0  0  0
 19 20  1  0  0  0
 19 21  1  0  0  0
 19120  1  0  0  0
 20121  1  0  0  0
 20122  1  0  0  0
 20123  1  0  0  0
 21124  1  0  0  0
 21125  1  0  0  0
 21126  1  0  0  0
 22 23  1  0  0  0
 22127  1  0  0  0
 23 24  1  0  0  0
 23 26  1  0  0  0
 23128  1  0  0  0
 24 25  2  0  0  0
 24 30  1  0  0  0
 26 27  1  0  0  0
 26 28  1  0  0  0
 26129  1  0  0  0
 27 29  1  0  0  0
 27130  1  0  0  0
 27131  1  0  0  0
 28132  1  0  0  0
 28133  1  0  0  0
 28134  1  0  0  0
 29135  1  0  0  0
 29136  1  0  0  0
 29137  1  0  0  0
 30 31  1  0  0  0
 30138  1  0  0  0
 31 32  1  0  0  0
 31139  1  0  0  0
 31140  1  0  0  0
 32 33  2  0  0  0
 32 34  1  0  0  0
 34 35  1  0  0  0
 34141  1  0  0  0
 35 36  1  0  0  0
 35 38  1  0  0  0
 35142  1  0  0  0
 36 37  2  0  0  0
 36 41  1  0  0  0
 38 39  1  0  0  0
 38 40  1  0  0  0
 38143  1  0  0  0
 39144  1  0  0  0
 40145  1  0  0  0
 40146  1  0  0  0
 40147  1  0  0  0
 41 42  1  0  0  0
 41148  1  0  0  0
 42 43  1  0  0  0
 42 45  1  0  0  0
 42149  1  0  0  0
 43 44  2  0  0  0
 43 49  1  0  0  0
 45 46  1  0  0  0
 45150  1  0  0  0
 45151  1  0  0  0
 46 47  1  0  0  0
 46 48  1  0  0  0
 46152  1  0  0  0
 47153  1  0  0  0
 47154  1  0  0  0
 47155  1  0  0  0
 48156  1  0  0  0
 48157  1  0  0  0
 48158  1  0  0  0
 49 50  1  0  0  0
 49159  1  0  0  0
 50 51  1  0  0  0
 50 53  1  0  0  0
 50160  1  0  0  0
 51 52  2  0  0  0
 51 57  1  0  0  0
 53 54  1  0  0  0
 53161  1  0  0  0
 53162  1  0  0  0
 54 55  2  0  0  0
 54 56  1  0  0  0
 56163  1  0  0  0
 56164  1  0  0  0
 57 58  1  0  0  0
 57165  1  0  0  0
 58 59  1  0  0  0
 58 61  1  0  0  0
 58166  1  0  0  0
 59 60  2  0  0  0
 59 62  1  0  0  0
 61167  1  0  0  0
 61168  1  0  0  0
 61169  1  0  0  0
 62 63  1  0  0  0
 62170  1  0  0  0
 63 64  1  0  0  0
 63 66  1  0  0  0
 63171  1  0  0  0
 64 65  2  0  0  0
 64 67  1  0  0  0
 66172  1  0  0  0
 66173  1  0  0  0
 66174  1  0  0  0
 67 68  1  0  0  0
 67175  1  0  0  0
 68 69  1  0  0  0
 68 71  1  0  0  0
 68176  1  0  0  0
 69 70  2  0  0  0
 69 76  1  0  0  0
 71 72  1  0  0  0
 71177  1  0  0  0
 71178  1  0  0  0
 72 73  1  0  0  0
 72179  1  0  0  0
 72180  1  0  0  0
 73 74  1  0  0  0
 73181  1  0  0  0
 73182  1  0  0  0
 74 75  1  0  0  0
 74183  1  0  0  0
 74184  1  0  0  0
 75185  1  0  0  0
 75186  1  0  0  0
 75187  1  0  0  0
 76 77  1  0  0  0
 76188  1  0  0  0
 77 78  1  0  0  0
 77 80  1  0  0  0
 77189  1  0  0  0
 78 79  2  0  0  0
 78 83  1  0  0  0
 80 81  1  0  0  0
 80 82  1  0  0  0
 80190  1  0  0  0
 81191  1  0  0  0
 81192  1  0  0  0
 81193  1  0  0  0
 82194  1  0  0  0
 82195  1  0  0  0
 82196  1  0  0  0
 83 84  1  0  0  0
 83 89  1  0  0  0
 84 85  1  0  0  0
 84 87  1  0  0  0
 84197  1  0  0  0
 85 86  2  0  0  0
 85 90  1  0  0  0
 87 88  1  0  0  0
 87198  1  0  0  0
 87199  1  0  0  0
 88 89  1  0  0  0
 88200  1  0  0  0
 88201  1  0  0  0
 89202  1  0  0  0
 89203  1  0  0  0
 90 91  1  0  0  0
 90204  1  0  0  0
 91 92  1  0  0  0
 91 94  1  0  0  0
 91205  1  0  0  0
 92 93  2  0  0  0
 92 95  1  0  0  0
 94206  1  0  0  0
 94207  1  0  0  0
 94208  1  0  0  0
 95 96  1  0  0  0
 95209  1  0  0  0
 96 97  1  0  0  0
 96 99  1  0  0  0
 96210  1  0  0  0
 97 98  1  0  0  0
 97103  2  0  0  0
 98211  1  0  0  0
 99100  1  0  0  0
 99212  1  0  0  0
 99213  1  0  0  0
100101  2  0  0  0
100102  1  0  0  0
102214  1  0  0  0
M  CHG  2   1   1  75   1
M  END
> <s_m_source_file>
../1klu_ligand.sdf

> <i_m_source_file_index>
1

> <s_epik_input>
W05IMytdW0NIMl1DKD1PKVtOSF1bQ0BASF0oW0NIMl1bQ0gyXUMoPU8pW09IXSlDKD1PKVtOSF1bQ0BASF0oW0NIMl1bQ0hdKFtDSDNdKVtDSDNdKUMoPU8pW05IXVtDQEBIXShbQ0BASF0oW0NIM10pW0NIMl1bQ0gzXSlDKD1PKVtOSF1bQ0gyXUMoPU8pW05IXVtDQEBIXShbQ0BIXShbT0hdKVtDSDNdKUMoPU8pW05IXVtDQEBIXShbQ0gyXVtDSF0oW0NIM10pW0NIM10pQyg9TylbTkhdW0NAQEhdKFtDSDJdQyg9TylbTkgyXSlDKD1PKVtOSF1bQ0BASF0oW0NIM10pQyg9TylbTkhdW0NAQEhdKFtDSDNdKUMoPU8pW05IXVtDQEBIXShbQ0gyXVtDSDJdW0NIMl1bQ0gyXVtOSDMrXSlDKD1PKVtOSF1bQ0BASF0oW0NIXShbQ0gzXSlbQ0gzXSlDKD1PKU4xW0NAQEhdKFtDSDJdW0NIMl1bQ0gyXTEpQyg9TylbTkhdW0NAQEhdKFtDSDNdKUMoPU8pW05IXVtDQEhdKEMoPU8pW09IXSlbQ0gyXUMoPU8pW09IXQ==

> <s_epik_cmdline>
J2VwaWtfYXBwJywgJy1pbWFlJywgJ2xpZ2FuZF9wcm8ubWFlJywgJy1vbWFlJywgJ2xpZ2FuZF9wcmVwLm1hZScsICctbXMnLCAnMScsICctcGgnLCAnNycsICctcGh0JywgJzAuNScsICctbnQn

> <s_epik_pKa_notes>
Molecule size exceeds maximum supported for generating protonation states

$$$$
