1kmv_ligand
                    3D
 Schrodinger Suite 2020-3.
 44 46  0  0  1  0            999 V2000
   13.7320   24.1770   32.2440 C   0  0  0  0  0  0
   15.0590   24.2740   31.7180 C   0  0  0  0  0  0
   14.6820   22.5230   30.2630 C   0  0  0  0  0  0
   12.8780   23.3290   31.5750 C   0  0  0  0  0  0
   13.1900   24.9470   33.3790 C   0  0  0  0  0  0
   11.8790   24.9590   33.5350 C   0  0  0  0  0  0
   11.0050   23.9870   32.7670 C   0  0  0  0  0  0
   14.0540   25.6400   34.3650 C   0  0  0  0  0  0
   11.0920   25.9000   34.4630 C   0  0  0  0  0  0
    9.6990   24.1260   35.8350 C   0  0  0  0  0  0
   10.5750   23.1020   36.1780 C   0  0  0  0  0  0
   10.0870   21.8830   36.5780 C   0  0  0  0  0  0
    8.7060   21.6770   36.6270 C   0  0  0  0  0  0
    7.8140   22.6790   36.2890 C   0  0  0  0  0  0
    8.3300   23.8990   35.8950 C   0  0  0  0  0  0
   10.1650   25.5060   35.3870 C   0  0  0  0  0  0
   12.6970   22.2420   36.0020 C   0  0  0  0  0  0
    5.6270   23.6940   36.2150 C   0  0  0  0  0  0
   15.5040   23.4370   30.7740 N   0  0  0  0  0  0
   13.3990   22.4420   30.6080 N   0  0  0  0  0  0
   11.5550   23.2240   31.8130 N   0  0  0  0  0  0
   15.9540   25.1520   32.1230 N   0  0  0  0  0  0
   15.1430   21.6620   29.3730 N   0  0  0  0  0  0
   11.9030   23.4250   36.0890 O   0  0  0  0  0  0
    6.4510   22.5660   36.3120 O   0  0  0  0  0  0
    9.9406   23.9098   32.9886 H   0  0  0  0  0  0
   15.1085   25.5238   34.0741 H   0  0  0  0  0  0
   13.8981   25.2011   35.3615 H   0  0  0  0  0  0
   13.7964   26.7091   34.3908 H   0  0  0  0  0  0
   11.3257   26.9677   34.3391 H   0  0  0  0  0  0
   10.7718   21.0816   36.8554 H   0  0  0  0  0  0
    8.3229   20.7052   36.9385 H   0  0  0  0  0  0
    7.6456   24.7031   35.6246 H   0  0  0  0  0  0
    9.6044   26.2596   35.9596 H   0  0  0  0  0  0
   13.7595   22.5179   35.9312 H   0  0  0  0  0  0
   12.4063   21.6702   35.1084 H   0  0  0  0  0  0
   12.5370   21.6263   36.8994 H   0  0  0  0  0  0
    4.5728   23.3824   36.2536 H   0  0  0  0  0  0
    5.8223   24.2099   35.2633 H   0  0  0  0  0  0
    5.8387   24.3758   37.0519 H   0  0  0  0  0  0
   15.6915   25.8877   32.8975 H   0  0  0  0  0  0
   16.9637   25.1493   31.6866 H   0  0  0  0  0  0
   16.1984   21.7010   29.0654 H   0  0  0  0  0  0
   14.4714   20.9062   28.9397 H   0  0  0  0  0  0
  1  2  2  0  0  0
  1  4  1  0  0  0
  1  5  1  0  0  0
  2 19  1  0  0  0
  2 22  1  0  0  0
  3 19  2  0  0  0
  3 20  1  0  0  0
  3 23  1  0  0  0
  4 20  2  0  0  0
  4 21  1  0  0  0
  5  6  2  0  0  0
  5  8  1  0  0  0
  6  7  1  0  0  0
  6  9  1  0  0  0
  7 21  2  0  0  0
  7 26  1  0  0  0
  8 27  1  0  0  0
  8 28  1  0  0  0
  8 29  1  0  0  0
  9 16  2  0  0  0
  9 30  1  0  0  0
 10 11  2  0  0  0
 10 15  1  0  0  0
 10 16  1  0  0  0
 11 12  1  0  0  0
 11 24  1  0  0  0
 12 13  2  0  0  0
 12 31  1  0  0  0
 13 14  1  0  0  0
 13 32  1  0  0  0
 14 15  2  0  0  0
 14 25  1  0  0  0
 15 33  1  0  0  0
 16 34  1  0  0  0
 17 24  1  0  0  0
 17 35  1  0  0  0
 17 36  1  0  0  0
 17 37  1  0  0  0
 18 25  1  0  0  0
 18 38  1  0  0  0
 18 39  1  0  0  0
 18 40  1  0  0  0
 22 41  1  0  0  0
 22 42  1  0  0  0
 23 43  1  0  0  0
 23 44  1  0  0  0
M  END
> <s_m_source_file>
../1kmv_ligand.sdf

> <i_m_source_file_index>
1

> <s_epik_input>
W05IMl1jMW5jKFtOSDJdKW5jKGMxMiluW2NIXWMoYzJbQ0gzXSkvW0NIXT1bQ0hdXGMzYyhPW0NIM10pW2NIXVtjSF1jKFtjSF0zKU9bQ0gzXQ==

> <s_epik_cmdline>
J2VwaWtfYXBwJywgJy1pbWFlJywgJ2xpZ2FuZF9wcm8ubWFlJywgJy1vbWFlJywgJ2xpZ2FuZF9wcmVwLm1hZScsICctbXMnLCAnMScsICctcGgnLCAnNycsICctcGh0JywgJzAuNScsICctbnQn

> <r_epik_Ionization_Penalty>
  0.2256

> <r_epik_Ionization_Penalty_Charging>
  0.0000

> <r_epik_Ionization_Penalty_Neutral>
  0.2256

> <r_epik_State_Penalty>
  0.2039

> <r_epik_Charging_Adjusted_Penalty>
0.203932152606181

> <i_epik_Tot_Q>
0

> <i_epik_Tot_abs_Q>
0

$$$$
