1kna_ligand
                    3D
 Schrodinger Suite 2020-3.
107106  0  0  1  0            999 V2000
   -0.2930   33.3000    2.3010 N   0  3  0  0  0  0
   -1.7140   33.0460    2.6680 C   0  0  2  0  0  0
   -1.8310   32.0060    3.7810 C   0  0  0  0  0  0
   -1.7680   32.3600    4.9550 O   0  0  0  0  0  0
   -2.4980   32.5900    1.4400 C   0  0  0  0  0  0
   -3.9970   32.6460    1.6170 C   0  0  0  0  0  0
   -4.7490   32.3640    0.3270 C   0  0  0  0  0  0
   -4.6760   31.2610   -0.2250 O   0  0  0  0  0  0
   -5.4750   33.3660   -0.1650 N   0  0  0  0  0  0
   -2.0010   30.7340    3.4160 N   0  0  0  0  0  0
   -2.1250   29.6620    4.4060 C   0  0  2  0  0  0
   -1.1810   28.5000    4.1150 C   0  0  0  0  0  0
   -0.5040   28.4700    3.0850 O   0  0  0  0  0  0
   -3.5580   29.0780    4.4520 C   0  0  2  0  0  0
   -3.7990   28.3060    3.2660 O   0  0  0  0  0  0
   -4.5900   30.1890    4.5420 C   0  0  0  0  0  0
   -1.1470   27.5380    5.0310 N   0  0  0  0  0  0
   -0.3000   26.3670    4.8680 C   0  0  2  0  0  0
   -0.6780   25.2700    5.8450 C   0  0  0  0  0  0
   -1.2140   25.5340    6.9210 O   0  0  0  0  0  0
    1.1780   26.7410    5.0500 C   0  0  0  0  0  0
   -0.3960   24.0330    5.4510 N   0  0  0  0  0  0
   -0.6780   22.8690    6.2790 C   0  0  2  0  0  0
    0.4920   22.7150    7.2480 C   0  0  0  0  0  0
    1.6420   22.9350    6.8750 O   0  0  0  0  0  0
   -0.7900   21.6280    5.3860 C   0  0  0  0  0  0
   -1.1890   20.3440    6.0900 C   0  0  0  0  0  0
   -1.0640   19.1560    5.1320 C   0  0  0  0  0  0
   -1.4640   17.8930    5.7410 N   0  0  0  0  0  0
   -2.7240   17.5400    5.9820 C   0  0  0  0  0  0
   -3.7190   18.3560    5.6640 N   0  3  0  0  0  0
   -2.9930   16.3650    6.5370 N   0  0  0  0  0  0
    0.1950   22.3560    8.4880 N   0  0  0  0  0  0
    1.2260   22.1670    9.4960 C   0  0  1  0  0  0
    0.7770   22.7680   10.8290 C   0  0  0  0  0  0
    1.8960   23.3430   11.6730 C   0  0  0  0  0  0
    1.3960   23.7190   13.0580 C   0  0  0  0  0  0
    0.8860   25.1510   13.0960 C   0  0  0  0  0  0
    0.9660   25.7120   14.4440 N   0  3  0  0  0  0
    0.9950   27.1710   14.3730 C   0  0  0  0  0  0
   -0.1690   25.2230   15.2300 C   0  0  0  0  0  0
    1.4950   20.6770    9.6520 C   0  0  0  0  0  0
    0.6680   19.9490   10.2010 O   0  0  0  0  0  0
    2.6410   20.2200    9.1580 N   0  0  0  0  0  0
    2.9810   18.8040    9.2430 C   0  0  2  0  0  0
    3.2170   18.3680   10.6850 C   0  0  0  0  0  0
    3.1510   19.2330   11.5830 O   0  0  0  0  0  0
    4.2270   18.5080    8.4040 C   0  0  0  0  0  0
    5.3510   19.2310    8.8790 O   0  0  0  0  0  0
   -0.2502   34.0519    1.4992 H   0  0  0  0  0  0
    0.1683   32.3645    1.9515 H   0  0  0  0  0  0
    0.2523   33.6712    3.1813 H   0  0  0  0  0  0
   -2.1140   34.0013    3.0387 H   0  0  0  0  0  0
   -2.2464   33.2340    0.5844 H   0  0  0  0  0  0
   -2.2363   31.5480    1.2040 H   0  0  0  0  0  0
   -4.3068   31.8956    2.3593 H   0  0  0  0  0  0
   -4.2879   33.6481    1.9652 H   0  0  0  0  0  0
   -5.5094   34.3308    0.3622 H   0  0  0  0  0  0
   -6.0403   33.2289   -1.0986 H   0  0  0  0  0  0
   -2.0473   30.4992    2.3424 H   0  0  0  0  0  0
   -1.8488   30.1721    5.3406 H   0  0  0  0  0  0
   -3.6772   28.3906    5.3025 H   0  0  0  0  0  0
   -3.1506   27.4506    3.0253 H   0  0  0  0  0  0
   -4.4099   30.7840    5.4495 H   0  0  0  0  0  0
   -5.5979   29.7506    4.5850 H   0  0  0  0  0  0
   -4.5094   30.8369    3.6567 H   0  0  0  0  0  0
   -1.7770   27.6407    5.9269 H   0  0  0  0  0  0
   -0.4962   26.0196    3.8429 H   0  0  0  0  0  0
    1.4452   27.5365    4.3388 H   0  0  0  0  0  0
    1.8055   25.8569    4.8639 H   0  0  0  0  0  0
    1.3421   27.0975    6.0776 H   0  0  0  0  0  0
    0.0665   23.9049    4.4612 H   0  0  0  0  0  0
   -1.6266   23.0325    6.8114 H   0  0  0  0  0  0
   -1.5493   21.8024    4.6095 H   0  0  0  0  0  0
    0.1818   21.4295    4.9105 H   0  0  0  0  0  0
   -0.5298   20.1802    6.9552 H   0  0  0  0  0  0
   -2.2313   20.4224    6.4328 H   0  0  0  0  0  0
   -1.7059   19.3235    4.2545 H   0  0  0  0  0  0
   -0.0179   19.0554    4.8072 H   0  0  0  0  0  0
   -0.7003   17.1576    6.0342 H   0  0  0  0  0  0
   -3.5044   19.3317    5.2036 H   0  0  0  0  0  0
   -2.1729   15.6821    6.8038 H   0  0  0  0  0  0
   -4.0360   16.0739    6.7302 H   0  0  0  0  0  0
   -0.8627   22.2005    8.7472 H   0  0  0  0  0  0
    2.1266   22.6876    9.1383 H   0  0  0  0  0  0
    0.0672   23.5871   10.6413 H   0  0  0  0  0  0
    0.2884   21.9912   11.4354 H   0  0  0  0  0  0
    2.6969   22.5963   11.7780 H   0  0  0  0  0  0
    2.2966   24.2443   11.1860 H   0  0  0  0  0  0
    0.5728   23.0483   13.3452 H   0  0  0  0  0  0
    2.2175   23.6225   13.7831 H   0  0  0  0  0  0
    1.4928   25.7743   12.4227 H   0  0  0  0  0  0
   -0.1645   25.1749   12.7705 H   0  0  0  0  0  0
    1.8944   25.3918   14.9395 H   0  0  0  0  0  0
    1.8609   27.4918   13.7752 H   0  0  0  0  0  0
    1.0765   27.5859   15.3885 H   0  0  0  0  0  0
    0.0695   27.5336   13.9019 H   0  0  0  0  0  0
   -0.1504   24.1235   15.2561 H   0  0  0  0  0  0
   -1.1080   25.5630   14.7688 H   0  0  0  0  0  0
   -0.1010   25.6153   16.2554 H   0  0  0  0  0  0
    3.3371   20.9251    8.6802 H   0  0  0  0  0  0
    2.1016   18.2773    8.8441 H   0  0  0  0  0  0
    3.4406   17.3225   10.9438 H   0  0  0  0  0  0
    4.4556   17.4332    8.4536 H   0  0  0  0  0  0
    4.0419   18.7956    7.3585 H   0  0  0  0  0  0
    6.3249   19.1246    8.3787 H   0  0  0  0  0  0
   -4.7593   18.0575    5.8605 H   0  0  0  0  0  0
  1  2  1  0  0  0
  1 50  1  0  0  0
  1 51  1  0  0  0
  1 52  1  0  0  0
  2  5  1  0  0  0
  2  3  1  0  0  0
  2 53  1  0  0  0
  3  4  2  0  0  0
  3 10  1  0  0  0
  5  6  1  0  0  0
  5 54  1  0  0  0
  5 55  1  0  0  0
  6  7  1  0  0  0
  6 56  1  0  0  0
  6 57  1  0  0  0
  7  9  1  0  0  0
  7  8  2  0  0  0
  9 58  1  0  0  0
  9 59  1  0  0  0
 10 11  1  0  0  0
 10 60  1  0  0  0
 11 14  1  0  0  0
 11 12  1  0  0  0
 11 61  1  0  0  0
 12 13  2  0  0  0
 12 17  1  0  0  0
 14 16  1  0  0  0
 14 15  1  0  0  0
 14 62  1  0  0  0
 15 63  1  0  0  0
 16 64  1  0  0  0
 16 65  1  0  0  0
 16 66  1  0  0  0
 17 18  1  0  0  0
 17 67  1  0  0  0
 18 21  1  0  0  0
 18 19  1  0  0  0
 18 68  1  0  0  0
 19 20  2  0  0  0
 19 22  1  0  0  0
 21 69  1  0  0  0
 21 70  1  0  0  0
 21 71  1  0  0  0
 22 23  1  0  0  0
 22 72  1  0  0  0
 23 26  1  0  0  0
 23 24  1  0  0  0
 23 73  1  0  0  0
 24 25  2  0  0  0
 24 33  1  0  0  0
 26 27  1  0  0  0
 26 74  1  0  0  0
 26 75  1  0  0  0
 27 28  1  0  0  0
 27 76  1  0  0  0
 27 77  1  0  0  0
 28 29  1  0  0  0
 28 78  1  0  0  0
 28 79  1  0  0  0
 29 30  1  0  0  0
 29 80  1  0  0  0
 30 32  1  0  0  0
 30 31  2  0  0  0
 31 81  1  0  0  0
 31107  1  0  0  0
 32 82  1  0  0  0
 32 83  1  0  0  0
 33 34  1  0  0  0
 33 84  1  0  0  0
 34 35  1  0  0  0
 34 42  1  0  0  0
 34 85  1  0  0  0
 35 36  1  0  0  0
 35 86  1  0  0  0
 35 87  1  0  0  0
 36 37  1  0  0  0
 36 88  1  0  0  0
 36 89  1  0  0  0
 37 38  1  0  0  0
 37 90  1  0  0  0
 37 91  1  0  0  0
 38 39  1  0  0  0
 38 92  1  0  0  0
 38 93  1  0  0  0
 39 40  1  0  0  0
 39 41  1  0  0  0
 39 94  1  0  0  0
 40 95  1  0  0  0
 40 96  1  0  0  0
 40 97  1  0  0  0
 41 98  1  0  0  0
 41 99  1  0  0  0
 41100  1  0  0  0
 42 43  2  0  0  0
 42 44  1  0  0  0
 44 45  1  0  0  0
 44101  1  0  0  0
 45 48  1  0  0  0
 45 46  1  0  0  0
 45102  1  0  0  0
 46 47  2  0  0  0
 46103  1  0  0  0
 48 49  1  0  0  0
 48104  1  0  0  0
 48105  1  0  0  0
 49106  1  0  0  0
M  CHG  3   1   1  31   1  39   1
M  END
> <s_m_source_file>
../1kna_ligand.sdf

> <i_m_source_file_index>
1

> <s_epik_input>
Tz1DKFtOSDJdKVtDSDJdW0NIMl1bQ0BIXShbTkgzK10pQyg9TylbTkhdW0NAQEhdKFtDQEhdKFtPSF0pW0NIM10pQyg9TylbTkhdW0NAQEhdKFtDSDNdKUMoPU8pW05IXVtDQEBIXShbQ0gyXVtDSDJdW0NIMl1bTkhdL0MoPU5cW0hdKVtOSDJdKUMoPU8pW05IXVtDQEhdKEMoPU8pW05IXVtDQEhdKFtDSF09TylbQ0gyXVtPSF0pW0NIMl1bQ0gyXVtDSDJdW0NIMl1bTkgrXShbQ0gzXSlbQ0gzXQ==

> <s_epik_cmdline>
J2VwaWtfYXBwJywgJy1pbWFlJywgJ2xpZ2FuZF9wcm8ubWFlJywgJy1vbWFlJywgJ2xpZ2FuZF9wcmVwLm1hZScsICctbXMnLCAnMScsICctcGgnLCAnNycsICctcGh0JywgJzAuNScsICctbnQn

> <r_lp_tautomer_probability>
0.99990000499975

> <r_epik_Ionization_Penalty>
  0.1797

> <r_epik_Ionization_Penalty_Charging>
  0.1766

> <r_epik_Ionization_Penalty_Neutral>
  0.0030

> <r_epik_State_Penalty>
  0.1644

> <r_epik_Charging_Adjusted_Penalty>
0.341016548144434

> <i_epik_Tot_Q>
3

> <i_epik_Tot_abs_Q>
3

> <s_epik_Chemistry_Notes>
This compound has an imine and may undergo hydrolysis.

$$$$
