1kne_ligand
                    3D
 Schrodinger Suite 2020-3.
110109  0  0  1  0            999 V2000
   -0.5120   33.8360    2.6060 N   0  3  0  0  0  0
   -1.8500   33.1840    2.7120 C   0  0  2  0  0  0
   -1.8500   32.0810    3.7720 C   0  0  0  0  0  0
   -1.6490   32.3990    4.9430 O   0  0  0  0  0  0
   -2.2660   32.5940    1.3530 C   0  0  0  0  0  0
   -3.7810   32.1160    1.2990 C   0  0  0  0  0  0
   -4.7450   33.2830    1.2790 C   0  0  0  0  0  0
   -4.7760   34.0630    0.3180 O   0  0  0  0  0  0
   -5.5440   33.4140    2.3390 N   0  0  0  0  0  0
   -2.0400   30.8190    3.3810 N   0  0  0  0  0  0
   -2.0800   29.7340    4.3640 C   0  0  2  0  0  0
   -1.1380   28.5590    4.1270 C   0  0  0  0  0  0
   -0.4710   28.4950    3.0890 O   0  0  0  0  0  0
   -3.4850   29.1230    4.4710 C   0  0  2  0  0  0
   -3.6980   28.2350    3.3660 O   0  0  0  0  0  0
   -4.5530   30.2070    4.4490 C   0  0  0  0  0  0
   -1.1170   27.6320    5.0820 N   0  0  0  0  0  0
   -0.2870   26.4440    4.9770 C   0  0  2  0  0  0
   -0.6120   25.3290    5.9700 C   0  0  0  0  0  0
   -1.0800   25.6030    7.0760 O   0  0  0  0  0  0
    1.1720   26.8250    5.0930 C   0  0  0  0  0  0
   -0.3730   24.0910    5.5480 N   0  0  0  0  0  0
   -0.5880   22.9230    6.3810 C   0  0  2  0  0  0
    0.4990   22.8160    7.4450 C   0  0  0  0  0  0
    1.6680   23.0280    7.1150 O   0  0  0  0  0  0
   -0.5680   21.6420    5.5100 C   0  0  0  0  0  0
   -0.9720   20.2980    6.2760 C   0  0  0  0  0  0
   -0.9130   19.0260    5.3100 C   0  0  0  0  0  0
   -1.5460   17.8390    5.8890 N   0  0  0  0  0  0
   -2.8610   17.7030    6.0720 C   0  0  0  0  0  0
   -3.6870   18.6790    5.7230 N   0  3  0  0  0  0
   -3.3550   16.5910    6.5980 N   0  0  0  0  0  0
    0.1340   22.5210    8.6870 N   0  0  0  0  0  0
    1.1260   22.3880    9.7500 C   0  0  1  0  0  0
    0.7080   23.1880   11.0030 C   0  0  0  0  0  0
    1.8180   23.1750   12.1490 C   0  0  0  0  0  0
    1.3840   23.9800   13.4580 C   0  0  0  0  0  0
    0.9020   25.4650   13.1480 C   0  0  0  0  0  0
    0.5000   26.1820   14.4150 N   0  3  0  0  0  0
    1.3340   20.9290   10.1490 C   0  0  0  0  0  0
    0.3780   20.2960   10.6020 O   0  0  0  0  0  0
    1.7460   26.1740   15.2560 C   0  0  0  0  0  0
    0.0680   27.5340   13.9460 C   0  0  0  0  0  0
   -0.6130   25.3520   14.9750 C   0  0  0  0  0  0
    2.5510   20.4140    9.9960 N   0  0  0  0  0  0
    2.8490   19.0190   10.3370 C   0  0  2  0  0  0
    3.2310   18.7600   11.7930 C   0  0  0  0  0  0
    3.1180   19.6930   12.6210 O   0  0  0  0  0  0
    3.9670   18.4770    9.4200 C   0  0  0  0  0  0
    5.1110   19.3190    9.4450 O   0  0  0  0  0  0
   -0.5470   34.6219    1.8371 H   0  0  0  0  0  0
    0.2412   33.0842    2.3278 H   0  0  0  0  0  0
   -0.2440   34.2826    3.5749 H   0  0  0  0  0  0
   -2.5502   33.9746    3.0196 H   0  0  0  0  0  0
   -2.1347   33.3533    0.5680 H   0  0  0  0  0  0
   -1.6390   31.7193    1.1256 H   0  0  0  0  0  0
   -3.9452   31.5200    0.3892 H   0  0  0  0  0  0
   -4.0037   31.5024    2.1844 H   0  0  0  0  0  0
   -5.4790   32.6950    3.1689 H   0  0  0  0  0  0
   -6.2679   34.2411    2.3832 H   0  0  0  0  0  0
   -2.1670   30.5969    2.3112 H   0  0  0  0  0  0
   -1.7432   30.2921    5.2501 H   0  0  0  0  0  0
   -3.5772   28.5231    5.3884 H   0  0  0  0  0  0
   -3.0238   27.3800    3.2097 H   0  0  0  0  0  0
   -4.3965   30.8931    5.2944 H   0  0  0  0  0  0
   -5.5473   29.7438    4.5318 H   0  0  0  0  0  0
   -4.4871   30.7675    3.5048 H   0  0  0  0  0  0
   -1.7505   27.7837    5.9683 H   0  0  0  0  0  0
   -0.5382   26.0689    3.9739 H   0  0  0  0  0  0
    1.3995   27.6276    4.3760 H   0  0  0  0  0  0
    1.7986   25.9481    4.8727 H   0  0  0  0  0  0
    1.3791   27.1764    6.1146 H   0  0  0  0  0  0
    0.0029   23.9725    4.5210 H   0  0  0  0  0  0
   -1.5672   23.0859    6.8550 H   0  0  0  0  0  0
   -1.2765   21.7545    4.6761 H   0  0  0  0  0  0
    0.4453   21.4852    5.1116 H   0  0  0  0  0  0
   -0.2776   20.1298    7.1124 H   0  0  0  0  0  0
   -1.9972   20.3909    6.6636 H   0  0  0  0  0  0
   -1.4327   19.2564    4.3683 H   0  0  0  0  0  0
    0.1368   18.7752    5.0976 H   0  0  0  0  0  0
   -0.9286   16.9852    6.2048 H   0  0  0  0  0  0
   -3.2889   19.6064    5.2855 H   0  0  0  0  0  0
   -2.6794   15.7741    6.8915 H   0  0  0  0  0  0
   -4.4405   16.4852    6.7409 H   0  0  0  0  0  0
   -0.9335   22.3763    8.9096 H   0  0  0  0  0  0
    2.0453   22.7903    9.2995 H   0  0  0  0  0  0
    0.5269   24.2367   10.7249 H   0  0  0  0  0  0
   -0.2120   22.7561   11.4238 H   0  0  0  0  0  0
    2.0213   22.1369   12.4508 H   0  0  0  0  0  0
    2.7426   23.6342   11.7692 H   0  0  0  0  0  0
    0.5520   23.4563   13.9515 H   0  0  0  0  0  0
    2.2377   24.0446   14.1486 H   0  0  0  0  0  0
    1.7208   26.0244   12.6720 H   0  0  0  0  0  0
    0.0358   25.4355   12.4706 H   0  0  0  0  0  0
    2.5131   26.8030   14.7808 H   0  0  0  0  0  0
    2.1208   25.1438   15.3462 H   0  0  0  0  0  0
    1.5157   26.5693   16.2563 H   0  0  0  0  0  0
    0.9372   28.0800   13.5506 H   0  0  0  0  0  0
   -0.3642   28.0936   14.7887 H   0  0  0  0  0  0
   -0.6869   27.4233   13.1537 H   0  0  0  0  0  0
   -0.2175   24.3772   15.2965 H   0  0  0  0  0  0
   -1.3810   25.1993   14.2024 H   0  0  0  0  0  0
   -1.0582   25.8696   15.8374 H   0  0  0  0  0  0
    3.3448   21.0654    9.6017 H   0  0  0  0  0  0
    1.8734   18.5369   10.1763 H   0  0  0  0  0  0
    3.5996   17.7764   12.1196 H   0  0  0  0  0  0
    4.2645   17.4735    9.7584 H   0  0  0  0  0  0
    3.5975   18.4205    8.3854 H   0  0  0  0  0  0
    5.9943   19.0649    8.8406 H   0  0  0  0  0  0
   -4.7707   18.5616    5.8708 H   0  0  0  0  0  0
  1  2  1  0  0  0
  1 51  1  0  0  0
  1 52  1  0  0  0
  1 53  1  0  0  0
  2  5  1  0  0  0
  2  3  1  0  0  0
  2 54  1  0  0  0
  3  4  2  0  0  0
  3 10  1  0  0  0
  5  6  1  0  0  0
  5 55  1  0  0  0
  5 56  1  0  0  0
  6  7  1  0  0  0
  6 57  1  0  0  0
  6 58  1  0  0  0
  7  9  1  0  0  0
  7  8  2  0  0  0
  9 59  1  0  0  0
  9 60  1  0  0  0
 10 11  1  0  0  0
 10 61  1  0  0  0
 11 14  1  0  0  0
 11 12  1  0  0  0
 11 62  1  0  0  0
 12 13  2  0  0  0
 12 17  1  0  0  0
 14 16  1  0  0  0
 14 15  1  0  0  0
 14 63  1  0  0  0
 15 64  1  0  0  0
 16 65  1  0  0  0
 16 66  1  0  0  0
 16 67  1  0  0  0
 17 18  1  0  0  0
 17 68  1  0  0  0
 18 21  1  0  0  0
 18 19  1  0  0  0
 18 69  1  0  0  0
 19 20  2  0  0  0
 19 22  1  0  0  0
 21 70  1  0  0  0
 21 71  1  0  0  0
 21 72  1  0  0  0
 22 23  1  0  0  0
 22 73  1  0  0  0
 23 26  1  0  0  0
 23 24  1  0  0  0
 23 74  1  0  0  0
 24 25  2  0  0  0
 24 33  1  0  0  0
 26 27  1  0  0  0
 26 75  1  0  0  0
 26 76  1  0  0  0
 27 28  1  0  0  0
 27 77  1  0  0  0
 27 78  1  0  0  0
 28 29  1  0  0  0
 28 79  1  0  0  0
 28 80  1  0  0  0
 29 30  1  0  0  0
 29 81  1  0  0  0
 30 32  1  0  0  0
 30 31  2  0  0  0
 31 82  1  0  0  0
 31110  1  0  0  0
 32 83  1  0  0  0
 32 84  1  0  0  0
 33 34  1  0  0  0
 33 85  1  0  0  0
 34 35  1  0  0  0
 34 40  1  0  0  0
 34 86  1  0  0  0
 35 36  1  0  0  0
 35 87  1  0  0  0
 35 88  1  0  0  0
 36 37  1  0  0  0
 36 89  1  0  0  0
 36 90  1  0  0  0
 37 38  1  0  0  0
 37 91  1  0  0  0
 37 92  1  0  0  0
 38 39  1  0  0  0
 38 93  1  0  0  0
 38 94  1  0  0  0
 39 42  1  0  0  0
 39 43  1  0  0  0
 39 44  1  0  0  0
 40 41  2  0  0  0
 40 45  1  0  0  0
 42 95  1  0  0  0
 42 96  1  0  0  0
 42 97  1  0  0  0
 43 98  1  0  0  0
 43 99  1  0  0  0
 43100  1  0  0  0
 44101  1  0  0  0
 44102  1  0  0  0
 44103  1  0  0  0
 45 46  1  0  0  0
 45104  1  0  0  0
 46 49  1  0  0  0
 46 47  1  0  0  0
 46105  1  0  0  0
 47 48  2  0  0  0
 47106  1  0  0  0
 49 50  1  0  0  0
 49107  1  0  0  0
 49108  1  0  0  0
 50109  1  0  0  0
M  CHG  3   1   1  31   1  39   1
M  END
> <s_m_source_file>
../1kne_ligand.sdf

> <i_m_source_file_index>
1

> <s_epik_input>
Tz1DKFtOSDJdKVtDSDJdW0NIMl1bQ0BIXShbTkgzK10pQyg9TylbTkhdW0NAQEhdKFtDQEhdKFtPSF0pW0NIM10pQyg9TylbTkhdW0NAQEhdKFtDSDNdKUMoPU8pW05IXVtDQEBIXShbQ0gyXVtDSDJdW0NIMl1bTkhdL0MoPU5cW0hdKVtOSDJdKUMoPU8pW05IXVtDQEhdKEMoPU8pW05IXVtDQEhdKFtDSF09TylbQ0gyXVtPSF0pW0NIMl1bQ0gyXVtDSDJdW0NIMl1bTitdKFtDSDNdKShbQ0gzXSlbQ0gzXQ==

> <s_epik_cmdline>
J2VwaWtfYXBwJywgJy1pbWFlJywgJ2xpZ2FuZF9wcm8ubWFlJywgJy1vbWFlJywgJ2xpZ2FuZF9wcmVwLm1hZScsICctbXMnLCAnMScsICctcGgnLCAnNycsICctcGh0JywgJzAuNScsICctbnQn

> <r_lp_tautomer_probability>
0.99990000499975

> <r_epik_Ionization_Penalty>
  0.1780

> <r_epik_Ionization_Penalty_Charging>
  0.1750

> <r_epik_Ionization_Penalty_Neutral>
  0.0030

> <r_epik_State_Penalty>
  0.1644

> <r_epik_Charging_Adjusted_Penalty>
0.339373564117627

> <i_epik_Tot_Q>
3

> <i_epik_Tot_abs_Q>
3

> <s_epik_Chemistry_Notes>
This compound has an imine and may undergo hydrolysis.

$$$$
