1koj_ligand
                    3D
 Schrodinger Suite 2020-3.
 24 23  0  0  1  0            999 V2000
   15.2540    9.3860   30.0240 C   0  0  2  0  0  0
   16.7450    8.9110   29.8640 C   0  0  1  0  0  0
   17.2440    8.1700   31.1500 C   0  0  1  0  0  0
   18.7240    7.7380   30.8810 C   0  0  0  0  0  0
   14.4710    8.2120   30.3250 O   0  0  0  0  0  0
   16.8370    7.9320   28.8480 O   0  0  0  0  0  0
   17.1740    9.1450   32.2050 O   0  0  0  0  0  0
   19.4430    9.0160   30.5920 O   0  0  0  0  0  0
   21.0030    8.6560   30.1980 P   0  0  0  0  0  0
   21.6880    7.8500   31.3090 O   0  5  0  0  0  0
   21.0310    7.7760   28.9630 O   0  0  0  0  0  0
   21.6590   10.0150   29.9210 O   0  5  0  0  0  0
   15.0160   10.1480   28.6760 C   0  0  0  0  0  0
   15.5090   11.1450   28.1610 O   0  0  0  0  0  0
   14.0610    9.5040   28.0320 N   0  0  0  0  0  0
   13.5610    9.9260   26.7310 O   0  0  0  0  0  0
   14.9247   10.0075   30.8697 H   0  0  0  0  0  0
   17.3656    9.7695   29.5675 H   0  0  0  0  0  0
   16.6373    7.3150   31.4830 H   0  0  0  0  0  0
   19.1266    7.2343   31.7721 H   0  0  0  0  0  0
   18.7548    7.0483   30.0246 H   0  0  0  0  0  0
   13.3856    8.2998   30.4808 H   0  0  0  0  0  0
   16.5445    8.1801   27.8170 H   0  0  0  0  0  0
   16.1998    9.5510   32.5149 H   0  0  0  0  0  0
  1 13  1  0  0  0
  1  5  1  0  0  0
  1  2  1  0  0  0
  1 17  1  0  0  0
  2  6  1  0  0  0
  2  3  1  0  0  0
  2 18  1  0  0  0
  3  7  1  0  0  0
  3  4  1  0  0  0
  3 19  1  0  0  0
  4  8  1  0  0  0
  4 20  1  0  0  0
  4 21  1  0  0  0
  5 22  1  0  0  0
  6 23  1  0  0  0
  7 24  1  0  0  0
  8  9  1  0  0  0
  9 12  1  0  0  0
  9 11  2  0  0  0
  9 10  1  0  0  0
 13 15  1  0  0  0
 13 14  2  0  0  0
 15 16  2  0  0  0
M  CHG  2  10  -1  12  -1
M  END
> <s_m_source_file>
../1koj_ligand.sdf

> <i_m_source_file_index>
1

> <s_epik_input>
Tz1OQyg9TylbQ0BASF0oW09IXSlbQ0BIXShbT0hdKVtDQEhdKFtPSF0pW0NIMl1PUCg9TykoW09IXSlbT0hd

> <s_epik_cmdline>
J2VwaWtfYXBwJywgJy1pbWFlJywgJ2xpZ2FuZF9wcm8ubWFlJywgJy1vbWFlJywgJ2xpZ2FuZF9wcmVwLm1hZScsICctbXMnLCAnMScsICctcGgnLCAnNycsICctcGh0JywgJzAuNScsICctbnQn

> <r_lp_tautomer_probability>
1

> <r_epik_Ionization_Penalty>
  0.2190

> <r_epik_Ionization_Penalty_Charging>
  0.1048

> <r_epik_Ionization_Penalty_Neutral>
  0.1142

> <r_epik_State_Penalty>
 -0.0000

> <r_epik_Charging_Adjusted_Penalty>
0.104815758509708

> <i_epik_Tot_Q>
-2

> <i_epik_Tot_abs_Q>
2

$$$$
