1kqb_ligand
                    3D
 Schrodinger Suite 2020-3.
 14 14  0  0  1  0            999 V2000
    3.8440   -3.2680   29.7880 C   0  0  0  0  0  0
    4.1070   -2.7040   30.9010 O   0  5  0  0  0  0
    2.9950   -2.7840   28.9940 O   0  0  0  0  0  0
    4.5940   -4.5200   29.4380 C   0  0  0  0  0  0
    5.3500   -5.2480   30.3960 C   0  0  0  0  0  0
    6.0400   -6.4160   30.0240 C   0  0  0  0  0  0
    5.9910   -6.8700   28.7060 C   0  0  0  0  0  0
    5.2570   -6.1760   27.7300 C   0  0  0  0  0  0
    4.5610   -5.0130   28.0800 C   0  0  0  0  0  0
    5.3956   -4.8985   31.4274 H   0  0  0  0  0  0
    6.6146   -6.9679   30.7678 H   0  0  0  0  0  0
    6.5300   -7.7762   28.4295 H   0  0  0  0  0  0
    5.2295   -6.5418   26.7036 H   0  0  0  0  0  0
    3.9901   -4.4755   27.3229 H   0  0  0  0  0  0
  1  2  1  0  0  0
  1  3  2  0  0  0
  1  4  1  0  0  0
  4  5  2  0  0  0
  4  9  1  0  0  0
  5  6  1  0  0  0
  5 10  1  0  0  0
  6  7  2  0  0  0
  6 11  1  0  0  0
  7  8  1  0  0  0
  7 12  1  0  0  0
  8  9  2  0  0  0
  8 13  1  0  0  0
  9 14  1  0  0  0
M  CHG  1   2  -1
M  END
> <s_m_source_file>
../1kqb_ligand.sdf

> <i_m_source_file_index>
1

> <s_epik_input>
W09IXUMoPU8pYzFbY0hdW2NIXVtjSF1bY0hdW2NIXTE=

> <s_epik_cmdline>
J2VwaWtfYXBwJywgJy1pbWFlJywgJ2xpZ2FuZF9wcm8ubWFlJywgJy1vbWFlJywgJ2xpZ2FuZF9wcmVwLm1hZScsICctbXMnLCAnMScsICctcGgnLCAnNycsICctcGh0JywgJzAuNScsICctbnQn

> <r_lp_tautomer_probability>
1

> <r_epik_Ionization_Penalty>
  0.0008

> <r_epik_Ionization_Penalty_Charging>
  0.0008

> <r_epik_Ionization_Penalty_Neutral>
  0.0000

> <r_epik_State_Penalty>
 -0.0000

> <r_epik_Charging_Adjusted_Penalty>
0.000836317864379419

> <i_epik_Tot_Q>
-1

> <i_epik_Tot_abs_Q>
1

$$$$
