1kr3_ligand
                    3D
 Schrodinger Suite 2020-3.
 36 38  0  0  1  0            999 V2000
    3.6180   12.1470   -2.0490 C   0  0  0  0  0  0
    4.0840   12.7090   -0.8590 C   0  0  0  0  0  0
    3.1940   12.9160    0.1900 C   0  0  0  0  0  0
    1.8870   12.3680    0.1490 C   0  0  0  0  0  0
    1.4110   11.7910   -1.0620 C   0  0  0  0  0  0
    2.3160   11.6410   -2.1520 C   0  0  0  0  0  0
    3.6110   13.6760    1.2590 O   0  0  0  0  0  0
    2.8880   13.7170    2.4330 C   0  0  0  0  0  0
    1.6030   13.2910    2.5100 C   0  0  0  0  0  0
    1.0680   12.4600    1.3770 C   0  0  0  0  0  0
    3.6230   14.2910    3.6200 C   0  0  0  0  0  0
    2.6360   15.1120    4.4620 C   0  0  1  0  0  0
    1.4870   14.3110    4.7670 O   0  0  0  0  0  0
    0.7350   13.6760    3.7100 C   0  0  1  0  0  0
    1.9980   11.0210   -3.3550 O   0  0  0  0  0  0
    4.4170   12.0800   -3.1790 O   0  0  0  0  0  0
   -0.0040   11.3640   -1.2350 C   0  0  0  0  0  0
   -0.2030   10.0300   -1.3040 O   0  5  0  0  0  0
   -0.4170   14.4440    3.3350 O   0  0  0  0  0  0
   -1.5000   14.6200    4.2260 C   0  0  0  0  0  0
    3.2370   15.6230    5.7750 C   0  0  0  0  0  0
   -0.9240   12.1510   -1.2970 O   0  0  0  0  0  0
   -0.0030   11.9180    1.5190 O   0  0  0  0  0  0
    5.1338   12.9826   -0.7530 H   0  0  0  0  0  0
    4.0383   13.4718    4.2253 H   0  0  0  0  0  0
    4.4404   14.9373    3.2677 H   0  0  0  0  0  0
    2.2970   15.9699    3.8628 H   0  0  0  0  0  0
    0.3179   12.7688    4.1716 H   0  0  0  0  0  0
    2.7536   10.9442   -4.1508 H   0  0  0  0  0  0
    5.4472   12.4644   -3.1478 H   0  0  0  0  0  0
   -2.2739   15.2364    3.7452 H   0  0  0  0  0  0
   -1.1461   15.1218    5.1387 H   0  0  0  0  0  0
   -1.9228   13.6388    4.4875 H   0  0  0  0  0  0
    4.1211   16.2404    5.5578 H   0  0  0  0  0  0
    3.5318   14.7677    6.4007 H   0  0  0  0  0  0
    2.4896   16.2279    6.3094 H   0  0  0  0  0  0
  1  2  2  0  0  0
  1  6  1  0  0  0
  1 16  1  0  0  0
  2  3  1  0  0  0
  2 24  1  0  0  0
  3  4  2  0  0  0
  3  7  1  0  0  0
  4  5  1  0  0  0
  4 10  1  0  0  0
  5  6  2  0  0  0
  5 17  1  0  0  0
  6 15  1  0  0  0
  7  8  1  0  0  0
  8  9  2  0  0  0
  8 11  1  0  0  0
  9 10  1  0  0  0
  9 14  1  0  0  0
 10 23  2  0  0  0
 11 12  1  0  0  0
 11 25  1  0  0  0
 11 26  1  0  0  0
 12 13  1  0  0  0
 12 21  1  0  0  0
 12 27  1  0  0  0
 13 14  1  0  0  0
 14 19  1  0  0  0
 14 28  1  0  0  0
 15 29  1  0  0  0
 16 30  1  0  0  0
 17 18  1  0  0  0
 17 22  2  0  0  0
 19 20  1  0  0  0
 20 31  1  0  0  0
 20 32  1  0  0  0
 20 33  1  0  0  0
 21 34  1  0  0  0
 21 35  1  0  0  0
 21 36  1  0  0  0
M  CHG  1  18  -1
M  END
> <s_m_source_file>
../1kr3_ligand.sdf

> <i_m_source_file_index>
1

> <s_epik_input>
W2NIXTFjKFtPSF0pYyhbT0hdKWMoQyg9TylbT0hdKWMoYzEyKWMoPU8pYzNjKG8yKVtDSDJdW0NASF0oW0NIM10pT1tDQEhdM09bQ0gzXQ==

> <s_epik_cmdline>
J2VwaWtfYXBwJywgJy1pbWFlJywgJ2xpZ2FuZF9wcm8ubWFlJywgJy1vbWFlJywgJ2xpZ2FuZF9wcmVwLm1hZScsICctbXMnLCAnMScsICctcGgnLCAnNycsICctcGh0JywgJzAuNScsICctbnQn

> <r_epik_Ionization_Penalty>
  0.0188

> <r_epik_Ionization_Penalty_Charging>
  0.0000

> <r_epik_Ionization_Penalty_Neutral>
  0.0188

> <r_epik_State_Penalty>
  0.0150

> <r_epik_Charging_Adjusted_Penalty>
0.0149674361163849

> <i_epik_Tot_Q>
-1

> <i_epik_Tot_abs_Q>
1

> <s_epik_Chemistry_Notes>
This compound contains an acetal/aminal-like group ( X-CH(R)-Y where X, Y are N, S, or O) that may be acid/base labile, releasing an aldehyde.

$$$$
