1ksn_ligand
                    3D
 Schrodinger Suite 2020-3.
 60 62  0  0  1  0            999 V2000
    6.6430    0.2470   17.8810 C   0  0  0  0  0  0
    7.3750    0.8760   18.9420 C   0  0  0  0  0  0
    8.7800    0.5740   19.0640 C   0  0  0  0  0  0
    9.4060   -0.3310   18.1450 C   0  0  0  0  0  0
    8.6940   -0.9280   17.1340 N   0  3  0  0  0  0
    7.3370   -0.6420   17.0070 C   0  0  0  0  0  0
    6.7400    3.9330   21.2570 C   0  0  0  0  0  0
    5.3630    3.6970   21.6850 C   0  0  0  0  0  0
    4.6930    2.5190   21.1940 C   0  0  0  0  0  0
    5.3450    1.6040   20.3140 C   0  0  0  0  0  0
    6.6950    1.8250   19.8820 C   0  0  0  0  0  0
    7.3700    2.9970   20.3700 C   0  0  0  0  0  0
    4.6220    4.5930   22.5660 C   0  0  0  0  0  0
    5.0990    5.8520   22.6160 N   0  0  0  0  0  0
    4.4840    6.8990   23.3920 C   0  0  2  0  0  0
    3.8060    7.8740   22.4050 C   0  0  0  0  0  0
    5.5890    7.5560   24.3010 C   0  0  2  0  0  0
    4.9640    8.6890   25.1360 C   0  0  0  0  0  0
    3.8600    8.2640   25.8080 O   0  0  0  0  0  0
    6.8610    8.0770   23.4910 C   0  0  0  0  0  0
    8.4840    7.4690   25.4770 C   0  0  0  0  0  0
    9.7170    7.6990   26.2280 C   0  0  0  0  0  0
   10.6090    8.7590   25.7890 C   0  0  0  0  0  0
   10.2870    9.5570   24.6450 C   0  0  0  0  0  0
    9.0690    9.3220   23.9130 C   0  0  0  0  0  0
    8.1480    8.2810   24.3060 C   0  0  0  0  0  0
   10.0580    6.8890   27.4000 C   0  0  0  0  0  0
   11.3210    6.7490   27.8130 N   0  3  0  0  0  0
    9.0740    6.2750   28.0810 N   0  0  0  0  0  0
    5.3900    9.7910   25.1720 O   0  0  0  0  0  0
    3.6160    4.2310   23.2050 O   0  0  0  0  0  0
    3.0950    9.1320   26.6480 C   0  0  0  0  0  0
    9.2870   -1.7890   16.2600 O   0  5  0  0  0  0
    5.5795    0.4439   17.7453 H   0  0  0  0  0  0
    9.3679    1.0353   19.8575 H   0  0  0  0  0  0
   10.4686   -0.5496   18.2510 H   0  0  0  0  0  0
    6.7787   -1.1198   16.2020 H   0  0  0  0  0  0
    7.2830    4.8107   21.6077 H   0  0  0  0  0  0
    3.6659    2.3227   21.5016 H   0  0  0  0  0  0
    4.8081    0.7223   19.9642 H   0  0  0  0  0  0
    8.3971    3.1812   20.0550 H   0  0  0  0  0  0
    6.0031    6.0633   22.0262 H   0  0  0  0  0  0
    3.7036    6.4609   24.0316 H   0  0  0  0  0  0
    3.0525    7.3326   21.8142 H   0  0  0  0  0  0
    4.5640    8.2995   21.7310 H   0  0  0  0  0  0
    3.3186    8.6844   22.9668 H   0  0  0  0  0  0
    5.9466    6.7776   24.9911 H   0  0  0  0  0  0
    7.1137    7.3545   22.7009 H   0  0  0  0  0  0
    6.6321    9.0522   23.0365 H   0  0  0  0  0  0
    7.8030    6.6793   25.7944 H   0  0  0  0  0  0
   11.5324    8.9483   26.3363 H   0  0  0  0  0  0
   10.9672   10.3467   24.3261 H   0  0  0  0  0  0
    8.8380    9.9413   23.0463 H   0  0  0  0  0  0
   12.1366    7.2450   27.2664 H   0  0  0  0  0  0
    8.0293    6.3808   27.7532 H   0  0  0  0  0  0
    9.3139    5.6670   28.9657 H   0  0  0  0  0  0
    2.2541    8.5728   27.0840 H   0  0  0  0  0  0
    2.7074    9.9713   26.0519 H   0  0  0  0  0  0
    3.7350    9.5197   27.4543 H   0  0  0  0  0  0
   11.5452    6.1377   28.6996 H   0  0  0  0  0  0
  1  6  2  0  0  0
  1  2  1  0  0  0
  1 34  1  0  0  0
  2 11  1  0  0  0
  2  3  2  0  0  0
  3  4  1  0  0  0
  3 35  1  0  0  0
  4  5  2  0  0  0
  4 36  1  0  0  0
  5 33  1  0  0  0
  5  6  1  0  0  0
  6 37  1  0  0  0
  7  8  2  0  0  0
  7 12  1  0  0  0
  7 38  1  0  0  0
  8  9  1  0  0  0
  8 13  1  0  0  0
  9 10  2  0  0  0
  9 39  1  0  0  0
 10 11  1  0  0  0
 10 40  1  0  0  0
 11 12  2  0  0  0
 12 41  1  0  0  0
 13 31  2  0  0  0
 13 14  1  0  0  0
 14 15  1  0  0  0
 14 42  1  0  0  0
 15 17  1  0  0  0
 15 16  1  0  0  0
 15 43  1  0  0  0
 16 44  1  0  0  0
 16 45  1  0  0  0
 16 46  1  0  0  0
 17 20  1  0  0  0
 17 18  1  0  0  0
 17 47  1  0  0  0
 18 30  2  0  0  0
 18 19  1  0  0  0
 19 32  1  0  0  0
 20 26  1  0  0  0
 20 48  1  0  0  0
 20 49  1  0  0  0
 21 26  1  0  0  0
 21 22  2  0  0  0
 21 50  1  0  0  0
 22 27  1  0  0  0
 22 23  1  0  0  0
 23 24  2  0  0  0
 23 51  1  0  0  0
 24 25  1  0  0  0
 24 52  1  0  0  0
 25 26  2  0  0  0
 25 53  1  0  0  0
 27 29  1  0  0  0
 27 28  2  0  0  0
 28 54  1  0  0  0
 28 60  1  0  0  0
 29 55  1  0  0  0
 29 56  1  0  0  0
 32 57  1  0  0  0
 32 58  1  0  0  0
 32 59  1  0  0  0
M  CHG  3   5   1  28   1  33  -1
M  END
> <s_m_source_file>
../1ksn_ligand.sdf

> <i_m_source_file_index>
1

> <s_epik_input>
W2NIXTFbY0hdW24rXShbTy1dKVtjSF1bY0hdYzEtYyhbY0hdW2NIXTIpW2NIXVtjSF1jMkMoPU8pW05IXVtDQEhdKFtDSDNdKVtDQEhdKEMoPU8pT1tDSDNdKVtDSDJdYyhbY0hdW2NIXVtjSF0zKVtjSF1jMy9DKD1OXFtIXSlbTkgyXQ==

> <s_epik_cmdline>
J2VwaWtfYXBwJywgJy1pbWFlJywgJ2xpZ2FuZF9wcm8ubWFlJywgJy1vbWFlJywgJ2xpZ2FuZF9wcmVwLm1hZScsICctbXMnLCAnMScsICctcGgnLCAnNycsICctcGh0JywgJzAuNScsICctbnQn

> <r_lp_tautomer_probability>
1

> <r_epik_Ionization_Penalty>
  0.0002

> <r_epik_Ionization_Penalty_Charging>
  0.0002

> <r_epik_Ionization_Penalty_Neutral>
  0.0000

> <r_epik_State_Penalty>
 -0.0000

> <r_epik_Charging_Adjusted_Penalty>
0.000184862457512296

> <i_epik_Tot_Q>
1

> <i_epik_Tot_abs_Q>
3

> <s_epik_Chemistry_Notes>
This compound has an ester and may undergo hydrolysis at high or low pH. This compound has an imine and may undergo hydrolysis.

$$$$
