1kti_ligand
                    3D
 Schrodinger Suite 2020-3.
 34 34  0  0  1  0            999 V2000
   33.4160   22.8210   27.8210 C   0  0  1  0  0  0
   33.7160   23.0440   26.3300 C   0  0  2  0  0  0
   33.8450   24.4240   26.0560 O   0  0  0  0  0  0
   32.6040   22.4320   25.4650 C   0  0  1  0  0  0
   32.9470   22.5150   24.0980 O   0  0  0  0  0  0
   32.3730   20.9670   25.8430 C   0  0  2  0  0  0
   31.2540   20.4710   25.1430 O   0  0  0  0  0  0
   32.1520   20.8170   27.3540 C   0  0  2  0  0  0
   33.2490   21.4160   28.0610 O   0  0  0  0  0  0
   32.0780   19.3360   27.7240 C   0  0  0  0  0  0
   33.2250   18.6610   27.2630 O   0  0  0  0  0  0
   34.5040   23.3140   28.6550 N   0  0  0  0  0  0
   34.2360   23.8900   29.8270 C   0  0  0  0  0  0
   33.0670   24.0450   30.1890 O   0  0  0  0  0  0
   35.2460   24.3260   30.5900 N   0  0  0  0  0  0
   36.5280   24.1600   30.2510 C   0  0  0  0  0  0
   37.5490   24.3450   31.3640 C   0  0  0  0  0  0
   36.8910   23.8660   29.1140 O   0  0  0  0  0  0
   32.4978   23.3392   28.1346 H   0  0  0  0  0  0
   34.6976   22.6270   26.0607 H   0  0  0  0  0  0
   34.5982   25.0226   26.5893 H   0  0  0  0  0  0
   31.6763   23.0156   25.5590 H   0  0  0  0  0  0
   33.1516   23.4943   23.6408 H   0  0  0  0  0  0
   33.2172   20.3436   25.5134 H   0  0  0  0  0  0
   31.2369   20.4978   24.0435 H   0  0  0  0  0  0
   31.2441   21.3512   27.6707 H   0  0  0  0  0  0
   32.0156   19.2339   28.8175 H   0  0  0  0  0  0
   31.1863   18.8868   27.2624 H   0  0  0  0  0  0
   33.3379   17.5818   27.4437 H   0  0  0  0  0  0
   35.5459   23.2109   28.3175 H   0  0  0  0  0  0
   35.0358   24.8439   31.5374 H   0  0  0  0  0  0
   37.0297   24.6032   32.2987 H   0  0  0  0  0  0
   38.2428   25.1549   31.0942 H   0  0  0  0  0  0
   38.1125   23.4107   31.5036 H   0  0  0  0  0  0
  1  2  1  0  0  0
  1  9  1  0  0  0
  1 12  1  0  0  0
  1 19  1  0  0  0
  2  3  1  0  0  0
  2  4  1  0  0  0
  2 20  1  0  0  0
  3 21  1  0  0  0
  4  5  1  0  0  0
  4  6  1  0  0  0
  4 22  1  0  0  0
  5 23  1  0  0  0
  6  7  1  0  0  0
  6  8  1  0  0  0
  6 24  1  0  0  0
  7 25  1  0  0  0
  8  9  1  0  0  0
  8 10  1  0  0  0
  8 26  1  0  0  0
 10 11  1  0  0  0
 10 27  1  0  0  0
 10 28  1  0  0  0
 11 29  1  0  0  0
 12 13  1  0  0  0
 12 30  1  0  0  0
 13 14  2  0  0  0
 13 15  1  0  0  0
 15 16  1  0  0  0
 15 31  1  0  0  0
 16 17  1  0  0  0
 16 18  2  0  0  0
 17 32  1  0  0  0
 17 33  1  0  0  0
 17 34  1  0  0  0
M  END
> <s_m_source_file>
../1kti_ligand.sdf

> <i_m_source_file_index>
1

> <s_epik_input>
W0NIM11DKD1PKVtOSF1DKD1PKVtOSF1bQ0BIXTFbQ0BIXShbT0hdKVtDQEBIXShbT0hdKVtDQEhdKFtPSF0pW0NASF0oTzEpW0NIMl1bT0hd

> <s_epik_cmdline>
J2VwaWtfYXBwJywgJy1pbWFlJywgJ2xpZ2FuZF9wcm8ubWFlJywgJy1vbWFlJywgJ2xpZ2FuZF9wcmVwLm1hZScsICctbXMnLCAnMScsICctcGgnLCAnNycsICctcGh0JywgJzAuNScsICctbnQn

> <r_lp_tautomer_probability>
1

> <r_epik_Ionization_Penalty>
  0.0000

> <r_epik_Ionization_Penalty_Charging>
  0.0000

> <r_epik_Ionization_Penalty_Neutral>
  0.0000

> <r_epik_State_Penalty>
 -0.0000

> <r_epik_Charging_Adjusted_Penalty>
0

> <i_epik_Tot_Q>
0

> <i_epik_Tot_abs_Q>
0

> <s_epik_Chemistry_Notes>
This compound contains an acetal/aminal-like group ( X-CH(R)-Y where X, Y are N, S, or O) that may be acid/base labile, releasing an aldehyde.

$$$$
