1ktt_ligand
                    3D
 Schrodinger Suite 2020-3.
 52 55  0  0  1  0            999 V2000
   10.5800  -10.5680   24.5650 N   0  3  0  0  0  0
   10.8260  -11.5850   23.7070 C   0  0  0  0  0  0
    9.9610  -12.6250   23.6480 N   0  0  0  0  0  0
   12.0260  -11.5830   22.8940 C   0  0  0  0  0  0
   12.8560  -10.4630   22.8750 C   0  0  0  0  0  0
   14.0230  -10.4530   22.1090 C   0  0  0  0  0  0
   14.3710  -11.5740   21.3480 C   0  0  0  0  0  0
   13.5360  -12.6990   21.3620 C   0  0  0  0  0  0
   12.3660  -12.7030   22.1330 C   0  0  0  0  0  0
   15.6440  -11.5630   20.5380 C   0  0  0  0  0  0
   16.6320  -12.5900   21.0740 C   0  0  0  0  0  0
   16.3080  -13.6130   21.8710 N   0  0  0  0  0  0
   17.4150  -14.3100   22.1470 C   0  0  0  0  0  0
   18.4710  -13.6880   21.4910 C   0  0  0  0  0  0
   17.9620  -12.6300   20.8380 N   0  0  0  0  0  0
   18.7180  -11.6760   20.0070 C   0  0  0  0  0  0
   19.7580  -14.2200   21.6130 C   0  0  0  0  0  0
   19.9860  -15.3780   22.3920 C   0  0  0  0  0  0
   18.9250  -15.9900   23.0380 C   0  0  0  0  0  0
   17.6360  -15.4450   22.9100 C   0  0  0  0  0  0
   19.1080  -17.0040   23.9640 N   0  0  0  0  0  0
   19.4730  -16.7620   25.6550 S   0  0  0  0  0  0
   20.6620  -15.5090   25.7670 C   0  0  0  0  0  0
   21.9330  -15.7250   25.2280 C   0  0  0  0  0  0
   22.9010  -14.7190   25.2980 C   0  0  0  0  0  0
   22.5950  -13.5020   25.9050 C   0  0  0  0  0  0
   21.3240  -13.2870   26.4430 C   0  0  0  0  0  0
   20.3580  -14.2910   26.3720 C   0  0  0  0  0  0
   18.2750  -16.3900   26.3610 O   0  0  0  0  0  0
   20.0010  -17.9430   26.2710 O   0  0  0  0  0  0
   11.2746   -9.7170   24.6229 H   0  0  0  0  0  0
    9.0521  -12.6203   24.2676 H   0  0  0  0  0  0
   10.1671  -13.4746   22.9804 H   0  0  0  0  0  0
   12.5908   -9.5855   23.4647 H   0  0  0  0  0  0
   14.6635   -9.5711   22.1039 H   0  0  0  0  0  0
   13.7980  -13.5759   20.7699 H   0  0  0  0  0  0
   11.7207  -13.5814   22.1386 H   0  0  0  0  0  0
   15.4137  -11.8046   19.4899 H   0  0  0  0  0  0
   16.1042  -10.5653   20.5917 H   0  0  0  0  0  0
   18.0314  -10.9175   19.6029 H   0  0  0  0  0  0
   19.1995  -12.2140   19.1771 H   0  0  0  0  0  0
   19.4873  -11.1845   20.6208 H   0  0  0  0  0  0
   20.5926  -13.7383   21.1035 H   0  0  0  0  0  0
   20.9922  -15.7869   22.4835 H   0  0  0  0  0  0
   16.7981  -15.9221   23.4183 H   0  0  0  0  0  0
   19.0074  -18.0235   23.5635 H   0  0  0  0  0  0
   22.1694  -16.6773   24.7533 H   0  0  0  0  0  0
   23.8932  -14.8858   24.8787 H   0  0  0  0  0  0
   23.3489  -12.7167   25.9599 H   0  0  0  0  0  0
   21.0870  -12.3351   26.9182 H   0  0  0  0  0  0
   19.3654  -14.1227   26.7898 H   0  0  0  0  0  0
    9.6854  -10.5922   25.2046 H   0  0  0  0  0  0
  1  2  2  0  0  0
  1 31  1  0  0  0
  1 52  1  0  0  0
  2  4  1  0  0  0
  2  3  1  0  0  0
  3 32  1  0  0  0
  3 33  1  0  0  0
  4  9  2  0  0  0
  4  5  1  0  0  0
  5  6  2  0  0  0
  5 34  1  0  0  0
  6  7  1  0  0  0
  6 35  1  0  0  0
  7 10  1  0  0  0
  7  8  2  0  0  0
  8  9  1  0  0  0
  8 36  1  0  0  0
  9 37  1  0  0  0
 10 11  1  0  0  0
 10 38  1  0  0  0
 10 39  1  0  0  0
 11 15  1  0  0  0
 11 12  2  0  0  0
 12 13  1  0  0  0
 13 20  2  0  0  0
 13 14  1  0  0  0
 14 17  2  0  0  0
 14 15  1  0  0  0
 15 16  1  0  0  0
 16 40  1  0  0  0
 16 41  1  0  0  0
 16 42  1  0  0  0
 17 18  1  0  0  0
 17 43  1  0  0  0
 18 19  2  0  0  0
 18 44  1  0  0  0
 19 21  1  0  0  0
 19 20  1  0  0  0
 20 45  1  0  0  0
 21 22  1  0  0  0
 21 46  1  0  0  0
 22 30  2  0  0  0
 22 29  2  0  0  0
 22 23  1  0  0  0
 23 28  2  0  0  0
 23 24  1  0  0  0
 24 25  2  0  0  0
 24 47  1  0  0  0
 25 26  1  0  0  0
 25 48  1  0  0  0
 26 27  2  0  0  0
 26 49  1  0  0  0
 27 28  1  0  0  0
 27 50  1  0  0  0
 28 51  1  0  0  0
M  CHG  1   1   1
M  END
> <s_m_source_file>
../1ktt_ligand.sdf

> <i_m_source_file_index>
1

> <s_epik_input>
W0hdL049QyhcW05IMl0pYzFbY0hdW2NIXWMoW2NIXVtjSF0xKVtDSDJdYyhuMiluKFtDSDNdKWMoYzIzKVtjSF1bY0hdYyhbY0hdMylbTkhdUyg9TykoPU8pYzRbY0hdW2NIXVtjSF1bY0hdW2NIXTQ=

> <s_epik_cmdline>
J2VwaWtfYXBwJywgJy1pbWFlJywgJ2xpZ2FuZF9wcm8ubWFlJywgJy1vbWFlJywgJ2xpZ2FuZF9wcmVwLm1hZScsICctbXMnLCAnMScsICctcGgnLCAnNycsICctcGh0JywgJzAuNScsICctbnQn

> <r_lp_tautomer_probability>
1

> <r_epik_Ionization_Penalty>
  0.0296

> <r_epik_Ionization_Penalty_Charging>
  0.0002

> <r_epik_Ionization_Penalty_Neutral>
  0.0294

> <r_epik_State_Penalty>
 -0.0000

> <r_epik_Charging_Adjusted_Penalty>
0.000162947685306239

> <i_epik_Tot_Q>
1

> <i_epik_Tot_abs_Q>
1

> <s_epik_Chemistry_Notes>
This compound has an imine and may undergo hydrolysis.

$$$$
