1kug_ligand
                    3D
 Schrodinger Suite 2020-3.
 52 54  0  0  1  0            999 V2000
   14.7340    9.7220    3.5610 N   0  0  0  0  0  0
   14.5310    9.7960    5.0170 C   0  0  2  0  0  0
   13.0330    9.8100    5.2580 C   0  0  0  0  0  0
   12.2950   10.5840    4.6390 O   0  0  0  0  0  0
   15.1570   11.0830    5.5440 C   0  0  0  0  0  0
   15.5720   11.8090    4.3110 C   0  0  0  0  0  0
   15.2400   10.8890    3.1720 C   0  0  0  0  0  0
   15.4200   11.1820    1.9940 O   0  0  0  0  0  0
   12.5690    8.9570    6.1580 N   0  0  0  0  0  0
   11.1470    8.8960    6.4520 C   0  0  2  0  0  0
   10.8900    9.6840    7.7290 C   0  0  0  0  0  0
   11.6330    9.5580    8.6920 O   0  0  0  0  0  0
   10.6990    7.4480    6.7070 C   0  0  0  0  0  0
   10.3820    6.6900    5.4250 C   0  0  0  0  0  0
    9.5140    7.0940    4.6430 O   0  0  0  0  0  0
   11.0820    5.5780    5.2100 N   0  0  0  0  0  0
    9.8480   10.5060    7.7090 N   0  0  0  0  0  0
    9.4280   11.2720    8.8820 C   0  0  2  0  0  0
    7.9450   11.5410    8.7920 C   0  0  0  0  0  0
    7.3180   11.9290    9.7860 O   0  0  0  0  0  0
   10.1990   12.5860    9.0170 C   0  0  0  0  0  0
    9.8990   13.7170    8.0130 C   0  0  0  0  0  0
    9.2560   13.6470    6.8000 C   0  0  0  0  0  0
   10.2400   15.0840    8.2040 C   0  0  0  0  0  0
    9.1800   14.9050    6.2250 N   0  0  0  0  0  0
    9.7730   15.8100    7.0650 C   0  0  0  0  0  0
   10.8860   15.7750    9.2180 C   0  0  0  0  0  0
    9.9360   17.1980    6.9360 C   0  0  0  0  0  0
   11.0630   17.1550    9.0990 C   0  0  0  0  0  0
   10.5910   17.8570    7.9710 C   0  0  0  0  0  0
    7.3740   11.3840    7.6910 O   0  5  0  0  0  0
   14.4712    8.8039    3.0150 H   0  0  0  0  0  0
   15.0034    8.9295    5.5028 H   0  0  0  0  0  0
   14.4094   11.6434    6.1245 H   0  0  0  0  0  0
   16.0131   10.8369    6.1894 H   0  0  0  0  0  0
   15.0159   12.7553    4.2380 H   0  0  0  0  0  0
   16.6506   12.0201    4.3553 H   0  0  0  0  0  0
   13.2686    8.2914    6.6848 H   0  0  0  0  0  0
   10.6385    9.3208    5.5740 H   0  0  0  0  0  0
   11.4996    6.9030    7.2286 H   0  0  0  0  0  0
    9.7912    7.4490    7.3282 H   0  0  0  0  0  0
   11.8446    5.2592    5.9358 H   0  0  0  0  0  0
   10.8977    4.9781    4.3065 H   0  0  0  0  0  0
    9.2934   10.5995    6.7636 H   0  0  0  0  0  0
    9.6537   10.6405    9.7539 H   0  0  0  0  0  0
   10.0025   13.0265   10.0056 H   0  0  0  0  0  0
   11.2764   12.3917    8.9098 H   0  0  0  0  0  0
    8.8306   12.7771    6.2781 H   0  0  0  0  0  0
   11.2574   15.2477   10.1091 H   0  0  0  0  0  0
    9.5526   17.7163    6.0447 H   0  0  0  0  0  0
   11.5786   17.7139    9.8938 H   0  0  0  0  0  0
   10.7420   18.9347    7.9090 H   0  0  0  0  0  0
  1  2  1  0  0  0
  1  7  1  0  0  0
  1 32  1  0  0  0
  2  3  1  0  0  0
  2  5  1  0  0  0
  2 33  1  0  0  0
  3  4  2  0  0  0
  3  9  1  0  0  0
  5  6  1  0  0  0
  5 34  1  0  0  0
  5 35  1  0  0  0
  6  7  1  0  0  0
  6 36  1  0  0  0
  6 37  1  0  0  0
  7  8  2  0  0  0
  9 10  1  0  0  0
  9 38  1  0  0  0
 10 11  1  0  0  0
 10 13  1  0  0  0
 10 39  1  0  0  0
 11 12  2  0  0  0
 11 17  1  0  0  0
 13 14  1  0  0  0
 13 40  1  0  0  0
 13 41  1  0  0  0
 14 15  2  0  0  0
 14 16  1  0  0  0
 16 42  1  0  0  0
 16 43  1  0  0  0
 17 18  1  0  0  0
 17 44  1  0  0  0
 18 19  1  0  0  0
 18 21  1  0  0  0
 18 45  1  0  0  0
 19 31  1  0  0  0
 19 20  2  0  0  0
 21 22  1  0  0  0
 21 46  1  0  0  0
 21 47  1  0  0  0
 22 24  2  0  0  0
 22 23  1  0  0  0
 23 25  2  0  0  0
 23 48  1  0  0  0
 24 26  1  0  0  0
 24 27  1  0  0  0
 25 26  1  0  0  0
 26 28  2  0  0  0
 27 29  2  0  0  0
 27 49  1  0  0  0
 28 30  1  0  0  0
 28 50  1  0  0  0
 29 30  1  0  0  0
 29 51  1  0  0  0
 30 52  1  0  0  0
M  CHG  1  31  -1
M  END
> <s_m_source_file>
../1kug_ligand.sdf

> <i_m_source_file_index>
1

> <s_epik_input>
W0NIMl0xW0NIMl1DKD1PKVtOSF1bQ0BASF0xQyg9TylbTkhdW0NAQEhdKFtDSDJdQyg9TylbTkgyXSlDKD1PKVtOSF1bQ0BIXShDKD1PKVtPSF0pW0NIMl1DPTJbQ0hdPU5DKEMyMyk9W0NIXVtDSDJdW0NIXT1bQ0hdMw==

> <s_epik_cmdline>
J2VwaWtfYXBwJywgJy1pbWFlJywgJ2xpZ2FuZF9wcm8ubWFlJywgJy1vbWFlJywgJ2xpZ2FuZF9wcmVwLm1hZScsICctbXMnLCAnMScsICctcGgnLCAnNycsICctcGh0JywgJzAuNScsICctbnQn

> <r_lp_tautomer_probability>
1

> <r_epik_Ionization_Penalty>
  0.0000

> <r_epik_Ionization_Penalty_Charging>
  0.0000

> <r_epik_Ionization_Penalty_Neutral>
  0.0000

> <r_epik_State_Penalty>
 -0.0000

> <r_epik_Charging_Adjusted_Penalty>
2.75421930567162e-05

> <i_epik_Tot_Q>
-1

> <i_epik_Tot_abs_Q>
1

> <s_epik_Chemistry_Notes>
This compound has an imine and may undergo hydrolysis.

$$$$
