1kui_ligand
                    3D
 Schrodinger Suite 2020-3.
 55 57  0  0  1  0            999 V2000
   14.4190    8.8560    3.4020 N   0  0  0  0  0  0
   14.1520    9.0600    4.8420 C   0  0  2  0  0  0
   12.6460    9.0430    5.1030 C   0  0  0  0  0  0
   11.8800    9.7360    4.4280 O   0  0  0  0  0  0
   14.7590   10.4020    5.2550 C   0  0  0  0  0  0
   15.1420   11.0440    3.9910 C   0  0  0  0  0  0
   14.8330   10.0340    2.9230 C   0  0  0  0  0  0
   14.9360   10.2910    1.7250 O   0  0  0  0  0  0
   12.2230    8.2400    6.0760 N   0  0  0  0  0  0
   10.8100    8.1190    6.4210 C   0  0  2  0  0  0
   10.5230    8.7760    7.7650 C   0  0  0  0  0  0
   11.2560    8.5700    8.7340 O   0  0  0  0  0  0
   10.4010    6.6440    6.4680 C   0  0  0  0  0  0
   10.1810    6.0250    5.0920 C   0  0  0  0  0  0
    9.8380    4.5470    5.1580 C   0  0  0  0  0  0
    9.1980    4.0870    6.0970 O   0  0  0  0  0  0
   10.2540    3.8010    4.1510 N   0  0  0  0  0  0
    9.4560    9.5660    7.8140 N   0  0  0  0  0  0
    9.0720   10.2640    9.0330 C   0  0  2  0  0  0
    7.5750   10.5150    9.0310 C   0  0  0  0  0  0
    7.0060   10.7110   10.1200 O   0  0  0  0  0  0
    9.8450   11.5890    9.1470 C   0  0  0  0  0  0
    9.4780   12.6590    8.1430 C   0  0  0  0  0  0
    8.8150   12.4940    6.9570 C   0  0  0  0  0  0
    9.8070   14.0520    8.2220 C   0  0  0  0  0  0
    8.7140   13.6950    6.2950 N   0  0  0  0  0  0
    9.3160   14.6680    7.0490 C   0  0  0  0  0  0
   10.4730   14.8390    9.1700 C   0  0  0  0  0  0
    9.4700   16.0380    6.8000 C   0  0  0  0  0  0
   10.6270   16.2010    8.9200 C   0  0  0  0  0  0
   10.1270   16.7840    7.7440 C   0  0  0  0  0  0
    6.9930   10.5190    7.9300 O   0  5  0  0  0  0
   14.2616    7.8664    2.9482 H   0  0  0  0  0  0
   14.6162    8.2366    5.4046 H   0  0  0  0  0  0
   14.0079   10.9916    5.8010 H   0  0  0  0  0  0
   15.6298   10.2264    5.9038 H   0  0  0  0  0  0
   14.5568   11.9656    3.8558 H   0  0  0  0  0  0
   16.2138   11.2904    4.0149 H   0  0  0  0  0  0
   12.9756    7.6568    6.6269 H   0  0  0  0  0  0
   10.2650    8.6488    5.6259 H   0  0  0  0  0  0
   11.1888    6.0608    6.9673 H   0  0  0  0  0  0
    9.4593    6.5423    7.0272 H   0  0  0  0  0  0
    9.3504    6.5398    4.5869 H   0  0  0  0  0  0
   11.0968    6.1303    4.4919 H   0  0  0  0  0  0
   10.8258    4.2561    3.3288 H   0  0  0  0  0  0
   10.0288    2.7244    4.1343 H   0  0  0  0  0  0
    8.8564    9.6856    6.8996 H   0  0  0  0  0  0
    9.3294    9.5994    9.8709 H   0  0  0  0  0  0
    9.6725   12.0298   10.1399 H   0  0  0  0  0  0
   10.9200   11.3992    9.0118 H   0  0  0  0  0  0
    8.3892   11.5829    6.5114 H   0  0  0  0  0  0
   10.8710   14.4016   10.0975 H   0  0  0  0  0  0
    9.0702   16.4771    5.8741 H   0  0  0  0  0  0
   11.1474   16.8387    9.6497 H   0  0  0  0  0  0
   10.2643   17.8526    7.5784 H   0  0  0  0  0  0
  1  2  1  0  0  0
  1  7  1  0  0  0
  1 33  1  0  0  0
  2  3  1  0  0  0
  2  5  1  0  0  0
  2 34  1  0  0  0
  3  4  2  0  0  0
  3  9  1  0  0  0
  5  6  1  0  0  0
  5 35  1  0  0  0
  5 36  1  0  0  0
  6  7  1  0  0  0
  6 37  1  0  0  0
  6 38  1  0  0  0
  7  8  2  0  0  0
  9 10  1  0  0  0
  9 39  1  0  0  0
 10 11  1  0  0  0
 10 13  1  0  0  0
 10 40  1  0  0  0
 11 12  2  0  0  0
 11 18  1  0  0  0
 13 14  1  0  0  0
 13 41  1  0  0  0
 13 42  1  0  0  0
 14 15  1  0  0  0
 14 43  1  0  0  0
 14 44  1  0  0  0
 15 16  2  0  0  0
 15 17  1  0  0  0
 17 45  1  0  0  0
 17 46  1  0  0  0
 18 19  1  0  0  0
 18 47  1  0  0  0
 19 20  1  0  0  0
 19 22  1  0  0  0
 19 48  1  0  0  0
 20 32  1  0  0  0
 20 21  2  0  0  0
 22 23  1  0  0  0
 22 49  1  0  0  0
 22 50  1  0  0  0
 23 25  2  0  0  0
 23 24  1  0  0  0
 24 26  2  0  0  0
 24 51  1  0  0  0
 25 27  1  0  0  0
 25 28  1  0  0  0
 26 27  1  0  0  0
 27 29  2  0  0  0
 28 30  2  0  0  0
 28 52  1  0  0  0
 29 31  1  0  0  0
 29 53  1  0  0  0
 30 31  1  0  0  0
 30 54  1  0  0  0
 31 55  1  0  0  0
M  CHG  1  32  -1
M  END
> <s_m_source_file>
../1kui_ligand.sdf

> <i_m_source_file_index>
1

> <s_epik_input>
W0NIMl0xW0NIMl1DKD1PKVtOSF1bQ0BASF0xQyg9TylbTkhdW0NAQEhdKFtDSDJdW0NIMl1DKD1PKVtOSDJdKUMoPU8pW05IXVtDQEhdKEMoPU8pW09IXSlbQ0gyXUM9MltDSF09TkMoQzIzKT1bQ0hdW0NIMl1bQ0hdPVtDSF0z

> <s_epik_cmdline>
J2VwaWtfYXBwJywgJy1pbWFlJywgJ2xpZ2FuZF9wcm8ubWFlJywgJy1vbWFlJywgJ2xpZ2FuZF9wcmVwLm1hZScsICctbXMnLCAnMScsICctcGgnLCAnNycsICctcGh0JywgJzAuNScsICctbnQn

> <r_lp_tautomer_probability>
1

> <r_epik_Ionization_Penalty>
  0.0000

> <r_epik_Ionization_Penalty_Charging>
  0.0000

> <r_epik_Ionization_Penalty_Neutral>
  0.0000

> <r_epik_State_Penalty>
 -0.0000

> <r_epik_Charging_Adjusted_Penalty>
2.79872897988461e-05

> <i_epik_Tot_Q>
-1

> <i_epik_Tot_abs_Q>
1

> <s_epik_Chemistry_Notes>
This compound has an imine and may undergo hydrolysis.

$$$$
