1kuk_ligand
                    3D
 Schrodinger Suite 2020-3.
 60 62  0  0  1  0            999 V2000
   14.4660    8.9470    3.5740 N   0  0  0  0  0  0
   14.2340    9.1570    5.0140 C   0  0  2  0  0  0
   12.7310    9.1110    5.1970 C   0  0  0  0  0  0
   12.0110    9.8100    4.4960 O   0  0  0  0  0  0
   14.7620   10.5400    5.3750 C   0  0  0  0  0  0
   14.9680   11.2060    4.0720 C   0  0  0  0  0  0
   14.8050   10.1240    3.0490 C   0  0  0  0  0  0
   14.9810   10.3060    1.8320 O   0  0  0  0  0  0
   12.2500    8.3040    6.1380 N   0  0  0  0  0  0
   10.8270    8.2100    6.3910 C   0  0  2  0  0  0
   10.5100    8.9110    7.6950 C   0  0  0  0  0  0
   11.1900    8.7320    8.7000 O   0  0  0  0  0  0
   10.3460    6.7390    6.4710 C   0  0  0  0  0  0
   10.4510    5.9290    5.1680 C   0  0  0  0  0  0
    9.7910    4.5470    5.3530 C   0  0  0  0  0  0
   10.0040    3.6890    4.0930 C   0  0  0  0  0  0
   11.4620    3.6570    3.7520 N   0  3  0  0  0  0
    9.4740    9.7370    7.6780 N   0  0  0  0  0  0
    9.0230   10.4400    8.9000 C   0  0  2  0  0  0
    7.4940   10.6660    8.9110 C   0  0  0  0  0  0
    6.9190   11.0100    9.9430 O   0  0  0  0  0  0
    9.7590   11.7870    9.0590 C   0  0  0  0  0  0
    9.4310   12.9170    8.0850 C   0  0  0  0  0  0
    8.7080   12.8480    6.9260 C   0  0  0  0  0  0
    9.8540   14.2760    8.2150 C   0  0  0  0  0  0
    8.6610   14.0940    6.3280 N   0  0  0  0  0  0
    9.3550   14.9850    7.1000 C   0  0  0  0  0  0
   10.6100   14.9630    9.1780 C   0  0  0  0  0  0
    9.5750   16.3620    6.9200 C   0  0  0  0  0  0
   10.8380   16.3310    9.0130 C   0  0  0  0  0  0
   10.3180   17.0270    7.8890 C   0  0  0  0  0  0
    6.8580   10.5450    7.8220 O   0  5  0  0  0  0
   14.3456    7.9443    3.1380 H   0  0  0  0  0  0
   14.7384    8.3918    5.6223 H   0  0  0  0  0  0
   14.0195   11.0662    5.9929 H   0  0  0  0  0  0
   15.7016   10.4384    5.9379 H   0  0  0  0  0  0
   14.2181   12.0005    3.9437 H   0  0  0  0  0  0
   15.9762   11.6448    4.0398 H   0  0  0  0  0  0
   12.9548    7.7011    6.7294 H   0  0  0  0  0  0
   10.3556    8.7199    5.5379 H   0  0  0  0  0  0
   10.9445    6.1977    7.2185 H   0  0  0  0  0  0
    9.2858    6.7153    6.7631 H   0  0  0  0  0  0
    9.9393    6.4695    4.3580 H   0  0  0  0  0  0
   11.5105    5.7924    4.9055 H   0  0  0  0  0  0
   10.2419    4.0382    6.2178 H   0  0  0  0  0  0
    8.7122    4.6759    5.5249 H   0  0  0  0  0  0
    9.6489    2.6652    4.2822 H   0  0  0  0  0  0
    9.4405    4.1233    3.2541 H   0  0  0  0  0  0
   11.6146    3.0439    2.8515 H   0  0  0  0  0  0
   12.0253    3.2227    4.5911 H   0  0  0  0  0  0
   11.8169    4.6809    3.5629 H   0  0  0  0  0  0
    8.9457    9.8947    6.7261 H   0  0  0  0  0  0
    9.2903    9.7600    9.7223 H   0  0  0  0  0  0
    9.5481   12.2048   10.0545 H   0  0  0  0  0  0
   10.8420   11.6282    8.9499 H   0  0  0  0  0  0
    8.2031   11.9921    6.4542 H   0  0  0  0  0  0
   11.0207   14.4386   10.0534 H   0  0  0  0  0  0
    9.1646   16.8737    6.0370 H   0  0  0  0  0  0
   11.4273   16.8843    9.7591 H   0  0  0  0  0  0
   10.5039   18.0960    7.7849 H   0  0  0  0  0  0
  1  2  1  0  0  0
  1  7  1  0  0  0
  1 33  1  0  0  0
  2  3  1  0  0  0
  2  5  1  0  0  0
  2 34  1  0  0  0
  3  4  2  0  0  0
  3  9  1  0  0  0
  5  6  1  0  0  0
  5 35  1  0  0  0
  5 36  1  0  0  0
  6  7  1  0  0  0
  6 37  1  0  0  0
  6 38  1  0  0  0
  7  8  2  0  0  0
  9 10  1  0  0  0
  9 39  1  0  0  0
 10 11  1  0  0  0
 10 13  1  0  0  0
 10 40  1  0  0  0
 11 12  2  0  0  0
 11 18  1  0  0  0
 13 14  1  0  0  0
 13 41  1  0  0  0
 13 42  1  0  0  0
 14 15  1  0  0  0
 14 43  1  0  0  0
 14 44  1  0  0  0
 15 16  1  0  0  0
 15 45  1  0  0  0
 15 46  1  0  0  0
 16 17  1  0  0  0
 16 47  1  0  0  0
 16 48  1  0  0  0
 17 49  1  0  0  0
 17 50  1  0  0  0
 17 51  1  0  0  0
 18 19  1  0  0  0
 18 52  1  0  0  0
 19 20  1  0  0  0
 19 22  1  0  0  0
 19 53  1  0  0  0
 20 32  1  0  0  0
 20 21  2  0  0  0
 22 23  1  0  0  0
 22 54  1  0  0  0
 22 55  1  0  0  0
 23 25  2  0  0  0
 23 24  1  0  0  0
 24 26  2  0  0  0
 24 56  1  0  0  0
 25 27  1  0  0  0
 25 28  1  0  0  0
 26 27  1  0  0  0
 27 29  2  0  0  0
 28 30  2  0  0  0
 28 57  1  0  0  0
 29 31  1  0  0  0
 29 58  1  0  0  0
 30 31  1  0  0  0
 30 59  1  0  0  0
 31 60  1  0  0  0
M  CHG  2  17   1  32  -1
M  END
> <s_m_source_file>
../1kuk_ligand.sdf

> <i_m_source_file_index>
1

> <s_epik_input>
W0NIMl0xW0NIMl1DKD1PKVtOSF1bQ0BASF0xQyg9TylbTkhdW0NAQEhdKFtDSDJdW0NIMl1bQ0gyXVtDSDJdW05IMytdKUMoPU8pW05IXVtDQEhdKEMoPU8pW09IXSlbQ0gyXUM9MltDSF09TkMoQzIzKT1bQ0hdW0NIMl1bQ0hdPVtDSF0z

> <s_epik_cmdline>
J2VwaWtfYXBwJywgJy1pbWFlJywgJ2xpZ2FuZF9wcm8ubWFlJywgJy1vbWFlJywgJ2xpZ2FuZF9wcmVwLm1hZScsICctbXMnLCAnMScsICctcGgnLCAnNycsICctcGh0JywgJzAuNScsICctbnQn

> <r_lp_tautomer_probability>
1

> <r_epik_Ionization_Penalty>
  0.0005

> <r_epik_Ionization_Penalty_Charging>
  0.0005

> <r_epik_Ionization_Penalty_Neutral>
  0.0000

> <r_epik_State_Penalty>
 -0.0000

> <r_epik_Charging_Adjusted_Penalty>
0.000472405579598821

> <i_epik_Tot_Q>
0

> <i_epik_Tot_abs_Q>
2

> <s_epik_Chemistry_Notes>
This compound has an imine and may undergo hydrolysis.

$$$$
