1kv1_ligand
                    3D
 Schrodinger Suite 2020-3.
 40 41  0  0  1  0            999 V2000
   33.3350   33.7310   14.7430 C   0  0  0  0  0  0
   32.6010   34.5460   15.3330 O   0  0  0  0  0  0
   34.5710   33.5060   15.1830 N   0  0  0  0  0  0
   35.1480   34.1290   16.2090 C   0  0  0  0  0  0
   36.4480   34.4790   16.0740 C   0  0  0  0  0  0
   37.1140   35.1040   17.1080 C   0  0  0  0  0  0
   36.4760   35.3630   18.2450 C   0  0  0  0  0  0
   35.1700   35.0230   18.4040 C   0  0  0  0  0  0
   34.4900   34.3920   17.3610 C   0  0  0  0  0  0
   32.9130   33.0390   13.6810 N   0  0  0  0  0  0
   31.7140   33.1640   13.1110 C   0  0  0  0  0  0
   31.0350   34.3170   12.8600 C   0  0  0  0  0  0
   29.8770   33.9530   12.1980 C   0  0  0  0  0  0
   29.8450   32.6300   12.0430 N   0  0  0  0  0  0
   31.0160   32.1480   12.6350 N   0  0  0  0  0  0
   31.4020   30.7330   12.7230 C   0  0  0  0  0  0
   28.3360   35.6290   12.9670 C   0  0  0  0  0  0
   27.7110   33.9850   11.1740 C   0  0  0  0  0  0
   29.4050   35.7600   10.6900 C   0  0  0  0  0  0
   28.8780   34.8070   11.7780 C   0  0  0  0  0  0
   37.3570   36.1330   19.5340 Cl  0  0  0  0  0  0
   35.2023   32.7530   14.6885 H   0  0  0  0  0  0
   36.9724   34.2658   15.1425 H   0  0  0  0  0  0
   38.1609   35.3848   16.9929 H   0  0  0  0  0  0
   34.6565   35.2417   19.3403 H   0  0  0  0  0  0
   33.4419   34.1147   17.4735 H   0  0  0  0  0  0
   33.5748   32.2979   13.2090 H   0  0  0  0  0  0
   31.3434   35.3275   13.1280 H   0  0  0  0  0  0
   32.3698   30.6484   13.2390 H   0  0  0  0  0  0
   31.4886   30.3129   11.7101 H   0  0  0  0  0  0
   30.6366   30.1785   13.2858 H   0  0  0  0  0  0
   27.9599   34.9465   13.7434 H   0  0  0  0  0  0
   27.5177   36.2779   12.6214 H   0  0  0  0  0  0
   29.1442   36.2483   13.3833 H   0  0  0  0  0  0
   27.3166   33.2948   11.9344 H   0  0  0  0  0  0
   28.0762   33.4095   10.3106 H   0  0  0  0  0  0
   26.9120   34.6673   10.8484 H   0  0  0  0  0  0
   30.2360   36.3558   11.0956 H   0  0  0  0  0  0
   28.5957   36.4315   10.3674 H   0  0  0  0  0  0
   29.7599   35.1737    9.8296 H   0  0  0  0  0  0
  1 10  1  0  0  0
  1  3  1  0  0  0
  1  2  2  0  0  0
  3  4  1  0  0  0
  3 22  1  0  0  0
  4  9  2  0  0  0
  4  5  1  0  0  0
  5  6  2  0  0  0
  5 23  1  0  0  0
  6  7  1  0  0  0
  6 24  1  0  0  0
  7  8  2  0  0  0
  7 21  1  0  0  0
  8  9  1  0  0  0
  8 25  1  0  0  0
  9 26  1  0  0  0
 10 11  1  0  0  0
 10 27  1  0  0  0
 11 15  1  0  0  0
 11 12  2  0  0  0
 12 13  1  0  0  0
 12 28  1  0  0  0
 13 20  1  0  0  0
 13 14  2  0  0  0
 14 15  1  0  0  0
 15 16  1  0  0  0
 16 29  1  0  0  0
 16 30  1  0  0  0
 16 31  1  0  0  0
 17 20  1  0  0  0
 17 32  1  0  0  0
 17 33  1  0  0  0
 17 34  1  0  0  0
 18 20  1  0  0  0
 18 35  1  0  0  0
 18 36  1  0  0  0
 18 37  1  0  0  0
 19 20  1  0  0  0
 19 38  1  0  0  0
 19 39  1  0  0  0
 19 40  1  0  0  0
M  END
> <s_m_source_file>
../1kv1_ligand.sdf

> <i_m_source_file_index>
1

> <s_epik_input>
W0NIM11uMW5jKEMoW0NIM10pKFtDSDNdKVtDSDNdKVtjSF1jMVtOSF1DKD1PKVtOSF1jMltjSF1bY0hdYyhDbClbY0hdW2NIXTI=

> <s_epik_cmdline>
J2VwaWtfYXBwJywgJy1pbWFlJywgJ2xpZ2FuZF9wcm8ubWFlJywgJy1vbWFlJywgJ2xpZ2FuZF9wcmVwLm1hZScsICctbXMnLCAnMScsICctcGgnLCAnNycsICctcGh0JywgJzAuNScsICctbnQn

> <r_lp_tautomer_probability>
1

> <r_epik_Ionization_Penalty>
  0.0001

> <r_epik_Ionization_Penalty_Charging>
  0.0000

> <r_epik_Ionization_Penalty_Neutral>
  0.0001

> <r_epik_State_Penalty>
 -0.0000

> <r_epik_Charging_Adjusted_Penalty>
0

> <i_epik_Tot_Q>
0

> <i_epik_Tot_abs_Q>
0

$$$$
