1kv2_ligand
                    3D
 Schrodinger Suite 2020-3.
 76 80  0  0  1  0            999 V2000
   32.8500   33.9990   15.3520 C   0  0  0  0  0  0
   31.9630   34.5370   16.0310 O   0  0  0  0  0  0
   34.0770   33.8920   15.8400 N   0  0  0  0  0  0
   34.4030   34.4490   16.9930 C   0  0  0  0  0  0
   35.4970   35.2570   16.9940 C   0  0  0  0  0  0
   35.9010   35.8800   18.1430 C   0  0  0  0  0  0
   35.1810   35.6970   19.2810 C   0  0  0  0  0  0
   36.2220   35.4440   15.8200 C   0  0  0  0  0  0
   37.3710   36.2710   15.8060 C   0  0  0  0  0  0
   37.7830   36.8970   16.9510 C   0  0  0  0  0  0
   37.0550   36.7140   18.1170 C   0  0  0  0  0  0
   34.0700   34.8730   19.2770 C   0  0  0  0  0  0
   33.6800   34.2450   18.0870 C   0  0  0  0  0  0
   32.6030   33.4680   14.1560 N   0  0  0  0  0  0
   31.4490   33.4970   13.4860 C   0  0  0  0  0  0
   30.6230   34.5430   13.3720 C   0  0  0  0  0  0
   29.6480   34.1840   12.5140 C   0  0  0  0  0  0
   29.8430   32.9430   12.0960 N   0  0  0  0  0  0
   31.0020   32.5220   12.7310 N   0  0  0  0  0  0
   31.5890   31.3350   12.5550 C   0  0  0  0  0  0
   27.9030   35.6540   13.3180 C   0  0  0  0  0  0
   27.5700   34.2410   11.3750 C   0  0  0  0  0  0
   29.0900   36.1090   11.2190 C   0  0  0  0  0  0
   28.6570   34.9690   12.1470 C   0  0  0  0  0  0
   31.7510   30.9020   11.3070 C   0  0  0  0  0  0
   32.3860   29.7130   11.0460 C   0  0  0  0  0  0
   32.8550   28.9620   12.0800 C   0  0  0  0  0  0
   32.6890   29.3990   13.3870 C   0  0  0  0  0  0
   32.0420   30.6080   13.6170 C   0  0  0  0  0  0
   33.5550   27.6910   11.7990 C   0  0  0  0  0  0
   35.5610   36.3180   20.3550 O   0  0  0  0  0  0
   34.8700   35.9700   21.5440 C   0  0  0  0  0  0
   35.2040   37.0260   22.6080 C   0  0  0  0  0  0
   34.1660   38.0790   22.8130 N   0  0  0  0  0  0
   34.0940   38.8980   21.6080 C   0  0  0  0  0  0
   33.8330   40.3930   21.8460 C   0  0  0  0  0  0
   34.7250   40.9080   22.8030 O   0  0  0  0  0  0
   34.3530   40.3450   24.0060 C   0  0  0  0  0  0
   34.6010   38.8440   23.9970 C   0  0  0  0  0  0
   34.8434   33.3325   15.2836 H   0  0  0  0  0  0
   35.9019   34.9490   14.9031 H   0  0  0  0  0  0
   37.9293   36.4096   14.8801 H   0  0  0  0  0  0
   38.6703   37.5301   16.9466 H   0  0  0  0  0  0
   37.3718   37.2177   19.0302 H   0  0  0  0  0  0
   33.5019   34.7134   20.1934 H   0  0  0  0  0  0
   32.8004   33.6018   18.0602 H   0  0  0  0  0  0
   33.3996   32.9360   13.6153 H   0  0  0  0  0  0
   30.7202   35.5038   13.8775 H   0  0  0  0  0  0
   27.5598   34.8893   14.0303 H   0  0  0  0  0  0
   27.0355   36.2036   12.9239 H   0  0  0  0  0  0
   28.5793   36.3546   13.8297 H   0  0  0  0  0  0
   27.1973   33.3971   11.9741 H   0  0  0  0  0  0
   27.9829   33.8641   10.4277 H   0  0  0  0  0  0
   26.7427   34.9347   11.1642 H   0  0  0  0  0  0
   29.8843   36.6952   11.7043 H   0  0  0  0  0  0
   28.2282   36.7604   11.0116 H   0  0  0  0  0  0
   29.4683   35.6897   10.2750 H   0  0  0  0  0  0
   31.3733   31.5012   10.4785 H   0  0  0  0  0  0
   32.5137   29.3729   10.0183 H   0  0  0  0  0  0
   33.0604   28.8031   14.2207 H   0  0  0  0  0  0
   31.8982   30.9711   14.6347 H   0  0  0  0  0  0
   33.5840   27.5208   10.7126 H   0  0  0  0  0  0
   33.0199   26.8623   12.2858 H   0  0  0  0  0  0
   34.5820   27.7440   12.1894 H   0  0  0  0  0  0
   33.7877   35.9550   21.3480 H   0  0  0  0  0  0
   35.1957   34.9743   21.8794 H   0  0  0  0  0  0
   35.3444   36.5338   23.5817 H   0  0  0  0  0  0
   36.1285   37.5511   22.3259 H   0  0  0  0  0  0
   35.0460   38.8302   21.0612 H   0  0  0  0  0  0
   33.2765   38.5362   20.9671 H   0  0  0  0  0  0
   33.9672   40.9433   20.9030 H   0  0  0  0  0  0
   32.8039   40.5324   22.2085 H   0  0  0  0  0  0
   34.9394   40.7973   24.8194 H   0  0  0  0  0  0
   33.2824   40.5273   24.1807 H   0  0  0  0  0  0
   34.0840   38.4629   24.8900 H   0  0  0  0  0  0
   35.6876   38.7324   24.1268 H   0  0  0  0  0  0
  1  2  2  0  0  0
  1  3  1  0  0  0
  1 14  1  0  0  0
  3  4  1  0  0  0
  3 40  1  0  0  0
  4  5  2  0  0  0
  4 13  1  0  0  0
  5  6  1  0  0  0
  5  8  1  0  0  0
  6  7  2  0  0  0
  6 11  1  0  0  0
  7 12  1  0  0  0
  7 31  1  0  0  0
  8  9  2  0  0  0
  8 41  1  0  0  0
  9 10  1  0  0  0
  9 42  1  0  0  0
 10 11  2  0  0  0
 10 43  1  0  0  0
 11 44  1  0  0  0
 12 13  2  0  0  0
 12 45  1  0  0  0
 13 46  1  0  0  0
 14 15  1  0  0  0
 14 47  1  0  0  0
 15 16  2  0  0  0
 15 19  1  0  0  0
 16 17  1  0  0  0
 16 48  1  0  0  0
 17 18  2  0  0  0
 17 24  1  0  0  0
 18 19  1  0  0  0
 19 20  1  0  0  0
 20 25  2  0  0  0
 20 29  1  0  0  0
 21 24  1  0  0  0
 21 49  1  0  0  0
 21 50  1  0  0  0
 21 51  1  0  0  0
 22 24  1  0  0  0
 22 52  1  0  0  0
 22 53  1  0  0  0
 22 54  1  0  0  0
 23 24  1  0  0  0
 23 55  1  0  0  0
 23 56  1  0  0  0
 23 57  1  0  0  0
 25 26  1  0  0  0
 25 58  1  0  0  0
 26 27  2  0  0  0
 26 59  1  0  0  0
 27 28  1  0  0  0
 27 30  1  0  0  0
 28 29  2  0  0  0
 28 60  1  0  0  0
 29 61  1  0  0  0
 30 62  1  0  0  0
 30 63  1  0  0  0
 30 64  1  0  0  0
 31 32  1  0  0  0
 32 33  1  0  0  0
 32 65  1  0  0  0
 32 66  1  0  0  0
 33 34  1  0  0  0
 33 67  1  0  0  0
 33 68  1  0  0  0
 34 35  1  0  0  0
 34 39  1  0  0  0
 35 36  1  0  0  0
 35 69  1  0  0  0
 35 70  1  0  0  0
 36 37  1  0  0  0
 36 71  1  0  0  0
 36 72  1  0  0  0
 37 38  1  0  0  0
 38 39  1  0  0  0
 38 73  1  0  0  0
 38 74  1  0  0  0
 39 75  1  0  0  0
 39 76  1  0  0  0
M  END
> <s_m_source_file>
../1kv2_ligand.sdf

> <i_m_source_file_index>
1

> <s_epik_input>
W2NIXTFbY0hdYyhbQ0gzXSlbY0hdW2NIXWMxLW4ybmMoQyhbQ0gzXSkoW0NIM10pW0NIM10pW2NIXWMyW05IXUMoPU8pW05IXWMzW2NIXVtjSF1jKGMoYzM0KVtjSF1bY0hdW2NIXVtjSF00KU9bQ0gyXVtDSDJdW05IK101W0NIMl1bQ0gyXU9bQ0gyXVtDSDJdNQ==

> <s_epik_cmdline>
J2VwaWtfYXBwJywgJy1pbWFlJywgJ2xpZ2FuZF9wcm8ubWFlJywgJy1vbWFlJywgJ2xpZ2FuZF9wcmVwLm1hZScsICctbXMnLCAnMScsICctcGgnLCAnNycsICctcGh0JywgJzAuNScsICctbnQn

> <r_lp_tautomer_probability>
1

> <r_epik_Ionization_Penalty>
  0.0642

> <r_epik_Ionization_Penalty_Charging>
  0.0000

> <r_epik_Ionization_Penalty_Neutral>
  0.0642

> <r_epik_State_Penalty>
  0.0558

> <r_epik_Charging_Adjusted_Penalty>
0.0558297731723035

> <i_epik_Tot_Q>
0

> <i_epik_Tot_abs_Q>
0

$$$$
