1kwr_ligand
                    3D
 Schrodinger Suite 2020-3.
 23 24  0  0  1  0            999 V2000
   -5.7020    1.0070   16.6810 S   0  0  0  0  0  0
   -5.0630    2.3060   15.6790 C   0  0  0  0  0  0
   -3.7070    2.2600   15.4120 C   0  0  0  0  0  0
   -3.1660    3.2510   14.6300 C   0  0  0  0  0  0
   -3.9790    4.2690   14.0820 C   0  0  0  0  0  0
   -3.4940    5.3130   13.2510 N   0  0  0  0  0  0
   -2.0940    5.4400   12.8500 C   0  0  0  0  0  0
   -4.8100    6.2840   12.8420 S   0  0  0  0  0  0
   -6.0650    5.4370   13.7000 C   0  0  0  0  0  0
   -7.2380    5.7590   13.7350 O   0  0  0  0  0  0
   -5.3530    4.3050   14.3550 C   0  0  0  0  0  0
   -5.9080    3.3080   15.1560 C   0  0  0  0  0  0
   -5.2960   -0.5040   15.9240 N   0  0  0  0  0  0
   -7.1410    1.1640   16.7170 O   0  0  0  0  0  0
   -5.1480    1.0640   18.0130 O   0  0  0  0  0  0
   -3.0846    1.4592   15.8112 H   0  0  0  0  0  0
   -2.0947    3.2524   14.4292 H   0  0  0  0  0  0
   -1.5072    4.6285   13.3052 H   0  0  0  0  0  0
   -1.7022    6.4104   13.1887 H   0  0  0  0  0  0
   -2.0192    5.3766   11.7544 H   0  0  0  0  0  0
   -6.9759    3.3025   15.3745 H   0  0  0  0  0  0
   -5.6847   -1.3346   16.5315 H   0  0  0  0  0  0
   -4.2025   -0.5906   15.8414 H   0  0  0  0  0  0
  1  2  1  0  0  0
  1 13  1  0  0  0
  1 14  2  0  0  0
  1 15  2  0  0  0
  2  3  2  0  0  0
  2 12  1  0  0  0
  3  4  1  0  0  0
  3 16  1  0  0  0
  4  5  2  0  0  0
  4 17  1  0  0  0
  5  6  1  0  0  0
  5 11  1  0  0  0
  6  7  1  0  0  0
  6  8  1  0  0  0
  7 18  1  0  0  0
  7 19  1  0  0  0
  7 20  1  0  0  0
  8  9  1  0  0  0
  9 10  2  0  0  0
  9 11  1  0  0  0
 11 12  2  0  0  0
 12 21  1  0  0  0
 13 22  1  0  0  0
 13 23  1  0  0  0
M  END
> <s_m_source_file>
../1kwr_ligand.sdf

> <i_m_source_file_index>
1

> <s_epik_input>
W2NIXTFbY0hdYyhTKD1PKSg9TylbTkgyXSlbY0hdYyhjMTIpYyg9TylzbjJbQ0gzXQ==

> <s_epik_cmdline>
J2VwaWtfYXBwJywgJy1pbWFlJywgJ2xpZ2FuZF9wcm8ubWFlJywgJy1vbWFlJywgJ2xpZ2FuZF9wcmVwLm1hZScsICctbXMnLCAnMScsICctcGgnLCAnNycsICctcGh0JywgJzAuNScsICctbnQn

> <r_lp_tautomer_probability>
1

> <r_epik_Ionization_Penalty>
  0.0003

> <r_epik_Ionization_Penalty_Charging>
  0.0000

> <r_epik_Ionization_Penalty_Neutral>
  0.0003

> <r_epik_State_Penalty>
 -0.0000

> <r_epik_Charging_Adjusted_Penalty>
6.26481981282804e-08

> <i_epik_Tot_Q>
0

> <i_epik_Tot_abs_Q>
0

$$$$
