1kyn_ligand
                    3D
 Schrodinger Suite 2020-3.
 42 45  0  0  1  0            999 V2000
   27.8380   29.9660  -10.0090 P   0  0  0  0  0  0
   28.8980   30.5040   -9.1280 O   0  0  0  0  0  0
   27.8300   32.3130  -13.3310 O   0  0  0  0  0  0
   27.0030   31.2560  -11.1260 C   0  0  1  0  0  0
   27.7890   32.4570  -12.1650 C   0  0  0  0  0  0
   28.5770   28.8080  -10.8530 O   0  5  0  0  0  0
   26.7670   29.2760   -9.0320 O   0  5  0  0  0  0
   28.5230   33.7920  -11.8940 C   0  0  0  0  0  0
   28.6370   34.2440  -10.5640 C   0  0  0  0  0  0
   29.2880   35.4500  -10.2510 C   0  0  0  0  0  0
   29.3870   35.8780   -8.9140 C   0  0  0  0  0  0
   30.0440   37.0900   -8.6120 C   0  0  0  0  0  0
   30.6060   37.8890   -9.6640 C   0  0  0  0  0  0
   30.5140   37.4670  -11.0220 C   0  0  0  0  0  0
   29.8660   36.2640  -11.3270 C   0  0  0  0  0  0
   29.7610   35.8340  -12.6540 C   0  0  0  0  0  0
   29.0990   34.6130  -12.9350 C   0  0  0  0  0  0
   26.2530   29.2250  -12.5800 C   0  0  0  0  0  0
   25.9220   30.4300  -11.9150 C   0  0  0  0  0  0
   24.5210   30.8960  -11.9800 C   0  0  0  0  0  0
   24.1010   32.0970  -11.3460 C   0  0  0  0  0  0
   22.7360   32.5220  -11.4280 C   0  0  0  0  0  0
   21.7790   31.7400  -12.1500 C   0  0  0  0  0  0
   22.1850   30.5220  -12.7970 C   0  0  0  0  0  0
   23.5310   30.0950  -12.7240 C   0  0  0  0  0  0
   23.9270   28.9020  -13.3610 C   0  0  0  0  0  0
   25.2830   28.4680  -13.2910 C   0  0  0  0  0  0
   26.5384   32.0433  -10.5142 H   0  0  0  0  0  0
   28.2106   33.6447   -9.7596 H   0  0  0  0  0  0
   28.9575   35.2751   -8.1139 H   0  0  0  0  0  0
   30.1250   37.4205   -7.5765 H   0  0  0  0  0  0
   31.1072   38.8262   -9.4220 H   0  0  0  0  0  0
   30.9447   38.0759  -11.8169 H   0  0  0  0  0  0
   30.1834   36.4310  -13.4622 H   0  0  0  0  0  0
   29.0215   34.2819  -13.9706 H   0  0  0  0  0  0
   27.2821   28.8673  -12.5457 H   0  0  0  0  0  0
   24.8229   32.6985  -10.7937 H   0  0  0  0  0  0
   22.4245   33.4448  -10.9386 H   0  0  0  0  0  0
   20.7413   32.0683  -12.2094 H   0  0  0  0  0  0
   21.4542   29.9269  -13.3446 H   0  0  0  0  0  0
   23.1943   28.3094  -13.9088 H   0  0  0  0  0  0
   25.5793   27.5446  -13.7887 H   0  0  0  0  0  0
  1  2  2  0  0  0
  1  4  1  0  0  0
  1  6  1  0  0  0
  1  7  1  0  0  0
  3  5  2  0  0  0
  4 19  1  0  0  0
  4  5  1  0  0  0
  4 28  1  0  0  0
  5  8  1  0  0  0
  8  9  2  0  0  0
  8 17  1  0  0  0
  9 10  1  0  0  0
  9 29  1  0  0  0
 10 11  2  0  0  0
 10 15  1  0  0  0
 11 12  1  0  0  0
 11 30  1  0  0  0
 12 13  2  0  0  0
 12 31  1  0  0  0
 13 14  1  0  0  0
 13 32  1  0  0  0
 14 15  2  0  0  0
 14 33  1  0  0  0
 15 16  1  0  0  0
 16 17  2  0  0  0
 16 34  1  0  0  0
 17 35  1  0  0  0
 18 19  2  0  0  0
 18 27  1  0  0  0
 18 36  1  0  0  0
 19 20  1  0  0  0
 20 21  2  0  0  0
 20 25  1  0  0  0
 21 22  1  0  0  0
 21 37  1  0  0  0
 22 23  2  0  0  0
 22 38  1  0  0  0
 23 24  1  0  0  0
 23 39  1  0  0  0
 24 25  2  0  0  0
 24 40  1  0  0  0
 25 26  1  0  0  0
 26 27  2  0  0  0
 26 41  1  0  0  0
 27 42  1  0  0  0
M  CHG  2   6  -1   7  -1
M  END
> <s_m_source_file>
../1kyn_ligand.sdf

> <i_m_source_file_index>
1

> <s_epik_input>
W2NIXTFbY0hdW2NIXVtjSF1jKGMxMilbY0hdW2NIXVtjSF1jMltDQEBIXShQKD1PKShbT0hdKVtPSF0pQyg9TyljKFtjSF0zKVtjSF1bY0hdYyhjMzQpW2NIXVtjSF1bY0hdW2NIXTQ=

> <s_epik_cmdline>
J2VwaWtfYXBwJywgJy1pbWFlJywgJ2xpZ2FuZF9wcm8ubWFlJywgJy1vbWFlJywgJ2xpZ2FuZF9wcmVwLm1hZScsICctbXMnLCAnMScsICctcGgnLCAnNycsICctcGh0JywgJzAuNScsICctbnQn

> <r_epik_Ionization_Penalty>
  0.1871

> <r_epik_Ionization_Penalty_Charging>
  0.1871

> <r_epik_Ionization_Penalty_Neutral>
  0.0000

> <r_epik_State_Penalty>
  0.1767

> <r_epik_Charging_Adjusted_Penalty>
0.363815735109734

> <i_epik_Tot_Q>
-2

> <i_epik_Tot_abs_Q>
2

$$$$
