1l0a_ligand
                    3D
 Schrodinger Suite 2020-3.
294295  0  0  1  0            999 V2000
  -24.2190   31.9500   36.2950 N   0  3  0  0  0  0
  -22.8070   31.9770   35.8310 C   0  0  2  0  0  0
  -22.4070   30.6520   35.1830 C   0  0  0  0  0  0
  -21.5210   29.9550   35.6890 O   0  0  0  0  0  0
  -21.8570   32.2710   37.0040 C   0  0  0  0  0  0
  -21.7320   31.1530   37.8780 O   0  0  0  0  0  0
  -23.0670   30.2970   34.0830 N   0  0  0  0  0  0
  -22.7510   29.0680   33.3550 C   0  0  2  0  0  0
  -23.0640   29.3270   31.8930 C   0  0  0  0  0  0
  -24.2190   29.4070   31.4980 O   0  0  0  0  0  0
  -23.5810   27.8500   33.8370 C   0  0  0  0  0  0
  -23.0900   26.5810   33.1350 C   0  0  0  0  0  0
  -23.4690   27.6950   35.3560 C   0  0  0  0  0  0
  -22.0280   29.4530   31.0670 N   0  0  0  0  0  0
  -22.1560   29.7160   29.6370 C   0  0  2  0  0  0
  -22.9910   28.7170   28.8630 C   0  0  0  0  0  0
  -22.7760   27.5100   28.9460 O   0  0  0  0  0  0
  -20.7080   29.7190   29.1500 C   0  0  0  0  0  0
  -19.9270   30.0430   30.3600 C   0  0  0  0  0  0
  -20.6190   29.2580   31.4290 C   0  0  0  0  0  0
  -23.9320   29.2500   28.0950 N   0  0  0  0  0  0
  -24.8020   28.4570   27.2400 C   0  0  2  0  0  0
  -24.1460   28.5100   25.8700 C   0  0  0  0  0  0
  -23.8560   29.5990   25.3830 O   0  0  0  0  0  0
  -26.2010   29.1010   27.0750 C   0  0  2  0  0  0
  -26.9090   29.2180   28.4220 C   0  0  0  0  0  0
  -27.0310   28.2740   26.1230 C   0  0  0  0  0  0
  -27.1740   27.8960   29.0670 C   0  0  0  0  0  0
  -23.9140   27.3550   25.2490 N   0  0  0  0  0  0
  -23.3140   27.3040   23.9120 C   0  0  2  0  0  0
  -24.0610   28.2430   22.9620 C   0  0  0  0  0  0
  -24.7510   29.1620   23.3870 O   0  0  0  0  0  0
  -23.3890   25.8870   23.3450 C   0  0  0  0  0  0
  -22.5610   24.8370   24.0680 C   0  0  0  0  0  0
  -21.1490   24.7570   23.5370 C   0  0  0  0  0  0
  -20.9290   24.4950   22.3510 O   0  0  0  0  0  0
  -20.1780   24.9860   24.4100 N   0  0  0  0  0  0
  -23.9350   27.9950   21.6690 N   0  0  0  0  0  0
  -24.5840   28.8210   20.6630 C   0  0  2  0  0  0
  -25.1240   27.8500   19.6270 C   0  0  0  0  0  0
  -24.3740   27.0710   19.0500 O   0  0  0  0  0  0
  -23.5510   29.7880   20.0630 C   0  0  0  0  0  0
  -23.8330   30.3710   18.3700 S   0  0  0  0  0  0
  -26.4310   27.8790   19.4060 N   0  0  0  0  0  0
  -27.0580   26.9630   18.4600 C   0  0  2  0  0  0
  -26.5890   27.1570   17.0220 C   0  0  0  0  0  0
  -26.3180   26.1850   16.3120 O   0  0  0  0  0  0
  -28.5920   27.0840   18.5130 C   0  0  2  0  0  0
  -28.9830   28.4300   18.2130 O   0  0  0  0  0  0
  -29.1010   26.7070   19.8920 C   0  0  0  0  0  0
  -26.4870   28.4130   16.5990 N   0  0  0  0  0  0
  -26.0430   28.7450   15.2460 C   0  0  2  0  0  0
  -24.6120   28.2470   14.9830 C   0  0  0  0  0  0
  -23.9760   28.6420   14.0010 O   0  0  0  0  0  0
  -26.1280   30.2640   15.0410 C   0  0  0  0  0  0
  -25.8120   30.6840   13.6230 C   0  0  0  0  0  0
  -26.4190   30.1130   12.7000 O   0  0  0  0  0  0
  -24.9700   31.5870   13.4320 O   0  0  0  0  0  0
  -24.1020   27.3900   15.8680 N   0  0  0  0  0  0
  -22.7680   26.8220   15.6950 C   0  0  2  0  0  0
  -22.8200   25.9310   14.4490 C   0  0  0  0  0  0
  -21.8670   25.1850   14.1570 O   0  0  0  0  0  0
  -22.3740   25.9660   16.9100 C   0  0  0  0  0  0
  -23.2890   24.7550   17.1790 C   0  0  0  0  0  0
  -22.7600   23.8980   18.3400 C   0  0  0  0  0  0
  -23.8450   23.0290   18.9850 C   0  0  0  0  0  0
  -24.8360   23.8210   19.7760 N   0  3  0  0  0  0
  -23.9470   26.0230   13.7280 N   0  0  0  0  0  0
  -24.2060   25.2430   12.5120 C   0  0  2  0  0  0
  -24.2770   26.0740   11.2100 C   0  0  0  0  0  0
  -23.7870   25.6310   10.1640 O   0  0  0  0  0  0
  -25.5130   24.4400   12.6750 C   0  0  2  0  0  0
  -26.5490   25.3180   13.1310 O   0  0  0  0  0  0
  -25.3240   23.3130   13.6880 C   0  0  0  0  0  0
  -24.8760   27.2660   11.2700 N   0  0  0  0  0  0
  -24.9790   28.1400   10.0910 C   0  0  2  0  0  0
  -23.8430   29.1690    9.9890 C   0  0  0  0  0  0
  -23.4260   29.7590   10.9920 O   0  0  0  0  0  0
  -26.3050   28.8960   10.0930 C   0  0  0  0  0  0
  -26.1500   30.3320    9.6140 C   0  0  0  0  0  0
  -25.8470   30.5290    8.4180 O   0  0  0  0  0  0
  -26.3160   31.2590   10.4380 O   0  0  0  0  0  0
  -23.3750   29.4080    8.7640 N   0  0  0  0  0  0
  -22.2850   30.3490    8.5350 C   0  0  2  0  0  0
  -22.7080   31.7300    8.0390 C   0  0  0  0  0  0
  -22.1100   32.2740    7.1040 O   0  0  0  0  0  0
  -21.2500   29.7310    7.5710 C   0  0  0  0  0  0
  -21.8020   29.1330    6.2660 C   0  0  0  0  0  0
  -21.9580   30.1620    5.1430 C   0  0  0  0  0  0
  -23.3400   30.7850    5.1260 C   0  0  0  0  0  0
  -23.4210   31.8230    4.0740 N   0  3  0  0  0  0
  -23.7330   32.2990    8.6720 N   0  0  0  0  0  0
  -24.2190   33.6340    8.3120 C   0  0  2  0  0  0
  -23.5690   34.6040    9.3040 C   0  0  0  0  0  0
  -24.1200   34.8910   10.3670 O   0  0  0  0  0  0
  -25.7430   33.6900    8.4340 C   0  0  0  0  0  0
  -26.4640   34.3290    7.2550 C   0  0  0  0  0  0
  -26.4380   33.4680    6.0020 C   0  0  0  0  0  0
  -26.6170   32.2520    6.0730 O   0  0  0  0  0  0
  -26.2330   34.0990    4.8440 N   0  0  0  0  0  0
  -22.3820   35.0880    8.9580 N   0  0  0  0  0  0
  -21.6410   35.9920    9.8300 C   0  0  2  0  0  0
  -20.7780   36.9910    9.0530 C   0  0  0  0  0  0
  -20.2760   36.6850    7.9630 O   0  0  0  0  0  0
  -20.7470   35.1790   10.7610 C   0  0  0  0  0  0
  -19.6320   34.4600   10.0390 C   0  0  0  0  0  0
  -18.5950   33.8970   10.9880 C   0  0  0  0  0  0
  -17.5680   33.3860   10.5010 O   0  0  0  0  0  0
  -18.7990   33.9630   12.2230 O   0  0  0  0  0  0
  -20.6060   38.1860    9.6150 N   0  0  0  0  0  0
  -19.7980   39.2130    8.9680 C   0  0  2  0  0  0
  -18.7250   39.7420    9.9110 C   0  0  0  0  0  0
  -18.9540   39.9220   11.1130 O   0  0  0  0  0  0
  -20.6810   40.3670    8.4740 C   0  0  0  0  0  0
  -17.5440   39.9690    9.3510 N   0  0  0  0  0  0
  -16.4170   40.4960   10.1040 C   0  0  2  0  0  0
  -16.7840   41.8950   10.5750 C   0  0  0  0  0  0
  -17.5050   42.6240    9.8900 O   0  0  0  0  0  0
  -15.1730   40.5530    9.1980 C   0  0  0  0  0  0
  -15.2970   41.2070    7.7990 C   0  0  0  0  0  0
  -15.1560   42.7340    7.9100 C   0  0  0  0  0  0
  -14.2190   40.6470    6.8610 C   0  0  0  0  0  0
  -16.3140   42.2780   11.7490 N   0  0  0  0  0  0
  -16.6130   43.6190   12.2160 C   0  0  2  0  0  0
  -15.6610   44.0980   13.3060 C   0  0  0  0  0  0
  -15.8340   43.7900   14.4860 O   0  0  0  0  0  0
  -18.0460   43.7100   12.6980 C   0  0  0  0  0  0
  -18.4990   45.0950   12.8360 C   0  0  0  0  0  0
  -18.7640   45.8490   11.7140 C   0  0  0  0  0  0
  -18.5450   45.6950   14.0750 C   0  0  0  0  0  0
  -19.0670   47.2020   11.8200 C   0  0  0  0  0  0
  -18.8460   47.0440   14.1980 C   0  0  0  0  0  0
  -19.1070   47.8040   13.0650 C   0  0  0  0  0  0
  -14.6680   44.8770   12.8890 N   0  0  0  0  0  0
  -13.6320   45.3830   13.7780 C   0  0  2  0  0  0
  -13.8340   46.8480   14.2030 C   0  0  0  0  0  0
  -13.6640   47.7470   13.3490 O   0  0  0  0  0  0
  -12.2740   45.2100   13.0870 C   0  0  0  0  0  0
  -12.1770   43.9520   12.2110 C   0  0  0  0  0  0
  -12.2690   42.6710   13.0340 C   0  0  0  0  0  0
  -12.6410   41.4660   12.1710 C   0  0  0  0  0  0
  -11.7700   41.3240   10.9770 N   0  3  0  0  0  0
  -14.1620   47.0870   15.3920 O   0  0  0  0  0  0
  -24.8811   31.7386   35.4424 H   0  0  0  0  0  0
  -24.4809   32.9260   36.7295 H   0  0  0  0  0  0
  -24.3398   31.1654   37.0565 H   0  0  0  0  0  0
  -22.7600   32.7798   35.0805 H   0  0  0  0  0  0
  -20.8583   32.5173   36.6141 H   0  0  0  0  0  0
  -22.2438   33.1213   37.5849 H   0  0  0  0  0  0
  -21.0832   31.2173   38.7640 H   0  0  0  0  0  0
  -23.8701   30.9576   33.7244 H   0  0  0  0  0  0
  -21.6846   28.8707   33.5392 H   0  0  0  0  0  0
  -24.6418   28.0025   33.5890 H   0  0  0  0  0  0
  -23.1766   26.7077   32.0458 H   0  0  0  0  0  0
  -23.7025   25.7249   33.4544 H   0  0  0  0  0  0
  -22.0382   26.3987   33.4005 H   0  0  0  0  0  0
  -23.8250   28.6135   35.8455 H   0  0  0  0  0  0
  -22.4186   27.5170   35.6299 H   0  0  0  0  0  0
  -24.0829   26.8432   35.6839 H   0  0  0  0  0  0
  -22.7103   30.6577   29.5106 H   0  0  0  0  0  0
  -20.4551   28.7277   28.7458 H   0  0  0  0  0  0
  -20.5875   30.4777   28.3627 H   0  0  0  0  0  0
  -18.8820   29.7310   30.2163 H   0  0  0  0  0  0
  -19.9643   31.1274   30.5411 H   0  0  0  0  0  0
  -20.4427   29.6509   32.4412 H   0  0  0  0  0  0
  -20.3795   28.1846   31.4055 H   0  0  0  0  0  0
  -24.0387   30.3444   28.1245 H   0  0  0  0  0  0
  -24.8870   27.4593   27.6953 H   0  0  0  0  0  0
  -26.0971   30.1129   26.6565 H   0  0  0  0  0  0
  -26.2869   29.8053   29.1134 H   0  0  0  0  0  0
  -27.8782   29.7198   28.2845 H   0  0  0  0  0  0
  -26.5118   28.1963   25.1564 H   0  0  0  0  0  0
  -28.0091   28.7554   25.9762 H   0  0  0  0  0  0
  -27.1769   27.2678   26.5428 H   0  0  0  0  0  0
  -27.6836   28.0530   30.0291 H   0  0  0  0  0  0
  -26.2210   27.3738   29.2378 H   0  0  0  0  0  0
  -27.8123   27.2883   28.4088 H   0  0  0  0  0  0
  -24.1853   26.4228   25.7660 H   0  0  0  0  0  0
  -22.2681   27.6181   24.0444 H   0  0  0  0  0  0
  -24.4299   25.5329   23.3795 H   0  0  0  0  0  0
  -23.0370   25.8900   22.3028 H   0  0  0  0  0  0
  -22.5094   25.0841   25.1386 H   0  0  0  0  0  0
  -23.0294   23.8498   23.9417 H   0  0  0  0  0  0
  -20.4230   25.2158   25.4575 H   0  0  0  0  0  0
  -19.1273   24.9462   24.0869 H   0  0  0  0  0  0
  -23.3191   27.1368   21.3622 H   0  0  0  0  0  0
  -25.3966   29.4116   21.1113 H   0  0  0  0  0  0
  -23.4999   30.6981   20.6787 H   0  0  0  0  0  0
  -22.5637   29.3034   20.0424 H   0  0  0  0  0  0
  -23.1192   31.0641   17.9009 H   0  0  0  0  0  0
  -27.0444   28.6113   19.9514 H   0  0  0  0  0  0
  -26.7085   25.9806   18.8103 H   0  0  0  0  0  0
  -29.0650   26.4513   17.7475 H   0  0  0  0  0  0
  -28.7028   28.8825   17.2503 H   0  0  0  0  0  0
  -28.8016   25.6742   20.1236 H   0  0  0  0  0  0
  -30.1981   26.7839   19.9115 H   0  0  0  0  0  0
  -28.6722   27.3897   20.6404 H   0  0  0  0  0  0
  -26.7496   29.2154   17.3041 H   0  0  0  0  0  0
  -26.7324   28.2184   14.5696 H   0  0  0  0  0  0
  -27.1462   30.6090   15.2740 H   0  0  0  0  0  0
  -25.4098   30.7647   15.7070 H   0  0  0  0  0  0
  -24.7277   31.9053   12.4073 H   0  0  0  0  0  0
  -24.7086   27.1128   16.7427 H   0  0  0  0  0  0
  -22.0628   27.6601   15.5941 H   0  0  0  0  0  0
  -21.3592   25.5674   16.7641 H   0  0  0  0  0  0
  -22.3973   26.5859   17.8184 H   0  0  0  0  0  0
  -24.2980   25.1082   17.4380 H   0  0  0  0  0  0
  -23.3406   24.1269   16.2774 H   0  0  0  0  0  0
  -21.9704   23.2272   17.9705 H   0  0  0  0  0  0
  -22.3482   24.5534   19.1216 H   0  0  0  0  0  0
  -24.3978   22.4907   18.2010 H   0  0  0  0  0  0
  -23.3768   22.3040   19.6671 H   0  0  0  0  0  0
  -25.5845   23.1423   20.2109 H   0  0  0  0  0  0
  -25.3368   24.5451   19.1165 H   0  0  0  0  0  0
  -24.3158   24.3584   20.5826 H   0  0  0  0  0  0
  -24.7013   26.7338   14.0966 H   0  0  0  0  0  0
  -23.3156   24.6000   12.4507 H   0  0  0  0  0  0
  -25.8523   24.0314   11.7117 H   0  0  0  0  0  0
  -26.8303   26.1955   12.5302 H   0  0  0  0  0  0
  -24.5289   22.6371   13.3404 H   0  0  0  0  0  0
  -26.2640   22.7510   13.7909 H   0  0  0  0  0  0
  -25.0430   23.7391   14.6624 H   0  0  0  0  0  0
  -25.2986   27.5892   12.2328 H   0  0  0  0  0  0
  -24.9114   27.4317    9.2521 H   0  0  0  0  0  0
  -27.0173   28.3887    9.4257 H   0  0  0  0  0  0
  -26.7124   28.9192   11.1145 H   0  0  0  0  0  0
  -26.2096   32.3058   10.1171 H   0  0  0  0  0  0
  -23.8303   28.8766    7.9153 H   0  0  0  0  0  0
  -21.8904   30.4959    9.5512 H   0  0  0  0  0  0
  -20.5264   30.5016    7.2668 H   0  0  0  0  0  0
  -20.7207   28.9108    8.0780 H   0  0  0  0  0  0
  -21.1193   28.3502    5.9038 H   0  0  0  0  0  0
  -22.7940   28.6963    6.4536 H   0  0  0  0  0  0
  -21.2215   30.9676    5.2790 H   0  0  0  0  0  0
  -21.7914   29.6730    4.1718 H   0  0  0  0  0  0
  -24.0904   30.0070    4.9221 H   0  0  0  0  0  0
  -23.5463   31.2463    6.1030 H   0  0  0  0  0  0
  -24.4278   32.2661    4.0729 H   0  0  0  0  0  0
  -23.2198   31.3675    3.0932 H   0  0  0  0  0  0
  -22.6756   32.6068    4.2741 H   0  0  0  0  0  0
  -24.2171   31.7382    9.4851 H   0  0  0  0  0  0
  -23.9446   33.8526    7.2694 H   0  0  0  0  0  0
  -26.1410   32.6689    8.5287 H   0  0  0  0  0  0
  -26.0184   34.2748    9.3240 H   0  0  0  0  0  0
  -27.5179   34.5010    7.5192 H   0  0  0  0  0  0
  -25.9862   35.2889    7.0095 H   0  0  0  0  0  0
  -26.0778   35.1879    4.8310 H   0  0  0  0  0  0
  -26.2193   33.5302    3.9026 H   0  0  0  0  0  0
  -21.9594   34.7912    7.9868 H   0  0  0  0  0  0
  -22.4190   36.5418   10.3798 H   0  0  0  0  0  0
  -20.2852   35.8477   11.5023 H   0  0  0  0  0  0
  -21.3512   34.4193   11.2786 H   0  0  0  0  0  0
  -20.0499   33.6238    9.4593 H   0  0  0  0  0  0
  -19.1242   35.1599    9.3591 H   0  0  0  0  0  0
  -18.0555   33.5586   12.9256 H   0  0  0  0  0  0
  -21.0854   38.3923   10.5833 H   0  0  0  0  0  0
  -19.3189   38.7045    8.1184 H   0  0  0  0  0  0
  -21.4516   39.9741    7.7945 H   0  0  0  0  0  0
  -20.0601   41.1008    7.9392 H   0  0  0  0  0  0
  -21.1642   40.8532    9.3343 H   0  0  0  0  0  0
  -17.4331   39.7447    8.2798 H   0  0  0  0  0  0
  -16.2371   39.8275   10.9589 H   0  0  0  0  0  0
  -14.3785   41.1234    9.7015 H   0  0  0  0  0  0
  -14.8192   39.5312    8.9962 H   0  0  0  0  0  0
  -16.2865   40.9764    7.3775 H   0  0  0  0  0  0
  -15.9322   43.1259    8.5837 H   0  0  0  0  0  0
  -15.2725   43.1863    6.9141 H   0  0  0  0  0  0
  -14.1625   42.9822    8.3116 H   0  0  0  0  0  0
  -14.3279   39.5548    6.7880 H   0  0  0  0  0  0
  -13.2233   40.8904    7.2601 H   0  0  0  0  0  0
  -14.3333   41.0945    5.8626 H   0  0  0  0  0  0
  -15.7067   41.6023   12.3692 H   0  0  0  0  0  0
  -16.4658   44.2428   11.3220 H   0  0  0  0  0  0
  -18.7076   43.2054   11.9785 H   0  0  0  0  0  0
  -18.1340   43.2234   13.6806 H   0  0  0  0  0  0
  -18.7358   45.3792   10.7308 H   0  0  0  0  0  0
  -18.3428   45.1039   14.9682 H   0  0  0  0  0  0
  -19.2726   47.7873   10.9237 H   0  0  0  0  0  0
  -18.8776   47.5074   15.1841 H   0  0  0  0  0  0
  -19.3411   48.8647   13.1559 H   0  0  0  0  0  0
  -14.6506   45.1366   11.8202 H   0  0  0  0  0  0
  -13.7261   44.7664   14.6841 H   0  0  0  0  0  0
  -12.0809   46.0755   12.4361 H   0  0  0  0  0  0
  -11.4821   45.1391   13.8472 H   0  0  0  0  0  0
  -12.9994   43.9496   11.4805 H   0  0  0  0  0  0
  -11.2142   43.9489   11.6791 H   0  0  0  0  0  0
  -11.2970   42.4690   13.5077 H   0  0  0  0  0  0
  -13.0383   42.7890   13.8114 H   0  0  0  0  0  0
  -12.5481   40.5458   12.7665 H   0  0  0  0  0  0
  -13.6781   41.5724   11.8201 H   0  0  0  0  0  0
  -12.0838   40.4437   10.3968 H   0  0  0  0  0  0
  -10.7254   41.1982   11.2980 H   0  0  0  0  0  0
  -11.8555   42.2249   10.3516 H   0  0  0  0  0  0
  -14.3130   48.1252   15.7228 H   0  0  0  0  0  0
  1  2  1  0  0  0
  1144  1  0  0  0
  1145  1  0  0  0
  1146  1  0  0  0
  2  3  1  0  0  0
  2  5  1  0  0  0
  2147  1  0  0  0
  3  4  2  0  0  0
  3  7  1  0  0  0
  5  6  1  0  0  0
  5148  1  0  0  0
  5149  1  0  0  0
  6150  1  0  0  0
  7  8  1  0  0  0
  7151  1  0  0  0
  8  9  1  0  0  0
  8 11  1  0  0  0
  8152  1  0  0  0
  9 10  2  0  0  0
  9 14  1  0  0  0
 11 12  1  0  0  0
 11 13  1  0  0  0
 11153  1  0  0  0
 12154  1  0  0  0
 12155  1  0  0  0
 12156  1  0  0  0
 13157  1  0  0  0
 13158  1  0  0  0
 13159  1  0  0  0
 14 15  1  0  0  0
 14 20  1  0  0  0
 15 16  1  0  0  0
 15 18  1  0  0  0
 15160  1  0  0  0
 16 17  2  0  0  0
 16 21  1  0  0  0
 18 19  1  0  0  0
 18161  1  0  0  0
 18162  1  0  0  0
 19 20  1  0  0  0
 19163  1  0  0  0
 19164  1  0  0  0
 20165  1  0  0  0
 20166  1  0  0  0
 21 22  1  0  0  0
 21167  1  0  0  0
 22 23  1  0  0  0
 22 25  1  0  0  0
 22168  1  0  0  0
 23 24  2  0  0  0
 23 29  1  0  0  0
 25 26  1  0  0  0
 25 27  1  0  0  0
 25169  1  0  0  0
 26 28  1  0  0  0
 26170  1  0  0  0
 26171  1  0  0  0
 27172  1  0  0  0
 27173  1  0  0  0
 27174  1  0  0  0
 28175  1  0  0  0
 28176  1  0  0  0
 28177  1  0  0  0
 29 30  1  0  0  0
 29178  1  0  0  0
 30 31  1  0  0  0
 30 33  1  0  0  0
 30179  1  0  0  0
 31 32  2  0  0  0
 31 38  1  0  0  0
 33 34  1  0  0  0
 33180  1  0  0  0
 33181  1  0  0  0
 34 35  1  0  0  0
 34182  1  0  0  0
 34183  1  0  0  0
 35 36  2  0  0  0
 35 37  1  0  0  0
 37184  1  0  0  0
 37185  1  0  0  0
 38 39  1  0  0  0
 38186  1  0  0  0
 39 40  1  0  0  0
 39 42  1  0  0  0
 39187  1  0  0  0
 40 41  2  0  0  0
 40 44  1  0  0  0
 42 43  1  0  0  0
 42188  1  0  0  0
 42189  1  0  0  0
 43190  1  0  0  0
 44 45  1  0  0  0
 44191  1  0  0  0
 45 46  1  0  0  0
 45 48  1  0  0  0
 45192  1  0  0  0
 46 47  2  0  0  0
 46 51  1  0  0  0
 48 49  1  0  0  0
 48 50  1  0  0  0
 48193  1  0  0  0
 49194  1  0  0  0
 50195  1  0  0  0
 50196  1  0  0  0
 50197  1  0  0  0
 51 52  1  0  0  0
 51198  1  0  0  0
 52 53  1  0  0  0
 52 55  1  0  0  0
 52199  1  0  0  0
 53 54  2  0  0  0
 53 59  1  0  0  0
 55 56  1  0  0  0
 55200  1  0  0  0
 55201  1  0  0  0
 56 57  2  0  0  0
 56 58  1  0  0  0
 58202  1  0  0  0
 59 60  1  0  0  0
 59203  1  0  0  0
 60 61  1  0  0  0
 60 63  1  0  0  0
 60204  1  0  0  0
 61 62  2  0  0  0
 61 68  1  0  0  0
 63 64  1  0  0  0
 63205  1  0  0  0
 63206  1  0  0  0
 64 65  1  0  0  0
 64207  1  0  0  0
 64208  1  0  0  0
 65 66  1  0  0  0
 65209  1  0  0  0
 65210  1  0  0  0
 66 67  1  0  0  0
 66211  1  0  0  0
 66212  1  0  0  0
 67213  1  0  0  0
 67214  1  0  0  0
 67215  1  0  0  0
 68 69  1  0  0  0
 68216  1  0  0  0
 69 70  1  0  0  0
 69 72  1  0  0  0
 69217  1  0  0  0
 70 71  2  0  0  0
 70 75  1  0  0  0
 72 73  1  0  0  0
 72 74  1  0  0  0
 72218  1  0  0  0
 73219  1  0  0  0
 74220  1  0  0  0
 74221  1  0  0  0
 74222  1  0  0  0
 75 76  1  0  0  0
 75223  1  0  0  0
 76 77  1  0  0  0
 76 79  1  0  0  0
 76224  1  0  0  0
 77 78  2  0  0  0
 77 83  1  0  0  0
 79 80  1  0  0  0
 79225  1  0  0  0
 79226  1  0  0  0
 80 81  2  0  0  0
 80 82  1  0  0  0
 82227  1  0  0  0
 83 84  1  0  0  0
 83228  1  0  0  0
 84 85  1  0  0  0
 84 87  1  0  0  0
 84229  1  0  0  0
 85 86  2  0  0  0
 85 92  1  0  0  0
 87 88  1  0  0  0
 87230  1  0  0  0
 87231  1  0  0  0
 88 89  1  0  0  0
 88232  1  0  0  0
 88233  1  0  0  0
 89 90  1  0  0  0
 89234  1  0  0  0
 89235  1  0  0  0
 90 91  1  0  0  0
 90236  1  0  0  0
 90237  1  0  0  0
 91238  1  0  0  0
 91239  1  0  0  0
 91240  1  0  0  0
 92 93  1  0  0  0
 92241  1  0  0  0
 93 94  1  0  0  0
 93 96  1  0  0  0
 93242  1  0  0  0
 94 95  2  0  0  0
 94101  1  0  0  0
 96 97  1  0  0  0
 96243  1  0  0  0
 96244  1  0  0  0
 97 98  1  0  0  0
 97245  1  0  0  0
 97246  1  0  0  0
 98 99  2  0  0  0
 98100  1  0  0  0
100247  1  0  0  0
100248  1  0  0  0
101102  1  0  0  0
101249  1  0  0  0
102103  1  0  0  0
102105  1  0  0  0
102250  1  0  0  0
103104  2  0  0  0
103110  1  0  0  0
105106  1  0  0  0
105251  1  0  0  0
105252  1  0  0  0
106107  1  0  0  0
106253  1  0  0  0
106254  1  0  0  0
107108  2  0  0  0
107109  1  0  0  0
109255  1  0  0  0
110111  1  0  0  0
110256  1  0  0  0
111112  1  0  0  0
111114  1  0  0  0
111257  1  0  0  0
112113  2  0  0  0
112115  1  0  0  0
114258  1  0  0  0
114259  1  0  0  0
114260  1  0  0  0
115116  1  0  0  0
115261  1  0  0  0
116117  1  0  0  0
116119  1  0  0  0
116262  1  0  0  0
117118  2  0  0  0
117123  1  0  0  0
119120  1  0  0  0
119263  1  0  0  0
119264  1  0  0  0
120121  1  0  0  0
120122  1  0  0  0
120265  1  0  0  0
121266  1  0  0  0
121267  1  0  0  0
121268  1  0  0  0
122269  1  0  0  0
122270  1  0  0  0
122271  1  0  0  0
123124  1  0  0  0
123272  1  0  0  0
124125  1  0  0  0
124127  1  0  0  0
124273  1  0  0  0
125126  2  0  0  0
125134  1  0  0  0
127128  1  0  0  0
127274  1  0  0  0
127275  1  0  0  0
128129  2  0  0  0
128130  1  0  0  0
129131  1  0  0  0
129276  1  0  0  0
130132  2  0  0  0
130277  1  0  0  0
131133  2  0  0  0
131278  1  0  0  0
132133  1  0  0  0
132279  1  0  0  0
133280  1  0  0  0
134135  1  0  0  0
134281  1  0  0  0
135136  1  0  0  0
135138  1  0  0  0
135282  1  0  0  0
136137  2  0  0  0
136143  1  0  0  0
138139  1  0  0  0
138283  1  0  0  0
138284  1  0  0  0
139140  1  0  0  0
139285  1  0  0  0
139286  1  0  0  0
140141  1  0  0  0
140287  1  0  0  0
140288  1  0  0  0
141142  1  0  0  0
141289  1  0  0  0
141290  1  0  0  0
142291  1  0  0  0
142292  1  0  0  0
142293  1  0  0  0
143294  1  0  0  0
M  CHG  4   1   1  67   1  91   1 142   1
M  END
> <s_m_source_file>
../1l0a_ligand.sdf

> <i_m_source_file_index>
1

> <s_epik_input>
W09IXVtDSDJdW0NASF0oW05IMytdKUMoPU8pW05IXVtDQEBIXShbQ0hdKFtDSDNdKVtDSDNdKUMoPU8pTjFbQ0BASF0oW0NIMl1bQ0gyXVtDSDJdMSlDKD1PKVtOSF1bQ0BASF0oW0NAQEhdKFtDSDNdKVtDSDJdW0NIM10pQyg9TylbTkhdW0NAQEhdKFtDSDJdW0NIMl1DKD1PKVtOSDJdKUMoPU8pW05IXVtDQEBIXShbQ0gyXVtTSF0pQyg9TylbTkhdW0NAQEhdKFtDQEhdKFtPSF0pW0NIM10pQyg9TylbTkhdW0NAQEhdKFtDSDJdQyg9TylbT0hdKUMoPU8pW05IXVtDQEBIXShbQ0gyXVtDSDJdW0NIMl1bQ0gyXVtOSDMrXSlDKD1PKVtOSF1bQ0BASF0oW0NASF0oW09IXSlbQ0gzXSlDKD1PKVtOSF1bQ0BASF0oW0NIMl1DKD1PKVtPSF0pQyg9TylbTkhdW0NAQEhdKFtDSDJdW0NIMl1bQ0gyXVtDSDJdW05IMytdKUMoPU8pW05IXVtDQEBIXShbQ0gyXVtDSDJdQyg9TylbTkgyXSlDKD1PKVtOSF1bQ0BASF0oW0NIMl1bQ0gyXUMoPU8pW09IXSlDKD1PKVtOSF1bQ0BASF0oW0NIM10pQyg9TylbTkhdW0NAQEhdKFtDSDJdW0NIXShbQ0gzXSlbQ0gzXSlDKD1PKVtOSF1bQ0BASF0oW0NIMl1jMltjSF1bY0hdW2NIXVtjSF1bY0hdMilDKD1PKVtOSF1bQ0BIXShDKD1PKVtPSF0pW0NIMl1bQ0gyXVtDSDJdW0NIMl1bTkgzK10=

> <s_epik_cmdline>
J2VwaWtfYXBwJywgJy1pbWFlJywgJ2xpZ2FuZF9wcm8ubWFlJywgJy1vbWFlJywgJ2xpZ2FuZF9wcmVwLm1hZScsICctbXMnLCAnMScsICctcGgnLCAnNycsICctcGh0JywgJzAuNScsICctbnQn

> <s_epik_pKa_notes>
Molecule size exceeds maximum supported for generating protonation states

$$$$
