1l2s_ligand
                    3D
 Schrodinger Suite 2020-3.
 26 27  0  0  1  0            999 V2000
   23.9580    4.3210   13.8760 N   0  0  0  0  0  0
   22.7830    4.6990   13.2060 C   0  0  0  0  0  0
   21.7520    5.3460   13.9220 C   0  0  0  0  0  0
   22.6370    4.4260   11.8220 C   0  0  0  0  0  0
   20.5620    5.7140   13.2600 C   0  0  0  0  0  0
   21.4460    4.7960   11.1610 C   0  0  0  0  0  0
   20.4110    5.4330   11.8830 C   0  0  0  0  0  0
   25.2760    5.4300   13.8970 S   0  0  0  0  0  0
   25.0170    6.7010   15.2220 C   0  0  0  0  0  0
   26.4830    4.6860   14.1520 O   0  0  0  0  0  0
   25.3670    6.0870   12.6250 O   0  0  0  0  0  0
   24.7470    6.4870   16.5870 C   0  0  0  0  0  0
   25.0600    8.0870   15.0100 C   0  0  0  0  0  0
   24.6290    7.7630   17.2160 S   0  0  0  0  0  0
   24.6010    5.1790   17.2960 C   0  0  0  0  0  0
   24.8220    8.7390   16.2240 C   0  0  0  0  0  0
   24.7180    4.0210   16.6520 O   0  5  0  0  0  0
   24.3710    5.1850   18.4900 O   0  0  0  0  0  0
   18.9380    5.8670   11.0820 Cl  0  0  0  0  0  0
   24.0507    3.3470   14.3788 H   0  0  0  0  0  0
   21.8754    5.5605   14.9835 H   0  0  0  0  0  0
   23.4392    3.9337   11.2723 H   0  0  0  0  0  0
   19.7625    6.2128   13.8079 H   0  0  0  0  0  0
   21.3247    4.5912   10.0973 H   0  0  0  0  0  0
   25.2483    8.5762   14.0543 H   0  0  0  0  0  0
   24.7915    9.8181   16.3746 H   0  0  0  0  0  0
  1  8  1  0  0  0
  1  2  1  0  0  0
  1 20  1  0  0  0
  2  4  2  0  0  0
  2  3  1  0  0  0
  3  5  2  0  0  0
  3 21  1  0  0  0
  4  6  1  0  0  0
  4 22  1  0  0  0
  5  7  1  0  0  0
  5 23  1  0  0  0
  6  7  2  0  0  0
  6 24  1  0  0  0
  7 19  1  0  0  0
  8 11  2  0  0  0
  8 10  2  0  0  0
  8  9  1  0  0  0
  9 13  1  0  0  0
  9 12  2  0  0  0
 12 15  1  0  0  0
 12 14  1  0  0  0
 13 16  2  0  0  0
 13 25  1  0  0  0
 14 16  1  0  0  0
 15 18  2  0  0  0
 15 17  1  0  0  0
 16 26  1  0  0  0
M  CHG  1  17  -1
M  END
> <s_m_source_file>
../1l2s_ligand.sdf

> <i_m_source_file_index>
1

> <s_epik_input>
W2NIXTFbY0hdc2MoQyg9TylbT0hdKWMxUyg9TykoPU8pW05IXWMyW2NIXVtjSF1jKENsKVtjSF1bY0hdMg==

> <s_epik_cmdline>
J2VwaWtfYXBwJywgJy1pbWFlJywgJ2xpZ2FuZF9wcm8ubWFlJywgJy1vbWFlJywgJ2xpZ2FuZF9wcmVwLm1hZScsICctbXMnLCAnMScsICctcGgnLCAnNycsICctcGh0JywgJzAuNScsICctbnQn

> <r_epik_Ionization_Penalty>
  0.0300

> <r_epik_Ionization_Penalty_Charging>
  0.0000

> <r_epik_Ionization_Penalty_Neutral>
  0.0300

> <r_epik_State_Penalty>
  0.0247

> <r_epik_Charging_Adjusted_Penalty>
0.0247517344549604

> <i_epik_Tot_Q>
-1

> <i_epik_Tot_abs_Q>
1

$$$$
