1l2z_ligand
                    3D
 Schrodinger Suite 2020-3.
172177  0  0  1  0            999 V2000
   12.4080   13.0110   -5.7830 N   0  3  0  0  0  0
   12.3420   11.8890   -6.7560 C   0  0  2  0  0  0
   12.5010   10.5420   -6.0580 C   0  0  0  0  0  0
   11.5750    9.7310   -6.0340 O   0  0  0  0  0  0
   13.4500   12.0780   -7.7940 C   0  0  0  0  0  0
   13.7340   13.4520   -7.9920 O   0  0  0  0  0  0
   13.6810   10.3100   -5.4900 N   0  0  0  0  0  0
   13.9590    9.0620   -4.7900 C   0  0  2  0  0  0
   13.0350    8.8960   -3.5880 C   0  0  0  0  0  0
   12.2270    9.7760   -3.2890 O   0  0  0  0  0  0
   15.4190    9.0210   -4.3370 C   0  0  0  0  0  0
   15.7900   10.1380   -3.4120 C   0  0  0  0  0  0
   16.9180   10.9130   -3.5800 N   0  0  0  0  0  0
   15.1740   10.6110   -2.3020 C   0  0  0  0  0  0
   16.9800   11.8130   -2.6150 C   0  0  0  0  0  0
   15.9340   11.6510   -1.8270 N   0  0  0  0  0  0
   13.1600    7.7660   -2.9000 N   0  0  0  0  0  0
   12.3340    7.4910   -1.7310 C   0  0  2  0  0  0
   12.9660    6.4110   -0.8530 C   0  0  0  0  0  0
   13.7470    5.5870   -1.3270 O   0  0  0  0  0  0
   10.9210    7.0740   -2.1620 C   0  0  0  0  0  0
   10.7560    5.5830   -2.4190 C   0  0  0  0  0  0
   11.5570    5.1280   -3.6300 C   0  0  0  0  0  0
   12.6690    4.2570   -3.2570 N   0  0  0  0  0  0
   13.3050    3.4590   -4.1120 C   0  0  0  0  0  0
   12.9430    3.4180   -5.3880 N   0  0  0  0  0  0
   14.3080    2.7020   -3.6890 N   0  0  0  0  0  0
   12.6260    6.4090    0.4440 N   0  0  0  0  0  0
   13.1490    5.4330    1.4010 C   0  0  2  0  0  0
   12.4610    4.0760    1.2830 C   0  0  0  0  0  0
   11.4270    3.9470    0.6290 O   0  0  0  0  0  0
   12.8330    6.0710    2.7500 C   0  0  0  0  0  0
   11.6010    6.8730    2.5020 C   0  0  0  0  0  0
   11.6980    7.3620    1.0790 C   0  0  0  0  0  0
   13.0330    3.0460    1.9230 N   0  0  0  0  0  0
   12.4780    1.6920    1.8970 C   0  0  2  0  0  0
   11.1450    1.6050    2.6390 C   0  0  0  0  0  0
   11.0200    2.0990    3.7590 O   0  0  0  0  0  0
   13.5370    0.8390    2.6140 C   0  0  0  0  0  0
   14.7510    1.7030    2.7210 C   0  0  0  0  0  0
   14.2610    3.1210    2.7240 C   0  0  0  0  0  0
   10.1280    0.9690    2.0290 N   0  0  0  0  0  0
    8.8110    0.8220    2.6540 C   0  0  2  0  0  0
    8.8680   -0.0590    3.8970 C   0  0  0  0  0  0
    9.7640   -0.8930    4.0340 O   0  0  0  0  0  0
    7.9640    0.1580    1.5630 C   0  0  0  0  0  0
    8.9480   -0.5160    0.6720 C   0  0  0  0  0  0
   10.1820    0.3410    0.6990 C   0  0  0  0  0  0
    7.9130    0.1100    4.8250 N   0  0  0  0  0  0
    7.8690   -0.6800    6.0570 C   0  0  2  0  0  0
    7.7050   -2.1670    5.7800 C   0  0  0  0  0  0
    7.6330   -2.5920    4.6270 O   0  0  0  0  0  0
    6.6460   -0.1430    6.8050 C   0  0  0  0  0  0
    5.8350    0.5710    5.7780 C   0  0  0  0  0  0
    6.8060    1.0760    4.7470 C   0  0  0  0  0  0
    7.6450   -2.9490    6.8470 N   0  0  0  0  0  0
    7.4880   -4.3810    6.7060 C   0  0  0  0  0  0
    8.7760   -5.0670    6.3010 C   0  0  0  0  0  0
    9.4710   -5.6330    7.1430 O   0  0  0  0  0  0
    9.0920   -5.0090    5.0080 N   0  0  0  0  0  0
   10.3090   -5.6190    4.4690 C   0  0  2  0  0  0
   10.5690   -6.9960    5.0730 C   0  0  0  0  0  0
    9.6840   -7.5970    5.6810 O   0  0  0  0  0  0
   11.5100   -4.6920    4.7030 C   0  0  0  0  0  0
   12.0110   -4.6340    6.1160 C   0  0  0  0  0  0
   12.5270   -3.4850    6.6470 N   0  0  0  0  0  0
   12.0960   -5.5710    7.0970 C   0  0  0  0  0  0
   12.9110   -3.7020    7.8930 C   0  0  0  0  0  0
   12.6590   -4.9610    8.1900 N   0  0  0  0  0  0
   11.7960   -7.4820    4.9110 N   0  0  0  0  0  0
   12.1820   -8.7780    5.4500 C   0  0  2  0  0  0
   13.6080   -9.1350    5.0390 C   0  0  0  0  0  0
   13.8660   -9.4720    3.8840 O   0  0  0  0  0  0
   11.2160   -9.8680    4.9800 C   0  0  0  0  0  0
   10.9130   -9.8140    3.4910 C   0  0  0  0  0  0
    9.4940  -10.2710    3.1930 C   0  0  0  0  0  0
    9.3800  -11.7290    3.1730 N   0  0  0  0  0  0
    8.3270  -12.3840    2.6930 C   0  0  0  0  0  0
    7.2940  -11.7180    2.1910 N   0  0  0  0  0  0
    8.3050  -13.7100    2.7140 N   0  0  0  0  0  0
   14.5280   -9.0560    5.9930 N   0  0  0  0  0  0
   15.9280   -9.3690    5.7330 C   0  0  2  0  0  0
   16.5140  -10.2340    6.8440 C   0  0  0  0  0  0
   16.6160  -11.4630    6.6440 O   0  0  0  0  0  0
   16.7730   -8.0900    5.5940 C   0  0  0  0  0  0
   16.4430   -7.3690    4.2970 C   0  0  0  0  0  0
   16.5570   -7.1760    6.7910 C   0  0  0  0  0  0
   16.8660   -9.6750    7.9040 O   0  0  0  0  0  0
   11.6164   12.8894   -5.0289 H   0  0  0  0  0  0
   12.2664   13.9646   -6.3128 H   0  0  0  0  0  0
   13.3900   13.0092   -5.2874 H   0  0  0  0  0  0
   11.3486   11.9158   -7.2277 H   0  0  0  0  0  0
   14.3656   11.5756   -7.4486 H   0  0  0  0  0  0
   13.1323   11.6425   -8.7529 H   0  0  0  0  0  0
   14.5100   13.7553   -8.7102 H   0  0  0  0  0  0
   14.4565   11.0871   -5.5578 H   0  0  0  0  0  0
   13.7614    8.2646   -5.5215 H   0  0  0  0  0  0
   15.6119    8.0769   -3.8064 H   0  0  0  0  0  0
   16.0775    9.0891   -5.2155 H   0  0  0  0  0  0
   14.2524   10.3188   -1.7773 H   0  0  0  0  0  0
   17.7621   12.5620   -2.4908 H   0  0  0  0  0  0
   13.9075    7.0299   -3.2308 H   0  0  0  0  0  0
   12.2991    8.4376   -1.1717 H   0  0  0  0  0  0
   10.2025    7.3450   -1.3744 H   0  0  0  0  0  0
   10.6546    7.5916   -3.0953 H   0  0  0  0  0  0
   11.1050    5.0189   -1.5415 H   0  0  0  0  0  0
    9.6949    5.3576   -2.6015 H   0  0  0  0  0  0
   10.9009    4.5717   -4.3156 H   0  0  0  0  0  0
   11.9687    6.0065   -4.1485 H   0  0  0  0  0  0
   13.0260    4.2357   -2.2168 H   0  0  0  0  0  0
   12.1116    4.0440   -5.7442 H   0  0  0  0  0  0
   13.4744    2.7581   -6.0895 H   0  0  0  0  0  0
   14.6122    2.7321   -2.6323 H   0  0  0  0  0  0
   14.2172    5.2532    1.2093 H   0  0  0  0  0  0
   12.6661    5.2824    3.4985 H   0  0  0  0  0  0
   13.6776    6.7018    3.0641 H   0  0  0  0  0  0
   10.7148    6.2367    2.6426 H   0  0  0  0  0  0
   11.5634    7.7153    3.2085 H   0  0  0  0  0  0
   12.1151    8.3779    1.0150 H   0  0  0  0  0  0
   10.7284    7.3304    0.5605 H   0  0  0  0  0  0
   12.2807    1.4014    0.8546 H   0  0  0  0  0  0
   13.1638    0.5502    3.6076 H   0  0  0  0  0  0
   13.7416   -0.0653    2.0221 H   0  0  0  0  0  0
   15.2867    1.4688    3.6528 H   0  0  0  0  0  0
   15.4113    1.5157    1.8614 H   0  0  0  0  0  0
   14.9687    3.8144    2.2461 H   0  0  0  0  0  0
   14.0184    3.4829    3.7340 H   0  0  0  0  0  0
    8.4411    1.8033    2.9860 H   0  0  0  0  0  0
    7.2720   -0.5624    2.0236 H   0  0  0  0  0  0
    7.3890    0.9270    1.0263 H   0  0  0  0  0  0
    9.1563   -1.5264    1.0537 H   0  0  0  0  0  0
    8.5340   -0.5863   -0.3447 H   0  0  0  0  0  0
   10.1689    1.1216   -0.0759 H   0  0  0  0  0  0
   11.1060   -0.2491    0.6094 H   0  0  0  0  0  0
    8.8209   -0.5666    6.5964 H   0  0  0  0  0  0
    6.0882   -0.9823    7.2460 H   0  0  0  0  0  0
    6.9746    0.5386    7.6034 H   0  0  0  0  0  0
    5.1128   -0.1276    5.3304 H   0  0  0  0  0  0
    5.2944    1.4038    6.2516 H   0  0  0  0  0  0
    7.1813    2.0834    4.9802 H   0  0  0  0  0  0
    6.3834    1.0682    3.7315 H   0  0  0  0  0  0
    7.7158   -2.4994    7.8484 H   0  0  0  0  0  0
    7.1620   -4.8103    7.6649 H   0  0  0  0  0  0
    6.7336   -4.5929    5.9341 H   0  0  0  0  0  0
    8.3994   -4.4786    4.3380 H   0  0  0  0  0  0
   10.1183   -5.7440    3.3929 H   0  0  0  0  0  0
   12.3568   -5.0261    4.0856 H   0  0  0  0  0  0
   11.2381   -3.6627    4.4263 H   0  0  0  0  0  0
   11.8125   -6.6328    7.1450 H   0  0  0  0  0  0
   13.3592   -2.9659    8.5604 H   0  0  0  0  0  0
   12.5272   -6.8783    4.3534 H   0  0  0  0  0  0
   12.1251   -8.6618    6.5424 H   0  0  0  0  0  0
   11.6486  -10.8571    5.1909 H   0  0  0  0  0  0
   10.2594   -9.7650    5.5132 H   0  0  0  0  0  0
   11.0285   -8.7812    3.1306 H   0  0  0  0  0  0
   11.6105  -10.4710    2.9508 H   0  0  0  0  0  0
    8.8142   -9.8842    3.9665 H   0  0  0  0  0  0
    9.1848   -9.8891    2.2088 H   0  0  0  0  0  0
   10.1961  -12.3500    3.5710 H   0  0  0  0  0  0
    7.3060  -10.6183    2.1707 H   0  0  0  0  0  0
    6.4261  -12.2659    1.7954 H   0  0  0  0  0  0
    9.1577  -14.2677    3.1286 H   0  0  0  0  0  0
   14.2116   -8.7454    6.9997 H   0  0  0  0  0  0
   15.9042   -9.9279    4.7859 H   0  0  0  0  0  0
   17.0346  -12.1145    7.4253 H   0  0  0  0  0  0
   17.8383   -8.3626    5.5641 H   0  0  0  0  0  0
   16.6066   -8.0488    3.4478 H   0  0  0  0  0  0
   17.0929   -6.4878    4.1918 H   0  0  0  0  0  0
   15.3908   -7.0488    4.3130 H   0  0  0  0  0  0
   16.8018   -7.7190    7.7158 H   0  0  0  0  0  0
   15.5054   -6.8546    6.8219 H   0  0  0  0  0  0
   17.2076   -6.2936    6.7007 H   0  0  0  0  0  0
  1  2  1  0  0  0
  1 89  1  0  0  0
  1 90  1  0  0  0
  1 91  1  0  0  0
  2  3  1  0  0  0
  2  5  1  0  0  0
  2 92  1  0  0  0
  3  4  2  0  0  0
  3  7  1  0  0  0
  5  6  1  0  0  0
  5 93  1  0  0  0
  5 94  1  0  0  0
  6 95  1  0  0  0
  7  8  1  0  0  0
  7 96  1  0  0  0
  8  9  1  0  0  0
  8 11  1  0  0  0
  8 97  1  0  0  0
  9 10  2  0  0  0
  9 17  1  0  0  0
 11 12  1  0  0  0
 11 98  1  0  0  0
 11 99  1  0  0  0
 12 13  2  0  0  0
 12 14  1  0  0  0
 13 15  1  0  0  0
 14 16  2  0  0  0
 14100  1  0  0  0
 15 16  1  0  0  0
 15101  1  0  0  0
 17 18  1  0  0  0
 17102  1  0  0  0
 18 19  1  0  0  0
 18 21  1  0  0  0
 18103  1  0  0  0
 19 20  2  0  0  0
 19 28  1  0  0  0
 21 22  1  0  0  0
 21104  1  0  0  0
 21105  1  0  0  0
 22 23  1  0  0  0
 22106  1  0  0  0
 22107  1  0  0  0
 23 24  1  0  0  0
 23108  1  0  0  0
 23109  1  0  0  0
 24 25  1  0  0  0
 24110  1  0  0  0
 25 26  1  0  0  0
 25 27  2  0  0  0
 26111  1  0  0  0
 26112  1  0  0  0
 27113  1  0  0  0
 28 29  1  0  0  0
 28 34  1  0  0  0
 29 30  1  0  0  0
 29 32  1  0  0  0
 29114  1  0  0  0
 30 31  2  0  0  0
 30 35  1  0  0  0
 32 33  1  0  0  0
 32115  1  0  0  0
 32116  1  0  0  0
 33 34  1  0  0  0
 33117  1  0  0  0
 33118  1  0  0  0
 34119  1  0  0  0
 34120  1  0  0  0
 35 36  1  0  0  0
 35 41  1  0  0  0
 36 37  1  0  0  0
 36 39  1  0  0  0
 36121  1  0  0  0
 37 38  2  0  0  0
 37 42  1  0  0  0
 39 40  1  0  0  0
 39122  1  0  0  0
 39123  1  0  0  0
 40 41  1  0  0  0
 40124  1  0  0  0
 40125  1  0  0  0
 41126  1  0  0  0
 41127  1  0  0  0
 42 43  1  0  0  0
 42 48  1  0  0  0
 43 44  1  0  0  0
 43 46  1  0  0  0
 43128  1  0  0  0
 44 45  2  0  0  0
 44 49  1  0  0  0
 46 47  1  0  0  0
 46129  1  0  0  0
 46130  1  0  0  0
 47 48  1  0  0  0
 47131  1  0  0  0
 47132  1  0  0  0
 48133  1  0  0  0
 48134  1  0  0  0
 49 50  1  0  0  0
 49 55  1  0  0  0
 50 51  1  0  0  0
 50 53  1  0  0  0
 50135  1  0  0  0
 51 52  2  0  0  0
 51 56  1  0  0  0
 53 54  1  0  0  0
 53136  1  0  0  0
 53137  1  0  0  0
 54 55  1  0  0  0
 54138  1  0  0  0
 54139  1  0  0  0
 55140  1  0  0  0
 55141  1  0  0  0
 56 57  1  0  0  0
 56142  1  0  0  0
 57 58  1  0  0  0
 57143  1  0  0  0
 57144  1  0  0  0
 58 59  2  0  0  0
 58 60  1  0  0  0
 60 61  1  0  0  0
 60145  1  0  0  0
 61 62  1  0  0  0
 61 64  1  0  0  0
 61146  1  0  0  0
 62 63  2  0  0  0
 62 70  1  0  0  0
 64 65  1  0  0  0
 64147  1  0  0  0
 64148  1  0  0  0
 65 66  2  0  0  0
 65 67  1  0  0  0
 66 68  1  0  0  0
 67 69  2  0  0  0
 67149  1  0  0  0
 68 69  1  0  0  0
 68150  1  0  0  0
 70 71  1  0  0  0
 70151  1  0  0  0
 71 72  1  0  0  0
 71 74  1  0  0  0
 71152  1  0  0  0
 72 73  2  0  0  0
 72 81  1  0  0  0
 74 75  1  0  0  0
 74153  1  0  0  0
 74154  1  0  0  0
 75 76  1  0  0  0
 75155  1  0  0  0
 75156  1  0  0  0
 76 77  1  0  0  0
 76157  1  0  0  0
 76158  1  0  0  0
 77 78  1  0  0  0
 77159  1  0  0  0
 78 79  1  0  0  0
 78 80  2  0  0  0
 79160  1  0  0  0
 79161  1  0  0  0
 80162  1  0  0  0
 81 82  1  0  0  0
 81163  1  0  0  0
 82 83  1  0  0  0
 82 85  1  0  0  0
 82164  1  0  0  0
 83 84  1  0  0  0
 83 88  2  0  0  0
 84165  1  0  0  0
 85 86  1  0  0  0
 85 87  1  0  0  0
 85166  1  0  0  0
 86167  1  0  0  0
 86168  1  0  0  0
 86169  1  0  0  0
 87170  1  0  0  0
 87171  1  0  0  0
 87172  1  0  0  0
M  CHG  1   1   1
M  END
> <s_m_source_file>
../1l2z_ligand.sdf

> <i_m_source_file_index>
1

> <s_epik_input>
W0NIXTE9TltDSDJdTj1DMVtDSDJdW0NASF0oW05IXUMoPU8pW0NAQEhdKFtOSDMrXSlbQ0gyXVtPSF0pQyg9TylbTkhdW0NAQEhdKFtDSDJdW0NIMl1bQ0gyXVtOSF0vQyhbTkgyXSk9TlxbSF0pQyg9TylOMltDQEBIXShbQ0gyXVtDSDJdW0NIMl0yKUMoPU8pTjNbQ0BASF0oW0NIMl1bQ0gyXVtDSDJdMylDKD1PKU40W0NAQEhdKFtDSDJdW0NIMl1bQ0gyXTQpQyg9TylONVtDQEBIXShbQ0gyXVtDSDJdW0NIMl01KUMoPU8pW05IXVtDSDJdQyg9TylbTkhdW0NAQEhdKFtDSDJdQzY9TltDSDJdTj1bQ0hdNilDKD1PKVtOSF1bQ0BIXShDKD1PKVtOSF1bQ0BIXShDKD1PKVtPSF0pW0NIXShbQ0gzXSlbQ0gzXSlbQ0gyXVtDSDJdW0NIMl1bTkhdL0MoW05IMl0pPU5cW0hd

> <s_epik_cmdline>
J2VwaWtfYXBwJywgJy1pbWFlJywgJ2xpZ2FuZF9wcm8ubWFlJywgJy1vbWFlJywgJ2xpZ2FuZF9wcmVwLm1hZScsICctbXMnLCAnMScsICctcGgnLCAnNycsICctcGh0JywgJzAuNScsICctbnQn

> <s_epik_pKa_notes>
Molecule size exceeds maximum supported for generating protonation states

> <s_epik_Chemistry_Notes>
This compound has an imine and may undergo hydrolysis.

$$$$
