1l5q_ligand
                    3D
 Schrodinger Suite 2020-3.
 24 25  0  0  1  0            999 V2000
   38.6960  -58.4400  101.9380 N   0  0  0  0  0  0
   37.4250  -58.1340  102.7200 C   0  0  0  0  0  0
   39.9420  -58.1140  102.6770 C   0  0  0  0  0  0
   38.7410  -58.9840  100.6370 C   0  0  0  0  0  0
   36.3240  -58.4340  102.0490 N   0  0  0  0  0  0
   37.5510  -57.6770  103.8030 O   0  0  0  0  0  0
   34.9970  -58.1780  102.7150 C   0  0  0  0  0  0
   36.3100  -58.9870  100.7360 C   0  0  0  0  0  0
   37.4630  -59.2600  100.0450 C   0  0  0  0  0  0
   35.2490  -59.2960  100.0490 N   0  0  0  0  0  0
   39.8750  -59.2060  100.0650 O   0  0  0  0  0  0
   37.0530  -59.7940   98.8110 N   0  0  0  0  0  0
   35.7130  -59.7850   98.8880 C   0  0  0  0  0  0
   37.8900  -60.2580   97.6980 C   0  0  0  0  0  0
   39.6857  -57.7039  103.6650 H   0  0  0  0  0  0
   40.5206  -57.3699  102.1099 H   0  0  0  0  0  0
   40.5427  -59.0268  102.8035 H   0  0  0  0  0  0
   35.1649  -57.7536  103.7158 H   0  0  0  0  0  0
   34.4439  -59.1244  102.8061 H   0  0  0  0  0  0
   34.4135  -57.4691  102.1093 H   0  0  0  0  0  0
   35.0651  -60.1399   98.0865 H   0  0  0  0  0  0
   38.9509  -60.1271   97.9577 H   0  0  0  0  0  0
   37.6583  -59.6724   96.7961 H   0  0  0  0  0  0
   37.6880  -61.3222   97.5062 H   0  0  0  0  0  0
  1  2  1  0  0  0
  1  3  1  0  0  0
  1  4  1  0  0  0
  2  5  1  0  0  0
  2  6  2  0  0  0
  3 15  1  0  0  0
  3 16  1  0  0  0
  3 17  1  0  0  0
  4  9  1  0  0  0
  4 11  2  0  0  0
  5  7  1  0  0  0
  5  8  1  0  0  0
  7 18  1  0  0  0
  7 19  1  0  0  0
  7 20  1  0  0  0
  8  9  2  0  0  0
  8 10  1  0  0  0
  9 12  1  0  0  0
 10 13  2  0  0  0
 12 13  1  0  0  0
 12 14  1  0  0  0
 13 21  1  0  0  0
 14 22  1  0  0  0
 14 23  1  0  0  0
 14 24  1  0  0  0
M  END
> <s_m_source_file>
../1l5q_ligand.sdf

> <i_m_source_file_index>
1

> <s_epik_input>
W0NIM11uMWMoPU8pbihbQ0gzXSljKD1PKWMoYzEyKW4oW2NIXW4yKVtDSDNd

> <s_epik_cmdline>
J2VwaWtfYXBwJywgJy1pbWFlJywgJ2xpZ2FuZF9wcm8ubWFlJywgJy1vbWFlJywgJ2xpZ2FuZF9wcmVwLm1hZScsICctbXMnLCAnMScsICctcGgnLCAnNycsICctcGh0JywgJzAuNScsICctbnQn

> <r_lp_tautomer_probability>
1

> <r_epik_Ionization_Penalty>
  0.0000

> <r_epik_Ionization_Penalty_Charging>
  0.0000

> <r_epik_Ionization_Penalty_Neutral>
  0.0000

> <r_epik_State_Penalty>
 -0.0000

> <r_epik_Charging_Adjusted_Penalty>
3.77584595045307e-09

> <i_epik_Tot_Q>
0

> <i_epik_Tot_abs_Q>
0

$$$$
