1l5r_ligand
                    3D
 Schrodinger Suite 2020-3.
 48 50  0  0  1  0            999 V2000
   36.1500  -58.7290   99.8420 N   0  0  0  0  0  0
   36.3280  -59.3000   98.5780 C   0  0  0  0  0  0
   35.4650  -59.4820   97.7700 O   0  0  0  0  0  0
   37.6190  -59.6860   98.2520 N   0  0  0  0  0  0
   38.6810  -59.5260   99.1340 C   0  0  0  0  0  0
   39.8390  -59.8560   98.8920 O   0  0  0  0  0  0
   38.4490  -58.9190  100.5060 C   0  0  0  0  0  0
   39.4540  -58.7990  101.3140 N   0  0  0  0  0  0
   39.1960  -58.2390  102.5770 C   0  0  0  0  0  0
   40.2820  -58.1150  103.4790 C   0  0  0  0  0  0
   40.0800  -57.5650  104.7510 C   0  0  0  0  0  0
   41.1860  -57.3970  105.8000 C   0  0  0  0  0  0
   38.7280  -57.1150  105.1280 C   0  0  0  0  0  0
   38.4780  -56.4970  106.5430 C   0  0  0  0  0  0
   37.6550  -57.2180  104.2780 C   0  0  0  0  0  0
   37.9050  -57.7940  102.9870 C   0  0  0  0  0  0
   36.8840  -57.9670  102.0180 N   0  0  0  0  0  0
   37.1050  -58.5270  100.7840 C   0  0  3  0  0  0
   35.4500  -57.5220  102.3080 C   0  0  0  0  0  0
   34.7090  -58.6060  103.1460 C   0  0  2  0  0  0
   34.5180  -59.8210  102.3570 O   0  0  0  0  0  0
   33.3120  -58.1390  103.5260 C   0  0  2  0  0  0
   32.6690  -57.9220  102.2940 O   0  0  0  0  0  0
   33.3070  -56.9020  104.3570 C   0  0  2  0  0  0
   34.2490  -56.7170  105.4080 O   0  0  0  0  0  0
   31.9130  -56.7320  105.0840 C   0  0  0  0  0  0
   31.9860  -55.3330  105.3570 O   0  0  0  0  0  0
   35.1519  -58.3907  100.1571 H   0  0  0  0  0  0
   37.8274  -60.1344   97.2694 H   0  0  0  0  0  0
   41.2764  -58.4483  103.1822 H   0  0  0  0  0  0
   42.1374  -57.7698  105.3926 H   0  0  0  0  0  0
   40.9248  -57.9684  106.7029 H   0  0  0  0  0  0
   41.2891  -56.3324  106.0568 H   0  0  0  0  0  0
   39.4220  -56.4794  107.1074 H   0  0  0  0  0  0
   37.7388  -57.1062  107.0838 H   0  0  0  0  0  0
   38.0974  -55.4708  106.4329 H   0  0  0  0  0  0
   36.6609  -56.8787  104.5693 H   0  0  0  0  0  0
   35.4661  -56.5787  102.8736 H   0  0  0  0  0  0
   34.9138  -57.3716  101.3594 H   0  0  0  0  0  0
   35.3123  -58.8453  104.0341 H   0  0  0  0  0  0
   35.3897  -60.3599  101.9572 H   0  0  0  0  0  0
   32.7495  -58.8803  104.1126 H   0  0  0  0  0  0
   32.5884  -58.7408  101.5639 H   0  0  0  0  0  0
   33.6661  -56.1934  103.5962 H   0  0  0  0  0  0
   35.3269  -56.7800  105.1979 H   0  0  0  0  0  0
   31.1039  -57.0237  104.3983 H   0  0  0  0  0  0
   31.8850  -57.3727  105.9777 H   0  0  0  0  0  0
   31.1577  -54.8303  105.8777 H   0  0  0  0  0  0
  1  2  1  0  0  0
  1 18  1  0  0  0
  1 28  1  0  0  0
  2  3  2  0  0  0
  2  4  1  0  0  0
  4  5  1  0  0  0
  4 29  1  0  0  0
  5  6  2  0  0  0
  5  7  1  0  0  0
  7  8  2  0  0  0
  7 18  1  0  0  0
  8  9  1  0  0  0
  9 10  2  0  0  0
  9 16  1  0  0  0
 10 11  1  0  0  0
 10 30  1  0  0  0
 11 12  1  0  0  0
 11 13  2  0  0  0
 12 31  1  0  0  0
 12 32  1  0  0  0
 12 33  1  0  0  0
 13 14  1  0  0  0
 13 15  1  0  0  0
 14 34  1  0  0  0
 14 35  1  0  0  0
 14 36  1  0  0  0
 15 16  2  0  0  0
 15 37  1  0  0  0
 16 17  1  0  0  0
 17 18  1  0  0  0
 17 19  1  0  0  0
 19 20  1  0  0  0
 19 38  1  0  0  0
 19 39  1  0  0  0
 20 21  1  0  0  0
 20 22  1  0  0  0
 20 40  1  0  0  0
 21 41  1  0  0  0
 22 23  1  0  0  0
 22 24  1  0  0  0
 22 42  1  0  0  0
 23 43  1  0  0  0
 24 25  1  0  0  0
 24 26  1  0  0  0
 24 44  1  0  0  0
 25 45  1  0  0  0
 26 27  1  0  0  0
 26 46  1  0  0  0
 26 47  1  0  0  0
 27 48  1  0  0  0
M  END
> <s_m_source_file>
../1l5r_ligand.sdf

> <i_m_source_file_index>
1

> <s_epik_input>
Tz1DMVtOSF1DKD1PKVtOSF1bQ0hdKEMxPTIpTihjM2MoTjIpW2NIXWMoW0NIM10pYyhbQ0gzXSlbY0hdMylbQ0gyXVtDQEhdKFtPSF0pW0NASF0oW09IXSlbQ0BIXShbT0hdKVtDSDJdW09IXQ==

> <s_epik_cmdline>
J2VwaWtfYXBwJywgJy1pbWFlJywgJ2xpZ2FuZF9wcm8ubWFlJywgJy1vbWFlJywgJ2xpZ2FuZF9wcmVwLm1hZScsICctbXMnLCAnMScsICctcGgnLCAnNycsICctcGh0JywgJzAuNScsICctbnQn

> <r_epik_Ionization_Penalty>
  0.0728

> <r_epik_Ionization_Penalty_Charging>
  0.0000

> <r_epik_Ionization_Penalty_Neutral>
  0.0728

> <r_epik_State_Penalty>
  0.0634

> <r_epik_Charging_Adjusted_Penalty>
0.0633951760452824

> <i_epik_Tot_Q>
0

> <i_epik_Tot_abs_Q>
0

> <s_epik_Chemistry_Notes>
This compound has an imine and may undergo hydrolysis.

$$$$
