1l5s_ligand
                    3D
 Schrodinger Suite 2020-3.
 14 15  0  0  1  0            999 V2000
   38.2170  -59.8000   98.3950 N   0  0  0  0  0  0
   36.8790  -59.8580   98.2720 C   0  0  0  0  0  0
   38.8200  -59.2600   99.4670 C   0  0  0  0  0  0
   36.0750  -59.3720   99.2250 N   0  0  0  0  0  0
   36.3880  -60.3650   97.2760 O   0  0  0  0  0  0
   36.5840  -58.8190  100.3250 C   0  0  0  0  0  0
   37.9180  -58.7230  100.5210 C   0  0  0  0  0  0
   36.0360  -58.2870  101.3770 N   0  0  0  0  0  0
   40.0320  -59.1930   99.6130 O   0  5  0  0  0  0
   38.1010  -58.1470  101.6710 N   0  0  0  0  0  0
   36.9450  -57.8660  102.2240 C   0  0  0  0  0  0
   36.7530  -57.3270  103.3000 O   0  5  0  0  0  0
   38.8605  -60.2041   97.5996 H   0  0  0  0  0  0
   39.1216  -57.9657  102.0391 H   0  0  0  0  0  0
  1  2  1  0  0  0
  1  3  1  0  0  0
  1 13  1  0  0  0
  2  4  1  0  0  0
  2  5  2  0  0  0
  3  7  2  0  0  0
  3  9  1  0  0  0
  4  6  2  0  0  0
  6  7  1  0  0  0
  6  8  1  0  0  0
  7 10  1  0  0  0
  8 11  2  0  0  0
 10 11  1  0  0  0
 10 14  1  0  0  0
 11 12  1  0  0  0
M  CHG  2   9  -1  12  -1
M  END
> <s_m_source_file>
../1l5s_ligand.sdf

> <i_m_source_file_index>
1

> <s_epik_input>
W25IXTFjKD1PKVtuSF1jKD1PKWMoYzEyKVtuSF1jKD1PKVtuSF0y

> <s_epik_cmdline>
J2VwaWtfYXBwJywgJy1pbWFlJywgJ2xpZ2FuZF9wcm8ubWFlJywgJy1vbWFlJywgJ2xpZ2FuZF9wcmVwLm1hZScsICctbXMnLCAnMScsICctcGgnLCAnNycsICctcGh0JywgJzAuNScsICctbnQn

> <r_lp_tautomer_probability>
1

> <r_epik_Ionization_Penalty>
 14.0607

> <r_epik_Ionization_Penalty_Charging>
 13.8089

> <r_epik_Ionization_Penalty_Neutral>
  0.2518

> <r_epik_State_Penalty>
 -0.0000

> <r_epik_Charging_Adjusted_Penalty>
13.8088827149211

> <i_epik_Tot_Q>
-2

> <i_epik_Tot_abs_Q>
2

$$$$
