1l6m_ligand
                    3D
 Schrodinger Suite 2020-3.
 16 16  0  0  1  0            999 V2000
   31.1090   76.4080   66.2180 O   0  5  0  0  0  0
   32.0030   75.6200   65.5910 C   0  0  0  0  0  0
   33.0180   75.2480   66.1960 O   0  0  0  0  0  0
   31.6450   75.1920   64.1430 C   0  0  0  0  0  0
   32.4820   74.2040   63.4330 C   0  0  0  0  0  0
   32.1960   73.7700   62.1370 C   0  0  0  0  0  0
   30.5140   75.6890   63.4150 C   0  0  0  0  0  0
   29.6370   76.5890   63.8880 O   0  0  0  0  0  0
   30.2330   75.2120   62.0490 C   0  0  0  0  0  0
   31.0810   74.2540   61.4240 C   0  0  0  0  0  0
   29.1390   75.7420   61.4610 O   0  0  0  0  0  0
   33.3570   73.7978   63.9403 H   0  0  0  0  0  0
   32.8517   73.0384   61.6649 H   0  0  0  0  0  0
   29.7648   77.0026   64.8992 H   0  0  0  0  0  0
   30.8718   73.9019   60.4139 H   0  0  0  0  0  0
   28.5267   76.4789   62.0014 H   0  0  0  0  0  0
  1  2  1  0  0  0
  2  3  2  0  0  0
  2  4  1  0  0  0
  4  5  2  0  0  0
  4  7  1  0  0  0
  5  6  1  0  0  0
  5 12  1  0  0  0
  6 10  2  0  0  0
  6 13  1  0  0  0
  7  8  1  0  0  0
  7  9  2  0  0  0
  8 14  1  0  0  0
  9 10  1  0  0  0
  9 11  1  0  0  0
 10 15  1  0  0  0
 11 16  1  0  0  0
M  CHG  1   1  -1
M  END
> <s_m_source_file>
../1l6m_ligand.sdf

> <i_m_source_file_index>
1

> <s_epik_input>
W09IXUMoPU8pYzFbY0hdW2NIXVtjSF1jKFtPSF0pYzFbT0hd

> <s_epik_cmdline>
J2VwaWtfYXBwJywgJy1pbWFlJywgJ2xpZ2FuZF9wcm8ubWFlJywgJy1vbWFlJywgJ2xpZ2FuZF9wcmVwLm1hZScsICctbXMnLCAnMScsICctcGgnLCAnNycsICctcGh0JywgJzAuNScsICctbnQn

> <r_lp_tautomer_probability>
1

> <r_epik_Ionization_Penalty>
  0.0017

> <r_epik_Ionization_Penalty_Charging>
  0.0000

> <r_epik_Ionization_Penalty_Neutral>
  0.0016

> <r_epik_State_Penalty>
 -0.0000

> <r_epik_Charging_Adjusted_Penalty>
4.56206219586118e-05

> <i_epik_Tot_Q>
-1

> <i_epik_Tot_abs_Q>
1

$$$$
