1l6s_ligand
                    3D
 Schrodinger Suite 2020-3.
 30 29  0  0  1  0            999 V2000
   21.1330   91.2050   49.0930 C   0  0  0  0  0  0
   22.2470   90.9800   48.5420 O   0  0  0  0  0  0
   20.8450   90.3720   50.3230 C   0  0  0  0  0  0
   19.3590   90.3810   50.6570 C   0  0  0  0  0  0
   19.3170   89.5610   53.0580 C   0  0  0  0  0  0
   20.2590   92.0480   48.7160 O   0  5  0  0  0  0
   19.1570   88.3590   53.9740 C   0  0  0  0  0  0
   21.3060   87.0790   52.8760 C   0  0  0  0  0  0
   22.1390   88.2820   53.2740 C   0  0  0  0  0  0
   23.5780   87.8550   53.4840 C   0  0  0  0  0  0
   23.8360   86.6240   53.4500 O   0  5  0  0  0  0
   24.4110   88.7700   53.7030 O   0  0  0  0  0  0
   19.9280   87.0940   53.5040 C   0  0  0  0  0  0
   19.0060   89.2710   51.5990 C   0  0  0  0  0  0
   21.1586   89.3330   50.1438 H   0  0  0  0  0  0
   21.4004   90.7799   51.1804 H   0  0  0  0  0  0
   19.0953   91.3384   51.1300 H   0  0  0  0  0  0
   18.7748   90.2552   49.7335 H   0  0  0  0  0  0
   18.6366   90.3622   53.3822 H   0  0  0  0  0  0
   20.3554   89.9211   53.1035 H   0  0  0  0  0  0
   19.5304   88.6106   54.9776 H   0  0  0  0  0  0
   18.0936   88.0846   54.0365 H   0  0  0  0  0  0
   21.1799   87.0656   51.7833 H   0  0  0  0  0  0
   21.8146   86.1582   53.1977 H   0  0  0  0  0  0
   22.0943   89.0388   52.4770 H   0  0  0  0  0  0
   21.7439   88.7090   54.2076 H   0  0  0  0  0  0
   20.0841   86.4207   54.3598 H   0  0  0  0  0  0
   19.3433   86.5745   52.7306 H   0  0  0  0  0  0
   17.9271   89.0660   51.5362 H   0  0  0  0  0  0
   19.5677   88.3656   51.3257 H   0  0  0  0  0  0
  1  2  2  0  0  0
  1  3  1  0  0  0
  1  6  1  0  0  0
  3  4  1  0  0  0
  3 15  1  0  0  0
  3 16  1  0  0  0
  4 14  1  0  0  0
  4 17  1  0  0  0
  4 18  1  0  0  0
  5  7  1  0  0  0
  5 14  1  0  0  0
  5 19  1  0  0  0
  5 20  1  0  0  0
  7 13  1  0  0  0
  7 21  1  0  0  0
  7 22  1  0  0  0
  8  9  1  0  0  0
  8 13  1  0  0  0
  8 23  1  0  0  0
  8 24  1  0  0  0
  9 10  1  0  0  0
  9 25  1  0  0  0
  9 26  1  0  0  0
 10 11  1  0  0  0
 10 12  2  0  0  0
 13 27  1  0  0  0
 13 28  1  0  0  0
 14 29  1  0  0  0
 14 30  1  0  0  0
M  CHG  2   6  -1  11  -1
M  END
> <s_m_source_file>
../1l6s_ligand.sdf

> <i_m_source_file_index>
1

> <s_epik_input>
Tz1DKFtPSF0pW0NIMl1bQ0gyXVtDSDJdW0NIMl1bQ0gyXVtDSDJdW0NIMl1bQ0gyXUMoPU8pW09IXQ==

> <s_epik_cmdline>
J2VwaWtfYXBwJywgJy1pbWFlJywgJ2xpZ2FuZF9wcm8ubWFlJywgJy1vbWFlJywgJ2xpZ2FuZF9wcmVwLm1hZScsICctbXMnLCAnMScsICctcGgnLCAnNycsICctcGh0JywgJzAuNScsICctbnQn

> <r_epik_Ionization_Penalty>
  0.0097

> <r_epik_Ionization_Penalty_Charging>
  0.0097

> <r_epik_Ionization_Penalty_Neutral>
  0.0000

> <r_epik_State_Penalty>
  0.0074

> <r_epik_Charging_Adjusted_Penalty>
0.0170603881542268

> <i_epik_Tot_Q>
-2

> <i_epik_Tot_abs_Q>
2

$$$$
