1l6y_ligand
                    3D
 Schrodinger Suite 2020-3.
 30 29  0  0  1  0            999 V2000
   22.9170   86.5260   54.0730 C   0  0  0  0  0  0
   24.4170   86.2690   54.2110 C   0  0  0  0  0  0
   25.2610   87.1490   53.2360 C   0  0  0  0  0  0
   26.8220   87.0210   53.4680 C   0  0  0  0  0  0
   27.4980   86.1100   52.8380 O   0  5  0  0  0  0
   27.3540   87.8580   54.2740 O   0  0  0  0  0  0
   21.8640   91.6230   48.9630 O   0  0  0  0  0  0
   22.2960   90.4820   49.2360 C   0  0  0  0  0  0
   23.4240   90.0500   48.9030 O   0  5  0  0  0  0
   21.3890   89.5150   49.9800 C   0  0  0  0  0  0
   21.3710   89.7190   51.4920 C   0  0  0  0  0  0
   20.8360   88.5110   52.2010 C   0  0  0  0  0  0
   21.0610   88.3950   53.7240 C   0  0  0  0  0  0
   22.5550   88.0680   54.0960 C   0  0  0  0  0  0
   22.5601   86.1109   53.1189 H   0  0  0  0  0  0
   22.3841   86.0429   54.9052 H   0  0  0  0  0  0
   24.7352   86.4982   55.2387 H   0  0  0  0  0  0
   24.6302   85.2131   53.9880 H   0  0  0  0  0  0
   25.0547   86.8476   52.1984 H   0  0  0  0  0  0
   24.9920   88.2070   53.3709 H   0  0  0  0  0  0
   20.3550   89.6346   49.6241 H   0  0  0  0  0  0
   21.7232   88.4833   49.7958 H   0  0  0  0  0  0
   22.3942   89.9082   51.8486 H   0  0  0  0  0  0
   20.7318   90.5797   51.7383 H   0  0  0  0  0  0
   19.7445   88.4640   52.0726 H   0  0  0  0  0  0
   21.2943   87.6048   51.7782 H   0  0  0  0  0  0
   20.7947   89.3465   54.2075 H   0  0  0  0  0  0
   20.4300   87.5894   54.1276 H   0  0  0  0  0  0
   22.7281   88.4702   55.1051 H   0  0  0  0  0  0
   23.1884   88.6042   53.3740 H   0  0  0  0  0  0
  1  2  1  0  0  0
  1 14  1  0  0  0
  1 15  1  0  0  0
  1 16  1  0  0  0
  2  3  1  0  0  0
  2 17  1  0  0  0
  2 18  1  0  0  0
  3  4  1  0  0  0
  3 19  1  0  0  0
  3 20  1  0  0  0
  4  5  1  0  0  0
  4  6  2  0  0  0
  7  8  2  0  0  0
  8  9  1  0  0  0
  8 10  1  0  0  0
 10 11  1  0  0  0
 10 21  1  0  0  0
 10 22  1  0  0  0
 11 12  1  0  0  0
 11 23  1  0  0  0
 11 24  1  0  0  0
 12 13  1  0  0  0
 12 25  1  0  0  0
 12 26  1  0  0  0
 13 14  1  0  0  0
 13 27  1  0  0  0
 13 28  1  0  0  0
 14 29  1  0  0  0
 14 30  1  0  0  0
M  CHG  2   5  -1   9  -1
M  END
> <s_m_source_file>
../1l6y_ligand.sdf

> <i_m_source_file_index>
1

> <s_epik_input>
W09IXUMoPU8pW0NIMl1bQ0gyXVtDSDJdW0NIMl1bQ0gyXVtDSDJdW0NIMl1bQ0gyXUMoPU8pW09IXQ==

> <s_epik_cmdline>
J2VwaWtfYXBwJywgJy1pbWFlJywgJ2xpZ2FuZF9wcm8ubWFlJywgJy1vbWFlJywgJ2xpZ2FuZF9wcmVwLm1hZScsICctbXMnLCAnMScsICctcGgnLCAnNycsICctcGh0JywgJzAuNScsICctbnQn

> <r_epik_Ionization_Penalty>
  0.0097

> <r_epik_Ionization_Penalty_Charging>
  0.0097

> <r_epik_Ionization_Penalty_Neutral>
  0.0000

> <r_epik_State_Penalty>
  0.0074

> <r_epik_Charging_Adjusted_Penalty>
0.0170603881542268

> <i_epik_Tot_Q>
-2

> <i_epik_Tot_abs_Q>
2

$$$$
