1l7x_ligand
                    3D
 Schrodinger Suite 2020-3.
 24 25  0  0  1  0            999 V2000
   38.4150  -58.1290  101.3380 N   0  0  0  0  0  0
   37.1970  -57.8480  102.2260 C   0  0  0  0  0  0
   39.7250  -57.7790  101.9580 C   0  0  0  0  0  0
   38.3750  -58.6650  100.0580 C   0  0  0  0  0  0
   36.0530  -58.1770  101.6350 N   0  0  0  0  0  0
   37.3970  -57.3820  103.3120 O   0  0  0  0  0  0
   34.7770  -57.9510  102.4020 C   0  0  0  0  0  0
   35.9590  -58.7380  100.3080 C   0  0  0  0  0  0
   37.0660  -58.9750   99.5480 C   0  0  0  0  0  0
   34.8650  -59.0830   99.6810 N   0  0  0  0  0  0
   39.4730  -58.8510   99.4210 O   0  0  0  0  0  0
   36.5970  -59.5200   98.3420 N   0  0  0  0  0  0
   35.2690  -59.5550   98.4940 C   0  0  0  0  0  0
   37.3910  -59.9520   97.1840 C   0  0  0  0  0  0
   39.5564  -57.3711  102.9656 H   0  0  0  0  0  0
   40.2346  -57.0265  101.3383 H   0  0  0  0  0  0
   40.3504  -58.6812  102.0276 H   0  0  0  0  0  0
   35.0125  -57.5222  103.3872 H   0  0  0  0  0  0
   34.2543  -58.9097  102.5348 H   0  0  0  0  0  0
   34.1322  -57.2559  101.8443 H   0  0  0  0  0  0
   34.5859  -59.9288   97.7313 H   0  0  0  0  0  0
   38.4588  -59.7851   97.3888 H   0  0  0  0  0  0
   37.0925  -59.3724   96.2980 H   0  0  0  0  0  0
   37.2162  -61.0220   96.9982 H   0  0  0  0  0  0
  1  2  1  0  0  0
  1  3  1  0  0  0
  1  4  1  0  0  0
  2  5  1  0  0  0
  2  6  2  0  0  0
  3 15  1  0  0  0
  3 16  1  0  0  0
  3 17  1  0  0  0
  4  9  1  0  0  0
  4 11  2  0  0  0
  5  7  1  0  0  0
  5  8  1  0  0  0
  7 18  1  0  0  0
  7 19  1  0  0  0
  7 20  1  0  0  0
  8  9  2  0  0  0
  8 10  1  0  0  0
  9 12  1  0  0  0
 10 13  2  0  0  0
 12 13  1  0  0  0
 12 14  1  0  0  0
 13 21  1  0  0  0
 14 22  1  0  0  0
 14 23  1  0  0  0
 14 24  1  0  0  0
M  END
> <s_m_source_file>
../1l7x_ligand.sdf

> <i_m_source_file_index>
1

> <s_epik_input>
W0NIM11uMWMoPU8pbihbQ0gzXSljKD1PKWMoYzEyKW4oW2NIXW4yKVtDSDNd

> <s_epik_cmdline>
J2VwaWtfYXBwJywgJy1pbWFlJywgJ2xpZ2FuZF9wcm8ubWFlJywgJy1vbWFlJywgJ2xpZ2FuZF9wcmVwLm1hZScsICctbXMnLCAnMScsICctcGgnLCAnNycsICctcGh0JywgJzAuNScsICctbnQn

> <r_lp_tautomer_probability>
1

> <r_epik_Ionization_Penalty>
  0.0000

> <r_epik_Ionization_Penalty_Charging>
  0.0000

> <r_epik_Ionization_Penalty_Neutral>
  0.0000

> <r_epik_State_Penalty>
 -0.0000

> <r_epik_Charging_Adjusted_Penalty>
3.77584595045307e-09

> <i_epik_Tot_Q>
0

> <i_epik_Tot_abs_Q>
0

$$$$
