1l83_ligand
                    3D
 Schrodinger Suite 2020-3.
 12 12  0  0  1  0            999 V2000
   27.3850    5.8810    2.9280 C   0  0  0  0  0  0
   26.4080    5.0860    3.5120 C   0  0  0  0  0  0
   27.8910    6.9730    3.6200 C   0  0  0  0  0  0
   25.9570    5.3520    4.8050 C   0  0  0  0  0  0
   27.4410    7.2400    4.9130 C   0  0  0  0  0  0
   26.4900    6.4180    5.5200 C   0  0  0  0  0  0
   27.7537    5.6484    1.9290 H   0  0  0  0  0  0
   25.9899    4.2471    2.9556 H   0  0  0  0  0  0
   28.6362    7.6185    3.1552 H   0  0  0  0  0  0
   25.1873    4.7244    5.2542 H   0  0  0  0  0  0
   27.8360    8.0993    5.4550 H   0  0  0  0  0  0
   26.1689    6.6101    6.5438 H   0  0  0  0  0  0
  1  2  2  0  0  0
  1  3  1  0  0  0
  1  7  1  0  0  0
  2  4  1  0  0  0
  2  8  1  0  0  0
  3  5  2  0  0  0
  3  9  1  0  0  0
  4  6  2  0  0  0
  4 10  1  0  0  0
  5  6  1  0  0  0
  5 11  1  0  0  0
  6 12  1  0  0  0
M  END
> <s_m_source_file>
../1l83_ligand.sdf

> <i_m_source_file_index>
1

> <s_epik_input>
W2NIXTFbY0hdW2NIXVtjSF1bY0hdW2NIXTE=

> <s_epik_cmdline>
J2VwaWtfYXBwJywgJy1pbWFlJywgJ2xpZ2FuZF9wcm8ubWFlJywgJy1vbWFlJywgJ2xpZ2FuZF9wcmVwLm1hZScsICctbXMnLCAnMScsICctcGgnLCAnNycsICctcGh0JywgJzAuNScsICctbnQn

> <r_lp_tautomer_probability>
1

> <r_epik_Ionization_Penalty>
  0.0000

> <r_epik_Ionization_Penalty_Charging>
  0.0000

> <r_epik_Ionization_Penalty_Neutral>
  0.0000

> <r_epik_State_Penalty>
 -0.0000

> <r_epik_Charging_Adjusted_Penalty>
0

> <i_epik_Tot_Q>
0

> <i_epik_Tot_abs_Q>
0

$$$$
