1lb6_ligand
                    3D
 Schrodinger Suite 2020-3.
158159  0  0  1  0            999 V2000
   25.0230   20.8220   15.9910 N   0  3  0  0  0  0
   23.7190   20.1800   16.3280 C   0  0  2  0  0  0
   22.6340   20.6080   15.3550 C   0  0  0  0  0  0
   22.3820   21.8040   15.1750 O   0  0  0  0  0  0
   23.3010   20.5550   17.7500 C   0  0  0  0  0  0
   21.9800   19.9430   18.1830 C   0  0  0  0  0  0
   21.6390   20.3420   19.6040 C   0  0  0  0  0  0
   20.3430   19.7010   20.0590 C   0  0  0  0  0  0
   20.0370   20.0430   21.4740 N   0  3  0  0  0  0
   21.9840   19.6330   14.7290 N   0  0  0  0  0  0
   20.9200   19.9260   13.7740 C   0  0  2  0  0  0
   19.7780   20.6890   14.4370 C   0  0  0  0  0  0
   19.2920   20.3020   15.5010 O   0  0  0  0  0  0
   20.3950   18.6230   13.1540 C   0  0  0  0  0  0
   19.2570   18.8460   12.1840 C   0  0  0  0  0  0
   19.0270   17.6720   11.2540 C   0  0  0  0  0  0
   18.9740   17.8570   10.0330 O   0  0  0  0  0  0
   18.8950   16.4790   11.8030 N   0  0  0  0  0  0
   19.3640   21.7780   13.7970 N   0  0  0  0  0  0
   18.2820   22.6260   14.2990 C   0  0  2  0  0  0
   17.0030   22.5040   13.4730 C   0  0  0  0  0  0
   17.0360   22.5970   12.2480 O   0  0  0  0  0  0
   18.7200   24.0940   14.3000 C   0  0  0  0  0  0
   19.8200   24.4390   15.2890 C   0  0  0  0  0  0
   19.4060   24.1780   16.7200 C   0  0  0  0  0  0
   18.3180   24.6470   17.1140 O   0  0  0  0  0  0
   20.1700   23.5150   17.4540 O   0  0  0  0  0  0
   15.8580   22.2910   14.1390 N   0  0  0  0  0  0
   14.5600   22.1620   13.4670 C   0  0  2  0  0  0
   14.1200   23.4990   12.8670 C   0  0  0  0  0  0
   14.6420   24.5490   13.2320 O   0  0  0  0  0  0
   13.6460   21.7130   14.6050 C   0  0  0  0  0  0
   14.2390   22.4740   15.7800 C   0  0  0  0  0  0
   15.6910   22.0970   15.5910 C   0  0  0  0  0  0
   13.1620   23.4610   11.9490 N   0  0  0  0  0  0
   12.6710   24.6810   11.3220 C   0  0  2  0  0  0
   11.1880   24.5640   11.0020 C   0  0  0  0  0  0
   10.6480   23.4620   10.8950 O   0  0  0  0  0  0
   13.4380   24.9760   10.0290 C   0  0  0  0  0  0
   13.2060   23.9660    8.9160 C   0  0  0  0  0  0
   13.9330   24.3280    7.6280 C   0  0  0  0  0  0
   13.8340   23.6230    6.6270 O   0  0  0  0  0  0
   14.6610   25.4350    7.6510 N   0  0  0  0  0  0
   10.5340   25.7070   10.8520 N   0  0  0  0  0  0
    9.1190   25.7200   10.5240 C   0  0  2  0  0  0
    8.9480   25.7630    9.0170 C   0  0  0  0  0  0
    9.6400   26.5130    8.3260 O   0  0  0  0  0  0
    8.4320   26.9430   11.1330 C   0  0  0  0  0  0
    6.9430   27.0350   10.8040 C   0  0  0  0  0  0
    6.2970   28.2870   11.3660 C   0  0  0  0  0  0
    6.6580   29.3970   10.9200 O   0  0  0  0  0  0
    5.4340   28.1630   12.2620 O   0  0  0  0  0  0
    8.0370   24.9430    8.5090 N   0  0  0  0  0  0
    7.7400   24.9190    7.0820 C   0  0  2  0  0  0
    6.2290   24.9900    6.9090 C   0  0  0  0  0  0
    5.4780   24.2960    7.5940 O   0  0  0  0  0  0
    8.2750   23.6410    6.3830 C   0  0  2  0  0  0
    9.8080   23.6610    6.3700 C   0  0  0  0  0  0
    7.7260   23.5520    4.9560 C   0  0  0  0  0  0
   10.4380   22.5120    5.6060 C   0  0  0  0  0  0
    5.7910   25.8610    6.0110 N   0  0  0  0  0  0
    4.3740   26.0230    5.7360 C   0  0  2  0  0  0
    4.0810   25.1240    4.5450 C   0  0  0  0  0  0
    4.5600   25.3790    3.4380 O   0  0  0  0  0  0
    4.0710   27.4770    5.3700 C   0  0  0  0  0  0
    2.5870   27.7550    5.2680 C   0  0  0  0  0  0
    1.8830   27.0210    4.5400 O   0  0  0  0  0  0
    2.1250   28.7170    5.9170 O   0  0  0  0  0  0
    3.3140   24.0650    4.7710 N   0  0  0  0  0  0
    2.9850   23.1490    3.6930 C   0  0  2  0  0  0
    1.6750   23.5410    3.0250 C   0  0  0  0  0  0
    1.1040   24.5830    3.4150 O   0  0  0  0  0  0
    2.9030   21.7110    4.2190 C   0  0  0  0  0  0
    4.1680   21.2380    4.8870 C   0  0  0  0  0  0
    4.4480   21.5800    6.2090 C   0  0  0  0  0  0
    5.0950   20.4750    4.1830 C   0  0  0  0  0  0
    5.6320   21.1670    6.8200 C   0  0  0  0  0  0
    6.2810   20.0590    4.7800 C   0  0  0  0  0  0
    6.5520   20.4040    6.1030 C   0  0  0  0  0  0
    1.2420   22.8110    2.1120 O   0  0  0  0  0  0
   25.3138   20.5457   14.9668 H   0  0  0  0  0  0
   25.7940   20.4785   16.6964 H   0  0  0  0  0  0
   24.9225   21.9151   16.0614 H   0  0  0  0  0  0
   23.8686   19.0935   16.2438 H   0  0  0  0  0  0
   24.0678   20.2118   18.4601 H   0  0  0  0  0  0
   23.1945   21.6473   17.8249 H   0  0  0  0  0  0
   21.1781   20.2919   17.5158 H   0  0  0  0  0  0
   22.0493   18.8464   18.1307 H   0  0  0  0  0  0
   22.4453   20.0192   20.2790 H   0  0  0  0  0  0
   21.5283   21.4349   19.6615 H   0  0  0  0  0  0
   19.5162   20.0570   19.4268 H   0  0  0  0  0  0
   20.4251   18.6074   19.9738 H   0  0  0  0  0  0
   19.0929   19.5631   21.7713 H   0  0  0  0  0  0
   19.9414   21.1342   21.5750 H   0  0  0  0  0  0
   20.8504   19.6846   22.1220 H   0  0  0  0  0  0
   22.2604   18.5897   14.9414 H   0  0  0  0  0  0
   21.3829   20.5654   13.0079 H   0  0  0  0  0  0
   21.2079   18.1242   12.6059 H   0  0  0  0  0  0
   20.0289   17.9591   13.9510 H   0  0  0  0  0  0
   18.3253   19.0137   12.7442 H   0  0  0  0  0  0
   19.4736   19.7262   11.5608 H   0  0  0  0  0  0
   18.9500   16.3674   12.8959 H   0  0  0  0  0  0
   18.7300   15.5964   11.1676 H   0  0  0  0  0  0
   19.8698   22.0325   12.8539 H   0  0  0  0  0  0
   18.0976   22.2450   15.3143 H   0  0  0  0  0  0
   19.0986   24.3643   13.3032 H   0  0  0  0  0  0
   17.8606   24.7329   14.5515 H   0  0  0  0  0  0
   20.7101   23.8292   15.0748 H   0  0  0  0  0  0
   20.0750   25.5051   15.1967 H   0  0  0  0  0  0
   19.8904   23.3123   18.4984 H   0  0  0  0  0  0
   14.5989   21.4547   12.6255 H   0  0  0  0  0  0
   12.6088   22.0000   14.3772 H   0  0  0  0  0  0
   13.7082   20.6204   14.7159 H   0  0  0  0  0  0
   14.0277   23.5475   15.6658 H   0  0  0  0  0  0
   13.7912   22.1098   16.7164 H   0  0  0  0  0  0
   15.9056   21.0492   15.8480 H   0  0  0  0  0  0
   16.3858   22.7567   16.1314 H   0  0  0  0  0  0
   12.7381   22.4869   11.6636 H   0  0  0  0  0  0
   12.8414   25.4703   12.0689 H   0  0  0  0  0  0
   13.1344   25.9586    9.6387 H   0  0  0  0  0  0
   14.5182   24.9818   10.2366 H   0  0  0  0  0  0
   13.5652   22.9772    9.2374 H   0  0  0  0  0  0
   12.1309   23.9099    8.6900 H   0  0  0  0  0  0
   14.7203   26.0353    8.5709 H   0  0  0  0  0  0
   15.2060   25.7537    6.7502 H   0  0  0  0  0  0
   11.0778   26.6547   10.9794 H   0  0  0  0  0  0
    8.7064   24.7918   10.9462 H   0  0  0  0  0  0
    8.5248   26.9080   12.2285 H   0  0  0  0  0  0
    8.9094   27.8586   10.7537 H   0  0  0  0  0  0
    6.8088   27.0470    9.7123 H   0  0  0  0  0  0
    6.4193   26.1656   11.2282 H   0  0  0  0  0  0
    4.9501   29.0549   12.6867 H   0  0  0  0  0  0
    7.5003   24.2700    9.1939 H   0  0  0  0  0  0
    8.2472   25.8027    6.6674 H   0  0  0  0  0  0
    7.9429   22.7469    6.9310 H   0  0  0  0  0  0
   10.1586   24.5918    5.9002 H   0  0  0  0  0  0
   10.1842   23.6071    7.4023 H   0  0  0  0  0  0
    6.6265   23.5389    4.9863 H   0  0  0  0  0  0
    8.0907   22.6300    4.4797 H   0  0  0  0  0  0
    8.0665   24.4232    4.3772 H   0  0  0  0  0  0
   11.5336   22.6019    5.6463 H   0  0  0  0  0  0
   10.1058   22.5428    4.5578 H   0  0  0  0  0  0
   10.1314   21.5581    6.0599 H   0  0  0  0  0  0
    6.5296   26.4692    5.4684 H   0  0  0  0  0  0
    3.7996   25.7480    6.6329 H   0  0  0  0  0  0
    4.4869   28.1433    6.1401 H   0  0  0  0  0  0
    4.5261   27.7126    4.3967 H   0  0  0  0  0  0
    0.8023   27.2069    4.4527 H   0  0  0  0  0  0
    2.9266   23.8835    5.7844 H   0  0  0  0  0  0
    3.8071   23.2495    2.9691 H   0  0  0  0  0  0
    0.1555   24.8959    2.9540 H   0  0  0  0  0  0
    2.0937   21.6374    4.9604 H   0  0  0  0  0  0
    2.6980   21.0259    3.3831 H   0  0  0  0  0  0
    3.7322   22.1782    6.7728 H   0  0  0  0  0  0
    4.8889   20.1993    3.1488 H   0  0  0  0  0  0
    5.8371   21.4402    7.8551 H   0  0  0  0  0  0
    6.9974   19.4639    4.2137 H   0  0  0  0  0  0
    7.4792   20.0786    6.5747 H   0  0  0  0  0  0
  1  2  1  0  0  0
  1 81  1  0  0  0
  1 82  1  0  0  0
  1 83  1  0  0  0
  2  3  1  0  0  0
  2  5  1  0  0  0
  2 84  1  0  0  0
  3  4  2  0  0  0
  3 10  1  0  0  0
  5  6  1  0  0  0
  5 85  1  0  0  0
  5 86  1  0  0  0
  6  7  1  0  0  0
  6 87  1  0  0  0
  6 88  1  0  0  0
  7  8  1  0  0  0
  7 89  1  0  0  0
  7 90  1  0  0  0
  8  9  1  0  0  0
  8 91  1  0  0  0
  8 92  1  0  0  0
  9 93  1  0  0  0
  9 94  1  0  0  0
  9 95  1  0  0  0
 10 11  1  0  0  0
 10 96  1  0  0  0
 11 12  1  0  0  0
 11 14  1  0  0  0
 11 97  1  0  0  0
 12 13  2  0  0  0
 12 19  1  0  0  0
 14 15  1  0  0  0
 14 98  1  0  0  0
 14 99  1  0  0  0
 15 16  1  0  0  0
 15100  1  0  0  0
 15101  1  0  0  0
 16 17  2  0  0  0
 16 18  1  0  0  0
 18102  1  0  0  0
 18103  1  0  0  0
 19 20  1  0  0  0
 19104  1  0  0  0
 20 21  1  0  0  0
 20 23  1  0  0  0
 20105  1  0  0  0
 21 22  2  0  0  0
 21 28  1  0  0  0
 23 24  1  0  0  0
 23106  1  0  0  0
 23107  1  0  0  0
 24 25  1  0  0  0
 24108  1  0  0  0
 24109  1  0  0  0
 25 26  2  0  0  0
 25 27  1  0  0  0
 27110  1  0  0  0
 28 29  1  0  0  0
 28 34  1  0  0  0
 29 30  1  0  0  0
 29 32  1  0  0  0
 29111  1  0  0  0
 30 31  2  0  0  0
 30 35  1  0  0  0
 32 33  1  0  0  0
 32112  1  0  0  0
 32113  1  0  0  0
 33 34  1  0  0  0
 33114  1  0  0  0
 33115  1  0  0  0
 34116  1  0  0  0
 34117  1  0  0  0
 35 36  1  0  0  0
 35118  1  0  0  0
 36 37  1  0  0  0
 36 39  1  0  0  0
 36119  1  0  0  0
 37 38  2  0  0  0
 37 44  1  0  0  0
 39 40  1  0  0  0
 39120  1  0  0  0
 39121  1  0  0  0
 40 41  1  0  0  0
 40122  1  0  0  0
 40123  1  0  0  0
 41 42  2  0  0  0
 41 43  1  0  0  0
 43124  1  0  0  0
 43125  1  0  0  0
 44 45  1  0  0  0
 44126  1  0  0  0
 45 46  1  0  0  0
 45 48  1  0  0  0
 45127  1  0  0  0
 46 47  2  0  0  0
 46 53  1  0  0  0
 48 49  1  0  0  0
 48128  1  0  0  0
 48129  1  0  0  0
 49 50  1  0  0  0
 49130  1  0  0  0
 49131  1  0  0  0
 50 51  2  0  0  0
 50 52  1  0  0  0
 52132  1  0  0  0
 53 54  1  0  0  0
 53133  1  0  0  0
 54 55  1  0  0  0
 54 57  1  0  0  0
 54134  1  0  0  0
 55 56  2  0  0  0
 55 61  1  0  0  0
 57 58  1  0  0  0
 57 59  1  0  0  0
 57135  1  0  0  0
 58 60  1  0  0  0
 58136  1  0  0  0
 58137  1  0  0  0
 59138  1  0  0  0
 59139  1  0  0  0
 59140  1  0  0  0
 60141  1  0  0  0
 60142  1  0  0  0
 60143  1  0  0  0
 61 62  1  0  0  0
 61144  1  0  0  0
 62 63  1  0  0  0
 62 65  1  0  0  0
 62145  1  0  0  0
 63 64  2  0  0  0
 63 69  1  0  0  0
 65 66  1  0  0  0
 65146  1  0  0  0
 65147  1  0  0  0
 66 67  1  0  0  0
 66 68  2  0  0  0
 67148  1  0  0  0
 69 70  1  0  0  0
 69149  1  0  0  0
 70 71  1  0  0  0
 70 73  1  0  0  0
 70150  1  0  0  0
 71 72  1  0  0  0
 71 80  2  0  0  0
 72151  1  0  0  0
 73 74  1  0  0  0
 73152  1  0  0  0
 73153  1  0  0  0
 74 75  2  0  0  0
 74 76  1  0  0  0
 75 77  1  0  0  0
 75154  1  0  0  0
 76 78  2  0  0  0
 76155  1  0  0  0
 77 79  2  0  0  0
 77156  1  0  0  0
 78 79  1  0  0  0
 78157  1  0  0  0
 79158  1  0  0  0
M  CHG  2   1   1   9   1
M  END
> <s_m_source_file>
../1lb6_ligand.sdf

> <i_m_source_file_index>
1

> <s_epik_input>
W05IMytdW0NIMl1bQ0gyXVtDSDJdW0NIMl1bQ0BIXShbTkgzK10pQyg9TylbTkhdW0NAQEhdKFtDSDJdW0NIMl1DKD1PKVtOSDJdKUMoPU8pW05IXVtDQEBIXShbQ0gyXVtDSDJdQyg9TylbT0hdKUMoPU8pTjFbQ0BASF0oW0NIMl1bQ0gyXVtDSDJdMSlDKD1PKVtOSF1bQ0BASF0oW0NIMl1bQ0gyXUMoPU8pW05IMl0pQyg9TylbTkhdW0NAQEhdKFtDSDJdW0NIMl1DKD1PKVtPSF0pQyg9TylbTkhdW0NAQEhdKFtDQEBIXShbQ0gzXSlbQ0gyXVtDSDNdKUMoPU8pW05IXVtDQEBIXShbQ0gyXUMoPU8pW09IXSlDKD1PKVtOSF1bQ0BIXShDKD1PKVtPSF0pW0NIMl1jMltjSF1bY0hdW2NIXVtjSF1bY0hdMg==

> <s_epik_cmdline>
J2VwaWtfYXBwJywgJy1pbWFlJywgJ2xpZ2FuZF9wcm8ubWFlJywgJy1vbWFlJywgJ2xpZ2FuZF9wcmVwLm1hZScsICctbXMnLCAnMScsICctcGgnLCAnNycsICctcGh0JywgJzAuNScsICctbnQn

> <s_epik_pKa_notes>
Molecule size exceeds maximum supported for generating protonation states

$$$$
