1lbf_ligand
                    3D
 Schrodinger Suite 2020-3.
 38 38  0  0  1  0            999 V2000
   -6.3130  -23.0150   28.0760 P   0  0  0  0  0  0
   -5.0920  -22.9280   27.2610 O   0  5  0  0  0  0
   -7.5040  -22.4980   27.3370 O   0  5  0  0  0  0
   -6.4450  -24.3750   28.5520 O   0  0  0  0  0  0
   -6.1980  -22.2390   29.3450 O   0  0  0  0  0  0
   -5.1760  -21.9580   30.0560 C   0  0  0  0  0  0
   -5.4090  -21.2230   31.3900 C   0  0  1  0  0  0
   -5.4830  -19.8010   31.1350 O   0  0  0  0  0  0
   -6.7310  -21.6960   32.0510 C   0  0  1  0  0  0
   -6.4440  -22.9900   32.5680 O   0  0  0  0  0  0
   -7.1600  -20.8460   33.2850 C   0  0  2  0  0  0
   -6.1590  -20.4380   34.1710 O   0  0  0  0  0  0
   -8.3100  -21.3940   34.0870 C   0  0  0  0  0  0
   -9.2920  -21.9510   33.1990 N   0  0  0  0  0  0
  -11.5690  -22.8590   32.9600 C   0  0  0  0  0  0
  -10.6200  -22.0160   33.6290 C   0  0  0  0  0  0
  -11.0030  -21.1760   34.7100 C   0  0  0  0  0  0
  -12.3340  -21.1740   35.1210 C   0  0  0  0  0  0
  -13.2870  -21.9950   34.4610 C   0  0  0  0  0  0
  -12.9070  -22.8240   33.4000 C   0  0  0  0  0  0
  -11.2310  -23.8430   31.9140 C   0  0  0  0  0  0
  -10.1010  -23.9610   31.4600 O   0  0  0  0  0  0
  -12.1160  -24.5870   31.4970 O   0  5  0  0  0  0
   -4.6512  -22.8861   30.3266 H   0  0  0  0  0  0
   -4.4986  -21.3074   29.4834 H   0  0  0  0  0  0
   -4.5579  -21.3796   32.0691 H   0  0  0  0  0  0
   -4.6340  -19.2812   30.6670 H   0  0  0  0  0  0
   -7.5389  -21.7159   31.3047 H   0  0  0  0  0  0
   -6.1138  -23.7919   31.8913 H   0  0  0  0  0  0
   -7.4339  -19.8776   32.8409 H   0  0  0  0  0  0
   -5.2251  -20.0045   33.7839 H   0  0  0  0  0  0
   -7.9431  -22.1782   34.7655 H   0  0  0  0  0  0
   -8.7657  -20.5839   34.6753 H   0  0  0  0  0  0
   -8.9916  -22.3146   32.2053 H   0  0  0  0  0  0
  -10.2678  -20.5444   35.2087 H   0  0  0  0  0  0
  -12.6452  -20.5405   35.9516 H   0  0  0  0  0  0
  -14.3275  -21.9789   34.7853 H   0  0  0  0  0  0
  -13.6532  -23.4488   32.9091 H   0  0  0  0  0  0
  1  5  1  0  0  0
  1  4  2  0  0  0
  1  3  1  0  0  0
  1  2  1  0  0  0
  5  6  1  0  0  0
  6  7  1  0  0  0
  6 24  1  0  0  0
  6 25  1  0  0  0
  7  9  1  0  0  0
  7  8  1  0  0  0
  7 26  1  0  0  0
  8 27  1  0  0  0
  9 11  1  0  0  0
  9 10  1  0  0  0
  9 28  1  0  0  0
 10 29  1  0  0  0
 11 13  1  0  0  0
 11 12  1  0  0  0
 11 30  1  0  0  0
 12 31  1  0  0  0
 13 14  1  0  0  0
 13 32  1  0  0  0
 13 33  1  0  0  0
 14 16  1  0  0  0
 14 34  1  0  0  0
 15 16  2  0  0  0
 15 20  1  0  0  0
 15 21  1  0  0  0
 16 17  1  0  0  0
 17 18  2  0  0  0
 17 35  1  0  0  0
 18 19  1  0  0  0
 18 36  1  0  0  0
 19 20  2  0  0  0
 19 37  1  0  0  0
 20 38  1  0  0  0
 21 23  1  0  0  0
 21 22  2  0  0  0
M  CHG  3   2  -1   3  -1  23  -1
M  END
> <s_m_source_file>
../1lbf_ligand.sdf

> <i_m_source_file_index>
1

> <s_epik_input>
W09IXVAoPU8pKFtPSF0pT1tDSDJdW0NAQEhdKFtPSF0pW0NAQEhdKFtPSF0pW0NASF0oW09IXSlbQ0gyXVtOSF1jKGMxQyg9TylbT0hdKVtjSF1bY0hdW2NIXVtjSF0x

> <s_epik_cmdline>
J2VwaWtfYXBwJywgJy1pbWFlJywgJ2xpZ2FuZF9wcm8ubWFlJywgJy1vbWFlJywgJ2xpZ2FuZF9wcmVwLm1hZScsICctbXMnLCAnMScsICctcGgnLCAnNycsICctcGh0JywgJzAuNScsICctbnQn

> <r_epik_Ionization_Penalty>
  0.1210

> <r_epik_Ionization_Penalty_Charging>
  0.1195

> <r_epik_Ionization_Penalty_Neutral>
  0.0015

> <r_epik_State_Penalty>
  0.1066

> <r_epik_Charging_Adjusted_Penalty>
0.226072790536309

> <i_epik_Tot_Q>
-3

> <i_epik_Tot_abs_Q>
3

$$$$
