1lcj_ligand
                    3D
 Schrodinger Suite 2020-3.
196199  0  0  1  0            999 V2000
   31.9300   50.7070   -8.7010 N   0  3  0  0  0  0
   31.9180   50.2280  -10.1210 C   0  0  2  0  0  0
   32.9400   49.0790  -10.3710 C   0  0  0  0  0  0
   32.5500   48.0180  -10.8660 O   0  0  0  0  0  0
   32.1260   51.4130  -11.1100 C   0  0  0  0  0  0
   31.6930   51.1260  -12.5890 C   0  0  0  0  0  0
   31.8130   52.3430  -13.5580 C   0  0  0  0  0  0
   32.9240   52.9420  -13.6640 O   0  0  0  0  0  0
   30.8130   52.6340  -14.2870 O   0  0  0  0  0  0
   34.1890   49.2050   -9.8540 N   0  0  0  0  0  0
   35.1550   48.0970   -9.9120 C   0  0  2  0  0  0
   34.8340   46.9940   -8.9090 C   0  0  0  0  0  0
   34.4360   47.2970   -7.7880 O   0  0  0  0  0  0
   36.4740   48.7640   -9.5640 C   0  0  0  0  0  0
   36.0780   49.8250   -8.5980 C   0  0  0  0  0  0
   34.7910   50.3920   -9.2080 C   0  0  0  0  0  0
   34.9700   45.7350   -9.3350 N   0  0  0  0  0  0
   34.6710   44.5590   -8.5070 C   0  0  2  0  0  0
   35.4760   44.3520   -7.2210 C   0  0  0  0  0  0
   36.7060   44.1940   -7.2500 O   0  0  0  0  0  0
   34.7640   43.2800   -9.3610 C   0  0  0  0  0  0
   34.4670   41.9560   -8.6160 C   0  0  0  0  0  0
   33.1080   41.3120   -8.9650 C   0  0  0  0  0  0
   32.6990   41.2720  -10.1330 O   0  0  0  0  0  0
   32.4530   40.7180   -7.9530 N   0  0  0  0  0  0
   34.7490   44.2760   -6.1050 N   0  0  0  0  0  0
   35.3120   43.8430   -4.8180 C   0  0  2  0  0  0
   34.7510   42.5050   -4.2970 C   0  0  0  0  0  0
   33.5550   42.2100   -4.4260 O   0  0  0  0  0  0
   35.1070   44.9140   -3.7520 C   0  0  0  0  0  0
   35.9560   46.1560   -3.9540 C   0  0  0  0  0  0
   37.2150   46.2630   -3.3770 C   0  0  0  0  0  0
   35.4530   47.2580   -4.6350 C   0  0  0  0  0  0
   37.9420   47.4180   -3.4690 C   0  0  0  0  0  0
   36.1690   48.4350   -4.7130 C   0  0  0  0  0  0
   37.4160   48.5130   -4.1300 C   0  0  0  0  0  0
   38.1040   49.7160   -4.1510 O   0  0  0  0  0  0
   35.6040   41.7190   -3.6510 N   0  0  0  0  0  0
   35.1270   40.5280   -2.9340 C   0  0  2  0  0  0
   34.5090   40.8270   -1.5540 C   0  0  0  0  0  0
   34.8970   41.7590   -0.8530 O   0  0  0  0  0  0
   36.2580   39.5010   -2.7320 C   0  0  0  0  0  0
   37.1700   39.3480   -3.9050 C   0  0  0  0  0  0
   36.4160   38.9220   -5.1370 C   0  0  0  0  0  0
   35.6350   37.9490   -5.0370 O   0  0  0  0  0  0
   36.5510   39.5700   -6.2000 O   0  0  0  0  0  0
   33.6290   39.9310   -1.1200 N   0  0  0  0  0  0
   33.1300   39.9210    0.2540 C   0  0  2  0  0  0
   33.4370   38.6010    0.9230 C   0  0  0  0  0  0
   33.5050   37.5600    0.2710 O   0  0  0  0  0  0
   31.6190   40.1160    0.2790 C   0  0  0  0  0  0
   31.1370   41.1440   -0.6880 C   0  0  0  0  0  0
   29.7030   41.5170   -0.4450 C   0  0  0  0  0  0
   29.3730   41.8700    0.7090 O   0  0  0  0  0  0
   28.9160   41.4640   -1.4170 O   0  0  0  0  0  0
   33.4860   38.6340    2.2410 N   0  0  0  0  0  0
   33.5470   37.4290    3.0320 C   0  0  2  0  0  0
   32.1330   36.8840    3.1990 C   0  0  0  0  0  0
   31.2090   37.6260    3.5220 O   0  0  0  0  0  0
   34.1870   37.7140    4.3890 C   0  0  2  0  0  0
   35.6440   38.1520    4.1700 C   0  0  0  0  0  0
   34.1620   36.4690    5.2520 C   0  0  0  0  0  0
   36.3840   38.4850    5.4030 C   0  0  0  0  0  0
   31.9080   35.6520    2.7530 N   0  0  0  0  0  0
   30.5510   35.1070    2.7650 C   0  0  2  0  0  0
   30.0400   34.8430    4.1680 C   0  0  0  0  0  0
   30.7820   34.9200    5.1390 O   0  0  0  0  0  0
   30.6600   33.8180    1.9510 C   0  0  0  0  0  0
   32.0670   33.3750    2.1420 C   0  0  0  0  0  0
   32.9050   34.6490    2.3130 C   0  0  0  0  0  0
   28.7440   34.6250    4.2990 N   0  0  0  0  0  0
   28.2380   34.0820    5.5610 C   0  0  2  0  0  0
   28.0440   32.5830    5.3390 C   0  0  0  0  0  0
   27.8710   32.1490    4.1950 O   0  0  0  0  0  0
   26.8740   34.7200    5.9800 C   0  0  2  0  0  0
   26.1090   35.2330    4.7600 C   0  0  0  0  0  0
   27.0980   35.8150    7.0240 C   0  0  0  0  0  0
   24.5900   35.2010    4.9480 C   0  0  0  0  0  0
   28.1170   31.7810    6.3960 N   0  0  0  0  0  0
   27.7130   30.3800    6.2550 C   0  0  2  0  0  0
   26.1880   30.1540    6.4590 C   0  0  0  0  0  0
   25.6230   30.5520    7.4880 O   0  0  0  0  0  0
   28.4970   29.5020    7.2220 C   0  0  0  0  0  0
   28.3170   28.0250    6.9670 C   0  0  0  0  0  0
   28.8030   27.4400    5.8020 C   0  0  0  0  0  0
   27.6060   27.2250    7.8570 C   0  0  0  0  0  0
   28.5880   26.1090    5.5310 C   0  0  0  0  0  0
   27.3860   25.8800    7.5910 C   0  0  0  0  0  0
   27.8910   25.3330    6.4320 C   0  0  0  0  0  0
   27.8040   23.9870    6.2040 O   0  0  0  0  0  0
   25.5360   29.5590    5.4570 N   0  0  0  0  0  0
   24.0790   29.3550    5.4600 C   0  0  2  0  0  0
   23.6800   27.8830    5.5130 C   0  0  0  0  0  0
   23.5400   27.2270    4.4490 O   0  0  0  0  0  0
   23.4430   30.0280    4.2430 C   0  0  0  0  0  0
   22.7930   31.3690    4.5700 C   0  0  0  0  0  0
   22.3090   32.0670    3.2840 C   0  0  0  0  0  0
   21.6440   31.0930    5.5290 C   0  0  0  0  0  0
   23.5940   27.3670    6.6450 O   0  0  0  0  0  0
   31.7815   49.8524   -8.0245 H   0  0  0  0  0  0
   31.1202   51.4367   -8.5533 H   0  0  0  0  0  0
   32.8972   51.1835   -8.4829 H   0  0  0  0  0  0
   30.9110   49.8104  -10.2678 H   0  0  0  0  0  0
   31.5386   52.2796  -10.7725 H   0  0  0  0  0  0
   33.1921   51.6822  -11.1407 H   0  0  0  0  0  0
   32.3227   50.3268  -13.0069 H   0  0  0  0  0  0
   30.6394   50.8104  -12.6080 H   0  0  0  0  0  0
   30.8672   53.4864  -14.9802 H   0  0  0  0  0  0
   35.1325   47.6236  -10.9047 H   0  0  0  0  0  0
   37.1534   48.0226   -9.1183 H   0  0  0  0  0  0
   36.9288   49.1758  -10.4770 H   0  0  0  0  0  0
   35.9121   49.3758   -7.6077 H   0  0  0  0  0  0
   36.8784   50.5765   -8.5303 H   0  0  0  0  0  0
   34.9838   51.1643   -9.9672 H   0  0  0  0  0  0
   34.0988   50.7876   -8.4501 H   0  0  0  0  0  0
   35.3274   45.6045  -10.3671 H   0  0  0  0  0  0
   33.6569   44.8216   -8.1715 H   0  0  0  0  0  0
   34.0415   43.3383  -10.1884 H   0  0  0  0  0  0
   35.7812   43.1843   -9.7685 H   0  0  0  0  0  0
   35.2426   41.2155   -8.8610 H   0  0  0  0  0  0
   34.4638   42.1384   -7.5312 H   0  0  0  0  0  0
   32.8515   40.7780   -6.9295 H   0  0  0  0  0  0
   31.5184   40.1718   -8.1482 H   0  0  0  0  0  0
   33.6870   44.5538   -6.1752 H   0  0  0  0  0  0
   36.3771   43.7100   -5.0584 H   0  0  0  0  0  0
   34.0552   45.2359   -3.7532 H   0  0  0  0  0  0
   35.3634   44.5024   -2.7646 H   0  0  0  0  0  0
   37.6315   45.4104   -2.8407 H   0  0  0  0  0  0
   34.4768   47.1915   -5.1154 H   0  0  0  0  0  0
   38.9345   47.4753   -3.0220 H   0  0  0  0  0  0
   35.7514   49.2976   -5.2322 H   0  0  0  0  0  0
   39.0995   49.7884   -3.6886 H   0  0  0  0  0  0
   36.6760   41.9657   -3.6555 H   0  0  0  0  0  0
   34.3457   40.1626   -3.6167 H   0  0  0  0  0  0
   36.8817   39.8055   -1.8786 H   0  0  0  0  0  0
   35.8227   38.5106   -2.5330 H   0  0  0  0  0  0
   37.6637   40.3086   -4.1133 H   0  0  0  0  0  0
   37.9308   38.5857   -3.6810 H   0  0  0  0  0  0
   36.0033   39.2645   -7.1037 H   0  0  0  0  0  0
   33.2758   39.1770   -1.8389 H   0  0  0  0  0  0
   33.6525   40.7474    0.7580 H   0  0  0  0  0  0
   31.1227   39.1674    0.0265 H   0  0  0  0  0  0
   31.3072   40.4368    1.2839 H   0  0  0  0  0  0
   31.7491   42.0530   -0.5922 H   0  0  0  0  0  0
   31.2208   40.7518   -1.7123 H   0  0  0  0  0  0
   27.8569   41.7290   -1.2823 H   0  0  0  0  0  0
   33.4793   39.6167    2.7353 H   0  0  0  0  0  0
   34.1767   36.7163    2.4792 H   0  0  0  0  0  0
   33.6160   38.5013    4.9030 H   0  0  0  0  0  0
   36.2003   37.3415    3.6764 H   0  0  0  0  0  0
   35.6654   39.0505    3.5358 H   0  0  0  0  0  0
   33.1202   36.1534    5.4102 H   0  0  0  0  0  0
   34.6308   36.6865    6.2230 H   0  0  0  0  0  0
   34.7169   35.6632    4.7492 H   0  0  0  0  0  0
   37.4104   38.7850    5.1449 H   0  0  0  0  0  0
   36.4140   37.6045    6.0617 H   0  0  0  0  0  0
   35.8791   39.3136    5.9212 H   0  0  0  0  0  0
   29.8524   35.8444    2.3429 H   0  0  0  0  0  0
   29.9415   33.0794    2.3359 H   0  0  0  0  0  0
   30.4367   34.0311    0.8952 H   0  0  0  0  0  0
   32.1326   32.7381    3.0365 H   0  0  0  0  0  0
   32.3946   32.8042    1.2606 H   0  0  0  0  0  0
   33.3664   34.9796    1.3707 H   0  0  0  0  0  0
   33.6822   34.5419    3.0840 H   0  0  0  0  0  0
   28.0476   34.8455    3.4766 H   0  0  0  0  0  0
   28.9942   34.3106    6.3265 H   0  0  0  0  0  0
   26.2294   33.9602    6.4460 H   0  0  0  0  0  0
   26.3982   36.2748    4.5573 H   0  0  0  0  0  0
   26.3503   34.6090    3.8868 H   0  0  0  0  0  0
   27.6503   35.3986    7.8794 H   0  0  0  0  0  0
   26.1259   36.1990    7.3670 H   0  0  0  0  0  0
   27.6789   36.6349    6.5765 H   0  0  0  0  0  0
   24.1000   35.5808    4.0393 H   0  0  0  0  0  0
   24.3133   35.8325    5.8051 H   0  0  0  0  0  0
   24.2654   34.1667    5.1347 H   0  0  0  0  0  0
   28.4744   32.1553    7.3666 H   0  0  0  0  0  0
   27.9803   30.1444    5.2143 H   0  0  0  0  0  0
   29.5703   29.7254    7.1322 H   0  0  0  0  0  0
   28.1654   29.7034    8.2513 H   0  0  0  0  0  0
   29.3640   28.0473    5.0916 H   0  0  0  0  0  0
   27.2160   27.6610    8.7767 H   0  0  0  0  0  0
   28.9670   25.6698    4.6082 H   0  0  0  0  0  0
   26.8206   25.2646    8.2908 H   0  0  0  0  0  0
   28.2101   23.5591    5.2756 H   0  0  0  0  0  0
   26.1378   29.2151    4.6028 H   0  0  0  0  0  0
   23.7417   29.8306    6.3928 H   0  0  0  0  0  0
   23.2523   26.1661    4.4908 H   0  0  0  0  0  0
   24.2140   30.2096    3.4798 H   0  0  0  0  0  0
   22.6630   29.3730    3.8276 H   0  0  0  0  0  0
   23.5157   32.0447    5.0508 H   0  0  0  0  0  0
   23.1670   32.2480    2.6199 H   0  0  0  0  0  0
   21.8369   33.0262    3.5429 H   0  0  0  0  0  0
   21.5776   31.4249    2.7714 H   0  0  0  0  0  0
   22.0306   30.5958    6.4309 H   0  0  0  0  0  0
   20.9058   30.4412    5.0388 H   0  0  0  0  0  0
   21.1652   32.0425    5.8104 H   0  0  0  0  0  0
  1  2  1  0  0  0
  1100  1  0  0  0
  1101  1  0  0  0
  1102  1  0  0  0
  2  3  1  0  0  0
  2  5  1  0  0  0
  2103  1  0  0  0
  3  4  2  0  0  0
  3 10  1  0  0  0
  5  6  1  0  0  0
  5104  1  0  0  0
  5105  1  0  0  0
  6  7  1  0  0  0
  6106  1  0  0  0
  6107  1  0  0  0
  7  8  2  0  0  0
  7  9  1  0  0  0
  9108  1  0  0  0
 10 11  1  0  0  0
 10 16  1  0  0  0
 11 12  1  0  0  0
 11 14  1  0  0  0
 11109  1  0  0  0
 12 13  2  0  0  0
 12 17  1  0  0  0
 14 15  1  0  0  0
 14110  1  0  0  0
 14111  1  0  0  0
 15 16  1  0  0  0
 15112  1  0  0  0
 15113  1  0  0  0
 16114  1  0  0  0
 16115  1  0  0  0
 17 18  1  0  0  0
 17116  1  0  0  0
 18 19  1  0  0  0
 18 21  1  0  0  0
 18117  1  0  0  0
 19 20  2  0  0  0
 19 26  1  0  0  0
 21 22  1  0  0  0
 21118  1  0  0  0
 21119  1  0  0  0
 22 23  1  0  0  0
 22120  1  0  0  0
 22121  1  0  0  0
 23 24  2  0  0  0
 23 25  1  0  0  0
 25122  1  0  0  0
 25123  1  0  0  0
 26 27  1  0  0  0
 26124  1  0  0  0
 27 28  1  0  0  0
 27 30  1  0  0  0
 27125  1  0  0  0
 28 29  2  0  0  0
 28 38  1  0  0  0
 30 31  1  0  0  0
 30126  1  0  0  0
 30127  1  0  0  0
 31 32  2  0  0  0
 31 33  1  0  0  0
 32 34  1  0  0  0
 32128  1  0  0  0
 33 35  2  0  0  0
 33129  1  0  0  0
 34 36  2  0  0  0
 34130  1  0  0  0
 35 36  1  0  0  0
 35131  1  0  0  0
 36 37  1  0  0  0
 37132  1  0  0  0
 38 39  1  0  0  0
 38133  1  0  0  0
 39 40  1  0  0  0
 39 42  1  0  0  0
 39134  1  0  0  0
 40 41  2  0  0  0
 40 47  1  0  0  0
 42 43  1  0  0  0
 42135  1  0  0  0
 42136  1  0  0  0
 43 44  1  0  0  0
 43137  1  0  0  0
 43138  1  0  0  0
 44 45  2  0  0  0
 44 46  1  0  0  0
 46139  1  0  0  0
 47 48  1  0  0  0
 47140  1  0  0  0
 48 49  1  0  0  0
 48 51  1  0  0  0
 48141  1  0  0  0
 49 50  2  0  0  0
 49 56  1  0  0  0
 51 52  1  0  0  0
 51142  1  0  0  0
 51143  1  0  0  0
 52 53  1  0  0  0
 52144  1  0  0  0
 52145  1  0  0  0
 53 54  2  0  0  0
 53 55  1  0  0  0
 55146  1  0  0  0
 56 57  1  0  0  0
 56147  1  0  0  0
 57 58  1  0  0  0
 57 60  1  0  0  0
 57148  1  0  0  0
 58 59  2  0  0  0
 58 64  1  0  0  0
 60 61  1  0  0  0
 60 62  1  0  0  0
 60149  1  0  0  0
 61 63  1  0  0  0
 61150  1  0  0  0
 61151  1  0  0  0
 62152  1  0  0  0
 62153  1  0  0  0
 62154  1  0  0  0
 63155  1  0  0  0
 63156  1  0  0  0
 63157  1  0  0  0
 64 65  1  0  0  0
 64 70  1  0  0  0
 65 66  1  0  0  0
 65 68  1  0  0  0
 65158  1  0  0  0
 66 67  2  0  0  0
 66 71  1  0  0  0
 68 69  1  0  0  0
 68159  1  0  0  0
 68160  1  0  0  0
 69 70  1  0  0  0
 69161  1  0  0  0
 69162  1  0  0  0
 70163  1  0  0  0
 70164  1  0  0  0
 71 72  1  0  0  0
 71165  1  0  0  0
 72 73  1  0  0  0
 72 75  1  0  0  0
 72166  1  0  0  0
 73 74  2  0  0  0
 73 79  1  0  0  0
 75 76  1  0  0  0
 75 77  1  0  0  0
 75167  1  0  0  0
 76 78  1  0  0  0
 76168  1  0  0  0
 76169  1  0  0  0
 77170  1  0  0  0
 77171  1  0  0  0
 77172  1  0  0  0
 78173  1  0  0  0
 78174  1  0  0  0
 78175  1  0  0  0
 79 80  1  0  0  0
 79176  1  0  0  0
 80 81  1  0  0  0
 80 83  1  0  0  0
 80177  1  0  0  0
 81 82  2  0  0  0
 81 91  1  0  0  0
 83 84  1  0  0  0
 83178  1  0  0  0
 83179  1  0  0  0
 84 85  2  0  0  0
 84 86  1  0  0  0
 85 87  1  0  0  0
 85180  1  0  0  0
 86 88  2  0  0  0
 86181  1  0  0  0
 87 89  2  0  0  0
 87182  1  0  0  0
 88 89  1  0  0  0
 88183  1  0  0  0
 89 90  1  0  0  0
 90184  1  0  0  0
 91 92  1  0  0  0
 91185  1  0  0  0
 92 93  1  0  0  0
 92 95  1  0  0  0
 92186  1  0  0  0
 93 94  1  0  0  0
 93 99  2  0  0  0
 94187  1  0  0  0
 95 96  1  0  0  0
 95188  1  0  0  0
 95189  1  0  0  0
 96 97  1  0  0  0
 96 98  1  0  0  0
 96190  1  0  0  0
 97191  1  0  0  0
 97192  1  0  0  0
 97193  1  0  0  0
 98194  1  0  0  0
 98195  1  0  0  0
 98196  1  0  0  0
M  CHG  1   1   1
M  END
> <s_m_source_file>
../1lcj_ligand.sdf

> <i_m_source_file_index>
1

> <s_epik_input>
Tz1DKFtPSF0pW0NIMl1bQ0gyXVtDQEhdKFtOSDMrXSlDKD1PKU4xW0NAQEhdKFtDSDJdW0NIMl1bQ0gyXTEpQyg9TylbTkhdW0NAQEhdKFtDSDJdW0NIMl1DKD1PKVtOSDJdKUMoPU8pW05IXVtDQEBIXShbQ0gyXWMyW2NIXVtjSF1jKFtPSF0pW2NIXVtjSF0yKUMoPU8pW05IXVtDQEBIXShbQ0gyXVtDSDJdQyg9TylbT0hdKUMoPU8pW05IXVtDQEBIXShbQ0gyXVtDSDJdQyg9TylbT0hdKUMoPU8pW05IXVtDQEBIXShbQ0BASF0oW0NIM10pW0NIMl1bQ0gzXSlDKD1PKU4zW0NAQEhdKFtDSDJdW0NIMl1bQ0gyXTMpQyg9TylbTkhdW0NAQEhdKFtDQEBIXShbQ0gzXSlbQ0gyXVtDSDNdKUMoPU8pW05IXVtDQEhdKEMoPU8pW05IXVtDQEhdKEMoPU8pW09IXSlbQ0gyXVtDSF0oW0NIM10pW0NIM10pW0NIMl1jNFtjSF1bY0hdYyhbT0hdKVtjSF1bY0hdNA==

> <s_epik_cmdline>
J2VwaWtfYXBwJywgJy1pbWFlJywgJ2xpZ2FuZF9wcm8ubWFlJywgJy1vbWFlJywgJ2xpZ2FuZF9wcmVwLm1hZScsICctbXMnLCAnMScsICctcGgnLCAnNycsICctcGh0JywgJzAuNScsICctbnQn

> <s_epik_pKa_notes>
Molecule size exceeds maximum supported for generating protonation states

$$$$
