1ld8_ligand
                    3D
 Schrodinger Suite 2020-3.
 55 60  0  0  1  0            999 V2000
   15.2930  134.4200   -3.0620 C   0  0  0  0  0  0
   15.5770  135.8030   -2.8820 C   0  0  0  0  0  0
   14.1870  134.0060   -3.8990 C   0  0  0  0  0  0
   16.0620  133.4170   -2.4560 C   0  0  0  0  0  0
   16.6910  136.1060   -2.0350 N   0  0  0  0  0  0
   14.7570  136.7860   -3.5420 C   0  0  0  0  0  0
   13.9130  132.6170   -4.0660 C   0  0  0  0  0  0
   13.3880  134.9980   -4.5460 C   0  0  0  0  0  0
   15.8180  132.0450   -2.6250 C   0  0  0  0  0  0
   17.9770  136.5960   -2.5700 C   0  0  0  0  0  0
   16.6730  136.1110   -0.6310 C   0  0  0  0  0  0
   13.6750  136.3790   -4.3680 C   0  0  0  0  0  0
   14.7230  131.6340   -3.4280 C   0  0  0  0  0  0
   16.7140  131.0540   -2.1320 O   0  0  0  0  0  0
   18.6690  137.2660   -1.3740 C   0  0  0  0  0  0
   18.0900  136.3700   -0.2800 C   0  0  1  0  0  0
   18.0930  131.4400   -2.1740 C   0  0  0  0  0  0
   18.8310  131.6820   -3.3830 C   0  0  0  0  0  0
   18.7330  131.5860   -0.9240 C   0  0  0  0  0  0
   19.6380  135.0250    0.7280 C   0  0  0  0  0  0
   20.1920  132.0750   -3.3000 C   0  0  0  0  0  0
   18.1740  131.5160   -4.6580 C   0  0  0  0  0  0
   20.1070  131.9730   -0.8300 C   0  0  0  0  0  0
   19.4460  133.9210    1.7070 C   0  0  0  0  0  0
   20.8310  132.2230   -2.0320 C   0  0  0  0  0  0
   17.5810  131.3730   -5.6270 N   0  0  0  0  0  0
   20.8290  132.1280    0.5050 C   0  0  0  0  0  0
   19.9820  132.6550    1.5820 N   0  0  0  0  0  0
   18.7520  133.8810    2.8980 C   0  0  0  0  0  0
   19.5970  131.9410    2.6740 C   0  0  0  0  0  0
   18.8490  132.6640    3.4890 N   0  3  0  0  0  0
   15.7570  135.9660    0.1240 O   0  0  0  0  0  0
   18.6780  136.0770    0.9670 N   0  0  1  0  0  0
   16.8939  133.7185   -1.8195 H   0  0  0  0  0  0
   14.9674  137.8470   -3.4072 H   0  0  0  0  0  0
   13.0748  132.3038   -4.6885 H   0  0  0  0  0  0
   12.5543  134.6946   -5.1792 H   0  0  0  0  0  0
   18.5607  135.7473   -2.9560 H   0  0  0  0  0  0
   17.7869  137.3108   -3.3842 H   0  0  0  0  0  0
   13.0620  137.1292   -4.8676 H   0  0  0  0  0  0
   14.5031  130.5741   -3.5558 H   0  0  0  0  0  0
   19.7600  137.2029   -1.4992 H   0  0  0  0  0  0
   18.3666  138.3222   -1.3199 H   0  0  0  0  0  0
   18.6762  135.5633    0.1843 H   0  0  0  0  0  0
   18.1679  131.3998   -0.0107 H   0  0  0  0  0  0
   20.6537  135.4345    0.8317 H   0  0  0  0  0  0
   19.5011  134.6380   -0.2925 H   0  0  0  0  0  0
   20.7552  132.2658   -4.2135 H   0  0  0  0  0  0
   21.8762  132.5283   -1.9829 H   0  0  0  0  0  0
   21.2032  131.1478    0.8354 H   0  0  0  0  0  0
   21.6741  132.8221    0.3864 H   0  0  0  0  0  0
   18.1955  134.7217    3.3123 H   0  0  0  0  0  0
   19.8714  130.9016    2.8544 H   0  0  0  0  0  0
   19.1709  136.9781    1.3607 H   0  0  0  0  0  0
   18.3481  132.4780    4.4505 H   0  0  0  0  0  0
  1  2  2  0  0  0
  1  3  1  0  0  0
  1  4  1  0  0  0
  2  5  1  0  0  0
  2  6  1  0  0  0
  3  7  1  0  0  0
  3  8  2  0  0  0
  4  9  2  0  0  0
  4 34  1  0  0  0
  5 10  1  0  0  0
  5 11  1  0  0  0
  6 12  2  0  0  0
  6 35  1  0  0  0
  7 13  2  0  0  0
  7 36  1  0  0  0
  8 12  1  0  0  0
  8 37  1  0  0  0
  9 13  1  0  0  0
  9 14  1  0  0  0
 10 15  1  0  0  0
 10 38  1  0  0  0
 10 39  1  0  0  0
 11 16  1  0  0  0
 11 32  2  0  0  0
 12 40  1  0  0  0
 13 41  1  0  0  0
 14 17  1  0  0  0
 15 16  1  0  0  0
 15 42  1  0  0  0
 15 43  1  0  0  0
 16 33  1  0  0  0
 16 44  1  0  0  0
 17 18  2  0  0  0
 17 19  1  0  0  0
 18 21  1  0  0  0
 18 22  1  0  0  0
 19 23  2  0  0  0
 19 45  1  0  0  0
 20 24  1  0  0  0
 20 33  1  0  0  0
 20 46  1  0  0  0
 20 47  1  0  0  0
 21 25  2  0  0  0
 21 48  1  0  0  0
 22 26  3  0  0  0
 23 25  1  0  0  0
 23 27  1  0  0  0
 24 28  1  0  0  0
 24 29  2  0  0  0
 25 49  1  0  0  0
 27 28  1  0  0  0
 27 50  1  0  0  0
 27 51  1  0  0  0
 28 30  1  0  0  0
 29 31  1  0  0  0
 29 52  1  0  0  0
 30 31  2  0  0  0
 30 53  1  0  0  0
 31 55  1  0  0  0
 33 54  1  0  0  0
M  CHG  1  31   1
M  END
> <s_m_source_file>
../1ld8_ligand.sdf

> <i_m_source_file_index>
1

> <s_epik_input>
YzEyYzNONFtDSDJdW0NIMl1bQ0BIXShDND1PKVtOSDIrXVtDSDJdYzVuKFtjSF1uW2NIXTUpW0NIMl1jNltjSF1jKGMoQyNOKVtjSF1bY0hdNilPYyhbY0hdMilbY0hdW2NIXWMxW2NIXVtjSF1bY0hdMw==

> <s_epik_cmdline>
J2VwaWtfYXBwJywgJy1pbWFlJywgJ2xpZ2FuZF9wcm8ubWFlJywgJy1vbWFlJywgJ2xpZ2FuZF9wcmVwLm1hZScsICctbXMnLCAnMScsICctcGgnLCAnNycsICctcGh0JywgJzAuNScsICctbnQn

> <r_lp_tautomer_probability>
1

> <r_epik_Ionization_Penalty>
  0.4211

> <r_epik_Ionization_Penalty_Charging>
  0.0000

> <r_epik_Ionization_Penalty_Neutral>
  0.4211

> <r_epik_State_Penalty>
  0.3697

> <r_epik_Charging_Adjusted_Penalty>
0.369735569455642

> <i_epik_Tot_Q>
1

> <i_epik_Tot_abs_Q>
1

$$$$
