1lee_ligand
                    3D
 Schrodinger Suite 2020-3.
 80 82  0  0  1  0            999 V2000
   34.0950   28.4740    9.2510 C   0  0  0  0  0  0
   34.3440   29.6540    9.9610 C   0  0  0  0  0  0
   35.6700   30.1450   10.0000 C   0  0  0  0  0  0
   36.6900   29.4490    9.3450 C   0  0  0  0  0  0
   36.4230   28.2950    8.6650 C   0  0  0  0  0  0
   35.1390   27.8040    8.6050 C   0  0  0  0  0  0
   35.9920   31.4460   10.7050 C   0  0  0  0  0  0
   32.6900   27.9160    9.1680 C   0  0  0  0  0  0
   30.4620   37.4970   14.5320 C   0  0  0  0  0  0
   30.7470   37.5550   15.9060 C   0  0  0  0  0  0
   30.0500   38.4330   16.7780 C   0  0  0  0  0  0
   29.0720   39.2520   16.2910 C   0  0  0  0  0  0
   28.7540   39.2260   14.9240 C   0  0  0  0  0  0
   27.7520   40.1680   14.4100 N   0  0  0  0  0  0
   29.4480   38.3490   14.0450 C   0  0  0  0  0  0
   33.2710   30.3040   10.5940 O   0  0  0  0  0  0
   32.6720   31.4260    9.9720 C   0  0  0  0  0  0
   31.7060   32.2430   10.8660 C   0  0  0  0  0  0
   31.1210   33.2530   10.4300 O   0  0  0  0  0  0
   31.5320   31.8190   12.1100 N   0  0  0  0  0  0
   31.3210   32.5830   14.4250 C   0  0  1  0  0  0
   31.7040   31.2640   14.7950 O   0  0  0  0  0  0
   32.6210   33.3030   14.3480 C   0  0  0  0  0  0
   32.6670   34.6160   13.6150 C   0  0  2  0  0  0
   34.1190   35.0760   13.4250 C   0  0  0  0  0  0
   35.0790   35.4250   14.5750 C   0  0  0  0  0  0
   36.2080   36.2070   13.9820 C   0  0  0  0  0  0
   35.6630   34.2190   15.2620 C   0  0  0  0  0  0
   31.8270   35.6120   14.2900 N   0  0  0  0  0  0
   31.2110   36.6220   13.6800 C   0  0  0  0  0  0
   31.2920   36.8030   12.4580 O   0  0  0  0  0  0
   30.6620   32.5180   13.0290 C   0  0  2  0  0  0
   29.3410   31.7830   13.1450 C   0  0  0  0  0  0
   28.7250   31.4120   11.8400 C   0  0  0  0  0  0
   27.9860   32.3400   11.1150 C   0  0  0  0  0  0
   27.3330   31.9690    9.9180 C   0  0  0  0  0  0
   27.4310   30.6580    9.4380 C   0  0  0  0  0  0
   28.1760   29.7200   10.1440 C   0  0  0  0  0  0
   28.8270   30.1130   11.3640 C   0  0  0  0  0  0
   37.7101   29.8316    9.3773 H   0  0  0  0  0  0
   37.2316   27.7600    8.1670 H   0  0  0  0  0  0
   34.9344   26.8879    8.0510 H   0  0  0  0  0  0
   35.0772   31.8518   11.1615 H   0  0  0  0  0  0
   36.3903   32.1685    9.9774 H   0  0  0  0  0  0
   36.7424   31.2627   11.4881 H   0  0  0  0  0  0
   32.6973   26.9915    8.5720 H   0  0  0  0  0  0
   32.0297   28.6549    8.6905 H   0  0  0  0  0  0
   32.3223   27.6962   10.1812 H   0  0  0  0  0  0
   31.5241   36.9087   16.3141 H   0  0  0  0  0  0
   30.2966   38.4531   17.8395 H   0  0  0  0  0  0
   28.5390   39.9250   16.9627 H   0  0  0  0  0  0
   27.2232   40.8402   15.1018 H   0  0  0  0  0  0
   27.5301   40.2016   13.3331 H   0  0  0  0  0  0
   29.1941   38.3350   12.9851 H   0  0  0  0  0  0
   33.4555   32.1236    9.6412 H   0  0  0  0  0  0
   32.0859   31.0938    9.1024 H   0  0  0  0  0  0
   32.0663   30.9152   12.4380 H   0  0  0  0  0  0
   30.6363   33.0270   15.1626 H   0  0  0  0  0  0
   30.9378   30.4865   14.9309 H   0  0  0  0  0  0
   32.9729   33.5341   15.3643 H   0  0  0  0  0  0
   33.3618   32.6689   13.8389 H   0  0  0  0  0  0
   32.2060   34.4995   12.6231 H   0  0  0  0  0  0
   34.6846   34.2952   12.8954 H   0  0  0  0  0  0
   34.1353   36.0044   12.8353 H   0  0  0  0  0  0
   34.5304   35.9882   15.3443 H   0  0  0  0  0  0
   35.8098   37.0966   13.4721 H   0  0  0  0  0  0
   36.7476   35.5797   13.2572 H   0  0  0  0  0  0
   36.8967   36.5197   14.7807 H   0  0  0  0  0  0
   34.8532   33.6235   15.7087 H   0  0  0  0  0  0
   36.3558   34.5463   16.0513 H   0  0  0  0  0  0
   36.2067   33.6063   14.5278 H   0  0  0  0  0  0
   31.6709   35.5538   15.3773 H   0  0  0  0  0  0
   30.5101   33.5177   12.5960 H   0  0  0  0  0  0
   29.4893   30.8487   13.7063 H   0  0  0  0  0  0
   28.6139   32.4169   13.6737 H   0  0  0  0  0  0
   27.9094   33.3662   11.4743 H   0  0  0  0  0  0
   26.7506   32.7069    9.3663 H   0  0  0  0  0  0
   26.9257   30.3736    8.5150 H   0  0  0  0  0  0
   28.2655   28.6978    9.7764 H   0  0  0  0  0  0
   29.4089   29.3800   11.9228 H   0  0  0  0  0  0
  1  8  1  0  0  0
  1  6  2  0  0  0
  1  2  1  0  0  0
  2 16  1  0  0  0
  2  3  2  0  0  0
  3  7  1  0  0  0
  3  4  1  0  0  0
  4  5  2  0  0  0
  4 40  1  0  0  0
  5  6  1  0  0  0
  5 41  1  0  0  0
  6 42  1  0  0  0
  7 43  1  0  0  0
  7 44  1  0  0  0
  7 45  1  0  0  0
  8 46  1  0  0  0
  8 47  1  0  0  0
  8 48  1  0  0  0
  9 30  1  0  0  0
  9 15  2  0  0  0
  9 10  1  0  0  0
 10 11  2  0  0  0
 10 49  1  0  0  0
 11 12  1  0  0  0
 11 50  1  0  0  0
 12 13  2  0  0  0
 12 51  1  0  0  0
 13 15  1  0  0  0
 13 14  1  0  0  0
 14 52  1  0  0  0
 14 53  1  0  0  0
 15 54  1  0  0  0
 16 17  1  0  0  0
 17 18  1  0  0  0
 17 55  1  0  0  0
 17 56  1  0  0  0
 18 20  1  0  0  0
 18 19  2  0  0  0
 20 32  1  0  0  0
 20 57  1  0  0  0
 21 32  1  0  0  0
 21 23  1  0  0  0
 21 22  1  0  0  0
 21 58  1  0  0  0
 22 59  1  0  0  0
 23 24  1  0  0  0
 23 60  1  0  0  0
 23 61  1  0  0  0
 24 29  1  0  0  0
 24 25  1  0  0  0
 24 62  1  0  0  0
 25 26  1  0  0  0
 25 63  1  0  0  0
 25 64  1  0  0  0
 26 28  1  0  0  0
 26 27  1  0  0  0
 26 65  1  0  0  0
 27 66  1  0  0  0
 27 67  1  0  0  0
 27 68  1  0  0  0
 28 69  1  0  0  0
 28 70  1  0  0  0
 28 71  1  0  0  0
 29 30  1  0  0  0
 29 72  1  0  0  0
 30 31  2  0  0  0
 32 33  1  0  0  0
 32 73  1  0  0  0
 33 34  1  0  0  0
 33 74  1  0  0  0
 33 75  1  0  0  0
 34 39  2  0  0  0
 34 35  1  0  0  0
 35 36  2  0  0  0
 35 76  1  0  0  0
 36 37  1  0  0  0
 36 77  1  0  0  0
 37 38  2  0  0  0
 37 78  1  0  0  0
 38 39  1  0  0  0
 38 79  1  0  0  0
 39 80  1  0  0  0
M  END
> <s_m_source_file>
../1lee_ligand.sdf

> <i_m_source_file_index>
1

> <s_epik_input>
W2NIXTFbY0hdW2NIXWMoW0NIM10pYyhjMVtDSDNdKU9bQ0gyXUMoPU8pW05IXVtDQEBIXShbQ0gyXWMyW2NIXVtjSF1bY0hdW2NIXVtjSF0yKVtDQEBIXShbT0hdKVtDSDJdW0NASF0oW0NIMl1bQ0hdKFtDSDNdKVtDSDNdKVtOSF1DKD1PKWMzW2NIXVtjSF1bY0hdYyhbTkgyXSlbY0hdMw==

> <s_epik_cmdline>
J2VwaWtfYXBwJywgJy1pbWFlJywgJ2xpZ2FuZF9wcm8ubWFlJywgJy1vbWFlJywgJ2xpZ2FuZF9wcmVwLm1hZScsICctbXMnLCAnMScsICctcGgnLCAnNycsICctcGh0JywgJzAuNScsICctbnQn

> <r_lp_tautomer_probability>
1

> <r_epik_Ionization_Penalty>
  0.0002

> <r_epik_Ionization_Penalty_Charging>
  0.0000

> <r_epik_Ionization_Penalty_Neutral>
  0.0002

> <r_epik_State_Penalty>
 -0.0000

> <r_epik_Charging_Adjusted_Penalty>
0

> <i_epik_Tot_Q>
0

> <i_epik_Tot_abs_Q>
0

$$$$
