1leg_ligand
                    3D
 Schrodinger Suite 2020-3.
146148  0  0  1  0            999 V2000
   49.7140   56.6420    4.6090 N   0  3  0  0  0  0
   48.4610   57.3230    4.1650 C   0  0  2  0  0  0
   48.0650   56.9230    2.7550 C   0  0  0  0  0  0
   48.9150   56.6810    1.8880 O   0  0  0  0  0  0
   48.6210   58.8390    4.2150 C   0  0  0  0  0  0
   48.5630   59.3670    5.6080 C   0  0  0  0  0  0
   47.9900   60.7570    5.6700 C   0  0  0  0  0  0
   48.2150   61.5460    4.7240 O   0  5  0  0  0  0
   47.3100   61.0520    6.6730 O   0  0  0  0  0  0
   46.7570   56.8930    2.5380 N   0  0  0  0  0  0
   46.1770   56.5150    1.2640 C   0  0  2  0  0  0
   46.1680   57.6660    0.2610 C   0  0  0  0  0  0
   46.2880   58.8390    0.6140 O   0  0  0  0  0  0
   44.7490   56.0090    1.5230 C   0  0  0  0  0  0
   43.8990   55.7190    0.2910 C   0  0  0  0  0  0
   44.3600   54.5000   -0.4410 C   0  0  0  0  0  0
   43.7520   53.4280   -0.3470 O   0  0  0  0  0  0
   45.4530   54.6450   -1.1830 N   0  0  0  0  0  0
   46.0170   57.3060   -1.0050 N   0  0  0  0  0  0
   45.9430   58.2700   -2.0930 C   0  0  2  0  0  0
   44.4870   58.7440   -2.2620 C   0  0  0  0  0  0
   43.5590   58.0100   -1.9400 O   0  0  0  0  0  0
   46.4060   57.5770   -3.3710 C   0  0  0  0  0  0
   46.4970   58.4690   -4.5850 C   0  0  0  0  0  0
   47.3050   59.6090   -4.5860 C   0  0  0  0  0  0
   45.8080   58.1450   -5.7550 C   0  0  0  0  0  0
   47.4230   60.4020   -5.7280 C   0  0  0  0  0  0
   45.9180   58.9280   -6.8980 C   0  0  0  0  0  0
   46.7300   60.0540   -6.8880 C   0  0  0  0  0  0
   46.8590   60.8070   -8.0430 O   0  0  0  0  0  0
   44.2860   59.9740   -2.7340 N   0  0  0  0  0  0
   42.9340   60.4820   -3.0010 C   0  0  2  0  0  0
   42.6290   60.0740   -4.4410 C   0  0  0  0  0  0
   43.2050   60.6050   -5.3800 O   0  0  0  0  0  0
   42.8480   61.9740   -2.6720 C   0  0  0  0  0  0
   42.8440   62.2820   -1.1840 C   0  0  0  0  0  0
   42.9370   63.7780   -0.9290 C   0  0  0  0  0  0
   42.1330   64.5630   -1.9530 C   0  0  0  0  0  0
   40.8150   64.9940   -1.4110 N   0  3  0  0  0  0
   41.7460   59.1080   -4.6330 N   0  0  0  0  0  0
   41.4290   58.6720   -5.9950 C   0  0  2  0  0  0
   40.3660   59.5550   -6.6260 C   0  0  0  0  0  0
   39.4450   60.0310   -5.9500 O   0  0  0  0  0  0
   40.9200   57.2170   -5.9990 C   0  0  0  0  0  0
   41.9530   56.2180   -5.6030 C   0  0  0  0  0  0
   42.1690   55.9120   -4.2590 C   0  0  0  0  0  0
   42.7450   55.6070   -6.5690 C   0  0  0  0  0  0
   43.1820   55.0090   -3.8880 C   0  0  0  0  0  0
   43.7470   54.7160   -6.2110 C   0  0  0  0  0  0
   43.9670   54.4180   -4.8700 C   0  0  0  0  0  0
   40.4970   59.7890   -7.9230 N   0  0  0  0  0  0
   39.4880   60.5650   -8.6420 C   0  0  2  0  0  0
   38.7480   59.6150   -9.5460 C   0  0  0  0  0  0
   38.2780   58.5860   -9.0350 O   0  0  0  0  0  0
   40.1110   61.7730   -9.3230 C   0  0  0  0  0  0
   40.5540   62.8400   -8.3220 C   0  0  0  0  0  0
   40.1760   62.7600   -6.9790 C   0  0  0  0  0  0
   41.3540   63.9150   -8.7100 C   0  0  0  0  0  0
   40.5790   63.7150   -6.0520 C   0  0  0  0  0  0
   41.7670   64.8870   -7.7800 C   0  0  0  0  0  0
   41.3720   64.7800   -6.4550 C   0  0  0  0  0  0
   41.7740   65.7160   -5.5380 O   0  0  0  0  0  0
   38.5800   59.8680  -10.7910 N   0  0  0  0  0  0
   37.7690   58.8880  -11.3650 C   0  0  2  0  0  0
   38.2370   58.4930  -12.7050 C   0  0  0  0  0  0
   39.0100   59.1760  -13.3690 O   0  0  0  0  0  0
   36.3330   59.3880  -11.5050 C   0  0  0  0  0  0
   36.2470   60.4880  -12.3930 O   0  0  0  0  0  0
   37.7460   57.3510  -13.1460 N   0  0  0  0  0  0
   38.0590   56.8120  -14.4550 C   0  0  2  0  0  0
   37.0590   57.3160  -15.4840 C   0  0  0  0  0  0
   36.5410   58.0890  -15.6750 O   0  0  0  0  0  0
   38.0530   55.2840  -14.4640 C   0  0  0  0  0  0
   38.4760   54.7460  -13.1000 C   0  0  0  0  0  0
   36.6700   54.7540  -14.8410 C   0  0  0  0  0  0
   38.3540   57.3020  -16.6310 O   0  5  0  0  0  0
   49.5744   55.5518    4.5644 H   0  0  0  0  0  0
   49.9469   56.9399    5.6420 H   0  0  0  0  0  0
   50.5435   56.9328    3.9476 H   0  0  0  0  0  0
   47.6821   56.9898    4.8666 H   0  0  0  0  0  0
   49.5934   59.1195    3.7841 H   0  0  0  0  0  0
   47.8136   59.3122    3.6369 H   0  0  0  0  0  0
   47.9299   58.7105    6.2229 H   0  0  0  0  0  0
   49.5780   59.3984    6.0308 H   0  0  0  0  0  0
   46.1043   57.1718    3.3784 H   0  0  0  0  0  0
   46.8335   55.7313    0.8580 H   0  0  0  0  0  0
   44.7909   55.0668    2.0891 H   0  0  0  0  0  0
   44.1932   56.7606    2.1028 H   0  0  0  0  0  0
   42.8542   55.5590    0.5958 H   0  0  0  0  0  0
   43.9525   56.5727   -0.4007 H   0  0  0  0  0  0
   45.9580   55.6209   -1.2335 H   0  0  0  0  0  0
   45.8527   53.7891   -1.7466 H   0  0  0  0  0  0
   45.9470   56.2292   -1.2185 H   0  0  0  0  0  0
   46.5992   59.1148   -1.8366 H   0  0  0  0  0  0
   47.4095   57.1539   -3.2158 H   0  0  0  0  0  0
   45.7033   56.7700   -3.6258 H   0  0  0  0  0  0
   47.8503   59.8824   -3.6827 H   0  0  0  0  0  0
   45.1712   57.2605   -5.7725 H   0  0  0  0  0  0
   48.0544   61.2904   -5.7140 H   0  0  0  0  0  0
   45.3682   58.6587   -7.7998 H   0  0  0  0  0  0
   47.4994   61.7014   -8.0478 H   0  0  0  0  0  0
   45.1610   60.6130   -2.9236 H   0  0  0  0  0  0
   42.1804   60.0303   -2.3391 H   0  0  0  0  0  0
   43.7124   62.4961   -3.1083 H   0  0  0  0  0  0
   41.9194   62.3889   -3.0909 H   0  0  0  0  0  0
   41.9123   61.9078   -0.7346 H   0  0  0  0  0  0
   43.7046   61.7915   -0.7057 H   0  0  0  0  0  0
   42.5438   64.0043    0.0731 H   0  0  0  0  0  0
   43.9883   64.0959   -0.9908 H   0  0  0  0  0  0
   42.6943   65.4614   -2.2493 H   0  0  0  0  0  0
   41.9531   63.9347   -2.8378 H   0  0  0  0  0  0
   40.2679   65.5567   -2.1817 H   0  0  0  0  0  0
   40.9723   65.6353   -0.5312 H   0  0  0  0  0  0
   40.2311   64.1085   -1.1196 H   0  0  0  0  0  0
   41.2503   58.6324   -3.7739 H   0  0  0  0  0  0
   42.3767   58.7747   -6.5440 H   0  0  0  0  0  0
   40.0830   57.1194   -5.2919 H   0  0  0  0  0  0
   40.5786   56.9507   -7.0102 H   0  0  0  0  0  0
   41.5490   56.3755   -3.4916 H   0  0  0  0  0  0
   42.5764   55.8311   -7.6223 H   0  0  0  0  0  0
   43.3498   54.7746   -2.8368 H   0  0  0  0  0  0
   44.3618   54.2495   -6.9807 H   0  0  0  0  0  0
   44.7560   53.7202   -4.5896 H   0  0  0  0  0  0
   41.3728   59.3948   -8.4592 H   0  0  0  0  0  0
   38.7595   60.9881   -7.9347 H   0  0  0  0  0  0
   40.9950   61.4557   -9.8956 H   0  0  0  0  0  0
   39.3773   62.2290  -10.0040 H   0  0  0  0  0  0
   39.5508   61.9298   -6.6505 H   0  0  0  0  0  0
   41.6644   64.0035   -9.7511 H   0  0  0  0  0  0
   40.2722   63.6271   -5.0098 H   0  0  0  0  0  0
   42.3940   65.7195   -8.0994 H   0  0  0  0  0  0
   41.4587   65.6279   -4.4878 H   0  0  0  0  0  0
   38.9652   60.6935  -11.4075 H   0  0  0  0  0  0
   37.8904   58.0488  -10.6643 H   0  0  0  0  0  0
   35.6990   58.5778  -11.8943 H   0  0  0  0  0  0
   35.9581   59.7065  -10.5211 H   0  0  0  0  0  0
   35.2727   60.9571  -12.5948 H   0  0  0  0  0  0
   37.0717   56.8022  -12.4721 H   0  0  0  0  0  0
   39.0727   57.1848  -14.6633 H   0  0  0  0  0  0
   38.7748   54.9360  -15.2176 H   0  0  0  0  0  0
   39.4720   55.1367  -12.8446 H   0  0  0  0  0  0
   38.5109   53.6471  -13.1340 H   0  0  0  0  0  0
   37.7500   55.0664  -12.3383 H   0  0  0  0  0  0
   36.3810   55.1510  -15.8253 H   0  0  0  0  0  0
   35.9364   55.0745  -14.0866 H   0  0  0  0  0  0
   36.6972   53.6551  -14.8824 H   0  0  0  0  0  0
  1  2  1  0  0  0
  1 77  1  0  0  0
  1 78  1  0  0  0
  1 79  1  0  0  0
  2  3  1  0  0  0
  2  5  1  0  0  0
  2 80  1  0  0  0
  3  4  2  0  0  0
  3 10  1  0  0  0
  5  6  1  0  0  0
  5 81  1  0  0  0
  5 82  1  0  0  0
  6  7  1  0  0  0
  6 83  1  0  0  0
  6 84  1  0  0  0
  7  8  1  0  0  0
  7  9  2  0  0  0
 10 11  1  0  0  0
 10 85  1  0  0  0
 11 12  1  0  0  0
 11 14  1  0  0  0
 11 86  1  0  0  0
 12 13  2  0  0  0
 12 19  1  0  0  0
 14 15  1  0  0  0
 14 87  1  0  0  0
 14 88  1  0  0  0
 15 16  1  0  0  0
 15 89  1  0  0  0
 15 90  1  0  0  0
 16 17  2  0  0  0
 16 18  1  0  0  0
 18 91  1  0  0  0
 18 92  1  0  0  0
 19 20  1  0  0  0
 19 93  1  0  0  0
 20 21  1  0  0  0
 20 23  1  0  0  0
 20 94  1  0  0  0
 21 22  2  0  0  0
 21 31  1  0  0  0
 23 24  1  0  0  0
 23 95  1  0  0  0
 23 96  1  0  0  0
 24 25  2  0  0  0
 24 26  1  0  0  0
 25 27  1  0  0  0
 25 97  1  0  0  0
 26 28  2  0  0  0
 26 98  1  0  0  0
 27 29  2  0  0  0
 27 99  1  0  0  0
 28 29  1  0  0  0
 28100  1  0  0  0
 29 30  1  0  0  0
 30101  1  0  0  0
 31 32  1  0  0  0
 31102  1  0  0  0
 32 33  1  0  0  0
 32 35  1  0  0  0
 32103  1  0  0  0
 33 34  2  0  0  0
 33 40  1  0  0  0
 35 36  1  0  0  0
 35104  1  0  0  0
 35105  1  0  0  0
 36 37  1  0  0  0
 36106  1  0  0  0
 36107  1  0  0  0
 37 38  1  0  0  0
 37108  1  0  0  0
 37109  1  0  0  0
 38 39  1  0  0  0
 38110  1  0  0  0
 38111  1  0  0  0
 39112  1  0  0  0
 39113  1  0  0  0
 39114  1  0  0  0
 40 41  1  0  0  0
 40115  1  0  0  0
 41 42  1  0  0  0
 41 44  1  0  0  0
 41116  1  0  0  0
 42 43  2  0  0  0
 42 51  1  0  0  0
 44 45  1  0  0  0
 44117  1  0  0  0
 44118  1  0  0  0
 45 46  2  0  0  0
 45 47  1  0  0  0
 46 48  1  0  0  0
 46119  1  0  0  0
 47 49  2  0  0  0
 47120  1  0  0  0
 48 50  2  0  0  0
 48121  1  0  0  0
 49 50  1  0  0  0
 49122  1  0  0  0
 50123  1  0  0  0
 51 52  1  0  0  0
 51124  1  0  0  0
 52 53  1  0  0  0
 52 55  1  0  0  0
 52125  1  0  0  0
 53 54  2  0  0  0
 53 63  1  0  0  0
 55 56  1  0  0  0
 55126  1  0  0  0
 55127  1  0  0  0
 56 57  2  0  0  0
 56 58  1  0  0  0
 57 59  1  0  0  0
 57128  1  0  0  0
 58 60  2  0  0  0
 58129  1  0  0  0
 59 61  2  0  0  0
 59130  1  0  0  0
 60 61  1  0  0  0
 60131  1  0  0  0
 61 62  1  0  0  0
 62132  1  0  0  0
 63 64  1  0  0  0
 63133  1  0  0  0
 64 65  1  0  0  0
 64 67  1  0  0  0
 64134  1  0  0  0
 65 66  2  0  0  0
 65 69  1  0  0  0
 67 68  1  0  0  0
 67135  1  0  0  0
 67136  1  0  0  0
 68137  1  0  0  0
 69 70  1  0  0  0
 69138  1  0  0  0
 70 71  1  0  0  0
 70 73  1  0  0  0
 70139  1  0  0  0
 71 72  2  0  0  0
 71 76  1  0  0  0
 73 74  1  0  0  0
 73 75  1  0  0  0
 73140  1  0  0  0
 74141  1  0  0  0
 74142  1  0  0  0
 74143  1  0  0  0
 75144  1  0  0  0
 75145  1  0  0  0
 75146  1  0  0  0
M  CHG  4   1   1   8  -1  39   1  76  -1
M  END
> <s_m_source_file>
../1leg_ligand.sdf

> <i_m_source_file_index>
1

> <s_epik_input>
W09IXUMoPU8pW0NIMl1bQ0gyXVtDQEhdKFtOSDMrXSlDKD1PKVtOSF1bQ0BASF0oW0NIMl1bQ0gyXUMoPU8pW05IMl0pQyg9TylbTkhdW0NAQEhdKFtDSDJdYzFbY0hdW2NIXWMoW09IXSlbY0hdW2NIXTEpQyg9TylbTkhdW0NAQEhdKFtDSDJdW0NIMl1bQ0gyXVtDSDJdW05IMytdKUMoPU8pW05IXVtDQEBIXShbQ0gyXWMyW2NIXVtjSF1bY0hdW2NIXVtjSF0yKUMoPU8pW05IXVtDQEBIXShbQ0gyXWMzW2NIXVtjSF1jKFtPSF0pW2NIXVtjSF0zKUMoPU8pW05IXVtDQEBIXShbQ0gyXVtPSF0pQyg9TylbTkhdW0NASF0oQyg9TylbT0hdKVtDSF0oW0NIM10pW0NIM10=

> <s_epik_cmdline>
J2VwaWtfYXBwJywgJy1pbWFlJywgJ2xpZ2FuZF9wcm8ubWFlJywgJy1vbWFlJywgJ2xpZ2FuZF9wcmVwLm1hZScsICctbXMnLCAnMScsICctcGgnLCAnNycsICctcGh0JywgJzAuNScsICctbnQn

> <r_lp_tautomer_probability>
0.99999999999473

> <r_epik_Ionization_Penalty>
  0.0825

> <r_epik_Ionization_Penalty_Charging>
  0.0808

> <r_epik_Ionization_Penalty_Neutral>
  0.0017

> <r_epik_State_Penalty>
  0.0700

> <r_epik_Charging_Adjusted_Penalty>
0.150745937520334

> <i_epik_Tot_Q>
0

> <i_epik_Tot_abs_Q>
4

$$$$
