1lek_ligand
                    3D
 Schrodinger Suite 2020-3.
146148  0  0  1  0            999 V2000
   49.9290   56.6420    4.0970 N   0  3  0  0  0  0
   48.5770   57.1690    3.7500 C   0  0  2  0  0  0
   48.1340   56.7810    2.3490 C   0  0  0  0  0  0
   48.9570   56.5520    1.4470 O   0  0  0  0  0  0
   48.5360   58.6950    3.8690 C   0  0  0  0  0  0
   48.6210   59.2150    5.2870 C   0  0  0  0  0  0
   48.1020   60.6380    5.4110 C   0  0  0  0  0  0
   48.3420   61.4450    4.4840 O   0  0  0  0  0  0
   47.4620   60.9540    6.4400 O   0  5  0  0  0  0
   46.8160   56.7390    2.1810 N   0  0  0  0  0  0
   46.1830   56.3780    0.9220 C   0  0  2  0  0  0
   46.1640   57.5260   -0.0860 C   0  0  0  0  0  0
   46.2500   58.6950    0.2740 O   0  0  0  0  0  0
   44.7480   55.9120    1.1980 C   0  0  0  0  0  0
   43.9190   55.6330   -0.0430 C   0  0  0  0  0  0
   44.3980   54.4100   -0.7990 C   0  0  0  0  0  0
   43.7410   53.3700   -0.7900 O   0  0  0  0  0  0
   45.5520   54.5250   -1.4500 N   0  0  0  0  0  0
   46.0530   57.1600   -1.3560 N   0  0  0  0  0  0
   45.9890   58.0950   -2.4710 C   0  0  2  0  0  0
   44.5260   58.5100   -2.6630 C   0  0  0  0  0  0
   43.6120   57.7590   -2.3080 O   0  0  0  0  0  0
   46.4770   57.3880   -3.7390 C   0  0  0  0  0  0
   46.5050   58.2250   -4.9990 C   0  0  0  0  0  0
   47.3690   59.3140   -5.1170 C   0  0  0  0  0  0
   45.7200   57.8830   -6.1000 C   0  0  0  0  0  0
   47.4560   60.0390   -6.3000 C   0  0  0  0  0  0
   45.7970   58.5950   -7.2870 C   0  0  0  0  0  0
   46.6680   59.6740   -7.3840 C   0  0  0  0  0  0
   46.7590   60.3860   -8.5610 O   0  0  0  0  0  0
   44.3150   59.7030   -3.2200 N   0  0  0  0  0  0
   42.9720   60.2030   -3.5000 C   0  0  2  0  0  0
   42.6960   59.9060   -4.9740 C   0  0  0  0  0  0
   43.3110   60.5010   -5.8570 O   0  0  0  0  0  0
   42.8960   61.7130   -3.2590 C   0  0  0  0  0  0
   41.7810   62.1300   -2.3210 C   0  0  0  0  0  0
   41.4790   63.6270   -2.4140 C   0  0  0  0  0  0
   42.6630   64.4950   -1.9900 C   0  0  0  0  0  0
   42.4220   65.9370   -2.3070 N   0  3  0  0  0  0
   41.7770   58.9820   -5.2380 N   0  0  0  0  0  0
   41.4510   58.6040   -6.6110 C   0  0  2  0  0  0
   40.3810   59.4730   -7.2650 C   0  0  0  0  0  0
   39.6350   60.1740   -6.5900 O   0  0  0  0  0  0
   40.9520   57.1550   -6.6680 C   0  0  0  0  0  0
   41.9670   56.1350   -6.2460 C   0  0  0  0  0  0
   42.2150   55.8920   -4.8930 C   0  0  0  0  0  0
   42.6790   55.4080   -7.2080 C   0  0  0  0  0  0
   43.1570   54.9390   -4.5020 C   0  0  0  0  0  0
   43.6210   54.4560   -6.8320 C   0  0  0  0  0  0
   43.8640   54.2170   -5.4710 C   0  0  0  0  0  0
   40.3280   59.4110   -8.5920 N   0  0  0  0  0  0
   39.3100   60.1050   -9.3700 C   0  0  2  0  0  0
   38.8560   59.0770  -10.3970 C   0  0  0  0  0  0
   39.6480   58.2620  -10.8520 O   0  0  0  0  0  0
   39.8430   61.3550  -10.0810 C   0  0  0  0  0  0
   38.7680   62.0100  -10.9290 C   0  0  0  0  0  0
   38.5290   61.5880  -12.2440 C   0  0  0  0  0  0
   37.9120   62.9730  -10.3840 C   0  0  0  0  0  0
   37.4590   62.1010  -12.9920 C   0  0  0  0  0  0
   36.8360   63.4910  -11.1210 C   0  0  0  0  0  0
   36.6150   63.0480  -12.4220 C   0  0  0  0  0  0
   35.5400   63.5360  -13.1420 O   0  0  0  0  0  0
   37.5790   59.1220  -10.7500 N   0  0  0  0  0  0
   36.9920   58.1810  -11.6920 C   0  0  2  0  0  0
   37.7740   57.8370  -12.9620 C   0  0  0  0  0  0
   38.5670   58.6200  -13.4860 O   0  0  0  0  0  0
   35.5900   58.6600  -12.0900 C   0  0  0  0  0  0
   35.0190   57.7980  -13.0680 O   0  0  0  0  0  0
   37.5210   56.6270  -13.4400 N   0  0  0  0  0  0
   38.1210   56.1090  -14.6540 C   0  0  2  0  0  0
   37.3350   56.6930  -15.8510 C   0  0  0  0  0  0
   37.7620   56.5120  -17.0110 O   0  0  0  0  0  0
   38.0360   54.5590  -14.6480 C   0  0  0  0  0  0
   38.5180   54.0050  -15.9460 C   0  0  0  0  0  0
   38.8840   53.9880  -13.5080 C   0  0  0  0  0  0
   36.2840   57.3360  -15.6150 O   0  5  0  0  0  0
   49.9304   55.5460    4.0034 H   0  0  0  0  0  0
   50.1773   56.9220    5.1314 H   0  0  0  0  0  0
   50.6760   57.0695    3.4120 H   0  0  0  0  0  0
   47.9020   56.6939    4.4771 H   0  0  0  0  0  0
   49.3832   59.1287    3.3175 H   0  0  0  0  0  0
   47.5925   59.0706    3.4462 H   0  0  0  0  0  0
   48.0202   58.5742    5.9491 H   0  0  0  0  0  0
   49.6696   59.2045    5.6192 H   0  0  0  0  0  0
   46.1976   56.9946    3.0541 H   0  0  0  0  0  0
   46.8154   55.5747    0.5161 H   0  0  0  0  0  0
   44.7711   54.9789    1.7800 H   0  0  0  0  0  0
   44.2142   56.6866    1.7681 H   0  0  0  0  0  0
   42.8715   55.4630    0.2464 H   0  0  0  0  0  0
   43.9761   56.4953   -0.7236 H   0  0  0  0  0  0
   46.1033   55.4766   -1.4282 H   0  0  0  0  0  0
   45.9552   53.6685   -2.0102 H   0  0  0  0  0  0
   46.0092   56.0769   -1.5432 H   0  0  0  0  0  0
   46.6286   58.9565   -2.2288 H   0  0  0  0  0  0
   47.5067   57.0321   -3.5871 H   0  0  0  0  0  0
   45.8215   56.5319   -3.9568 H   0  0  0  0  0  0
   47.9869   59.6016   -4.2664 H   0  0  0  0  0  0
   45.0330   57.0400   -6.0257 H   0  0  0  0  0  0
   48.1369   60.8868   -6.3762 H   0  0  0  0  0  0
   45.1787   58.3107   -8.1385 H   0  0  0  0  0  0
   47.4489   61.2395   -8.6356 H   0  0  0  0  0  0
   45.1934   60.3163   -3.4697 H   0  0  0  0  0  0
   42.2681   59.6966   -2.8231 H   0  0  0  0  0  0
   43.8409   62.0617   -2.8167 H   0  0  0  0  0  0
   42.7266   62.2289   -4.2156 H   0  0  0  0  0  0
   40.8632   61.5794   -2.5748 H   0  0  0  0  0  0
   42.0699   61.9030   -1.2842 H   0  0  0  0  0  0
   41.2262   63.8862   -3.4527 H   0  0  0  0  0  0
   40.6303   63.8713   -1.7582 H   0  0  0  0  0  0
   42.8198   64.3969   -0.9057 H   0  0  0  0  0  0
   43.5678   64.1665   -2.5225 H   0  0  0  0  0  0
   43.2909   66.5323   -1.9899 H   0  0  0  0  0  0
   41.5250   66.2847   -1.7737 H   0  0  0  0  0  0
   42.2729   66.0543   -3.3905 H   0  0  0  0  0  0
   41.2582   58.4993   -4.3967 H   0  0  0  0  0  0
   42.4121   58.7602   -7.1228 H   0  0  0  0  0  0
   40.0842   57.0396   -6.0020 H   0  0  0  0  0  0
   40.6582   56.9086   -7.6990 H   0  0  0  0  0  0
   41.6675   56.4521   -4.1350 H   0  0  0  0  0  0
   42.4925   55.5906   -8.2663 H   0  0  0  0  0  0
   43.3420   54.7571   -3.4433 H   0  0  0  0  0  0
   44.1682   53.8979   -7.5917 H   0  0  0  0  0  0
   44.6003   53.4721   -5.1692 H   0  0  0  0  0  0
   41.0926   58.8063   -9.1017 H   0  0  0  0  0  0
   38.5225   60.4438   -8.6808 H   0  0  0  0  0  0
   40.1891   62.0830   -9.3325 H   0  0  0  0  0  0
   40.6817   61.0751  -10.7354 H   0  0  0  0  0  0
   39.1881   60.8460  -12.6946 H   0  0  0  0  0  0
   38.0841   63.3276   -9.3678 H   0  0  0  0  0  0
   37.2901   61.7596  -14.0133 H   0  0  0  0  0  0
   36.1765   64.2366  -10.6769 H   0  0  0  0  0  0
   35.3631   63.1876  -14.1703 H   0  0  0  0  0  0
   36.9573   59.9103  -10.3005 H   0  0  0  0  0  0
   37.0200   57.2694  -11.0770 H   0  0  0  0  0  0
   34.9399   58.6687  -11.2027 H   0  0  0  0  0  0
   35.6543   59.6757  -12.5074 H   0  0  0  0  0  0
   34.0123   58.0028  -13.4612 H   0  0  0  0  0  0
   36.8167   56.0065  -12.8664 H   0  0  0  0  0  0
   39.1732   56.4294  -14.6705 H   0  0  0  0  0  0
   36.9889   54.2445  -14.5266 H   0  0  0  0  0  0
   37.9106   54.4134  -16.7671 H   0  0  0  0  0  0
   38.4274   52.9088  -15.9330 H   0  0  0  0  0  0
   39.5715   54.2841  -16.0952 H   0  0  0  0  0  0
   38.5308   54.3949  -12.5490 H   0  0  0  0  0  0
   39.9372   54.2671  -13.6591 H   0  0  0  0  0  0
   38.7931   52.8918  -13.4970 H   0  0  0  0  0  0
  1  2  1  0  0  0
  1 77  1  0  0  0
  1 78  1  0  0  0
  1 79  1  0  0  0
  2  3  1  0  0  0
  2  5  1  0  0  0
  2 80  1  0  0  0
  3  4  2  0  0  0
  3 10  1  0  0  0
  5  6  1  0  0  0
  5 81  1  0  0  0
  5 82  1  0  0  0
  6  7  1  0  0  0
  6 83  1  0  0  0
  6 84  1  0  0  0
  7  8  2  0  0  0
  7  9  1  0  0  0
 10 11  1  0  0  0
 10 85  1  0  0  0
 11 12  1  0  0  0
 11 14  1  0  0  0
 11 86  1  0  0  0
 12 13  2  0  0  0
 12 19  1  0  0  0
 14 15  1  0  0  0
 14 87  1  0  0  0
 14 88  1  0  0  0
 15 16  1  0  0  0
 15 89  1  0  0  0
 15 90  1  0  0  0
 16 17  2  0  0  0
 16 18  1  0  0  0
 18 91  1  0  0  0
 18 92  1  0  0  0
 19 20  1  0  0  0
 19 93  1  0  0  0
 20 21  1  0  0  0
 20 23  1  0  0  0
 20 94  1  0  0  0
 21 22  2  0  0  0
 21 31  1  0  0  0
 23 24  1  0  0  0
 23 95  1  0  0  0
 23 96  1  0  0  0
 24 25  2  0  0  0
 24 26  1  0  0  0
 25 27  1  0  0  0
 25 97  1  0  0  0
 26 28  2  0  0  0
 26 98  1  0  0  0
 27 29  2  0  0  0
 27 99  1  0  0  0
 28 29  1  0  0  0
 28100  1  0  0  0
 29 30  1  0  0  0
 30101  1  0  0  0
 31 32  1  0  0  0
 31102  1  0  0  0
 32 33  1  0  0  0
 32 35  1  0  0  0
 32103  1  0  0  0
 33 34  2  0  0  0
 33 40  1  0  0  0
 35 36  1  0  0  0
 35104  1  0  0  0
 35105  1  0  0  0
 36 37  1  0  0  0
 36106  1  0  0  0
 36107  1  0  0  0
 37 38  1  0  0  0
 37108  1  0  0  0
 37109  1  0  0  0
 38 39  1  0  0  0
 38110  1  0  0  0
 38111  1  0  0  0
 39112  1  0  0  0
 39113  1  0  0  0
 39114  1  0  0  0
 40 41  1  0  0  0
 40115  1  0  0  0
 41 42  1  0  0  0
 41 44  1  0  0  0
 41116  1  0  0  0
 42 43  2  0  0  0
 42 51  1  0  0  0
 44 45  1  0  0  0
 44117  1  0  0  0
 44118  1  0  0  0
 45 46  2  0  0  0
 45 47  1  0  0  0
 46 48  1  0  0  0
 46119  1  0  0  0
 47 49  2  0  0  0
 47120  1  0  0  0
 48 50  2  0  0  0
 48121  1  0  0  0
 49 50  1  0  0  0
 49122  1  0  0  0
 50123  1  0  0  0
 51 52  1  0  0  0
 51124  1  0  0  0
 52 53  1  0  0  0
 52 55  1  0  0  0
 52125  1  0  0  0
 53 54  2  0  0  0
 53 63  1  0  0  0
 55 56  1  0  0  0
 55126  1  0  0  0
 55127  1  0  0  0
 56 57  2  0  0  0
 56 58  1  0  0  0
 57 59  1  0  0  0
 57128  1  0  0  0
 58 60  2  0  0  0
 58129  1  0  0  0
 59 61  2  0  0  0
 59130  1  0  0  0
 60 61  1  0  0  0
 60131  1  0  0  0
 61 62  1  0  0  0
 62132  1  0  0  0
 63 64  1  0  0  0
 63133  1  0  0  0
 64 65  1  0  0  0
 64 67  1  0  0  0
 64134  1  0  0  0
 65 66  2  0  0  0
 65 69  1  0  0  0
 67 68  1  0  0  0
 67135  1  0  0  0
 67136  1  0  0  0
 68137  1  0  0  0
 69 70  1  0  0  0
 69138  1  0  0  0
 70 71  1  0  0  0
 70 73  1  0  0  0
 70139  1  0  0  0
 71 72  2  0  0  0
 71 76  1  0  0  0
 73 74  1  0  0  0
 73 75  1  0  0  0
 73140  1  0  0  0
 74141  1  0  0  0
 74142  1  0  0  0
 74143  1  0  0  0
 75144  1  0  0  0
 75145  1  0  0  0
 75146  1  0  0  0
M  CHG  4   1   1   9  -1  39   1  76  -1
M  END
> <s_m_source_file>
../1lek_ligand.sdf

> <i_m_source_file_index>
1

> <s_epik_input>
Tz1DKFtPSF0pW0NIMl1bQ0gyXVtDQEhdKFtOSDMrXSlDKD1PKVtOSF1bQ0BASF0oW0NIMl1bQ0gyXUMoPU8pW05IMl0pQyg9TylbTkhdW0NAQEhdKFtDSDJdYzFbY0hdW2NIXWMoW09IXSlbY0hdW2NIXTEpQyg9TylbTkhdW0NAQEhdKFtDSDJdW0NIMl1bQ0gyXVtDSDJdW05IMytdKUMoPU8pW05IXVtDQEBIXShbQ0gyXWMyW2NIXVtjSF1bY0hdW2NIXVtjSF0yKUMoPU8pW05IXVtDQEBIXShbQ0gyXWMzW2NIXVtjSF1jKFtPSF0pW2NIXVtjSF0zKUMoPU8pW05IXVtDQEBIXShbQ0gyXVtPSF0pQyg9TylbTkhdW0NASF0oQyg9TylbT0hdKVtDSF0oW0NIM10pW0NIM10=

> <s_epik_cmdline>
J2VwaWtfYXBwJywgJy1pbWFlJywgJ2xpZ2FuZF9wcm8ubWFlJywgJy1vbWFlJywgJ2xpZ2FuZF9wcmVwLm1hZScsICctbXMnLCAnMScsICctcGgnLCAnNycsICctcGh0JywgJzAuNScsICctbnQn

> <r_lp_tautomer_probability>
0.99999999999473

> <r_epik_Ionization_Penalty>
  0.0825

> <r_epik_Ionization_Penalty_Charging>
  0.0808

> <r_epik_Ionization_Penalty_Neutral>
  0.0017

> <r_epik_State_Penalty>
  0.0700

> <r_epik_Charging_Adjusted_Penalty>
0.150745937520334

> <i_epik_Tot_Q>
0

> <i_epik_Tot_abs_Q>
4

$$$$
