1lev_ligand
                    3D
 Schrodinger Suite 2020-3.
 25 26  0  0  1  0            999 V2000
    9.3360  -33.7580    6.1590 O   0  0  0  0  0  0
    8.2580  -33.1600    5.9410 C   0  0  0  0  0  0
    7.1440  -33.7300    6.4420 O   0  5  0  0  0  0
    8.0980  -31.8580    5.1190 C   0  0  0  0  0  0
    9.0700  -30.7220    5.3160 C   0  0  0  0  0  0
    8.5720  -29.4500    4.6720 C   0  0  0  0  0  0
    9.3440  -28.2070    4.5300 C   0  0  0  0  0  0
    7.3840  -29.1950    4.1100 C   0  0  0  0  0  0
    6.1790  -30.0400    3.9150 C   0  0  0  0  0  0
    6.0600  -31.2790    4.3500 O   0  5  0  0  0  0
    5.2050  -29.5040    3.3860 O   0  0  0  0  0  0
    7.3230  -27.9130    3.6460 N   0  0  0  0  0  0
    8.5290  -27.2690    3.8940 C   0  0  0  0  0  0
    8.9300  -25.9420    3.6580 C   0  0  0  0  0  0
   10.2190  -25.5980    4.0380 C   0  0  3  0  0  0
   10.7770  -23.9810    3.7890 Cl  0  0  0  0  0  0
   11.0700  -26.5120    4.7050 C   0  0  0  0  0  0
   10.6110  -27.8050    4.9540 C   0  0  0  0  0  0
   11.6120  -28.9760    5.7510 Cl  0  0  0  0  0  0
    8.1720  -32.0902    4.0463 H   0  0  0  0  0  0
    7.1161  -31.4094    5.3302 H   0  0  0  0  0  0
    9.2054  -30.5377    6.3920 H   0  0  0  0  0  0
   10.0379  -30.9851    4.8645 H   0  0  0  0  0  0
    8.2319  -25.2312    3.1917 H   0  0  0  0  0  0
   12.0796  -26.2155    5.0256 H   0  0  0  0  0  0
  1  2  2  0  0  0
  2  3  1  0  0  0
  2  4  1  0  0  0
  4  5  1  0  0  0
  4 20  1  0  0  0
  4 21  1  0  0  0
  5  6  1  0  0  0
  5 22  1  0  0  0
  5 23  1  0  0  0
  6  7  2  0  0  0
  6  8  1  0  0  0
  7 13  1  0  0  0
  7 18  1  0  0  0
  8  9  1  0  0  0
  8 12  2  0  0  0
  9 10  1  0  0  0
  9 11  2  0  0  0
 12 13  1  0  0  0
 13 14  2  0  0  0
 14 15  1  0  0  0
 14 24  1  0  0  0
 15 16  1  0  0  0
 15 17  1  0  0  0
 17 18  2  0  0  0
 17 25  1  0  0  0
 18 19  1  0  0  0
M  CHG  2   3  -1  10  -1
M  END
> <s_m_source_file>
../1lev_ligand.sdf

> <i_m_source_file_index>
1

> <s_epik_input>
Tz1DKFtPSF0pW0NIMl1bQ0gyXUM9MUMoQyg9TylbT0hdKT1OQyhDMTIpPVtDSF1bQ0hdKENsKVtDSF09QzJDbA==

> <s_epik_cmdline>
J2VwaWtfYXBwJywgJy1pbWFlJywgJ2xpZ2FuZF9wcm8ubWFlJywgJy1vbWFlJywgJ2xpZ2FuZF9wcmVwLm1hZScsICctbXMnLCAnMScsICctcGgnLCAnNycsICctcGh0JywgJzAuNScsICctbnQn

> <r_lp_tautomer_probability>
1

> <r_epik_Ionization_Penalty>
  0.0002

> <r_epik_Ionization_Penalty_Charging>
  0.0002

> <r_epik_Ionization_Penalty_Neutral>
  0.0000

> <r_epik_State_Penalty>
 -0.0000

> <r_epik_Charging_Adjusted_Penalty>
0.000206645514842215

> <i_epik_Tot_Q>
-2

> <i_epik_Tot_abs_Q>
2

> <s_epik_Chemistry_Notes>
This compound has an imine and may undergo hydrolysis.

$$$$
