1lf2_ligand
                    3D
 Schrodinger Suite 2020-3.
 80 82  0  0  1  0            999 V2000
   34.1440   28.6370    9.3600 C   0  0  0  0  0  0
   34.4550   29.8420    9.9500 C   0  0  0  0  0  0
   35.7770   30.3190    9.8970 C   0  0  0  0  0  0
   36.7600   29.5670    9.2490 C   0  0  0  0  0  0
   36.4420   28.3600    8.6640 C   0  0  0  0  0  0
   35.1420   27.8940    8.7150 C   0  0  0  0  0  0
   36.1130   31.6830   10.4710 C   0  0  0  0  0  0
   32.7130   28.1320    9.4040 C   0  0  0  0  0  0
   30.5510   37.7260   14.5130 C   0  0  0  0  0  0
   30.8790   37.9050   15.8680 C   0  0  0  0  0  0
   30.2110   38.8700   16.6540 C   0  0  0  0  0  0
   29.2110   39.6630   16.0890 C   0  0  0  0  0  0
   28.8810   39.4870   14.7410 C   0  0  0  0  0  0
   28.5020   40.7120   16.9060 N   0  0  0  0  0  0
   29.5450   38.5360   13.9670 C   0  0  0  0  0  0
   33.3890   30.5060   10.5520 O   0  0  0  0  0  0
   32.6180   31.4240    9.8390 C   0  0  0  0  0  0
   31.8510   32.3740   10.7840 C   0  0  0  0  0  0
   31.3740   33.4380   10.3640 O   0  0  0  0  0  0
   31.7520   31.9970   12.0620 N   0  0  0  0  0  0
   31.4780   32.7950   14.4050 C   0  0  1  0  0  0
   31.7720   31.5180   14.9670 O   0  0  0  0  0  0
   32.8010   33.4970   14.2870 C   0  0  0  0  0  0
   32.8490   34.9690   13.9220 C   0  0  2  0  0  0
   34.0810   35.7040   14.4990 C   0  0  0  0  0  0
   35.4800   35.0900   14.3640 C   0  0  0  0  0  0
   35.7850   34.9700   12.8550 C   0  0  0  0  0  0
   36.4740   36.0300   14.9950 C   0  0  0  0  0  0
   31.6080   35.6450   14.3040 N   0  0  0  0  0  0
   31.2080   36.7690   13.7090 C   0  0  0  0  0  0
   31.3480   36.9550   12.4870 O   0  0  0  0  0  0
   30.8170   32.5980   12.9980 C   0  0  2  0  0  0
   29.5810   31.6840   13.1110 C   0  0  0  0  0  0
   28.9220   31.3680   11.7820 C   0  0  0  0  0  0
   28.1970   32.3300   11.1050 C   0  0  0  0  0  0
   27.5980   32.0270    9.8720 C   0  0  0  0  0  0
   27.7320   30.7570    9.3070 C   0  0  0  0  0  0
   28.4590   29.7790    9.9750 C   0  0  0  0  0  0
   29.0460   30.0930   11.2140 C   0  0  0  0  0  0
   37.7844   29.9368    9.2057 H   0  0  0  0  0  0
   37.2133   27.7751    8.1629 H   0  0  0  0  0  0
   34.8908   26.9408    8.2498 H   0  0  0  0  0  0
   35.2158   32.1155   10.9379 H   0  0  0  0  0  0
   36.4616   32.3445    9.6643 H   0  0  0  0  0  0
   36.9051   31.5777   11.2269 H   0  0  0  0  0  0
   32.6502   27.1628    8.8875 H   0  0  0  0  0  0
   32.0529   28.8568    8.9051 H   0  0  0  0  0  0
   32.3991   28.0105   10.4512 H   0  0  0  0  0  0
   31.6591   37.2911   16.3182 H   0  0  0  0  0  0
   30.4769   38.9956   17.7036 H   0  0  0  0  0  0
   28.0983   40.0984   14.2919 H   0  0  0  0  0  0
   28.7607   40.8513   17.9660 H   0  0  0  0  0  0
   27.7258   41.3385   16.4424 H   0  0  0  0  0  0
   29.2768   38.4200   12.9169 H   0  0  0  0  0  0
   33.2718   32.0286    9.1933 H   0  0  0  0  0  0
   31.8867   30.8851    9.2186 H   0  0  0  0  0  0
   32.4222   31.1909   12.3952 H   0  0  0  0  0  0
   30.8044   33.3389   15.0835 H   0  0  0  0  0  0
   30.9601   30.8006   15.1570 H   0  0  0  0  0  0
   33.3311   33.4445   15.2494 H   0  0  0  0  0  0
   33.4062   33.0102   13.5080 H   0  0  0  0  0  0
   32.8963   35.0196   12.8242 H   0  0  0  0  0  0
   34.1783   36.6890   14.0191 H   0  0  0  0  0  0
   33.9547   35.8355   15.5838 H   0  0  0  0  0  0
   35.5480   34.1152   14.8691 H   0  0  0  0  0  0
   35.0623   34.2846   12.3882 H   0  0  0  0  0  0
   36.8036   34.5785   12.7168 H   0  0  0  0  0  0
   35.7064   35.9615   12.3851 H   0  0  0  0  0  0
   36.2620   36.1198   16.0706 H   0  0  0  0  0  0
   36.3942   37.0197   14.5216 H   0  0  0  0  0  0
   37.4915   35.6367   14.8534 H   0  0  0  0  0  0
   30.9770   35.2267   15.1021 H   0  0  0  0  0  0
   30.5505   33.5737   12.5657 H   0  0  0  0  0  0
   29.8742   30.7251   13.5634 H   0  0  0  0  0  0
   28.8220   32.1700   13.7416 H   0  0  0  0  0  0
   28.0898   33.3280   11.5300 H   0  0  0  0  0  0
   27.0221   32.7913    9.3501 H   0  0  0  0  0  0
   27.2683   30.5337    8.3461 H   0  0  0  0  0  0
   28.5726   28.7837    9.5453 H   0  0  0  0  0  0
   29.6106   29.3265   11.7449 H   0  0  0  0  0  0
  1  8  1  0  0  0
  1  6  2  0  0  0
  1  2  1  0  0  0
  2 16  1  0  0  0
  2  3  2  0  0  0
  3  7  1  0  0  0
  3  4  1  0  0  0
  4  5  2  0  0  0
  4 40  1  0  0  0
  5  6  1  0  0  0
  5 41  1  0  0  0
  6 42  1  0  0  0
  7 43  1  0  0  0
  7 44  1  0  0  0
  7 45  1  0  0  0
  8 46  1  0  0  0
  8 47  1  0  0  0
  8 48  1  0  0  0
  9 30  1  0  0  0
  9 15  2  0  0  0
  9 10  1  0  0  0
 10 11  2  0  0  0
 10 49  1  0  0  0
 11 12  1  0  0  0
 11 50  1  0  0  0
 12 14  1  0  0  0
 12 13  2  0  0  0
 13 15  1  0  0  0
 13 51  1  0  0  0
 14 52  1  0  0  0
 14 53  1  0  0  0
 15 54  1  0  0  0
 16 17  1  0  0  0
 17 18  1  0  0  0
 17 55  1  0  0  0
 17 56  1  0  0  0
 18 20  1  0  0  0
 18 19  2  0  0  0
 20 32  1  0  0  0
 20 57  1  0  0  0
 21 32  1  0  0  0
 21 23  1  0  0  0
 21 22  1  0  0  0
 21 58  1  0  0  0
 22 59  1  0  0  0
 23 24  1  0  0  0
 23 60  1  0  0  0
 23 61  1  0  0  0
 24 29  1  0  0  0
 24 25  1  0  0  0
 24 62  1  0  0  0
 25 26  1  0  0  0
 25 63  1  0  0  0
 25 64  1  0  0  0
 26 28  1  0  0  0
 26 27  1  0  0  0
 26 65  1  0  0  0
 27 66  1  0  0  0
 27 67  1  0  0  0
 27 68  1  0  0  0
 28 69  1  0  0  0
 28 70  1  0  0  0
 28 71  1  0  0  0
 29 30  1  0  0  0
 29 72  1  0  0  0
 30 31  2  0  0  0
 32 33  1  0  0  0
 32 73  1  0  0  0
 33 34  1  0  0  0
 33 74  1  0  0  0
 33 75  1  0  0  0
 34 39  2  0  0  0
 34 35  1  0  0  0
 35 36  2  0  0  0
 35 76  1  0  0  0
 36 37  1  0  0  0
 36 77  1  0  0  0
 37 38  2  0  0  0
 37 78  1  0  0  0
 38 39  1  0  0  0
 38 79  1  0  0  0
 39 80  1  0  0  0
M  END
> <s_m_source_file>
../1lf2_ligand.sdf

> <i_m_source_file_index>
1

> <s_epik_input>
W2NIXTFbY0hdW2NIXWMoW0NIM10pYyhjMVtDSDNdKU9bQ0gyXUMoPU8pW05IXVtDQEBIXShbQ0gyXWMyW2NIXVtjSF1bY0hdW2NIXVtjSF0yKVtDQEBIXShbT0hdKVtDSDJdW0NASF0oW0NIMl1bQ0hdKFtDSDNdKVtDSDNdKVtOSF1DKD1PKWMzW2NIXVtjSF1jKFtOSDJdKVtjSF1bY0hdMw==

> <s_epik_cmdline>
J2VwaWtfYXBwJywgJy1pbWFlJywgJ2xpZ2FuZF9wcm8ubWFlJywgJy1vbWFlJywgJ2xpZ2FuZF9wcmVwLm1hZScsICctbXMnLCAnMScsICctcGgnLCAnNycsICctcGh0JywgJzAuNScsICctbnQn

> <r_lp_tautomer_probability>
1

> <r_epik_Ionization_Penalty>
  0.0003

> <r_epik_Ionization_Penalty_Charging>
  0.0000

> <r_epik_Ionization_Penalty_Neutral>
  0.0003

> <r_epik_State_Penalty>
 -0.0000

> <r_epik_Charging_Adjusted_Penalty>
0

> <i_epik_Tot_Q>
0

> <i_epik_Tot_abs_Q>
0

$$$$
