1lf3_ligand
                    3D
 Schrodinger Suite 2020-3.
104110  0  0  1  0            999 V2000
   16.4630    3.5060   26.2240 C   0  0  2  0  0  0
   16.6440    2.1420   25.5490 C   0  0  0  0  0  0
   17.4620    1.1940   26.3370 C   0  0  0  0  0  0
   18.7850    1.5160   26.7320 C   0  0  0  0  0  0
   16.9270   -0.0350   26.7130 C   0  0  0  0  0  0
   19.5410    0.6120   27.4770 C   0  0  0  0  0  0
   17.7030   -0.9480   27.4690 C   0  0  0  0  0  0
   19.0050   -0.6170   27.8480 C   0  0  0  0  0  0
   15.8470    3.2740   27.4810 N   0  0  0  0  0  0
   15.5730    4.4430   25.3760 C   0  0  2  0  0  0
   15.1520    5.6260   26.2430 C   0  0  0  0  0  0
   15.2530    6.7580   25.3480 N   0  0  0  0  0  0
   14.3600    3.7610   24.9360 O   0  0  0  0  0  0
   13.9810    7.1610   24.7140 C   0  0  0  0  0  0
   12.8890    7.8540   25.4830 C   0  0  0  0  0  0
   16.5070    7.3490   25.2200 C   0  0  0  0  0  0
   16.6400    8.5230   24.2760 C   0  0  0  0  0  0
   17.5090    6.9460   25.8470 O   0  0  0  0  0  0
   18.0540    8.8160   23.8970 C   0  0  0  0  0  0
   16.3630    3.5190   28.6840 C   0  0  0  0  0  0
   17.5010    4.0060   28.9210 O   0  0  0  0  0  0
   18.0360   14.0790   20.7740 C   0  0  0  0  0  0
   18.1650   12.6610   20.6020 C   0  0  0  0  0  0
   18.0910   11.8500   21.7750 C   0  0  0  0  0  0
   17.9010   12.4110   23.0450 C   0  0  0  0  0  0
   17.7690   13.8100   23.2520 C   0  0  0  0  0  0
   17.8360   14.6480   22.1080 C   0  0  0  0  0  0
   18.1660   10.4640   21.9540 C   0  0  0  0  0  0
   18.0300   10.1560   23.2990 N   0  0  0  0  0  0
   17.8710   11.3790   23.9420 C   0  0  0  0  0  0
   17.7190   11.5270   25.1660 O   0  0  0  0  0  0
   18.3340    9.6180   21.0330 O   0  0  0  0  0  0
   13.5390    8.4290   27.8240 C   0  0  0  0  0  0
   14.0010    9.3490   28.8450 C   0  0  0  0  0  0
   14.2970   10.6790   28.4880 C   0  0  0  0  0  0
   14.1440   11.1080   27.1360 C   0  0  0  0  0  0
   13.6790   10.1710   26.1190 C   0  0  0  0  0  0
   13.3760    8.8300   26.4710 C   0  0  0  0  0  0
   14.7260   11.6960   29.2300 O   0  0  0  0  0  0
   14.8470   12.7640   28.3590 C   0  0  0  0  0  0
   14.4950   12.4250   27.0710 O   0  0  0  0  0  0
   13.7290    2.3970   31.7360 C   0  0  0  0  0  0
   14.5570    1.4270   31.0820 C   0  0  0  0  0  0
   15.4230    1.8130   30.0800 C   0  0  0  0  0  0
   15.4930    3.1690   29.6790 C   0  0  0  0  0  0
   14.6670    4.1540   30.2950 C   0  0  0  0  0  0
   13.7780    3.7790   31.3220 C   0  0  0  0  0  0
   13.1010    1.9350   32.8860 O   0  0  0  0  0  0
   14.5910    0.0730   31.3870 O   0  0  0  0  0  0
   13.0330    4.8670   31.8280 O   0  0  0  0  0  0
   13.6030    5.9800   32.4780 C   0  0  0  0  0  0
   14.2230   -0.9430   30.4990 C   0  0  0  0  0  0
   14.0770    2.1030   34.0090 C   0  0  0  0  0  0
   18.5030    2.5280   34.4360 C   0  0  0  0  0  0
   17.8860    1.2940   34.6080 C   0  0  0  0  0  0
   16.4830    1.1740   34.4730 C   0  0  0  0  0  0
   15.6580    2.2760   34.1650 C   0  0  0  0  0  0
   16.3070    3.5460   33.9900 C   0  0  0  0  0  0
   17.7210    3.6710   34.1240 C   0  0  0  0  0  0
   17.4324    3.9881   26.4186 H   0  0  0  0  0  0
   15.6597    1.6760   25.3943 H   0  0  0  0  0  0
   17.1426    2.2768   24.5778 H   0  0  0  0  0  0
   19.2144    2.4777   26.4511 H   0  0  0  0  0  0
   15.9085   -0.2955   26.4250 H   0  0  0  0  0  0
   20.5585    0.8698   27.7707 H   0  0  0  0  0  0
   17.2821   -1.9117   27.7555 H   0  0  0  0  0  0
   19.5996   -1.3190   28.4326 H   0  0  0  0  0  0
   14.8342    2.8472   27.5267 H   0  0  0  0  0  0
   16.1047    4.7546   24.4648 H   0  0  0  0  0  0
   14.1246    5.4692   26.6034 H   0  0  0  0  0  0
   15.8331    5.7114   27.1026 H   0  0  0  0  0  0
   14.4317    2.8709   24.2937 H   0  0  0  0  0  0
   14.1869    7.8645   23.8938 H   0  0  0  0  0  0
   13.4722    6.2712   24.3148 H   0  0  0  0  0  0
   12.2373    8.3988   24.7841 H   0  0  0  0  0  0
   12.2958    7.1072   26.0311 H   0  0  0  0  0  0
   16.0846    8.3136   23.3499 H   0  0  0  0  0  0
   16.2303    9.4255   24.7532 H   0  0  0  0  0  0
   18.6877    8.7884   24.7957 H   0  0  0  0  0  0
   18.4048    8.0613   23.1777 H   0  0  0  0  0  0
   18.0872   14.7369   19.9064 H   0  0  0  0  0  0
   18.3135   12.2204   19.6162 H   0  0  0  0  0  0
   17.6221   14.2238   24.2496 H   0  0  0  0  0  0
   17.7374   15.7273   22.2242 H   0  0  0  0  0  0
   13.3102    7.4003   28.1026 H   0  0  0  0  0  0
   14.1178    9.0155   29.8761 H   0  0  0  0  0  0
   13.5641   10.5016   25.0867 H   0  0  0  0  0  0
   14.1906   13.5826   28.6892 H   0  0  0  0  0  0
   15.8904   13.1122   28.3485 H   0  0  0  0  0  0
   16.0564    1.0705   29.5947 H   0  0  0  0  0  0
   14.7229    5.1938   29.9727 H   0  0  0  0  0  0
   12.8071    6.6801   32.7721 H   0  0  0  0  0  0
   14.3018    6.4852   31.7951 H   0  0  0  0  0  0
   14.1449    5.6434   33.3741 H   0  0  0  0  0  0
   14.3429   -1.9201   30.9898 H   0  0  0  0  0  0
   14.8643   -0.8998   29.6064 H   0  0  0  0  0  0
   13.1723   -0.8080   30.2025 H   0  0  0  0  0  0
   13.8340    3.0160   34.5724 H   0  0  0  0  0  0
   14.0187    1.2324   34.6788 H   0  0  0  0  0  0
   19.5843    2.6176   34.5404 H   0  0  0  0  0  0
   18.4855    0.4158   34.8477 H   0  0  0  0  0  0
   16.0232    0.1955   34.6119 H   0  0  0  0  0  0
   15.7100    4.4262   33.7515 H   0  0  0  0  0  0
   18.1998    4.6406   33.9874 H   0  0  0  0  0  0
  1  2  1  0  0  0
  1  9  1  0  0  0
  1 10  1  0  0  0
  1 60  1  0  0  0
  2  3  1  0  0  0
  2 61  1  0  0  0
  2 62  1  0  0  0
  3  4  2  0  0  0
  3  5  1  0  0  0
  4  6  1  0  0  0
  4 63  1  0  0  0
  5  7  2  0  0  0
  5 64  1  0  0  0
  6  8  2  0  0  0
  6 65  1  0  0  0
  7  8  1  0  0  0
  7 66  1  0  0  0
  8 67  1  0  0  0
  9 20  1  0  0  0
  9 68  1  0  0  0
 10 11  1  0  0  0
 10 13  1  0  0  0
 10 69  1  0  0  0
 11 12  1  0  0  0
 11 70  1  0  0  0
 11 71  1  0  0  0
 12 14  1  0  0  0
 12 16  1  0  0  0
 13 72  1  0  0  0
 14 15  1  0  0  0
 14 73  1  0  0  0
 14 74  1  0  0  0
 15 38  1  0  0  0
 15 75  1  0  0  0
 15 76  1  0  0  0
 16 17  1  0  0  0
 16 18  2  0  0  0
 17 19  1  0  0  0
 17 77  1  0  0  0
 17 78  1  0  0  0
 19 29  1  0  0  0
 19 79  1  0  0  0
 19 80  1  0  0  0
 20 21  2  0  0  0
 20 45  1  0  0  0
 22 23  2  0  0  0
 22 27  1  0  0  0
 22 81  1  0  0  0
 23 24  1  0  0  0
 23 82  1  0  0  0
 24 25  2  0  0  0
 24 28  1  0  0  0
 25 26  1  0  0  0
 25 30  1  0  0  0
 26 27  2  0  0  0
 26 83  1  0  0  0
 27 84  1  0  0  0
 28 29  1  0  0  0
 28 32  2  0  0  0
 29 30  1  0  0  0
 30 31  2  0  0  0
 33 34  2  0  0  0
 33 38  1  0  0  0
 33 85  1  0  0  0
 34 35  1  0  0  0
 34 86  1  0  0  0
 35 36  2  0  0  0
 35 39  1  0  0  0
 36 37  1  0  0  0
 36 41  1  0  0  0
 37 38  2  0  0  0
 37 87  1  0  0  0
 39 40  1  0  0  0
 40 41  1  0  0  0
 40 88  1  0  0  0
 40 89  1  0  0  0
 42 43  2  0  0  0
 42 47  1  0  0  0
 42 48  1  0  0  0
 43 44  1  0  0  0
 43 49  1  0  0  0
 44 45  2  0  0  0
 44 90  1  0  0  0
 45 46  1  0  0  0
 46 47  2  0  0  0
 46 91  1  0  0  0
 47 50  1  0  0  0
 48 53  1  0  0  0
 49 52  1  0  0  0
 50 51  1  0  0  0
 51 92  1  0  0  0
 51 93  1  0  0  0
 51 94  1  0  0  0
 52 95  1  0  0  0
 52 96  1  0  0  0
 52 97  1  0  0  0
 53 57  1  0  0  0
 53 98  1  0  0  0
 53 99  1  0  0  0
 54 55  2  0  0  0
 54 59  1  0  0  0
 54100  1  0  0  0
 55 56  1  0  0  0
 55101  1  0  0  0
 56 57  2  0  0  0
 56102  1  0  0  0
 57 58  1  0  0  0
 58 59  2  0  0  0
 58103  1  0  0  0
 59104  1  0  0  0
M  END
> <s_m_source_file>
../1lf3_ligand.sdf

> <i_m_source_file_index>
1

> <s_epik_input>
W2NIXTFbY0hdW2NIXVtjSF1jKGMxMilDKD1PKU4oQzI9TylbQ0gyXVtDSDJdQyg9TylOKFtDSDJdW0NIMl1jKFtjSF1bY0hdMylbY0hdYyhjMzQpT1tDSDJdTzQpW0NIMl1bQ0BIXShbT0hdKVtDQEhdKFtDSDJdYzVbY0hdW2NIXVtjSF1bY0hdW2NIXTUpW05IXUMoPU8pYyhbY0hdYzZPW0NIM10pW2NIXWMoT1tDSDNdKWM2T1tDSDJdYzdbY0hdW2NIXVtjSF1bY0hdW2NIXTc=

> <s_epik_cmdline>
J2VwaWtfYXBwJywgJy1pbWFlJywgJ2xpZ2FuZF9wcm8ubWFlJywgJy1vbWFlJywgJ2xpZ2FuZF9wcmVwLm1hZScsICctbXMnLCAnMScsICctcGgnLCAnNycsICctcGh0JywgJzAuNScsICctbnQn

> <r_lp_tautomer_probability>
1

> <r_epik_Ionization_Penalty>
  0.0000

> <r_epik_Ionization_Penalty_Charging>
  0.0000

> <r_epik_Ionization_Penalty_Neutral>
  0.0000

> <r_epik_State_Penalty>
 -0.0000

> <r_epik_Charging_Adjusted_Penalty>
0

> <i_epik_Tot_Q>
0

> <i_epik_Tot_abs_Q>
0

> <s_epik_Chemistry_Notes>
This compound contains an acetal/aminal-like group ( X-CH(R)-Y where X, Y are N, S, or O) that may be acid/base labile, releasing an aldehyde.

$$$$
