1lf8_ligand
                    3D
 Schrodinger Suite 2020-3.
131131  0  0  1  0            999 V2000
   40.9480   18.0020   59.4400 N   0  3  0  0  0  0
   39.6150   17.4980   59.8430 C   0  0  1  0  0  0
   38.5530   18.5850   60.0220 C   0  0  0  0  0  0
   37.2580   18.0100   59.9530 O   0  0  0  0  0  0
   39.1960   16.2600   59.0730 C   0  0  0  0  0  0
   38.6130   15.3280   59.6150 O   0  0  0  0  0  0
   36.0470   18.8570   59.6650 P   0  0  0  0  0  0
   34.9210   18.4280   60.5400 O   0  5  0  0  0  0
   35.6540   18.6850   58.2410 O   0  0  0  0  0  0
   36.3600   20.2880   59.9280 O   0  0  0  0  0  0
   39.5640   16.2330   57.7980 N   0  0  0  0  0  0
   39.2320   15.1340   56.9080 C   0  0  2  0  0  0
   40.2410   13.9880   57.0000 C   0  0  0  0  0  0
   41.3270   14.1460   57.5510 O   0  0  0  0  0  0
   39.1630   15.6740   55.4730 C   0  0  0  0  0  0
   38.7480   14.6240   54.4630 C   0  0  0  0  0  0
   37.8610   13.8090   54.7840 O   0  5  0  0  0  0
   39.3030   14.6300   53.3470 O   0  0  0  0  0  0
   39.8530   12.8380   56.4550 N   0  0  0  0  0  0
   40.6790   11.6340   56.4130 C   0  0  2  0  0  0
   41.6830   11.7720   55.2730 C   0  0  0  0  0  0
   41.6810   12.7680   54.5520 O   0  0  0  0  0  0
   39.8060   10.4100   56.1310 C   0  0  0  0  0  0
   38.8970    9.9840   57.2650 C   0  0  0  0  0  0
   37.8420    8.9830   56.8160 C   0  0  0  0  0  0
   38.1490    8.1060   55.9750 O   0  5  0  0  0  0
   36.6990    9.0740   57.3100 O   0  0  0  0  0  0
   42.5370   10.7650   55.1160 N   0  0  0  0  0  0
   43.5280   10.7460   54.0440 C   0  0  2  0  0  0
   42.9340    9.9120   52.9170 C   0  0  0  0  0  0
   42.0740    9.0620   53.1580 O   0  0  0  0  0  0
   44.8310   10.0980   54.5250 C   0  0  0  0  0  0
   45.5650   10.9480   55.5400 C   0  0  0  0  0  0
   45.9070   12.1010   55.2040 O   0  0  0  0  0  0
   45.8040   10.4650   56.6680 O   0  0  0  0  0  0
   43.3910   10.1520   51.6920 N   0  0  0  0  0  0
   42.8860    9.4100   50.5470 C   0  0  2  0  0  0
   43.1190    7.9180   50.7270 C   0  0  0  0  0  0
   44.2380    7.4900   51.0080 O   0  0  0  0  0  0
   43.5660    9.8800   49.2590 C   0  0  0  0  0  0
   43.1610    9.1130   47.9960 C   0  0  0  0  0  0
   41.6540    9.1860   47.8210 C   0  0  0  0  0  0
   43.8730    9.6890   46.7850 C   0  0  0  0  0  0
   42.0580    7.1330   50.5730 N   0  0  0  0  0  0
   42.1510    5.6840   50.7100 C   0  0  2  0  0  0
   43.0990    5.1470   49.6490 C   0  0  0  0  0  0
   43.1720    5.6850   48.5450 O   0  0  0  0  0  0
   40.7800    5.0420   50.5150 C   0  0  0  0  0  0
   40.7190    3.5360   50.7670 C   0  0  0  0  0  0
   40.2310    3.2910   52.1880 C   0  0  0  0  0  0
   39.7860    2.8780   49.7680 C   0  0  0  0  0  0
   43.8230    4.0860   49.9800 N   0  0  0  0  0  0
   44.7540    3.4920   49.0330 C   0  0  2  0  0  0
   44.5050    1.9990   48.8380 C   0  0  0  0  0  0
   44.4460    1.2280   49.7970 O   0  0  0  0  0  0
   46.1950    3.7640   49.4790 C   0  0  0  0  0  0
   46.6300    5.1810   49.2540 C   0  0  0  0  0  0
   47.7890    5.7020   49.7890 N   0  0  0  0  0  0
   46.0620    6.1850   48.5410 C   0  0  0  0  0  0
   47.9160    6.9640   49.4160 C   0  0  0  0  0  0
   46.8810    7.2820   48.6580 N   0  0  0  0  0  0
   44.3440    1.6150   47.5750 N   0  0  0  0  0  0
   44.0760    0.2350   47.1860 C   0  0  2  0  0  0
   45.3690   -0.5400   46.9630 C   0  0  0  0  0  0
   45.6600   -0.9730   45.8240 O   0  5  0  0  0  0
   43.2550    0.2010   45.8890 C   0  0  2  0  0  0
   42.0770    1.1690   46.0080 C   0  0  0  0  0  0
   42.7580   -1.2090   45.6170 C   0  0  0  0  0  0
   41.4740    1.5490   44.6850 C   0  0  0  0  0  0
   46.1060   -0.7060   47.9580 O   0  0  0  0  0  0
   41.1956   18.8965   60.0304 H   0  0  0  0  0  0
   40.9344   18.2604   58.3709 H   0  0  0  0  0  0
   41.7040   17.2234   59.6195 H   0  0  0  0  0  0
   39.7678   17.1335   60.8695 H   0  0  0  0  0  0
   38.6841   19.0679   61.0016 H   0  0  0  0  0  0
   38.6595   19.3364   59.2257 H   0  0  0  0  0  0
   36.6715   20.6071   60.9336 H   0  0  0  0  0  0
   40.1435   17.0892   57.4223 H   0  0  0  0  0  0
   38.2586   14.7567   57.2547 H   0  0  0  0  0  0
   38.4293   16.4921   55.4240 H   0  0  0  0  0  0
   40.1526   16.0506   55.1749 H   0  0  0  0  0  0
   38.8433   12.8278   56.0185 H   0  0  0  0  0  0
   41.1723   11.5502   57.3926 H   0  0  0  0  0  0
   39.1531   10.6158   55.2700 H   0  0  0  0  0  0
   40.4481    9.5457   55.9059 H   0  0  0  0  0  0
   39.4964    9.5137   58.0585 H   0  0  0  0  0  0
   38.3789   10.8655   57.6706 H   0  0  0  0  0  0
   42.4797    9.9276   55.8270 H   0  0  0  0  0  0
   43.7282   11.7845   53.7416 H   0  0  0  0  0  0
   44.6069    9.1292   54.9954 H   0  0  0  0  0  0
   45.5017    9.9426   53.6671 H   0  0  0  0  0  0
   46.3361   11.0643   57.4214 H   0  0  0  0  0  0
   44.1617   10.9240   51.5506 H   0  0  0  0  0  0
   41.8072    9.6230   50.5189 H   0  0  0  0  0  0
   43.3192   10.9367   49.0786 H   0  0  0  0  0  0
   44.6559    9.7699   49.3585 H   0  0  0  0  0  0
   43.4521    8.0562   48.0878 H   0  0  0  0  0  0
   41.1609    8.7638   48.7090 H   0  0  0  0  0  0
   41.3601    8.6113   46.9303 H   0  0  0  0  0  0
   41.3497   10.2358   47.6969 H   0  0  0  0  0  0
   44.9609    9.6253   46.9346 H   0  0  0  0  0  0
   43.5818   10.7417   46.6548 H   0  0  0  0  0  0
   43.5921    9.1173   45.8882 H   0  0  0  0  0  0
   41.0916    7.6022   50.3364 H   0  0  0  0  0  0
   42.5269    5.4873   51.7249 H   0  0  0  0  0  0
   40.0580    5.5023   51.2056 H   0  0  0  0  0  0
   40.4463    5.1976   49.4784 H   0  0  0  0  0  0
   41.7181    3.0930   50.6421 H   0  0  0  0  0  0
   40.9170    3.7737   52.8996 H   0  0  0  0  0  0
   40.2010    2.2090   52.3839 H   0  0  0  0  0  0
   39.2223    3.7133   52.3072 H   0  0  0  0  0  0
   40.1517    3.0638   48.7473 H   0  0  0  0  0  0
   38.7756    3.2987   49.8778 H   0  0  0  0  0  0
   39.7543    1.7944   49.9546 H   0  0  0  0  0  0
   43.7122    3.6553   50.9861 H   0  0  0  0  0  0
   44.5455    3.9928   48.0761 H   0  0  0  0  0  0
   46.8916    3.0391   49.9253 H   0  0  0  0  0  0
   45.1399    6.2481   47.9445 H   0  0  0  0  0  0
   48.7354    7.6295   49.6876 H   0  0  0  0  0  0
   44.4220    2.3979   46.8062 H   0  0  0  0  0  0
   43.5212   -0.1931   48.0339 H   0  0  0  0  0  0
   43.8877    0.5033   45.0415 H   0  0  0  0  0  0
   41.2815    0.7061   46.6105 H   0  0  0  0  0  0
   42.4125    2.0968   46.4944 H   0  0  0  0  0  0
   43.6171   -1.8910   45.5345 H   0  0  0  0  0  0
   42.1880   -1.2217   44.6763 H   0  0  0  0  0  0
   42.1092   -1.5349   46.4434 H   0  0  0  0  0  0
   40.6370    2.2435   44.8495 H   0  0  0  0  0  0
   41.1063    0.6455   44.1766 H   0  0  0  0  0  0
   42.2374    2.0362   44.0605 H   0  0  0  0  0  0
   48.4362    5.0725   50.4174 H   0  0  0  0  0  0
  1  2  1  0  0  0
  1 71  1  0  0  0
  1 72  1  0  0  0
  1 73  1  0  0  0
  2  3  1  0  0  0
  2  5  1  0  0  0
  2 74  1  0  0  0
  3  4  1  0  0  0
  3 75  1  0  0  0
  3 76  1  0  0  0
  4  7  1  0  0  0
  5  6  2  0  0  0
  5 11  1  0  0  0
  7  8  1  0  0  0
  7  9  2  0  0  0
  7 10  1  0  0  0
 10 77  1  0  0  0
 11 12  1  0  0  0
 11 78  1  0  0  0
 12 13  1  0  0  0
 12 15  1  0  0  0
 12 79  1  0  0  0
 13 14  2  0  0  0
 13 19  1  0  0  0
 15 16  1  0  0  0
 15 80  1  0  0  0
 15 81  1  0  0  0
 16 17  1  0  0  0
 16 18  2  0  0  0
 19 20  1  0  0  0
 19 82  1  0  0  0
 20 21  1  0  0  0
 20 23  1  0  0  0
 20 83  1  0  0  0
 21 22  2  0  0  0
 21 28  1  0  0  0
 23 24  1  0  0  0
 23 84  1  0  0  0
 23 85  1  0  0  0
 24 25  1  0  0  0
 24 86  1  0  0  0
 24 87  1  0  0  0
 25 26  1  0  0  0
 25 27  2  0  0  0
 28 29  1  0  0  0
 28 88  1  0  0  0
 29 30  1  0  0  0
 29 32  1  0  0  0
 29 89  1  0  0  0
 30 31  2  0  0  0
 30 36  1  0  0  0
 32 33  1  0  0  0
 32 90  1  0  0  0
 32 91  1  0  0  0
 33 34  2  0  0  0
 33 35  1  0  0  0
 35 92  1  0  0  0
 36 37  1  0  0  0
 36 93  1  0  0  0
 37 38  1  0  0  0
 37 40  1  0  0  0
 37 94  1  0  0  0
 38 39  2  0  0  0
 38 44  1  0  0  0
 40 41  1  0  0  0
 40 95  1  0  0  0
 40 96  1  0  0  0
 41 42  1  0  0  0
 41 43  1  0  0  0
 41 97  1  0  0  0
 42 98  1  0  0  0
 42 99  1  0  0  0
 42100  1  0  0  0
 43101  1  0  0  0
 43102  1  0  0  0
 43103  1  0  0  0
 44 45  1  0  0  0
 44104  1  0  0  0
 45 46  1  0  0  0
 45 48  1  0  0  0
 45105  1  0  0  0
 46 47  2  0  0  0
 46 52  1  0  0  0
 48 49  1  0  0  0
 48106  1  0  0  0
 48107  1  0  0  0
 49 50  1  0  0  0
 49 51  1  0  0  0
 49108  1  0  0  0
 50109  1  0  0  0
 50110  1  0  0  0
 50111  1  0  0  0
 51112  1  0  0  0
 51113  1  0  0  0
 51114  1  0  0  0
 52 53  1  0  0  0
 52115  1  0  0  0
 53 54  1  0  0  0
 53 56  1  0  0  0
 53116  1  0  0  0
 54 55  2  0  0  0
 54 62  1  0  0  0
 56 57  2  0  0  0
 56117  1  0  0  0
 57 58  1  0  0  0
 57 59  1  0  0  0
 58 60  1  0  0  0
 58131  1  0  0  0
 59 61  2  0  0  0
 59118  1  0  0  0
 60 61  1  0  0  0
 60119  1  0  0  0
 62 63  1  0  0  0
 62120  1  0  0  0
 63 64  1  0  0  0
 63 66  1  0  0  0
 63121  1  0  0  0
 64 65  1  0  0  0
 64 70  2  0  0  0
 66 67  1  0  0  0
 66 68  1  0  0  0
 66122  1  0  0  0
 67 69  1  0  0  0
 67123  1  0  0  0
 67124  1  0  0  0
 68125  1  0  0  0
 68126  1  0  0  0
 68127  1  0  0  0
 69128  1  0  0  0
 69129  1  0  0  0
 69130  1  0  0  0
M  CHG  5   1   1   8  -1  17  -1  26  -1  65  -1
M  END
> <s_m_source_file>
../1lf8_ligand.sdf

> <i_m_source_file_index>
1

> <s_epik_input>
W09IXVAoPU8pKFtPSF0pT1tDSDJdW0NASF0oW05IMytdKUMoPU8pW05IXVtDQEBIXShbQ0gyXUMoPU8pW09IXSlDKD1PKVtOSF1bQ0BASF0oW0NIMl1bQ0gyXUMoPU8pW09IXSlDKD1PKVtOSF1bQ0BASF0oW0NIMl1DKD1PKVtPSF0pQyg9TylbTkhdW0NAQEhdKFtDSDJdW0NIXShbQ0gzXSlbQ0gzXSlDKD1PKVtOSF1bQ0BASF0oW0NIMl1bQ0hdKFtDSDNdKVtDSDNdKUMoPU8pW05IXVtDQEhdKEMoPU8pW05IXVtDQEhdKEMoPU8pW09IXSlbQ0BASF0oW0NIM10pW0NIMl1bQ0gzXSlbQ0gyXUMxPU5bQ0gyXU49W0NIXTE=

> <s_epik_cmdline>
J2VwaWtfYXBwJywgJy1pbWFlJywgJ2xpZ2FuZF9wcm8ubWFlJywgJy1vbWFlJywgJ2xpZ2FuZF9wcmVwLm1hZScsICctbXMnLCAnMScsICctcGgnLCAnNycsICctcGh0JywgJzAuNScsICctbnQn

> <r_epik_Ionization_Penalty>
  4.8654

> <r_epik_Ionization_Penalty_Charging>
  0.5138

> <r_epik_Ionization_Penalty_Neutral>
  4.3516

> <r_epik_State_Penalty>
  0.3210

> <r_epik_Charging_Adjusted_Penalty>
0.834878654570161

> <i_epik_Tot_Q>
-3

> <i_epik_Tot_abs_Q>
5

> <s_epik_Chemistry_Notes>
This compound has an imine and may undergo hydrolysis.

$$$$
