1lf9_ligand
                    3D
 Schrodinger Suite 2020-3.
 88 91  0  0  1  0            999 V2000
   38.9720   45.5220   32.6710 C   0  0  2  0  0  0
   40.3550   45.1300   33.2820 C   0  0  1  0  0  0
   40.9460   43.8720   32.5900 C   0  0  2  0  0  0
   39.9780   42.5970   32.6900 C   0  0  1  0  0  0
   38.4560   42.9740   32.7050 C   0  0  0  0  0  0
   37.4250   41.8500   32.7540 C   0  0  0  0  0  0
   38.0160   44.3090   32.6830 C   0  0  0  0  0  0
   41.1950   46.2590   33.1940 O   0  0  0  0  0  0
   42.1850   43.5350   33.1630 O   0  0  0  0  0  0
   40.3270   41.7550   31.6080 O   0  0  0  0  0  0
   37.1730   41.4940   34.1240 O   0  0  0  0  0  0
   37.3070   49.5950   29.4660 C   0  0  2  0  0  0
   38.4440   49.7870   30.4940 C   0  0  1  0  0  0
   39.2840   48.4810   30.6370 C   0  0  2  0  0  0
   38.3420   47.3430   31.0980 C   0  0  1  0  0  0
   37.2100   47.1560   29.9780 C   0  0  1  0  0  0
   36.1930   46.0830   30.3070 C   0  0  0  0  0  0
   39.1100   46.0700   31.2790 N   0  3  0  0  0  0
   39.2470   50.8950   30.0820 O   0  0  0  0  0  0
   40.3230   48.7140   31.5970 O   0  0  0  0  0  0
   36.4630   48.4450   29.8120 O   0  0  0  0  0  0
   36.3480   50.1490   24.2130 C   0  0  2  0  0  0
   35.3100   50.3710   25.3650 C   0  0  1  0  0  0
   36.1230   50.5710   26.6870 C   0  0  2  0  0  0
   36.9530   49.2520   26.9650 C   0  0  1  0  0  0
   37.9080   49.0570   25.8050 C   0  0  1  0  0  0
   38.7020   47.7490   25.9940 C   0  0  0  0  0  0
   34.5300   51.5160   25.0660 O   0  0  0  0  0  0
   35.2010   50.7860   27.7190 O   0  0  0  0  0  0
   37.8040   49.3280   28.1650 O   0  0  0  0  0  0
   37.1460   48.9750   24.5340 O   0  0  0  0  0  0
   39.8840   47.7890   25.2420 O   0  0  0  0  0  0
   38.8550   54.0150   21.1980 C   0  0  1  0  0  0
   37.3070   54.0130   21.3880 C   0  0  1  0  0  0
   36.9640   53.3950   22.7730 C   0  0  2  0  0  0
   37.4970   51.9410   22.8280 C   0  0  1  0  0  0
   39.0410   51.9720   22.6440 C   0  0  1  0  0  0
   39.6420   50.5430   22.6700 C   0  0  0  0  0  0
   39.4710   54.8610   22.1470 O   0  0  0  0  0  0
   36.8280   55.3550   21.2820 O   0  0  0  0  0  0
   35.5510   53.3920   22.9370 O   0  0  0  0  0  0
   37.1970   51.3120   24.1300 O   0  0  0  0  0  0
   39.3810   52.6240   21.3370 O   0  0  0  0  0  0
   38.9510   49.6520   21.7980 O   0  0  0  0  0  0
   38.5356   46.3385   33.2650 H   0  0  0  0  0  0
   40.3177   44.9258   34.3622 H   0  0  0  0  0  0
   41.1894   44.1413   31.5516 H   0  0  0  0  0  0
   40.1351   41.9762   33.5844 H   0  0  0  0  0  0
   36.4900   42.1894   32.2843 H   0  0  0  0  0  0
   37.8111   40.9744   32.2116 H   0  0  0  0  0  0
   36.9391   44.5331   32.6734 H   0  0  0  0  0  0
   40.8847   47.2121   33.6472 H   0  0  0  0  0  0
   42.9961   44.2773   33.1953 H   0  0  0  0  0  0
   41.3673   41.4190   31.4859 H   0  0  0  0  0  0
   36.4531   40.6970   34.3617 H   0  0  0  0  0  0
   36.7116   50.5183   29.4110 H   0  0  0  0  0  0
   38.0590   50.0837   31.4808 H   0  0  0  0  0  0
   39.8176   48.1930   29.7192 H   0  0  0  0  0  0
   37.9314   47.5717   32.0925 H   0  0  0  0  0  0
   37.6779   46.8577   29.0282 H   0  0  0  0  0  0
   36.7062   45.1187   30.4365 H   0  0  0  0  0  0
   35.4651   46.0037   29.4861 H   0  0  0  0  0  0
   35.6690   46.3474   31.2374 H   0  0  0  0  0  0
   40.1700   46.2759   31.0694 H   0  0  0  0  0  0
   38.7295   45.3338   30.5557 H   0  0  0  0  0  0
   38.7877   51.8843   29.9397 H   0  0  0  0  0  0
   41.0760   49.4946   31.4139 H   0  0  0  0  0  0
   35.9108   49.9975   23.2151 H   0  0  0  0  0  0
   34.5534   49.5777   25.4561 H   0  0  0  0  0  0
   36.7502   51.4747   26.6953 H   0  0  0  0  0  0
   36.2670   48.4085   27.1323 H   0  0  0  0  0  0
   38.5795   49.9264   25.7483 H   0  0  0  0  0  0
   38.9551   47.6241   27.0572 H   0  0  0  0  0  0
   38.0908   46.8975   25.6601 H   0  0  0  0  0  0
   33.8995   51.5320   24.1648 H   0  0  0  0  0  0
   34.5366   51.6621   27.6892 H   0  0  0  0  0  0
   40.5757   46.9339   25.2588 H   0  0  0  0  0  0
   39.1634   54.4305   20.2273 H   0  0  0  0  0  0
   36.7734   53.4794   20.5876 H   0  0  0  0  0  0
   37.3492   53.9968   23.6093 H   0  0  0  0  0  0
   36.9888   51.3291   22.0682 H   0  0  0  0  0  0
   39.4862   52.5685   23.4539 H   0  0  0  0  0  0
   40.6949   50.5822   22.3538 H   0  0  0  0  0  0
   39.5806   50.1379   23.6908 H   0  0  0  0  0  0
   39.2029   55.9270   22.1895 H   0  0  0  0  0  0
   36.9947   55.9271   20.3574 H   0  0  0  0  0  0
   34.9939   54.3404   22.9254 H   0  0  0  0  0  0
   39.2717   48.6029   21.7167 H   0  0  0  0  0  0
  1  2  1  0  0  0
  1  7  1  0  0  0
  1 18  1  0  0  0
  1 45  1  0  0  0
  2  3  1  0  0  0
  2  8  1  0  0  0
  2 46  1  0  0  0
  3  4  1  0  0  0
  3  9  1  0  0  0
  3 47  1  0  0  0
  4  5  1  0  0  0
  4 10  1  0  0  0
  4 48  1  0  0  0
  5  6  1  0  0  0
  5  7  2  0  0  0
  6 11  1  0  0  0
  6 49  1  0  0  0
  6 50  1  0  0  0
  7 51  1  0  0  0
  8 52  1  0  0  0
  9 53  1  0  0  0
 10 54  1  0  0  0
 11 55  1  0  0  0
 12 13  1  0  0  0
 12 21  1  0  0  0
 12 30  1  0  0  0
 12 56  1  0  0  0
 13 14  1  0  0  0
 13 19  1  0  0  0
 13 57  1  0  0  0
 14 15  1  0  0  0
 14 20  1  0  0  0
 14 58  1  0  0  0
 15 16  1  0  0  0
 15 18  1  0  0  0
 15 59  1  0  0  0
 16 17  1  0  0  0
 16 21  1  0  0  0
 16 60  1  0  0  0
 17 61  1  0  0  0
 17 62  1  0  0  0
 17 63  1  0  0  0
 18 64  1  0  0  0
 18 65  1  0  0  0
 19 66  1  0  0  0
 20 67  1  0  0  0
 22 23  1  0  0  0
 22 31  1  0  0  0
 22 42  1  0  0  0
 22 68  1  0  0  0
 23 24  1  0  0  0
 23 28  1  0  0  0
 23 69  1  0  0  0
 24 25  1  0  0  0
 24 29  1  0  0  0
 24 70  1  0  0  0
 25 26  1  0  0  0
 25 30  1  0  0  0
 25 71  1  0  0  0
 26 27  1  0  0  0
 26 31  1  0  0  0
 26 72  1  0  0  0
 27 32  1  0  0  0
 27 73  1  0  0  0
 27 74  1  0  0  0
 28 75  1  0  0  0
 29 76  1  0  0  0
 32 77  1  0  0  0
 33 34  1  0  0  0
 33 39  1  0  0  0
 33 43  1  0  0  0
 33 78  1  0  0  0
 34 35  1  0  0  0
 34 40  1  0  0  0
 34 79  1  0  0  0
 35 36  1  0  0  0
 35 41  1  0  0  0
 35 80  1  0  0  0
 36 37  1  0  0  0
 36 42  1  0  0  0
 36 81  1  0  0  0
 37 38  1  0  0  0
 37 43  1  0  0  0
 37 82  1  0  0  0
 38 44  1  0  0  0
 38 83  1  0  0  0
 38 84  1  0  0  0
 39 85  1  0  0  0
 40 86  1  0  0  0
 41 87  1  0  0  0
 44 88  1  0  0  0
M  CHG  1  18   1
M  END
> <s_m_source_file>
../1lf9_ligand.sdf

> <i_m_source_file_index>
1

> <s_epik_input>
W09IXVtDSDJdQyg9W0NIXTEpW0NAQEhdKFtPSF0pW0NASF0oW09IXSlbQ0BASF0oW09IXSlbQ0BIXTFbTkgyK11bQ0BIXShbQ0BIXShPMilbQ0gzXSlbQ0BIXShbT0hdKVtDQEBIXShbT0hdKVtDQEhdMk9bQ0BIXShbQ0BIXShPMylbQ0gyXVtPSF0pW0NASF0oW09IXSlbQ0BASF0oW09IXSlbQ0BIXTNPW0NASF0oW0NASF0oTzQpW0NIMl1bT0hdKVtDQEhdKFtPSF0pW0NAQEhdKFtPSF0pW0NASF00W09IXQ==

> <s_epik_cmdline>
J2VwaWtfYXBwJywgJy1pbWFlJywgJ2xpZ2FuZF9wcm8ubWFlJywgJy1vbWFlJywgJ2xpZ2FuZF9wcmVwLm1hZScsICctbXMnLCAnMScsICctcGgnLCAnNycsICctcGh0JywgJzAuNScsICctbnQn

> <r_epik_Ionization_Penalty>
  0.1167

> <r_epik_Ionization_Penalty_Charging>
  0.1167

> <r_epik_Ionization_Penalty_Neutral>
  0.0001

> <r_epik_State_Penalty>
  0.1063

> <r_epik_Charging_Adjusted_Penalty>
0.222957502643002

> <i_epik_Tot_Q>
1

> <i_epik_Tot_abs_Q>
1

> <s_epik_Chemistry_Notes>
This compound contains an acetal/aminal-like group ( X-CH(R)-Y where X, Y are N, S, or O) that may be acid/base labile, releasing an aldehyde.

$$$$
