1lfo_ligand
                    3D
 Schrodinger Suite 2020-3.
 53 52  0  0  1  0            999 V2000
   30.2200   39.6510   43.7100 C   0  0  0  0  0  0
   30.5060   40.7460   43.2560 O   0  5  0  0  0  0
   31.0960   38.9360   44.1640 O   0  0  0  0  0  0
   28.7630   39.1770   43.7320 C   0  0  0  0  0  0
   28.1480   38.9920   42.3500 C   0  0  0  0  0  0
   29.2010   38.9700   41.2540 C   0  0  0  0  0  0
   28.5690   38.8900   39.8780 C   0  0  0  0  0  0
   27.6650   37.6800   39.7460 C   0  0  0  0  0  0
   27.4130   37.3860   38.2860 C   0  0  0  0  0  0
   26.9850   35.9510   38.0790 C   0  0  0  0  0  0
   27.5080   35.5180   36.8110 C   0  0  0  0  0  0
   27.0810   34.3870   36.1540 C   0  0  0  0  0  0
   27.2160   33.0490   36.6760 C   0  0  0  0  0  0
   27.4250   32.1080   35.5040 C   0  0  0  0  0  0
   27.2770   30.6580   35.9160 C   0  0  0  0  0  0
   27.3270   29.7590   34.6940 C   0  0  0  0  0  0
   27.0860   28.3190   35.0790 C   0  0  0  0  0  0
   27.2450   27.4060   33.8770 C   0  0  0  0  0  0
   26.8250   25.9890   34.2170 C   0  0  0  0  0  0
   28.0140   25.2990   34.8940 C   0  0  0  0  0  0
   28.7008   38.2067   44.2465 H   0  0  0  0  0  0
   28.1454   39.9149   44.2650 H   0  0  0  0  0  0
   27.5995   38.0390   42.3173 H   0  0  0  0  0  0
   27.4553   39.8210   42.1429 H   0  0  0  0  0  0
   29.8047   39.8880   41.3071 H   0  0  0  0  0  0
   29.8528   38.0943   41.3892 H   0  0  0  0  0  0
   27.9674   39.7931   39.6978 H   0  0  0  0  0  0
   29.3585   38.8173   39.1155 H   0  0  0  0  0  0
   28.1472   36.8092   40.2143 H   0  0  0  0  0  0
   26.7067   37.8818   40.2469 H   0  0  0  0  0  0
   26.6164   38.0456   37.9113 H   0  0  0  0  0  0
   28.3348   37.5618   37.7121 H   0  0  0  0  0  0
   27.3865   35.3278   38.8916 H   0  0  0  0  0  0
   25.8866   35.8921   38.0803 H   0  0  0  0  0  0
   28.2928   36.1484   36.3675 H   0  0  0  0  0  0
   26.6025   34.4718   35.1672 H   0  0  0  0  0  0
   28.0793   33.0063   37.3564 H   0  0  0  0  0  0
   26.3027   32.7756   37.2248 H   0  0  0  0  0  0
   26.6806   32.3236   34.7234 H   0  0  0  0  0  0
   28.4364   32.2501   35.0954 H   0  0  0  0  0  0
   28.0959   30.3852   36.5978 H   0  0  0  0  0  0
   26.3128   30.5185   36.4268 H   0  0  0  0  0  0
   26.5516   30.0697   33.9783 H   0  0  0  0  0  0
   28.3165   29.8390   34.2202 H   0  0  0  0  0  0
   27.8109   28.0194   35.8502 H   0  0  0  0  0  0
   26.0650   28.2109   35.4738 H   0  0  0  0  0  0
   26.6171   27.7734   33.0519 H   0  0  0  0  0  0
   28.2983   27.3970   33.5602 H   0  0  0  0  0  0
   25.9609   26.0159   34.8972 H   0  0  0  0  0  0
   26.5491   25.4570   33.2946 H   0  0  0  0  0  0
   27.7393   24.2659   35.1534 H   0  0  0  0  0  0
   28.2840   25.8473   35.8086 H   0  0  0  0  0  0
   28.8722   25.2885   34.2059 H   0  0  0  0  0  0
  1  2  1  0  0  0
  1  3  2  0  0  0
  1  4  1  0  0  0
  4  5  1  0  0  0
  4 21  1  0  0  0
  4 22  1  0  0  0
  5  6  1  0  0  0
  5 23  1  0  0  0
  5 24  1  0  0  0
  6  7  1  0  0  0
  6 25  1  0  0  0
  6 26  1  0  0  0
  7  8  1  0  0  0
  7 27  1  0  0  0
  7 28  1  0  0  0
  8  9  1  0  0  0
  8 29  1  0  0  0
  8 30  1  0  0  0
  9 10  1  0  0  0
  9 31  1  0  0  0
  9 32  1  0  0  0
 10 11  1  0  0  0
 10 33  1  0  0  0
 10 34  1  0  0  0
 11 12  2  0  0  0
 11 35  1  0  0  0
 12 13  1  0  0  0
 12 36  1  0  0  0
 13 14  1  0  0  0
 13 37  1  0  0  0
 13 38  1  0  0  0
 14 15  1  0  0  0
 14 39  1  0  0  0
 14 40  1  0  0  0
 15 16  1  0  0  0
 15 41  1  0  0  0
 15 42  1  0  0  0
 16 17  1  0  0  0
 16 43  1  0  0  0
 16 44  1  0  0  0
 17 18  1  0  0  0
 17 45  1  0  0  0
 17 46  1  0  0  0
 18 19  1  0  0  0
 18 47  1  0  0  0
 18 48  1  0  0  0
 19 20  1  0  0  0
 19 49  1  0  0  0
 19 50  1  0  0  0
 20 51  1  0  0  0
 20 52  1  0  0  0
 20 53  1  0  0  0
M  CHG  1   2  -1
M  END
> <s_m_source_file>
../1lfo_ligand.sdf

> <i_m_source_file_index>
1

> <s_epik_input>
W09IXUMoPU8pW0NIMl1bQ0gyXVtDSDJdW0NIMl1bQ0gyXVtDSDJdW0NIMl0vW0NIXT1bQ0hdXFtDSDJdW0NIMl1bQ0gyXVtDSDJdW0NIMl1bQ0gyXVtDSDJdW0NIM10=

> <s_epik_cmdline>
J2VwaWtfYXBwJywgJy1pbWFlJywgJ2xpZ2FuZF9wcm8ubWFlJywgJy1vbWFlJywgJ2xpZ2FuZF9wcmVwLm1hZScsICctbXMnLCAnMScsICctcGgnLCAnNycsICctcGh0JywgJzAuNScsICctbnQn

> <r_lp_tautomer_probability>
1

> <r_epik_Ionization_Penalty>
  0.0049

> <r_epik_Ionization_Penalty_Charging>
  0.0049

> <r_epik_Ionization_Penalty_Neutral>
  0.0000

> <r_epik_State_Penalty>
 -0.0000

> <r_epik_Charging_Adjusted_Penalty>
0.00485124679394524

> <i_epik_Tot_Q>
-1

> <i_epik_Tot_abs_Q>
1

$$$$
