1lgt_ligand
                    3D
 Schrodinger Suite 2020-3.
 24 25  0  0  1  0            999 V2000
   22.4900   21.7710   16.5330 C   0  0  0  0  0  0
   21.1240   22.0060   16.2810 C   0  0  0  0  0  0
   20.6090   23.2810   16.2370 O   0  0  0  0  0  0
   20.2170   20.9380   16.0630 C   0  0  0  0  0  0
   18.8840   21.2250   15.8220 O   0  0  0  0  0  0
   20.6740   19.6030   16.0920 C   0  0  0  0  0  0
   22.0460   19.3510   16.3410 C   0  0  0  0  0  0
   22.9460   20.4330   16.5610 C   0  0  0  0  0  0
   23.4290   22.9220   16.7670 C   0  0  0  0  0  0
   23.3790   23.7050   17.9610 C   0  0  0  0  0  0
   24.2730   24.7930   18.1600 C   0  0  0  0  0  0
   25.2340   25.1130   17.1680 C   0  0  0  0  0  0
   25.2930   24.3410   15.9820 C   0  0  0  0  0  0
   24.3940   23.2580   15.7910 C   0  0  0  0  0  0
   22.2520   23.4230   19.2720 Cl  0  0  0  0  0  0
   21.2684   24.1464   16.3993 H   0  0  0  0  0  0
   18.5413   22.2701   15.8022 H   0  0  0  0  0  0
   19.9816   18.7778   15.9253 H   0  0  0  0  0  0
   22.4141   18.3253   16.3643 H   0  0  0  0  0  0
   23.9989   20.2269   16.7532 H   0  0  0  0  0  0
   24.2193   25.3814   19.0760 H   0  0  0  0  0  0
   25.9214   25.9458   17.3167 H   0  0  0  0  0  0
   26.0296   24.5784   15.2145 H   0  0  0  0  0  0
   24.4497   22.6739   14.8724 H   0  0  0  0  0  0
  1  9  1  0  0  0
  1  8  2  0  0  0
  1  2  1  0  0  0
  2  4  2  0  0  0
  2  3  1  0  0  0
  3 16  1  0  0  0
  4  6  1  0  0  0
  4  5  1  0  0  0
  5 17  1  0  0  0
  6  7  2  0  0  0
  6 18  1  0  0  0
  7  8  1  0  0  0
  7 19  1  0  0  0
  8 20  1  0  0  0
  9 14  2  0  0  0
  9 10  1  0  0  0
 10 11  2  0  0  0
 10 15  1  0  0  0
 11 12  1  0  0  0
 11 21  1  0  0  0
 12 13  2  0  0  0
 12 22  1  0  0  0
 13 14  1  0  0  0
 13 23  1  0  0  0
 14 24  1  0  0  0
M  END
> <s_m_source_file>
../1lgt_ligand.sdf

> <i_m_source_file_index>
1

> <s_epik_input>
W2NIXTFbY0hdW2NIXWMoW09IXSljKFtPSF0pYzEtYzJjKENsKVtjSF1bY0hdW2NIXVtjSF0y

> <s_epik_cmdline>
J2VwaWtfYXBwJywgJy1pbWFlJywgJ2xpZ2FuZF9wcm8ubWFlJywgJy1vbWFlJywgJ2xpZ2FuZF9wcmVwLm1hZScsICctbXMnLCAnMScsICctcGgnLCAnNycsICctcGh0JywgJzAuNScsICctbnQn

> <r_lp_tautomer_probability>
1

> <r_epik_Ionization_Penalty>
  0.0043

> <r_epik_Ionization_Penalty_Charging>
  0.0000

> <r_epik_Ionization_Penalty_Neutral>
  0.0043

> <r_epik_State_Penalty>
 -0.0000

> <r_epik_Charging_Adjusted_Penalty>
0

> <i_epik_Tot_Q>
0

> <i_epik_Tot_abs_Q>
0

$$$$
