1lhc_ligand
                    3D
 Schrodinger Suite 2020-3.
 67 68  0  0  1  0            999 V2000
   14.9200  -11.6050   19.6240 C   0  0  2  0  0  0
   15.1520  -10.7780   18.3210 B   0  0  0  0  0  0
   13.8680  -10.9770   20.5780 C   0  0  0  0  0  0
   13.0240  -11.9600   21.3870 C   0  0  0  0  0  0
   12.4600  -11.3720   22.6580 C   0  0  0  0  0  0
   10.6870  -12.0550   24.4080 C   0  0  0  0  0  0
   18.1490  -13.1300   21.2240 C   0  0  2  0  0  0
   16.8130  -12.9650   20.4300 C   0  0  0  0  0  0
   19.3610  -13.0570   20.2790 C   0  0  0  0  0  0
   20.0420  -14.4220   20.2840 C   0  0  0  0  0  0
   19.4810  -15.1750   21.4100 C   0  0  0  0  0  0
   17.4530  -14.8930   22.8660 C   0  0  0  0  0  0
   18.1530  -16.1470   25.0630 C   0  0  0  0  0  0
   17.6100  -16.2780   23.5950 C   0  0  1  0  0  0
   15.8020  -17.8590   22.8860 C   0  0  0  0  0  0
   14.3440  -18.2790   23.1070 C   0  0  0  0  0  0
   21.9520  -15.6830   24.6230 C   0  0  0  0  0  0
   22.2020  -14.5660   25.4200 C   0  0  0  0  0  0
   21.1590  -13.9760   26.1020 C   0  0  0  0  0  0
   19.8530  -14.4670   25.9800 C   0  0  0  0  0  0
   19.5890  -15.5820   25.1850 C   0  0  0  0  0  0
   20.6570  -16.2080   24.4980 C   0  0  0  0  0  0
   16.2060  -11.7670   20.3800 N   0  0  0  0  0  0
   11.6320  -12.3340   23.3950 N   0  0  0  0  0  0
    9.9480  -12.9740   24.8340 N   0  3  0  0  0  0
   10.5540  -10.7490   24.9570 N   0  0  0  0  0  0
   18.3140  -14.4440   21.9170 N   0  0  0  0  0  0
   16.2400  -16.8490   23.6650 N   0  0  0  0  0  0
   16.3120  -11.0190   17.5080 O   0  0  0  0  0  0
   14.0400  -10.6470   17.3290 O   0  0  0  0  0  0
   16.3480  -13.9610   19.8640 O   0  0  0  0  0  0
   16.4820  -14.1910   23.2090 O   0  0  0  0  0  0
   16.5130  -18.4380   22.0500 O   0  0  0  0  0  0
   14.5624  -12.5973   19.3117 H   0  0  0  0  0  0
   14.3762  -10.3353   21.3128 H   0  0  0  0  0  0
   13.1572  -10.3739   19.9940 H   0  0  0  0  0  0
   12.1736  -12.3007   20.7781 H   0  0  0  0  0  0
   13.6409  -12.8251   21.6718 H   0  0  0  0  0  0
   13.2850  -11.0583   23.3145 H   0  0  0  0  0  0
   11.8348  -10.5007   22.4131 H   0  0  0  0  0  0
   18.1190  -12.3416   21.9905 H   0  0  0  0  0  0
   19.0199  -12.8053   19.2640 H   0  0  0  0  0  0
   20.0570  -12.2829   20.6344 H   0  0  0  0  0  0
   19.8400  -14.9360   19.3327 H   0  0  0  0  0  0
   21.1272  -14.2899   20.4061 H   0  0  0  0  0  0
   19.1797  -16.1761   21.0678 H   0  0  0  0  0  0
   20.2392  -15.2707   22.2012 H   0  0  0  0  0  0
   17.5006  -15.4720   25.6364 H   0  0  0  0  0  0
   18.1644  -17.1383   25.5396 H   0  0  0  0  0  0
   18.2924  -16.9334   23.0339 H   0  0  0  0  0  0
   13.8937  -17.6449   23.8849 H   0  0  0  0  0  0
   14.3099  -19.3311   23.4263 H   0  0  0  0  0  0
   13.7825  -18.1623   22.1683 H   0  0  0  0  0  0
   22.7761  -16.1557   24.0886 H   0  0  0  0  0  0
   23.2116  -14.1636   25.5028 H   0  0  0  0  0  0
   21.3533  -13.1168   26.7440 H   0  0  0  0  0  0
   19.0377  -13.9745   26.5098 H   0  0  0  0  0  0
   20.4753  -17.0870   23.8796 H   0  0  0  0  0  0
   16.6538  -10.9042   20.8948 H   0  0  0  0  0  0
   11.7126  -13.4092   23.1774 H   0  0  0  0  0  0
   10.0384  -13.9891   24.4199 H   0  0  0  0  0  0
   11.1948   -9.9319   24.5941 H   0  0  0  0  0  0
    9.8104  -10.5565   25.7443 H   0  0  0  0  0  0
   15.5126  -16.4467   24.3854 H   0  0  0  0  0  0
   17.2956  -11.1577   17.9805 H   0  0  0  0  0  0
   13.0138  -10.4549   17.6753 H   0  0  0  0  0  0
    9.2092  -12.7652   25.6218 H   0  0  0  0  0  0
  1  2  1  0  0  0
  1  3  1  0  0  0
  1 23  1  0  0  0
  1 34  1  0  0  0
  2 29  1  0  0  0
  2 30  1  0  0  0
  3  4  1  0  0  0
  3 35  1  0  0  0
  3 36  1  0  0  0
  4  5  1  0  0  0
  4 37  1  0  0  0
  4 38  1  0  0  0
  5 24  1  0  0  0
  5 39  1  0  0  0
  5 40  1  0  0  0
  6 24  1  0  0  0
  6 25  2  0  0  0
  6 26  1  0  0  0
  7  8  1  0  0  0
  7  9  1  0  0  0
  7 27  1  0  0  0
  7 41  1  0  0  0
  8 23  1  0  0  0
  8 31  2  0  0  0
  9 10  1  0  0  0
  9 42  1  0  0  0
  9 43  1  0  0  0
 10 11  1  0  0  0
 10 44  1  0  0  0
 10 45  1  0  0  0
 11 27  1  0  0  0
 11 46  1  0  0  0
 11 47  1  0  0  0
 12 14  1  0  0  0
 12 27  1  0  0  0
 12 32  2  0  0  0
 13 14  1  0  0  0
 13 21  1  0  0  0
 13 48  1  0  0  0
 13 49  1  0  0  0
 14 28  1  0  0  0
 14 50  1  0  0  0
 15 16  1  0  0  0
 15 28  1  0  0  0
 15 33  2  0  0  0
 16 51  1  0  0  0
 16 52  1  0  0  0
 16 53  1  0  0  0
 17 18  2  0  0  0
 17 22  1  0  0  0
 17 54  1  0  0  0
 18 19  1  0  0  0
 18 55  1  0  0  0
 19 20  2  0  0  0
 19 56  1  0  0  0
 20 21  1  0  0  0
 20 57  1  0  0  0
 21 22  2  0  0  0
 22 58  1  0  0  0
 23 59  1  0  0  0
 24 60  1  0  0  0
 25 61  1  0  0  0
 25 67  1  0  0  0
 26 62  1  0  0  0
 26 63  1  0  0  0
 28 64  1  0  0  0
 29 65  1  0  0  0
 30 66  1  0  0  0
M  CHG  1  25   1
M  END
> <s_m_source_file>
../1lhc_ligand.sdf

> <i_m_source_file_index>
1

> <s_epik_input>
W0hdL049QyhbTkgyXSlcW05IXVtDSDJdW0NIMl1bQ0gyXVtDQEBIXShCKFtPSF0pW09IXSlbTkhdQyg9TylbQ0BASF0xW0NIMl1bQ0gyXVtDSDJdTjFDKD1PKVtDQEhdKFtOSF1DKD1PKVtDSDNdKVtDSDJdYzJbY0hdW2NIXVtjSF1bY0hdW2NIXTI=

> <s_epik_cmdline>
J2VwaWtfYXBwJywgJy1pbWFlJywgJ2xpZ2FuZF9wcm8ubWFlJywgJy1vbWFlJywgJ2xpZ2FuZF9wcmVwLm1hZScsICctbXMnLCAnMScsICctcGgnLCAnNycsICctcGh0JywgJzAuNScsICctbnQn

> <r_lp_tautomer_probability>
1

> <r_epik_Ionization_Penalty>
  0.0000

> <r_epik_Ionization_Penalty_Charging>
  0.0000

> <r_epik_Ionization_Penalty_Neutral>
  0.0000

> <r_epik_State_Penalty>
 -0.0000

> <r_epik_Charging_Adjusted_Penalty>
1.49701611313658e-05

> <i_epik_Tot_Q>
1

> <i_epik_Tot_abs_Q>
1

> <s_epik_Chemistry_Notes>
This compound has an imine and may undergo hydrolysis. This compound contains a Lewis acid (boronic acid) which adds nucleophiles to form tetrahedral complexes, lowering the experimental pKa

$$$$
