1lhd_ligand
                    3D
 Schrodinger Suite 2020-3.
 65 66  0  0  1  0            999 V2000
   14.9900  -10.5580   17.9990 B   0  0  0  0  0  0
   14.6830  -11.5260   19.2030 C   0  0  2  0  0  0
   13.4780  -10.9310   19.9430 C   0  0  0  0  0  0
   13.0880  -11.4400   21.3240 C   0  0  0  0  0  0
   11.8770  -12.3720   21.2930 C   0  0  0  0  0  0
   11.5610  -12.8790   22.6160 C   0  0  0  0  0  0
   17.8510  -12.8450   21.0770 C   0  0  2  0  0  0
   16.6100  -12.8020   20.1260 C   0  0  0  0  0  0
   19.1610  -12.6170   20.3060 C   0  0  0  0  0  0
   19.8350  -13.9710   20.1480 C   0  0  0  0  0  0
   19.2410  -14.8870   21.2040 C   0  0  0  0  0  0
   17.1280  -14.7320   22.5490 C   0  0  0  0  0  0
   17.8200  -16.0930   24.6890 C   0  0  0  0  0  0
   17.2670  -16.1400   23.2010 C   0  0  1  0  0  0
   15.7500  -18.0070   22.6010 C   0  0  0  0  0  0
   14.3320  -18.5780   22.6250 C   0  0  0  0  0  0
   21.6040  -15.3850   24.3510 C   0  0  0  0  0  0
   21.7350  -14.2320   25.1080 C   0  0  0  0  0  0
   20.6200  -13.6810   25.7410 C   0  0  0  0  0  0
   19.3620  -14.2660   25.6000 C   0  0  0  0  0  0
   19.2180  -15.4300   24.8350 C   0  0  0  0  0  0
   20.3520  -15.9950   24.2120 C   0  0  0  0  0  0
   15.8820  -11.6610   20.1200 N   0  0  0  0  0  0
   10.4250  -12.6060   23.3970 N   0  3  0  0  0  0
   18.0470  -14.2130   21.6970 N   0  0  0  0  0  0
   15.9360  -16.8030   23.1770 N   0  0  0  0  0  0
   13.8200  -10.4880   17.1570 O   0  0  0  0  0  0
   16.0910  -10.8680   17.1680 O   0  0  0  0  0  0
   16.3970  -13.7940   19.4070 O   0  0  0  0  0  0
   16.1370  -14.0530   22.8650 O   0  0  0  0  0  0
   16.6560  -18.6510   22.0380 O   0  0  0  0  0  0
   14.4663  -12.5540   18.8769 H   0  0  0  0  0  0
   13.6388   -9.8541   20.0990 H   0  0  0  0  0  0
   12.5681  -11.0829   19.3437 H   0  0  0  0  0  0
   13.9296  -11.9980   21.7603 H   0  0  0  0  0  0
   12.8383  -10.5870   21.9722 H   0  0  0  0  0  0
   11.0024  -11.8241   20.9124 H   0  0  0  0  0  0
   12.0891  -13.2271   20.6343 H   0  0  0  0  0  0
   11.5020  -13.9769   22.5835 H   0  0  0  0  0  0
   12.3472  -12.5748   23.3227 H   0  0  0  0  0  0
   17.6662  -12.0800   21.8455 H   0  0  0  0  0  0
   18.9359  -12.1808   19.3216 H   0  0  0  0  0  0
   19.8053  -11.9291   20.8731 H   0  0  0  0  0  0
   19.6395  -14.3623   19.1387 H   0  0  0  0  0  0
   20.9195  -13.8601   20.2945 H   0  0  0  0  0  0
   18.9901  -15.8566   20.7492 H   0  0  0  0  0  0
   19.9727  -15.0390   22.0111 H   0  0  0  0  0  0
   17.1257  -15.5189   25.3202 H   0  0  0  0  0  0
   17.9090  -17.1174   25.0797 H   0  0  0  0  0  0
   17.9586  -16.7373   22.5886 H   0  0  0  0  0  0
   13.6662  -17.8838   23.1587 H   0  0  0  0  0  0
   14.3369  -19.5501   23.1398 H   0  0  0  0  0  0
   13.9728  -18.7109   21.5938 H   0  0  0  0  0  0
   22.4773  -15.8177   23.8630 H   0  0  0  0  0  0
   22.7098  -13.7549   25.2092 H   0  0  0  0  0  0
   20.7335  -12.7850   26.3513 H   0  0  0  0  0  0
   18.4936  -13.8187   26.0837 H   0  0  0  0  0  0
   20.2524  -16.9065   23.6226 H   0  0  0  0  0  0
   16.1632  -10.8300   20.7837 H   0  0  0  0  0  0
   10.4956  -13.1509   24.3499 H   0  0  0  0  0  0
    9.5226  -12.9278   22.8566 H   0  0  0  0  0  0
   10.3677  -11.5256   23.5958 H   0  0  0  0  0  0
   15.0676  -16.3100   23.6383 H   0  0  0  0  0  0
   12.8387  -10.2569   17.5971 H   0  0  0  0  0  0
   17.0962  -10.9716   17.6026 H   0  0  0  0  0  0
  1  2  1  0  0  0
  1 27  1  0  0  0
  1 28  1  0  0  0
  2  3  1  0  0  0
  2 23  1  0  0  0
  2 32  1  0  0  0
  3  4  1  0  0  0
  3 33  1  0  0  0
  3 34  1  0  0  0
  4  5  1  0  0  0
  4 35  1  0  0  0
  4 36  1  0  0  0
  5  6  1  0  0  0
  5 37  1  0  0  0
  5 38  1  0  0  0
  6 24  1  0  0  0
  6 39  1  0  0  0
  6 40  1  0  0  0
  7  8  1  0  0  0
  7  9  1  0  0  0
  7 25  1  0  0  0
  7 41  1  0  0  0
  8 23  1  0  0  0
  8 29  2  0  0  0
  9 10  1  0  0  0
  9 42  1  0  0  0
  9 43  1  0  0  0
 10 11  1  0  0  0
 10 44  1  0  0  0
 10 45  1  0  0  0
 11 25  1  0  0  0
 11 46  1  0  0  0
 11 47  1  0  0  0
 12 14  1  0  0  0
 12 25  1  0  0  0
 12 30  2  0  0  0
 13 14  1  0  0  0
 13 21  1  0  0  0
 13 48  1  0  0  0
 13 49  1  0  0  0
 14 26  1  0  0  0
 14 50  1  0  0  0
 15 16  1  0  0  0
 15 26  1  0  0  0
 15 31  2  0  0  0
 16 51  1  0  0  0
 16 52  1  0  0  0
 16 53  1  0  0  0
 17 18  2  0  0  0
 17 22  1  0  0  0
 17 54  1  0  0  0
 18 19  1  0  0  0
 18 55  1  0  0  0
 19 20  2  0  0  0
 19 56  1  0  0  0
 20 21  1  0  0  0
 20 57  1  0  0  0
 21 22  2  0  0  0
 22 58  1  0  0  0
 23 59  1  0  0  0
 24 60  1  0  0  0
 24 61  1  0  0  0
 24 62  1  0  0  0
 26 63  1  0  0  0
 27 64  1  0  0  0
 28 65  1  0  0  0
M  CHG  1  24   1
M  END
> <s_m_source_file>
../1lhd_ligand.sdf

> <i_m_source_file_index>
1

> <s_epik_input>
W05IMytdW0NIMl1bQ0gyXVtDSDJdW0NIMl1bQ0BASF0oQihbT0hdKVtPSF0pW05IXUMoPU8pW0NAQEhdMVtDSDJdW0NIMl1bQ0gyXU4xQyg9TylbQ0BIXShbTkhdQyg9TylbQ0gzXSlbQ0gyXWMyW2NIXVtjSF1bY0hdW2NIXVtjSF0y

> <s_epik_cmdline>
J2VwaWtfYXBwJywgJy1pbWFlJywgJ2xpZ2FuZF9wcm8ubWFlJywgJy1vbWFlJywgJ2xpZ2FuZF9wcmVwLm1hZScsICctbXMnLCAnMScsICctcGgnLCAnNycsICctcGh0JywgJzAuNScsICctbnQn

> <r_lp_tautomer_probability>
1

> <r_epik_Ionization_Penalty>
  0.0004

> <r_epik_Ionization_Penalty_Charging>
  0.0004

> <r_epik_Ionization_Penalty_Neutral>
  0.0000

> <r_epik_State_Penalty>
 -0.0000

> <r_epik_Charging_Adjusted_Penalty>
0.000428723258297121

> <i_epik_Tot_Q>
1

> <i_epik_Tot_abs_Q>
1

> <s_epik_Chemistry_Notes>
This compound contains a Lewis acid (boronic acid) which adds nucleophiles to form tetrahedral complexes, lowering the experimental pKa

$$$$
