1lhe_ligand
                    3D
 Schrodinger Suite 2020-3.
 68 69  0  0  1  0            999 V2000
   15.2270  -10.7390   18.4200 B   0  0  0  0  0  0
   15.0200  -11.8020   19.5500 C   0  0  2  0  0  0
   13.6510  -11.6490   20.1690 C   0  0  0  0  0  0
   13.4030  -10.7600   21.3730 C   0  0  0  0  0  0
   11.9890  -11.0260   21.9850 C   0  0  0  0  0  0
   12.1060  -12.0620   23.1440 C   0  0  0  0  0  0
   11.0570  -11.8970   24.2260 C   0  0  0  0  0  0
   18.3690  -13.0150   21.2070 C   0  0  2  0  0  0
   17.0600  -12.9310   20.3290 C   0  0  0  0  0  0
   19.5740  -12.9860   20.2100 C   0  0  0  0  0  0
   20.3510  -14.2750   20.3420 C   0  0  0  0  0  0
   19.6450  -15.1480   21.3590 C   0  0  0  0  0  0
   17.6880  -14.7610   22.8690 C   0  0  0  0  0  0
   18.4080  -16.1500   24.9750 C   0  0  0  0  0  0
   17.7970  -16.1760   23.5460 C   0  0  1  0  0  0
   16.0080  -17.8050   22.9200 C   0  0  0  0  0  0
   14.5280  -18.1840   23.0170 C   0  0  0  0  0  0
   22.1770  -15.3420   24.8130 C   0  0  0  0  0  0
   22.2570  -14.2100   25.6020 C   0  0  0  0  0  0
   21.1000  -13.6840   26.1890 C   0  0  0  0  0  0
   19.8640  -14.2960   25.9680 C   0  0  0  0  0  0
   19.7670  -15.4480   25.1890 C   0  0  0  0  0  0
   20.9440  -15.9660   24.6050 C   0  0  0  0  0  0
   16.2180  -11.8740   20.4520 N   0  0  0  0  0  0
   10.3560  -12.8830   24.5780 N   0  3  0  0  0  0
   10.8390  -10.6520   24.8590 N   0  0  0  0  0  0
   18.5440  -14.3470   21.8890 N   0  0  0  0  0  0
   16.3990  -16.6990   23.5790 N   0  0  0  0  0  0
   13.9810  -10.6210   17.6720 O   0  0  0  0  0  0
   16.2960  -11.0270   17.5220 O   0  0  0  0  0  0
   16.8750  -13.8740   19.5370 O   0  0  0  0  0  0
   16.7520  -14.0420   23.2410 O   0  0  0  0  0  0
   16.7980  -18.5230   22.2770 O   0  0  0  0  0  0
   14.9873  -12.8424   19.1944 H   0  0  0  0  0  0
   12.9532  -11.2454   19.4205 H   0  0  0  0  0  0
   13.2924  -12.6303   20.5130 H   0  0  0  0  0  0
   14.1635  -10.9629   22.1414 H   0  0  0  0  0  0
   13.4623   -9.7048   21.0681 H   0  0  0  0  0  0
   11.5761  -10.0848   22.3769 H   0  0  0  0  0  0
   11.3212  -11.4231   21.2063 H   0  0  0  0  0  0
   11.9978  -13.0790   22.7390 H   0  0  0  0  0  0
   13.0893  -11.9624   23.6270 H   0  0  0  0  0  0
   18.3233  -12.2295   21.9757 H   0  0  0  0  0  0
   19.1968  -12.8833   19.1818 H   0  0  0  0  0  0
   20.2264  -12.1330   20.4481 H   0  0  0  0  0  0
   20.3873  -14.7827   19.3669 H   0  0  0  0  0  0
   21.3746  -14.0533   20.6783 H   0  0  0  0  0  0
   19.2711  -16.0571   20.8652 H   0  0  0  0  0  0
   20.3506  -15.4271   22.1554 H   0  0  0  0  0  0
   17.7179  -15.6351   25.6595 H   0  0  0  0  0  0
   18.5692  -17.1807   25.3237 H   0  0  0  0  0  0
   18.4524  -16.8474   22.9718 H   0  0  0  0  0  0
   13.9963  -17.4341   23.6211 H   0  0  0  0  0  0
   14.4328  -19.1717   23.4917 H   0  0  0  0  0  0
   14.0915  -18.2185   22.0079 H   0  0  0  0  0  0
   23.0772  -15.7487   24.3522 H   0  0  0  0  0  0
   23.2202  -13.7272   25.7671 H   0  0  0  0  0  0
   21.1637  -12.7966   26.8187 H   0  0  0  0  0  0
   18.9644  -13.8676   26.4100 H   0  0  0  0  0  0
   20.8901  -16.8615   23.9858 H   0  0  0  0  0  0
   16.3976  -11.0804   21.1922 H   0  0  0  0  0  0
   10.5060  -13.8628   24.1009 H   0  0  0  0  0  0
   11.4377   -9.7757   24.5699 H   0  0  0  0  0  0
   10.0706  -10.5595   25.6407 H   0  0  0  0  0  0
   15.6290  -16.1740   24.1633 H   0  0  0  0  0  0
   13.0416  -10.3996   18.1997 H   0  0  0  0  0  0
   17.3190  -11.1517   17.9067 H   0  0  0  0  0  0
    9.5940  -12.7641   25.3624 H   0  0  0  0  0  0
  1  2  1  0  0  0
  1 29  1  0  0  0
  1 30  1  0  0  0
  2  3  1  0  0  0
  2 24  1  0  0  0
  2 34  1  0  0  0
  3  4  1  0  0  0
  3 35  1  0  0  0
  3 36  1  0  0  0
  4  5  1  0  0  0
  4 37  1  0  0  0
  4 38  1  0  0  0
  5  6  1  0  0  0
  5 39  1  0  0  0
  5 40  1  0  0  0
  6  7  1  0  0  0
  6 41  1  0  0  0
  6 42  1  0  0  0
  7 25  2  0  0  0
  7 26  1  0  0  0
  8  9  1  0  0  0
  8 10  1  0  0  0
  8 27  1  0  0  0
  8 43  1  0  0  0
  9 24  1  0  0  0
  9 31  2  0  0  0
 10 11  1  0  0  0
 10 44  1  0  0  0
 10 45  1  0  0  0
 11 12  1  0  0  0
 11 46  1  0  0  0
 11 47  1  0  0  0
 12 27  1  0  0  0
 12 48  1  0  0  0
 12 49  1  0  0  0
 13 15  1  0  0  0
 13 27  1  0  0  0
 13 32  2  0  0  0
 14 15  1  0  0  0
 14 22  1  0  0  0
 14 50  1  0  0  0
 14 51  1  0  0  0
 15 28  1  0  0  0
 15 52  1  0  0  0
 16 17  1  0  0  0
 16 28  1  0  0  0
 16 33  2  0  0  0
 17 53  1  0  0  0
 17 54  1  0  0  0
 17 55  1  0  0  0
 18 19  2  0  0  0
 18 23  1  0  0  0
 18 56  1  0  0  0
 19 20  1  0  0  0
 19 57  1  0  0  0
 20 21  2  0  0  0
 20 58  1  0  0  0
 21 22  1  0  0  0
 21 59  1  0  0  0
 22 23  2  0  0  0
 23 60  1  0  0  0
 24 61  1  0  0  0
 25 62  1  0  0  0
 25 68  1  0  0  0
 26 63  1  0  0  0
 26 64  1  0  0  0
 28 65  1  0  0  0
 29 66  1  0  0  0
 30 67  1  0  0  0
M  CHG  1  25   1
M  END
> <s_m_source_file>
../1lhe_ligand.sdf

> <i_m_source_file_index>
1

> <s_epik_input>
W0hdXE49QyhbTkgyXSlcW0NIMl1bQ0gyXVtDSDJdW0NIMl1bQ0BASF0oQihbT0hdKVtPSF0pW05IXUMoPU8pW0NAQEhdMVtDSDJdW0NIMl1bQ0gyXU4xQyg9TylbQ0BIXShbTkhdQyg9TylbQ0gzXSlbQ0gyXWMyW2NIXVtjSF1bY0hdW2NIXVtjSF0y

> <s_epik_cmdline>
J2VwaWtfYXBwJywgJy1pbWFlJywgJ2xpZ2FuZF9wcm8ubWFlJywgJy1vbWFlJywgJ2xpZ2FuZF9wcmVwLm1hZScsICctbXMnLCAnMScsICctcGgnLCAnNycsICctcGh0JywgJzAuNScsICctbnQn

> <r_lp_tautomer_probability>
1

> <r_epik_Ionization_Penalty>
  0.0000

> <r_epik_Ionization_Penalty_Charging>
  0.0000

> <r_epik_Ionization_Penalty_Neutral>
  0.0000

> <r_epik_State_Penalty>
 -0.0000

> <r_epik_Charging_Adjusted_Penalty>
1.03101438795542e-05

> <i_epik_Tot_Q>
1

> <i_epik_Tot_abs_Q>
1

> <s_epik_Chemistry_Notes>
This compound has an imine and may undergo hydrolysis. This compound contains a Lewis acid (boronic acid) which adds nucleophiles to form tetrahedral complexes, lowering the experimental pKa

$$$$
