1lhf_ligand
                    3D
 Schrodinger Suite 2020-3.
 68 69  0  0  1  0            999 V2000
   14.6550  -10.0450   18.7550 B   0  0  0  0  0  0
   14.4440  -11.0370   19.9240 C   0  0  2  0  0  0
   13.3030  -10.4970   20.8200 C   0  0  0  0  0  0
   12.2350  -11.5050   21.2300 C   0  0  0  0  0  0
   12.3410  -12.0080   22.6520 C   0  0  0  0  0  0
   11.1360  -11.6510   23.4080 C   0  0  0  0  0  0
   10.6410  -12.3570   24.5400 C   0  0  0  0  0  0
   17.6240  -12.8060   21.3610 C   0  0  2  0  0  0
   16.3620  -12.5120   20.4970 C   0  0  0  0  0  0
   18.9070  -12.7450   20.4950 C   0  0  0  0  0  0
   19.3970  -14.1690   20.2580 C   0  0  0  0  0  0
   18.6330  -15.0630   21.2110 C   0  0  0  0  0  0
   16.9010  -14.5890   22.9670 C   0  0  0  0  0  0
   17.4120  -15.9780   25.1380 C   0  0  0  0  0  0
   17.0000  -16.0110   23.6160 C   0  0  1  0  0  0
   15.6330  -17.9490   22.9330 C   0  0  0  0  0  0
   14.2660  -18.6080   22.8930 C   0  0  0  0  0  0
   21.2150  -15.3010   24.9640 C   0  0  0  0  0  0
   21.3540  -14.2650   25.8730 C   0  0  0  0  0  0
   20.2370  -13.7750   26.5520 C   0  0  0  0  0  0
   18.9770  -14.3250   26.3080 C   0  0  0  0  0  0
   18.8250  -15.3760   25.4060 C   0  0  0  0  0  0
   19.9550  -15.8530   24.7180 C   0  0  0  0  0  0
   15.6600  -11.3750   20.7340 N   0  0  0  0  0  0
   10.2990  -11.6700   25.7300 N   0  3  0  0  0  0
   17.6880  -14.1870   21.9360 N   0  0  0  0  0  0
   15.6990  -16.6910   23.4190 N   0  0  0  0  0  0
   13.4340  -10.0080   17.9590 O   0  0  0  0  0  0
   15.7240  -10.3260   17.8300 O   0  0  0  0  0  0
   16.0480  -13.3280   19.6110 O   0  0  0  0  0  0
   16.0840  -13.8150   23.4640 O   0  0  0  0  0  0
   16.6510  -18.5460   22.5280 O   0  0  0  0  0  0
   14.2092  -12.0171   19.4832 H   0  0  0  0  0  0
   13.7264  -10.1055   21.7567 H   0  0  0  0  0  0
   12.7727   -9.6907   20.2922 H   0  0  0  0  0  0
   11.2404  -11.0454   21.1324 H   0  0  0  0  0  0
   12.2959  -12.3892   20.5784 H   0  0  0  0  0  0
   12.4509  -13.1025   22.6465 H   0  0  0  0  0  0
   13.2176  -11.5539   23.1372 H   0  0  0  0  0  0
   11.2491  -10.6378   23.8211 H   0  0  0  0  0  0
   10.2624  -11.6792   22.7402 H   0  0  0  0  0  0
    9.7123  -12.8803   24.2684 H   0  0  0  0  0  0
   11.3912  -13.0898   24.8719 H   0  0  0  0  0  0
   17.5636  -12.0766   22.1821 H   0  0  0  0  0  0
   18.6780  -12.2614   19.5339 H   0  0  0  0  0  0
   19.6784  -12.1649   21.0227 H   0  0  0  0  0  0
   19.2009  -14.4553   19.2142 H   0  0  0  0  0  0
   20.4777  -14.2227   20.4560 H   0  0  0  0  0  0
   18.0964  -15.8345   20.6394 H   0  0  0  0  0  0
   19.3368  -15.5446   21.9058 H   0  0  0  0  0  0
   16.6898  -15.3677   25.7002 H   0  0  0  0  0  0
   17.4169  -17.0023   25.5389 H   0  0  0  0  0  0
   17.7621  -16.6088   23.0946 H   0  0  0  0  0  0
   13.5125  -17.9139   23.2936 H   0  0  0  0  0  0
   14.2823  -19.5234   23.5028 H   0  0  0  0  0  0
   14.0128  -18.8642   21.8537 H   0  0  0  0  0  0
   22.0897  -15.6862   24.4399 H   0  0  0  0  0  0
   22.3369  -13.8318   26.0584 H   0  0  0  0  0  0
   20.3483  -12.9640   27.2718 H   0  0  0  0  0  0
   18.1047  -13.9287   26.8277 H   0  0  0  0  0  0
   19.8475  -16.6568   23.9897 H   0  0  0  0  0  0
   15.9943  -10.6972   21.5333 H   0  0  0  0  0  0
    9.9397  -12.3909   26.4792 H   0  0  0  0  0  0
    9.5064  -10.9380   25.5159 H   0  0  0  0  0  0
   11.1852  -11.1475   26.1193 H   0  0  0  0  0  0
   14.7629  -16.1707   23.6700 H   0  0  0  0  0  0
   12.4672   -9.8078   18.4439 H   0  0  0  0  0  0
   16.7592  -10.4051   18.1934 H   0  0  0  0  0  0
  1  2  1  0  0  0
  1 28  1  0  0  0
  1 29  1  0  0  0
  2  3  1  0  0  0
  2 24  1  0  0  0
  2 33  1  0  0  0
  3  4  1  0  0  0
  3 34  1  0  0  0
  3 35  1  0  0  0
  4  5  1  0  0  0
  4 36  1  0  0  0
  4 37  1  0  0  0
  5  6  1  0  0  0
  5 38  1  0  0  0
  5 39  1  0  0  0
  6  7  1  0  0  0
  6 40  1  0  0  0
  6 41  1  0  0  0
  7 25  1  0  0  0
  7 42  1  0  0  0
  7 43  1  0  0  0
  8  9  1  0  0  0
  8 10  1  0  0  0
  8 26  1  0  0  0
  8 44  1  0  0  0
  9 24  1  0  0  0
  9 30  2  0  0  0
 10 11  1  0  0  0
 10 45  1  0  0  0
 10 46  1  0  0  0
 11 12  1  0  0  0
 11 47  1  0  0  0
 11 48  1  0  0  0
 12 26  1  0  0  0
 12 49  1  0  0  0
 12 50  1  0  0  0
 13 15  1  0  0  0
 13 26  1  0  0  0
 13 31  2  0  0  0
 14 15  1  0  0  0
 14 22  1  0  0  0
 14 51  1  0  0  0
 14 52  1  0  0  0
 15 27  1  0  0  0
 15 53  1  0  0  0
 16 17  1  0  0  0
 16 27  1  0  0  0
 16 32  2  0  0  0
 17 54  1  0  0  0
 17 55  1  0  0  0
 17 56  1  0  0  0
 18 19  2  0  0  0
 18 23  1  0  0  0
 18 57  1  0  0  0
 19 20  1  0  0  0
 19 58  1  0  0  0
 20 21  2  0  0  0
 20 59  1  0  0  0
 21 22  1  0  0  0
 21 60  1  0  0  0
 22 23  2  0  0  0
 23 61  1  0  0  0
 24 62  1  0  0  0
 25 63  1  0  0  0
 25 64  1  0  0  0
 25 65  1  0  0  0
 27 66  1  0  0  0
 28 67  1  0  0  0
 29 68  1  0  0  0
M  CHG  1  25   1
M  END
> <s_m_source_file>
../1lhf_ligand.sdf

> <i_m_source_file_index>
1

> <s_epik_input>
W05IMytdW0NIMl1bQ0gyXVtDSDJdW0NIMl1bQ0gyXVtDQEBIXShCKFtPSF0pW09IXSlbTkhdQyg9TylbQ0BASF0xW0NIMl1bQ0gyXVtDSDJdTjFDKD1PKVtDQEhdKFtOSF1DKD1PKVtDSDNdKVtDSDJdYzJbY0hdW2NIXVtjSF1bY0hdW2NIXTI=

> <s_epik_cmdline>
J2VwaWtfYXBwJywgJy1pbWFlJywgJ2xpZ2FuZF9wcm8ubWFlJywgJy1vbWFlJywgJ2xpZ2FuZF9wcmVwLm1hZScsICctbXMnLCAnMScsICctcGgnLCAnNycsICctcGh0JywgJzAuNScsICctbnQn

> <r_lp_tautomer_probability>
1

> <r_epik_Ionization_Penalty>
  0.0004

> <r_epik_Ionization_Penalty_Charging>
  0.0004

> <r_epik_Ionization_Penalty_Neutral>
  0.0000

> <r_epik_State_Penalty>
 -0.0000

> <r_epik_Charging_Adjusted_Penalty>
0.000390076529839621

> <i_epik_Tot_Q>
1

> <i_epik_Tot_abs_Q>
1

> <s_epik_Chemistry_Notes>
This compound contains a Lewis acid (boronic acid) which adds nucleophiles to form tetrahedral complexes, lowering the experimental pKa

$$$$
