1lhg_ligand
                    3D
 Schrodinger Suite 2020-3.
 62 63  0  0  1  0            999 V2000
   14.8880  -10.4790   18.7170 B   0  0  0  0  0  0
   14.6200  -11.4890   19.9120 C   0  0  2  0  0  0
   13.6290  -10.7770   20.8570 C   0  0  0  0  0  0
   13.2030  -11.4530   22.1520 C   0  0  0  0  0  0
   12.2630  -12.6450   21.9840 C   0  0  0  0  0  0
   16.5330  -12.9830   20.6010 C   0  0  0  0  0  0
   17.9160  -13.0830   21.3250 C   0  0  2  0  0  0
   19.0650  -12.9950   20.2910 C   0  0  0  0  0  0
   19.7670  -14.3580   20.2560 C   0  0  0  0  0  0
   19.3660  -15.0820   21.5340 C   0  0  0  0  0  0
   17.3930  -14.8080   23.0500 C   0  0  0  0  0  0
   18.3180  -15.8480   25.2350 C   0  0  0  0  0  0
   17.6650  -16.1640   23.8280 C   0  0  1  0  0  0
   15.8550  -17.7690   23.2010 C   0  0  0  0  0  0
   14.4490  -18.3140   23.4510 C   0  0  0  0  0  0
   22.1240  -15.6250   24.5470 C   0  0  0  0  0  0
   22.4880  -14.5720   25.3720 C   0  0  0  0  0  0
   21.5220  -13.9200   26.1550 C   0  0  0  0  0  0
   20.1890  -14.3230   26.0870 C   0  0  0  0  0  0
   19.8020  -15.3890   25.2570 C   0  0  0  0  0  0
   20.7960  -16.0430   24.4940 C   0  0  0  0  0  0
   15.9100  -11.7920   20.6190 N   0  0  0  0  0  0
   11.2060  -12.5960   23.0310 N   0  3  0  0  0  0
   18.1880  -14.3690   22.0470 N   0  0  0  0  0  0
   16.3270  -16.7940   24.0120 N   0  0  0  0  0  0
   13.6950  -10.2820   17.9260 O   0  0  0  0  0  0
   15.9160  -10.9090   17.8120 O   0  0  0  0  0  0
   16.0630  -13.9780   20.0480 O   0  0  0  0  0  0
   16.4230  -14.1440   23.4190 O   0  0  0  0  0  0
   16.5180  -18.2580   22.2730 O   0  0  0  0  0  0
   14.2290  -12.4676   19.5968 H   0  0  0  0  0  0
   14.0580   -9.8181   21.1832 H   0  0  0  0  0  0
   12.6832  -10.5938   20.3260 H   0  0  0  0  0  0
   14.0924  -11.8274   22.6800 H   0  0  0  0  0  0
   12.6771  -10.7266   22.7890 H   0  0  0  0  0  0
   11.7953  -12.6057   20.9892 H   0  0  0  0  0  0
   12.8345  -13.5796   22.0838 H   0  0  0  0  0  0
   17.8883  -12.2832   22.0797 H   0  0  0  0  0  0
   18.6500  -12.7532   19.3014 H   0  0  0  0  0  0
   19.7718  -12.2086   20.5943 H   0  0  0  0  0  0
   19.4385  -14.9169   19.3673 H   0  0  0  0  0  0
   20.8560  -14.2086   20.2133 H   0  0  0  0  0  0
   19.1275  -16.1305   21.3020 H   0  0  0  0  0  0
   20.1981  -15.0456   22.2526 H   0  0  0  0  0  0
   17.7584  -15.0377   25.7252 H   0  0  0  0  0  0
   18.2857  -16.7492   25.8649 H   0  0  0  0  0  0
   18.3101  -16.8664   23.2799 H   0  0  0  0  0  0
   13.9953  -17.7821   24.3003 H   0  0  0  0  0  0
   14.5076  -19.3883   23.6801 H   0  0  0  0  0  0
   13.8324  -18.1638   22.5525 H   0  0  0  0  0  0
   22.8774  -16.1263   23.9393 H   0  0  0  0  0  0
   23.5282  -14.2490   25.4129 H   0  0  0  0  0  0
   21.8131  -13.1017   26.8136 H   0  0  0  0  0  0
   19.4385  -13.8054   26.6844 H   0  0  0  0  0  0
   20.5205  -16.8836   23.8571 H   0  0  0  0  0  0
   16.4132  -11.0088   21.2049 H   0  0  0  0  0  0
   10.5294  -13.4547   22.9094 H   0  0  0  0  0  0
   10.6342  -11.6616   22.9313 H   0  0  0  0  0  0
   11.6734  -12.6354   24.0260 H   0  0  0  0  0  0
   15.6750  -16.4696   24.8364 H   0  0  0  0  0  0
   12.7644   -9.9480   18.4081 H   0  0  0  0  0  0
   16.9266  -11.1238   18.1896 H   0  0  0  0  0  0
  1  2  1  0  0  0
  1 26  1  0  0  0
  1 27  1  0  0  0
  2  3  1  0  0  0
  2 22  1  0  0  0
  2 31  1  0  0  0
  3  4  1  0  0  0
  3 32  1  0  0  0
  3 33  1  0  0  0
  4  5  1  0  0  0
  4 34  1  0  0  0
  4 35  1  0  0  0
  5 23  1  0  0  0
  5 36  1  0  0  0
  5 37  1  0  0  0
  6  7  1  0  0  0
  6 22  1  0  0  0
  6 28  2  0  0  0
  7  8  1  0  0  0
  7 24  1  0  0  0
  7 38  1  0  0  0
  8  9  1  0  0  0
  8 39  1  0  0  0
  8 40  1  0  0  0
  9 10  1  0  0  0
  9 41  1  0  0  0
  9 42  1  0  0  0
 10 24  1  0  0  0
 10 43  1  0  0  0
 10 44  1  0  0  0
 11 13  1  0  0  0
 11 24  1  0  0  0
 11 29  2  0  0  0
 12 13  1  0  0  0
 12 20  1  0  0  0
 12 45  1  0  0  0
 12 46  1  0  0  0
 13 25  1  0  0  0
 13 47  1  0  0  0
 14 15  1  0  0  0
 14 25  1  0  0  0
 14 30  2  0  0  0
 15 48  1  0  0  0
 15 49  1  0  0  0
 15 50  1  0  0  0
 16 17  2  0  0  0
 16 21  1  0  0  0
 16 51  1  0  0  0
 17 18  1  0  0  0
 17 52  1  0  0  0
 18 19  2  0  0  0
 18 53  1  0  0  0
 19 20  1  0  0  0
 19 54  1  0  0  0
 20 21  2  0  0  0
 21 55  1  0  0  0
 22 56  1  0  0  0
 23 57  1  0  0  0
 23 58  1  0  0  0
 23 59  1  0  0  0
 25 60  1  0  0  0
 26 61  1  0  0  0
 27 62  1  0  0  0
M  CHG  1  23   1
M  END
> <s_m_source_file>
../1lhg_ligand.sdf

> <i_m_source_file_index>
1

> <s_epik_input>
W05IMytdW0NIMl1bQ0gyXVtDSDJdW0NAQEhdKEIoW09IXSlbT0hdKVtOSF1DKD1PKVtDQEBIXTFbQ0gyXVtDSDJdW0NIMl1OMUMoPU8pW0NASF0oW05IXUMoPU8pW0NIM10pW0NIMl1jMltjSF1bY0hdW2NIXVtjSF1bY0hdMg==

> <s_epik_cmdline>
J2VwaWtfYXBwJywgJy1pbWFlJywgJ2xpZ2FuZF9wcm8ubWFlJywgJy1vbWFlJywgJ2xpZ2FuZF9wcmVwLm1hZScsICctbXMnLCAnMScsICctcGgnLCAnNycsICctcGh0JywgJzAuNScsICctbnQn

> <r_lp_tautomer_probability>
1

> <r_epik_Ionization_Penalty>
  0.0007

> <r_epik_Ionization_Penalty_Charging>
  0.0007

> <r_epik_Ionization_Penalty_Neutral>
  0.0000

> <r_epik_State_Penalty>
 -0.0000

> <r_epik_Charging_Adjusted_Penalty>
0.000653564237901142

> <i_epik_Tot_Q>
1

> <i_epik_Tot_abs_Q>
1

> <s_epik_Chemistry_Notes>
This compound contains a Lewis acid (boronic acid) which adds nucleophiles to form tetrahedral complexes, lowering the experimental pKa

$$$$
