1lhu_ligand
                    3D
 Schrodinger Suite 2020-3.
 44 47  0  0  1  0            999 V2000
   20.8340    8.7500   33.1660 C   0  0  0  0  0  0
   19.5420    8.2930   33.2950 C   0  0  0  0  0  0
   18.4990    9.1910   33.5750 C   0  0  0  0  0  0
   17.2330    8.6960   33.6900 O   0  0  0  0  0  0
   18.8040   10.5710   33.7190 C   0  0  0  0  0  0
   20.1150   11.0470   33.5880 C   0  0  0  0  0  0
   20.3720   12.5580   33.7540 C   0  0  0  0  0  0
   21.8630   12.9870   33.6970 C   0  0  0  0  0  0
   22.6880   12.1520   32.7090 C   0  0  2  0  0  0
   22.6420   10.6140   33.1440 C   0  0  1  0  0  0
   21.1850   10.1210   33.2980 C   0  0  0  0  0  0
   23.4760    9.7400   32.1680 C   0  0  0  0  0  0
   24.9130   10.2600   32.0010 C   0  0  0  0  0  0
   24.9570   11.7460   31.5500 C   0  0  1  0  0  0
   24.1760   12.5870   32.6000 C   0  0  1  0  0  0
   24.4940   14.0470   32.2090 C   0  0  0  0  0  0
   25.9340   13.9470   31.6090 C   0  0  0  0  0  0
   26.3000   12.4550   31.6550 C   0  0  2  0  0  0
   27.1830   12.1630   30.5530 O   0  0  0  0  0  0
   24.3800   11.8400   30.1030 C   0  0  0  0  0  0
   21.6229    8.0285   32.9532 H   0  0  0  0  0  0
   19.3276    7.2306   33.1795 H   0  0  0  0  0  0
   17.0509    7.6179   33.5694 H   0  0  0  0  0  0
   18.0005   11.2748   33.9361 H   0  0  0  0  0  0
   19.8579   13.1077   32.9517 H   0  0  0  0  0  0
   19.9885   12.8901   34.7300 H   0  0  0  0  0  0
   21.9300   14.0392   33.3834 H   0  0  0  0  0  0
   22.3161   12.8715   34.6927 H   0  0  0  0  0  0
   22.2282   12.3517   31.7299 H   0  0  0  0  0  0
   23.0974   10.4790   34.1362 H   0  0  0  0  0  0
   23.5290    8.7105   32.5518 H   0  0  0  0  0  0
   22.9975    9.7379   31.1775 H   0  0  0  0  0  0
   25.4455   10.1805   32.9602 H   0  0  0  0  0  0
   25.4344    9.6592   31.2413 H   0  0  0  0  0  0
   24.4817   12.4424   33.6467 H   0  0  0  0  0  0
   23.7544   14.3994   31.4749 H   0  0  0  0  0  0
   24.4534   14.6837   33.1050 H   0  0  0  0  0  0
   25.9281   14.3261   30.5764 H   0  0  0  0  0  0
   26.6268   14.5480   32.2163 H   0  0  0  0  0  0
   26.8754   12.1130   32.5279 H   0  0  0  0  0  0
   27.5625   11.1407   30.4083 H   0  0  0  0  0  0
   23.4118   11.3196   30.0598 H   0  0  0  0  0  0
   25.0808   11.3697   29.3975 H   0  0  0  0  0  0
   24.2407   12.8969   29.8318 H   0  0  0  0  0  0
  1  2  2  0  0  0
  1 11  1  0  0  0
  1 21  1  0  0  0
  2  3  1  0  0  0
  2 22  1  0  0  0
  3  4  1  0  0  0
  3  5  2  0  0  0
  4 23  1  0  0  0
  5  6  1  0  0  0
  5 24  1  0  0  0
  6  7  1  0  0  0
  6 11  2  0  0  0
  7  8  1  0  0  0
  7 25  1  0  0  0
  7 26  1  0  0  0
  8  9  1  0  0  0
  8 27  1  0  0  0
  8 28  1  0  0  0
  9 10  1  0  0  0
  9 15  1  0  0  0
  9 29  1  0  0  0
 10 11  1  0  0  0
 10 12  1  0  0  0
 10 30  1  0  0  0
 12 13  1  0  0  0
 12 31  1  0  0  0
 12 32  1  0  0  0
 13 14  1  0  0  0
 13 33  1  0  0  0
 13 34  1  0  0  0
 14 15  1  0  0  0
 14 18  1  0  0  0
 14 20  1  0  0  0
 15 16  1  0  0  0
 15 35  1  0  0  0
 16 17  1  0  0  0
 16 36  1  0  0  0
 16 37  1  0  0  0
 17 18  1  0  0  0
 17 38  1  0  0  0
 17 39  1  0  0  0
 18 19  1  0  0  0
 18 40  1  0  0  0
 19 41  1  0  0  0
 20 42  1  0  0  0
 20 43  1  0  0  0
 20 44  1  0  0  0
M  END
> <s_m_source_file>
../1lhu_ligand.sdf

> <i_m_source_file_index>
1

> <s_epik_input>
W2NIXTFbY0hdYyhbT0hdKVtjSF1jKFtDSDJdW0NIMl0yKWMxW0NAQEhdKFtDSDJdW0NIMl0zKVtDQEBIXTJbQ0BASF0oW0NAXTM0W0NIM10pW0NIMl1bQ0gyXVtDQEBIXTRbT0hd

> <s_epik_cmdline>
J2VwaWtfYXBwJywgJy1pbWFlJywgJ2xpZ2FuZF9wcm8ubWFlJywgJy1vbWFlJywgJ2xpZ2FuZF9wcmVwLm1hZScsICctbXMnLCAnMScsICctcGgnLCAnNycsICctcGh0JywgJzAuNScsICctbnQn

> <r_lp_tautomer_probability>
1

> <r_epik_Ionization_Penalty>
  0.0001

> <r_epik_Ionization_Penalty_Charging>
  0.0000

> <r_epik_Ionization_Penalty_Neutral>
  0.0001

> <r_epik_State_Penalty>
 -0.0000

> <r_epik_Charging_Adjusted_Penalty>
0

> <i_epik_Tot_Q>
0

> <i_epik_Tot_abs_Q>
0

$$$$
