1lhv_ligand
                    3D
 Schrodinger Suite 2020-3.
 50 53  0  0  1  0            999 V2000
   24.3870    9.8500   30.6970 C   0  0  0  0  0  0
   25.8070   10.2680   30.3260 C   0  0  0  0  0  0
   26.1390   11.7200   30.5610 C   0  0  0  0  0  0
   25.3140   12.4880   31.5200 C   0  0  0  0  0  0
   24.2440   11.9660   32.1810 C   0  0  0  0  0  0
   23.4550   12.8040   33.1720 C   0  0  0  0  0  0
   21.9170   12.7020   32.9620 C   0  0  0  0  0  0
   21.4160   11.2390   32.8990 C   0  0  2  0  0  0
   22.1820   10.4840   31.7820 C   0  0  1  0  0  0
   23.7460   10.5010   31.9740 C   0  0  1  0  0  0
   21.6630    9.0100   31.6260 C   0  0  0  0  0  0
   20.1190    8.9350   31.4350 C   0  0  0  0  0  0
   19.3660    9.6410   32.5950 C   0  0  1  0  0  0
   19.8930   11.1350   32.6490 C   0  0  1  0  0  0
   18.8980   11.8080   33.6140 C   0  0  0  0  0  0
   17.5640   11.0280   33.4140 C   0  0  0  0  0  0
   17.8360    9.9190   32.3720 C   0  0  1  0  0  0
   19.5690    8.8630   33.9500 C   0  0  0  0  0  0
   19.5490    7.3340   33.9450 C   0  0  0  0  0  0
   17.5150   10.4140   30.9880 C   0  0  0  0  0  0
   17.2360   10.7760   29.9140 C   0  0  0  0  0  0
   27.0740   12.2190   29.9750 O   0  0  0  0  0  0
   17.0130    8.7790   32.6010 O   0  0  0  0  0  0
   23.7040   10.0991   29.8715 H   0  0  0  0  0  0
   24.3601    8.7658   30.8806 H   0  0  0  0  0  0
   26.5274    9.6853   30.9189 H   0  0  0  0  0  0
   25.9766   10.0805   29.2554 H   0  0  0  0  0  0
   25.6061   13.5353   31.6869 H   0  0  0  0  0  0
   23.6764   12.4667   34.1954 H   0  0  0  0  0  0
   23.7382   13.8615   33.0652 H   0  0  0  0  0  0
   21.3994   13.1988   33.7958 H   0  0  0  0  0  0
   21.6428   13.1920   32.0161 H   0  0  0  0  0  0
   21.6089   10.7838   33.8817 H   0  0  0  0  0  0
   21.9594   11.0442   30.8619 H   0  0  0  0  0  0
   24.0472    9.9361   32.8685 H   0  0  0  0  0  0
   22.1347    8.5463   30.7471 H   0  0  0  0  0  0
   21.9200    8.4335   32.5269 H   0  0  0  0  0  0
   19.8421    9.4265   30.4907 H   0  0  0  0  0  0
   19.8038    7.8815   31.4062 H   0  0  0  0  0  0
   19.8922   11.7130   31.7131 H   0  0  0  0  0  0
   19.2714   11.7211   34.6450 H   0  0  0  0  0  0
   18.7933   12.8708   33.3503 H   0  0  0  0  0  0
   17.2482   10.5900   34.3723 H   0  0  0  0  0  0
   16.7869   11.7173   33.0521 H   0  0  0  0  0  0
   20.5487    9.1217   34.3781 H   0  0  0  0  0  0
   18.7743    9.1440   34.6568 H   0  0  0  0  0  0
   19.7050    6.9619   34.9683 H   0  0  0  0  0  0
   20.3510    6.9590   33.2922 H   0  0  0  0  0  0
   18.5766    6.9813   33.5709 H   0  0  0  0  0  0
   17.0729    8.2408   33.5584 H   0  0  0  0  0  0
  1  2  1  0  0  0
  1 10  1  0  0  0
  1 24  1  0  0  0
  1 25  1  0  0  0
  2  3  1  0  0  0
  2 26  1  0  0  0
  2 27  1  0  0  0
  3  4  1  0  0  0
  3 22  2  0  0  0
  4  5  2  0  0  0
  4 28  1  0  0  0
  5  6  1  0  0  0
  5 10  1  0  0  0
  6  7  1  0  0  0
  6 29  1  0  0  0
  6 30  1  0  0  0
  7  8  1  0  0  0
  7 31  1  0  0  0
  7 32  1  0  0  0
  8  9  1  0  0  0
  8 14  1  0  0  0
  8 33  1  0  0  0
  9 10  1  0  0  0
  9 11  1  0  0  0
  9 34  1  0  0  0
 10 35  1  0  0  0
 11 12  1  0  0  0
 11 36  1  0  0  0
 11 37  1  0  0  0
 12 13  1  0  0  0
 12 38  1  0  0  0
 12 39  1  0  0  0
 13 14  1  0  0  0
 13 17  1  0  0  0
 13 18  1  0  0  0
 14 15  1  0  0  0
 14 40  1  0  0  0
 15 16  1  0  0  0
 15 41  1  0  0  0
 15 42  1  0  0  0
 16 17  1  0  0  0
 16 43  1  0  0  0
 16 44  1  0  0  0
 17 20  1  0  0  0
 17 23  1  0  0  0
 18 19  1  0  0  0
 18 45  1  0  0  0
 18 46  1  0  0  0
 19 47  1  0  0  0
 19 48  1  0  0  0
 19 49  1  0  0  0
 20 21  3  0  0  0
 23 50  1  0  0  0
M  END
> <s_m_source_file>
../1lhv_ligand.sdf

> <i_m_source_file_index>
1

> <s_epik_input>
W0NIMl0xW0NIMl1DKD1PKVtDSF09QyhbQ0gyXVtDSDJdMilbQ0BIXTFbQ0BASF0oW0NIMl1bQ0gyXTMpW0NAQEhdMltDQEBIXShbQ0BdMzRbQ0gyXVtDSDNdKVtDSDJdW0NIMl1bQ0BAXTQoW09IXSlDI1tDSF0=

> <s_epik_cmdline>
J2VwaWtfYXBwJywgJy1pbWFlJywgJ2xpZ2FuZF9wcm8ubWFlJywgJy1vbWFlJywgJ2xpZ2FuZF9wcmVwLm1hZScsICctbXMnLCAnMScsICctcGgnLCAnNycsICctcGh0JywgJzAuNScsICctbnQn

> <r_lp_tautomer_probability>
1

> <r_epik_Ionization_Penalty>
  0.0000

> <r_epik_Ionization_Penalty_Charging>
  0.0000

> <r_epik_Ionization_Penalty_Neutral>
  0.0000

> <r_epik_State_Penalty>
 -0.0000

> <r_epik_Charging_Adjusted_Penalty>
0

> <i_epik_Tot_Q>
0

> <i_epik_Tot_abs_Q>
0

$$$$
