1lhw_ligand
                    3D
 Schrodinger Suite 2020-3.
 48 51  0  0  1  0            999 V2000
   20.5540    9.0130   33.4050 C   0  0  0  0  0  0
   20.9210   10.3670   33.4410 C   0  0  0  0  0  0
   23.1460    9.8710   32.3250 C   0  0  0  0  0  0
   24.5870   10.3250   32.1460 C   0  0  0  0  0  0
   24.7000   11.7870   31.6690 C   0  0  1  0  0  0
   23.9390   12.6610   32.6610 C   0  0  1  0  0  0
   24.3180   14.0970   32.2300 C   0  0  0  0  0  0
   25.7490   13.9280   31.6970 C   0  0  0  0  0  0
   26.0630   12.4400   31.7880 C   0  0  2  0  0  0
   24.1420   11.8940   30.2190 C   0  0  0  0  0  0
   19.2630    8.5960   33.5510 C   0  0  0  0  0  0
   18.2560    9.5210   33.7390 C   0  0  0  0  0  0
   18.5920   10.8680   33.7950 C   0  0  0  0  0  0
   19.8940   11.3040   33.6540 C   0  0  0  0  0  0
   20.1630   12.8100   33.7270 C   0  0  0  0  0  0
   21.6490   13.1860   33.7010 C   0  0  0  0  0  0
   22.4460   12.2860   32.7540 C   0  0  2  0  0  0
   22.3650   10.7990   33.2610 C   0  0  1  0  0  0
   26.9810   12.0830   30.7200 O   0  0  0  0  0  0
   16.9710    9.0850   33.8630 O   0  0  0  0  0  0
   18.8040    7.2760   33.5290 O   0  0  0  0  0  0
   19.7890    6.2700   33.3550 C   0  0  0  0  0  0
   21.3316    8.2642   33.2543 H   0  0  0  0  0  0
   22.6401    9.8628   31.3482 H   0  0  0  0  0  0
   23.1312    8.8582   32.7540 H   0  0  0  0  0  0
   25.1190   10.2433   33.1053 H   0  0  0  0  0  0
   25.0815    9.6889   31.3972 H   0  0  0  0  0  0
   24.2186   12.5129   33.7145 H   0  0  0  0  0  0
   23.6164   14.4452   31.4576 H   0  0  0  0  0  0
   24.2665   14.7669   33.1010 H   0  0  0  0  0  0
   25.7963   14.2796   30.6558 H   0  0  0  0  0  0
   26.4424   14.5174   32.3149 H   0  0  0  0  0  0
   26.5977   12.1032   32.6884 H   0  0  0  0  0  0
   23.1548   11.4113   30.1695 H   0  0  0  0  0  0
   24.8307   11.3925   29.5232 H   0  0  0  0  0  0
   24.0463   12.9538   29.9402 H   0  0  0  0  0  0
   17.8032   11.6030   33.9552 H   0  0  0  0  0  0
   19.6892   13.3091   32.8688 H   0  0  0  0  0  0
   19.7451   13.2123   34.6616 H   0  0  0  0  0  0
   21.7580   14.2267   33.3619 H   0  0  0  0  0  0
   22.0709   13.0836   34.7117 H   0  0  0  0  0  0
   21.9975   12.4406   31.7615 H   0  0  0  0  0  0
   22.8235   10.6990   34.2559 H   0  0  0  0  0  0
   27.3284   11.0443   30.6176 H   0  0  0  0  0  0
   16.7480    8.0090   33.8128 H   0  0  0  0  0  0
   19.3071    5.2812   33.3548 H   0  0  0  0  0  0
   20.5167    6.3231   34.1782 H   0  0  0  0  0  0
   20.3069    6.4257   32.3971 H   0  0  0  0  0  0
  1  2  2  0  0  0
  1 11  1  0  0  0
  1 23  1  0  0  0
  2 14  1  0  0  0
  2 18  1  0  0  0
  3  4  1  0  0  0
  3 18  1  0  0  0
  3 24  1  0  0  0
  3 25  1  0  0  0
  4  5  1  0  0  0
  4 26  1  0  0  0
  4 27  1  0  0  0
  5  6  1  0  0  0
  5  9  1  0  0  0
  5 10  1  0  0  0
  6  7  1  0  0  0
  6 17  1  0  0  0
  6 28  1  0  0  0
  7  8  1  0  0  0
  7 29  1  0  0  0
  7 30  1  0  0  0
  8  9  1  0  0  0
  8 31  1  0  0  0
  8 32  1  0  0  0
  9 19  1  0  0  0
  9 33  1  0  0  0
 10 34  1  0  0  0
 10 35  1  0  0  0
 10 36  1  0  0  0
 11 12  2  0  0  0
 11 21  1  0  0  0
 12 13  1  0  0  0
 12 20  1  0  0  0
 13 14  2  0  0  0
 13 37  1  0  0  0
 14 15  1  0  0  0
 15 16  1  0  0  0
 15 38  1  0  0  0
 15 39  1  0  0  0
 16 17  1  0  0  0
 16 40  1  0  0  0
 16 41  1  0  0  0
 17 18  1  0  0  0
 17 42  1  0  0  0
 18 43  1  0  0  0
 19 44  1  0  0  0
 20 45  1  0  0  0
 21 22  1  0  0  0
 22 46  1  0  0  0
 22 47  1  0  0  0
 22 48  1  0  0  0
M  END
> <s_m_source_file>
../1lhw_ligand.sdf

> <i_m_source_file_index>
1

> <s_epik_input>
W0NIM11PYyhbY0hdMSljKFtPSF0pW2NIXWMoW0NIMl1bQ0gyXTIpYzFbQ0BASF0oW0NIMl1bQ0gyXTMpW0NAQEhdMltDQEBIXShbQ0BdMzRbQ0gzXSlbQ0gyXVtDSDJdW0NAQEhdNFtPSF0=

> <s_epik_cmdline>
J2VwaWtfYXBwJywgJy1pbWFlJywgJ2xpZ2FuZF9wcm8ubWFlJywgJy1vbWFlJywgJ2xpZ2FuZF9wcmVwLm1hZScsICctbXMnLCAnMScsICctcGgnLCAnNycsICctcGh0JywgJzAuNScsICctbnQn

> <r_lp_tautomer_probability>
1

> <r_epik_Ionization_Penalty>
  0.0001

> <r_epik_Ionization_Penalty_Charging>
  0.0000

> <r_epik_Ionization_Penalty_Neutral>
  0.0001

> <r_epik_State_Penalty>
 -0.0000

> <r_epik_Charging_Adjusted_Penalty>
0

> <i_epik_Tot_Q>
0

> <i_epik_Tot_abs_Q>
0

$$$$
