1li2_ligand
                    3D
 Schrodinger Suite 2020-3.
 13 13  0  0  1  0            999 V2000
   27.4870    6.6370    3.5090 C   0  0  0  0  0  0
   26.7380    5.4850    3.2810 C   0  0  0  0  0  0
   26.0000    4.9200    4.3200 C   0  0  0  0  0  0
   26.0150    5.4820    5.5880 C   0  0  0  0  0  0
   26.7910    6.6160    5.7900 C   0  0  0  0  0  0
   27.5250    7.2200    4.7650 C   0  0  0  0  0  0
   28.2030    7.1990    2.5140 O   0  0  0  0  0  0
   26.7289    5.0262    2.2923 H   0  0  0  0  0  0
   25.4043    4.0263    4.1338 H   0  0  0  0  0  0
   25.4350    5.0466    6.4017 H   0  0  0  0  0  0
   26.8292    7.0526    6.7880 H   0  0  0  0  0  0
   28.1091    8.1218    4.9484 H   0  0  0  0  0  0
   28.7909    8.1088    2.7055 H   0  0  0  0  0  0
  1  7  1  0  0  0
  1  6  2  0  0  0
  1  2  1  0  0  0
  2  3  2  0  0  0
  2  8  1  0  0  0
  3  4  1  0  0  0
  3  9  1  0  0  0
  4  5  2  0  0  0
  4 10  1  0  0  0
  5  6  1  0  0  0
  5 11  1  0  0  0
  6 12  1  0  0  0
  7 13  1  0  0  0
M  END
> <s_m_source_file>
../1li2_ligand.sdf

> <i_m_source_file_index>
1

> <s_epik_input>
W09IXWMxW2NIXVtjSF1bY0hdW2NIXVtjSF0x

> <s_epik_cmdline>
J2VwaWtfYXBwJywgJy1pbWFlJywgJ2xpZ2FuZF9wcm8ubWFlJywgJy1vbWFlJywgJ2xpZ2FuZF9wcmVwLm1hZScsICctbXMnLCAnMScsICctcGgnLCAnNycsICctcGh0JywgJzAuNScsICctbnQn

> <r_lp_tautomer_probability>
1

> <r_epik_Ionization_Penalty>
  0.0009

> <r_epik_Ionization_Penalty_Charging>
  0.0000

> <r_epik_Ionization_Penalty_Neutral>
  0.0009

> <r_epik_State_Penalty>
 -0.0000

> <r_epik_Charging_Adjusted_Penalty>
0

> <i_epik_Tot_Q>
0

> <i_epik_Tot_abs_Q>
0

$$$$
