1li3_ligand
                    3D
 Schrodinger Suite 2020-3.
 13 13  0  0  1  0            999 V2000
   26.7240    5.1420    3.3130 C   0  0  0  0  0  0
   27.5210    5.8410    2.4050 C   0  0  0  0  0  0
   26.4670    5.7800    4.5160 C   0  0  0  0  0  0
   28.0720    7.0990    2.6510 C   0  0  0  0  0  0
   27.0030    7.0320    4.8100 C   0  0  0  0  0  0
   27.8030    7.6930    3.8740 C   0  0  0  0  0  0
   28.3730    8.9120    4.1230 O   0  0  0  0  0  0
   25.6770    5.1440    5.4360 Cl  0  0  0  0  0  0
   26.3269    4.1520    3.0889 H   0  0  0  0  0  0
   27.7261    5.3740    1.4417 H   0  0  0  0  0  0
   28.6929    7.5977    1.9067 H   0  0  0  0  0  0
   26.7976    7.4977    5.7738 H   0  0  0  0  0  0
   28.9958    9.3950    3.3556 H   0  0  0  0  0  0
  1  3  2  0  0  0
  1  2  1  0  0  0
  1  9  1  0  0  0
  2  4  2  0  0  0
  2 10  1  0  0  0
  3  5  1  0  0  0
  3  8  1  0  0  0
  4  6  1  0  0  0
  4 11  1  0  0  0
  5  6  2  0  0  0
  5 12  1  0  0  0
  6  7  1  0  0  0
  7 13  1  0  0  0
M  END
> <s_m_source_file>
../1li3_ligand.sdf

> <i_m_source_file_index>
1

> <s_epik_input>
Q2xjMVtjSF1bY0hdW2NIXWMoW2NIXTEpW09IXQ==

> <s_epik_cmdline>
J2VwaWtfYXBwJywgJy1pbWFlJywgJ2xpZ2FuZF9wcm8ubWFlJywgJy1vbWFlJywgJ2xpZ2FuZF9wcmVwLm1hZScsICctbXMnLCAnMScsICctcGgnLCAnNycsICctcGh0JywgJzAuNScsICctbnQn

> <r_lp_tautomer_probability>
1

> <r_epik_Ionization_Penalty>
  0.0050

> <r_epik_Ionization_Penalty_Charging>
  0.0000

> <r_epik_Ionization_Penalty_Neutral>
  0.0050

> <r_epik_State_Penalty>
 -0.0000

> <r_epik_Charging_Adjusted_Penalty>
0

> <i_epik_Tot_Q>
0

> <i_epik_Tot_abs_Q>
0

$$$$
