1ljt_ligand
                    3D
 Schrodinger Suite 2020-3.
 30 31  0  0  1  0            999 V2000
  -44.2650   43.1200   11.8820 C   0  0  0  0  0  0
  -42.8590   42.6230    9.9600 C   0  0  0  0  0  0
  -42.3970   43.7390    9.6980 O   0  0  0  0  0  0
  -44.0190   42.3620   10.6770 O   0  0  0  0  0  0
  -42.1790   41.3400    9.5080 C   0  0  0  0  0  0
  -40.6100   41.7180    6.4310 N   0  0  0  0  0  0
  -41.0800   42.3130    7.4950 O   0  0  0  0  0  0
  -40.8800   41.5740    8.7110 C   0  0  2  0  0  0
  -40.1680   40.3040    8.2300 C   0  0  0  0  0  0
  -40.0890   40.6050    6.7550 C   0  0  0  0  0  0
  -37.5930   37.0540    3.0540 O   0  0  0  0  0  0
  -39.6370   39.8230    4.3580 C   0  0  0  0  0  0
  -39.4390   39.6630    5.7450 C   0  0  0  0  0  0
  -38.6160   38.6210    6.2030 C   0  0  0  0  0  0
  -38.0080   37.7600    5.3100 C   0  0  0  0  0  0
  -38.2040   37.9170    3.9350 C   0  0  0  0  0  0
  -39.0270   38.9580    3.4620 C   0  0  0  0  0  0
  -45.2165   42.7977   12.3301 H   0  0  0  0  0  0
  -44.3193   44.1910   11.6368 H   0  0  0  0  0  0
  -43.4465   42.9485   12.5966 H   0  0  0  0  0  0
  -41.9183   40.7336   10.3879 H   0  0  0  0  0  0
  -42.8624   40.7713    8.8602 H   0  0  0  0  0  0
  -40.2701   42.1669    9.4085 H   0  0  0  0  0  0
  -39.1897   40.2219    8.7261 H   0  0  0  0  0  0
  -40.7799   39.4242    8.4782 H   0  0  0  0  0  0
  -36.9521   36.2441    3.4326 H   0  0  0  0  0  0
  -40.2714   40.6289    3.9891 H   0  0  0  0  0  0
  -38.4555   38.4905    7.2732 H   0  0  0  0  0  0
  -37.3728   36.9549    5.6792 H   0  0  0  0  0  0
  -39.1844   39.0837    2.3908 H   0  0  0  0  0  0
  1  4  1  0  0  0
  1 18  1  0  0  0
  1 19  1  0  0  0
  1 20  1  0  0  0
  2  3  2  0  0  0
  2  4  1  0  0  0
  2  5  1  0  0  0
  5  8  1  0  0  0
  5 21  1  0  0  0
  5 22  1  0  0  0
  6  7  1  0  0  0
  6 10  2  0  0  0
  7  8  1  0  0  0
  8  9  1  0  0  0
  8 23  1  0  0  0
  9 10  1  0  0  0
  9 24  1  0  0  0
  9 25  1  0  0  0
 10 13  1  0  0  0
 11 16  1  0  0  0
 11 26  1  0  0  0
 12 17  2  0  0  0
 12 13  1  0  0  0
 12 27  1  0  0  0
 13 14  2  0  0  0
 14 15  1  0  0  0
 14 28  1  0  0  0
 15 16  2  0  0  0
 15 29  1  0  0  0
 16 17  1  0  0  0
 17 30  1  0  0  0
M  END
> <s_m_source_file>
../1ljt_ligand.sdf

> <i_m_source_file_index>
1

> <s_epik_input>
W0NIM11PQyg9TylbQ0gyXVtDQEBIXTFPTj1DKFtDSDJdMSljMltjSF1bY0hdYyhbT0hdKVtjSF1bY0hdMg==

> <s_epik_cmdline>
J2VwaWtfYXBwJywgJy1pbWFlJywgJ2xpZ2FuZF9wcm8ubWFlJywgJy1vbWFlJywgJ2xpZ2FuZF9wcmVwLm1hZScsICctbXMnLCAnMScsICctcGgnLCAnNycsICctcGh0JywgJzAuNScsICctbnQn

> <r_lp_tautomer_probability>
1

> <r_epik_Ionization_Penalty>
  0.0023

> <r_epik_Ionization_Penalty_Charging>
  0.0000

> <r_epik_Ionization_Penalty_Neutral>
  0.0023

> <r_epik_State_Penalty>
 -0.0000

> <r_epik_Charging_Adjusted_Penalty>
0

> <i_epik_Tot_Q>
0

> <i_epik_Tot_abs_Q>
0

> <s_epik_Chemistry_Notes>
This compound has an ester and may undergo hydrolysis at high or low pH. This compound has an imine and may undergo hydrolysis.

$$$$
