1lke_ligand
                    3D
 Schrodinger Suite 2020-3.
 62 66  0  0  1  0            999 V2000
   15.2650  -21.2770   37.4530 O   0  0  0  0  0  0
   14.6030  -22.2720   37.4610 C   0  0  0  0  0  0
   13.4710  -22.6250   36.6410 C   0  0  0  0  0  0
   14.8390  -23.3060   38.2920 O   0  0  0  0  0  0
   13.9160  -24.3950   38.0480 C   0  0  0  0  0  0
   13.0620  -23.8540   36.9790 C   0  0  0  0  0  0
   11.9260  -24.6400   36.4590 C   0  0  1  0  0  0
   12.1300  -26.1830   36.3780 C   0  0  0  0  0  0
   10.5510  -24.4330   37.2170 C   0  0  1  0  0  0
   10.5420  -23.2570   38.1900 C   0  0  0  0  0  0
    9.4700  -24.2150   36.1290 C   0  0  2  0  0  0
    9.6080  -22.8950   35.5440 O   0  0  0  0  0  0
   10.3040  -25.7990   37.9190 C   0  0  1  0  0  0
   10.8390  -26.8230   36.9020 C   0  0  0  0  0  0
   11.2120  -25.9320   39.0410 O   0  0  0  0  0  0
    8.8450  -26.0090   38.3570 C   0  0  2  0  0  0
    8.6220  -27.4280   38.8860 C   0  0  0  0  0  0
    7.7830  -25.6750   37.2840 C   0  0  2  0  0  0
    8.0680  -24.2710   36.6520 C   0  0  0  0  0  0
    6.3470  -25.8090   37.8600 C   0  0  2  0  0  0
    6.0900  -24.7760   38.9900 C   0  0  0  0  0  0
    6.1190  -27.2550   38.3960 C   0  0  2  0  0  0
    7.2120  -27.6550   39.4110 C   0  0  0  0  0  0
    6.0880  -28.3180   37.2770 C   0  0  0  0  0  0
    5.0730  -27.9620   36.1890 C   0  0  1  0  0  0
    3.7660  -28.0980   36.7460 O   0  0  0  0  0  0
    5.2890  -26.5800   35.6480 C   0  0  0  0  0  0
    5.2750  -25.5600   36.7670 C   0  0  0  0  0  0
   12.9479  -22.0698   35.8484 H   0  0  0  0  0  0
   14.4770  -25.2882   37.7357 H   0  0  0  0  0  0
   13.3580  -24.6162   38.9698 H   0  0  0  0  0  0
   11.9552  -24.1809   35.4598 H   0  0  0  0  0  0
   12.3163  -26.4739   35.3336 H   0  0  0  0  0  0
   12.9911  -26.4721   36.9984 H   0  0  0  0  0  0
   10.7211  -22.3227   37.6376 H   0  0  0  0  0  0
   11.3335  -23.3964   38.9410 H   0  0  0  0  0  0
    9.5649  -23.2044   38.6925 H   0  0  0  0  0  0
    9.6063  -24.9942   35.3647 H   0  0  0  0  0  0
   10.5602  -22.5948   35.0824 H   0  0  0  0  0  0
   10.1421  -26.9803   36.0656 H   0  0  0  0  0  0
   11.0732  -27.7901   37.3709 H   0  0  0  0  0  0
   12.2946  -25.8091   38.8900 H   0  0  0  0  0  0
    8.7007  -25.2835   39.1712 H   0  0  0  0  0  0
    8.7968  -28.1526   38.0770 H   0  0  0  0  0  0
    9.3208  -27.6253   39.7123 H   0  0  0  0  0  0
    7.8537  -26.4184   36.4763 H   0  0  0  0  0  0
    7.9321  -23.4957   37.4204 H   0  0  0  0  0  0
    7.3616  -24.0972   35.8269 H   0  0  0  0  0  0
    6.8310  -24.9165   39.7907 H   0  0  0  0  0  0
    5.0784  -24.9217   39.3968 H   0  0  0  0  0  0
    6.1785  -23.7579   38.5831 H   0  0  0  0  0  0
    5.1337  -27.2420   38.8848 H   0  0  0  0  0  0
    7.0756  -28.7208   39.6464 H   0  0  0  0  0  0
    7.0586  -27.0560   40.3208 H   0  0  0  0  0  0
    7.0827  -28.3910   36.8130 H   0  0  0  0  0  0
    5.8105  -29.2927   37.7047 H   0  0  0  0  0  0
    5.1319  -28.6514   35.3339 H   0  0  0  0  0  0
    3.4524  -29.0564   37.1854 H   0  0  0  0  0  0
    6.2620  -26.5342   35.1370 H   0  0  0  0  0  0
    4.4882  -26.3363   34.9343 H   0  0  0  0  0  0
    4.2738  -25.5903   37.2217 H   0  0  0  0  0  0
    5.4402  -24.5734   36.3094 H   0  0  0  0  0  0
  1  2  2  0  0  0
  2  3  1  0  0  0
  2  4  1  0  0  0
  3  6  2  0  0  0
  3 29  1  0  0  0
  4  5  1  0  0  0
  5  6  1  0  0  0
  5 30  1  0  0  0
  5 31  1  0  0  0
  6  7  1  0  0  0
  7  8  1  0  0  0
  7  9  1  0  0  0
  7 32  1  0  0  0
  8 14  1  0  0  0
  8 33  1  0  0  0
  8 34  1  0  0  0
  9 10  1  0  0  0
  9 11  1  0  0  0
  9 13  1  0  0  0
 10 35  1  0  0  0
 10 36  1  0  0  0
 10 37  1  0  0  0
 11 12  1  0  0  0
 11 19  1  0  0  0
 11 38  1  0  0  0
 12 39  1  0  0  0
 13 14  1  0  0  0
 13 15  1  0  0  0
 13 16  1  0  0  0
 14 40  1  0  0  0
 14 41  1  0  0  0
 15 42  1  0  0  0
 16 17  1  0  0  0
 16 18  1  0  0  0
 16 43  1  0  0  0
 17 23  1  0  0  0
 17 44  1  0  0  0
 17 45  1  0  0  0
 18 19  1  0  0  0
 18 20  1  0  0  0
 18 46  1  0  0  0
 19 47  1  0  0  0
 19 48  1  0  0  0
 20 21  1  0  0  0
 20 22  1  0  0  0
 20 28  1  0  0  0
 21 49  1  0  0  0
 21 50  1  0  0  0
 21 51  1  0  0  0
 22 23  1  0  0  0
 22 24  1  0  0  0
 22 52  1  0  0  0
 23 53  1  0  0  0
 23 54  1  0  0  0
 24 25  1  0  0  0
 24 55  1  0  0  0
 24 56  1  0  0  0
 25 26  1  0  0  0
 25 27  1  0  0  0
 25 57  1  0  0  0
 26 58  1  0  0  0
 27 28  1  0  0  0
 27 59  1  0  0  0
 27 60  1  0  0  0
 28 61  1  0  0  0
 28 62  1  0  0  0
M  END
> <s_m_source_file>
../1lke_ligand.sdf

> <i_m_source_file_index>
1

> <s_epik_input>
Tz1DMVtDSF09QyhbQ0gyXU8xKVtDQEhdMltDSDJdW0NIMl1bQ0BAXShbT0hdKShbQ0BAXTIzW0NIM10pW0NASF00W0NASF0oW0NIMl1bQ0BIXTNbT0hdKVtDQF01KFtDSDNdKVtDQEhdKFtDSDJdW0NIMl00KVtDSDJdW0NAQEhdKFtPSF0pW0NIMl1bQ0gyXTU=

> <s_epik_cmdline>
J2VwaWtfYXBwJywgJy1pbWFlJywgJ2xpZ2FuZF9wcm8ubWFlJywgJy1vbWFlJywgJ2xpZ2FuZF9wcmVwLm1hZScsICctbXMnLCAnMScsICctcGgnLCAnNycsICctcGh0JywgJzAuNScsICctbnQn

> <r_lp_tautomer_probability>
1

> <r_epik_Ionization_Penalty>
  0.0000

> <r_epik_Ionization_Penalty_Charging>
  0.0000

> <r_epik_Ionization_Penalty_Neutral>
  0.0000

> <r_epik_State_Penalty>
 -0.0000

> <r_epik_Charging_Adjusted_Penalty>
0

> <i_epik_Tot_Q>
0

> <i_epik_Tot_abs_Q>
0

> <s_epik_Chemistry_Notes>
This compound has an ester and may undergo hydrolysis at high or low pH.

$$$$
