1lkk_ligand
                    3D
 Schrodinger Suite 2020-3.
 80 80  0  0  1  0            999 V2000
   28.8610   -4.7940   -3.5820 C   0  0  0  0  0  0
   28.6600   -4.0550   -2.2920 C   0  0  0  0  0  0
   29.1410   -4.4820   -1.2000 O   0  0  0  0  0  0
   27.9920   -2.9090   -2.3540 N   0  0  0  0  0  0
   27.7720   -2.0420   -1.2120 C   0  0  2  0  0  0
   26.2910   -1.9860   -0.8630 C   0  0  0  0  0  0
   25.4100   -1.8900   -1.7450 O   0  0  0  0  0  0
   28.2900   -0.6370   -1.5010 C   0  0  0  0  0  0
   29.8120   -0.5510   -1.6050 C   0  0  0  0  0  0
   30.5680   -0.4220   -0.4380 C   0  0  0  0  0  0
   30.4580   -0.5760   -2.8230 C   0  0  0  0  0  0
   31.9510   -0.3440   -0.5240 C   0  0  0  0  0  0
   31.8470   -0.5120   -2.9190 C   0  0  0  0  0  0
   32.5660   -0.3850   -1.7380 C   0  0  0  0  0  0
   33.9590   -0.1890   -1.8140 O   0  0  0  0  0  0
   26.0100   -1.9430    0.4220 N   0  0  0  0  0  0
   24.7090   -1.5990    0.9540 C   0  0  2  0  0  0
   24.5340   -0.0730    0.8900 C   0  0  0  0  0  0
   25.4950    0.6790    0.9110 O   0  0  0  0  0  0
   24.6070   -2.0780    2.4120 C   0  0  0  0  0  0
   24.3580   -3.5510    2.5580 C   0  0  0  0  0  0
   22.9540   -3.9630    2.1470 C   0  0  0  0  0  0
   21.9780   -3.5060    2.8140 O   0  5  0  0  0  0
   22.8010   -4.5810    1.0880 O   0  0  0  0  0  0
   23.2600    0.3060    0.8790 N   0  0  0  0  0  0
   22.8070    1.6850    0.9550 C   0  0  2  0  0  0
   21.9240    1.8330    2.2120 C   0  0  0  0  0  0
   21.1770    0.9190    2.5730 O   0  0  0  0  0  0
   21.9690    2.0440   -0.2740 C   0  0  0  0  0  0
   22.6690    1.9710   -1.5960 C   0  0  0  0  0  0
   23.5940    3.1020   -1.9320 C   0  0  0  0  0  0
   23.8730    3.9610   -1.0750 O   0  0  0  0  0  0
   24.0760    3.1340   -3.0930 O   0  5  0  0  0  0
   21.9430    3.0130    2.8020 N   0  0  0  0  0  0
   20.8590    3.3710    3.7270 C   0  0  2  0  0  0
   19.5540    3.5240    2.9430 C   0  0  0  0  0  0
   19.5830    4.1690    1.8700 O   0  0  0  0  0  0
   21.2430    4.6690    4.4870 C   0  0  2  0  0  0
   22.3670    4.3990    5.4700 C   0  0  0  0  0  0
   20.0300    5.2890    5.1220 C   0  0  0  0  0  0
   22.8740    5.5610    6.2660 C   0  0  0  0  0  0
   18.5250    2.9450    3.3970 O   0  5  0  0  0  0
   35.0610   -1.3700   -1.5240 P   0  0  0  0  0  0
   35.5390   -1.8270   -2.8860 O   0  5  0  0  0  0
   34.3780   -2.4450   -0.7200 O   0  0  0  0  0  0
   36.1530   -0.5940   -0.7600 O   0  5  0  0  0  0
   29.4246   -5.7190   -3.3906 H   0  0  0  0  0  0
   29.4234   -4.1605   -4.2837 H   0  0  0  0  0  0
   27.8824   -5.0443   -4.0175 H   0  0  0  0  0  0
   27.5957   -2.6294   -3.3413 H   0  0  0  0  0  0
   28.3393   -2.4955   -0.3859 H   0  0  0  0  0  0
   27.8766   -0.2833   -2.4570 H   0  0  0  0  0  0
   27.9788    0.0419   -0.6934 H   0  0  0  0  0  0
   30.0754   -0.3828    0.5336 H   0  0  0  0  0  0
   29.8663   -0.6478   -3.7356 H   0  0  0  0  0  0
   32.5470   -0.2496    0.3837 H   0  0  0  0  0  0
   32.3499   -0.5598   -3.8849 H   0  0  0  0  0  0
   26.8362   -2.1888    1.1054 H   0  0  0  0  0  0
   23.9640   -2.1105    0.3268 H   0  0  0  0  0  0
   25.5472   -1.8553    2.9377 H   0  0  0  0  0  0
   23.7759   -1.5585    2.9113 H   0  0  0  0  0  0
   25.0663   -4.1070    1.9262 H   0  0  0  0  0  0
   24.4964   -3.8439    3.6092 H   0  0  0  0  0  0
   22.5266   -0.5106    0.8062 H   0  0  0  0  0  0
   23.7129    2.3080    0.9893 H   0  0  0  0  0  0
   21.1118    1.3584   -0.3463 H   0  0  0  0  0  0
   21.6048    3.0777   -0.1803 H   0  0  0  0  0  0
   23.2846    1.0603   -1.6351 H   0  0  0  0  0  0
   21.9237    1.9447   -2.4046 H   0  0  0  0  0  0
   22.7583    3.7255    2.6080 H   0  0  0  0  0  0
   20.7359    2.5456    4.4436 H   0  0  0  0  0  0
   21.6246    5.4339    3.7947 H   0  0  0  0  0  0
   22.0352    3.6575    6.2117 H   0  0  0  0  0  0
   23.2420    4.0099    4.9287 H   0  0  0  0  0  0
   19.2595    5.4560    4.3549 H   0  0  0  0  0  0
   20.3065    6.2504    5.5794 H   0  0  0  0  0  0
   19.6362    4.6143    5.8964 H   0  0  0  0  0  0
   23.6814    5.2242    6.9329 H   0  0  0  0  0  0
   22.0532    5.9801    6.8665 H   0  0  0  0  0  0
   23.2600    6.3325    5.5835 H   0  0  0  0  0  0
  1  2  1  0  0  0
  1 47  1  0  0  0
  1 48  1  0  0  0
  1 49  1  0  0  0
  2  3  2  0  0  0
  2  4  1  0  0  0
  4  5  1  0  0  0
  4 50  1  0  0  0
  5  6  1  0  0  0
  5  8  1  0  0  0
  5 51  1  0  0  0
  6  7  2  0  0  0
  6 16  1  0  0  0
  8  9  1  0  0  0
  8 52  1  0  0  0
  8 53  1  0  0  0
  9 11  2  0  0  0
  9 10  1  0  0  0
 10 12  2  0  0  0
 10 54  1  0  0  0
 11 13  1  0  0  0
 11 55  1  0  0  0
 12 14  1  0  0  0
 12 56  1  0  0  0
 13 14  2  0  0  0
 13 57  1  0  0  0
 14 15  1  0  0  0
 15 43  1  0  0  0
 16 17  1  0  0  0
 16 58  1  0  0  0
 17 18  1  0  0  0
 17 20  1  0  0  0
 17 59  1  0  0  0
 18 19  2  0  0  0
 18 25  1  0  0  0
 20 21  1  0  0  0
 20 60  1  0  0  0
 20 61  1  0  0  0
 21 22  1  0  0  0
 21 62  1  0  0  0
 21 63  1  0  0  0
 22 23  1  0  0  0
 22 24  2  0  0  0
 25 26  1  0  0  0
 25 64  1  0  0  0
 26 27  1  0  0  0
 26 29  1  0  0  0
 26 65  1  0  0  0
 27 28  2  0  0  0
 27 34  1  0  0  0
 29 30  1  0  0  0
 29 66  1  0  0  0
 29 67  1  0  0  0
 30 31  1  0  0  0
 30 68  1  0  0  0
 30 69  1  0  0  0
 31 32  2  0  0  0
 31 33  1  0  0  0
 34 35  1  0  0  0
 34 70  1  0  0  0
 35 36  1  0  0  0
 35 38  1  0  0  0
 35 71  1  0  0  0
 36 42  1  0  0  0
 36 37  2  0  0  0
 38 39  1  0  0  0
 38 40  1  0  0  0
 38 72  1  0  0  0
 39 41  1  0  0  0
 39 73  1  0  0  0
 39 74  1  0  0  0
 40 75  1  0  0  0
 40 76  1  0  0  0
 40 77  1  0  0  0
 41 78  1  0  0  0
 41 79  1  0  0  0
 41 80  1  0  0  0
 43 46  1  0  0  0
 43 45  2  0  0  0
 43 44  1  0  0  0
M  CHG  5  23  -1  33  -1  42  -1  44  -1  46  -1
M  END
> <s_m_source_file>
../1lkk_ligand.sdf

> <i_m_source_file_index>
1

> <s_epik_input>
W09IXVAoPU8pKFtPSF0pT2MoW2NIXVtjSF0xKVtjSF1bY0hdYzFbQ0gyXVtDQEhdKFtOSF1DKD1PKVtDSDNdKUMoPU8pW05IXVtDQEBIXShbQ0gyXVtDSDJdQyg9TylbT0hdKUMoPU8pW05IXVtDQEBIXShbQ0gyXVtDSDJdQyg9TylbT0hdKUMoPU8pW05IXVtDQEhdKEMoPU8pW09IXSlbQ0BASF0oW0NIM10pW0NIMl1bQ0gzXQ==

> <s_epik_cmdline>
J2VwaWtfYXBwJywgJy1pbWFlJywgJ2xpZ2FuZF9wcm8ubWFlJywgJy1vbWFlJywgJ2xpZ2FuZF9wcmVwLm1hZScsICctbXMnLCAnMScsICctcGgnLCAnNycsICctcGh0JywgJzAuNScsICctbnQn

> <r_epik_Ionization_Penalty>
  0.0880

> <r_epik_Ionization_Penalty_Charging>
  0.0880

> <r_epik_Ionization_Penalty_Neutral>
  0.0000

> <r_epik_State_Penalty>
  0.0749

> <r_epik_Charging_Adjusted_Penalty>
0.162898532736889

> <i_epik_Tot_Q>
-5

> <i_epik_Tot_abs_Q>
5

$$$$
