1lkl_ligand
                    3D
 Schrodinger Suite 2020-3.
 68 68  0  0  1  0            999 V2000
   28.9270   -4.9240   -3.5800 C   0  0  0  0  0  0
   28.7210   -4.0850   -2.3300 C   0  0  0  0  0  0
   29.1730   -4.4970   -1.2560 O   0  0  0  0  0  0
   28.0400   -2.9510   -2.4390 N   0  0  0  0  0  0
   27.8080   -2.0810   -1.3080 C   0  0  2  0  0  0
   26.3360   -1.9770   -0.9450 C   0  0  0  0  0  0
   25.4560   -2.0900   -1.8050 O   0  0  0  0  0  0
   28.3570   -0.6790   -1.5930 C   0  0  0  0  0  0
   29.8720   -0.6260   -1.6670 C   0  0  0  0  0  0
   30.6320   -0.5030   -0.5070 C   0  0  0  0  0  0
   30.5390   -0.6550   -2.8980 C   0  0  0  0  0  0
   32.0190   -0.3960   -0.5570 C   0  0  0  0  0  0
   31.9370   -0.5530   -2.9630 C   0  0  0  0  0  0
   32.6650   -0.4180   -1.7850 C   0  0  0  0  0  0
   34.0280   -0.2590   -1.8330 O   0  0  0  0  0  0
   26.0940   -1.8170    0.3480 N   0  0  0  0  0  0
   24.7690   -1.6400    0.8820 C   0  0  2  0  0  0
   24.5470   -0.1420    0.9410 C   0  0  0  0  0  0
   25.5030    0.6280    0.9760 O   0  0  0  0  0  0
   24.6900   -2.2320    2.2880 C   0  0  0  0  0  0
   24.3020   -3.6800    2.2990 C   0  0  0  0  0  0
   22.8800   -3.8910    1.7910 C   0  0  0  0  0  0
   21.9330   -3.3720    2.4300 O   0  5  0  0  0  0
   22.7120   -4.5650    0.7560 O   0  0  0  0  0  0
   23.2860    0.2700    0.9080 N   0  0  0  0  0  0
   22.9300    1.6800    0.9760 C   0  0  2  0  0  0
   22.3670    1.9390    2.3690 C   0  0  0  0  0  0
   21.6290    1.1040    2.9040 O   0  0  0  0  0  0
   21.8400    2.0020   -0.0500 C   0  0  0  0  0  0
   22.2220    1.7210   -1.4920 C   0  0  0  0  0  0
   23.2090    2.7330   -2.0560 C   0  0  0  0  0  0
   23.1180    3.9320   -1.6970 O   0  0  0  0  0  0
   24.0630    2.3370   -2.8870 O   0  5  0  0  0  0
   22.7010    3.0930    2.9330 N   0  0  0  0  0  0
   22.2100    3.4680    4.2470 C   0  0  0  0  0  0
   21.1600    4.5540    4.0960 C   0  0  0  0  0  0
   20.3850    4.4870    3.1110 O   0  5  0  0  0  0
   21.1310    5.4880    4.9270 O   0  0  0  0  0  0
   35.0920   -1.4330   -1.5510 P   0  0  0  0  0  0
   35.6000   -1.9870   -2.8210 O   0  5  0  0  0  0
   34.4900   -2.4960   -0.7480 O   0  0  0  0  0  0
   36.1150   -0.7100   -0.7650 O   0  5  0  0  0  0
   29.5053   -5.8246   -3.3259 H   0  0  0  0  0  0
   29.4755   -4.3356   -4.3303 H   0  0  0  0  0  0
   27.9493   -5.2192   -3.9887 H   0  0  0  0  0  0
   27.6470   -2.6810   -3.4303 H   0  0  0  0  0  0
   28.3467   -2.5768   -0.4871 H   0  0  0  0  0  0
   27.9674   -0.3218   -2.5577 H   0  0  0  0  0  0
   28.0420    0.0077   -0.7934 H   0  0  0  0  0  0
   30.1304   -0.4902    0.4606 H   0  0  0  0  0  0
   29.9643   -0.7582   -3.8184 H   0  0  0  0  0  0
   32.5944   -0.2955    0.3632 H   0  0  0  0  0  0
   32.4471   -0.5792   -3.9259 H   0  0  0  0  0  0
   26.9626   -1.8236    1.0229 H   0  0  0  0  0  0
   24.0489   -2.1527    0.2273 H   0  0  0  0  0  0
   25.6717   -2.1478    2.7770 H   0  0  0  0  0  0
   23.9395   -1.6828    2.8755 H   0  0  0  0  0  0
   24.9868   -4.2480    1.6522 H   0  0  0  0  0  0
   24.3619   -4.0679    3.3266 H   0  0  0  0  0  0
   22.4978   -0.4929    0.8264 H   0  0  0  0  0  0
   23.8398    2.2615    0.7663 H   0  0  0  0  0  0
   20.9450    1.3995    0.1646 H   0  0  0  0  0  0
   21.5854    3.0705    0.0086 H   0  0  0  0  0  0
   22.6880    0.7270   -1.5608 H   0  0  0  0  0  0
   21.3207    1.7478   -2.1220 H   0  0  0  0  0  0
   23.3667    3.7721    2.3802 H   0  0  0  0  0  0
   21.7647    2.5893    4.7365 H   0  0  0  0  0  0
   23.0448    3.8437    4.8569 H   0  0  0  0  0  0
  1  2  1  0  0  0
  1 43  1  0  0  0
  1 44  1  0  0  0
  1 45  1  0  0  0
  2  3  2  0  0  0
  2  4  1  0  0  0
  4  5  1  0  0  0
  4 46  1  0  0  0
  5  6  1  0  0  0
  5  8  1  0  0  0
  5 47  1  0  0  0
  6  7  2  0  0  0
  6 16  1  0  0  0
  8  9  1  0  0  0
  8 48  1  0  0  0
  8 49  1  0  0  0
  9 11  2  0  0  0
  9 10  1  0  0  0
 10 12  2  0  0  0
 10 50  1  0  0  0
 11 13  1  0  0  0
 11 51  1  0  0  0
 12 14  1  0  0  0
 12 52  1  0  0  0
 13 14  2  0  0  0
 13 53  1  0  0  0
 14 15  1  0  0  0
 15 39  1  0  0  0
 16 17  1  0  0  0
 16 54  1  0  0  0
 17 18  1  0  0  0
 17 20  1  0  0  0
 17 55  1  0  0  0
 18 19  2  0  0  0
 18 25  1  0  0  0
 20 21  1  0  0  0
 20 56  1  0  0  0
 20 57  1  0  0  0
 21 22  1  0  0  0
 21 58  1  0  0  0
 21 59  1  0  0  0
 22 23  1  0  0  0
 22 24  2  0  0  0
 25 26  1  0  0  0
 25 60  1  0  0  0
 26 27  1  0  0  0
 26 29  1  0  0  0
 26 61  1  0  0  0
 27 28  2  0  0  0
 27 34  1  0  0  0
 29 30  1  0  0  0
 29 62  1  0  0  0
 29 63  1  0  0  0
 30 31  1  0  0  0
 30 64  1  0  0  0
 30 65  1  0  0  0
 31 32  2  0  0  0
 31 33  1  0  0  0
 34 35  1  0  0  0
 34 66  1  0  0  0
 35 36  1  0  0  0
 35 67  1  0  0  0
 35 68  1  0  0  0
 36 38  2  0  0  0
 36 37  1  0  0  0
 39 42  1  0  0  0
 39 41  2  0  0  0
 39 40  1  0  0  0
M  CHG  5  23  -1  33  -1  37  -1  40  -1  42  -1
M  END
> <s_m_source_file>
../1lkl_ligand.sdf

> <i_m_source_file_index>
1

> <s_epik_input>
W09IXVAoPU8pKFtPSF0pT2MoW2NIXVtjSF0xKVtjSF1bY0hdYzFbQ0gyXVtDQEhdKFtOSF1DKD1PKVtDSDNdKUMoPU8pW05IXVtDQEBIXShbQ0gyXVtDSDJdQyg9TylbT0hdKUMoPU8pW05IXVtDQEBIXShbQ0gyXVtDSDJdQyg9TylbT0hdKUMoPU8pW05IXVtDSDJdQyg9TylbT0hd

> <s_epik_cmdline>
J2VwaWtfYXBwJywgJy1pbWFlJywgJ2xpZ2FuZF9wcm8ubWFlJywgJy1vbWFlJywgJ2xpZ2FuZF9wcmVwLm1hZScsICctbXMnLCAnMScsICctcGgnLCAnNycsICctcGh0JywgJzAuNScsICctbnQn

> <r_epik_Ionization_Penalty>
  0.0880

> <r_epik_Ionization_Penalty_Charging>
  0.0880

> <r_epik_Ionization_Penalty_Neutral>
  0.0000

> <r_epik_State_Penalty>
  0.0749

> <r_epik_Charging_Adjusted_Penalty>
0.162879294128492

> <i_epik_Tot_Q>
-5

> <i_epik_Tot_abs_Q>
5

$$$$
