1lkx_ligand
                    3D
 Schrodinger Suite 2020-3.
 39 41  0  0  1  0            999 V2000
  127.7590   85.0890  -10.4070 P   0  0  0  0  0  0
  127.9770   86.0820   -9.3200 O   0  5  0  0  0  0
  127.8390   85.5660  -11.7820 O   0  0  0  0  0  0
  128.7730   83.9800  -10.0920 O   0  5  0  0  0  0
  125.0640   84.9780   -9.5550 P   0  0  1  0  0  0
  125.2220   84.9380   -8.0940 O   0  0  0  0  0  0
  124.7850   86.2880  -10.2030 O   0  5  0  0  0  0
  126.3470   84.4200  -10.3110 O   0  0  0  0  0  0
  123.9350   83.9300   -9.8740 O   0  0  0  0  0  0
  123.4060   83.9720  -11.2020 C   0  0  0  0  0  0
  121.9550   83.7400  -11.0700 C   0  0  1  0  0  0
  121.9070   82.4610  -10.5090 O   0  0  0  0  0  0
  121.2810   84.5520  -10.0350 C   0  0  1  0  0  0
  121.1290   85.9490  -10.2690 O   0  0  0  0  0  0
  120.0710   83.6950   -9.7750 C   0  0  1  0  0  0
  119.0390   83.8140  -10.7210 O   0  0  0  0  0  0
  120.7540   82.3610   -9.6900 C   0  0  2  0  0  0
  121.1970   81.9770   -8.3420 N   0  0  0  0  0  0
  122.4690   81.7890   -7.8670 C   0  0  0  0  0  0
  122.5110   81.3100   -6.6670 N   0  0  0  0  0  0
  121.1820   81.1700   -6.3270 C   0  0  0  0  0  0
  120.5790   80.6960   -5.1660 C   0  0  0  0  0  0
  121.2970   80.3720   -4.1290 N   0  0  0  0  0  0
  119.1750   80.6610   -5.1180 N   0  0  0  0  0  0
  118.4370   81.1090   -6.2290 C   0  0  0  0  0  0
  118.9430   81.5860   -7.3750 N   0  0  0  0  0  0
  120.3480   81.5780   -7.3520 C   0  0  0  0  0  0
  123.6119   84.9564  -11.6477 H   0  0  0  0  0  0
  123.8799   83.1876  -11.8105 H   0  0  0  0  0  0
  121.4697   83.8965  -12.0447 H   0  0  0  0  0  0
  121.8859   84.7911   -9.1479 H   0  0  0  0  0  0
  122.0138   86.5743  -10.4589 H   0  0  0  0  0  0
  119.4215   83.9651   -8.9293 H   0  0  0  0  0  0
  118.5005   84.7669  -10.8306 H   0  0  0  0  0  0
  120.0664   81.5702  -10.0244 H   0  0  0  0  0  0
  123.3620   82.0217   -8.4471 H   0  0  0  0  0  0
  122.3949   80.4062   -4.1878 H   0  0  0  0  0  0
  120.8056   80.0641   -3.1943 H   0  0  0  0  0  0
  117.3508   81.0639   -6.1504 H   0  0  0  0  0  0
  1  2  1  0  0  0
  1  3  2  0  0  0
  1  4  1  0  0  0
  1  8  1  0  0  0
  5  6  2  0  0  0
  5  7  1  0  0  0
  5  8  1  0  0  0
  5  9  1  0  0  0
  9 10  1  0  0  0
 10 11  1  0  0  0
 10 28  1  0  0  0
 10 29  1  0  0  0
 11 12  1  0  0  0
 11 13  1  0  0  0
 11 30  1  0  0  0
 12 17  1  0  0  0
 13 14  1  0  0  0
 13 15  1  0  0  0
 13 31  1  0  0  0
 14 32  1  0  0  0
 15 16  1  0  0  0
 15 17  1  0  0  0
 15 33  1  0  0  0
 16 34  1  0  0  0
 17 18  1  0  0  0
 17 35  1  0  0  0
 18 19  1  0  0  0
 18 27  1  0  0  0
 19 20  2  0  0  0
 19 36  1  0  0  0
 20 21  1  0  0  0
 21 22  2  0  0  0
 21 27  1  0  0  0
 22 23  1  0  0  0
 22 24  1  0  0  0
 23 37  1  0  0  0
 23 38  1  0  0  0
 24 25  2  0  0  0
 25 26  1  0  0  0
 25 39  1  0  0  0
 26 27  2  0  0  0
M  CHG  3   2  -1   4  -1   7  -1
M  END
> <s_m_source_file>
../1lkx_ligand.sdf

> <i_m_source_file_index>
1

> <s_epik_input>
W09IXVAoPU8pKFtPSF0pT1tQQEBdKD1PKShbT0hdKU9bQ0gyXVtDQEhdMU9bQ0BIXShbQ0BIXShbT0hdKVtDQEBIXTFbT0hdKW4oW2NIXW4yKWMoYzIzKW5bY0hdbmMzW05IMl0=

> <s_epik_cmdline>
J2VwaWtfYXBwJywgJy1pbWFlJywgJ2xpZ2FuZF9wcm8ubWFlJywgJy1vbWFlJywgJ2xpZ2FuZF9wcmVwLm1hZScsICctbXMnLCAnMScsICctcGgnLCAnNycsICctcGh0JywgJzAuNScsICctbnQn

> <r_lp_tautomer_probability>
0.999997216410988

> <r_epik_Ionization_Penalty>
  0.1037

> <r_epik_Ionization_Penalty_Charging>
  0.1033

> <r_epik_Ionization_Penalty_Neutral>
  0.0004

> <r_epik_State_Penalty>
  0.0922

> <r_epik_Charging_Adjusted_Penalty>
0.19546844050481

> <i_epik_Tot_Q>
-3

> <i_epik_Tot_abs_Q>
3

> <s_epik_Chemistry_Notes>
This compound contains an acetal/aminal-like group ( X-CH(R)-Y where X, Y are N, S, or O) that may be acid/base labile, releasing an aldehyde.

$$$$
