1ll4_ligand
                    3D
 Schrodinger Suite 2020-3.
 88 91  0  0  1  0            999 V2000
   68.3290   34.1290   51.6790 C   0  0  1  0  0  0
   69.5780   35.0150   51.5730 C   0  0  1  0  0  0
   70.1640   35.4510   52.8660 C   0  0  1  0  0  0
   69.0480   35.8470   53.8390 C   0  0  1  0  0  0
   67.9030   34.8450   53.8540 C   0  0  1  0  0  0
   66.6980   35.0210   54.8170 C   0  0  0  0  0  0
   71.1540   34.6340   49.8470 C   0  0  0  0  0  0
   70.7770   35.9710   49.2930 C   0  0  0  0  0  0
   70.6410   34.2470   50.9820 N   0  0  0  0  0  0
   71.0010   34.4650   53.4360 O   0  0  0  0  0  0
   69.6530   35.8200   55.1170 O   0  0  0  0  0  0
   67.3610   34.7370   52.5230 O   0  0  0  0  0  0
   65.7510   33.9490   54.6870 O   0  0  0  0  0  0
   71.9210   33.9170   49.2310 O   0  0  0  0  0  0
   65.4010   30.6850   49.0450 C   0  0  1  0  0  0
   65.3780   30.8670   50.5690 C   0  0  1  0  0  0
   65.9320   32.2450   51.0230 C   0  0  1  0  0  0
   67.3090   32.4680   50.2990 C   0  0  1  0  0  0
   67.2070   32.1700   48.8120 C   0  0  1  0  0  0
   68.4900   32.2060   47.9660 C   0  0  0  0  0  0
   63.5870   30.0540   52.0110 C   0  0  0  0  0  0
   64.7010   29.6200   52.9530 C   0  0  0  0  0  0
   63.9820   30.7530   50.9590 N   0  0  0  0  0  0
   65.0460   33.3590   50.8660 O   0  0  0  0  0  0
   67.7740   33.8500   50.4380 O   0  0  0  0  0  0
   66.6930   30.8710   48.5650 O   0  0  0  0  0  0
   68.2390   31.8300   46.5810 O   0  0  0  0  0  0
   62.4020   29.7340   52.1900 O   0  0  0  0  0  0
   63.9060   26.9740   46.3660 C   0  0  2  0  0  0
   64.9380   27.8070   45.6370 C   0  0  1  0  0  0
   65.6800   28.4380   46.7530 C   0  0  2  0  0  0
   64.5710   28.9510   47.5730 C   0  0  1  0  0  0
   63.6500   27.7420   47.6730 C   0  0  1  0  0  0
   62.1870   28.0400   47.9060 C   0  0  0  0  0  0
   65.7670   25.7650   45.8000 C   0  0  3  0  0  0
   67.8970   24.6950   45.4610 C   0  0  0  0  0  0
   65.9780   23.3620   46.1240 C   0  0  0  0  0  0
   65.9180   26.9160   45.0910 N   0  0  2  0  0  0
   66.5230   24.6380   45.8010 N   0  3  0  0  0  0
   66.5300   29.3300   46.0770 O   0  0  0  0  0  0
   65.0850   29.3750   48.8170 O   0  0  0  0  0  0
   62.0330   28.7320   49.1130 O   0  0  0  0  0  0
   64.6780   25.7850   46.6240 O   0  0  0  0  0  0
   68.5534   33.1340   52.0909 H   0  0  0  0  0  0
   69.2876   35.8991   50.9865 H   0  0  0  0  0  0
   70.8610   36.2778   52.6645 H   0  0  0  0  0  0
   68.6444   36.8454   53.6148 H   0  0  0  0  0  0
   68.4179   33.9298   54.1816 H   0  0  0  0  0  0
   67.0587   35.0393   55.8560 H   0  0  0  0  0  0
   66.1830   35.9663   54.5909 H   0  0  0  0  0  0
   70.0812   36.4708   49.9829 H   0  0  0  0  0  0
   70.2918   35.8389   48.3147 H   0  0  0  0  0  0
   71.6808   36.5866   49.1739 H   0  0  0  0  0  0
   71.0132   33.3434   51.4870 H   0  0  0  0  0  0
   71.8543   34.0707   52.8647 H   0  0  0  0  0  0
   70.5115   36.4729   55.3330 H   0  0  0  0  0  0
   64.8431   33.9388   55.3080 H   0  0  0  0  0  0
   64.7328   31.3455   48.4729 H   0  0  0  0  0  0
   65.9715   30.0829   51.0618 H   0  0  0  0  0  0
   65.9838   32.2787   52.1213 H   0  0  0  0  0  0
   68.0681   31.8234   50.7662 H   0  0  0  0  0  0
   66.5017   32.9515   48.4929 H   0  0  0  0  0  0
   68.9074   33.2237   47.9761 H   0  0  0  0  0  0
   69.2256   31.5038   48.3854 H   0  0  0  0  0  0
   65.6609   30.0204   52.5947 H   0  0  0  0  0  0
   64.7497   28.5215   52.9817 H   0  0  0  0  0  0
   64.4975   30.0046   53.9633 H   0  0  0  0  0  0
   63.2033   31.2602   50.3704 H   0  0  0  0  0  0
   64.0459   33.3351   51.3235 H   0  0  0  0  0  0
   69.0673   31.8110   45.8575 H   0  0  0  0  0  0
   62.9636   26.7232   45.8571 H   0  0  0  0  0  0
   64.5238   28.4631   44.8573 H   0  0  0  0  0  0
   66.3701   27.9044   47.4231 H   0  0  0  0  0  0
   64.0779   29.8628   47.2049 H   0  0  0  0  0  0
   63.8721   27.1681   48.5847 H   0  0  0  0  0  0
   61.8024   28.6568   47.0804 H   0  0  0  0  0  0
   61.6234   27.0965   47.9521 H   0  0  0  0  0  0
   65.1474   25.3486   44.9921 H   0  0  0  0  0  0
   68.1765   25.7351   45.2374 H   0  0  0  0  0  0
   68.0823   24.0674   44.5768 H   0  0  0  0  0  0
   68.4991   24.3267   46.3047 H   0  0  0  0  0  0
   64.9102   23.4698   46.3654 H   0  0  0  0  0  0
   66.5099   22.9452   46.9920 H   0  0  0  0  0  0
   66.0931   22.6858   45.2640 H   0  0  0  0  0  0
   65.7204   26.7659   44.0194 H   0  0  0  0  0  0
   67.3581   28.9435   45.4648 H   0  0  0  0  0  0
   61.0304   29.0349   49.4493 H   0  0  0  0  0  0
   66.2687   24.4665   44.7446 H   0  0  0  0  0  0
  1  2  1  0  0  0
  1 12  1  0  0  0
  1 25  1  0  0  0
  1 44  1  0  0  0
  2  3  1  0  0  0
  2  9  1  0  0  0
  2 45  1  0  0  0
  3  4  1  0  0  0
  3 10  1  0  0  0
  3 46  1  0  0  0
  4  5  1  0  0  0
  4 11  1  0  0  0
  4 47  1  0  0  0
  5  6  1  0  0  0
  5 12  1  0  0  0
  5 48  1  0  0  0
  6 13  1  0  0  0
  6 49  1  0  0  0
  6 50  1  0  0  0
  7  8  1  0  0  0
  7  9  1  0  0  0
  7 14  2  0  0  0
  8 51  1  0  0  0
  8 52  1  0  0  0
  8 53  1  0  0  0
  9 54  1  0  0  0
 10 55  1  0  0  0
 11 56  1  0  0  0
 13 57  1  0  0  0
 15 16  1  0  0  0
 15 26  1  0  0  0
 15 41  1  0  0  0
 15 58  1  0  0  0
 16 17  1  0  0  0
 16 23  1  0  0  0
 16 59  1  0  0  0
 17 18  1  0  0  0
 17 24  1  0  0  0
 17 60  1  0  0  0
 18 19  1  0  0  0
 18 25  1  0  0  0
 18 61  1  0  0  0
 19 20  1  0  0  0
 19 26  1  0  0  0
 19 62  1  0  0  0
 20 27  1  0  0  0
 20 63  1  0  0  0
 20 64  1  0  0  0
 21 22  1  0  0  0
 21 23  1  0  0  0
 21 28  2  0  0  0
 22 65  1  0  0  0
 22 66  1  0  0  0
 22 67  1  0  0  0
 23 68  1  0  0  0
 24 69  1  0  0  0
 27 70  1  0  0  0
 29 30  1  0  0  0
 29 33  1  0  0  0
 29 43  1  0  0  0
 29 71  1  0  0  0
 30 31  1  0  0  0
 30 38  1  0  0  0
 30 72  1  0  0  0
 31 32  1  0  0  0
 31 40  1  0  0  0
 31 73  1  0  0  0
 32 33  1  0  0  0
 32 41  1  0  0  0
 32 74  1  0  0  0
 33 34  1  0  0  0
 33 75  1  0  0  0
 34 42  1  0  0  0
 34 76  1  0  0  0
 34 77  1  0  0  0
 35 38  1  0  0  0
 35 39  1  0  0  0
 35 43  1  0  0  0
 35 78  1  0  0  0
 36 39  1  0  0  0
 36 79  1  0  0  0
 36 80  1  0  0  0
 36 81  1  0  0  0
 37 39  1  0  0  0
 37 82  1  0  0  0
 37 83  1  0  0  0
 37 84  1  0  0  0
 38 85  1  0  0  0
 39 88  1  0  0  0
 40 86  1  0  0  0
 42 87  1  0  0  0
M  CHG  1  39   1
M  END
> <s_m_source_file>
../1ll4_ligand.sdf

> <i_m_source_file_index>
1

> <s_epik_input>
W09IXVtDSDJdW0NAQEhdKE8xKVtDQEBIXShbT0hdKVtDQEBIXShbT0hdKVtDQEBIXShbTkhdQyg9TylbQ0gzXSlbQ0BASF0xT1tDQEhdKFtDQEhdKE8yKVtDSDJdW09IXSlbQ0BASF0oW09IXSlbQ0BASF0oW05IXUMoPU8pW0NIM10pW0NAQEhdMk9bQ0BIXShbQ0BIXTNbQ0gyXVtPSF0pW0NASF0oW09IXSlbQ0BIXShbQ0BIXTM0KVtOSF1bQ0hdKE80KU4oW0NIM10pW0NIM10=

> <s_epik_cmdline>
J2VwaWtfYXBwJywgJy1pbWFlJywgJ2xpZ2FuZF9wcm8ubWFlJywgJy1vbWFlJywgJ2xpZ2FuZF9wcmVwLm1hZScsICctbXMnLCAnMScsICctcGgnLCAnNycsICctcGh0JywgJzAuNScsICctbnQn

> <r_epik_Ionization_Penalty>
  0.1965

> <r_epik_Ionization_Penalty_Charging>
  0.1965

> <r_epik_Ionization_Penalty_Neutral>
  0.0000

> <r_epik_State_Penalty>
  0.2095

> <r_epik_Charging_Adjusted_Penalty>
0.405973575352843

> <i_epik_Tot_Q>
1

> <i_epik_Tot_abs_Q>
1

> <s_epik_Chemistry_Notes>
This compound contains an acetal/aminal-like group ( X-CH(R)-Y where X, Y are N, S, or O) that may be acid/base labile, releasing an aldehyde.

$$$$
