1llb_ligand
                    3D
 Schrodinger Suite 2020-3.
 44 45  0  0  1  0            999 V2000
   78.4780    3.1490   29.0340 O   0  0  0  0  0  0
   77.6500    4.0720   29.4420 C   0  0  0  0  0  0
   78.1190    5.3790   30.0230 C   0  0  2  0  0  0
   77.9560    6.4710   28.9810 C   0  0  1  0  0  0
   78.8280    8.0660   29.4490 S   0  0  0  0  0  0
   79.7850    8.1370   27.8440 C   0  0  0  0  0  0
   81.1210    8.8530   28.1260 C   0  0  0  0  0  0
   78.9500    8.8680   26.8240 C   0  0  0  0  0  0
   79.9220    6.6460   27.5630 C   0  0  2  0  0  0
   80.4700    6.3160   26.1490 C   0  0  0  0  0  0
   81.6600    5.8970   26.0730 O   0  5  0  0  0  0
   79.6640    6.4960   25.2050 O   0  0  0  0  0  0
   78.5650    6.0830   27.6970 N   0  0  1  0  0  0
   79.4970    5.2040   30.4910 N   0  0  0  0  0  0
   79.9890    5.9290   31.6200 C   0  0  0  0  0  0
   79.1920    6.6270   32.3030 O   0  0  0  0  0  0
   81.4070    5.7420   31.8660 C   0  0  0  0  0  0
   82.4680    5.8250   30.9530 N   0  0  0  0  0  0
   82.1000    6.2100   29.5580 O   0  0  0  0  0  0
   83.2860    6.5860   28.8370 C   0  0  0  0  0  0
   81.8960    5.4350   33.1900 C   0  0  0  0  0  0
   81.2950    5.9180   34.4040 C   0  0  0  0  0  0
   82.0550    5.3660   35.7630 S   0  0  0  0  0  0
   83.1720    4.5420   34.8390 C   0  0  0  0  0  0
   82.8890    4.7240   33.5030 N   0  0  0  0  0  0
   84.2390    3.7660   35.3140 N   0  0  0  0  0  0
   76.5647    3.9091   29.3676 H   0  0  0  0  0  0
   77.5448    5.6792   30.9120 H   0  0  0  0  0  0
   76.8689    6.3950   28.8316 H   0  0  0  0  0  0
   80.9321    9.9196   28.3175 H   0  0  0  0  0  0
   81.7840    8.7487   27.2544 H   0  0  0  0  0  0
   81.6001    8.4015   29.0073 H   0  0  0  0  0  0
   78.8956    9.9338   27.0905 H   0  0  0  0  0  0
   77.9360    8.4421   26.8071 H   0  0  0  0  0  0
   79.4091    8.7615   25.8301 H   0  0  0  0  0  0
   80.6157    6.2075   28.2955 H   0  0  0  0  0  0
   78.6311    4.9865   27.6390 H   0  0  0  0  0  0
   80.1699    4.5060   29.9713 H   0  0  0  0  0  0
   83.0157    6.8698   27.8092 H   0  0  0  0  0  0
   83.9842    5.7364   28.8113 H   0  0  0  0  0  0
   83.7652    7.4394   29.3391 H   0  0  0  0  0  0
   80.4287    6.5791   34.4252 H   0  0  0  0  0  0
   84.4060    3.6644   36.3965 H   0  0  0  0  0  0
   84.9090    3.2589   34.6041 H   0  0  0  0  0  0
  1  2  2  0  0  0
  2  3  1  0  0  0
  2 27  1  0  0  0
  3  4  1  0  0  0
  3 14  1  0  0  0
  3 28  1  0  0  0
  4  5  1  0  0  0
  4 13  1  0  0  0
  4 29  1  0  0  0
  5  6  1  0  0  0
  6  7  1  0  0  0
  6  8  1  0  0  0
  6  9  1  0  0  0
  7 30  1  0  0  0
  7 31  1  0  0  0
  7 32  1  0  0  0
  8 33  1  0  0  0
  8 34  1  0  0  0
  8 35  1  0  0  0
  9 10  1  0  0  0
  9 13  1  0  0  0
  9 36  1  0  0  0
 10 11  1  0  0  0
 10 12  2  0  0  0
 13 37  1  0  0  0
 14 15  1  0  0  0
 14 38  1  0  0  0
 15 16  2  0  0  0
 15 17  1  0  0  0
 17 18  2  0  0  0
 17 21  1  0  0  0
 18 19  1  0  0  0
 19 20  1  0  0  0
 20 39  1  0  0  0
 20 40  1  0  0  0
 20 41  1  0  0  0
 21 22  2  0  0  0
 21 25  1  0  0  0
 22 23  1  0  0  0
 22 42  1  0  0  0
 23 24  1  0  0  0
 24 25  2  0  0  0
 24 26  1  0  0  0
 26 43  1  0  0  0
 26 44  1  0  0  0
M  CHG  1  11  -1
M  END
> <s_m_source_file>
../1llb_ligand.sdf

> <i_m_source_file_index>
1

> <s_epik_input>
W09IXUMoPU8pW0NAQEhdMVtOSDIrXVtDQEhdKFNDMShbQ0gzXSlbQ0gzXSlbQ0BASF0oW0NIXT1PKVtOSF1DKD1PKS9DKD1OXE9bQ0gzXSljMltjSF1zYyhuMilbTkgyXQ==

> <s_epik_cmdline>
J2VwaWtfYXBwJywgJy1pbWFlJywgJ2xpZ2FuZF9wcm8ubWFlJywgJy1vbWFlJywgJ2xpZ2FuZF9wcmVwLm1hZScsICctbXMnLCAnMScsICctcGgnLCAnNycsICctcGh0JywgJzAuNScsICctbnQn

> <r_lp_tautomer_probability>
1

> <r_epik_Ionization_Penalty>
  0.0022

> <r_epik_Ionization_Penalty_Charging>
  0.0001

> <r_epik_Ionization_Penalty_Neutral>
  0.0021

> <r_epik_State_Penalty>
 -0.0000

> <r_epik_Charging_Adjusted_Penalty>
6.6699583096952e-05

> <i_epik_Tot_Q>
-1

> <i_epik_Tot_abs_Q>
1

> <s_epik_Chemistry_Notes>
This compound has an imine and may undergo hydrolysis. This compound contains an acetal/aminal-like group ( X-CH(R)-Y where X, Y are N, S, or O) that may be acid/base labile, releasing an aldehyde.

$$$$
