1lnm_ligand
                    3D
 Schrodinger Suite 2020-3.
 61 65  0  0  1  0            999 V2000
   14.7810  -21.2920   37.1060 O   0  0  0  0  0  0
   14.0400  -22.2080   37.0350 C   0  0  0  0  0  0
   12.9040  -22.5250   36.1640 C   0  0  0  0  0  0
   14.2300  -23.2610   37.9230 O   0  0  0  0  0  0
   13.2240  -24.2650   37.6620 C   0  0  0  0  0  0
   12.4200  -23.7400   36.5320 C   0  0  0  0  0  0
   11.2030  -24.5070   36.1160 C   0  0  1  0  0  0
   11.5560  -26.0430   36.1120 C   0  0  0  0  0  0
    9.9670  -24.3170   36.9940 C   0  0  2  0  0  0
    8.7370  -24.1550   36.0510 C   0  0  0  0  0  0
    7.3760  -24.3510   36.7060 C   0  0  0  0  0  0
   10.0700  -23.1180   37.9310 C   0  0  0  0  0  0
    9.7900  -25.7260   37.6820 C   0  0  1  0  0  0
   10.2620  -26.6830   36.6120 C   0  0  0  0  0  0
   10.8260  -25.8640   38.7020 O   0  0  0  0  0  0
    8.4190  -25.9590   38.3610 C   0  0  2  0  0  0
    8.3930  -27.3110   39.0790 C   0  0  0  0  0  0
    7.2220  -25.7460   37.3730 C   0  0  1  0  0  0
    5.8660  -25.9760   38.1060 C   0  0  2  0  0  0
    4.7060  -25.8560   37.0780 C   0  0  0  0  0  0
    5.5120  -24.8810   39.1660 C   0  0  0  0  0  0
    5.8640  -27.3860   38.6570 C   0  0  2  0  0  0
    7.0040  -27.6710   39.6460 C   0  0  0  0  0  0
    5.9350  -28.4260   37.5280 C   0  0  0  0  0  0
    4.8350  -28.2580   36.4950 C   0  0  2  0  0  0
    4.8600  -26.8500   35.9340 C   0  0  0  0  0  0
    3.5550  -28.4830   37.1580 O   0  0  0  0  0  0
   12.4340  -21.9734   35.3364 H   0  0  0  0  0  0
   13.7132  -25.2144   37.3987 H   0  0  0  0  0  0
   12.6064  -24.4077   38.5610 H   0  0  0  0  0  0
   10.9501  -24.0686   35.1393 H   0  0  0  0  0  0
   11.8195  -26.3560   35.0909 H   0  0  0  0  0  0
   12.4085  -26.2251   36.7828 H   0  0  0  0  0  0
    8.7324  -23.1407   35.6254 H   0  0  0  0  0  0
    8.7984  -24.8935   35.2381 H   0  0  0  0  0  0
    7.2312  -23.5887   37.4857 H   0  0  0  0  0  0
    6.5861  -24.2534   35.9467 H   0  0  0  0  0  0
   10.1899  -22.1989   37.3386 H   0  0  0  0  0  0
   10.9395  -23.2436   38.5930 H   0  0  0  0  0  0
    9.1549  -23.0467   38.5372 H   0  0  0  0  0  0
    9.5485  -26.7664   35.7790 H   0  0  0  0  0  0
   10.4787  -27.6850   37.0108 H   0  0  0  0  0  0
   11.8846  -25.7361   38.4316 H   0  0  0  0  0  0
    8.2957  -25.2042   39.1516 H   0  0  0  0  0  0
    8.6807  -28.1057   38.3749 H   0  0  0  0  0  0
    9.1010  -27.2929   39.9207 H   0  0  0  0  0  0
    7.2259  -26.4833   36.5567 H   0  0  0  0  0  0
    3.7481  -26.0540   37.5813 H   0  0  0  0  0  0
    4.6948  -24.8408   36.6546 H   0  0  0  0  0  0
    5.5345  -23.8894   38.6904 H   0  0  0  0  0  0
    6.2464  -24.9119   39.9843 H   0  0  0  0  0  0
    4.5062  -25.0719   39.5685 H   0  0  0  0  0  0
    4.9100  -27.4529   39.2005 H   0  0  0  0  0  0
    6.9749  -28.7428   39.8918 H   0  0  0  0  0  0
    6.8149  -27.0811   40.5550 H   0  0  0  0  0  0
    6.8992  -28.3356   37.0063 H   0  0  0  0  0  0
    5.8416  -29.4361   37.9535 H   0  0  0  0  0  0
    4.9464  -28.9875   35.6793 H   0  0  0  0  0  0
    4.0319  -26.7203   35.2216 H   0  0  0  0  0  0
    5.8165  -26.6728   35.4205 H   0  0  0  0  0  0
    3.3440  -29.4531   37.6316 H   0  0  0  0  0  0
  1  2  2  0  0  0
  2  3  1  0  0  0
  2  4  1  0  0  0
  3  6  2  0  0  0
  3 28  1  0  0  0
  4  5  1  0  0  0
  5  6  1  0  0  0
  5 29  1  0  0  0
  5 30  1  0  0  0
  6  7  1  0  0  0
  7  8  1  0  0  0
  7  9  1  0  0  0
  7 31  1  0  0  0
  8 14  1  0  0  0
  8 32  1  0  0  0
  8 33  1  0  0  0
  9 10  1  0  0  0
  9 12  1  0  0  0
  9 13  1  0  0  0
 10 11  1  0  0  0
 10 34  1  0  0  0
 10 35  1  0  0  0
 11 18  1  0  0  0
 11 36  1  0  0  0
 11 37  1  0  0  0
 12 38  1  0  0  0
 12 39  1  0  0  0
 12 40  1  0  0  0
 13 14  1  0  0  0
 13 15  1  0  0  0
 13 16  1  0  0  0
 14 41  1  0  0  0
 14 42  1  0  0  0
 15 43  1  0  0  0
 16 17  1  0  0  0
 16 18  1  0  0  0
 16 44  1  0  0  0
 17 23  1  0  0  0
 17 45  1  0  0  0
 17 46  1  0  0  0
 18 19  1  0  0  0
 18 47  1  0  0  0
 19 20  1  0  0  0
 19 21  1  0  0  0
 19 22  1  0  0  0
 20 26  1  0  0  0
 20 48  1  0  0  0
 20 49  1  0  0  0
 21 50  1  0  0  0
 21 51  1  0  0  0
 21 52  1  0  0  0
 22 23  1  0  0  0
 22 24  1  0  0  0
 22 53  1  0  0  0
 23 54  1  0  0  0
 23 55  1  0  0  0
 24 25  1  0  0  0
 24 56  1  0  0  0
 24 57  1  0  0  0
 25 26  1  0  0  0
 25 27  1  0  0  0
 25 58  1  0  0  0
 26 59  1  0  0  0
 26 60  1  0  0  0
 27 61  1  0  0  0
M  END
> <s_m_source_file>
../1lnm_ligand.sdf

> <i_m_source_file_index>
1

> <s_epik_input>
Tz1DMVtDSF09QyhbQ0gyXU8xKVtDQEhdMltDSDJdW0NIMl1bQ0BAXShbT0hdKShbQ0BAXTIzW0NIM10pW0NASF00W0NASF0oW0NIMl1bQ0gyXTMpW0NAXTUoW0NIM10pW0NASF0oW0NIMl1bQ0gyXTQpW0NIMl1bQ0BASF0oW09IXSlbQ0gyXVtDSDJdNQ==

> <s_epik_cmdline>
J2VwaWtfYXBwJywgJy1pbWFlJywgJ2xpZ2FuZF9wcm8ubWFlJywgJy1vbWFlJywgJ2xpZ2FuZF9wcmVwLm1hZScsICctbXMnLCAnMScsICctcGgnLCAnNycsICctcGh0JywgJzAuNScsICctbnQn

> <r_lp_tautomer_probability>
1

> <r_epik_Ionization_Penalty>
  0.0000

> <r_epik_Ionization_Penalty_Charging>
  0.0000

> <r_epik_Ionization_Penalty_Neutral>
  0.0000

> <r_epik_State_Penalty>
 -0.0000

> <r_epik_Charging_Adjusted_Penalty>
0

> <i_epik_Tot_Q>
0

> <i_epik_Tot_abs_Q>
0

> <s_epik_Chemistry_Notes>
This compound has an ester and may undergo hydrolysis at high or low pH.

$$$$
