1los_ligand
                    3D
 Schrodinger Suite 2020-3.
 31 32  0  0  1  0            999 V2000
   41.8400   25.8050   26.7710 N   0  0  0  0  0  0
   41.4900   24.7730   27.6750 C   0  0  0  0  0  0
   40.1900   24.3010   27.5380 N   0  0  0  0  0  0
   39.2230   24.7470   26.6050 C   0  0  0  0  0  0
   39.6810   25.7960   25.7320 C   0  0  0  0  0  0
   40.9100   26.2660   25.8360 N   0  0  0  0  0  0
   42.2940   24.3540   28.5000 O   0  0  0  0  0  0
   38.1270   24.2330   26.6110 O   0  0  0  0  0  0
   43.1860   26.4100   26.7790 C   0  0  1  0  0  0
   43.7720   26.9900   28.0640 C   0  0  1  0  0  0
   45.2900   26.8920   27.8330 C   0  0  1  0  0  0
   45.3690   25.6030   27.0250 C   0  0  2  0  0  0
   43.2910   28.3190   28.3740 O   0  0  0  0  0  0
   45.8310   28.0720   27.1530 O   0  0  0  0  0  0
   44.1680   25.5430   26.2440 O   0  0  0  0  0  0
   45.5050   24.2750   27.7800 C   0  0  0  0  0  0
   46.6440   24.3540   28.6410 O   0  0  0  0  0  0
   46.9800   23.3270   29.8230 P   0  0  0  0  0  0
   45.9610   23.1440   30.9210 O   0  5  0  0  0  0
   48.2050   23.8010   30.4790 O   0  0  0  0  0  0
   47.4300   21.9540   29.0050 O   0  5  0  0  0  0
   39.8236   23.4995   28.1963 H   0  0  0  0  0  0
   39.0075   26.2054   24.9791 H   0  0  0  0  0  0
   42.9793   27.2406   26.0881 H   0  0  0  0  0  0
   43.4282   26.4937   28.9835 H   0  0  0  0  0  0
   45.9294   26.8998   28.7280 H   0  0  0  0  0  0
   46.2748   25.6814   26.4058 H   0  0  0  0  0  0
   42.2192   28.4876   28.5552 H   0  0  0  0  0  0
   45.8188   29.0503   27.6557 H   0  0  0  0  0  0
   44.5973   24.0971   28.3753 H   0  0  0  0  0  0
   45.6370   23.4550   27.0588 H   0  0  0  0  0  0
  1  9  1  0  0  0
  1  6  1  0  0  0
  1  2  1  0  0  0
  2  7  2  0  0  0
  2  3  1  0  0  0
  3  4  1  0  0  0
  3 22  1  0  0  0
  4  8  2  0  0  0
  4  5  1  0  0  0
  5  6  2  0  0  0
  5 23  1  0  0  0
  9 15  1  0  0  0
  9 10  1  0  0  0
  9 24  1  0  0  0
 10 13  1  0  0  0
 10 11  1  0  0  0
 10 25  1  0  0  0
 11 14  1  0  0  0
 11 12  1  0  0  0
 11 26  1  0  0  0
 12 16  1  0  0  0
 12 15  1  0  0  0
 12 27  1  0  0  0
 13 28  1  0  0  0
 14 29  1  0  0  0
 16 17  1  0  0  0
 16 30  1  0  0  0
 16 31  1  0  0  0
 17 18  1  0  0  0
 18 21  1  0  0  0
 18 20  2  0  0  0
 18 19  1  0  0  0
M  CHG  2  19  -1  21  -1
M  END
> <s_m_source_file>
../1los_ligand.sdf

> <i_m_source_file_index>
1

> <s_epik_input>
bjFbY0hdYyg9TylbbkhdYyg9TyluMVtDQEhdMltDQEhdKFtPSF0pW0NASF0oW09IXSlbQ0BIXShPMilbQ0gyXU9QKD1PKShbT0hdKVtPSF0=

> <s_epik_cmdline>
J2VwaWtfYXBwJywgJy1pbWFlJywgJ2xpZ2FuZF9wcm8ubWFlJywgJy1vbWFlJywgJ2xpZ2FuZF9wcmVwLm1hZScsICctbXMnLCAnMScsICctcGgnLCAnNycsICctcGh0JywgJzAuNScsICctbnQn

> <r_lp_tautomer_probability>
0.995619803089065

> <r_epik_Ionization_Penalty>
  0.3823

> <r_epik_Ionization_Penalty_Charging>
  0.3823

> <r_epik_Ionization_Penalty_Neutral>
  0.0000

> <r_epik_State_Penalty>
  0.2691

> <r_epik_Charging_Adjusted_Penalty>
0.651392525584815

> <i_epik_Tot_Q>
-2

> <i_epik_Tot_abs_Q>
2

> <s_epik_Chemistry_Notes>
This compound contains an acetal/aminal-like group ( X-CH(R)-Y where X, Y are N, S, or O) that may be acid/base labile, releasing an aldehyde.

$$$$
