1lox_ligand
                    3D
 Schrodinger Suite 2020-3.
 38 38  0  0  1  0            999 V2000
  -28.2720  148.8510   55.7670 C   0  0  0  0  0  0
  -27.0700  149.1660   55.6110 O   0  5  0  0  0  0
  -28.6420  147.6640   55.6810 O   0  0  0  0  0  0
  -29.2890  149.8560   56.0700 C   0  0  0  0  0  0
  -29.0240  151.2110   56.2310 C   0  0  0  0  0  0
  -30.0100  152.0900   56.6730 C   0  0  0  0  0  0
  -31.3490  151.7020   56.5830 C   0  0  0  0  0  0
  -32.3620  152.4400   57.2150 C   0  0  0  0  0  0
  -32.0480  153.5860   57.9550 C   0  0  0  0  0  0
  -30.7210  154.0030   58.0660 C   0  0  0  0  0  0
  -29.7040  153.2740   57.4400 C   0  0  0  0  0  0
  -28.3750  153.6140   57.7750 C   0  0  0  0  0  0
  -27.0220  153.8520   58.0880 C   0  0  0  0  0  0
  -25.5530  153.9750   58.4200 C   0  0  0  0  0  0
  -25.0390  152.6490   58.9670 C   0  0  0  0  0  0
  -24.9570  151.5670   57.9010 C   0  0  0  0  0  0
  -23.8630  151.8470   56.8870 C   0  0  0  0  0  0
  -23.9060  150.8290   55.7600 C   0  0  0  0  0  0
  -22.7690  151.0690   54.8000 C   0  0  0  0  0  0
  -30.3183  149.4812   56.1701 H   0  0  0  0  0  0
  -28.0217  151.6057   56.0082 H   0  0  0  0  0  0
  -31.6115  150.8112   56.0124 H   0  0  0  0  0  0
  -33.4000  152.1186   57.1290 H   0  0  0  0  0  0
  -32.8401  154.1526   58.4445 H   0  0  0  0  0  0
  -30.4767  154.8966   58.6404 H   0  0  0  0  0  0
  -24.9923  154.2369   57.5106 H   0  0  0  0  0  0
  -25.4126  154.7612   59.1765 H   0  0  0  0  0  0
  -24.0303  152.7901   59.3824 H   0  0  0  0  0  0
  -25.7147  152.2921   59.7582 H   0  0  0  0  0  0
  -24.7433  150.5987   58.3771 H   0  0  0  0  0  0
  -25.9152  151.5080   57.3639 H   0  0  0  0  0  0
  -24.0034  152.8528   56.4644 H   0  0  0  0  0  0
  -22.8819  151.7906   57.3811 H   0  0  0  0  0  0
  -23.8172  149.8154   56.1779 H   0  0  0  0  0  0
  -24.8597  150.9204   55.2195 H   0  0  0  0  0  0
  -22.8107  150.3266   53.9894 H   0  0  0  0  0  0
  -21.8120  150.9752   55.3343 H   0  0  0  0  0  0
  -22.8546  152.0803   54.3758 H   0  0  0  0  0  0
  1  4  1  0  0  0
  1  3  2  0  0  0
  1  2  1  0  0  0
  4  5  2  0  0  0
  4 20  1  0  0  0
  5  6  1  0  0  0
  5 21  1  0  0  0
  6 11  2  0  0  0
  6  7  1  0  0  0
  7  8  2  0  0  0
  7 22  1  0  0  0
  8  9  1  0  0  0
  8 23  1  0  0  0
  9 10  2  0  0  0
  9 24  1  0  0  0
 10 11  1  0  0  0
 10 25  1  0  0  0
 11 12  1  0  0  0
 12 13  3  0  0  0
 13 14  1  0  0  0
 14 15  1  0  0  0
 14 26  1  0  0  0
 14 27  1  0  0  0
 15 16  1  0  0  0
 15 28  1  0  0  0
 15 29  1  0  0  0
 16 17  1  0  0  0
 16 30  1  0  0  0
 16 31  1  0  0  0
 17 18  1  0  0  0
 17 32  1  0  0  0
 17 33  1  0  0  0
 18 19  1  0  0  0
 18 34  1  0  0  0
 18 35  1  0  0  0
 19 36  1  0  0  0
 19 37  1  0  0  0
 19 38  1  0  0  0
M  CHG  1   2  -1
M  END
> <s_m_source_file>
../1lox_ligand.sdf

> <i_m_source_file_index>
1

> <s_epik_input>
W09IXUMoPU8pL1tDSF09W0NIXS9jMVtjSF1bY0hdW2NIXVtjSF1jMUMjQ1tDSDJdW0NIMl1bQ0gyXVtDSDJdW0NIMl1bQ0gzXQ==

> <s_epik_cmdline>
J2VwaWtfYXBwJywgJy1pbWFlJywgJ2xpZ2FuZF9wcm8ubWFlJywgJy1vbWFlJywgJ2xpZ2FuZF9wcmVwLm1hZScsICctbXMnLCAnMScsICctcGgnLCAnNycsICctcGh0JywgJzAuNScsICctbnQn

> <r_lp_tautomer_probability>
1

> <r_epik_Ionization_Penalty>
  0.0014

> <r_epik_Ionization_Penalty_Charging>
  0.0014

> <r_epik_Ionization_Penalty_Neutral>
  0.0000

> <r_epik_State_Penalty>
 -0.0000

> <r_epik_Charging_Adjusted_Penalty>
0.00135018829785874

> <i_epik_Tot_Q>
-1

> <i_epik_Tot_abs_Q>
1

$$$$
