1lpk_ligand
                    3D
 Schrodinger Suite 2020-3.
 57 60  0  0  1  0            999 V2000
    3.8210    9.8750   26.1130 C   0  0  0  0  0  0
    4.9010    8.9900   25.9320 C   0  0  0  0  0  0
    5.3310    8.6980   24.6200 C   0  0  0  0  0  0
    4.6690    9.2650   23.4820 C   0  0  0  0  0  0
    3.5940   10.1670   23.6850 C   0  0  0  0  0  0
    3.1760   10.4780   25.0020 C   0  0  0  0  0  0
    6.3460    7.8870   24.1360 N   0  0  0  0  0  0
    6.3380    7.8910   22.7880 C   0  0  0  0  0  0
    5.3050    8.7460   22.3310 C   0  0  0  0  0  0
    7.2060    7.1050   24.9980 C   0  0  0  0  0  0
    8.5220    7.7500   25.2980 C   0  0  0  0  0  0
    9.1170    8.8700   24.6470 C   0  0  0  0  0  0
   10.3850    9.3330   25.0910 C   0  0  0  0  0  0
   11.0440    8.6820   26.1630 C   0  0  0  0  0  0
   10.4030    7.5830   26.7970 C   0  0  0  0  0  0
    9.1590    7.1300   26.3490 C   0  0  0  0  0  0
   10.9400    6.8680   27.9410 C   0  0  0  0  0  0
   12.2330    6.9330   28.2540 N   0  3  0  0  0  0
   10.0370    6.1370   28.6400 N   0  0  0  0  0  0
    7.1590    7.1010   21.9870 C   0  0  0  0  0  0
    6.7100    6.9240   20.7620 O   0  0  0  0  0  0
    7.4810    6.1230   19.8210 C   0  0  0  0  0  0
    7.4760    4.6240   20.1120 C   0  0  0  0  0  0
    6.7620    4.0100   21.1760 C   0  0  0  0  0  0
    6.8530    2.6030   21.3750 C   0  0  0  0  0  0
    7.6500    1.8160   20.5090 C   0  0  0  0  0  0
    8.3510    2.4330   19.4370 C   0  0  0  0  0  0
    8.2530    3.8270   19.2440 C   0  0  0  0  0  0
    9.2410    1.7160   18.5260 C   0  0  0  0  0  0
    9.1800    1.9340   17.2200 N   0  3  0  0  0  0
   10.1750    0.9050   19.0140 N   0  0  0  0  0  0
    8.1750    6.5920   22.3530 O   0  0  0  0  0  0
    3.4751   10.1004   27.1218 H   0  0  0  0  0  0
    5.3968    8.5379   26.7910 H   0  0  0  0  0  0
    3.0910   10.6195   22.8304 H   0  0  0  0  0  0
    2.3585   11.1809   25.1623 H   0  0  0  0  0  0
    5.0501    8.9618   21.2934 H   0  0  0  0  0  0
    6.7027    6.9346   25.9611 H   0  0  0  0  0  0
    7.4216    6.1376   24.5208 H   0  0  0  0  0  0
    8.6066    9.3642   23.8204 H   0  0  0  0  0  0
   10.8514   10.1905   24.6060 H   0  0  0  0  0  0
   12.0259    9.0182   26.4960 H   0  0  0  0  0  0
    8.6882    6.2766   26.8371 H   0  0  0  0  0  0
   12.9159    7.5449   27.6463 H   0  0  0  0  0  0
    8.9816    6.1245   28.3303 H   0  0  0  0  0  0
   10.3598    5.5565   29.5168 H   0  0  0  0  0  0
    7.0726    6.2533   18.8080 H   0  0  0  0  0  0
    8.5317    6.4483   19.8374 H   0  0  0  0  0  0
    6.1449    4.6158   21.8396 H   0  0  0  0  0  0
    6.3092    2.1320   22.1938 H   0  0  0  0  0  0
    7.7260    0.7397   20.6638 H   0  0  0  0  0  0
    8.7837    4.2943   18.4145 H   0  0  0  0  0  0
    8.4099    2.6037   16.8096 H   0  0  0  0  0  0
   10.2313    0.7196   20.0968 H   0  0  0  0  0  0
   10.8913    0.4195   18.3349 H   0  0  0  0  0  0
   12.6179    6.3748   29.1202 H   0  0  0  0  0  0
    9.8995    1.4452   16.5466 H   0  0  0  0  0  0
  1  2  2  0  0  0
  1  6  1  0  0  0
  1 33  1  0  0  0
  2  3  1  0  0  0
  2 34  1  0  0  0
  3  4  2  0  0  0
  3  7  1  0  0  0
  4  5  1  0  0  0
  4  9  1  0  0  0
  5  6  2  0  0  0
  5 35  1  0  0  0
  6 36  1  0  0  0
  7  8  1  0  0  0
  7 10  1  0  0  0
  8  9  2  0  0  0
  8 20  1  0  0  0
  9 37  1  0  0  0
 10 11  1  0  0  0
 10 38  1  0  0  0
 10 39  1  0  0  0
 11 12  2  0  0  0
 11 16  1  0  0  0
 12 13  1  0  0  0
 12 40  1  0  0  0
 13 14  2  0  0  0
 13 41  1  0  0  0
 14 15  1  0  0  0
 14 42  1  0  0  0
 15 16  2  0  0  0
 15 17  1  0  0  0
 16 43  1  0  0  0
 17 18  2  0  0  0
 17 19  1  0  0  0
 18 44  1  0  0  0
 18 56  1  0  0  0
 19 45  1  0  0  0
 19 46  1  0  0  0
 20 21  1  0  0  0
 20 32  2  0  0  0
 21 22  1  0  0  0
 22 23  1  0  0  0
 22 47  1  0  0  0
 22 48  1  0  0  0
 23 24  2  0  0  0
 23 28  1  0  0  0
 24 25  1  0  0  0
 24 49  1  0  0  0
 25 26  2  0  0  0
 25 50  1  0  0  0
 26 27  1  0  0  0
 26 51  1  0  0  0
 27 28  2  0  0  0
 27 29  1  0  0  0
 28 52  1  0  0  0
 29 30  2  0  0  0
 29 31  1  0  0  0
 30 53  1  0  0  0
 30 57  1  0  0  0
 31 54  1  0  0  0
 31 55  1  0  0  0
M  CHG  2  18   1  30   1
M  END
> <s_m_source_file>
../1lpk_ligand.sdf

> <i_m_source_file_index>
1

> <s_epik_input>
W0hdL049QyhbTkgyXSlcYyhbY0hdMSlbY0hdW2NIXVtjSF1jMVtDSDJdbjJjKFtjSF1jKGMyMylbY0hdW2NIXVtjSF1bY0hdMylDKD1PKU9bQ0gyXWM0W2NIXVtjSF1bY0hdYyhbY0hdNCkvQyg9TlxbSF0pW05IMl0=

> <s_epik_cmdline>
J2VwaWtfYXBwJywgJy1pbWFlJywgJ2xpZ2FuZF9wcm8ubWFlJywgJy1vbWFlJywgJ2xpZ2FuZF9wcmVwLm1hZScsICctbXMnLCAnMScsICctcGgnLCAnNycsICctcGh0JywgJzAuNScsICctbnQn

> <r_lp_tautomer_probability>
1

> <r_epik_Ionization_Penalty>
  0.0004

> <r_epik_Ionization_Penalty_Charging>
  0.0004

> <r_epik_Ionization_Penalty_Neutral>
  0.0000

> <r_epik_State_Penalty>
 -0.0000

> <r_epik_Charging_Adjusted_Penalty>
0.000368019195561341

> <i_epik_Tot_Q>
2

> <i_epik_Tot_abs_Q>
2

> <s_epik_Chemistry_Notes>
This compound has an ester and may undergo hydrolysis at high or low pH. This compound has an imine and may undergo hydrolysis.

$$$$
