1lq2_ligand
                    3D
 Schrodinger Suite 2020-3.
 36 38  0  0  1  0            999 V2000
   27.0460   29.5630   35.8810 C   0  0  0  0  0  0
   27.5870   29.9620   37.1400 C   0  0  0  0  0  0
   28.3160   31.1800   37.2430 C   0  0  0  0  0  0
   28.4970   31.9890   36.0980 C   0  0  0  0  0  0
   27.9580   31.5960   34.8520 C   0  0  0  0  0  0
   27.2380   30.3860   34.7450 C   0  0  0  0  0  0
   25.3490   26.3270   36.3640 C   0  0  0  0  0  0
   24.8550   25.1600   37.1860 C   0  0  1  0  0  0
   24.0990   24.1090   36.3310 C   0  0  2  0  0  0
   23.3960   24.7700   35.0930 C   0  0  1  0  0  0
   24.4300   25.4400   34.1790 C   0  0  1  0  0  0
   23.8720   26.1050   32.8640 C   0  0  0  0  0  0
   25.9450   24.5620   37.8940 O   0  0  0  0  0  0
   23.1870   23.4890   37.1860 O   0  0  0  0  0  0
   22.6930   23.7450   34.3350 O   0  0  0  0  0  0
   25.1580   26.4640   35.0260 N   0  0  0  0  0  0
   23.0100   27.2450   33.1410 O   0  0  0  0  0  0
   26.0280   27.3800   36.8150 N   0  0  0  0  0  0
   26.2930   28.2460   35.7640 C   0  0  0  0  0  0
   25.7480   27.6690   34.6640 C   0  0  0  0  0  0
   27.4423   29.3356   38.0202 H   0  0  0  0  0  0
   28.7334   31.4880   38.2017 H   0  0  0  0  0  0
   29.0557   32.9216   36.1765 H   0  0  0  0  0  0
   28.0980   32.2266   33.9740 H   0  0  0  0  0  0
   26.8274   30.0836   33.7816 H   0  0  0  0  0  0
   24.1866   25.5491   37.9682 H   0  0  0  0  0  0
   24.7429   23.2904   35.9772 H   0  0  0  0  0  0
   22.6443   25.5086   35.4085 H   0  0  0  0  0  0
   25.1048   24.6442   33.8307 H   0  0  0  0  0  0
   24.7115   26.4563   32.2461 H   0  0  0  0  0  0
   23.2856   25.3652   32.2993 H   0  0  0  0  0  0
   26.5810   25.1781   38.5467 H   0  0  0  0  0  0
   23.5423   22.9840   38.0964 H   0  0  0  0  0  0
   21.9059   23.1469   34.8174 H   0  0  0  0  0  0
   22.5521   27.8028   32.3109 H   0  0  0  0  0  0
   25.7694   28.0844   33.6565 H   0  0  0  0  0  0
  1  2  2  0  0  0
  1  6  1  0  0  0
  1 19  1  0  0  0
  2  3  1  0  0  0
  2 21  1  0  0  0
  3  4  2  0  0  0
  3 22  1  0  0  0
  4  5  1  0  0  0
  4 23  1  0  0  0
  5  6  2  0  0  0
  5 24  1  0  0  0
  6 25  1  0  0  0
  7  8  1  0  0  0
  7 16  1  0  0  0
  7 18  2  0  0  0
  8  9  1  0  0  0
  8 13  1  0  0  0
  8 26  1  0  0  0
  9 10  1  0  0  0
  9 14  1  0  0  0
  9 27  1  0  0  0
 10 11  1  0  0  0
 10 15  1  0  0  0
 10 28  1  0  0  0
 11 12  1  0  0  0
 11 16  1  0  0  0
 11 29  1  0  0  0
 12 17  1  0  0  0
 12 30  1  0  0  0
 12 31  1  0  0  0
 13 32  1  0  0  0
 14 33  1  0  0  0
 15 34  1  0  0  0
 16 20  1  0  0  0
 17 35  1  0  0  0
 18 19  1  0  0  0
 19 20  2  0  0  0
 20 36  1  0  0  0
M  END
> <s_m_source_file>
../1lq2_ligand.sdf

> <i_m_source_file_index>
1

> <s_epik_input>
W2NIXTFbY0hdW2NIXVtjSF1bY0hdYzEtYyhuMilbY0hdbihjMjMpW0NASF0oW0NIMl1bT0hdKVtDQEBIXShbT0hdKVtDQEhdKFtPSF0pW0NASF0zW09IXQ==

> <s_epik_cmdline>
J2VwaWtfYXBwJywgJy1pbWFlJywgJ2xpZ2FuZF9wcm8ubWFlJywgJy1vbWFlJywgJ2xpZ2FuZF9wcmVwLm1hZScsICctbXMnLCAnMScsICctcGgnLCAnNycsICctcGh0JywgJzAuNScsICctbnQn

> <r_lp_tautomer_probability>
1

> <r_epik_Ionization_Penalty>
  0.2242

> <r_epik_Ionization_Penalty_Charging>
  0.2241

> <r_epik_Ionization_Penalty_Neutral>
  0.0000

> <r_epik_State_Penalty>
  0.2146

> <r_epik_Charging_Adjusted_Penalty>
0.438725597037485

> <i_epik_Tot_Q>
0

> <i_epik_Tot_abs_Q>
0

$$$$
