1lqd_ligand
                    3D
 Schrodinger Suite 2020-3.
 61 64  0  0  1  0            999 V2000
    3.9950    9.8270   26.0300 C   0  0  0  0  0  0
    5.1220    9.0170   25.7360 C   0  0  0  0  0  0
    5.4830    8.7740   24.3940 C   0  0  0  0  0  0
    4.7220    9.3540   23.3370 C   0  0  0  0  0  0
    3.6250   10.1630   23.6360 C   0  0  0  0  0  0
    3.2440   10.3960   24.9770 C   0  0  0  0  0  0
    6.4910    8.0150   23.8430 N   0  0  0  0  0  0
    6.4200    8.0830   22.4790 C   0  0  0  0  0  0
    5.3180    8.9120   22.1370 C   0  0  0  0  0  0
    2.8670   10.8550   22.5810 C   0  0  0  0  0  0
    7.3340    7.4780   21.5790 C   0  0  0  0  0  0
    6.8170    6.8980   20.4730 N   0  0  0  0  0  0
    7.6720    6.1290   19.5650 C   0  0  0  0  0  0
    7.6970    4.6350   19.7800 C   0  0  0  0  0  0
    7.4060    7.1730   24.6290 C   0  0  0  0  0  0
    8.6510    7.8780   25.0410 C   0  0  0  0  0  0
    9.1340    9.0130   24.3640 C   0  0  0  0  0  0
   10.3580    9.5810   24.7100 C   0  0  0  0  0  0
   11.0850    9.0040   25.7540 C   0  0  0  0  0  0
   10.5980    7.8850   26.4720 C   0  0  0  0  0  0
    9.3620    7.3300   26.1050 C   0  0  0  0  0  0
    8.5200    3.8950   18.9260 C   0  0  0  0  0  0
    8.6650    2.5220   19.1280 C   0  0  0  0  0  0
    7.9680    1.8700   20.1460 C   0  0  0  0  0  0
    7.1220    2.5790   20.9880 C   0  0  0  0  0  0
    6.9850    3.9750   20.8130 C   0  0  0  0  0  0
   11.3900    7.2820   27.5660 C   0  0  0  0  0  0
   12.6920    7.5590   27.7040 N   0  0  0  0  0  0
    9.6010    1.7610   18.3000 C   0  0  0  0  0  0
    6.3970    1.8470   22.0430 C   0  0  0  0  0  0
    8.5510    7.5220   21.7870 O   0  0  0  0  0  0
   10.8420    6.4280   28.4260 N   0  3  0  0  0  0
    3.7091   10.0100   27.0658 H   0  0  0  0  0  0
    5.7082    8.5830   26.5460 H   0  0  0  0  0  0
    2.3731   11.0130   25.1983 H   0  0  0  0  0  0
    4.9913    9.1619   21.1276 H   0  0  0  0  0  0
    3.2733   10.5792   21.5967 H   0  0  0  0  0  0
    2.9526   11.9426   22.7214 H   0  0  0  0  0  0
    1.8087   10.5603   22.6365 H   0  0  0  0  0  0
    5.7439    7.0075   20.2574 H   0  0  0  0  0  0
    7.3365    6.2812   18.5285 H   0  0  0  0  0  0
    8.7135    6.4681   19.6668 H   0  0  0  0  0  0
    6.8986    6.8360   25.5450 H   0  0  0  0  0  0
    7.7037    6.2985   24.0319 H   0  0  0  0  0  0
    8.5439    9.4527   23.5599 H   0  0  0  0  0  0
   10.7389   10.4537   24.1795 H   0  0  0  0  0  0
   12.0531    9.4265   26.0231 H   0  0  0  0  0  0
    8.9614    6.4751   26.6498 H   0  0  0  0  0  0
    9.0451    4.3874   18.1075 H   0  0  0  0  0  0
    8.0888    0.7952   20.2812 H   0  0  0  0  0  0
    6.3310    4.5447   21.4732 H   0  0  0  0  0  0
   13.1814    8.2604   27.0123 H   0  0  0  0  0  0
   13.2728    7.0853   28.5092 H   0  0  0  0  0  0
   10.0573    2.4286   17.5543 H   0  0  0  0  0  0
    9.0616    0.9516   17.7862 H   0  0  0  0  0  0
   10.3878    1.3307   18.9370 H   0  0  0  0  0  0
    6.6550    0.7789   21.9917 H   0  0  0  0  0  0
    5.3138    1.9700   21.8964 H   0  0  0  0  0  0
    6.6814    2.2461   23.0278 H   0  0  0  0  0  0
    9.7746    6.1749   28.3452 H   0  0  0  0  0  0
   11.4562    5.9748   29.2180 H   0  0  0  0  0  0
  1  2  2  0  0  0
  1  6  1  0  0  0
  1 33  1  0  0  0
  2  3  1  0  0  0
  2 34  1  0  0  0
  3  4  2  0  0  0
  3  7  1  0  0  0
  4  5  1  0  0  0
  4  9  1  0  0  0
  5  6  2  0  0  0
  5 10  1  0  0  0
  6 35  1  0  0  0
  7  8  1  0  0  0
  7 15  1  0  0  0
  8  9  2  0  0  0
  8 11  1  0  0  0
  9 36  1  0  0  0
 10 37  1  0  0  0
 10 38  1  0  0  0
 10 39  1  0  0  0
 11 12  1  0  0  0
 11 31  2  0  0  0
 12 13  1  0  0  0
 12 40  1  0  0  0
 13 14  1  0  0  0
 13 41  1  0  0  0
 13 42  1  0  0  0
 14 22  2  0  0  0
 14 26  1  0  0  0
 15 16  1  0  0  0
 15 43  1  0  0  0
 15 44  1  0  0  0
 16 17  2  0  0  0
 16 21  1  0  0  0
 17 18  1  0  0  0
 17 45  1  0  0  0
 18 19  2  0  0  0
 18 46  1  0  0  0
 19 20  1  0  0  0
 19 47  1  0  0  0
 20 21  2  0  0  0
 20 27  1  0  0  0
 21 48  1  0  0  0
 22 23  1  0  0  0
 22 49  1  0  0  0
 23 24  2  0  0  0
 23 29  1  0  0  0
 24 25  1  0  0  0
 24 50  1  0  0  0
 25 26  2  0  0  0
 25 30  1  0  0  0
 26 51  1  0  0  0
 27 28  1  0  0  0
 27 32  2  0  0  0
 28 52  1  0  0  0
 28 53  1  0  0  0
 29 54  1  0  0  0
 29 55  1  0  0  0
 29 56  1  0  0  0
 30 57  1  0  0  0
 30 58  1  0  0  0
 30 59  1  0  0  0
 32 60  1  0  0  0
 32 61  1  0  0  0
M  CHG  1  32   1
M  END
> <s_m_source_file>
../1lqd_ligand.sdf

> <i_m_source_file_index>
1

> <s_epik_input>
W2NIXTFjKFtDSDNdKVtjSF1jKFtDSDNdKVtjSF1jMVtDSDJdW05IXUMoPU8pYyhbY0hdYyhjMjMpYyhbQ0gzXSlbY0hdW2NIXVtjSF0yKW4zW0NIMl1jNFtjSF1bY0hdW2NIXWMoW2NIXTQpL0MoW05IMl0pPU5cW0hd

> <s_epik_cmdline>
J2VwaWtfYXBwJywgJy1pbWFlJywgJ2xpZ2FuZF9wcm8ubWFlJywgJy1vbWFlJywgJ2xpZ2FuZF9wcmVwLm1hZScsICctbXMnLCAnMScsICctcGgnLCAnNycsICctcGh0JywgJzAuNScsICctbnQn

> <r_lp_tautomer_probability>
1

> <r_epik_Ionization_Penalty>
  0.0002

> <r_epik_Ionization_Penalty_Charging>
  0.0002

> <r_epik_Ionization_Penalty_Neutral>
  0.0000

> <r_epik_State_Penalty>
 -0.0000

> <r_epik_Charging_Adjusted_Penalty>
0.000184009597780671

> <i_epik_Tot_Q>
1

> <i_epik_Tot_abs_Q>
1

> <s_epik_Chemistry_Notes>
This compound has an imine and may undergo hydrolysis.

$$$$
