1lqe_ligand
                    3D
 Schrodinger Suite 2020-3.
 64 67  0  0  1  0            999 V2000
   19.5150    6.9410   32.1460 C   0  0  0  0  0  0
   19.5270    7.1310   30.7400 C   0  0  0  0  0  0
   20.3170    6.3180   29.9190 C   0  0  0  0  0  0
   21.1170    5.3200   30.5040 C   0  0  0  0  0  0
   21.1490    5.1150   31.9240 C   0  0  0  0  0  0
   20.3250    5.9390   32.7460 C   0  0  0  0  0  0
   22.0850    4.0790   32.1910 C   0  0  0  0  0  0
   21.9960    4.4270   29.9650 N   0  0  0  0  0  0
   22.5900    3.6990   30.9250 C   0  0  0  0  0  0
   22.1110    4.1210   28.5670 C   0  0  0  0  0  0
   23.6260    2.7910   30.6180 C   0  0  0  0  0  0
   24.8580    2.9790   31.1060 N   0  0  0  0  0  0
   25.7630    1.8360   31.0880 C   0  0  0  0  0  0
   26.9050    2.0080   30.1040 C   0  0  0  0  0  0
   23.4660    1.7930   29.6200 O   0  0  0  0  0  0
   20.9470    3.3010   28.1190 C   0  0  0  0  0  0
   19.5690    3.0770   26.1630 C   0  0  0  0  0  0
   20.5050    3.7710   26.9000 C   0  0  0  0  0  0
   20.3720    2.1460   28.7280 C   0  0  0  0  0  0
   19.4040    1.4170   27.9680 C   0  0  0  0  0  0
   19.0190    1.8670   26.6690 C   0  0  0  0  0  0
   19.3260    3.7140   24.8750 C   0  0  0  0  0  0
   19.5020    5.0390   24.7510 N   0  0  0  0  0  0
   18.9960    2.9600   23.8200 N   0  3  0  0  0  0
   28.0690    3.0930   28.2700 C   0  0  0  0  0  0
   29.1510    2.1580   28.3840 C   0  0  0  0  0  0
   29.0950    1.1910   29.4200 C   0  0  0  0  0  0
   27.9710    1.1070   30.2490 C   0  0  0  0  0  0
   26.9470    3.0220   29.1230 C   0  0  0  0  0  0
   30.2840    2.1270   27.4630 N   0  3  0  0  0  0
   30.3200    0.8860   26.6670 C   0  0  0  0  0  0
   31.5800    2.2060   28.1560 C   0  0  0  0  0  0
   30.3550    3.2500   26.5230 C   0  0  0  0  0  0
   18.8795    7.5685   32.7710 H   0  0  0  0  0  0
   18.9159    7.9166   30.2955 H   0  0  0  0  0  0
   20.3123    6.4568   28.8379 H   0  0  0  0  0  0
   20.3164    5.8013   33.8272 H   0  0  0  0  0  0
   22.3557    3.6659   33.1627 H   0  0  0  0  0  0
   22.1359    5.0559   27.9879 H   0  0  0  0  0  0
   23.0379    3.5556   28.3904 H   0  0  0  0  0  0
   25.1987    3.9440   31.5093 H   0  0  0  0  0  0
   26.1987    1.6975   32.0885 H   0  0  0  0  0  0
   25.2058    0.9316   30.8023 H   0  0  0  0  0  0
   20.9031    4.7086   26.5120 H   0  0  0  0  0  0
   20.6587    1.8319   29.7316 H   0  0  0  0  0  0
   18.9579    0.5131   28.3829 H   0  0  0  0  0  0
   18.3122    1.2903   26.0724 H   0  0  0  0  0  0
   19.7731    5.6424   25.6298 H   0  0  0  0  0  0
   19.3751    5.5213   23.7706 H   0  0  0  0  0  0
   18.8560    1.8757   23.9412 H   0  0  0  0  0  0
   28.1144    3.8731   27.5101 H   0  0  0  0  0  0
   29.9322    0.5095   29.5712 H   0  0  0  0  0  0
   27.9229    0.3336   31.0155 H   0  0  0  0  0  0
   26.1291    3.7360   29.0262 H   0  0  0  0  0  0
   30.2685    0.0173   27.3398 H   0  0  0  0  0  0
   31.2555    0.8477   26.0897 H   0  0  0  0  0  0
   29.4628    0.8675   25.9779 H   0  0  0  0  0  0
   31.6473    1.3993   28.9008 H   0  0  0  0  0  0
   31.6671    3.1794   28.6609 H   0  0  0  0  0  0
   32.3942    2.0983   27.4243 H   0  0  0  0  0  0
   29.4258    3.2962   25.9362 H   0  0  0  0  0  0
   31.2098    3.1076   25.8455 H   0  0  0  0  0  0
   30.4827    4.1886   27.0821 H   0  0  0  0  0  0
   18.8647    3.4245   22.8315 H   0  0  0  0  0  0
  1  2  1  0  0  0
  1  6  2  0  0  0
  1 34  1  0  0  0
  2  3  2  0  0  0
  2 35  1  0  0  0
  3  4  1  0  0  0
  3 36  1  0  0  0
  4  5  2  0  0  0
  4  8  1  0  0  0
  5  6  1  0  0  0
  5  7  1  0  0  0
  6 37  1  0  0  0
  7  9  2  0  0  0
  7 38  1  0  0  0
  8  9  1  0  0  0
  8 10  1  0  0  0
  9 11  1  0  0  0
 10 16  1  0  0  0
 10 39  1  0  0  0
 10 40  1  0  0  0
 11 12  1  0  0  0
 11 15  2  0  0  0
 12 13  1  0  0  0
 12 41  1  0  0  0
 13 14  1  0  0  0
 13 42  1  0  0  0
 13 43  1  0  0  0
 14 28  2  0  0  0
 14 29  1  0  0  0
 16 18  2  0  0  0
 16 19  1  0  0  0
 17 22  1  0  0  0
 17 21  2  0  0  0
 17 18  1  0  0  0
 18 44  1  0  0  0
 19 20  2  0  0  0
 19 45  1  0  0  0
 20 21  1  0  0  0
 20 46  1  0  0  0
 21 47  1  0  0  0
 22 23  1  0  0  0
 22 24  2  0  0  0
 23 48  1  0  0  0
 23 49  1  0  0  0
 24 50  1  0  0  0
 24 64  1  0  0  0
 25 26  1  0  0  0
 25 29  2  0  0  0
 25 51  1  0  0  0
 26 27  2  0  0  0
 26 30  1  0  0  0
 27 28  1  0  0  0
 27 52  1  0  0  0
 28 53  1  0  0  0
 29 54  1  0  0  0
 30 31  1  0  0  0
 30 32  1  0  0  0
 30 33  1  0  0  0
 31 55  1  0  0  0
 31 56  1  0  0  0
 31 57  1  0  0  0
 32 58  1  0  0  0
 32 59  1  0  0  0
 32 60  1  0  0  0
 33 61  1  0  0  0
 33 62  1  0  0  0
 33 63  1  0  0  0
M  CHG  2  24   1  30   1
M  END
> <s_m_source_file>
../1lqe_ligand.sdf

> <i_m_source_file_index>
1

> <s_epik_input>
W2NIXTFbY0hdW2NIXWMoL0MoW05IMl0pPU4vW0hdKVtjSF1jMVtDSDJdbjJjKFtjSF1jKGMyMylbY0hdW2NIXVtjSF1bY0hdMylDKD1PKVtOSF1bQ0gyXWM0W2NIXVtjSF1jKFtjSF1bY0hdNClbTitdKFtDSDNdKShbQ0gzXSlbQ0gzXQ==

> <s_epik_cmdline>
J2VwaWtfYXBwJywgJy1pbWFlJywgJ2xpZ2FuZF9wcm8ubWFlJywgJy1vbWFlJywgJ2xpZ2FuZF9wcmVwLm1hZScsICctbXMnLCAnMScsICctcGgnLCAnNycsICctcGh0JywgJzAuNScsICctbnQn

> <r_lp_tautomer_probability>
1

> <r_epik_Ionization_Penalty>
  0.0002

> <r_epik_Ionization_Penalty_Charging>
  0.0002

> <r_epik_Ionization_Penalty_Neutral>
  0.0000

> <r_epik_State_Penalty>
 -0.0000

> <r_epik_Charging_Adjusted_Penalty>
0.000184009597780671

> <i_epik_Tot_Q>
2

> <i_epik_Tot_abs_Q>
2

> <s_epik_Chemistry_Notes>
This compound has an imine and may undergo hydrolysis.

$$$$
