1lqf_ligand
                    3D
 Schrodinger Suite 2020-3.
 83 85  0  0  1  0            999 V2000
   -4.1750   32.3210   60.3850 C   0  0  0  0  0  0
   -4.5790   32.1290   59.2190 O   0  0  0  0  0  0
   -5.0440   31.4080   62.6230 C   0  0  0  0  0  0
   -6.5620   31.4660   62.2000 C   0  0  0  0  0  0
   -7.5580   31.1130   63.3370 C   0  0  0  0  0  0
   -8.1630   30.0130   63.2970 O   0  0  0  0  0  0
   -7.8090   31.9180   64.2980 O   0  5  0  0  0  0
   -1.8940   30.3000   60.9030 C   0  0  0  0  0  0
   -2.4990   29.6610   59.9970 O   0  0  0  0  0  0
   -0.4210   30.1780   61.0070 C   0  0  0  0  0  0
    0.3310   29.3020   60.0550 C   0  0  0  0  0  0
    0.3300   30.9210   62.0160 C   0  0  0  0  0  0
    1.7940   29.1800   60.1100 C   0  0  0  0  0  0
    1.7900   30.7950   62.0660 C   0  0  0  0  0  0
    2.5320   29.9360   61.1240 C   0  0  0  0  0  0
   -2.6430   31.0870   61.7140 N   0  0  0  0  0  0
   -4.1010   31.1580   61.3880 C   0  0  2  0  0  0
   -3.7140   33.5000   60.8670 N   0  0  0  0  0  0
   -3.6340   34.7610   60.0930 C   0  0  2  0  0  0
   -2.1750   35.1480   59.9660 C   0  0  0  0  0  0
   -1.4590   35.0620   60.9240 O   0  0  0  0  0  0
   -4.2970   35.9620   60.7990 C   0  0  0  0  0  0
   -5.7720   36.0860   60.6340 C   0  0  0  0  0  0
   -6.6620   35.4240   61.5880 C   0  0  0  0  0  0
   -8.1170   35.5270   61.4890 C   0  0  0  0  0  0
   -6.3470   36.8740   59.5400 C   0  0  0  0  0  0
   -7.8130   36.9820   59.4310 C   0  0  0  0  0  0
   -8.7380   36.3130   60.4060 C   0  0  0  0  0  0
  -10.3460   36.4200   60.3210 C   0  0  0  0  0  0
  -10.7520   36.3430   58.9690 F   0  0  0  0  0  0
  -10.9070   35.3010   60.9760 F   0  0  0  0  0  0
  -11.0420   37.7090   60.9460 P   0  0  0  0  0  0
  -12.5810   37.4470   61.2010 O   0  5  0  0  0  0
  -10.3800   38.0580   62.3270 O   0  0  0  0  0  0
  -10.9070   38.9580   59.9950 O   0  5  0  0  0  0
   -1.7600   35.5900   58.7990 N   0  0  0  0  0  0
   -0.3900   36.0210   58.5660 C   0  0  1  0  0  0
   -0.0190   35.5950   57.0920 C   0  0  0  0  0  0
    1.3700   35.9700   56.6300 C   0  0  0  0  0  0
    1.4890   37.1930   55.9040 C   0  0  0  0  0  0
    2.7520   37.6710   55.4170 C   0  0  0  0  0  0
    2.5820   35.1700   56.8920 C   0  0  0  0  0  0
    3.8940   35.6380   56.4000 C   0  0  0  0  0  0
    3.9860   36.9150   55.6450 C   0  0  0  0  0  0
    5.3150   37.4930   55.0830 C   0  0  0  0  0  0
    5.1280   38.8790   54.7980 F   0  0  0  0  0  0
    6.2230   37.4540   56.0950 F   0  0  0  0  0  0
    5.9280   36.7280   53.7410 P   0  0  0  0  0  0
    6.0690   35.2090   53.9850 O   0  5  0  0  0  0
    5.0410   36.9110   52.4570 O   0  5  0  0  0  0
    7.3280   37.2630   53.4050 O   0  0  0  0  0  0
   -0.1750   37.5970   58.7570 C   0  0  0  0  0  0
    0.9590   38.0170   59.1750 O   0  0  0  0  0  0
   -1.1100   38.3940   58.4510 N   0  0  0  0  0  0
   -4.9196   30.5922   63.3504 H   0  0  0  0  0  0
   -4.7813   32.3652   63.0971 H   0  0  0  0  0  0
   -6.8095   32.4827   61.8607 H   0  0  0  0  0  0
   -6.7423   30.7526   61.3824 H   0  0  0  0  0  0
   -0.2208   28.7400   59.3015 H   0  0  0  0  0  0
   -0.1907   31.5637   62.7258 H   0  0  0  0  0  0
    2.3222   28.5364   59.4066 H   0  0  0  0  0  0
    2.3434   31.3526   62.8216 H   0  0  0  0  0  0
    3.6181   29.8647   61.1821 H   0  0  0  0  0  0
   -2.2420   31.6534   62.5675 H   0  0  0  0  0  0
   -4.4204   30.1861   60.9839 H   0  0  0  0  0  0
   -3.3840   33.4767   61.9161 H   0  0  0  0  0  0
   -4.1372   34.5312   59.1422 H   0  0  0  0  0  0
   -4.1162   35.8962   61.8820 H   0  0  0  0  0  0
   -3.8675   36.8978   60.4118 H   0  0  0  0  0  0
   -6.2273   34.8365   62.3967 H   0  0  0  0  0  0
   -8.7469   35.0199   62.2199 H   0  0  0  0  0  0
   -5.7003   37.3726   58.8180 H   0  0  0  0  0  0
   -8.2394   37.5667   58.6159 H   0  0  0  0  0  0
   -2.4947   35.6267   57.9812 H   0  0  0  0  0  0
    0.1870   35.4919   59.3387 H   0  0  0  0  0  0
   -0.0899   34.5014   56.9976 H   0  0  0  0  0  0
   -0.7166   36.0699   56.3865 H   0  0  0  0  0  0
    0.5924   37.7828   55.7133 H   0  0  0  0  0  0
    2.7936   38.6120   54.8685 H   0  0  0  0  0  0
    2.5093   34.2351   57.4477 H   0  0  0  0  0  0
    4.7913   35.0490   56.5900 H   0  0  0  0  0  0
   -2.0735   38.0006   58.0946 H   0  0  0  0  0  0
   -0.9589   39.4798   58.5415 H   0  0  0  0  0  0
  1 18  1  0  0  0
  1 17  1  0  0  0
  1  2  2  0  0  0
  3 17  1  0  0  0
  3  4  1  0  0  0
  3 55  1  0  0  0
  3 56  1  0  0  0
  4  5  1  0  0  0
  4 57  1  0  0  0
  4 58  1  0  0  0
  5  7  1  0  0  0
  5  6  2  0  0  0
  8 16  1  0  0  0
  8 10  1  0  0  0
  8  9  2  0  0  0
 10 12  2  0  0  0
 10 11  1  0  0  0
 11 13  2  0  0  0
 11 59  1  0  0  0
 12 14  1  0  0  0
 12 60  1  0  0  0
 13 15  1  0  0  0
 13 61  1  0  0  0
 14 15  2  0  0  0
 14 62  1  0  0  0
 15 63  1  0  0  0
 16 17  1  0  0  0
 16 64  1  0  0  0
 17 65  1  0  0  0
 18 19  1  0  0  0
 18 66  1  0  0  0
 19 22  1  0  0  0
 19 20  1  0  0  0
 19 67  1  0  0  0
 20 36  1  0  0  0
 20 21  2  0  0  0
 22 23  1  0  0  0
 22 68  1  0  0  0
 22 69  1  0  0  0
 23 26  2  0  0  0
 23 24  1  0  0  0
 24 25  2  0  0  0
 24 70  1  0  0  0
 25 28  1  0  0  0
 25 71  1  0  0  0
 26 27  1  0  0  0
 26 72  1  0  0  0
 27 28  2  0  0  0
 27 73  1  0  0  0
 28 29  1  0  0  0
 29 32  1  0  0  0
 29 31  1  0  0  0
 29 30  1  0  0  0
 32 35  1  0  0  0
 32 34  2  0  0  0
 32 33  1  0  0  0
 36 37  1  0  0  0
 36 74  1  0  0  0
 37 52  1  0  0  0
 37 38  1  0  0  0
 37 75  1  0  0  0
 38 39  1  0  0  0
 38 76  1  0  0  0
 38 77  1  0  0  0
 39 42  2  0  0  0
 39 40  1  0  0  0
 40 41  2  0  0  0
 40 78  1  0  0  0
 41 44  1  0  0  0
 41 79  1  0  0  0
 42 43  1  0  0  0
 42 80  1  0  0  0
 43 44  2  0  0  0
 43 81  1  0  0  0
 44 45  1  0  0  0
 45 48  1  0  0  0
 45 47  1  0  0  0
 45 46  1  0  0  0
 48 51  2  0  0  0
 48 50  1  0  0  0
 48 49  1  0  0  0
 52 54  1  0  0  0
 52 53  2  0  0  0
 54 82  1  0  0  0
 54 83  1  0  0  0
M  CHG  5   7  -1  33  -1  35  -1  49  -1  50  -1
M  END
> <s_m_source_file>
../1lqf_ligand.sdf

> <i_m_source_file_index>
1

> <s_epik_input>
W2NIXTFbY0hdW2NIXVtjSF1bY0hdYzFDKD1PKVtOSF1bQ0BASF0oW0NIMl1bQ0gyXUMoPU8pW09IXSlDKD1PKVtOSF1bQ0BASF0oW0NIMl1jMltjSF1bY0hdYyhbY0hdW2NIXTIpQyhGKShGKVAoPU8pKFtPSF0pW09IXSlDKD1PKVtOSF1bQ0BIXShDKD1PKVtOSDJdKVtDSDJdYzNbY0hdW2NIXWMoW2NIXVtjSF0zKUMoRikoRilQKD1PKShbT0hdKVtPSF0=

> <s_epik_cmdline>
J2VwaWtfYXBwJywgJy1pbWFlJywgJ2xpZ2FuZF9wcm8ubWFlJywgJy1vbWFlJywgJ2xpZ2FuZF9wcmVwLm1hZScsICctbXMnLCAnMScsICctcGgnLCAnNycsICctcGh0JywgJzAuNScsICctbnQn

> <r_epik_Ionization_Penalty>
  0.0306

> <r_epik_Ionization_Penalty_Charging>
  0.0306

> <r_epik_Ionization_Penalty_Neutral>
  0.0000

> <r_epik_State_Penalty>
  0.0222

> <r_epik_Charging_Adjusted_Penalty>
0.0528596619447834

> <i_epik_Tot_Q>
-5

> <i_epik_Tot_abs_Q>
5

$$$$
