1lrh_ligand
                    3D
 Schrodinger Suite 2020-3.
 23 24  0  0  1  0            999 V2000
   67.0620   41.4120   23.3770 C   0  0  0  0  0  0
   67.3560   41.0350   24.7090 C   0  0  0  0  0  0
   68.6830   41.0750   25.1790 C   0  0  0  0  0  0
   69.7240   41.4490   24.2940 C   0  0  0  0  0  0
   69.4720   41.8320   23.0220 C   0  0  0  0  0  0
   68.1620   41.8330   22.5090 C   0  0  0  0  0  0
   67.8870   42.1940   21.1380 C   0  0  0  0  0  0
   66.5860   42.1760   20.6710 C   0  0  0  0  0  0
   65.5030   41.7940   21.5090 C   0  0  0  0  0  0
   65.7230   41.4250   22.8310 C   0  0  0  0  0  0
   66.2660   40.6060   25.7450 C   0  0  0  0  0  0
   66.7580   39.6240   26.7270 C   0  0  0  0  0  0
   66.8010   38.3250   26.4730 O   0  5  0  0  0  0
   67.2210   40.1640   27.8410 O   0  0  0  0  0  0
   68.9071   40.8204   26.2149 H   0  0  0  0  0  0
   70.7548   41.4275   24.6476 H   0  0  0  0  0  0
   70.2978   42.1453   22.3832 H   0  0  0  0  0  0
   68.7025   42.4797   20.4737 H   0  0  0  0  0  0
   66.3862   42.4608   19.6380 H   0  0  0  0  0  0
   64.4885   41.7904   21.1103 H   0  0  0  0  0  0
   64.8795   41.1432   23.4612 H   0  0  0  0  0  0
   65.9209   41.4899   26.3014 H   0  0  0  0  0  0
   65.4158   40.1511   25.2156 H   0  0  0  0  0  0
  1 10  2  0  0  0
  1  6  1  0  0  0
  1  2  1  0  0  0
  2 11  1  0  0  0
  2  3  2  0  0  0
  3  4  1  0  0  0
  3 15  1  0  0  0
  4  5  2  0  0  0
  4 16  1  0  0  0
  5  6  1  0  0  0
  5 17  1  0  0  0
  6  7  2  0  0  0
  7  8  1  0  0  0
  7 18  1  0  0  0
  8  9  2  0  0  0
  8 19  1  0  0  0
  9 10  1  0  0  0
  9 20  1  0  0  0
 10 21  1  0  0  0
 11 12  1  0  0  0
 11 22  1  0  0  0
 11 23  1  0  0  0
 12 14  2  0  0  0
 12 13  1  0  0  0
M  CHG  1  13  -1
M  END
> <s_m_source_file>
../1lrh_ligand.sdf

> <i_m_source_file_index>
1

> <s_epik_input>
W2NIXTFbY0hdW2NIXVtjSF1jKGMxMilbY0hdW2NIXVtjSF1jMltDSDJdQyg9TylbT0hd

> <s_epik_cmdline>
J2VwaWtfYXBwJywgJy1pbWFlJywgJ2xpZ2FuZF9wcm8ubWFlJywgJy1vbWFlJywgJ2xpZ2FuZF9wcmVwLm1hZScsICctbXMnLCAnMScsICctcGgnLCAnNycsICctcGh0JywgJzAuNScsICctbnQn

> <r_lp_tautomer_probability>
1

> <r_epik_Ionization_Penalty>
  0.0012

> <r_epik_Ionization_Penalty_Charging>
  0.0012

> <r_epik_Ionization_Penalty_Neutral>
  0.0000

> <r_epik_State_Penalty>
 -0.0000

> <r_epik_Charging_Adjusted_Penalty>
0.00118098672540545

> <i_epik_Tot_Q>
-1

> <i_epik_Tot_abs_Q>
1

$$$$
