1lrt_ligand
                    3D
 Schrodinger Suite 2020-3.
 68 72  0  0  1  0            999 V2000
  -34.9250   41.6780   40.7010 P   0  0  2  0  0  0
  -36.3190   41.5350   41.1820 O   0  0  0  0  0  0
  -34.3060   42.9820   41.1420 O   0  5  0  0  0  0
  -34.8450   41.5810   39.1080 O   0  0  0  0  0  0
  -35.3390   40.5030   38.3530 C   0  0  0  0  0  0
  -36.0310   41.0680   37.2010 C   0  0  1  0  0  0
  -37.4100   41.4050   37.1830 O   0  0  0  0  0  0
  -35.3150   42.3220   36.6510 C   0  0  1  0  0  0
  -34.8030   42.0880   35.3210 O   0  0  0  0  0  0
  -36.2940   43.4590   36.6320 C   0  0  1  0  0  0
  -36.0640   44.2970   35.5010 O   0  0  0  0  0  0
  -37.6530   42.7630   36.7890 C   0  0  2  0  0  0
  -38.5330   43.4040   37.6990 N   0  0  0  0  0  0
  -38.4150   43.5560   39.0560 C   0  0  0  0  0  0
  -39.4390   44.2100   39.5970 N   0  0  0  0  0  0
  -40.1880   44.4540   38.5450 C   0  0  0  0  0  0
  -41.4170   45.1320   38.5600 C   0  0  0  0  0  0
  -41.9460   45.5960   39.6800 N   0  0  0  0  0  0
  -42.0340   45.2810   37.3370 N   0  0  0  0  0  0
  -41.5050   44.8060   36.1600 C   0  0  0  0  0  0
  -40.3380   44.1620   36.1700 N   0  0  0  0  0  0
  -39.6470   43.9650   37.3380 C   0  0  0  0  0  0
  -33.9210   40.3910   41.1120 C   0  0  0  0  0  0
  -32.3340   39.9570   40.6910 P   0  0  2  0  0  0
  -31.6740   41.2750   40.7560 O   0  0  0  0  0  0
  -32.3880   39.2790   39.3640 O   0  5  0  0  0  0
  -31.7030   39.0350   41.8310 O   0  0  0  0  0  0
  -32.0620   37.6540   42.0860 C   0  0  0  0  0  0
  -31.2540   37.1190   43.2910 C   0  0  1  0  0  0
  -29.8600   36.7910   43.0510 O   0  0  0  0  0  0
  -31.3150   38.1750   44.3540 C   0  0  1  0  0  0
  -31.9730   37.6200   45.4930 O   0  0  0  0  0  0
  -29.9070   38.5370   44.7440 C   0  0  1  0  0  0
  -29.6280   38.5640   46.1220 O   0  0  0  0  0  0
  -29.0610   37.6230   43.9310 C   0  0  2  0  0  0
  -27.8840   38.1850   43.2030 C   0  0  0  0  0  0
  -27.0490   39.0400   43.7760 N   0  0  0  0  0  0
  -26.0760   39.3560   42.9080 C   0  0  0  0  0  0
  -26.1450   38.7530   41.7000 C   0  0  0  0  0  0
  -27.5120   37.7090   41.5970 S   0  0  0  0  0  0
  -25.0230   40.3240   43.3390 C   0  0  0  0  0  0
  -24.0840   40.6790   42.6310 O   0  0  0  0  0  0
  -25.2060   40.7730   44.5820 N   0  0  0  0  0  0
  -34.5013   39.8679   38.0291 H   0  0  0  0  0  0
  -36.0314   39.9106   38.9691 H   0  0  0  0  0  0
  -36.0580   40.1123   36.6570 H   0  0  0  0  0  0
  -34.4298   42.5846   37.2489 H   0  0  0  0  0  0
  -34.0696   41.2869   35.1471 H   0  0  0  0  0  0
  -36.1751   44.2480   37.3892 H   0  0  0  0  0  0
  -35.0940   44.8009   35.3780 H   0  0  0  0  0  0
  -38.2389   42.7800   35.8582 H   0  0  0  0  0  0
  -37.5696   43.1799   39.6321 H   0  0  0  0  0  0
  -41.4203   45.4557   40.6360 H   0  0  0  0  0  0
  -42.9117   46.1222   39.6554 H   0  0  0  0  0  0
  -42.0385   44.9557   35.2214 H   0  0  0  0  0  0
  -33.7635   40.3820   42.2006 H   0  0  0  0  0  0
  -34.3906   39.4459   40.8016 H   0  0  0  0  0  0
  -33.1369   37.5901   42.3107 H   0  0  0  0  0  0
  -31.8364   37.0464   41.1972 H   0  0  0  0  0  0
  -31.6607   36.1407   43.5869 H   0  0  0  0  0  0
  -31.8867   39.0555   44.0255 H   0  0  0  0  0  0
  -33.0191   37.2887   45.4166 H   0  0  0  0  0  0
  -29.6662   39.5999   44.5951 H   0  0  0  0  0  0
  -30.2117   39.2158   46.7887 H   0  0  0  0  0  0
  -28.6034   36.9934   44.7083 H   0  0  0  0  0  0
  -25.4275   38.9075   40.8941 H   0  0  0  0  0  0
  -26.0648   40.4217   45.1728 H   0  0  0  0  0  0
  -24.4981   41.4945   45.0160 H   0  0  0  0  0  0
  1  2  2  0  0  0
  1  3  1  0  0  0
  1  4  1  0  0  0
  1 23  1  0  0  0
  4  5  1  0  0  0
  5  6  1  0  0  0
  5 44  1  0  0  0
  5 45  1  0  0  0
  6  7  1  0  0  0
  6  8  1  0  0  0
  6 46  1  0  0  0
  7 12  1  0  0  0
  8  9  1  0  0  0
  8 10  1  0  0  0
  8 47  1  0  0  0
  9 48  1  0  0  0
 10 11  1  0  0  0
 10 12  1  0  0  0
 10 49  1  0  0  0
 11 50  1  0  0  0
 12 13  1  0  0  0
 12 51  1  0  0  0
 13 14  1  0  0  0
 13 22  1  0  0  0
 14 15  2  0  0  0
 14 52  1  0  0  0
 15 16  1  0  0  0
 16 17  2  0  0  0
 16 22  1  0  0  0
 17 18  1  0  0  0
 17 19  1  0  0  0
 18 53  1  0  0  0
 18 54  1  0  0  0
 19 20  2  0  0  0
 20 21  1  0  0  0
 20 55  1  0  0  0
 21 22  2  0  0  0
 23 24  1  0  0  0
 23 56  1  0  0  0
 23 57  1  0  0  0
 24 25  2  0  0  0
 24 26  1  0  0  0
 24 27  1  0  0  0
 27 28  1  0  0  0
 28 29  1  0  0  0
 28 58  1  0  0  0
 28 59  1  0  0  0
 29 30  1  0  0  0
 29 31  1  0  0  0
 29 60  1  0  0  0
 30 35  1  0  0  0
 31 32  1  0  0  0
 31 33  1  0  0  0
 31 61  1  0  0  0
 32 62  1  0  0  0
 33 34  1  0  0  0
 33 35  1  0  0  0
 33 63  1  0  0  0
 34 64  1  0  0  0
 35 36  1  0  0  0
 35 65  1  0  0  0
 36 37  2  0  0  0
 36 40  1  0  0  0
 37 38  1  0  0  0
 38 39  2  0  0  0
 38 41  1  0  0  0
 39 40  1  0  0  0
 39 66  1  0  0  0
 41 42  2  0  0  0
 41 43  1  0  0  0
 43 67  1  0  0  0
 43 68  1  0  0  0
M  CHG  2   3  -1  26  -1
M  END
> <s_m_source_file>
../1lrt_ligand.sdf

> <i_m_source_file_index>
1

> <s_epik_input>
czFbY0hdYyhDKD1PKVtOSDJdKW5jMVtDQEBIXShbQ0BIXShbT0hdKVtDQEBIXTJbT0hdKU9bQ0BASF0yW0NIMl1PW1BAQF0oPU8pKFtPSF0pW0NIMl1bUEBAXSg9TykoW09IXSlPW0NIMl1bQ0BIXTNPW0NASF0oW0NASF0oW09IXSlbQ0BASF0zW09IXSluKFtjSF1uNCljKGM0NSluW2NIXW5jNVtOSDJd

> <s_epik_cmdline>
J2VwaWtfYXBwJywgJy1pbWFlJywgJ2xpZ2FuZF9wcm8ubWFlJywgJy1vbWFlJywgJ2xpZ2FuZF9wcmVwLm1hZScsICctbXMnLCAnMScsICctcGgnLCAnNycsICctcGh0JywgJzAuNScsICctbnQn

> <r_lp_tautomer_probability>
1

> <r_epik_Ionization_Penalty>
  0.0005

> <r_epik_Ionization_Penalty_Charging>
  0.0000

> <r_epik_Ionization_Penalty_Neutral>
  0.0004

> <r_epik_State_Penalty>
 -0.0000

> <r_epik_Charging_Adjusted_Penalty>
1.82448363059432e-05

> <i_epik_Tot_Q>
-2

> <i_epik_Tot_abs_Q>
2

> <s_epik_Chemistry_Notes>
This compound contains an acetal/aminal-like group ( X-CH(R)-Y where X, Y are N, S, or O) that may be acid/base labile, releasing an aldehyde.

$$$$
