1lt5_ligand
                    3D
 Schrodinger Suite 2020-3.
 45 46  0  0  1  0            999 V2000
   23.8310   -5.1320   -0.4190 C   0  0  1  0  0  0
   25.6140   -5.2320   -0.0350 S   0  0  0  0  0  0
   23.3850   -6.4430   -1.0030 C   0  0  2  0  0  0
   24.0640   -6.7730   -2.1890 O   0  0  0  0  0  0
   21.8720   -6.4240   -1.2460 C   0  0  1  0  0  0
   21.5310   -7.7380   -1.6810 O   0  0  0  0  0  0
   21.1660   -6.0940    0.0760 C   0  0  1  0  0  0
   21.3640   -7.1440    1.0200 O   0  0  0  0  0  0
   21.7210   -4.7950    0.6420 C   0  0  2  0  0  0
   23.1260   -4.9240    0.8140 O   0  0  0  0  0  0
   21.1350   -4.4360    2.0030 C   0  0  0  0  0  0
   21.7830   -3.2710    2.4680 O   0  0  0  0  0  0
   25.8750   -3.5870    0.6420 C   0  0  1  0  0  0
   27.3250   -3.4440    1.1010 C   0  0  2  0  0  0
   27.7070   -4.4170    2.0490 O   0  0  0  0  0  0
   27.5230   -2.0550    1.6760 C   0  0  1  0  0  0
   28.8890   -1.8810    2.0370 O   0  0  0  0  0  0
   27.0650   -1.0000    0.5970 C   0  0  1  0  0  0
   27.9630   -1.0720   -0.5020 O   0  0  0  0  0  0
   25.5980   -1.3080    0.1220 C   0  0  2  0  0  0
   25.6080   -2.6460   -0.4030 O   0  0  0  0  0  0
   24.9890   -0.3450   -0.9070 C   0  0  0  0  0  0
   23.6660   -0.7600   -1.1880 O   0  0  0  0  0  0
   23.4237   -4.3568   -1.0847 H   0  0  0  0  0  0
   23.6976   -7.2486   -0.3223 H   0  0  0  0  0  0
   25.1624   -6.8322   -2.1957 H   0  0  0  0  0  0
   21.5478   -5.7262   -2.0321 H   0  0  0  0  0  0
   21.9529   -8.1345   -2.6163 H   0  0  0  0  0  0
   20.0767   -6.0335   -0.0644 H   0  0  0  0  0  0
   21.0256   -8.1643    0.7868 H   0  0  0  0  0  0
   21.5228   -3.9926   -0.0839 H   0  0  0  0  0  0
   20.0552   -4.2530    1.9005 H   0  0  0  0  0  0
   21.3011   -5.2669    2.7045 H   0  0  0  0  0  0
   21.5065   -2.8391    3.4412 H   0  0  0  0  0  0
   25.2645   -3.2155    1.4783 H   0  0  0  0  0  0
   28.0080   -3.6583    0.2658 H   0  0  0  0  0  0
   27.6298   -5.4860    1.8016 H   0  0  0  0  0  0
   26.9966   -1.9364    2.6346 H   0  0  0  0  0  0
   29.3501   -2.5463    2.7818 H   0  0  0  0  0  0
   27.1452    0.0371    0.9547 H   0  0  0  0  0  0
   29.0358   -0.8832   -0.3489 H   0  0  0  0  0  0
   24.9093   -1.2548    0.9781 H   0  0  0  0  0  0
   24.9814    0.6749   -0.4950 H   0  0  0  0  0  0
   25.5904   -0.3640   -1.8278 H   0  0  0  0  0  0
   23.0538   -0.1962   -1.9073 H   0  0  0  0  0  0
  1 10  1  0  0  0
  1  3  1  0  0  0
  1  2  1  0  0  0
  1 24  1  0  0  0
  2 13  1  0  0  0
  3  5  1  0  0  0
  3  4  1  0  0  0
  3 25  1  0  0  0
  4 26  1  0  0  0
  5  7  1  0  0  0
  5  6  1  0  0  0
  5 27  1  0  0  0
  6 28  1  0  0  0
  7  9  1  0  0  0
  7  8  1  0  0  0
  7 29  1  0  0  0
  8 30  1  0  0  0
  9 11  1  0  0  0
  9 10  1  0  0  0
  9 31  1  0  0  0
 11 12  1  0  0  0
 11 32  1  0  0  0
 11 33  1  0  0  0
 12 34  1  0  0  0
 13 21  1  0  0  0
 13 14  1  0  0  0
 13 35  1  0  0  0
 14 16  1  0  0  0
 14 15  1  0  0  0
 14 36  1  0  0  0
 15 37  1  0  0  0
 16 18  1  0  0  0
 16 17  1  0  0  0
 16 38  1  0  0  0
 17 39  1  0  0  0
 18 20  1  0  0  0
 18 19  1  0  0  0
 18 40  1  0  0  0
 19 41  1  0  0  0
 20 22  1  0  0  0
 20 21  1  0  0  0
 20 42  1  0  0  0
 22 23  1  0  0  0
 22 43  1  0  0  0
 22 44  1  0  0  0
 23 45  1  0  0  0
M  END
> <s_m_source_file>
../1lt5_ligand.sdf

> <i_m_source_file_index>
1

> <s_epik_input>
W09IXVtDSDJdW0NAQEhdKE8xKVtDQEhdKFtPSF0pW0NASF0oW09IXSlbQ0BASF0oW09IXSlbQ0BASF0xU1tDQEhdMltDQEhdKFtPSF0pW0NAQEhdKFtPSF0pW0NAQEhdKFtPSF0pW0NASF0oTzIpW0NIMl1bT0hd

> <s_epik_cmdline>
J2VwaWtfYXBwJywgJy1pbWFlJywgJ2xpZ2FuZF9wcm8ubWFlJywgJy1vbWFlJywgJ2xpZ2FuZF9wcmVwLm1hZScsICctbXMnLCAnMScsICctcGgnLCAnNycsICctcGh0JywgJzAuNScsICctbnQn

> <r_lp_tautomer_probability>
1

> <r_epik_Ionization_Penalty>
  0.0000

> <r_epik_Ionization_Penalty_Charging>
  0.0000

> <r_epik_Ionization_Penalty_Neutral>
  0.0000

> <r_epik_State_Penalty>
 -0.0000

> <r_epik_Charging_Adjusted_Penalty>
0

> <i_epik_Tot_Q>
0

> <i_epik_Tot_abs_Q>
0

> <s_epik_Chemistry_Notes>
This compound contains an acetal/aminal-like group ( X-CH(R)-Y where X, Y are N, S, or O) that may be acid/base labile, releasing an aldehyde.

$$$$
