1lt6_ligand
                    3D
 Schrodinger Suite 2020-3.
 36 37  0  0  1  0            999 V2000
   11.1940   23.2410   -4.1540 C   0  0  1  0  0  0
   10.0240   24.0030   -3.4650 C   0  0  1  0  0  0
   10.0330   23.8170   -1.9450 C   0  0  2  0  0  0
   10.1110   22.3190   -1.5860 C   0  0  2  0  0  0
   11.3440   21.7020   -2.2930 C   0  0  1  0  0  0
   11.4570   20.2600   -1.9690 C   0  0  0  0  0  0
   13.5350   23.5560   -4.4850 C   0  0  0  0  0  0
   14.2390   22.5180   -3.9040 C   0  0  0  0  0  0
   15.4070   22.0830   -4.5400 C   0  0  0  0  0  0
   15.7980   22.7370   -5.7470 C   0  0  0  0  0  0
   15.0490   23.7920   -6.2940 C   0  0  0  0  0  0
   13.8850   24.2080   -5.6490 C   0  0  0  0  0  0
   16.1910   20.9800   -3.9890 N   0  3  0  0  0  0
   12.3550   23.9760   -3.8220 O   0  0  0  0  0  0
   10.0340   25.4040   -3.6830 O   0  0  0  0  0  0
    8.8350   24.3640   -1.5150 O   0  0  0  0  0  0
    8.9200   21.6210   -1.9280 O   0  0  0  0  0  0
   11.2540   21.8450   -3.7610 O   0  0  0  0  0  0
   12.6120   19.7720   -2.6080 O   0  0  0  0  0  0
   17.2260   20.5600   -4.5470 O   0  5  0  0  0  0
   15.8550   20.4080   -2.9320 O   0  0  0  0  0  0
   11.1545   23.1627   -5.2505 H   0  0  0  0  0  0
    9.0979   23.6502   -3.9424 H   0  0  0  0  0  0
   10.8356   24.3608   -1.4253 H   0  0  0  0  0  0
   10.1389   22.1773   -0.4955 H   0  0  0  0  0  0
   12.2581   22.2172   -1.9629 H   0  0  0  0  0  0
   11.5385   20.1344   -0.8792 H   0  0  0  0  0  0
   10.5638   19.7312   -2.3332 H   0  0  0  0  0  0
   13.8953   22.0532   -2.9799 H   0  0  0  0  0  0
   16.7028   22.4087   -6.2584 H   0  0  0  0  0  0
   15.3743   24.2801   -7.2127 H   0  0  0  0  0  0
   13.2748   25.0176   -6.0494 H   0  0  0  0  0  0
   10.0302   25.8010   -4.7088 H   0  0  0  0  0  0
    8.6206   25.4280   -1.6937 H   0  0  0  0  0  0
    7.9555   21.9390   -1.5054 H   0  0  0  0  0  0
   12.8931   18.7137   -2.5030 H   0  0  0  0  0  0
  1 18  1  0  0  0
  1 14  1  0  0  0
  1  2  1  0  0  0
  1 22  1  0  0  0
  2 15  1  0  0  0
  2  3  1  0  0  0
  2 23  1  0  0  0
  3 16  1  0  0  0
  3  4  1  0  0  0
  3 24  1  0  0  0
  4 17  1  0  0  0
  4  5  1  0  0  0
  4 25  1  0  0  0
  5 18  1  0  0  0
  5  6  1  0  0  0
  5 26  1  0  0  0
  6 19  1  0  0  0
  6 27  1  0  0  0
  6 28  1  0  0  0
  7 14  1  0  0  0
  7 12  2  0  0  0
  7  8  1  0  0  0
  8  9  2  0  0  0
  8 29  1  0  0  0
  9 13  1  0  0  0
  9 10  1  0  0  0
 10 11  2  0  0  0
 10 30  1  0  0  0
 11 12  1  0  0  0
 11 31  1  0  0  0
 12 32  1  0  0  0
 13 21  2  0  0  0
 13 20  1  0  0  0
 15 33  1  0  0  0
 16 34  1  0  0  0
 17 35  1  0  0  0
 19 36  1  0  0  0
M  CHG  2  13   1  20  -1
M  END
> <s_m_source_file>
../1lt6_ligand.sdf

> <i_m_source_file_index>
1

> <s_epik_input>
W09IXVtDSDJdW0NAQEhdKE8xKVtDQEhdKFtPSF0pW0NASF0oW09IXSlbQ0BASF0oW09IXSlbQ0BIXTFPYzJbY0hdYyhbTitdKFtPLV0pPU8pW2NIXVtjSF1bY0hdMg==

> <s_epik_cmdline>
J2VwaWtfYXBwJywgJy1pbWFlJywgJ2xpZ2FuZF9wcm8ubWFlJywgJy1vbWFlJywgJ2xpZ2FuZF9wcmVwLm1hZScsICctbXMnLCAnMScsICctcGgnLCAnNycsICctcGh0JywgJzAuNScsICctbnQn

> <r_lp_tautomer_probability>
1

> <r_epik_Ionization_Penalty>
  0.0000

> <r_epik_Ionization_Penalty_Charging>
  0.0000

> <r_epik_Ionization_Penalty_Neutral>
  0.0000

> <r_epik_State_Penalty>
 -0.0000

> <r_epik_Charging_Adjusted_Penalty>
0

> <i_epik_Tot_Q>
0

> <i_epik_Tot_abs_Q>
2

> <s_epik_Chemistry_Notes>
This compound contains an acetal/aminal-like group ( X-CH(R)-Y where X, Y are N, S, or O) that may be acid/base labile, releasing an aldehyde.

$$$$
