1lv8_ligand
                    3D
 Schrodinger Suite 2020-3.
 34 35  0  0  1  0            999 V2000
  -40.2740   -8.6830  220.9790 N   0  0  0  0  0  0
  -39.1920   -9.1180  220.2040 C   0  0  0  0  0  0
  -39.6140   -9.9630  219.2480 N   0  0  0  0  0  0
  -41.0010  -10.0900  219.3890 C   0  0  0  0  0  0
  -42.0150  -10.8630  218.6410 C   0  0  0  0  0  0
  -41.8310  -11.6210  217.6560 N   0  0  0  0  0  0
  -43.3520  -10.6790  219.1480 N   0  0  0  0  0  0
  -43.6720   -9.8540  220.2470 C   0  0  0  0  0  0
  -44.9630   -9.7620  220.6220 N   0  0  0  0  0  0
  -42.7250   -9.1360  220.9500 N   0  0  0  0  0  0
  -41.4300   -9.2940  220.4760 C   0  0  0  0  0  0
  -40.2480   -7.7790  222.0580 C   0  0  0  0  0  0
  -39.3670   -8.1830  223.2580 C   0  0  2  0  0  0
  -40.0600   -9.3570  223.9560 C   0  0  0  0  0  0
  -39.2820   -7.0650  224.2000 O   0  0  0  0  0  0
  -38.3820   -4.7290  224.5810 P   0  0  0  0  0  0
  -38.2090   -6.1120  223.8810 C   0  0  0  0  0  0
  -37.3310   -3.7990  224.1260 O   0  0  0  0  0  0
  -39.7090   -4.0880  224.2380 O   0  5  0  0  0  0
  -38.3250   -4.8750  226.0510 O   0  0  0  0  0  0
  -38.1559   -8.8147  220.3545 H   0  0  0  0  0  0
  -40.8161  -11.7704  217.2590 H   0  0  0  0  0  0
  -42.6848  -12.1352  217.1907 H   0  0  0  0  0  0
  -45.7354  -10.3247  220.0772 H   0  0  0  0  0  0
  -45.2445   -9.1242  221.4729 H   0  0  0  0  0  0
  -39.8663   -6.8069  221.7127 H   0  0  0  0  0  0
  -41.2659   -7.6530  222.4554 H   0  0  0  0  0  0
  -38.3376   -8.4236  222.9538 H   0  0  0  0  0  0
  -40.1318  -10.2063  223.2607 H   0  0  0  0  0  0
  -41.0697   -9.0531  224.2692 H   0  0  0  0  0  0
  -39.4761   -9.6547  224.8394 H   0  0  0  0  0  0
  -37.2424   -6.5269  224.2028 H   0  0  0  0  0  0
  -38.1881   -5.9331  222.7959 H   0  0  0  0  0  0
  -38.4307   -3.9903  226.6961 H   0  0  0  0  0  0
  1  2  1  0  0  0
  1 11  1  0  0  0
  1 12  1  0  0  0
  2  3  2  0  0  0
  2 21  1  0  0  0
  3  4  1  0  0  0
  4  5  2  0  0  0
  4 11  1  0  0  0
  5  6  1  0  0  0
  5  7  1  0  0  0
  6 22  1  0  0  0
  6 23  1  0  0  0
  7  8  2  0  0  0
  8  9  1  0  0  0
  8 10  1  0  0  0
  9 24  1  0  0  0
  9 25  1  0  0  0
 10 11  2  0  0  0
 12 13  1  0  0  0
 12 26  1  0  0  0
 12 27  1  0  0  0
 13 14  1  0  0  0
 13 15  1  0  0  0
 13 28  1  0  0  0
 14 29  1  0  0  0
 14 30  1  0  0  0
 14 31  1  0  0  0
 15 17  1  0  0  0
 16 20  1  0  0  0
 16 19  1  0  0  0
 16 18  2  0  0  0
 16 17  1  0  0  0
 17 32  1  0  0  0
 17 33  1  0  0  0
 20 34  1  0  0  0
M  CHG  1  19  -1
M  END
> <s_m_source_file>
../1lv8_ligand.sdf

> <i_m_source_file_index>
1

> <s_epik_input>
Tz1QKFtPSF0pKFtPSF0pW0NIMl1PW0NAQEhdKFtDSDNdKVtDSDJdbihbY0hdbjEpYyhjMTIpbmMoW05IMl0pbmMyW05IMl0=

> <s_epik_cmdline>
J2VwaWtfYXBwJywgJy1pbWFlJywgJ2xpZ2FuZF9wcm8ubWFlJywgJy1vbWFlJywgJ2xpZ2FuZF9wcmVwLm1hZScsICctbXMnLCAnMScsICctcGgnLCAnNycsICctcGh0JywgJzAuNScsICctbnQn

> <r_epik_Ionization_Penalty>
  0.2952

> <r_epik_Ionization_Penalty_Charging>
  0.0000

> <r_epik_Ionization_Penalty_Neutral>
  0.2952

> <r_epik_State_Penalty>
  0.2782

> <r_epik_Charging_Adjusted_Penalty>
0.27821110106314

> <i_epik_Tot_Q>
-1

> <i_epik_Tot_abs_Q>
1

$$$$
