1lvu_ligand
                    3D
 Schrodinger Suite 2020-3.
 34 35  0  0  1  0            999 V2000
   41.9590   61.6290  169.8140 N   0  0  0  0  0  0
   40.8240   61.2750  169.1000 C   0  0  0  0  0  0
   40.6190   62.1460  168.1210 N   0  0  0  0  0  0
   41.6380   63.0850  168.1910 C   0  0  0  0  0  0
   41.9380   64.2710  167.3770 C   0  0  0  0  0  0
   41.2860   64.6940  166.3950 N   0  0  0  0  0  0
   43.1150   64.9640  167.8140 N   0  0  0  0  0  0
   43.9180   64.5650  168.9100 C   0  0  0  0  0  0
   45.0170   65.3060  169.2260 N   0  0  0  0  0  0
   43.6340   63.4590  169.6650 N   0  0  0  0  0  0
   42.4900   62.7730  169.2530 C   0  0  0  0  0  0
   42.5020   60.9680  170.8980 C   0  0  0  0  0  0
   41.5010   60.6560  172.0270 C   0  0  2  0  0  0
   41.1270   61.9480  172.7460 C   0  0  0  0  0  0
   42.1240   59.7420  172.9700 O   0  0  0  0  0  0
   42.7310   57.3840  173.3300 P   0  0  0  0  0  0
   41.7990   58.3710  172.6320 C   0  0  0  0  0  0
   42.3210   55.9870  172.9760 O   0  5  0  0  0  0
   44.1440   57.6140  172.8910 O   0  0  0  0  0  0
   42.6390   57.5620  174.8100 O   0  0  0  0  0  0
   40.1947   60.4105  169.3117 H   0  0  0  0  0  0
   40.3837   64.1599  166.0626 H   0  0  0  0  0  0
   41.6156   65.5997  165.8648 H   0  0  0  0  0  0
   45.2667   66.1993  168.6346 H   0  0  0  0  0  0
   45.6545   65.0109  170.0725 H   0  0  0  0  0  0
   42.9207   60.0057  170.5685 H   0  0  0  0  0  0
   43.2997   61.5827  171.3404 H   0  0  0  0  0  0
   40.5988   60.1580  171.6423 H   0  0  0  0  0  0
   40.6554   62.6408  172.0335 H   0  0  0  0  0  0
   42.0335   62.4114  173.1626 H   0  0  0  0  0  0
   40.4224   61.7236  173.5604 H   0  0  0  0  0  0
   40.7665   58.1519  172.9417 H   0  0  0  0  0  0
   41.8938   58.2289  171.5453 H   0  0  0  0  0  0
   44.9542   56.9894  173.2954 H   0  0  0  0  0  0
  1  2  1  0  0  0
  1 11  1  0  0  0
  1 12  1  0  0  0
  2  3  2  0  0  0
  2 21  1  0  0  0
  3  4  1  0  0  0
  4  5  2  0  0  0
  4 11  1  0  0  0
  5  6  1  0  0  0
  5  7  1  0  0  0
  6 22  1  0  0  0
  6 23  1  0  0  0
  7  8  2  0  0  0
  8  9  1  0  0  0
  8 10  1  0  0  0
  9 24  1  0  0  0
  9 25  1  0  0  0
 10 11  2  0  0  0
 12 13  1  0  0  0
 12 26  1  0  0  0
 12 27  1  0  0  0
 13 14  1  0  0  0
 13 15  1  0  0  0
 13 28  1  0  0  0
 14 29  1  0  0  0
 14 30  1  0  0  0
 14 31  1  0  0  0
 15 17  1  0  0  0
 16 20  2  0  0  0
 16 19  1  0  0  0
 16 18  1  0  0  0
 16 17  1  0  0  0
 17 32  1  0  0  0
 17 33  1  0  0  0
 19 34  1  0  0  0
M  CHG  1  18  -1
M  END
> <s_m_source_file>
../1lvu_ligand.sdf

> <i_m_source_file_index>
1

> <s_epik_input>
W09IXVAoPU8pKFtPSF0pW0NIMl1PW0NAQEhdKFtDSDNdKVtDSDJdbihbY0hdbjEpYyhjMTIpbmMoW05IMl0pbmMyW05IMl0=

> <s_epik_cmdline>
J2VwaWtfYXBwJywgJy1pbWFlJywgJ2xpZ2FuZF9wcm8ubWFlJywgJy1vbWFlJywgJ2xpZ2FuZF9wcmVwLm1hZScsICctbXMnLCAnMScsICctcGgnLCAnNycsICctcGh0JywgJzAuNScsICctbnQn

> <r_epik_Ionization_Penalty>
  0.2952

> <r_epik_Ionization_Penalty_Charging>
  0.0000

> <r_epik_Ionization_Penalty_Neutral>
  0.2952

> <r_epik_State_Penalty>
  0.2782

> <r_epik_Charging_Adjusted_Penalty>
0.27821110106314

> <i_epik_Tot_Q>
-1

> <i_epik_Tot_abs_Q>
1

$$$$
