1lxf_ligand
                    3D
 Schrodinger Suite 2020-3.
 62 64  0  0  1  0            999 V2000
   90.7040    3.1330   -0.0780 C   0  0  0  0  0  0
   90.1600    2.1200   -1.0890 C   0  0  2  0  0  0
   89.0790    1.1960   -0.4220 C   0  0  0  0  0  0
   92.1100    2.8750    0.1660 O   0  0  0  0  0  0
   91.2680    1.2990   -1.6540 N   0  3  0  0  0  0
   87.7150    1.7930   -0.5160 N   0  0  0  0  0  0
   92.9480    4.0560    0.2400 C   0  0  0  0  0  0
   93.8870    3.9380    1.4430 C   0  0  0  0  0  0
   95.2620    4.4970    1.0720 C   0  0  0  0  0  0
   94.0250    2.4670    1.8440 C   0  0  0  0  0  0
   92.3640    1.9960   -2.3810 C   0  0  0  0  0  0
   93.6490    1.2360   -2.0080 C   0  0  0  0  0  0
   93.1440   -0.1190   -1.4920 C   0  0  0  0  0  0
   91.8310    0.2180   -0.8120 C   0  0  0  0  0  0
   86.8460    1.7290    0.6920 C   0  0  0  0  0  0
   87.1300    2.7650    1.8090 C   0  0  0  0  0  0
   87.4250    2.3320    3.1080 C   0  0  0  0  0  0
   87.6820    3.2680    4.1170 C   0  0  0  0  0  0
   87.6440    4.6380    3.8270 C   0  0  0  0  0  0
   87.3490    5.0720    2.5280 C   0  0  0  0  0  0
   87.0910    4.1350    1.5190 C   0  0  0  0  0  0
   87.0290    1.6650   -1.8220 C   0  0  0  0  0  0
   87.3110    2.5710   -2.8540 C   0  0  0  0  0  0
   86.6610    2.4500   -4.0890 C   0  0  0  0  0  0
   85.7310    1.4230   -4.2920 C   0  0  0  0  0  0
   85.4490    0.5170   -3.2620 C   0  0  0  0  0  0
   86.0990    0.6370   -2.0270 C   0  0  0  0  0  0
   90.5846    4.1507   -0.4781 H   0  0  0  0  0  0
   90.1479    3.0429    0.8668 H   0  0  0  0  0  0
   89.7266    2.6756   -1.9337 H   0  0  0  0  0  0
   89.0672    0.2201   -0.9295 H   0  0  0  0  0  0
   89.3238    1.0536    0.6409 H   0  0  0  0  0  0
   90.6484    0.8076   -2.4186 H   0  0  0  0  0  0
   93.5413    4.1429   -0.6822 H   0  0  0  0  0  0
   92.3149    4.9483    0.3541 H   0  0  0  0  0  0
   93.4739    4.5095    2.2872 H   0  0  0  0  0  0
   95.1625    5.5539    0.7839 H   0  0  0  0  0  0
   95.6752    3.9244    0.2286 H   0  0  0  0  0  0
   95.9368    4.4146    1.9368 H   0  0  0  0  0  0
   93.0363    2.0654    2.1107 H   0  0  0  0  0  0
   94.6997    2.3845    2.7088 H   0  0  0  0  0  0
   94.4381    1.8943    1.0006 H   0  0  0  0  0  0
   92.1709    1.9539   -3.4631 H   0  0  0  0  0  0
   92.4089    3.0463   -2.0572 H   0  0  0  0  0  0
   94.2837    1.1289   -2.9000 H   0  0  0  0  0  0
   94.1950    1.7962   -1.2346 H   0  0  0  0  0  0
   93.0086   -0.8068   -2.3397 H   0  0  0  0  0  0
   93.8789   -0.5414   -0.7909 H   0  0  0  0  0  0
   91.9754    0.5894    0.2133 H   0  0  0  0  0  0
   91.1371   -0.6354   -0.7985 H   0  0  0  0  0  0
   85.7977    1.8862    0.3983 H   0  0  0  0  0  0
   86.9498    0.7420    1.1665 H   0  0  0  0  0  0
   87.4545    1.2660    3.3334 H   0  0  0  0  0  0
   87.9116    2.9308    5.1278 H   0  0  0  0  0  0
   87.8441    5.3668    4.6125 H   0  0  0  0  0  0
   87.3202    6.1380    2.3025 H   0  0  0  0  0  0
   86.8599    4.4719    0.5084 H   0  0  0  0  0  0
   88.0359    3.3694   -2.6955 H   0  0  0  0  0  0
   86.8790    3.1548   -4.8914 H   0  0  0  0  0  0
   85.2258    1.3286   -5.2532 H   0  0  0  0  0  0
   84.7240   -0.2812   -3.4213 H   0  0  0  0  0  0
   85.8815   -0.0691   -1.2256 H   0  0  0  0  0  0
  1  2  1  0  0  0
  1  4  1  0  0  0
  1 28  1  0  0  0
  1 29  1  0  0  0
  2  3  1  0  0  0
  2  5  1  0  0  0
  2 30  1  0  0  0
  3  6  1  0  0  0
  3 31  1  0  0  0
  3 32  1  0  0  0
  4  7  1  0  0  0
  5 11  1  0  0  0
  5 14  1  0  0  0
  5 33  1  0  0  0
  6 15  1  0  0  0
  6 22  1  0  0  0
  7  8  1  0  0  0
  7 34  1  0  0  0
  7 35  1  0  0  0
  8  9  1  0  0  0
  8 10  1  0  0  0
  8 36  1  0  0  0
  9 37  1  0  0  0
  9 38  1  0  0  0
  9 39  1  0  0  0
 10 40  1  0  0  0
 10 41  1  0  0  0
 10 42  1  0  0  0
 11 12  1  0  0  0
 11 43  1  0  0  0
 11 44  1  0  0  0
 12 13  1  0  0  0
 12 45  1  0  0  0
 12 46  1  0  0  0
 13 14  1  0  0  0
 13 47  1  0  0  0
 13 48  1  0  0  0
 14 49  1  0  0  0
 14 50  1  0  0  0
 15 16  1  0  0  0
 15 51  1  0  0  0
 15 52  1  0  0  0
 16 17  2  0  0  0
 16 21  1  0  0  0
 17 18  1  0  0  0
 17 53  1  0  0  0
 18 19  2  0  0  0
 18 54  1  0  0  0
 19 20  1  0  0  0
 19 55  1  0  0  0
 20 21  2  0  0  0
 20 56  1  0  0  0
 21 57  1  0  0  0
 22 23  2  0  0  0
 22 27  1  0  0  0
 23 24  1  0  0  0
 23 58  1  0  0  0
 24 25  2  0  0  0
 24 59  1  0  0  0
 25 26  1  0  0  0
 25 60  1  0  0  0
 26 27  2  0  0  0
 26 61  1  0  0  0
 27 62  1  0  0  0
M  CHG  1   5   1
M  END
> <s_m_source_file>
../1lxf_ligand.sdf

> <i_m_source_file_index>
1

> <s_epik_input>
W0NIM11bQ0hdKFtDSDNdKVtDSDJdT1tDSDJdW0NAQEhdKFtOSCtdMVtDSDJdW0NIMl1bQ0gyXVtDSDJdMSlbQ0gyXU4oYzJbY0hdW2NIXVtjSF1bY0hdW2NIXTIpW0NIMl1jM1tjSF1bY0hdW2NIXVtjSF1bY0hdMw==

> <s_epik_cmdline>
J2VwaWtfYXBwJywgJy1pbWFlJywgJ2xpZ2FuZF9wcm8ubWFlJywgJy1vbWFlJywgJ2xpZ2FuZF9wcmVwLm1hZScsICctbXMnLCAnMScsICctcGgnLCAnNycsICctcGh0JywgJzAuNScsICctbnQn

> <r_epik_Ionization_Penalty>
  0.0600

> <r_epik_Ionization_Penalty_Charging>
  0.0597

> <r_epik_Ionization_Penalty_Neutral>
  0.0003

> <r_epik_State_Penalty>
  0.0517

> <r_epik_Charging_Adjusted_Penalty>
0.111348719073744

> <i_epik_Tot_Q>
1

> <i_epik_Tot_abs_Q>
1

$$$$
