1lxh_ligand
                    3D
 Schrodinger Suite 2020-3.
307318  0  0  1  0            999 V2000
  -28.6760   -8.0080   -0.3030 N   0  3  0  0  0  0
  -28.4520   -6.5020   -0.1690 C   0  0  2  0  0  0
  -27.8570   -6.0340    1.1570 C   0  0  0  0  0  0
  -27.5570   -6.8150    2.0420 O   0  0  0  0  0  0
  -29.7720   -5.7440   -0.3100 C   0  0  0  0  0  0
  -30.8730   -6.4060    0.4630 C   0  0  0  0  0  0
  -30.9190   -6.3900    1.8580 C   0  0  0  0  0  0
  -31.8350   -7.1070   -0.2130 C   0  0  0  0  0  0
  -31.9200   -7.0610    2.5390 C   0  0  0  0  0  0
  -32.8330   -7.7690    0.4600 C   0  0  0  0  0  0
  -32.8680   -7.7460    1.8350 C   0  0  0  0  0  0
  -33.8600   -8.4060    2.5110 O   0  0  0  0  0  0
  -27.6970   -4.6960    1.2420 N   0  0  0  0  0  0
  -27.1120   -4.0690    2.4170 C   0  0  2  0  0  0
  -25.6200   -4.5520    2.3530 C   0  0  0  0  0  0
  -24.9870   -4.1510    1.3680 O   0  0  0  0  0  0
  -28.0880   -4.2910    3.6680 C   0  0  0  0  0  0
  -27.6260   -5.0180    4.9530 C   0  0  0  0  0  0
  -28.6150   -6.1370    5.2360 C   0  0  0  0  0  0
  -28.1530   -7.2870    6.0600 N   0  0  0  0  0  0
  -29.0410   -8.0890    6.6510 C   0  0  0  0  0  0
  -30.2530   -7.6170    6.8490 N   0  0  0  0  0  0
  -28.7280   -9.2910    7.1450 N   0  0  0  0  0  0
  -25.0260   -5.4150    3.2190 N   0  0  0  0  0  0
  -23.6040   -5.8660    3.0180 C   0  0  0  0  0  0
  -22.9130   -5.4440    1.7390 C   0  0  0  0  0  0
  -22.6900   -6.2470    0.8250 O   0  0  0  0  0  0
  -22.4900   -4.2020    1.7300 N   0  0  0  0  0  0
  -21.7230   -3.6660    0.6410 C   0  0  2  0  0  0
  -20.3180   -4.2530    0.8500 C   0  0  0  0  0  0
  -20.1850   -5.4660    1.0750 O   0  0  0  0  0  0
  -21.7400   -2.1220    0.7460 C   0  0  0  0  0  0
  -22.9780   -1.4840    1.3950 C   0  0  0  0  0  0
  -23.0600   -0.8640    2.6250 C   0  0  0  0  0  0
  -24.2870   -1.3470    0.8160 C   0  0  0  0  0  0
  -24.3300   -0.3600    2.8230 N   0  0  0  0  0  0
  -25.0940   -0.6410    1.7310 C   0  0  0  0  0  0
  -24.8500   -1.7530   -0.3890 C   0  0  0  0  0  0
  -26.4190   -0.3310    1.4800 C   0  0  0  0  0  0
  -26.1730   -1.4460   -0.6390 C   0  0  0  0  0  0
  -26.9420   -0.7290    0.2870 C   0  0  0  0  0  0
  -19.2910   -3.4310    0.9020 N   0  0  0  0  0  0
  -17.9920   -3.9550    1.2510 C   0  0  2  0  0  0
  -17.2430   -3.0700    2.2110 C   0  0  0  0  0  0
  -17.3930   -1.8540    2.2630 O   0  0  0  0  0  0
  -17.0110   -4.2860    0.1100 C   0  0  0  0  0  0
  -17.0180   -3.3980   -1.1030 C   0  0  0  0  0  0
  -17.3840   -1.9640   -0.8080 C   0  0  0  0  0  0
  -16.2830   -1.0070   -1.2340 C   0  0  0  0  0  0
  -16.7070    0.4070   -1.0560 N   0  3  0  0  0  0
  -16.3500   -3.7950    2.8370 N   0  0  0  0  0  0
  -15.3260   -3.3310    3.7550 C   0  0  2  0  0  0
  -14.0670   -3.7670    2.9870 C   0  0  0  0  0  0
  -13.1600   -4.4330    3.4660 O   0  0  0  0  0  0
  -15.5450   -4.0010    5.1190 C   0  0  0  0  0  0
  -16.2610   -5.2690    4.9210 C   0  0  0  0  0  0
  -15.7820   -6.1860    4.0390 N   0  0  0  0  0  0
  -17.4860   -5.6700    5.2940 C   0  0  0  0  0  0
  -16.6860   -7.1150    3.8560 C   0  0  0  0  0  0
  -17.7440   -6.8240    4.6100 N   0  0  0  0  0  0
  -14.1690   -3.4400    1.6680 N   0  0  0  0  0  0
  -13.2130   -3.7880    0.6430 C   0  0  2  0  0  0
  -12.9230   -2.6300   -0.3040 C   0  0  0  0  0  0
  -13.7720   -2.1760   -1.0620 O   0  0  0  0  0  0
  -13.7600   -4.9670   -0.1610 C   0  0  0  0  0  0
  -13.0690   -6.2200    0.1550 C   0  0  0  0  0  0
  -12.1250   -6.3780    1.1120 C   0  0  0  0  0  0
  -13.2440   -7.4890   -0.4740 C   0  0  0  0  0  0
  -11.6390   -7.6440    1.0760 N   0  0  0  0  0  0
  -12.3120   -8.3510    0.1220 C   0  0  0  0  0  0
  -14.0810   -7.9780   -1.4860 C   0  0  0  0  0  0
  -12.1720   -9.6670   -0.2650 C   0  0  0  0  0  0
  -13.9520   -9.3000   -1.8630 C   0  0  0  0  0  0
  -13.0000  -10.1300   -1.2520 C   0  0  0  0  0  0
  -11.6830   -2.2330   -0.2920 N   0  0  0  0  0  0
  -11.2010   -1.2060   -1.1720 C   0  0  2  0  0  0
   -9.7190   -1.4040   -1.3640 C   0  0  0  0  0  0
   -9.2990   -1.7930   -2.4470 O   0  0  0  0  0  0
  -11.4510    0.2580   -0.7170 C   0  0  0  0  0  0
  -10.9180    1.1730   -1.8020 C   0  0  0  0  0  0
  -12.9260    0.5650   -0.4800 C   0  0  0  0  0  0
   -8.9610   -1.1420   -0.2880 N   0  0  0  0  0  0
   -7.5040   -1.2730   -0.2660 C   0  0  2  0  0  0
   -6.8490   -0.8840   -1.5960 C   0  0  0  0  0  0
   -6.9920   -1.5820   -2.5980 O   0  0  0  0  0  0
   -7.0810   -2.6820    0.1320 C   0  0  0  0  0  0
   -5.5810   -2.8630    0.0680 C   0  0  0  0  0  0
   -4.7320   -1.8400    0.4620 C   0  0  0  0  0  0
   -5.0080   -4.0340   -0.3950 C   0  0  0  0  0  0
   -3.3560   -1.9770    0.4030 C   0  0  0  0  0  0
   -3.6290   -4.1800   -0.4570 C   0  0  0  0  0  0
   -2.8120   -3.1510   -0.0570 C   0  0  0  0  0  0
   -1.4550   -3.3010   -0.1160 O   0  0  0  0  0  0
   -6.1240    0.2370   -1.5620 N   0  0  0  0  0  0
   -5.4190    0.7910   -2.7260 C   0  0  2  0  0  0
   -6.1200    2.0710   -3.2190 C   0  0  0  0  0  0
   -5.7710    2.6270   -4.2600 O   0  0  0  0  0  0
   -5.3240   -0.2500   -3.8340 C   0  0  0  0  0  0
   -4.3520    0.0550   -4.9350 C   0  0  0  0  0  0
   -3.1070    0.6360   -4.7110 C   0  0  0  0  0  0
   -4.6860   -0.2820   -6.2220 C   0  0  0  0  0  0
   -2.2240    0.8610   -5.7590 C   0  0  0  0  0  0
   -3.8190   -0.0560   -7.2720 C   0  0  0  0  0  0
   -2.5840    0.5160   -7.0360 C   0  0  0  0  0  0
   -1.6940    0.7190   -8.0650 O   0  0  0  0  0  0
   -7.0870    2.5390   -2.4110 N   0  0  0  0  0  0
   -7.8550    3.7730   -2.6490 C   0  0  2  0  0  0
   -8.9140    3.6730   -3.7530 C   0  0  0  0  0  0
   -8.7610    2.9770   -4.7570 O   0  0  0  0  0  0
   -6.9380    4.9870   -2.8820 C   0  0  2  0  0  0
   -7.0050    5.4470   -4.2180 O   0  0  0  0  0  0
   -5.4830    4.7330   -2.5600 C   0  0  0  0  0  0
   -9.9950    4.4150   -3.5180 N   0  0  0  0  0  0
  -11.1700    4.5220   -4.4140 C   0  0  2  0  0  0
  -12.2760    5.2210   -3.6790 C   0  0  0  0  0  0
  -13.0320    6.0150   -4.2330 O   0  0  0  0  0  0
  -11.7570    3.1660   -4.8380 C   0  0  0  0  0  0
  -12.9430    2.4260   -3.6160 S   0  0  0  0  0  0
  -12.3880    4.8270   -2.4260 N   0  0  0  0  0  0
  -13.4130    5.2920   -1.5480 C   0  0  2  0  0  0
  -12.8730    5.2330   -0.1040 C   0  0  0  0  0  0
  -11.6550    5.3470    0.0660 O   0  0  0  0  0  0
  -14.6320    4.4100   -1.8290 C   0  0  0  0  0  0
  -14.6050    3.6400   -3.5180 S   0  0  0  0  0  0
  -13.7040    5.0980    0.9590 N   0  0  0  0  0  0
  -13.1700    5.0930    2.3310 C   0  0  2  0  0  0
  -12.1770    3.9390    2.6600 C   0  0  0  0  0  0
  -11.4280    3.4850    1.7890 O   0  0  0  0  0  0
  -14.4030    5.1300    3.2410 C   0  0  0  0  0  0
  -15.6120    5.0470    2.3610 C   0  0  0  0  0  0
  -15.1690    4.9980    0.9190 C   0  0  0  0  0  0
  -12.0880    3.5580    3.9390 N   0  0  0  0  0  0
  -11.0870    2.5780    4.4090 C   0  0  2  0  0  0
  -11.4840    1.0730    4.3780 C   0  0  0  0  0  0
  -12.6450    0.6950    4.2280 O   0  0  0  0  0  0
  -10.6910    2.9330    5.8620 C   0  0  0  0  0  0
  -10.8640    4.3810    6.2720 C   0  0  0  0  0  0
  -11.9750    4.9330    6.1070 O   0  0  0  0  0  0
   -9.8880    4.9500    6.7980 O   0  0  0  0  0  0
  -10.4410    0.2330    4.6000 N   0  0  0  0  0  0
  -10.5310   -1.2370    4.6910 C   0  0  2  0  0  0
  -10.0010   -1.7630    6.0310 C   0  0  0  0  0  0
   -9.5150   -2.8980    6.1050 O   0  0  0  0  0  0
   -9.7060   -1.8950    3.5940 C   0  0  2  0  0  0
   -8.4980   -1.1990    3.3450 O   0  0  0  0  0  0
  -10.4420   -1.9700    2.3120 C   0  0  0  0  0  0
  -10.0770   -0.9630    7.1050 N   0  0  0  0  0  0
   -9.6050   -1.3620    8.4150 C   0  0  2  0  0  0
  -10.7010   -1.9860    9.2670 C   0  0  0  0  0  0
  -10.4280   -2.4500   10.3740 O   0  0  0  0  0  0
   -9.2020   -0.0250    9.0080 C   0  0  0  0  0  0
  -10.2570    0.8960    8.5100 C   0  0  0  0  0  0
  -10.6260    0.3960    7.1480 C   0  0  0  0  0  0
  -11.9370   -1.9760    8.7680 N   0  0  0  0  0  0
  -13.0510   -2.5420    9.5220 C   0  0  2  0  0  0
  -13.1180   -4.0630    9.3230 C   0  0  0  0  0  0
  -12.4750   -4.5790    8.3770 O   0  0  0  0  0  0
  -14.3890   -1.9080    9.1130 C   0  0  0  0  0  0
  -14.8780   -0.7630    9.9920 C   0  0  0  0  0  0
  -14.0260    0.2270   10.4870 C   0  0  0  0  0  0
  -16.2260   -0.6690   10.2980 C   0  0  0  0  0  0
  -14.5180    1.2720   11.2610 C   0  0  0  0  0  0
  -16.7230    0.3670   11.0710 C   0  0  0  0  0  0
  -15.8640    1.3360   11.5490 C   0  0  0  0  0  0
  -16.3440    2.3710   12.3180 O   0  0  0  0  0  0
  -13.8451   -4.8206   10.1393 O   0  0  0  0  0  0
  -29.1051   -8.2283   -1.2916 H   0  0  0  0  0  0
  -29.3689   -8.3468    0.4813 H   0  0  0  0  0  0
  -27.7152   -8.5326   -0.1952 H   0  0  0  0  0  0
  -27.7288   -6.2886   -0.9699 H   0  0  0  0  0  0
  -29.6486   -4.7190    0.0697 H   0  0  0  0  0  0
  -30.0637   -5.7097   -1.3701 H   0  0  0  0  0  0
  -30.1591   -5.8437    2.4167 H   0  0  0  0  0  0
  -31.8087   -7.1404   -1.3022 H   0  0  0  0  0  0
  -31.9510   -7.0426    3.6284 H   0  0  0  0  0  0
  -33.5972   -8.3125   -0.0956 H   0  0  0  0  0  0
  -33.8842   -8.3850    3.6105 H   0  0  0  0  0  0
  -28.0222   -4.0771    0.3928 H   0  0  0  0  0  0
  -27.0551   -2.9705    2.4071 H   0  0  0  0  0  0
  -28.4255   -3.3152    4.0474 H   0  0  0  0  0  0
  -28.9597   -4.8831    3.3525 H   0  0  0  0  0  0
  -26.6178   -5.4301    4.7988 H   0  0  0  0  0  0
  -27.6066   -4.3053    5.7907 H   0  0  0  0  0  0
  -29.4839   -5.7309    5.7745 H   0  0  0  0  0  0
  -28.9473   -6.5816    4.2863 H   0  0  0  0  0  0
  -27.0768   -7.4780    6.1834 H   0  0  0  0  0  0
  -30.5307   -6.6299    6.4508 H   0  0  0  0  0  0
  -27.7201   -9.7037    6.9905 H   0  0  0  0  0  0
  -29.4783   -9.8675    7.7060 H   0  0  0  0  0  0
  -25.6038   -5.7845    4.0790 H   0  0  0  0  0  0
  -22.9764   -5.4734    3.8316 H   0  0  0  0  0  0
  -23.5639   -6.9653    3.0219 H   0  0  0  0  0  0
  -22.7402   -3.5661    2.5920 H   0  0  0  0  0  0
  -22.1524   -3.9571   -0.3290 H   0  0  0  0  0  0
  -20.8827   -1.7860    1.3478 H   0  0  0  0  0  0
  -21.6744   -1.6852   -0.2614 H   0  0  0  0  0  0
  -22.2396   -0.7837    3.3382 H   0  0  0  0  0  0
  -24.2589   -2.3026   -1.1215 H   0  0  0  0  0  0
  -27.0212    0.2110    2.2092 H   0  0  0  0  0  0
  -26.6281   -1.7680   -1.5756 H   0  0  0  0  0  0
  -27.9773   -0.4853    0.0484 H   0  0  0  0  0  0
  -19.4115   -2.3595    0.6844 H   0  0  0  0  0  0
  -18.3635   -4.8841    1.7078 H   0  0  0  0  0  0
  -15.9795   -4.2447    0.4898 H   0  0  0  0  0  0
  -17.2207   -5.2958   -0.2725 H   0  0  0  0  0  0
  -16.0168   -3.3916   -1.5585 H   0  0  0  0  0  0
  -17.7497   -3.7778   -1.8313 H   0  0  0  0  0  0
  -18.3029   -1.7007   -1.3524 H   0  0  0  0  0  0
  -17.5505   -1.8429    0.2726 H   0  0  0  0  0  0
  -15.3856   -1.1855   -0.6234 H   0  0  0  0  0  0
  -16.0436   -1.1724   -2.2948 H   0  0  0  0  0  0
  -15.8930    1.0763   -1.3713 H   0  0  0  0  0  0
  -16.9418    0.5888    0.0032 H   0  0  0  0  0  0
  -17.5999    0.6019   -1.6682 H   0  0  0  0  0  0
  -16.4337   -4.8664    2.6023 H   0  0  0  0  0  0
  -15.3370   -2.2535    3.9760 H   0  0  0  0  0  0
  -14.5714   -4.1953    5.5926 H   0  0  0  0  0  0
  -16.1397   -3.3363    5.7628 H   0  0  0  0  0  0
  -18.2360   -5.2625    5.9879 H   0  0  0  0  0  0
  -16.5891   -7.9791    3.1987 H   0  0  0  0  0  0
  -15.0691   -2.8637    1.4078 H   0  0  0  0  0  0
  -12.2934   -4.0359    1.1934 H   0  0  0  0  0  0
  -14.8286   -5.0998    0.0638 H   0  0  0  0  0  0
  -13.6333   -4.7684   -1.2355 H   0  0  0  0  0  0
  -11.8032   -5.6033    1.8080 H   0  0  0  0  0  0
  -14.8161   -7.3304   -1.9639 H   0  0  0  0  0  0
  -11.4286  -10.3156    0.1984 H   0  0  0  0  0  0
  -14.5968   -9.7032   -2.6438 H   0  0  0  0  0  0
  -12.9176  -11.1690   -1.5710 H   0  0  0  0  0  0
  -10.9971   -2.7116    0.4225 H   0  0  0  0  0  0
  -11.7955   -1.3954   -2.0779 H   0  0  0  0  0  0
  -10.9419    0.4361    0.2417 H   0  0  0  0  0  0
   -9.8540    0.9545   -1.9759 H   0  0  0  0  0  0
  -11.0304    2.2206   -1.4860 H   0  0  0  0  0  0
  -11.4829    1.0077   -2.7313 H   0  0  0  0  0  0
  -13.3165   -0.0971    0.3069 H   0  0  0  0  0  0
  -13.4889    0.4003   -1.4106 H   0  0  0  0  0  0
  -13.0364    1.6132   -0.1653 H   0  0  0  0  0  0
   -9.4972   -0.8116    0.6138 H   0  0  0  0  0  0
   -7.1970   -0.5529    0.5068 H   0  0  0  0  0  0
   -7.4077   -2.8856    1.1625 H   0  0  0  0  0  0
   -7.5440   -3.4103   -0.5500 H   0  0  0  0  0  0
   -5.1584   -0.9056    0.8269 H   0  0  0  0  0  0
   -5.6494   -4.8547   -0.7161 H   0  0  0  0  0  0
   -2.7088   -1.1590    0.7194 H   0  0  0  0  0  0
   -3.1949   -5.1105   -0.8228 H   0  0  0  0  0  0
   -0.7965   -2.4798    0.2032 H   0  0  0  0  0  0
   -6.0717    0.7515   -0.5912 H   0  0  0  0  0  0
   -4.4015    1.0355   -2.3868 H   0  0  0  0  0  0
   -5.0108   -1.2136   -3.4059 H   0  0  0  0  0  0
   -6.3067   -0.3645   -4.3148 H   0  0  0  0  0  0
   -2.8209    0.9186   -3.6979 H   0  0  0  0  0  0
   -5.6562   -0.7377   -6.4197 H   0  0  0  0  0  0
   -1.2494    1.3098   -5.5671 H   0  0  0  0  0  0
   -4.1087   -0.3287   -8.2868 H   0  0  0  0  0  0
   -0.7139    1.1756   -7.8625 H   0  0  0  0  0  0
   -7.2897    1.9285   -1.5187 H   0  0  0  0  0  0
   -8.3970    3.8769   -1.6975 H   0  0  0  0  0  0
   -7.3191    5.8027   -2.2500 H   0  0  0  0  0  0
   -7.9784    5.6958   -4.6659 H   0  0  0  0  0  0
   -5.3941    4.3728   -1.5245 H   0  0  0  0  0  0
   -4.9139    5.6675   -2.6733 H   0  0  0  0  0  0
   -5.0823    3.9739   -3.2480 H   0  0  0  0  0  0
   -9.9715    4.9765   -2.5724 H   0  0  0  0  0  0
  -10.7950    5.0751   -5.2878 H   0  0  0  0  0  0
  -12.3044    3.2834   -5.7848 H   0  0  0  0  0  0
  -10.9420    2.4398   -4.9733 H   0  0  0  0  0  0
  -11.6414    4.1040   -2.0657 H   0  0  0  0  0  0
  -13.6709    6.3400   -1.7604 H   0  0  0  0  0  0
  -14.6715    3.5937   -1.0927 H   0  0  0  0  0  0
  -15.5475    5.0153   -1.7548 H   0  0  0  0  0  0
  -12.5446    5.9915    2.4385 H   0  0  0  0  0  0
  -14.3724    4.2769    3.9348 H   0  0  0  0  0  0
  -14.4076    6.0688    3.8142 H   0  0  0  0  0  0
  -16.1813    4.1379    2.6049 H   0  0  0  0  0  0
  -16.2457    5.9312    2.5241 H   0  0  0  0  0  0
  -15.5784    5.8407    0.3427 H   0  0  0  0  0  0
  -15.4590    4.0511    0.4402 H   0  0  0  0  0  0
  -12.7975    4.0043    4.6514 H   0  0  0  0  0  0
  -10.2955    2.7123    3.6570 H   0  0  0  0  0  0
  -11.3029    2.3459    6.5626 H   0  0  0  0  0  0
   -9.6276    2.6998    6.0196 H   0  0  0  0  0  0
  -12.1159    5.9839    6.3998 H   0  0  0  0  0  0
   -9.4679    0.7326    4.7155 H   0  0  0  0  0  0
  -11.6044   -1.4494    4.5781 H   0  0  0  0  0  0
   -9.4278   -2.9028    3.9360 H   0  0  0  0  0  0
   -7.7853   -1.0236    4.1644 H   0  0  0  0  0  0
  -11.3904   -2.5060    2.4645 H   0  0  0  0  0  0
   -9.8325   -2.5070    1.5702 H   0  0  0  0  0  0
  -10.6500   -0.9528    1.9486 H   0  0  0  0  0  0
   -8.8121   -2.1189    8.3231 H   0  0  0  0  0  0
   -9.1903   -0.0992   10.1054 H   0  0  0  0  0  0
   -8.1991    0.2483    8.6483 H   0  0  0  0  0  0
  -11.1195    0.8686    9.1921 H   0  0  0  0  0  0
   -9.8581    1.9201    8.4644 H   0  0  0  0  0  0
  -10.1721    1.0003    6.3487 H   0  0  0  0  0  0
  -11.7157    0.3560    7.0035 H   0  0  0  0  0  0
  -12.1123   -1.5345    7.7759 H   0  0  0  0  0  0
  -12.8270   -2.2949   10.5702 H   0  0  0  0  0  0
  -14.3051   -1.4992    8.0952 H   0  0  0  0  0  0
  -15.1796   -2.6725    9.1371 H   0  0  0  0  0  0
  -12.9603    0.1796   10.2633 H   0  0  0  0  0  0
  -16.9114   -1.4283    9.9215 H   0  0  0  0  0  0
  -13.8411    2.0382   11.6388 H   0  0  0  0  0  0
  -17.7873    0.4170   11.3008 H   0  0  0  0  0  0
  -15.6550    3.1405   12.6964 H   0  0  0  0  0  0
  -13.8864   -5.9094    9.9881 H   0  0  0  0  0  0
  1  2  1  0  0  0
  1167  1  0  0  0
  1168  1  0  0  0
  1169  1  0  0  0
  2  5  1  0  0  0
  2  3  1  0  0  0
  2170  1  0  0  0
  3  4  2  0  0  0
  3 13  1  0  0  0
  5  6  1  0  0  0
  5171  1  0  0  0
  5172  1  0  0  0
  6  7  2  0  0  0
  6  8  1  0  0  0
  7  9  1  0  0  0
  7173  1  0  0  0
  8 10  2  0  0  0
  8174  1  0  0  0
  9 11  2  0  0  0
  9175  1  0  0  0
 10 11  1  0  0  0
 10176  1  0  0  0
 11 12  1  0  0  0
 12177  1  0  0  0
 13 14  1  0  0  0
 13178  1  0  0  0
 14 17  1  0  0  0
 14 15  1  0  0  0
 14179  1  0  0  0
 15 16  2  0  0  0
 15 24  1  0  0  0
 17 18  1  0  0  0
 17180  1  0  0  0
 17181  1  0  0  0
 18 19  1  0  0  0
 18182  1  0  0  0
 18183  1  0  0  0
 19 20  1  0  0  0
 19184  1  0  0  0
 19185  1  0  0  0
 20 21  1  0  0  0
 20186  1  0  0  0
 21 23  1  0  0  0
 21 22  2  0  0  0
 22187  1  0  0  0
 23188  1  0  0  0
 23189  1  0  0  0
 24 25  1  0  0  0
 24190  1  0  0  0
 25 26  1  0  0  0
 25191  1  0  0  0
 25192  1  0  0  0
 26 27  2  0  0  0
 26 28  1  0  0  0
 28 29  1  0  0  0
 28193  1  0  0  0
 29 32  1  0  0  0
 29 30  1  0  0  0
 29194  1  0  0  0
 30 31  2  0  0  0
 30 42  1  0  0  0
 32 33  1  0  0  0
 32195  1  0  0  0
 32196  1  0  0  0
 33 34  2  0  0  0
 33 35  1  0  0  0
 34 36  1  0  0  0
 34197  1  0  0  0
 35 38  2  0  0  0
 35 37  1  0  0  0
 36 37  1  0  0  0
 37 39  2  0  0  0
 38 40  1  0  0  0
 38198  1  0  0  0
 39 41  1  0  0  0
 39199  1  0  0  0
 40 41  2  0  0  0
 40200  1  0  0  0
 41201  1  0  0  0
 42 43  1  0  0  0
 42202  1  0  0  0
 43 46  1  0  0  0
 43 44  1  0  0  0
 43203  1  0  0  0
 44 45  2  0  0  0
 44 51  1  0  0  0
 46 47  1  0  0  0
 46204  1  0  0  0
 46205  1  0  0  0
 47 48  1  0  0  0
 47206  1  0  0  0
 47207  1  0  0  0
 48 49  1  0  0  0
 48208  1  0  0  0
 48209  1  0  0  0
 49 50  1  0  0  0
 49210  1  0  0  0
 49211  1  0  0  0
 50212  1  0  0  0
 50213  1  0  0  0
 50214  1  0  0  0
 51 52  1  0  0  0
 51215  1  0  0  0
 52 55  1  0  0  0
 52 53  1  0  0  0
 52216  1  0  0  0
 53 54  2  0  0  0
 53 61  1  0  0  0
 55 56  1  0  0  0
 55217  1  0  0  0
 55218  1  0  0  0
 56 57  2  0  0  0
 56 58  1  0  0  0
 57 59  1  0  0  0
 58 60  2  0  0  0
 58219  1  0  0  0
 59 60  1  0  0  0
 59220  1  0  0  0
 61 62  1  0  0  0
 61221  1  0  0  0
 62 65  1  0  0  0
 62 63  1  0  0  0
 62222  1  0  0  0
 63 64  2  0  0  0
 63 75  1  0  0  0
 65 66  1  0  0  0
 65223  1  0  0  0
 65224  1  0  0  0
 66 67  2  0  0  0
 66 68  1  0  0  0
 67 69  1  0  0  0
 67225  1  0  0  0
 68 71  2  0  0  0
 68 70  1  0  0  0
 69 70  1  0  0  0
 70 72  2  0  0  0
 71 73  1  0  0  0
 71226  1  0  0  0
 72 74  1  0  0  0
 72227  1  0  0  0
 73 74  2  0  0  0
 73228  1  0  0  0
 74229  1  0  0  0
 75 76  1  0  0  0
 75230  1  0  0  0
 76 79  1  0  0  0
 76 77  1  0  0  0
 76231  1  0  0  0
 77 78  2  0  0  0
 77 82  1  0  0  0
 79 81  1  0  0  0
 79 80  1  0  0  0
 79232  1  0  0  0
 80233  1  0  0  0
 80234  1  0  0  0
 80235  1  0  0  0
 81236  1  0  0  0
 81237  1  0  0  0
 81238  1  0  0  0
 82 83  1  0  0  0
 82239  1  0  0  0
 83 86  1  0  0  0
 83 84  1  0  0  0
 83240  1  0  0  0
 84 85  2  0  0  0
 84 94  1  0  0  0
 86 87  1  0  0  0
 86241  1  0  0  0
 86242  1  0  0  0
 87 88  2  0  0  0
 87 89  1  0  0  0
 88 90  1  0  0  0
 88243  1  0  0  0
 89 91  2  0  0  0
 89244  1  0  0  0
 90 92  2  0  0  0
 90245  1  0  0  0
 91 92  1  0  0  0
 91246  1  0  0  0
 92 93  1  0  0  0
 93247  1  0  0  0
 94 95  1  0  0  0
 94248  1  0  0  0
 95 98  1  0  0  0
 95 96  1  0  0  0
 95249  1  0  0  0
 96 97  2  0  0  0
 96106  1  0  0  0
 98 99  1  0  0  0
 98250  1  0  0  0
 98251  1  0  0  0
 99100  2  0  0  0
 99101  1  0  0  0
100102  1  0  0  0
100252  1  0  0  0
101103  2  0  0  0
101253  1  0  0  0
102104  2  0  0  0
102254  1  0  0  0
103104  1  0  0  0
103255  1  0  0  0
104105  1  0  0  0
105256  1  0  0  0
106107  1  0  0  0
106257  1  0  0  0
107110  1  0  0  0
107108  1  0  0  0
107258  1  0  0  0
108109  2  0  0  0
108113  1  0  0  0
110112  1  0  0  0
110111  1  0  0  0
110259  1  0  0  0
111260  1  0  0  0
112261  1  0  0  0
112262  1  0  0  0
112263  1  0  0  0
113114  1  0  0  0
113264  1  0  0  0
114117  1  0  0  0
114115  1  0  0  0
114265  1  0  0  0
115116  2  0  0  0
115119  1  0  0  0
117118  1  0  0  0
117266  1  0  0  0
117267  1  0  0  0
118124  1  0  0  0
119120  1  0  0  0
119268  1  0  0  0
120123  1  0  0  0
120121  1  0  0  0
120269  1  0  0  0
121122  2  0  0  0
121125  1  0  0  0
123124  1  0  0  0
123270  1  0  0  0
123271  1  0  0  0
125126  1  0  0  0
125131  1  0  0  0
126127  1  0  0  0
126129  1  0  0  0
126272  1  0  0  0
127128  2  0  0  0
127132  1  0  0  0
129130  1  0  0  0
129273  1  0  0  0
129274  1  0  0  0
130131  1  0  0  0
130275  1  0  0  0
130276  1  0  0  0
131277  1  0  0  0
131278  1  0  0  0
132133  1  0  0  0
132279  1  0  0  0
133136  1  0  0  0
133134  1  0  0  0
133280  1  0  0  0
134135  2  0  0  0
134140  1  0  0  0
136137  1  0  0  0
136281  1  0  0  0
136282  1  0  0  0
137138  1  0  0  0
137139  2  0  0  0
138283  1  0  0  0
140141  1  0  0  0
140284  1  0  0  0
141144  1  0  0  0
141142  1  0  0  0
141285  1  0  0  0
142143  2  0  0  0
142147  1  0  0  0
144146  1  0  0  0
144145  1  0  0  0
144286  1  0  0  0
145287  1  0  0  0
146288  1  0  0  0
146289  1  0  0  0
146290  1  0  0  0
147148  1  0  0  0
147153  1  0  0  0
148149  1  0  0  0
148151  1  0  0  0
148291  1  0  0  0
149150  2  0  0  0
149154  1  0  0  0
151152  1  0  0  0
151292  1  0  0  0
151293  1  0  0  0
152153  1  0  0  0
152294  1  0  0  0
152295  1  0  0  0
153296  1  0  0  0
153297  1  0  0  0
154155  1  0  0  0
154298  1  0  0  0
155158  1  0  0  0
155156  1  0  0  0
155299  1  0  0  0
156157  2  0  0  0
156166  1  0  0  0
158159  1  0  0  0
158300  1  0  0  0
158301  1  0  0  0
159160  2  0  0  0
159161  1  0  0  0
160162  1  0  0  0
160302  1  0  0  0
161163  2  0  0  0
161303  1  0  0  0
162164  2  0  0  0
162304  1  0  0  0
163164  1  0  0  0
163305  1  0  0  0
164165  1  0  0  0
165306  1  0  0  0
166307  1  0  0  0
M  CHG  2   1   1  50   1
M  END
> <s_m_source_file>
../1lxh_ligand.sdf

> <i_m_source_file_index>
1

> <s_epik_input>
W2NIXTFbY0hdYyhbT0hdKVtjSF1bY0hdYzFbQ0gyXVtDQEhdKFtOSDMrXSlDKD1PKVtOSF1bQ0BASF0oW0NIMl1bQ0gyXVtDSDJdW05IXS9DKD1OXFtIXSlbTkgyXSlDKD1PKVtOSF1bQ0gyXUMoPU8pW05IXVtDQEBIXShbQ0gyXWMyW2NIXVtuSF1jKGMyMylbY0hdW2NIXVtjSF1bY0hdMylDKD1PKVtOSF1bQ0BASF0oW0NIMl1bQ0gyXVtDSDJdW0NIMl1bTkgzK10pQyg9TylbTkhdW0NAQEhdKFtDSDJdQzQ9TltDSDJdTj1bQ0hdNClDKD1PKVtOSF1bQ0BASF0oW0NIMl1jNVtjSF1bbkhdYyhjNTYpW2NIXVtjSF1bY0hdW2NIXTYpQyg9TylbTkhdW0NAQEhdKFtDSF0oW0NIM10pW0NIM10pQyg9TylbTkhdW0NAQEhdKFtDSDJdYzdbY0hdW2NIXWMoW09IXSlbY0hdW2NIXTcpQyg9TylbTkhdW0NAQEhdKFtDSDJdYzhbY0hdW2NIXWMoW09IXSlbY0hdW2NIXTgpQyg9TylbTkhdW0NAQEhdKFtDQEhdKFtPSF0pW0NIM10pQyg9TylbTkhdW0NAQEhdOUMoPU8pW05IXVtDQEBIXShbQ0gyXVNTW0NIMl05KUMoPU8pTjFbQ0BASF0oW0NIMl1bQ0gyXVtDSDJdMSlDKD1PKVtOSF1bQ0BASF0oW0NIMl1DKD1PKVtPSF0pQyg9TylbTkhdW0NAQEhdKFtDQEhdKFtPSF0pW0NIM10pQyg9TylOMVtDQEBIXShbQ0gyXVtDSDJdW0NIMl0xKUMoPU8pW05IXVtDQEhdKEMoPU8pW09IXSlbQ0gyXWMxW2NIXVtjSF1jKFtPSF0pW2NIXVtjSF0x

> <s_epik_cmdline>
J2VwaWtfYXBwJywgJy1pbWFlJywgJ2xpZ2FuZF9wcm8ubWFlJywgJy1vbWFlJywgJ2xpZ2FuZF9wcmVwLm1hZScsICctbXMnLCAnMScsICctcGgnLCAnNycsICctcGh0JywgJzAuNScsICctbnQn

> <s_epik_pKa_notes>
Molecule size exceeds maximum supported for generating protonation states

> <s_epik_Chemistry_Notes>
This compound has an imine and may undergo hydrolysis.

$$$$
