1lyb_ligand
                    3D
 Schrodinger Suite 2020-3.
110109  0  0  1  0            999 V2000
   24.2380   89.5030    4.5820 C   0  0  0  0  0  0
   24.4390   88.1400    3.9450 C   0  0  0  0  0  0
   24.8070   88.3800    2.4910 C   0  0  0  0  0  0
   25.5560   87.3460    4.6120 C   0  0  0  0  0  0
   23.1110   89.5010    5.6010 C   0  0  0  0  0  0
   23.0250   88.5750    6.3950 O   0  0  0  0  0  0
   22.2600   90.5380    5.5580 N   0  0  0  0  0  0
   21.1750   90.8440    6.4950 C   0  0  2  0  0  0
   21.8540   91.5580    7.6520 C   0  0  0  0  0  0
   22.7770   91.0870    8.3380 O   0  0  0  0  0  0
   20.3940   89.5530    6.9790 C   0  0  0  0  0  0
   20.0610   89.5660    8.4670 C   0  0  0  0  0  0
   19.1010   89.4700    6.1680 C   0  0  0  0  0  0
   21.4680   92.8200    7.7310 N   0  0  0  0  0  0
   21.8940   93.7270    8.7720 C   0  0  2  0  0  0
   20.6120   94.4610    9.0210 C   0  0  0  0  0  0
   20.0380   95.1210    8.1510 O   0  0  0  0  0  0
   23.0360   94.6910    8.3220 C   0  0  0  0  0  0
   23.0090   94.8930    6.8280 C   0  0  0  0  0  0
   22.8950   96.0340    9.0430 C   0  0  0  0  0  0
   20.1640   94.2290   10.2360 N   0  0  0  0  0  0
   18.8970   94.7300   10.6740 C   0  0  1  0  0  0
   17.9720   93.5430   10.7320 C   0  0  0  0  0  0
   17.8000   92.5160    9.6040 C   0  0  0  0  0  0
   17.1820   91.2830   10.2060 C   0  0  0  0  0  0
   16.8960   92.9840    8.5080 C   0  0  0  0  0  0
   19.0580   95.4210   12.0390 C   0  0  1  0  0  0
   19.8530   94.5500   12.8240 O   0  0  0  0  0  0
   19.8420   96.7200   12.0830 C   0  0  0  0  0  0
   19.0400   97.8300   11.4280 C   0  0  0  0  0  0
   19.1230   98.0330   10.2100 O   0  0  0  0  0  0
   18.2580   98.5550   12.2190 N   0  0  0  0  0  0
   17.4480   99.6430   11.7210 C   0  0  2  0  0  0
   18.3100  100.8820   11.6790 C   0  0  0  0  0  0
   18.3520  101.6860   12.6110 O   0  0  0  0  0  0
   16.2830   99.9060   12.6400 C   0  0  0  0  0  0
   19.0660  100.9390   10.5800 N   0  0  0  0  0  0
   19.9820  102.0230   10.2820 C   0  0  1  0  0  0
   21.2870  101.3660    9.8230 C   0  0  0  0  0  0
   22.4660  100.9890   10.7240 C   0  0  0  0  0  0
   22.1070  100.9150   12.1970 C   0  0  0  0  0  0
   22.9420   99.6110   10.2660 C   0  0  0  0  0  0
   19.4300  103.0190    9.2280 C   0  0  1  0  0  0
   19.9530  102.5490    7.9800 O   0  0  0  0  0  0
   17.8990  103.0430    9.0190 C   0  0  0  0  0  0
   17.1810  104.3480    9.3800 C   0  0  0  0  0  0
   16.7940  104.5420   10.5450 O   0  5  0  0  0  0
   16.9310  105.1430    8.4590 O   0  0  0  0  0  0
   25.1618   89.8075    5.0956 H   0  0  0  0  0  0
   23.9920   90.2393    3.8027 H   0  0  0  0  0  0
   23.5128   87.5565    4.0532 H   0  0  0  0  0  0
   24.0066   88.9529    2.0000 H   0  0  0  0  0  0
   24.9327   87.4139    1.9803 H   0  0  0  0  0  0
   25.7482   88.9470    2.4398 H   0  0  0  0  0  0
   25.2991   87.1666    5.6664 H   0  0  0  0  0  0
   26.4952   87.9158    4.5552 H   0  0  0  0  0  0
   25.6798   86.3826    4.0957 H   0  0  0  0  0  0
   22.4477   91.1990    4.6990 H   0  0  0  0  0  0
   20.4528   91.4927    5.9778 H   0  0  0  0  0  0
   21.0148   88.6560    6.8372 H   0  0  0  0  0  0
   20.9916   89.6257    9.0505 H   0  0  0  0  0  0
   19.5218   88.6440    8.7301 H   0  0  0  0  0  0
   19.4294   90.4376    8.6938 H   0  0  0  0  0  0
   19.3414   89.4606    5.0946 H   0  0  0  0  0  0
   18.4694   90.3416    6.3947 H   0  0  0  0  0  0
   18.5618   88.5480    6.4311 H   0  0  0  0  0  0
   20.7832   93.1688    6.9440 H   0  0  0  0  0  0
   22.2887   93.1754    9.6380 H   0  0  0  0  0  0
   24.0169   94.2559    8.5639 H   0  0  0  0  0  0
   23.1112   93.9203    6.3246 H   0  0  0  0  0  0
   23.8411   95.5485    6.5316 H   0  0  0  0  0  0
   22.0550   95.3575    6.5380 H   0  0  0  0  0  0
   22.9164   95.8703   10.1305 H   0  0  0  0  0  0
   21.9406   96.5028    8.7615 H   0  0  0  0  0  0
   23.7267   96.6938    8.7550 H   0  0  0  0  0  0
   20.7872   93.6351   10.9208 H   0  0  0  0  0  0
   18.5254   95.4665    9.9464 H   0  0  0  0  0  0
   18.2577   92.8964   11.5748 H   0  0  0  0  0  0
   16.9376   93.8906   10.8708 H   0  0  0  0  0  0
   18.7807   92.3257    9.1435 H   0  0  0  0  0  0
   17.8233   90.9108   11.0185 H   0  0  0  0  0  0
   17.0831   90.5074    9.4323 H   0  0  0  0  0  0
   16.1879   91.5296   10.6072 H   0  0  0  0  0  0
   17.3191   93.8873    8.0444 H   0  0  0  0  0  0
   15.9045   93.2155    8.9243 H   0  0  0  0  0  0
   16.7997   92.1933    7.7494 H   0  0  0  0  0  0
   18.0442   95.6090   12.4222 H   0  0  0  0  0  0
   19.5365   93.5083   12.9813 H   0  0  0  0  0  0
   20.0467   96.9894   13.1297 H   0  0  0  0  0  0
   20.7927   96.5929   11.5444 H   0  0  0  0  0  0
   18.2408   98.3016   13.2893 H   0  0  0  0  0  0
   17.0818   99.3440   10.7278 H   0  0  0  0  0  0
   15.6419   99.0132   12.6840 H   0  0  0  0  0  0
   15.7002  100.7575   12.2588 H   0  0  0  0  0  0
   16.6565  100.1393   13.6480 H   0  0  0  0  0  0
   18.9636  100.0972    9.8794 H   0  0  0  0  0  0
   20.1070  102.5943   11.2137 H   0  0  0  0  0  0
   21.0645  100.3943    9.3580 H   0  0  0  0  0  0
   21.7875  102.0168    9.0909 H   0  0  0  0  0  0
   23.2369  101.7693   10.6412 H   0  0  0  0  0  0
   21.7623  101.9015   12.5404 H   0  0  0  0  0  0
   22.9929  100.6143   12.7756 H   0  0  0  0  0  0
   21.3057  100.1755   12.3424 H   0  0  0  0  0  0
   23.2058   99.6502    9.1988 H   0  0  0  0  0  0
   22.1378   98.8761   10.4181 H   0  0  0  0  0  0
   23.8250   99.3149   10.8514 H   0  0  0  0  0  0
   19.7505  104.0324    9.5112 H   0  0  0  0  0  0
   21.0388  102.4336    7.8472 H   0  0  0  0  0  0
   17.6707  102.8572    7.9591 H   0  0  0  0  0  0
   17.4323  102.2618    9.6370 H   0  0  0  0  0  0
  1  2  1  0  0  0
  1  5  1  0  0  0
  1 49  1  0  0  0
  1 50  1  0  0  0
  2  3  1  0  0  0
  2  4  1  0  0  0
  2 51  1  0  0  0
  3 52  1  0  0  0
  3 53  1  0  0  0
  3 54  1  0  0  0
  4 55  1  0  0  0
  4 56  1  0  0  0
  4 57  1  0  0  0
  5  6  2  0  0  0
  5  7  1  0  0  0
  7  8  1  0  0  0
  7 58  1  0  0  0
  8 11  1  0  0  0
  8  9  1  0  0  0
  8 59  1  0  0  0
  9 10  2  0  0  0
  9 14  1  0  0  0
 11 13  1  0  0  0
 11 12  1  0  0  0
 11 60  1  0  0  0
 12 61  1  0  0  0
 12 62  1  0  0  0
 12 63  1  0  0  0
 13 64  1  0  0  0
 13 65  1  0  0  0
 13 66  1  0  0  0
 14 15  1  0  0  0
 14 67  1  0  0  0
 15 18  1  0  0  0
 15 16  1  0  0  0
 15 68  1  0  0  0
 16 17  2  0  0  0
 16 21  1  0  0  0
 18 20  1  0  0  0
 18 19  1  0  0  0
 18 69  1  0  0  0
 19 70  1  0  0  0
 19 71  1  0  0  0
 19 72  1  0  0  0
 20 73  1  0  0  0
 20 74  1  0  0  0
 20 75  1  0  0  0
 21 22  1  0  0  0
 21 76  1  0  0  0
 22 23  1  0  0  0
 22 27  1  0  0  0
 22 77  1  0  0  0
 23 24  1  0  0  0
 23 78  1  0  0  0
 23 79  1  0  0  0
 24 25  1  0  0  0
 24 26  1  0  0  0
 24 80  1  0  0  0
 25 81  1  0  0  0
 25 82  1  0  0  0
 25 83  1  0  0  0
 26 84  1  0  0  0
 26 85  1  0  0  0
 26 86  1  0  0  0
 27 28  1  0  0  0
 27 29  1  0  0  0
 27 87  1  0  0  0
 28 88  1  0  0  0
 29 30  1  0  0  0
 29 89  1  0  0  0
 29 90  1  0  0  0
 30 31  2  0  0  0
 30 32  1  0  0  0
 32 33  1  0  0  0
 32 91  1  0  0  0
 33 36  1  0  0  0
 33 34  1  0  0  0
 33 92  1  0  0  0
 34 35  2  0  0  0
 34 37  1  0  0  0
 36 93  1  0  0  0
 36 94  1  0  0  0
 36 95  1  0  0  0
 37 38  1  0  0  0
 37 96  1  0  0  0
 38 39  1  0  0  0
 38 43  1  0  0  0
 38 97  1  0  0  0
 39 40  1  0  0  0
 39 98  1  0  0  0
 39 99  1  0  0  0
 40 41  1  0  0  0
 40 42  1  0  0  0
 40100  1  0  0  0
 41101  1  0  0  0
 41102  1  0  0  0
 41103  1  0  0  0
 42104  1  0  0  0
 42105  1  0  0  0
 42106  1  0  0  0
 43 44  1  0  0  0
 43 45  1  0  0  0
 43107  1  0  0  0
 44108  1  0  0  0
 45 46  1  0  0  0
 45109  1  0  0  0
 45110  1  0  0  0
 46 47  1  0  0  0
 46 48  2  0  0  0
M  CHG  1  47  -1
M  END
> <s_m_source_file>
../1lyb_ligand.sdf

> <i_m_source_file_index>
1

> <s_epik_input>
W0NIM11bQ0hdKFtDSDNdKVtDSDJdQyg9TylbTkhdW0NAQEhdKFtDSF0oW0NIM10pW0NIM10pQyg9TylbTkhdW0NAQEhdKFtDSF0oW0NIM10pW0NIM10pQyg9TylbTkhdW0NAQEhdKFtDSDJdW0NIXShbQ0gzXSlbQ0gzXSlbQ0BASF0oW09IXSlbQ0gyXUMoPU8pW05IXVtDQEBIXShbQ0gzXSlDKD1PKVtOSF1bQ0BASF0oW0NIMl1bQ0hdKFtDSDNdKVtDSDNdKVtDQEBIXShbT0hdKVtDSDJdQyg9TylbT0hd

> <s_epik_cmdline>
J2VwaWtfYXBwJywgJy1pbWFlJywgJ2xpZ2FuZF9wcm8ubWFlJywgJy1vbWFlJywgJ2xpZ2FuZF9wcmVwLm1hZScsICctbXMnLCAnMScsICctcGgnLCAnNycsICctcGh0JywgJzAuNScsICctbnQn

> <r_lp_tautomer_probability>
1

> <r_epik_Ionization_Penalty>
  0.0021

> <r_epik_Ionization_Penalty_Charging>
  0.0021

> <r_epik_Ionization_Penalty_Neutral>
  0.0000

> <r_epik_State_Penalty>
 -0.0000

> <r_epik_Charging_Adjusted_Penalty>
0.00208702823195129

> <i_epik_Tot_Q>
-1

> <i_epik_Tot_abs_Q>
1

$$$$
