1lyx_ligand
                    3D
 Schrodinger Suite 2020-3.
 11 10  0  0  1  0            999 V2000
   22.1250   -1.6950    6.1490 P   0  0  0  0  0  0
   21.9220   -2.1910    7.7020 O   0  0  0  0  0  0
   21.8020   -2.9790    5.4330 O   0  5  0  0  0  0
   23.5540   -1.2620    6.0550 O   0  0  0  0  0  0
   21.1010   -0.5970    5.9980 O   0  5  0  0  0  0
   20.6500   -2.2030    8.3650 C   0  0  0  0  0  0
   20.9810   -2.7720    9.6560 C   0  0  0  0  0  0
   22.0980   -2.5820   10.4050 O   0  5  0  0  0  0
   20.1980   -3.6360   10.3390 O   0  0  0  0  0  0
   20.2636   -1.1755    8.4356 H   0  0  0  0  0  0
   19.9437   -2.8217    7.7921 H   0  0  0  0  0  0
  1  2  1  0  0  0
  1  3  1  0  0  0
  1  4  2  0  0  0
  1  5  1  0  0  0
  2  6  1  0  0  0
  6  7  1  0  0  0
  6 10  1  0  0  0
  6 11  1  0  0  0
  7  8  1  0  0  0
  7  9  2  0  0  0
M  CHG  3   3  -1   5  -1   8  -1
M  END
> <s_m_source_file>
../1lyx_ligand.sdf

> <i_m_source_file_index>
1

> <s_epik_input>
W09IXVAoPU8pKFtPSF0pT1tDSDJdQyg9TylbT0hd

> <s_epik_cmdline>
J2VwaWtfYXBwJywgJy1pbWFlJywgJ2xpZ2FuZF9wcm8ubWFlJywgJy1vbWFlJywgJ2xpZ2FuZF9wcmVwLm1hZScsICctbXMnLCAnMScsICctcGgnLCAnNycsICctcGh0JywgJzAuNScsICctbnQn

> <r_epik_Ionization_Penalty>
  0.1459

> <r_epik_Ionization_Penalty_Charging>
  0.1459

> <r_epik_Ionization_Penalty_Neutral>
  0.0000

> <r_epik_State_Penalty>
  0.1346

> <r_epik_Charging_Adjusted_Penalty>
0.280492608850728

> <i_epik_Tot_Q>
-3

> <i_epik_Tot_abs_Q>
3

$$$$
