1lzo_ligand
                    3D
 Schrodinger Suite 2020-3.
 11 10  0  0  1  0            999 V2000
   42.1160   18.9080   20.1850 P   0  0  0  0  0  0
   40.6350   19.2690   20.7920 O   0  0  0  0  0  0
   42.0940   19.6060   18.8620 O   0  5  0  0  0  0
   42.0830   17.4170   20.1170 O   0  0  0  0  0  0
   43.0490   19.4720   21.2230 O   0  5  0  0  0  0
   39.9760   20.5520   20.7570 C   0  0  0  0  0  0
   38.7070   20.2210   21.4360 C   0  0  0  0  0  0
   37.4930   19.9600   20.8440 O   0  5  0  0  0  0
   38.4990   20.1380   22.7810 O   0  0  0  0  0  0
   40.5863   21.2925   21.2948 H   0  0  0  0  0  0
   39.8494   20.8708   19.7119 H   0  0  0  0  0  0
  1  2  1  0  0  0
  1  3  1  0  0  0
  1  4  2  0  0  0
  1  5  1  0  0  0
  2  6  1  0  0  0
  6  7  1  0  0  0
  6 10  1  0  0  0
  6 11  1  0  0  0
  7  8  1  0  0  0
  7  9  2  0  0  0
M  CHG  3   3  -1   5  -1   8  -1
M  END
> <s_m_source_file>
../1lzo_ligand.sdf

> <i_m_source_file_index>
1

> <s_epik_input>
W09IXVAoPU8pKFtPSF0pT1tDSDJdQyg9TylbT0hd

> <s_epik_cmdline>
J2VwaWtfYXBwJywgJy1pbWFlJywgJ2xpZ2FuZF9wcm8ubWFlJywgJy1vbWFlJywgJ2xpZ2FuZF9wcmVwLm1hZScsICctbXMnLCAnMScsICctcGgnLCAnNycsICctcGh0JywgJzAuNScsICctbnQn

> <r_epik_Ionization_Penalty>
  0.1459

> <r_epik_Ionization_Penalty_Charging>
  0.1459

> <r_epik_Ionization_Penalty_Neutral>
  0.0000

> <r_epik_State_Penalty>
  0.1346

> <r_epik_Charging_Adjusted_Penalty>
0.280492608850728

> <i_epik_Tot_Q>
-3

> <i_epik_Tot_abs_Q>
3

$$$$
