1m0q_ligand
                    3D
 Schrodinger Suite 2020-3.
 35 35  0  0  1  0            999 V2000
   15.8650   51.0490   19.8310 C   0  0  1  0  0  0
   16.0090   51.2470   18.4280 N   0  3  0  0  0  0
   17.1620   52.5670   13.6290 N   0  0  0  0  0  0
   16.0370   52.8770   14.4570 C   0  0  0  0  0  0
   14.9410   53.8310   13.9430 C   0  0  0  0  0  0
   15.9660   52.3420   15.7510 C   0  0  0  0  0  0
   14.8760   52.6630   16.5590 O   0  0  0  0  0  0
   17.0930   51.4470   16.2780 C   0  0  0  0  0  0
   17.0100   50.9300   17.7030 C   0  0  0  0  0  0
   18.2030   51.1800   15.4230 C   0  0  0  0  0  0
   18.1880   51.7820   14.0290 C   0  0  0  0  0  0
   19.4040   50.3410   15.8680 C   0  0  0  0  0  0
   18.9320   49.0270   16.0370 O   0  0  0  0  0  0
   20.0160   48.0930   16.6400 P   0  0  0  0  0  0
   19.3910   46.7170   16.8530 O   0  5  0  0  0  0
   21.2570   47.9760   15.8240 O   0  0  0  0  0  0
   20.4740   48.7930   17.9260 O   0  5  0  0  0  0
   14.2540   51.0870   20.2920 P   0  0  0  0  0  0
   13.5500   52.3430   19.6510 O   0  5  0  0  0  0
   13.6400   49.7540   19.8510 O   0  0  0  0  0  0
   14.1400   51.0740   21.8940 O   0  5  0  0  0  0
   16.6140   49.7340   20.3460 C   0  0  0  0  0  0
   16.4438   51.9188   20.1752 H   0  0  0  0  0  0
   15.1762   54.1388   12.9135 H   0  0  0  0  0  0
   14.8953   54.7194   14.5900 H   0  0  0  0  0  0
   13.9694   53.3156   13.9587 H   0  0  0  0  0  0
   14.0732   53.3063   16.1695 H   0  0  0  0  0  0
   17.8036   50.2872   18.1117 H   0  0  0  0  0  0
   19.0117   51.5796   13.3445 H   0  0  0  0  0  0
   20.1860   50.3816   15.0955 H   0  0  0  0  0  0
   19.8008   50.7409   16.8128 H   0  0  0  0  0  0
   16.4699   49.6314   21.4317 H   0  0  0  0  0  0
   17.6885   49.8136   20.1246 H   0  0  0  0  0  0
   16.1989   48.8522   19.8360 H   0  0  0  0  0  0
   15.1313   51.7295   17.9732 H   0  0  0  0  0  0
  1 22  1  0  0  0
  1 18  1  0  0  0
  1  2  1  0  0  0
  1 23  1  0  0  0
  2  9  2  0  0  0
  2 35  1  0  0  0
  3  4  1  0  0  0
  3 11  2  0  0  0
  4  6  2  0  0  0
  4  5  1  0  0  0
  5 24  1  0  0  0
  5 25  1  0  0  0
  5 26  1  0  0  0
  6  8  1  0  0  0
  6  7  1  0  0  0
  7 27  1  0  0  0
  8  9  1  0  0  0
  8 10  2  0  0  0
  9 28  1  0  0  0
 10 11  1  0  0  0
 10 12  1  0  0  0
 11 29  1  0  0  0
 12 13  1  0  0  0
 12 30  1  0  0  0
 12 31  1  0  0  0
 13 14  1  0  0  0
 14 17  1  0  0  0
 14 16  2  0  0  0
 14 15  1  0  0  0
 18 21  1  0  0  0
 18 20  2  0  0  0
 18 19  1  0  0  0
 22 32  1  0  0  0
 22 33  1  0  0  0
 22 34  1  0  0  0
M  CHG  5   2   1  15  -1  17  -1  19  -1  21  -1
M  END
> <s_m_source_file>
../1m0q_ligand.sdf

> <i_m_source_file_index>
1

> <s_epik_input>
W09IXVAoPU8pKFtPSF0pW0NAQEhdKFtDSDNdKS9OPVtDSF0vYyhjMVtPSF0pYyhbY0hdbmMxW0NIM10pW0NIMl1PUCg9TykoW09IXSlbT0hd

> <s_epik_cmdline>
J2VwaWtfYXBwJywgJy1pbWFlJywgJ2xpZ2FuZF9wcm8ubWFlJywgJy1vbWFlJywgJ2xpZ2FuZF9wcmVwLm1hZScsICctbXMnLCAnMScsICctcGgnLCAnNycsICctcGh0JywgJzAuNScsICctbnQn

> <r_epik_Ionization_Penalty>
  0.4869

> <r_epik_Ionization_Penalty_Charging>
  0.3473

> <r_epik_Ionization_Penalty_Neutral>
  0.1396

> <r_epik_State_Penalty>
  0.4002

> <r_epik_Charging_Adjusted_Penalty>
0.747482500107312

> <i_epik_Tot_Q>
-3

> <i_epik_Tot_abs_Q>
5

> <s_epik_Chemistry_Notes>
This compound has an imine and may undergo hydrolysis.

$$$$
