1m13_ligand
                    3D
 Schrodinger Suite 2020-3.
 91 92  0  0  1  0            999 V2000
    9.5070   71.9840   -4.1800 C   0  0  0  0  0  0
   13.6650   77.9120   -5.8650 C   0  0  0  0  0  0
   15.1880   79.1870   -4.2550 C   0  0  0  0  0  0
    5.0030   74.6870   -1.2500 C   0  0  0  0  0  0
    6.2350   74.6680   -0.3330 C   0  0  0  0  0  0
    5.8040   74.2810    1.0940 C   0  0  0  0  0  0
    7.0020   76.0620   -0.3760 C   0  0  0  0  0  0
    6.2840   77.0480   -0.1880 O   0  0  0  0  0  0
   13.3150   77.8590   -3.3460 C   0  0  0  0  0  0
   13.9980   78.2770   -4.4340 C   0  0  0  0  0  0
   12.0810   76.9660   -3.2950 C   0  0  0  0  0  0
    8.4820   77.4650   -3.1420 C   0  0  0  0  0  0
   13.6170   80.8910   -0.1630 C   0  0  0  0  0  0
   11.7280   82.6660   -0.4250 C   0  0  0  0  0  0
   12.1300   81.2800    0.0420 C   0  0  0  0  0  0
   11.1890   80.4850    0.6070 C   0  0  0  0  0  0
   11.3950   79.0610    1.1560 C   0  0  0  0  0  0
    9.2020   77.7360    0.0590 C   0  0  0  0  0  0
    8.4850   78.7260    0.2600 O   0  0  0  0  0  0
   11.4100   76.5640    2.5800 O   0  0  0  0  0  0
    8.9400   73.7130   -0.4720 O   0  0  0  0  0  0
   13.8920   73.3240   -0.3130 C   0  0  0  0  0  0
   12.6770   71.1600   -1.0270 C   0  0  0  0  0  0
   12.6530   72.4240   -0.1930 C   0  0  0  0  0  0
   11.5570   72.6370    0.5940 C   0  0  0  0  0  0
   11.1320   73.7480    1.5960 C   0  0  0  0  0  0
    8.6440   76.2870   -0.6350 C   0  0  1  0  0  0
    9.3820   74.9580   -0.0020 C   0  0  0  0  0  0
   10.4180   74.9830    0.9740 C   0  0  3  0  0  0
   10.9160   76.4320    1.4580 C   0  0  0  0  0  0
   10.7900   77.7140    0.4640 C   0  0  2  0  0  0
   11.6690   77.3300   -0.8830 C   0  0  0  0  0  0
   10.9400   77.4360   -2.3010 C   0  0  2  0  0  0
    9.3900   76.5270   -2.2530 C   0  0  2  0  0  0
    9.6030   75.2470   -3.1780 C   0  0  0  0  0  0
    8.4640   74.3130   -3.6750 C   0  0  0  0  0  0
    9.0340   73.1930   -4.5490 C   0  0  0  0  0  0
    9.5590   71.4920   -2.7470 C   0  0  0  0  0  0
   10.0210   71.0400   -5.2370 C   0  0  0  0  0  0
   14.3860   78.3919   -6.5431 H   0  0  0  0  0  0
   12.6491   78.2588   -6.1049 H   0  0  0  0  0  0
   13.7180   76.8200   -5.9867 H   0  0  0  0  0  0
   15.6190   79.4248   -5.2387 H   0  0  0  0  0  0
   15.9446   78.6836   -3.6352 H   0  0  0  0  0  0
   14.8680   80.1161   -3.7606 H   0  0  0  0  0  0
    4.4939   73.7132   -1.2003 H   0  0  0  0  0  0
    5.3194   74.8829   -2.2851 H   0  0  0  0  0  0
    4.3134   75.4785   -0.9213 H   0  0  0  0  0  0
    6.9194   73.8842   -0.6897 H   0  0  0  0  0  0
    5.2803   73.3140    1.0693 H   0  0  0  0  0  0
    5.1306   75.0525    1.4955 H   0  0  0  0  0  0
    6.6933   74.2001    1.7364 H   0  0  0  0  0  0
   13.6394   78.1671   -2.3411 H   0  0  0  0  0  0
   11.6221   76.9174   -4.2935 H   0  0  0  0  0  0
   12.3732   75.9546   -2.9761 H   0  0  0  0  0  0
    8.2679   78.3945   -2.5941 H   0  0  0  0  0  0
    7.5380   76.9497   -3.3729 H   0  0  0  0  0  0
    9.0078   77.7040   -4.0782 H   0  0  0  0  0  0
   14.1511   81.7241   -0.6433 H   0  0  0  0  0  0
   13.6776   79.9987   -0.8034 H   0  0  0  0  0  0
   14.0771   80.6742    0.8124 H   0  0  0  0  0  0
   12.6024   83.1756   -0.8560 H   0  0  0  0  0  0
   11.3502   83.2458    0.4301 H   0  0  0  0  0  0
   10.9399   82.5817   -1.1878 H   0  0  0  0  0  0
   10.1544   80.8445    0.7089 H   0  0  0  0  0  0
   12.4704   78.8316    1.1860 H   0  0  0  0  0  0
   10.9777   78.9957    2.1717 H   0  0  0  0  0  0
   14.5999   72.8798   -1.0282 H   0  0  0  0  0  0
   14.3746   73.4166    0.6711 H   0  0  0  0  0  0
   13.5887   74.3200   -0.6679 H   0  0  0  0  0  0
   13.6115   71.1204   -1.6059 H   0  0  0  0  0  0
   11.8189   71.1585   -1.7153 H   0  0  0  0  0  0
   12.6180   70.2831   -0.3655 H   0  0  0  0  0  0
   10.7281   71.9138    0.5900 H   0  0  0  0  0  0
   10.4329   73.3281    2.3342 H   0  0  0  0  0  0
   12.0222   74.1355    2.1131 H   0  0  0  0  0  0
   12.5397   77.9983   -0.9554 H   0  0  0  0  0  0
   12.0120   76.2873   -0.8121 H   0  0  0  0  0  0
   10.7187   78.4629   -2.6274 H   0  0  0  0  0  0
   10.0621   75.5543   -4.1292 H   0  0  0  0  0  0
   10.2632   74.5309   -2.6668 H   0  0  0  0  0  0
    7.9523   73.8664   -2.8097 H   0  0  0  0  0  0
    7.7430   74.8966   -4.2663 H   0  0  0  0  0  0
    9.0272   73.4803   -5.6108 H   0  0  0  0  0  0
    9.1583   72.2679   -2.0782 H   0  0  0  0  0  0
   10.6014   71.2735   -2.4720 H   0  0  0  0  0  0
    8.9551   70.5776   -2.6511 H   0  0  0  0  0  0
    9.9291   71.5121   -6.2263 H   0  0  0  0  0  0
    9.4313   70.1116   -5.2176 H   0  0  0  0  0  0
   11.0776   70.8075   -5.0384 H   0  0  0  0  0  0
    9.7484   74.2639    0.4794 H   0  0  0  0  0  0
  1 37  2  0  0  0
  1 38  1  0  0  0
  1 39  1  0  0  0
  2 10  1  0  0  0
  2 40  1  0  0  0
  2 41  1  0  0  0
  2 42  1  0  0  0
  3 10  1  0  0  0
  3 43  1  0  0  0
  3 44  1  0  0  0
  3 45  1  0  0  0
  4  5  1  0  0  0
  4 46  1  0  0  0
  4 47  1  0  0  0
  4 48  1  0  0  0
  5  6  1  0  0  0
  5  7  1  0  0  0
  5 49  1  0  0  0
  6 50  1  0  0  0
  6 51  1  0  0  0
  6 52  1  0  0  0
  7  8  2  0  0  0
  7 27  1  0  0  0
  9 11  1  0  0  0
  9 10  2  0  0  0
  9 53  1  0  0  0
 11 33  1  0  0  0
 11 54  1  0  0  0
 11 55  1  0  0  0
 12 34  1  0  0  0
 12 56  1  0  0  0
 12 57  1  0  0  0
 12 58  1  0  0  0
 13 15  1  0  0  0
 13 59  1  0  0  0
 13 60  1  0  0  0
 13 61  1  0  0  0
 14 15  1  0  0  0
 14 62  1  0  0  0
 14 63  1  0  0  0
 14 64  1  0  0  0
 15 16  2  0  0  0
 16 17  1  0  0  0
 16 65  1  0  0  0
 17 31  1  0  0  0
 17 66  1  0  0  0
 17 67  1  0  0  0
 18 19  2  0  0  0
 18 27  1  0  0  0
 18 31  1  0  0  0
 20 30  2  0  0  0
 21 28  2  0  0  0
 22 24  1  0  0  0
 22 68  1  0  0  0
 22 69  1  0  0  0
 22 70  1  0  0  0
 23 24  1  0  0  0
 23 71  1  0  0  0
 23 72  1  0  0  0
 23 73  1  0  0  0
 24 25  2  0  0  0
 25 26  1  0  0  0
 25 74  1  0  0  0
 26 29  1  0  0  0
 26 75  1  0  0  0
 26 76  1  0  0  0
 27 28  1  0  0  0
 27 34  1  0  0  0
 28 29  1  0  0  0
 29 30  1  0  0  0
 29 91  1  0  0  0
 30 31  1  0  0  0
 31 32  1  0  0  0
 32 33  1  0  0  0
 32 77  1  0  0  0
 32 78  1  0  0  0
 33 34  1  0  0  0
 33 79  1  0  0  0
 34 35  1  0  0  0
 35 36  1  0  0  0
 35 80  1  0  0  0
 35 81  1  0  0  0
 36 37  1  0  0  0
 36 82  1  0  0  0
 36 83  1  0  0  0
 37 84  1  0  0  0
 38 85  1  0  0  0
 38 86  1  0  0  0
 38 87  1  0  0  0
 39 88  1  0  0  0
 39 89  1  0  0  0
 39 90  1  0  0  0
M  END
> <s_m_source_file>
../1m13_ligand.sdf

> <i_m_source_file_index>
1

> <s_epik_input>
W0NIM11DKFtDSDNdKT1bQ0hdW0NIMl1bQ0gyXVtDQF0xKFtDSDNdKVtDQEhdKFtDSDJdW0NIXT1DKFtDSDNdKVtDSDNdKVtDSDJdW0NAQF0oW0NIMl1bQ0hdPUMoW0NIM10pW0NIM10pKEMoPU8pW0NAQF0xMkMoPU8pW0NIXShbQ0gzXSlbQ0gzXSlDKD1PKUMoPUMyW09IXSlbQ0gyXVtDSF09QyhbQ0gzXSlbQ0gzXQ==

> <s_epik_cmdline>
J2VwaWtfYXBwJywgJy1pbWFlJywgJ2xpZ2FuZF9wcm8ubWFlJywgJy1vbWFlJywgJ2xpZ2FuZF9wcmVwLm1hZScsICctbXMnLCAnMScsICctcGgnLCAnNycsICctcGh0JywgJzAuNScsICctbnQn

> <r_lp_tautomer_probability>
1

> <r_epik_Ionization_Penalty>
  0.0019

> <r_epik_Ionization_Penalty_Charging>
  0.0000

> <r_epik_Ionization_Penalty_Neutral>
  0.0019

> <r_epik_State_Penalty>
 -0.0000

> <r_epik_Charging_Adjusted_Penalty>
0

> <i_epik_Tot_Q>
0

> <i_epik_Tot_abs_Q>
0

$$$$
