1m1b_ligand
                    3D
 Schrodinger Suite 2020-3.
 12 11  0  0  1  0            999 V2000
   30.3110   69.4470   73.1140 C   0  0  0  0  0  0
   30.8240   68.4790   72.4320 O   0  5  0  0  0  0
   30.9770   70.3480   73.5750 O   0  0  0  0  0  0
   28.7920   69.3220   73.2920 C   0  0  0  0  0  0
   28.0660   68.2870   73.7790 C   0  0  0  0  0  0
   28.1120   70.3400   72.9260 O   0  0  0  0  0  0
   28.4660   67.9240   75.5260 S   0  0  0  0  0  0
   28.2630   69.1270   76.2210 O   0  0  0  0  0  0
   29.8230   67.4780   75.5040 O   0  5  0  0  0  0
   27.5120   67.0010   75.9560 O   0  0  0  0  0  0
   26.9948   68.5293   73.7171 H   0  0  0  0  0  0
   28.2724   67.3835   73.1865 H   0  0  0  0  0  0
  1  4  1  0  0  0
  1  3  2  0  0  0
  1  2  1  0  0  0
  4  6  2  0  0  0
  4  5  1  0  0  0
  5  7  1  0  0  0
  5 11  1  0  0  0
  5 12  1  0  0  0
  7 10  2  0  0  0
  7  9  1  0  0  0
  7  8  2  0  0  0
M  CHG  2   2  -1   9  -1
M  END
> <s_m_source_file>
../1m1b_ligand.sdf

> <i_m_source_file_index>
1

> <s_epik_input>
W09IXUMoPU8pQyg9TylbQ0gyXVMoPU8pKD1PKVtPSF0=

> <s_epik_cmdline>
J2VwaWtfYXBwJywgJy1pbWFlJywgJ2xpZ2FuZF9wcm8ubWFlJywgJy1vbWFlJywgJ2xpZ2FuZF9wcmVwLm1hZScsICctbXMnLCAnMScsICctcGgnLCAnNycsICctcGh0JywgJzAuNScsICctbnQn

> <r_lp_tautomer_probability>
1

> <r_epik_Ionization_Penalty>
  0.0001

> <r_epik_Ionization_Penalty_Charging>
  0.0001

> <r_epik_Ionization_Penalty_Neutral>
  0.0000

> <r_epik_State_Penalty>
 -0.0000

> <r_epik_Charging_Adjusted_Penalty>
5.60291377829425e-05

> <i_epik_Tot_Q>
-2

> <i_epik_Tot_abs_Q>
2

$$$$
