1m21_ligand
                    3D
 Schrodinger Suite 2020-3.
 87 89  0  0  1  0            999 V2000
    5.3470   -8.3030   58.7690 C   0  0  0  0  0  0
    6.1820   -8.1490   59.9080 C   0  0  0  0  0  0
    5.9090   -7.1230   60.8490 C   0  0  0  0  0  0
    4.8180   -6.2600   60.6580 C   0  0  0  0  0  0
    3.9610   -6.4060   59.5020 C   0  0  0  0  0  0
    4.2340   -7.4380   58.5560 C   0  0  0  0  0  0
    4.5830   -5.1770   61.7020 C   0  0  0  0  0  0
    4.6590   -3.7930   61.0960 C   0  0  1  0  0  0
    4.6010   -2.6460   62.1610 C   0  0  0  0  0  0
    6.2770   -2.5190   59.6240 C   0  0  0  0  0  0
    7.6230   -2.4520   58.8180 C   0  0  2  0  0  0
    7.5020   -1.1980   57.9180 C   0  0  0  0  0  0
    8.7270   -0.9430   57.0230 C   0  0  0  0  0  0
    8.5640    0.2870   56.1310 C   0  0  0  0  0  0
   10.0160   -0.6960   57.8150 C   0  0  0  0  0  0
    7.1060   -4.3160   57.2380 C   0  0  0  0  0  0
    7.7860   -5.4150   56.4160 C   0  0  2  0  0  0
    8.3200   -4.7420   55.1160 C   0  0  2  0  0  0
    7.2210   -3.9720   54.3500 C   0  0  0  0  0  0
    7.8400   -3.3930   53.1030 C   0  0  0  0  0  0
    9.1670   -5.4790   52.9450 C   0  0  0  0  0  0
    7.2360   -7.7290   55.8330 C   0  0  0  0  0  0
    7.0100   -9.9850   55.2560 C   0  0  2  0  0  0
    6.6860  -10.2180   53.7560 C   0  0  0  0  0  0
    6.3800  -10.9810   56.2860 C   0  0  0  0  0  0
    4.8360  -11.0710   56.5080 C   0  0  0  0  0  0
    3.8750  -10.7100   55.5050 C   0  0  0  0  0  0
    2.4820  -10.8230   55.7700 C   0  0  0  0  0  0
    2.0310  -11.2960   57.0370 C   0  0  0  0  0  0
    2.9730  -11.6560   58.0370 C   0  0  0  0  0  0
    4.3690  -11.5450   57.7730 C   0  0  0  0  0  0
    5.9530   -3.6430   60.3090 N   0  0  0  0  0  0
    7.9530   -3.6080   57.9530 N   0  0  0  0  0  0
    9.0110   -5.7990   54.2830 N   0  3  0  0  0  0
   10.0080   -6.2990   52.2900 N   0  0  0  0  0  0
    8.5230   -4.4420   52.3320 N   0  0  0  0  0  0
    6.8460   -6.5000   56.0920 N   0  0  0  0  0  0
    6.3440   -8.6730   55.5330 N   0  0  0  0  0  0
    5.4740   -1.5650   59.6400 O   0  0  0  0  0  0
    5.8780   -4.1350   57.1760 O   0  0  0  0  0  0
    8.4570   -7.9720   55.8720 O   0  0  0  0  0  0
    6.8600   -9.2900   52.9190 O   0  5  0  0  0  0
    6.3120  -11.1840   53.3980 O   0  0  0  0  0  0
    4.2160   -2.8030   63.7410 O   0  0  0  0  0  0
    5.5601   -9.0928   58.0486 H   0  0  0  0  0  0
    7.0299   -8.8172   60.0585 H   0  0  0  0  0  0
    6.5486   -7.0042   61.7236 H   0  0  0  0  0  0
    3.1152   -5.7343   59.3553 H   0  0  0  0  0  0
    3.5984   -7.5639   57.6795 H   0  0  0  0  0  0
    3.5853   -5.3068   62.1468 H   0  0  0  0  0  0
    5.3480   -5.2539   62.4887 H   0  0  0  0  0  0
    3.7856   -3.7275   60.4304 H   0  0  0  0  0  0
    5.5905   -2.1728   62.2445 H   0  0  0  0  0  0
    3.8602   -1.8945   61.8505 H   0  0  0  0  0  0
    8.4637   -2.4749   59.5271 H   0  0  0  0  0  0
    6.6332   -1.3070   57.2522 H   0  0  0  0  0  0
    7.3715   -0.3057   58.5479 H   0  0  0  0  0  0
    8.8015   -1.8629   56.4245 H   0  0  0  0  0  0
    7.6513    0.1827   55.5259 H   0  0  0  0  0  0
    9.4362    0.3763   55.4667 H   0  0  0  0  0  0
    8.4872    1.1873   56.7584 H   0  0  0  0  0  0
   10.2026   -1.5471   58.4864 H   0  0  0  0  0  0
    9.9107    0.2236   58.4093 H   0  0  0  0  0  0
   10.8597   -0.5873   57.1176 H   0  0  0  0  0  0
    8.5746   -5.9139   56.9984 H   0  0  0  0  0  0
    9.0721   -3.9756   55.3547 H   0  0  0  0  0  0
    6.4069   -4.6624   54.0844 H   0  0  0  0  0  0
    6.8258   -3.1668   54.9868 H   0  0  0  0  0  0
    7.0539   -2.9446   52.4777 H   0  0  0  0  0  0
    8.5720   -2.6206   53.3816 H   0  0  0  0  0  0
    8.1009  -10.0409   55.3860 H   0  0  0  0  0  0
    6.6505  -12.0115   56.0122 H   0  0  0  0  0  0
    6.7615  -10.7571   57.2931 H   0  0  0  0  0  0
    4.2144  -10.3472   54.5348 H   0  0  0  0  0  0
    1.7582  -10.5475   55.0030 H   0  0  0  0  0  0
    0.9631  -11.3813   57.2382 H   0  0  0  0  0  0
    2.6284  -12.0170   59.0060 H   0  0  0  0  0  0
    5.0877  -11.8243   58.5434 H   0  0  0  0  0  0
    6.6770   -4.4706   60.2780 H   0  0  0  0  0  0
    8.9951   -3.9490   57.8646 H   0  0  0  0  0  0
    9.3790   -6.7628   54.6645 H   0  0  0  0  0  0
   10.2089   -6.1405   51.2202 H   0  0  0  0  0  0
    8.5239   -4.4042   51.2326 H   0  0  0  0  0  0
    5.7649   -6.2995   56.0587 H   0  0  0  0  0  0
    5.2488   -8.5887   55.4735 H   0  0  0  0  0  0
    4.2091   -1.9192   64.3959 H   0  0  0  0  0  0
   10.4950   -7.1282   52.8241 H   0  0  0  0  0  0
  1  6  2  0  0  0
  1  2  1  0  0  0
  1 45  1  0  0  0
  2  3  2  0  0  0
  2 46  1  0  0  0
  3  4  1  0  0  0
  3 47  1  0  0  0
  4  7  1  0  0  0
  4  5  2  0  0  0
  5  6  1  0  0  0
  5 48  1  0  0  0
  6 49  1  0  0  0
  7  8  1  0  0  0
  7 50  1  0  0  0
  7 51  1  0  0  0
  8 32  1  0  0  0
  8  9  1  0  0  0
  8 52  1  0  0  0
  9 44  1  0  0  0
  9 53  1  0  0  0
  9 54  1  0  0  0
 10 32  1  0  0  0
 10 39  2  0  0  0
 10 11  1  0  0  0
 11 33  1  0  0  0
 11 12  1  0  0  0
 11 55  1  0  0  0
 12 13  1  0  0  0
 12 56  1  0  0  0
 12 57  1  0  0  0
 13 15  1  0  0  0
 13 14  1  0  0  0
 13 58  1  0  0  0
 14 59  1  0  0  0
 14 60  1  0  0  0
 14 61  1  0  0  0
 15 62  1  0  0  0
 15 63  1  0  0  0
 15 64  1  0  0  0
 16 33  1  0  0  0
 16 40  2  0  0  0
 16 17  1  0  0  0
 17 37  1  0  0  0
 17 18  1  0  0  0
 17 65  1  0  0  0
 18 34  1  0  0  0
 18 19  1  0  0  0
 18 66  1  0  0  0
 19 20  1  0  0  0
 19 67  1  0  0  0
 19 68  1  0  0  0
 20 36  1  0  0  0
 20 69  1  0  0  0
 20 70  1  0  0  0
 21 36  1  0  0  0
 21 34  2  0  0  0
 21 35  1  0  0  0
 22 37  1  0  0  0
 22 38  1  0  0  0
 22 41  2  0  0  0
 23 38  1  0  0  0
 23 25  1  0  0  0
 23 24  1  0  0  0
 23 71  1  0  0  0
 24 42  1  0  0  0
 24 43  2  0  0  0
 25 26  1  0  0  0
 25 72  1  0  0  0
 25 73  1  0  0  0
 26 31  2  0  0  0
 26 27  1  0  0  0
 27 28  2  0  0  0
 27 74  1  0  0  0
 28 29  1  0  0  0
 28 75  1  0  0  0
 29 30  2  0  0  0
 29 76  1  0  0  0
 30 31  1  0  0  0
 30 77  1  0  0  0
 31 78  1  0  0  0
 32 79  1  0  0  0
 33 80  1  0  0  0
 34 81  1  0  0  0
 35 82  1  0  0  0
 35 87  1  0  0  0
 36 83  1  0  0  0
 37 84  1  0  0  0
 38 85  1  0  0  0
 44 86  1  0  0  0
M  CHG  2  34   1  42  -1
M  END
> <s_m_source_file>
../1m21_ligand.sdf

> <i_m_source_file_index>
1

> <s_epik_input>
W2NIXTFbY0hdW2NIXVtjSF1bY0hdYzFbQ0gyXVtDQEBIXShbQ0gyXVtPSF0pW05IXUMoPU8pW0NASF0oW0NIMl1bQ0hdKFtDSDNdKVtDSDNdKVtOSF1DKD1PKVtDQEhdKFtDQEBIXTJbQ0gyXVtDSDJdW05IXUMoXFtOSF0yKT1OL1tIXSlbTkhdQyg9TylbTkhdW0NASF0oQyg9TylbT0hdKVtDSDJdYzNbY0hdW2NIXVtjSF1bY0hdW2NIXTM=

> <s_epik_cmdline>
J2VwaWtfYXBwJywgJy1pbWFlJywgJ2xpZ2FuZF9wcm8ubWFlJywgJy1vbWFlJywgJ2xpZ2FuZF9wcmVwLm1hZScsICctbXMnLCAnMScsICctcGgnLCAnNycsICctcGh0JywgJzAuNScsICctbnQn

> <r_lp_tautomer_probability>
1

> <r_epik_Ionization_Penalty>
  0.0010

> <r_epik_Ionization_Penalty_Charging>
  0.0009

> <r_epik_Ionization_Penalty_Neutral>
  0.0000

> <r_epik_State_Penalty>
 -0.0000

> <r_epik_Charging_Adjusted_Penalty>
0.000944920605223743

> <i_epik_Tot_Q>
0

> <i_epik_Tot_abs_Q>
2

> <s_epik_Chemistry_Notes>
This compound has an imine and may undergo hydrolysis.

$$$$
