1m2x_ligand
                    3D
 Schrodinger Suite 2020-3.
 28 28  0  0  1  0            999 V2000
  -29.4130   35.1480    7.0740 O   0  5  0  0  0  0
  -28.2570   35.5820    7.2860 C   0  0  0  0  0  0
  -27.2680   35.4070    6.5480 O   0  0  0  0  0  0
  -28.0410   36.4090    8.5740 C   0  0  1  0  0  0
  -28.7630   35.7520    9.7520 C   0  0  0  0  0  0
  -27.7810   34.6970   10.2750 C   0  0  0  0  0  0
  -26.3940   35.3130   10.0650 C   0  0  0  0  0  0
  -26.6250   36.3060    8.9900 N   0  0  0  0  0  0
  -25.6540   37.1220    8.5260 C   0  0  0  0  0  0
  -25.9280   37.9910    7.6970 O   0  0  0  0  0  0
  -24.2130   36.9500    9.0220 C   0  0  2  0  0  0
  -23.9890   37.8620   10.2340 C   0  0  0  0  0  0
  -23.2280   37.2870    7.9000 C   0  0  0  0  0  0
  -21.5140   36.8160    8.3230 S   0  0  0  0  0  0
  -28.3530   37.4448    8.3743 H   0  0  0  0  0  0
  -28.9882   36.5124   10.5143 H   0  0  0  0  0  0
  -29.7005   35.2970    9.3998 H   0  0  0  0  0  0
  -27.9836   34.5029   11.3386 H   0  0  0  0  0  0
  -27.9039   33.7658    9.7025 H   0  0  0  0  0  0
  -26.0536   35.7779   11.0020 H   0  0  0  0  0  0
  -25.6848   34.5267    9.7670 H   0  0  0  0  0  0
  -24.0424   35.9051    9.3205 H   0  0  0  0  0  0
  -24.7066   37.6020   11.0261 H   0  0  0  0  0  0
  -24.1358   38.9106    9.9359 H   0  0  0  0  0  0
  -22.9638   37.7276   10.6095 H   0  0  0  0  0  0
  -23.5152   36.7472    6.9856 H   0  0  0  0  0  0
  -23.2475   38.3699    7.7079 H   0  0  0  0  0  0
  -20.7001   37.0007    7.6065 H   0  0  0  0  0  0
  1  2  1  0  0  0
  2  3  2  0  0  0
  2  4  1  0  0  0
  4  5  1  0  0  0
  4  8  1  0  0  0
  4 15  1  0  0  0
  5  6  1  0  0  0
  5 16  1  0  0  0
  5 17  1  0  0  0
  6  7  1  0  0  0
  6 18  1  0  0  0
  6 19  1  0  0  0
  7  8  1  0  0  0
  7 20  1  0  0  0
  7 21  1  0  0  0
  8  9  1  0  0  0
  9 10  2  0  0  0
  9 11  1  0  0  0
 11 12  1  0  0  0
 11 13  1  0  0  0
 11 22  1  0  0  0
 12 23  1  0  0  0
 12 24  1  0  0  0
 12 25  1  0  0  0
 13 14  1  0  0  0
 13 26  1  0  0  0
 13 27  1  0  0  0
 14 28  1  0  0  0
M  CHG  1   1  -1
M  END
> <s_m_source_file>
../1m2x_ligand.sdf

> <i_m_source_file_index>
1

> <s_epik_input>
W09IXUMoPU8pW0NASF0xW0NIMl1bQ0gyXVtDSDJdTjFDKD1PKVtDQEhdKFtDSDNdKVtDSDJdW1NIXQ==

> <s_epik_cmdline>
J2VwaWtfYXBwJywgJy1pbWFlJywgJ2xpZ2FuZF9wcm8ubWFlJywgJy1vbWFlJywgJ2xpZ2FuZF9wcmVwLm1hZScsICctbXMnLCAnMScsICctcGgnLCAnNycsICctcGh0JywgJzAuNScsICctbnQn

> <r_lp_tautomer_probability>
1

> <r_epik_Ionization_Penalty>
  0.0024

> <r_epik_Ionization_Penalty_Charging>
  0.0004

> <r_epik_Ionization_Penalty_Neutral>
  0.0020

> <r_epik_State_Penalty>
 -0.0000

> <r_epik_Charging_Adjusted_Penalty>
0.000441835624439187

> <i_epik_Tot_Q>
-1

> <i_epik_Tot_abs_Q>
1

$$$$
