1m48_ligand
                    3D
 Schrodinger Suite 2020-3.
 64 66  0  0  1  0            999 V2000
    2.5640   20.9650    0.1020 N   0  3  0  0  0  0
    2.6030   20.1150   -0.9240 C   0  0  0  0  0  0
    3.6640   19.3090   -1.0060 N   0  0  0  0  0  0
    1.4640   20.0100   -1.8160 N   0  0  0  0  0  0
    1.5440   18.8910   -2.7960 C   0  0  0  0  0  0
    0.7770   21.2590   -2.2630 C   0  0  0  0  0  0
    0.7920   21.5550   -3.7680 C   0  0  0  0  0  0
    0.7650   20.3340   -4.6850 C   0  0  0  0  0  0
    1.7800   19.2790   -4.2560 C   0  0  2  0  0  0
    1.7010   18.0400   -5.1720 C   0  0  0  0  0  0
    1.8640   18.4240   -6.6300 C   0  0  0  0  0  0
    2.9290   18.8790   -7.0090 O   0  0  0  0  0  0
    0.8130   18.2520   -7.4550 N   0  0  0  0  0  0
    0.9170   18.4640   -8.9030 C   0  0  2  0  0  0
    0.7970   19.9100   -9.3270 C   0  0  0  0  0  0
    1.4720   20.3790  -10.2350 O   0  0  0  0  0  0
   -0.1090   20.8010   -8.6190 O   0  0  0  0  0  0
   -0.4400   22.0880   -9.1400 C   0  0  0  0  0  0
   -0.0450   17.5560   -9.6420 C   0  0  0  0  0  0
   -0.0430   16.0920   -9.4220 C   0  0  0  0  0  0
   -1.0430   15.4670   -8.6800 C   0  0  0  0  0  0
   -1.0440   14.0910   -8.5070 C   0  0  0  0  0  0
    0.9720   15.3360   -9.9940 C   0  0  0  0  0  0
    0.9930   13.9710   -9.8210 C   0  0  0  0  0  0
   -0.0100   13.3710   -9.0720 C   0  0  0  0  0  0
    0.0450   11.9300   -8.9320 C   0  0  0  0  0  0
    0.1140   10.6380   -8.8620 C   0  0  0  0  0  0
    0.1600    9.1950   -8.8240 C   0  0  0  0  0  0
   -0.6990    8.5090   -9.6690 C   0  0  0  0  0  0
   -0.6930    7.1280   -9.6580 C   0  0  0  0  0  0
    1.0160    8.5670   -7.9560 C   0  0  0  0  0  0
    1.0230    7.1890   -7.9480 C   0  0  0  0  0  0
    0.1680    6.4790   -8.7830 C   0  0  0  0  0  0
    1.7117   21.6510    0.2158 H   0  0  0  0  0  0
    4.5026   19.4306   -0.3046 H   0  0  0  0  0  0
    3.6997   18.5233   -1.7750 H   0  0  0  0  0  0
    2.3754   18.2241   -2.5239 H   0  0  0  0  0  0
    0.6009   18.3249   -2.7840 H   0  0  0  0  0  0
   -0.2847   21.2153   -1.9786 H   0  0  0  0  0  0
    1.2495   22.1290   -1.7836 H   0  0  0  0  0  0
   -0.0896   22.1575   -4.0320 H   0  0  0  0  0  0
    1.7060   22.1112   -4.0232 H   0  0  0  0  0  0
   -0.2363   19.8792   -4.6606 H   0  0  0  0  0  0
    1.0025   20.6427   -5.7137 H   0  0  0  0  0  0
    2.7873   19.7122   -4.3431 H   0  0  0  0  0  0
    2.5008   17.3341   -4.9037 H   0  0  0  0  0  0
    0.7234   17.5519   -5.0451 H   0  0  0  0  0  0
   -0.1451   17.9428   -7.0118 H   0  0  0  0  0  0
    1.9503   18.1800   -9.1513 H   0  0  0  0  0  0
   -1.1347   22.5939   -8.4534 H   0  0  0  0  0  0
   -0.9163   21.9734  -10.1249 H   0  0  0  0  0  0
    0.4759   22.6884   -9.2432 H   0  0  0  0  0  0
   -1.0791   17.8460   -9.4040 H   0  0  0  0  0  0
    0.1218   17.6491  -10.7253 H   0  0  0  0  0  0
   -1.8341   16.0668   -8.2300 H   0  0  0  0  0  0
   -1.8344   13.5946   -7.9440 H   0  0  0  0  0  0
    1.7514   15.8236  -10.5796 H   0  0  0  0  0  0
    1.7858   13.3695  -10.2657 H   0  0  0  0  0  0
   -1.3705    9.0527  -10.3335 H   0  0  0  0  0  0
   -1.3480    6.5614  -10.3199 H   0  0  0  0  0  0
    1.6683    9.1380   -7.2953 H   0  0  0  0  0  0
    1.7018    6.6535   -7.2842 H   0  0  0  0  0  0
    0.1736    5.3895   -8.7502 H   0  0  0  0  0  0
    3.3842   20.9805    0.8349 H   0  0  0  0  0  0
  1  2  2  0  0  0
  1 34  1  0  0  0
  1 64  1  0  0  0
  2  4  1  0  0  0
  2  3  1  0  0  0
  3 35  1  0  0  0
  3 36  1  0  0  0
  4  6  1  0  0  0
  4  5  1  0  0  0
  5  9  1  0  0  0
  5 37  1  0  0  0
  5 38  1  0  0  0
  6  7  1  0  0  0
  6 39  1  0  0  0
  6 40  1  0  0  0
  7  8  1  0  0  0
  7 41  1  0  0  0
  7 42  1  0  0  0
  8  9  1  0  0  0
  8 43  1  0  0  0
  8 44  1  0  0  0
  9 10  1  0  0  0
  9 45  1  0  0  0
 10 11  1  0  0  0
 10 46  1  0  0  0
 10 47  1  0  0  0
 11 13  1  0  0  0
 11 12  2  0  0  0
 13 14  1  0  0  0
 13 48  1  0  0  0
 14 19  1  0  0  0
 14 15  1  0  0  0
 14 49  1  0  0  0
 15 17  1  0  0  0
 15 16  2  0  0  0
 17 18  1  0  0  0
 18 50  1  0  0  0
 18 51  1  0  0  0
 18 52  1  0  0  0
 19 20  1  0  0  0
 19 53  1  0  0  0
 19 54  1  0  0  0
 20 23  2  0  0  0
 20 21  1  0  0  0
 21 22  2  0  0  0
 21 55  1  0  0  0
 22 25  1  0  0  0
 22 56  1  0  0  0
 23 24  1  0  0  0
 23 57  1  0  0  0
 24 25  2  0  0  0
 24 58  1  0  0  0
 25 26  1  0  0  0
 26 27  3  0  0  0
 27 28  1  0  0  0
 28 31  2  0  0  0
 28 29  1  0  0  0
 29 30  2  0  0  0
 29 59  1  0  0  0
 30 33  1  0  0  0
 30 60  1  0  0  0
 31 32  1  0  0  0
 31 61  1  0  0  0
 32 33  2  0  0  0
 32 62  1  0  0  0
 33 63  1  0  0  0
M  CHG  1   1   1
M  END
> <s_m_source_file>
../1m48_ligand.sdf

> <i_m_source_file_index>
1

> <s_epik_input>
W0hdL049QyhcW05IMl0pTjFbQ0gyXVtDQEhdKFtDSDJdW0NIMl1bQ0gyXTEpW0NIMl1DKD1PKVtOSF1bQ0BIXShDKD1PKU9bQ0gzXSlbQ0gyXWMyW2NIXVtjSF1jKFtjSF1bY0hdMilDI0NjM1tjSF1bY0hdW2NIXVtjSF1bY0hdMw==

> <s_epik_cmdline>
J2VwaWtfYXBwJywgJy1pbWFlJywgJ2xpZ2FuZF9wcm8ubWFlJywgJy1vbWFlJywgJ2xpZ2FuZF9wcmVwLm1hZScsICctbXMnLCAnMScsICctcGgnLCAnNycsICctcGh0JywgJzAuNScsICctbnQn

> <r_lp_tautomer_probability>
1

> <r_epik_Ionization_Penalty>
  0.0000

> <r_epik_Ionization_Penalty_Charging>
  0.0000

> <r_epik_Ionization_Penalty_Neutral>
  0.0000

> <r_epik_State_Penalty>
 -0.0000

> <r_epik_Charging_Adjusted_Penalty>
8.41009075338709e-06

> <i_epik_Tot_Q>
1

> <i_epik_Tot_abs_Q>
1

> <s_epik_Chemistry_Notes>
This compound has an ester and may undergo hydrolysis at high or low pH. This compound has an imine and may undergo hydrolysis.

$$$$
