1m4h_ligand
                    3D
 Schrodinger Suite 2020-3.
132132  0  0  1  0            999 V2000
   11.1220   29.4490   23.3140 N   0  3  0  0  0  0
   11.8500   28.6420   22.3030 C   0  0  2  0  0  0
   13.2100   29.2920   21.9560 C   0  0  0  0  0  0
   14.0480   28.6840   21.2830 O   0  0  0  0  0  0
   10.9630   28.4700   21.0640 C   0  0  0  0  0  0
    9.4770   28.7240   21.3640 C   0  0  0  0  0  0
    8.5060   27.7970   20.6320 C   0  0  0  0  0  0
    8.6040   26.5590   20.8030 O   0  5  0  0  0  0
    7.6280   28.3090   19.8990 O   0  0  0  0  0  0
   13.4340   30.5150   22.4330 N   0  0  0  0  0  0
   14.7100   31.2010   22.2040 C   0  0  2  0  0  0
   15.6730   31.0240   23.3670 C   0  0  0  0  0  0
   15.2850   31.1170   24.5250 O   0  0  0  0  0  0
   14.5150   32.7070   22.0100 C   0  0  0  0  0  0
   14.4540   33.2550   20.5880 C   0  0  0  0  0  0
   14.6110   34.7640   20.6670 C   0  0  0  0  0  0
   15.5710   32.6570   19.7270 C   0  0  0  0  0  0
   16.9380   30.7960   23.0510 N   0  0  0  0  0  0
   17.9670   30.6470   24.0720 C   0  0  2  0  0  0
   19.2370   31.3320   23.5750 C   0  0  0  0  0  0
   20.2660   30.6840   23.3720 O   0  0  0  0  0  0
   18.2310   29.1630   24.3360 C   0  0  0  0  0  0
   17.2250   28.5600   25.2710 C   0  0  0  0  0  0
   17.2000   28.9960   26.4420 O   0  0  0  0  0  0
   16.4630   27.6650   24.8350 O   0  5  0  0  0  0
   18.5040   34.2610   19.5410 C   0  0  0  0  0  0
   20.2700   32.5050   19.8340 C   0  0  0  0  0  0
   19.2120   33.3590   20.5450 C   0  0  0  0  0  0
   19.8770   34.2000   21.6510 C   0  0  0  0  0  0
   19.1690   32.6450   23.3900 N   0  0  0  0  0  0
   20.3140   33.3830   22.8760 C   0  0  2  0  0  0
   20.9920   34.2860   23.9390 C   0  0  1  0  0  0
   20.0970   35.3160   24.3740 O   0  0  0  0  0  0
   21.4410   33.4560   25.1450 C   0  0  0  0  0  0
   22.7240   33.9080   25.8560 C   0  0  1  0  0  0
   22.7020   33.4210   27.3060 C   0  0  0  0  0  0
   23.9340   33.3320   25.1300 C   0  0  0  0  0  0
   23.9630   32.1460   24.8050 O   0  0  0  0  0  0
   24.9340   34.1650   24.8620 N   0  0  0  0  0  0
   26.1550   33.6530   24.2480 C   0  0  2  0  0  0
   26.9260   32.8090   25.2750 C   0  0  0  0  0  0
   26.8330   33.0570   26.4770 O   0  0  0  0  0  0
   27.0510   34.8040   23.7610 C   0  0  0  0  0  0
   27.5890   35.5710   24.9460 C   0  0  0  0  0  0
   28.1950   34.2500   22.8890 C   0  0  0  0  0  0
   27.6690   31.8110   24.8080 N   0  0  0  0  0  0
   28.4500   30.9720   25.7120 C   0  0  2  0  0  0
   29.7510   31.6970   25.9940 C   0  0  0  0  0  0
   30.2440   32.4370   25.1490 O   0  0  0  0  0  0
   28.7620   29.6060   25.0690 C   0  0  0  0  0  0
   27.5390   28.8890   24.4820 C   0  0  0  0  0  0
   27.8170   27.4530   24.0460 C   0  0  0  0  0  0
   28.8130   27.2120   23.3270 O   0  5  0  0  0  0
   27.0230   26.5630   24.4180 O   0  0  0  0  0  0
   30.3080   31.5050   27.1820 N   0  0  0  0  0  0
   31.5780   32.1460   27.5100 C   0  0  2  0  0  0
   32.6270   31.0960   27.8940 C   0  0  0  0  0  0
   33.6730   31.0080   27.2060 O   0  5  0  0  0  0
   31.3970   33.1480   28.6520 C   0  0  0  0  0  0
   32.5980   34.0170   28.8900 C   0  0  0  0  0  0
   33.1390   34.7760   27.8610 C   0  0  0  0  0  0
   33.1800   34.0960   30.1530 C   0  0  0  0  0  0
   34.2490   35.6120   28.0840 C   0  0  0  0  0  0
   34.2920   34.9290   30.3890 C   0  0  0  0  0  0
   34.8230   35.6870   29.3460 C   0  0  0  0  0  0
   32.3850   30.3620   28.8750 O   0  0  0  0  0  0
   11.7535   29.5759   24.2057 H   0  0  0  0  0  0
   10.1916   28.9333   23.5940 H   0  0  0  0  0  0
   10.8815   30.4357   22.8915 H   0  0  0  0  0  0
   12.0461   27.6540   22.7451 H   0  0  0  0  0  0
   11.2778   29.1812   20.2861 H   0  0  0  0  0  0
   11.0607   27.4428   20.6828 H   0  0  0  0  0  0
    9.2921   28.5900   22.4400 H   0  0  0  0  0  0
    9.2144   29.7515   21.0721 H   0  0  0  0  0  0
   12.6386   31.0107   23.0089 H   0  0  0  0  0  0
   15.0950   30.7137   21.2961 H   0  0  0  0  0  0
   13.5655   33.0162   22.4713 H   0  0  0  0  0  0
   15.3466   33.2486   22.4845 H   0  0  0  0  0  0
   13.4906   32.9930   20.1262 H   0  0  0  0  0  0
   13.8053   35.1845   21.2867 H   0  0  0  0  0  0
   14.5566   35.1918   19.6550 H   0  0  0  0  0  0
   15.5848   35.0083   21.1165 H   0  0  0  0  0  0
   15.4494   31.5650   19.6754 H   0  0  0  0  0  0
   16.5469   32.8966   20.1744 H   0  0  0  0  0  0
   15.5187   33.0801   18.7130 H   0  0  0  0  0  0
   17.2043   30.7195   21.9865 H   0  0  0  0  0  0
   17.5967   31.1237   24.9916 H   0  0  0  0  0  0
   18.1874   28.6084   23.3871 H   0  0  0  0  0  0
   19.2275   29.0422   24.7859 H   0  0  0  0  0  0
   18.0359   33.6438   18.7600 H   0  0  0  0  0  0
   19.2350   34.9422   19.0810 H   0  0  0  0  0  0
   17.7302   34.8480   20.0574 H   0  0  0  0  0  0
   19.7893   31.9070   19.0457 H   0  0  0  0  0  0
   20.7496   31.8343   20.5621 H   0  0  0  0  0  0
   21.0296   33.1615   19.3845 H   0  0  0  0  0  0
   18.4578   32.6984   20.9975 H   0  0  0  0  0  0
   20.7761   34.6897   21.2487 H   0  0  0  0  0  0
   19.1702   34.9649   22.0051 H   0  0  0  0  0  0
   18.2354   33.1751   23.6293 H   0  0  0  0  0  0
   21.0344   32.6005   22.5955 H   0  0  0  0  0  0
   21.8469   34.8207   23.4994 H   0  0  0  0  0  0
   19.6678   36.0167   23.6427 H   0  0  0  0  0  0
   20.6539   33.4701   25.9133 H   0  0  0  0  0  0
   21.6256   32.4189   24.8281 H   0  0  0  0  0  0
   22.7928   35.0058   25.8466 H   0  0  0  0  0  0
   21.8258   33.8419   27.8209 H   0  0  0  0  0  0
   23.6196   33.7483   27.8167 H   0  0  0  0  0  0
   22.6448   32.3226   27.3230 H   0  0  0  0  0  0
   24.8452   35.2352   25.1004 H   0  0  0  0  0  0
   25.8243   33.0458   23.3924 H   0  0  0  0  0  0
   26.4596   35.5097   23.1591 H   0  0  0  0  0  0
   26.7505   35.9526   25.5471 H   0  0  0  0  0  0
   28.1990   36.4145   24.5905 H   0  0  0  0  0  0
   28.2092   34.9044   25.5633 H   0  0  0  0  0  0
   27.7721   33.6981   22.0367 H   0  0  0  0  0  0
   28.8197   33.5733   23.4904 H   0  0  0  0  0  0
   28.8095   35.0833   22.5177 H   0  0  0  0  0  0
   27.6906   31.6209   23.7248 H   0  0  0  0  0  0
   27.8506   30.8294   26.6233 H   0  0  0  0  0  0
   29.4794   29.7432   24.2465 H   0  0  0  0  0  0
   29.1954   28.9351   25.8254 H   0  0  0  0  0  0
   26.7388   28.8521   25.2359 H   0  0  0  0  0  0
   27.1834   29.4359   23.5963 H   0  0  0  0  0  0
   29.8101   30.8604   27.9214 H   0  0  0  0  0  0
   31.8852   32.6726   26.5944 H   0  0  0  0  0  0
   30.5514   33.8139   28.4249 H   0  0  0  0  0  0
   31.1955   32.6054   29.5874 H   0  0  0  0  0  0
   32.6975   34.7236   26.8658 H   0  0  0  0  0  0
   32.7692   33.5046   30.9712 H   0  0  0  0  0  0
   34.6589   36.2019   27.2642 H   0  0  0  0  0  0
   34.7354   34.9806   31.3834 H   0  0  0  0  0  0
   35.6828   36.3339   29.5202 H   0  0  0  0  0  0
  1  2  1  0  0  0
  1 67  1  0  0  0
  1 68  1  0  0  0
  1 69  1  0  0  0
  2  3  1  0  0  0
  2  5  1  0  0  0
  2 70  1  0  0  0
  3  4  2  0  0  0
  3 10  1  0  0  0
  5  6  1  0  0  0
  5 71  1  0  0  0
  5 72  1  0  0  0
  6  7  1  0  0  0
  6 73  1  0  0  0
  6 74  1  0  0  0
  7  8  1  0  0  0
  7  9  2  0  0  0
 10 11  1  0  0  0
 10 75  1  0  0  0
 11 12  1  0  0  0
 11 14  1  0  0  0
 11 76  1  0  0  0
 12 13  2  0  0  0
 12 18  1  0  0  0
 14 15  1  0  0  0
 14 77  1  0  0  0
 14 78  1  0  0  0
 15 17  1  0  0  0
 15 16  1  0  0  0
 15 79  1  0  0  0
 16 80  1  0  0  0
 16 81  1  0  0  0
 16 82  1  0  0  0
 17 83  1  0  0  0
 17 84  1  0  0  0
 17 85  1  0  0  0
 18 19  1  0  0  0
 18 86  1  0  0  0
 19 20  1  0  0  0
 19 22  1  0  0  0
 19 87  1  0  0  0
 20 21  2  0  0  0
 20 30  1  0  0  0
 22 23  1  0  0  0
 22 88  1  0  0  0
 22 89  1  0  0  0
 23 24  2  0  0  0
 23 25  1  0  0  0
 26 28  1  0  0  0
 26 90  1  0  0  0
 26 91  1  0  0  0
 26 92  1  0  0  0
 27 28  1  0  0  0
 27 93  1  0  0  0
 27 94  1  0  0  0
 27 95  1  0  0  0
 28 29  1  0  0  0
 28 96  1  0  0  0
 29 31  1  0  0  0
 29 97  1  0  0  0
 29 98  1  0  0  0
 30 31  1  0  0  0
 30 99  1  0  0  0
 31 32  1  0  0  0
 31100  1  0  0  0
 32 33  1  0  0  0
 32 34  1  0  0  0
 32101  1  0  0  0
 33102  1  0  0  0
 34 35  1  0  0  0
 34103  1  0  0  0
 34104  1  0  0  0
 35 37  1  0  0  0
 35 36  1  0  0  0
 35105  1  0  0  0
 36106  1  0  0  0
 36107  1  0  0  0
 36108  1  0  0  0
 37 38  2  0  0  0
 37 39  1  0  0  0
 39 40  1  0  0  0
 39109  1  0  0  0
 40 41  1  0  0  0
 40 43  1  0  0  0
 40110  1  0  0  0
 41 42  2  0  0  0
 41 46  1  0  0  0
 43 44  1  0  0  0
 43 45  1  0  0  0
 43111  1  0  0  0
 44112  1  0  0  0
 44113  1  0  0  0
 44114  1  0  0  0
 45115  1  0  0  0
 45116  1  0  0  0
 45117  1  0  0  0
 46 47  1  0  0  0
 46118  1  0  0  0
 47 48  1  0  0  0
 47 50  1  0  0  0
 47119  1  0  0  0
 48 49  2  0  0  0
 48 55  1  0  0  0
 50 51  1  0  0  0
 50120  1  0  0  0
 50121  1  0  0  0
 51 52  1  0  0  0
 51122  1  0  0  0
 51123  1  0  0  0
 52 53  1  0  0  0
 52 54  2  0  0  0
 55 56  1  0  0  0
 55124  1  0  0  0
 56 57  1  0  0  0
 56 59  1  0  0  0
 56125  1  0  0  0
 57 66  2  0  0  0
 57 58  1  0  0  0
 59 60  1  0  0  0
 59126  1  0  0  0
 59127  1  0  0  0
 60 62  2  0  0  0
 60 61  1  0  0  0
 61 63  2  0  0  0
 61128  1  0  0  0
 62 64  1  0  0  0
 62129  1  0  0  0
 63 65  1  0  0  0
 63130  1  0  0  0
 64 65  2  0  0  0
 64131  1  0  0  0
 65132  1  0  0  0
M  CHG  5   1   1   8  -1  25  -1  53  -1  58  -1
M  END
> <s_m_source_file>
../1m4h_ligand.sdf

> <i_m_source_file_index>
1

> <s_epik_input>
W09IXUMoPU8pW0NIMl1bQ0gyXVtDQEhdKFtOSDMrXSlDKD1PKVtOSF1bQ0BASF0oW0NIMl1bQ0hdKFtDSDNdKVtDSDNdKUMoPU8pW05IXVtDQEBIXShbQ0gyXUMoPU8pW09IXSlDKD1PKVtOSF1bQ0BASF0oW0NIMl1bQ0hdKFtDSDNdKVtDSDNdKVtDQEBIXShbT0hdKVtDSDJdW0NAQEhdKFtDSDNdKUMoPU8pW05IXVtDQEBIXShbQ0hdKFtDSDNdKVtDSDNdKUMoPU8pW05IXVtDQEBIXShbQ0gyXVtDSDJdQyg9TylbT0hdKUMoPU8pW05IXVtDQEhdKEMoPU8pW09IXSlbQ0gyXWMxW2NIXVtjSF1bY0hdW2NIXVtjSF0x

> <s_epik_cmdline>
J2VwaWtfYXBwJywgJy1pbWFlJywgJ2xpZ2FuZF9wcm8ubWFlJywgJy1vbWFlJywgJ2xpZ2FuZF9wcmVwLm1hZScsICctbXMnLCAnMScsICctcGgnLCAnNycsICctcGh0JywgJzAuNScsICctbnQn

> <r_epik_Ionization_Penalty>
  0.0814

> <r_epik_Ionization_Penalty_Charging>
  0.0814

> <r_epik_Ionization_Penalty_Neutral>
  0.0000

> <r_epik_State_Penalty>
  0.0649

> <r_epik_Charging_Adjusted_Penalty>
0.146349284828515

> <i_epik_Tot_Q>
-3

> <i_epik_Tot_abs_Q>
5

$$$$
