1m51_ligand
                    3D
 Schrodinger Suite 2020-3.
 53 55  0  0  1  0            999 V2000
   37.0340   39.3300   34.0690 O   0  0  0  0  0  0
   37.1400   40.4010   33.5010 C   0  0  0  0  0  0
   36.2240   40.7180   32.4980 N   0  0  0  0  0  0
   35.2460   39.6580   32.1950 C   0  0  0  0  0  0
   33.8140   39.8250   32.5280 C   0  0  0  0  0  0
   32.8080   39.1790   31.9170 C   0  0  0  0  0  0
   38.1410   41.2270   33.9000 N   0  0  0  0  0  0
   39.0810   40.8890   34.9830 C   0  0  0  0  0  0
   40.2060   39.9490   34.4560 C   0  0  0  0  0  0
   41.2930   39.5840   35.5170 C   0  0  0  0  0  0
   40.8800   38.4050   36.4370 C   0  0  0  0  0  0
   38.2540   42.4850   33.2590 C   0  0  0  0  0  0
   39.1700   43.4230   33.5300 N   0  0  0  0  0  0
   37.3950   42.8590   32.2500 C   0  0  0  0  0  0
   36.2910   41.9140   31.8230 C   0  0  0  0  0  0
   35.5300   42.2790   30.9240 O   0  0  0  0  0  0
   37.7050   44.0890   31.8070 N   0  0  0  0  0  0
   38.8510   44.3900   32.6400 C   0  0  3  0  0  0
   39.6100   45.6860   32.5210 C   0  0  0  0  0  0
   38.8670   46.6470   33.4400 C   0  0  0  0  0  0
   37.9330   47.5730   32.9620 C   0  0  0  0  0  0
   37.3140   48.3970   33.9160 C   0  0  0  0  0  0
   37.6520   48.2720   35.2860 C   0  0  0  0  0  0
   38.5820   47.3420   35.7290 C   0  0  0  0  0  0
   39.1950   46.5180   34.7890 C   0  0  0  0  0  0
   37.0680   49.0560   36.3250 N   0  0  0  0  0  0
   36.5170   50.2780   36.1330 C   0  0  0  0  0  0
   36.4540   50.8550   35.0450 O   0  0  0  0  0  0
   35.9530   50.9380   37.3690 C   0  0  0  0  0  0
   35.2362   39.4670   31.1118 H   0  0  0  0  0  0
   35.5267   38.7371   32.7272 H   0  0  0  0  0  0
   33.5987   40.5370   33.3384 H   0  0  0  0  0  0
   33.0233   38.4670   31.1066 H   0  0  0  0  0  0
   31.7685   39.3617   32.2268 H   0  0  0  0  0  0
   39.5387   41.8105   35.3721 H   0  0  0  0  0  0
   38.5392   40.3784   35.7928 H   0  0  0  0  0  0
   39.7624   39.0026   34.1132 H   0  0  0  0  0  0
   40.7269   40.4347   33.6177 H   0  0  0  0  0  0
   42.2227   39.2950   35.0050 H   0  0  0  0  0  0
   41.4844   40.4553   36.1605 H   0  0  0  0  0  0
   41.6866   38.2015   37.1567 H   0  0  0  0  0  0
   40.6994   37.5086   35.8255 H   0  0  0  0  0  0
   39.9611   38.6690   36.9811 H   0  0  0  0  0  0
   40.6507   45.5322   32.8424 H   0  0  0  0  0  0
   39.5956   46.0246   31.4745 H   0  0  0  0  0  0
   37.6973   47.6509   31.9006 H   0  0  0  0  0  0
   36.5735   49.1327   33.6023 H   0  0  0  0  0  0
   38.8267   47.2587   36.7879 H   0  0  0  0  0  0
   39.9276   45.7758   35.1061 H   0  0  0  0  0  0
   37.0474   48.6744   37.3565 H   0  0  0  0  0  0
   36.0999   50.2779   38.2366 H   0  0  0  0  0  0
   34.8781   51.1237   37.2274 H   0  0  0  0  0  0
   36.4703   51.8930   37.5431 H   0  0  0  0  0  0
  1  2  2  0  0  0
  2  3  1  0  0  0
  2  7  1  0  0  0
  3  4  1  0  0  0
  3 15  1  0  0  0
  4  5  1  0  0  0
  4 30  1  0  0  0
  4 31  1  0  0  0
  5  6  2  0  0  0
  5 32  1  0  0  0
  6 33  1  0  0  0
  6 34  1  0  0  0
  7  8  1  0  0  0
  7 12  1  0  0  0
  8  9  1  0  0  0
  8 35  1  0  0  0
  8 36  1  0  0  0
  9 10  1  0  0  0
  9 37  1  0  0  0
  9 38  1  0  0  0
 10 11  1  0  0  0
 10 39  1  0  0  0
 10 40  1  0  0  0
 11 41  1  0  0  0
 11 42  1  0  0  0
 11 43  1  0  0  0
 12 13  2  0  0  0
 12 14  1  0  0  0
 13 18  1  0  0  0
 14 15  1  0  0  0
 14 17  2  0  0  0
 15 16  2  0  0  0
 17 18  1  0  0  0
 18 19  1  0  0  0
 19 20  1  0  0  0
 19 44  1  0  0  0
 19 45  1  0  0  0
 20 21  2  0  0  0
 20 25  1  0  0  0
 21 22  1  0  0  0
 21 46  1  0  0  0
 22 23  2  0  0  0
 22 47  1  0  0  0
 23 24  1  0  0  0
 23 26  1  0  0  0
 24 25  2  0  0  0
 24 48  1  0  0  0
 25 49  1  0  0  0
 26 27  1  0  0  0
 26 50  1  0  0  0
 27 28  2  0  0  0
 27 29  1  0  0  0
 29 51  1  0  0  0
 29 52  1  0  0  0
 29 53  1  0  0  0
M  END
> <s_m_source_file>
../1m51_ligand.sdf

> <i_m_source_file_index>
1

> <s_epik_input>
W0NIM11bQ0gyXVtDSDJdW0NIMl1uMWMoPU8pbihbQ0gyXVtDSF09W0NIMl0pYyg9TyljKGMxPTIpPU5bQ0hdKE4yKVtDSDJdYzNbY0hdW2NIXWMoW2NIXVtjSF0zKVtOSF1DKD1PKVtDSDNd

> <s_epik_cmdline>
J2VwaWtfYXBwJywgJy1pbWFlJywgJ2xpZ2FuZF9wcm8ubWFlJywgJy1vbWFlJywgJ2xpZ2FuZF9wcmVwLm1hZScsICctbXMnLCAnMScsICctcGgnLCAnNycsICctcGh0JywgJzAuNScsICctbnQn

> <r_lp_tautomer_probability>
1

> <r_epik_Ionization_Penalty>
  0.0002

> <r_epik_Ionization_Penalty_Charging>
  0.0000

> <r_epik_Ionization_Penalty_Neutral>
  0.0002

> <r_epik_State_Penalty>
 -0.0000

> <r_epik_Charging_Adjusted_Penalty>
0

> <i_epik_Tot_Q>
0

> <i_epik_Tot_abs_Q>
0

> <s_epik_Chemistry_Notes>
This compound has an imine and may undergo hydrolysis.

$$$$
