1m5b_ligand
                    3D
 Schrodinger Suite 2020-3.
 27 28  0  0  1  0            999 V2000
   63.4490   69.4440   55.5010 O   0  5  0  0  0  0
   63.2100   68.4620   54.7240 C   0  0  0  0  0  0
   62.8690   67.3160   55.0770 O   0  0  0  0  0  0
   63.3550   68.7190   53.1850 C   0  0  1  0  0  0
   63.9980   70.1050   53.0420 N   0  3  0  0  0  0
   64.1790   67.6320   52.4770 C   0  0  0  0  0  0
   63.7360   67.4030   51.0900 C   0  0  0  0  0  0
   64.1080   67.8720   49.8640 C   0  0  0  0  0  0
   63.3650   67.3360   48.8410 O   0  0  0  0  0  0
   62.3850   66.4030   49.4990 N   0  0  0  0  0  0
   62.6340   66.4660   50.8370 C   0  0  0  0  0  0
   61.9960   65.8090   51.6970 O   0  5  0  0  0  0
   65.1240   68.8070   49.4860 C   0  0  0  0  0  0
   66.0140   69.4970   50.2750 N   0  0  0  0  0  0
   66.7740   70.2570   49.4830 N   0  0  3  0  0  0
   66.4100   70.0760   48.2770 N   0  0  0  0  0  0
   65.4120   69.2060   48.2150 N   0  0  0  0  0  0
   67.8120   71.1050   50.0570 C   0  0  0  0  0  0
   62.3796   68.6880   52.6774 H   0  0  0  0  0  0
   63.3790   70.8517   53.5610 H   0  0  0  0  0  0
   64.0717   70.3668   51.9761 H   0  0  0  0  0  0
   65.0042   70.0900   53.4863 H   0  0  0  0  0  0
   65.2366   67.9331   52.4497 H   0  0  0  0  0  0
   64.0819   66.6831   53.0249 H   0  0  0  0  0  0
   67.8200   70.9854   51.1505 H   0  0  0  0  0  0
   67.6080   72.1560   49.8045 H   0  0  0  0  0  0
   68.7910   70.8132   49.6490 H   0  0  0  0  0  0
  1  2  1  0  0  0
  2  4  1  0  0  0
  2  3  2  0  0  0
  4  6  1  0  0  0
  4  5  1  0  0  0
  4 19  1  0  0  0
  5 20  1  0  0  0
  5 21  1  0  0  0
  5 22  1  0  0  0
  6  7  1  0  0  0
  6 23  1  0  0  0
  6 24  1  0  0  0
  7 11  1  0  0  0
  7  8  2  0  0  0
  8 13  1  0  0  0
  8  9  1  0  0  0
  9 10  1  0  0  0
 10 11  2  0  0  0
 11 12  1  0  0  0
 13 17  1  0  0  0
 13 14  2  0  0  0
 14 15  1  0  0  0
 15 18  1  0  0  0
 15 16  1  0  0  0
 16 17  2  0  0  0
 18 25  1  0  0  0
 18 26  1  0  0  0
 18 27  1  0  0  0
M  CHG  3   1  -1   5   1  12  -1
M  END
> <s_m_source_file>
../1m5b_ligand.sdf

> <i_m_source_file_index>
1

> <s_epik_input>
W09IXUMoPU8pW0NAQEhdKFtOSDMrXSlbQ0gyXWMxYyhvW25IXWMxPU8pLWMybm4obm4yKVtDSDNd

> <s_epik_cmdline>
J2VwaWtfYXBwJywgJy1pbWFlJywgJ2xpZ2FuZF9wcm8ubWFlJywgJy1vbWFlJywgJ2xpZ2FuZF9wcmVwLm1hZScsICctbXMnLCAnMScsICctcGgnLCAnNycsICctcGh0JywgJzAuNScsICctbnQn

> <r_lp_tautomer_probability>
1

> <r_epik_Ionization_Penalty>
  0.0039

> <r_epik_Ionization_Penalty_Charging>
  0.0039

> <r_epik_Ionization_Penalty_Neutral>
  0.0000

> <r_epik_State_Penalty>
 -0.0000

> <r_epik_Charging_Adjusted_Penalty>
0.00394451811671287

> <i_epik_Tot_Q>
-1

> <i_epik_Tot_abs_Q>
3

$$$$
