1m5w_ligand
                    3D
 Schrodinger Suite 2020-3.
 22 21  0  0  1  0            999 V2000
   28.4280    0.8800   36.3340 C   0  0  0  0  0  0
   29.3490    0.8640   35.0910 C   0  0  0  0  0  0
   30.1260    2.0340   34.9090 C   0  0  2  0  0  0
   30.7120    2.9560   35.7270 C   0  0  1  0  0  0
   32.1430    2.5180   35.8320 C   0  0  0  0  0  0
   29.3820   -0.0770   34.3100 O   0  0  0  0  0  0
   29.4470    2.7240   34.0760 O   0  0  0  0  0  0
   30.8490    4.3520   35.3480 O   0  0  0  0  0  0
   33.1620    3.4640   36.1130 O   0  0  0  0  0  0
   34.6060    3.1980   36.2560 P   0  0  0  0  0  0
   35.2570    4.5790   36.5730 O   0  0  0  0  0  0
   35.0110    2.5260   34.8630 O   0  5  0  0  0  0
   34.6210    2.1850   37.5150 O   0  5  0  0  0  0
   28.5695    1.8226   36.8831 H   0  0  0  0  0  0
   28.6808    0.0328   36.9885 H   0  0  0  0  0  0
   27.3789    0.7959   36.0141 H   0  0  0  0  0  0
   31.0926    1.5429   34.7234 H   0  0  0  0  0  0
   29.9767    2.9290   36.5447 H   0  0  0  0  0  0
   32.2416    1.7778   36.6397 H   0  0  0  0  0  0
   32.4590    2.0663   34.8801 H   0  0  0  0  0  0
   28.8648    2.2204   33.2902 H   0  0  0  0  0  0
   29.9525    4.9694   35.1894 H   0  0  0  0  0  0
  1  2  1  0  0  0
  1 14  1  0  0  0
  1 15  1  0  0  0
  1 16  1  0  0  0
  2  3  1  0  0  0
  2  6  2  0  0  0
  3  4  1  0  0  0
  3  7  1  0  0  0
  3 17  1  0  0  0
  4  5  1  0  0  0
  4  8  1  0  0  0
  4 18  1  0  0  0
  5  9  1  0  0  0
  5 19  1  0  0  0
  5 20  1  0  0  0
  7 21  1  0  0  0
  8 22  1  0  0  0
  9 10  1  0  0  0
 10 11  2  0  0  0
 10 12  1  0  0  0
 10 13  1  0  0  0
M  CHG  2  12  -1  13  -1
M  END
> <s_m_source_file>
../1m5w_ligand.sdf

> <i_m_source_file_index>
1

> <s_epik_input>
W0NIM11DKD1PKVtDQEBIXShbT0hdKVtDQEhdKFtPSF0pW0NIMl1PUCg9TykoW09IXSlbT0hd

> <s_epik_cmdline>
J2VwaWtfYXBwJywgJy1pbWFlJywgJ2xpZ2FuZF9wcm8ubWFlJywgJy1vbWFlJywgJ2xpZ2FuZF9wcmVwLm1hZScsICctbXMnLCAnMScsICctcGgnLCAnNycsICctcGh0JywgJzAuNScsICctbnQn

> <r_lp_tautomer_probability>
0.99995

> <r_epik_Ionization_Penalty>
  0.1109

> <r_epik_Ionization_Penalty_Charging>
  0.1109

> <r_epik_Ionization_Penalty_Neutral>
  0.0000

> <r_epik_State_Penalty>
  0.1006

> <r_epik_Charging_Adjusted_Penalty>
0.211470369704316

> <i_epik_Tot_Q>
-2

> <i_epik_Tot_abs_Q>
2

$$$$
