1m6p_ligand
                    3D
 Schrodinger Suite 2020-3.
 27 27  0  0  1  0            999 V2000
   43.8370   40.2820   18.2260 C   0  0  1  0  0  0
   43.2570   38.8530   18.0900 C   0  0  2  0  0  0
   41.8730   38.8680   17.3910 C   0  0  2  0  0  0
   40.9070   39.7590   18.1350 C   0  0  1  0  0  0
   41.5450   41.1750   18.1250 C   0  0  1  0  0  0
   40.9650   42.0600   19.5210 C   0  0  0  0  0  0
   44.3220   40.7840   16.9750 O   0  0  0  0  0  0
   43.1120   38.2700   19.3780 O   0  0  0  0  0  0
   41.3590   37.5470   17.3230 O   0  0  0  0  0  0
   39.6420   39.7260   17.5060 O   0  0  0  0  0  0
   42.8430   41.1460   18.7970 O   0  0  0  0  0  0
   39.9010   42.6990   20.1610 O   0  0  0  0  0  0
   40.1700   43.9170   20.9980 P   0  0  0  0  0  0
   40.8790   44.8470   20.1760 O   0  0  0  0  0  0
   38.8830   44.2850   21.5100 O   0  5  0  0  0  0
   41.1130   43.4740   22.2080 O   0  5  0  0  0  0
   44.7163   40.3329   18.8849 H   0  0  0  0  0  0
   43.9660   38.2097   17.5483 H   0  0  0  0  0  0
   41.9459   39.2060   16.3467 H   0  0  0  0  0  0
   40.6595   39.3998   19.1448 H   0  0  0  0  0  0
   41.5041   41.4610   17.0636 H   0  0  0  0  0  0
   41.0891   41.4434   20.4235 H   0  0  0  0  0  0
   41.5413   42.9905   19.6306 H   0  0  0  0  0  0
   44.7631   41.7902   16.9199 H   0  0  0  0  0  0
   43.9868   38.1673   20.0369 H   0  0  0  0  0  0
   41.9333   36.7589   16.8139 H   0  0  0  0  0  0
   39.0824   38.7809   17.4453 H   0  0  0  0  0  0
  1 11  1  0  0  0
  1  7  1  0  0  0
  1  2  1  0  0  0
  1 17  1  0  0  0
  2  8  1  0  0  0
  2  3  1  0  0  0
  2 18  1  0  0  0
  3  9  1  0  0  0
  3  4  1  0  0  0
  3 19  1  0  0  0
  4 10  1  0  0  0
  4  5  1  0  0  0
  4 20  1  0  0  0
  5 11  1  0  0  0
  5  6  1  0  0  0
  5 21  1  0  0  0
  6 12  1  0  0  0
  6 22  1  0  0  0
  6 23  1  0  0  0
  7 24  1  0  0  0
  8 25  1  0  0  0
  9 26  1  0  0  0
 10 27  1  0  0  0
 12 13  1  0  0  0
 13 16  1  0  0  0
 13 15  1  0  0  0
 13 14  2  0  0  0
M  CHG  2  15  -1  16  -1
M  END
> <s_m_source_file>
../1m6p_ligand.sdf

> <i_m_source_file_index>
1

> <s_epik_input>
W09IXVtDQEBIXTFbQ0BASF0oW09IXSlbQ0BASF0oW09IXSlbQ0BIXShbT0hdKVtDQEhdKE8xKVtDSDJdT1AoPU8pKFtPSF0pW09IXQ==

> <s_epik_cmdline>
J2VwaWtfYXBwJywgJy1pbWFlJywgJ2xpZ2FuZF9wcm8ubWFlJywgJy1vbWFlJywgJ2xpZ2FuZF9wcmVwLm1hZScsICctbXMnLCAnMScsICctcGgnLCAnNycsICctcGh0JywgJzAuNScsICctbnQn

> <r_epik_Ionization_Penalty>
  0.1046

> <r_epik_Ionization_Penalty_Charging>
  0.1046

> <r_epik_Ionization_Penalty_Neutral>
  0.0000

> <r_epik_State_Penalty>
  0.0945

> <r_epik_Charging_Adjusted_Penalty>
0.19918344064553

> <i_epik_Tot_Q>
-2

> <i_epik_Tot_abs_Q>
2

> <s_epik_Chemistry_Notes>
This compound contains an acetal/aminal-like group ( X-CH(R)-Y where X, Y are N, S, or O) that may be acid/base labile, releasing an aldehyde.

$$$$
