1m7d_ligand
                    3D
 Schrodinger Suite 2020-3.
 72 74  0  0  1  0            999 V2000
   -9.9230   24.7930   33.5390 C   0  0  1  0  0  0
  -10.8210   25.9400   33.0460 C   0  0  2  0  0  0
  -11.9540   26.1010   33.8900 O   0  0  0  0  0  0
  -11.2650   25.6570   31.6060 C   0  0  2  0  0  0
  -12.1460   26.6790   31.1770 O   0  0  0  0  0  0
  -11.9580   24.2910   31.5120 C   0  0  1  0  0  0
  -12.3000   24.0050   30.1620 O   0  0  0  0  0  0
  -11.0370   23.1970   32.0610 C   0  0  1  0  0  0
  -10.6270   23.5280   33.4100 O   0  0  0  0  0  0
  -11.7620   21.8530   32.0480 C   0  0  0  0  0  0
   -6.3260   21.8850   32.4770 C   0  0  1  0  0  0
   -7.4990   22.8000   32.1440 C   0  0  0  0  0  0
   -7.6750   23.8680   33.2260 C   0  0  2  0  0  0
   -8.6780   24.8160   32.7980 O   0  0  0  0  0  0
   -6.3390   24.5970   33.4570 C   0  0  1  0  0  0
   -6.4660   25.5610   34.4830 O   0  0  0  0  0  0
   -5.2490   23.6000   33.8060 C   0  0  1  0  0  0
   -5.1290   22.6540   32.7300 O   0  0  0  0  0  0
   -3.9190   24.3040   34.0400 C   0  0  0  0  0  0
   -5.9780   17.3600   33.6890 C   0  0  2  0  0  0
   -6.7820   18.6400   33.4380 C   0  0  1  0  0  0
   -5.8830   19.8580   33.6740 C   0  0  2  0  0  0
   -5.1630   19.7990   35.0330 C   0  0  1  0  0  0
   -4.4700   18.4510   35.1980 C   0  0  1  0  0  0
   -3.7940   18.3190   36.5520 C   0  0  0  0  0  0
   -8.4920   19.1230   31.7650 C   0  0  0  0  0  0
   -8.8540   19.0840   30.2900 C   0  0  0  0  0  0
   -6.0730   14.9770   33.6260 C   0  0  0  0  0  0
   -7.2760   18.6610   32.0690 N   0  0  0  0  0  0
   -6.7820   16.2040   33.4690 O   0  0  0  0  0  0
   -6.6710   21.0510   33.5870 O   0  0  0  0  0  0
   -4.1950   20.8300   35.0950 O   0  0  0  0  0  0
   -5.4180   17.3910   35.0140 O   0  0  0  0  0  0
   -4.7510   18.4010   37.5930 O   0  0  0  0  0  0
   -9.2830   19.5510   32.6020 O   0  0  0  0  0  0
   -9.6449   24.8670   34.6007 H   0  0  0  0  0  0
  -10.3034   26.9074   33.1245 H   0  0  0  0  0  0
  -11.8166   26.3108   34.9610 H   0  0  0  0  0  0
  -10.4116   25.7031   30.9135 H   0  0  0  0  0  0
  -11.8138   27.7277   31.1779 H   0  0  0  0  0  0
  -12.9194   24.3016   32.0464 H   0  0  0  0  0  0
  -12.9584   24.6877   29.6050 H   0  0  0  0  0  0
  -10.1105   23.1363   31.4711 H   0  0  0  0  0  0
  -12.0686   21.6117   31.0195 H   0  0  0  0  0  0
  -12.6519   21.9102   32.6921 H   0  0  0  0  0  0
  -11.0877   21.0690   32.4231 H   0  0  0  0  0  0
   -6.0689   21.2042   31.6521 H   0  0  0  0  0  0
   -7.3142   23.2970   31.1802 H   0  0  0  0  0  0
   -8.4215   22.2045   32.0785 H   0  0  0  0  0  0
   -8.0470   23.4230   34.1607 H   0  0  0  0  0  0
   -6.0509   25.1855   32.5735 H   0  0  0  0  0  0
   -7.2129   26.3636   34.3942 H   0  0  0  0  0  0
   -5.5211   23.0294   34.7062 H   0  0  0  0  0  0
   -4.0254   25.0239   34.8649 H   0  0  0  0  0  0
   -3.6199   24.8363   33.1250 H   0  0  0  0  0  0
   -3.1511   23.5603   34.2991 H   0  0  0  0  0  0
   -5.1308   17.2347   32.9986 H   0  0  0  0  0  0
   -7.6703   18.6701   34.0861 H   0  0  0  0  0  0
   -5.1337   19.9231   32.8713 H   0  0  0  0  0  0
   -5.8556   19.9889   35.8662 H   0  0  0  0  0  0
   -3.7129   18.3286   34.4095 H   0  0  0  0  0  0
   -3.2816   17.3476   36.6128 H   0  0  0  0  0  0
   -3.0602   19.1290   36.6760 H   0  0  0  0  0  0
   -8.0121   18.6686   29.7167 H   0  0  0  0  0  0
   -9.0695   20.1037   29.9383 H   0  0  0  0  0  0
   -9.7425   18.4514   30.1471 H   0  0  0  0  0  0
   -6.7546   14.1335   33.4417 H   0  0  0  0  0  0
   -5.6765   14.9111   34.6499 H   0  0  0  0  0  0
   -5.2409   14.9398   32.9075 H   0  0  0  0  0  0
   -6.6426   18.2895   31.2500 H   0  0  0  0  0  0
   -4.5038   21.8811   34.9954 H   0  0  0  0  0  0
   -4.4302   18.3239   38.6424 H   0  0  0  0  0  0
  1  2  1  0  0  0
  1  9  1  0  0  0
  1 14  1  0  0  0
  1 36  1  0  0  0
  2  3  1  0  0  0
  2  4  1  0  0  0
  2 37  1  0  0  0
  3 38  1  0  0  0
  4  5  1  0  0  0
  4  6  1  0  0  0
  4 39  1  0  0  0
  5 40  1  0  0  0
  6  7  1  0  0  0
  6  8  1  0  0  0
  6 41  1  0  0  0
  7 42  1  0  0  0
  8  9  1  0  0  0
  8 10  1  0  0  0
  8 43  1  0  0  0
 10 44  1  0  0  0
 10 45  1  0  0  0
 10 46  1  0  0  0
 11 12  1  0  0  0
 11 18  1  0  0  0
 11 31  1  0  0  0
 11 47  1  0  0  0
 12 13  1  0  0  0
 12 48  1  0  0  0
 12 49  1  0  0  0
 13 14  1  0  0  0
 13 15  1  0  0  0
 13 50  1  0  0  0
 15 16  1  0  0  0
 15 17  1  0  0  0
 15 51  1  0  0  0
 16 52  1  0  0  0
 17 18  1  0  0  0
 17 19  1  0  0  0
 17 53  1  0  0  0
 19 54  1  0  0  0
 19 55  1  0  0  0
 19 56  1  0  0  0
 20 21  1  0  0  0
 20 30  1  0  0  0
 20 33  1  0  0  0
 20 57  1  0  0  0
 21 22  1  0  0  0
 21 29  1  0  0  0
 21 58  1  0  0  0
 22 23  1  0  0  0
 22 31  1  0  0  0
 22 59  1  0  0  0
 23 24  1  0  0  0
 23 32  1  0  0  0
 23 60  1  0  0  0
 24 25  1  0  0  0
 24 33  1  0  0  0
 24 61  1  0  0  0
 25 34  1  0  0  0
 25 62  1  0  0  0
 25 63  1  0  0  0
 26 27  1  0  0  0
 26 29  1  0  0  0
 26 35  2  0  0  0
 27 64  1  0  0  0
 27 65  1  0  0  0
 27 66  1  0  0  0
 28 30  1  0  0  0
 28 67  1  0  0  0
 28 68  1  0  0  0
 28 69  1  0  0  0
 29 70  1  0  0  0
 32 71  1  0  0  0
 34 72  1  0  0  0
M  END
> <s_m_source_file>
../1m7d_ligand.sdf

> <i_m_source_file_index>
1

> <s_epik_input>
TzFbQ0BASF0oW0NIM10pW0NASF0oW09IXSlbQ0BASF0oW09IXSlbQ0BASF0oW09IXSlbQ0BASF0xT1tDQEhdKFtDQEBIXShbT0hdKVtDQEBIXShPMilbQ0gzXSlbQ0gyXVtDQEBIXTJPW0NASF0oW0NASF0oW0NAQEhdM09bQ0gzXSlbTkhdQyg9TylbQ0gzXSlbQ0BIXShbT0hdKVtDQEhdKE8zKVtDSDJdW09IXQ==

> <s_epik_cmdline>
J2VwaWtfYXBwJywgJy1pbWFlJywgJ2xpZ2FuZF9wcm8ubWFlJywgJy1vbWFlJywgJ2xpZ2FuZF9wcmVwLm1hZScsICctbXMnLCAnMScsICctcGgnLCAnNycsICctcGh0JywgJzAuNScsICctbnQn

> <r_lp_tautomer_probability>
1

> <r_epik_Ionization_Penalty>
  0.0000

> <r_epik_Ionization_Penalty_Charging>
  0.0000

> <r_epik_Ionization_Penalty_Neutral>
  0.0000

> <r_epik_State_Penalty>
 -0.0000

> <r_epik_Charging_Adjusted_Penalty>
0

> <i_epik_Tot_Q>
0

> <i_epik_Tot_abs_Q>
0

> <s_epik_Chemistry_Notes>
This compound contains an acetal/aminal-like group ( X-CH(R)-Y where X, Y are N, S, or O) that may be acid/base labile, releasing an aldehyde.

$$$$
