1m7i_ligand
                    3D
 Schrodinger Suite 2020-3.
113117  0  0  1  0            999 V2000
  -11.6960   26.4010   35.0970 C   0  0  1  0  0  0
  -12.9110   26.2810   36.0230 C   0  0  2  0  0  0
  -13.5590   27.5360   36.1750 O   0  0  0  0  0  0
  -12.4680   25.7220   37.3960 C   0  0  2  0  0  0
  -13.5640   25.6660   38.2990 O   0  0  0  0  0  0
  -11.3090   26.5600   37.9840 C   0  0  1  0  0  0
  -10.8190   25.9690   39.1810 O   0  0  0  0  0  0
  -10.1640   26.7080   36.9710 C   0  0  1  0  0  0
  -10.6780   27.2300   35.7160 O   0  0  0  0  0  0
   -9.1070   27.6510   37.5420 C   0  0  0  0  0  0
   -9.3250   23.7430   34.2760 C   0  0  1  0  0  0
  -10.1510   24.9670   33.8760 C   0  0  2  0  0  0
  -11.2260   25.0750   34.8210 O   0  0  0  0  0  0
  -10.7410   24.7690   32.4690 C   0  0  2  0  0  0
  -11.5770   25.8610   32.1180 O   0  0  0  0  0  0
  -11.5290   23.4530   32.3840 C   0  0  1  0  0  0
  -11.9700   23.2290   31.0510 O   0  0  0  0  0  0
  -10.6780   22.2700   32.8760 C   0  0  1  0  0  0
  -10.1580   22.5590   34.1960 O   0  0  0  0  0  0
  -11.5180   20.9920   32.9270 C   0  0  0  0  0  0
   -5.3990   21.0560   33.9300 C   0  0  1  0  0  0
   -6.6270   21.7320   33.3170 C   0  0  2  0  0  0
   -6.3570   22.1440   31.9870 O   0  0  0  0  0  0
   -7.0500   22.9310   34.1590 C   0  0  2  0  0  0
   -8.1120   23.6510   33.4960 O   0  0  0  0  0  0
   -5.8660   23.8780   34.4160 C   0  0  1  0  0  0
   -6.2500   24.8850   35.3310 O   0  0  0  0  0  0
   -4.6560   23.1220   34.9620 C   0  0  1  0  0  0
   -4.3370   22.0220   34.0900 O   0  0  0  0  0  0
   -3.4630   24.0650   35.0560 C   0  0  0  0  0  0
   -6.3780   16.6640   34.7130 C   0  0  1  0  0  0
   -6.6850   18.1640   34.6340 C   0  0  1  0  0  0
   -5.4620   18.9640   35.1300 C   0  0  2  0  0  0
   -5.0020   18.4860   36.5190 C   0  0  1  0  0  0
   -4.8150   16.9580   36.5300 C   0  0  1  0  0  0
   -4.4790   16.4250   37.9220 C   0  0  0  0  0  0
   -8.1530   19.1010   32.9470 C   0  0  0  0  0  0
   -8.3820   19.4050   31.4800 C   0  0  0  0  0  0
   -6.9990   18.5080   33.2560 N   0  0  0  0  0  0
   -5.7400   20.3790   35.1590 O   0  0  0  0  0  0
   -3.7890   19.1340   36.8700 O   0  0  0  0  0  0
   -6.0070   16.3100   36.0500 O   0  0  0  0  0  0
   -4.6180   15.0100   37.9480 O   0  0  0  0  0  0
   -8.9910   19.4060   33.7920 O   0  0  0  0  0  0
   -6.2610   13.7550   34.4460 C   0  0  1  0  0  0
   -5.7520   12.6740   33.6410 O   0  0  0  0  0  0
   -5.1210   11.6370   34.3910 C   0  0  0  0  0  0
   -7.5110   15.9000   34.2660 O   0  0  0  0  0  0
   -7.1900   14.6560   33.6050 C   0  0  2  0  0  0
   -8.4800   13.9110   33.2550 C   0  0  2  0  0  0
   -9.3910   14.8100   32.6360 O   0  0  0  0  0  0
   -9.1350   13.3000   34.5090 C   0  0  1  0  0  0
  -10.2390   12.4860   34.1330 O   0  0  0  0  0  0
   -8.1160   12.4750   35.3260 C   0  0  1  0  0  0
   -6.9520   13.2820   35.6200 O   0  0  0  0  0  0
   -8.7080   11.9210   36.6200 C   0  0  0  0  0  0
  -11.9049   26.8732   34.1257 H   0  0  0  0  0  0
  -13.6880   25.6533   35.5622 H   0  0  0  0  0  0
  -13.9367   28.0706   35.2910 H   0  0  0  0  0  0
  -12.1692   24.6674   37.3032 H   0  0  0  0  0  0
  -14.4713   25.1059   38.0287 H   0  0  0  0  0  0
  -11.6764   27.5488   38.2959 H   0  0  0  0  0  0
  -11.5022   25.7852   40.0233 H   0  0  0  0  0  0
   -9.7181   25.7324   36.7273 H   0  0  0  0  0  0
   -8.7269   27.2443   38.4907 H   0  0  0  0  0  0
   -9.5554   28.6395   37.7203 H   0  0  0  0  0  0
   -8.2774   27.7484   36.8262 H   0  0  0  0  0  0
   -8.9582   23.7858   35.3122 H   0  0  0  0  0  0
   -9.5595   25.8934   33.9197 H   0  0  0  0  0  0
   -9.9393   24.7892   31.7161 H   0  0  0  0  0  0
  -11.1756   26.8851   32.1242 H   0  0  0  0  0  0
  -12.4573   23.5235   32.9698 H   0  0  0  0  0  0
  -12.5928   23.9808   30.5441 H   0  0  0  0  0  0
   -9.8059   22.1255   32.2214 H   0  0  0  0  0  0
  -11.9130   20.7726   31.9241 H   0  0  0  0  0  0
  -12.3542   21.1306   33.6282 H   0  0  0  0  0  0
  -10.8907   20.1542   33.2654 H   0  0  0  0  0  0
   -4.9822   20.2627   33.2921 H   0  0  0  0  0  0
   -7.4538   21.0129   33.2209 H   0  0  0  0  0  0
   -6.0371   21.4059   31.2368 H   0  0  0  0  0  0
   -7.4663   22.5735   35.1123 H   0  0  0  0  0  0
   -5.5918   24.4111   33.4937 H   0  0  0  0  0  0
   -7.1082   25.5350   35.1053 H   0  0  0  0  0  0
   -4.8798   22.6781   35.9432 H   0  0  0  0  0  0
   -3.7105   24.9040   35.7230 H   0  0  0  0  0  0
   -3.2213   24.4514   34.0549 H   0  0  0  0  0  0
   -2.5960   23.5204   35.4580 H   0  0  0  0  0  0
   -5.5351   16.3628   34.0736 H   0  0  0  0  0  0
   -7.5767   18.4251   35.2228 H   0  0  0  0  0  0
   -4.6425   18.8562   34.4042 H   0  0  0  0  0  0
   -5.7155   18.7912   37.2986 H   0  0  0  0  0  0
   -4.0078   16.6894   35.8327 H   0  0  0  0  0  0
   -3.4425   16.6914   38.1763 H   0  0  0  0  0  0
   -5.1633   16.8693   38.6598 H   0  0  0  0  0  0
   -7.5197   19.0543   30.8939 H   0  0  0  0  0  0
   -8.5005   20.4902   31.3446 H   0  0  0  0  0  0
   -9.2920   18.8911   31.1368 H   0  0  0  0  0  0
   -6.2809   18.2793   32.4547 H   0  0  0  0  0  0
   -3.7442   20.2323   36.9114 H   0  0  0  0  0  0
   -4.4149   14.4543   38.8754 H   0  0  0  0  0  0
   -5.3705   14.2784   34.8243 H   0  0  0  0  0  0
   -4.7624   10.8550   33.7056 H   0  0  0  0  0  0
   -5.8445   11.2026   35.0966 H   0  0  0  0  0  0
   -4.2697   12.0541   34.9490 H   0  0  0  0  0  0
   -6.6533   14.9724   32.6984 H   0  0  0  0  0  0
   -8.2712   13.1294   32.5097 H   0  0  0  0  0  0
   -9.0988   15.3458   31.7208 H   0  0  0  0  0  0
   -9.5737   14.0912   35.1347 H   0  0  0  0  0  0
  -11.0629   12.9147   33.5435 H   0  0  0  0  0  0
   -7.7645   11.6272   34.7196 H   0  0  0  0  0  0
   -9.5919   11.3093   36.3864 H   0  0  0  0  0  0
   -9.0016   12.7544   37.2751 H   0  0  0  0  0  0
   -7.9569   11.3003   37.1305 H   0  0  0  0  0  0
  1  2  1  0  0  0
  1  9  1  0  0  0
  1 13  1  0  0  0
  1 57  1  0  0  0
  2  3  1  0  0  0
  2  4  1  0  0  0
  2 58  1  0  0  0
  3 59  1  0  0  0
  4  5  1  0  0  0
  4  6  1  0  0  0
  4 60  1  0  0  0
  5 61  1  0  0  0
  6  7  1  0  0  0
  6  8  1  0  0  0
  6 62  1  0  0  0
  7 63  1  0  0  0
  8  9  1  0  0  0
  8 10  1  0  0  0
  8 64  1  0  0  0
 10 65  1  0  0  0
 10 66  1  0  0  0
 10 67  1  0  0  0
 11 12  1  0  0  0
 11 19  1  0  0  0
 11 25  1  0  0  0
 11 68  1  0  0  0
 12 13  1  0  0  0
 12 14  1  0  0  0
 12 69  1  0  0  0
 14 15  1  0  0  0
 14 16  1  0  0  0
 14 70  1  0  0  0
 15 71  1  0  0  0
 16 17  1  0  0  0
 16 18  1  0  0  0
 16 72  1  0  0  0
 17 73  1  0  0  0
 18 19  1  0  0  0
 18 20  1  0  0  0
 18 74  1  0  0  0
 20 75  1  0  0  0
 20 76  1  0  0  0
 20 77  1  0  0  0
 21 22  1  0  0  0
 21 29  1  0  0  0
 21 40  1  0  0  0
 21 78  1  0  0  0
 22 23  1  0  0  0
 22 24  1  0  0  0
 22 79  1  0  0  0
 23 80  1  0  0  0
 24 25  1  0  0  0
 24 26  1  0  0  0
 24 81  1  0  0  0
 26 27  1  0  0  0
 26 28  1  0  0  0
 26 82  1  0  0  0
 27 83  1  0  0  0
 28 29  1  0  0  0
 28 30  1  0  0  0
 28 84  1  0  0  0
 30 85  1  0  0  0
 30 86  1  0  0  0
 30 87  1  0  0  0
 31 32  1  0  0  0
 31 42  1  0  0  0
 31 48  1  0  0  0
 31 88  1  0  0  0
 32 33  1  0  0  0
 32 39  1  0  0  0
 32 89  1  0  0  0
 33 34  1  0  0  0
 33 40  1  0  0  0
 33 90  1  0  0  0
 34 35  1  0  0  0
 34 41  1  0  0  0
 34 91  1  0  0  0
 35 36  1  0  0  0
 35 42  1  0  0  0
 35 92  1  0  0  0
 36 43  1  0  0  0
 36 93  1  0  0  0
 36 94  1  0  0  0
 37 38  1  0  0  0
 37 39  1  0  0  0
 37 44  2  0  0  0
 38 95  1  0  0  0
 38 96  1  0  0  0
 38 97  1  0  0  0
 39 98  1  0  0  0
 41 99  1  0  0  0
 43100  1  0  0  0
 45 46  1  0  0  0
 45 49  1  0  0  0
 45 55  1  0  0  0
 45101  1  0  0  0
 46 47  1  0  0  0
 47102  1  0  0  0
 47103  1  0  0  0
 47104  1  0  0  0
 48 49  1  0  0  0
 49 50  1  0  0  0
 49105  1  0  0  0
 50 51  1  0  0  0
 50 52  1  0  0  0
 50106  1  0  0  0
 51107  1  0  0  0
 52 53  1  0  0  0
 52 54  1  0  0  0
 52108  1  0  0  0
 53109  1  0  0  0
 54 55  1  0  0  0
 54 56  1  0  0  0
 54110  1  0  0  0
 56111  1  0  0  0
 56112  1  0  0  0
 56113  1  0  0  0
M  END
> <s_m_source_file>
../1m7i_ligand.sdf

> <i_m_source_file_index>
1

> <s_epik_input>
TzFbQ0BASF0oW0NIM10pW0NASF0oW09IXSlbQ0BASF0oW09IXSlbQ0BASF0oW09IXSlbQ0BASF0xT1tDQEhdKFtDQEhdKFtPSF0pW0NAQEhdKFtPSF0pW0NAQEhdKE8yKVtDSDNdKVtDQEBIXTJPW0NASF0oW0NAQEhdKFtPSF0pW0NAQEhdKE8zKVtDSDNdKVtDQEBIXShbT0hdKVtDQEBIXTNPW0NAQEhdKFtDQEhdKFtPSF0pW0NASF0oTzQpW0NIMl1bT0hdKVtDQEBIXShbTkhdQyg9TylbQ0gzXSlbQ0BASF00T1tDQEBIXShbQ0BASF01T1tDSDNdKVtDQEhdKFtPSF0pW0NAQEhdKFtPSF0pW0NAQEhdKE81KVtDSDNd

> <s_epik_cmdline>
J2VwaWtfYXBwJywgJy1pbWFlJywgJ2xpZ2FuZF9wcm8ubWFlJywgJy1vbWFlJywgJ2xpZ2FuZF9wcmVwLm1hZScsICctbXMnLCAnMScsICctcGgnLCAnNycsICctcGh0JywgJzAuNScsICctbnQn

> <r_lp_tautomer_probability>
1

> <r_epik_Ionization_Penalty>
  0.0000

> <r_epik_Ionization_Penalty_Charging>
  0.0000

> <r_epik_Ionization_Penalty_Neutral>
  0.0000

> <r_epik_State_Penalty>
 -0.0000

> <r_epik_Charging_Adjusted_Penalty>
0

> <i_epik_Tot_Q>
0

> <i_epik_Tot_abs_Q>
0

> <s_epik_Chemistry_Notes>
This compound contains an acetal/aminal-like group ( X-CH(R)-Y where X, Y are N, S, or O) that may be acid/base labile, releasing an aldehyde.

$$$$
