1m7y_ligand
                    3D
 Schrodinger Suite 2020-3.
 47 47  0  0  1  0            999 V2000
   23.2370    2.2760   18.8790 N   0  3  0  0  0  0
   22.0730    2.0290   18.1400 C   0  0  0  0  0  0
   22.0480    2.6300   16.7730 C   0  0  0  0  0  0
   21.0520    1.2450   18.7510 C   0  0  0  0  0  0
   19.9540    0.9980   18.0770 O   0  5  0  0  0  0
   21.2870    0.7490   20.1240 C   0  0  0  0  0  0
   20.2070   -0.1270   20.8680 C   0  0  0  0  0  0
   22.5640    1.0870   20.7910 C   0  0  0  0  0  0
   23.5040    1.8410   20.1460 C   0  0  0  0  0  0
   22.7960    0.5630   22.2090 C   0  0  0  0  0  0
   23.1110   -0.8190   22.1390 O   0  0  0  0  0  0
   24.0800   -1.5320   23.2440 P   0  0  0  0  0  0
   25.2680   -1.9890   22.4650 O   0  5  0  0  0  0
   23.3690   -2.6690   23.8070 O   0  0  0  0  0  0
   24.4090   -0.5470   24.2940 O   0  5  0  0  0  0
   18.8790    0.0800   20.3520 N   0  3  0  0  0  0
   17.7230   -0.0800   21.0240 C   0  0  2  0  0  0
   16.5550    0.0900   20.2560 C   0  0  0  0  0  0
   16.6430    0.7530   19.1500 O   0  0  0  0  0  0
   15.4000   -0.4010   20.6440 O   0  5  0  0  0  0
   17.7250   -0.3570   22.4510 C   0  0  0  0  0  0
   16.8160   -1.1250   23.0540 C   0  0  0  0  0  0
   17.0180   -1.3310   24.4750 O   0  0  0  0  0  0
   15.7600   -1.4200   25.1710 C   0  0  0  0  0  0
   15.5090   -2.8490   25.6690 C   0  0  0  0  0  0
   15.3360   -3.7370   24.5200 N   0  3  0  0  0  0
   22.9855    3.1775   16.5960 H   0  0  0  0  0  0
   21.1977    3.3232   16.6928 H   0  0  0  0  0  0
   21.9424    1.8319   16.0235 H   0  0  0  0  0  0
   20.4542   -1.1923   20.7497 H   0  0  0  0  0  0
   20.1989    0.1309   21.9373 H   0  0  0  0  0  0
   24.4471    2.0900   20.6325 H   0  0  0  0  0  0
   23.6292    1.1126   22.6712 H   0  0  0  0  0  0
   21.8844    0.7080   22.8073 H   0  0  0  0  0  0
   18.7728    1.1237   20.0211 H   0  0  0  0  0  0
   18.7075   -0.5941   19.4998 H   0  0  0  0  0  0
   17.9213   -1.1308   21.2818 H   0  0  0  0  0  0
   18.5316    0.1053   23.0389 H   0  0  0  0  0  0
   15.9853   -1.5528   22.4736 H   0  0  0  0  0  0
   15.7709   -0.7411   26.0364 H   0  0  0  0  0  0
   14.9438   -1.1343   24.4912 H   0  0  0  0  0  0
   16.3683   -3.1847   26.2681 H   0  0  0  0  0  0
   14.6004   -2.8670   26.2888 H   0  0  0  0  0  0
   15.1557   -4.7630   24.8734 H   0  0  0  0  0  0
   16.2450   -3.7168   23.9009 H   0  0  0  0  0  0
   14.4771   -3.3991   23.9215 H   0  0  0  0  0  0
   24.0493    2.8752   18.4418 H   0  0  0  0  0  0
  1  2  2  0  0  0
  1  9  1  0  0  0
  1 47  1  0  0  0
  2  3  1  0  0  0
  2  4  1  0  0  0
  3 27  1  0  0  0
  3 28  1  0  0  0
  3 29  1  0  0  0
  4  5  1  0  0  0
  4  6  2  0  0  0
  6  7  1  0  0  0
  6  8  1  0  0  0
  7 16  1  0  0  0
  7 30  1  0  0  0
  7 31  1  0  0  0
  8  9  2  0  0  0
  8 10  1  0  0  0
  9 32  1  0  0  0
 10 11  1  0  0  0
 10 33  1  0  0  0
 10 34  1  0  0  0
 11 12  1  0  0  0
 12 13  1  0  0  0
 12 14  2  0  0  0
 12 15  1  0  0  0
 16 17  1  0  0  0
 16 35  1  0  0  0
 16 36  1  0  0  0
 17 18  1  0  0  0
 17 21  1  0  0  0
 17 37  1  0  0  0
 18 19  2  0  0  0
 18 20  1  0  0  0
 21 22  2  0  0  0
 21 38  1  0  0  0
 22 23  1  0  0  0
 22 39  1  0  0  0
 23 24  1  0  0  0
 24 25  1  0  0  0
 24 40  1  0  0  0
 24 41  1  0  0  0
 25 26  1  0  0  0
 25 42  1  0  0  0
 25 43  1  0  0  0
 26 44  1  0  0  0
 26 45  1  0  0  0
 26 46  1  0  0  0
M  CHG  7   1   1   5  -1  13  -1  15  -1  16   1  20  -1  26   1
M  END
> <s_m_source_file>
../1m7y_ligand.sdf

> <i_m_source_file_index>
1

> <s_epik_input>
W0NIM11jMW5bY0hdYyhbQ0gyXU9QKD1PKShbT0hdKVtPSF0pYyhjMVtPSF0pW0NIMl1bTkgyK11bQ0hdKEMoPU8pW09IXSkvW0NIXT1bQ0hdL09bQ0gyXVtDSDJdW05IMytd

> <s_epik_cmdline>
J2VwaWtfYXBwJywgJy1pbWFlJywgJ2xpZ2FuZF9wcm8ubWFlJywgJy1vbWFlJywgJ2xpZ2FuZF9wcmVwLm1hZScsICctbXMnLCAnMScsICctcGgnLCAnNycsICctcGh0JywgJzAuNScsICctbnQn

> <r_lp_tautomer_probability>
0.56342

> <r_epik_Ionization_Penalty>
  0.3440

> <r_epik_Ionization_Penalty_Charging>
  0.3440

> <r_epik_Ionization_Penalty_Neutral>
  0.0000

> <r_epik_State_Penalty>
  0.4655

> <r_epik_Charging_Adjusted_Penalty>
0.809457787118688

> <i_epik_Tot_Q>
-1

> <i_epik_Tot_abs_Q>
7

$$$$
