1m83_ligand
                    3D
 Schrodinger Suite 2020-3.
 43 45  0  0  1  0            999 V2000
   48.2440   21.5960   35.8000 P   0  0  0  0  0  0
   48.1050   22.1860   37.1570 O   0  5  0  0  0  0
   47.9310   20.1590   35.8950 O   0  0  0  0  0  0
   47.3560   22.2910   34.8250 O   0  5  0  0  0  0
   50.6660   23.0440   35.0130 P   0  0  2  0  0  0
   50.2430   24.3380   35.5960 O   0  5  0  0  0  0
   50.7530   23.2190   33.5540 O   0  0  0  0  0  0
   49.7530   21.7920   35.3010 O   0  0  0  0  0  0
   52.6680   22.2360   37.0620 P   0  0  1  0  0  0
   51.6380   22.7110   38.0080 O   0  5  0  0  0  0
   53.0180   20.8190   37.0900 O   0  0  0  0  0  0
   52.1230   22.6480   35.5880 O   0  0  0  0  0  0
   53.9570   23.0880   37.3040 O   0  0  0  0  0  0
   55.3050   22.7300   36.8240 C   0  0  0  0  0  0
   56.1220   23.9460   36.7050 C   0  0  1  0  0  0
   55.7620   24.7550   35.5660 O   0  0  0  0  0  0
   56.1940   24.9460   37.8820 C   0  0  1  0  0  0
   57.5380   25.3860   38.0820 O   0  0  0  0  0  0
   55.2690   26.0210   37.3250 C   0  0  1  0  0  0
   55.2190   27.2780   37.9580 O   0  0  0  0  0  0
   55.7050   26.1090   35.8530 C   0  0  2  0  0  0
   54.6120   26.6660   34.9420 N   0  0  0  0  0  0
   53.3090   26.1950   34.8310 C   0  0  0  0  0  0
   52.5690   26.8990   33.9250 N   0  0  0  0  0  0
   53.4490   27.8390   33.4470 C   0  0  0  0  0  0
   53.2620   28.8830   32.4530 C   0  0  0  0  0  0
   52.1300   29.1040   31.7920 N   0  0  0  0  0  0
   54.3760   29.6860   32.1980 N   0  0  0  0  0  0
   55.6240   29.5280   32.8410 C   0  0  0  0  0  0
   55.7850   28.5310   33.7920 N   0  0  0  0  0  0
   54.7160   27.7080   34.0740 C   0  0  0  0  0  0
   55.7772   22.0396   37.5384 H   0  0  0  0  0  0
   55.2268   22.2432   35.8407 H   0  0  0  0  0  0
   57.0837   23.4299   36.5684 H   0  0  0  0  0  0
   55.9634   24.6037   38.9016 H   0  0  0  0  0  0
   58.2909   24.6902   38.4808 H   0  0  0  0  0  0
   54.2148   25.8039   37.5518 H   0  0  0  0  0  0
   54.9205   27.3504   39.0143 H   0  0  0  0  0  0
   56.6360   26.6687   35.6797 H   0  0  0  0  0  0
   52.9199   25.3543   35.4053 H   0  0  0  0  0  0
   51.2479   28.4763   31.9867 H   0  0  0  0  0  0
   52.0754   29.9146   31.0504 H   0  0  0  0  0  0
   56.4562   30.1862   32.5911 H   0  0  0  0  0  0
  1  2  1  0  0  0
  1  3  2  0  0  0
  1  4  1  0  0  0
  1  8  1  0  0  0
  5  6  1  0  0  0
  5  7  2  0  0  0
  5  8  1  0  0  0
  5 12  1  0  0  0
  9 10  1  0  0  0
  9 11  2  0  0  0
  9 12  1  0  0  0
  9 13  1  0  0  0
 13 14  1  0  0  0
 14 15  1  0  0  0
 14 32  1  0  0  0
 14 33  1  0  0  0
 15 16  1  0  0  0
 15 17  1  0  0  0
 15 34  1  0  0  0
 16 21  1  0  0  0
 17 18  1  0  0  0
 17 19  1  0  0  0
 17 35  1  0  0  0
 18 36  1  0  0  0
 19 20  1  0  0  0
 19 21  1  0  0  0
 19 37  1  0  0  0
 20 38  1  0  0  0
 21 22  1  0  0  0
 21 39  1  0  0  0
 22 23  1  0  0  0
 22 31  1  0  0  0
 23 24  2  0  0  0
 23 40  1  0  0  0
 24 25  1  0  0  0
 25 26  2  0  0  0
 25 31  1  0  0  0
 26 27  1  0  0  0
 26 28  1  0  0  0
 27 41  1  0  0  0
 27 42  1  0  0  0
 28 29  2  0  0  0
 29 30  1  0  0  0
 29 43  1  0  0  0
 30 31  2  0  0  0
M  CHG  4   2  -1   4  -1   6  -1  10  -1
M  END
> <s_m_source_file>
../1m83_ligand.sdf

> <i_m_source_file_index>
1

> <s_epik_input>
W09IXVAoPU8pKFtPSF0pT1tQQEBdKD1PKShbT0hdKU9bUEBdKD1PKShbT0hdKU9bQ0gyXVtDQEhdMU9bQ0BIXShbQ0BIXShbT0hdKVtDQEBIXTFbT0hdKW4oW2NIXW4yKWMoYzIzKW5bY0hdbmMzW05IMl0=

> <s_epik_cmdline>
J2VwaWtfYXBwJywgJy1pbWFlJywgJ2xpZ2FuZF9wcm8ubWFlJywgJy1vbWFlJywgJ2xpZ2FuZF9wcmVwLm1hZScsICctbXMnLCAnMScsICctcGgnLCAnNycsICctcGh0JywgJzAuNScsICctbnQn

> <r_lp_tautomer_probability>
0.999997216410988

> <r_epik_Ionization_Penalty>
  0.0818

> <r_epik_Ionization_Penalty_Charging>
  0.0813

> <r_epik_Ionization_Penalty_Neutral>
  0.0004

> <r_epik_State_Penalty>
  0.0708

> <r_epik_Charging_Adjusted_Penalty>
0.152157994418768

> <i_epik_Tot_Q>
-4

> <i_epik_Tot_abs_Q>
4

> <s_epik_Chemistry_Notes>
This compound contains an acetal/aminal-like group ( X-CH(R)-Y where X, Y are N, S, or O) that may be acid/base labile, releasing an aldehyde.

$$$$
