1mai_ligand
                    3D
 Schrodinger Suite 2020-3.
 33 33  0  0  1  0            999 V2000
   33.7280   18.0400    3.9670 C   0  0  2  0  0  0
   34.2380   18.5040    5.3380 C   0  0  1  0  0  0
   33.2000   18.2340    6.4080 C   0  0  1  0  0  0
   32.8800   16.7410    6.4420 C   0  0  2  0  0  0
   32.3710   16.2780    5.0670 C   0  0  1  0  0  0
   33.4170   16.5470    3.9940 C   0  0  1  0  0  0
   34.6770   18.2020    2.8400 O   0  0  0  0  0  0
   35.4470   17.8420    5.6740 O   0  0  0  0  0  0
   33.7120   18.6410    7.6590 O   0  0  0  0  0  0
   31.9210   16.4820    7.5520 O   0  0  0  0  0  0
   32.1700   14.8320    5.0980 O   0  0  0  0  0  0
   32.9650   16.1200    2.7150 O   0  0  0  0  0  0
   35.0110   19.6120    2.1900 P   0  0  0  0  0  0
   36.2810   19.4270    1.4430 O   0  5  0  0  0  0
   35.1080   20.5220    3.3630 O   0  5  0  0  0  0
   33.7950   19.8250    1.4150 O   0  0  0  0  0  0
   32.2600   15.7940    8.9670 P   0  0  0  0  0  0
   33.2000   14.7450    8.4870 O   0  5  0  0  0  0
   32.9150   16.8820    9.7050 O   0  0  0  0  0  0
   31.0040   15.3330    9.6140 O   0  5  0  0  0  0
   30.9400   14.0400    4.4450 P   0  0  0  0  0  0
   31.2210   12.6660    4.9280 O   0  5  0  0  0  0
   29.7500   14.7350    5.0200 O   0  5  0  0  0  0
   31.1870   14.2760    3.0180 O   0  0  0  0  0  0
   32.8654   18.6915    3.7634 H   0  0  0  0  0  0
   34.4975   19.5726    5.3112 H   0  0  0  0  0  0
   32.2929   18.8358    6.2494 H   0  0  0  0  0  0
   33.7725   16.1416    6.6745 H   0  0  0  0  0  0
   31.4202   16.7794    4.8332 H   0  0  0  0  0  0
   34.3183   15.9418    4.1709 H   0  0  0  0  0  0
   36.3209   17.9227    5.0108 H   0  0  0  0  0  0
   33.9994   19.6904    7.8206 H   0  0  0  0  0  0
   33.6102   16.2467    1.8331 H   0  0  0  0  0  0
  1  7  1  0  0  0
  1  6  1  0  0  0
  1  2  1  0  0  0
  1 25  1  0  0  0
  2  8  1  0  0  0
  2  3  1  0  0  0
  2 26  1  0  0  0
  3  9  1  0  0  0
  3  4  1  0  0  0
  3 27  1  0  0  0
  4 10  1  0  0  0
  4  5  1  0  0  0
  4 28  1  0  0  0
  5 11  1  0  0  0
  5  6  1  0  0  0
  5 29  1  0  0  0
  6 12  1  0  0  0
  6 30  1  0  0  0
  7 13  1  0  0  0
  8 31  1  0  0  0
  9 32  1  0  0  0
 10 17  1  0  0  0
 11 21  1  0  0  0
 12 33  1  0  0  0
 13 16  2  0  0  0
 13 15  1  0  0  0
 13 14  1  0  0  0
 17 20  1  0  0  0
 17 19  2  0  0  0
 17 18  1  0  0  0
 21 24  2  0  0  0
 21 23  1  0  0  0
 21 22  1  0  0  0
M  CHG  6  14  -1  15  -1  18  -1  20  -1  22  -1  23  -1
M  END
> <s_m_source_file>
../1mai_ligand.sdf

> <i_m_source_file_index>
1

> <s_epik_input>
W09IXVAoPU8pKFtPSF0pT1tDQEBIXTFbQ0BIXShbT0hdKVtDQEhdKFtPSF0pW0NAQEhdKE9QKD1PKShbT0hdKVtPSF0pW0NAQEhdKFtDQEhdMVtPSF0pT1AoPU8pKFtPSF0pW09IXQ==

> <s_epik_cmdline>
J2VwaWtfYXBwJywgJy1pbWFlJywgJ2xpZ2FuZF9wcm8ubWFlJywgJy1vbWFlJywgJ2xpZ2FuZF9wcmVwLm1hZScsICctbXMnLCAnMScsICctcGgnLCAnNycsICctcGh0JywgJzAuNScsICctbnQn

> <r_epik_Ionization_Penalty>
  0.3504

> <r_epik_Ionization_Penalty_Charging>
  0.3504

> <r_epik_Ionization_Penalty_Neutral>
  0.0000

> <r_epik_State_Penalty>
  0.1957

> <r_epik_Charging_Adjusted_Penalty>
0.546048514123987

> <i_epik_Tot_Q>
-6

> <i_epik_Tot_abs_Q>
6

$$$$
