1maw_ligand
                    3D
 Schrodinger Suite 2020-3.
 43 45  0  0  1  0            999 V2000
   33.0600   -6.4860   51.7170 P   0  0  0  0  0  0
   33.5700   -6.2970   50.3050 O   0  5  0  0  0  0
   31.5580   -6.5400   51.8110 O   0  5  0  0  0  0
   33.6930   -7.6950   52.3250 O   0  0  0  0  0  0
   34.5260   -5.0680   53.9480 P   0  0  1  0  0  0
   34.5290   -3.8140   54.6480 O   0  0  0  0  0  0
   35.2590   -6.2320   54.4430 O   0  5  0  0  0  0
   33.5230   -5.2290   52.6880 O   0  0  0  0  0  0
   35.8300   -3.5530   51.7140 P   0  0  1  0  0  0
   35.9180   -4.1990   50.4090 O   0  0  0  0  0  0
   35.6370   -2.1020   51.9010 O   0  5  0  0  0  0
   35.8010   -4.5060   52.9600 O   0  0  0  0  0  0
   37.2890   -3.6120   51.5040 O   0  0  0  0  0  0
   38.5200   -3.4550   51.7370 C   0  0  0  0  0  0
   39.6130   -2.5430   52.0910 C   0  0  1  0  0  0
   39.1900   -2.1990   53.4570 O   0  0  0  0  0  0
   40.6670   -3.6020   52.0640 C   0  0  1  0  0  0
   41.5870   -3.5460   50.9440 O   0  0  0  0  0  0
   41.2850   -3.4640   53.4990 C   0  0  1  0  0  0
   42.5030   -2.7400   53.4480 O   0  0  0  0  0  0
   40.1890   -2.7390   54.3820 C   0  0  2  0  0  0
   39.4560   -3.6560   55.3400 N   0  0  0  0  0  0
   38.0970   -4.0010   55.3870 C   0  0  0  0  0  0
   37.7910   -4.8040   56.3610 N   0  0  0  0  0  0
   39.0200   -5.0050   56.9990 C   0  0  0  0  0  0
   39.4090   -5.7640   58.1550 C   0  0  0  0  0  0
   38.5370   -6.4930   58.8490 N   0  0  0  0  0  0
   40.7590   -5.7470   58.5540 N   0  0  0  0  0  0
   41.6550   -5.0280   57.8450 C   0  0  0  0  0  0
   41.4150   -4.2890   56.7490 N   0  0  0  0  0  0
   40.0250   -4.3090   56.3810 C   0  0  0  0  0  0
   38.8139   -4.0808   52.5926 H   0  0  0  0  0  0
   39.1014   -3.7491   50.8507 H   0  0  0  0  0  0
   39.8727   -1.6286   51.5374 H   0  0  0  0  0  0
   40.2829   -4.5964   51.7926 H   0  0  0  0  0  0
   41.2077   -3.6375   49.9155 H   0  0  0  0  0  0
   41.6426   -4.4091   53.9337 H   0  0  0  0  0  0
   43.3516   -3.1314   52.8677 H   0  0  0  0  0  0
   40.6462   -1.9468   54.9930 H   0  0  0  0  0  0
   37.3642   -3.6289   54.6710 H   0  0  0  0  0  0
   37.4787   -6.5166   58.5499 H   0  0  0  0  0  0
   38.8750   -7.0715   59.7214 H   0  0  0  0  0  0
   42.6852   -5.0494   58.2004 H   0  0  0  0  0  0
  1  2  1  0  0  0
  1  3  1  0  0  0
  1  4  2  0  0  0
  1  8  1  0  0  0
  5  6  2  0  0  0
  5  7  1  0  0  0
  5  8  1  0  0  0
  5 12  1  0  0  0
  9 10  2  0  0  0
  9 11  1  0  0  0
  9 12  1  0  0  0
  9 13  1  0  0  0
 13 14  1  0  0  0
 14 15  1  0  0  0
 14 32  1  0  0  0
 14 33  1  0  0  0
 15 16  1  0  0  0
 15 17  1  0  0  0
 15 34  1  0  0  0
 16 21  1  0  0  0
 17 18  1  0  0  0
 17 19  1  0  0  0
 17 35  1  0  0  0
 18 36  1  0  0  0
 19 20  1  0  0  0
 19 21  1  0  0  0
 19 37  1  0  0  0
 20 38  1  0  0  0
 21 22  1  0  0  0
 21 39  1  0  0  0
 22 23  1  0  0  0
 22 31  1  0  0  0
 23 24  2  0  0  0
 23 40  1  0  0  0
 24 25  1  0  0  0
 25 26  2  0  0  0
 25 31  1  0  0  0
 26 27  1  0  0  0
 26 28  1  0  0  0
 27 41  1  0  0  0
 27 42  1  0  0  0
 28 29  2  0  0  0
 29 30  1  0  0  0
 29 43  1  0  0  0
 30 31  2  0  0  0
M  CHG  4   2  -1   3  -1   7  -1  11  -1
M  END
> <s_m_source_file>
../1maw_ligand.sdf

> <i_m_source_file_index>
1

> <s_epik_input>
W09IXVAoPU8pKFtPSF0pT1tQQEBdKD1PKShbT0hdKU9bUEBAXSg9TykoW09IXSlPW0NIMl1bQ0BIXTFPW0NASF0oW0NASF0oW09IXSlbQ0BASF0xW09IXSluKFtjSF1uMiljKGMyMyluW2NIXW5jM1tOSDJd

> <s_epik_cmdline>
J2VwaWtfYXBwJywgJy1pbWFlJywgJ2xpZ2FuZF9wcm8ubWFlJywgJy1vbWFlJywgJ2xpZ2FuZF9wcmVwLm1hZScsICctbXMnLCAnMScsICctcGgnLCAnNycsICctcGh0JywgJzAuNScsICctbnQn

> <r_lp_tautomer_probability>
0.999997216410988

> <r_epik_Ionization_Penalty>
  0.0818

> <r_epik_Ionization_Penalty_Charging>
  0.0813

> <r_epik_Ionization_Penalty_Neutral>
  0.0004

> <r_epik_State_Penalty>
  0.0708

> <r_epik_Charging_Adjusted_Penalty>
0.152157994418768

> <i_epik_Tot_Q>
-4

> <i_epik_Tot_abs_Q>
4

> <s_epik_Chemistry_Notes>
This compound contains an acetal/aminal-like group ( X-CH(R)-Y where X, Y are N, S, or O) that may be acid/base labile, releasing an aldehyde.

$$$$
