1me7_ligand
                    3D
 Schrodinger Suite 2020-3.
 32 33  0  0  1  0            999 V2000
   67.9570   55.3270   15.0290 P   0  0  0  0  0  0
   67.6050   55.2900   13.5810 O   0  0  0  0  0  0
   68.7780   54.1180   15.3490 O   0  5  0  0  0  0
   68.7380   56.6180   15.4120 O   0  5  0  0  0  0
   66.7120   55.3560   16.0190 O   0  0  0  0  0  0
   65.7430   54.3150   15.9530 C   0  0  0  0  0  0
   64.6780   54.5090   16.9890 C   0  0  1  0  0  0
   63.9380   55.7210   16.5760 O   0  0  0  0  0  0
   63.5770   53.4750   17.1690 C   0  0  1  0  0  0
   63.9780   52.3190   17.8810 O   0  0  0  0  0  0
   62.5040   54.2690   17.8410 C   0  0  1  0  0  0
   62.6530   54.3520   19.2400 O   0  0  0  0  0  0
   62.6060   55.6090   17.1060 C   0  0  2  0  0  0
   61.6370   55.7460   15.9500 N   0  0  0  0  0  0
   61.0760   54.8330   15.0700 C   0  0  0  0  0  0
   60.2850   55.3830   14.2140 N   0  0  0  0  0  0
   60.2850   56.7130   14.4930 C   0  0  0  0  0  0
   59.5860   57.8200   13.8580 C   0  0  0  0  0  0
   58.8240   57.7520   12.8980 O   0  0  0  0  0  0
   59.8480   59.1090   14.4510 N   0  0  0  0  0  0
   61.1190   56.9760   15.5750 N   0  0  0  0  0  0
   65.2728   54.3143   14.9586 H   0  0  0  0  0  0
   66.2334   53.3459   16.1274 H   0  0  0  0  0  0
   65.2518   54.5208   17.9274 H   0  0  0  0  0  0
   63.2502   52.9631   16.2518 H   0  0  0  0  0  0
   64.7624   51.6654   17.4717 H   0  0  0  0  0  0
   61.5104   53.7970   17.8470 H   0  0  0  0  0  0
   62.5950   53.4413   19.8543 H   0  0  0  0  0  0
   62.4108   56.4250   17.8173 H   0  0  0  0  0  0
   61.2822   53.7631   15.0991 H   0  0  0  0  0  0
   60.5279   59.1904   15.3119 H   0  0  0  0  0  0
   59.3678   60.0103   14.0422 H   0  0  0  0  0  0
  1  2  2  0  0  0
  1  3  1  0  0  0
  1  4  1  0  0  0
  1  5  1  0  0  0
  5  6  1  0  0  0
  6  7  1  0  0  0
  6 22  1  0  0  0
  6 23  1  0  0  0
  7  8  1  0  0  0
  7  9  1  0  0  0
  7 24  1  0  0  0
  8 13  1  0  0  0
  9 10  1  0  0  0
  9 11  1  0  0  0
  9 25  1  0  0  0
 10 26  1  0  0  0
 11 12  1  0  0  0
 11 13  1  0  0  0
 11 27  1  0  0  0
 12 28  1  0  0  0
 13 14  1  0  0  0
 13 29  1  0  0  0
 14 15  1  0  0  0
 14 21  1  0  0  0
 15 16  2  0  0  0
 15 30  1  0  0  0
 16 17  1  0  0  0
 17 18  1  0  0  0
 17 21  2  0  0  0
 18 19  2  0  0  0
 18 20  1  0  0  0
 20 31  1  0  0  0
 20 32  1  0  0  0
M  CHG  2   3  -1   4  -1
M  END
> <s_m_source_file>
../1me7_ligand.sdf

> <i_m_source_file_index>
1

> <s_epik_input>
Tz1QKFtPSF0pKFtPSF0pT1tDSDJdW0NASF0xT1tDQEhdKFtDQEhdKFtPSF0pW0NAQEhdMVtPSF0pbjJbY0hdbmMobjIpQyg9TylbTkgyXQ==

> <s_epik_cmdline>
J2VwaWtfYXBwJywgJy1pbWFlJywgJ2xpZ2FuZF9wcm8ubWFlJywgJy1vbWFlJywgJ2xpZ2FuZF9wcmVwLm1hZScsICctbXMnLCAnMScsICctcGgnLCAnNycsICctcGh0JywgJzAuNScsICctbnQn

> <r_lp_tautomer_probability>
1

> <r_epik_Ionization_Penalty>
  0.1020

> <r_epik_Ionization_Penalty_Charging>
  0.1020

> <r_epik_Ionization_Penalty_Neutral>
  0.0000

> <r_epik_State_Penalty>
  0.0920

> <r_epik_Charging_Adjusted_Penalty>
0.194024004396068

> <i_epik_Tot_Q>
-2

> <i_epik_Tot_abs_Q>
2

> <s_epik_Chemistry_Notes>
This compound contains an acetal/aminal-like group ( X-CH(R)-Y where X, Y are N, S, or O) that may be acid/base labile, releasing an aldehyde.

$$$$
