1me8_ligand
                    3D
 Schrodinger Suite 2020-3.
 32 33  0  0  1  0            999 V2000
   67.8060   55.1920   15.0100 P   0  0  0  0  0  0
   67.4470   55.1060   13.5660 O   0  0  0  0  0  0
   68.6180   53.9930   15.3860 O   0  5  0  0  0  0
   68.5890   56.4890   15.3350 O   0  5  0  0  0  0
   66.5640   55.2600   15.9980 O   0  0  0  0  0  0
   65.6010   54.2070   15.9620 C   0  0  0  0  0  0
   64.5210   54.4180   16.9850 C   0  0  1  0  0  0
   63.7660   55.6050   16.5400 O   0  0  0  0  0  0
   63.4370   53.3700   17.1790 C   0  0  1  0  0  0
   63.8630   52.2290   17.9140 O   0  0  0  0  0  0
   62.3430   54.1620   17.8320 C   0  0  1  0  0  0
   62.4820   54.2780   19.2360 O   0  0  0  0  0  0
   62.4340   55.4860   17.0670 C   0  0  2  0  0  0
   61.4750   55.6020   15.9030 N   0  0  0  0  0  0
   60.9890   54.6940   14.9780 C   0  0  0  0  0  0
   60.1710   55.2310   14.1290 N   0  0  0  0  0  0
   60.0840   56.5440   14.4680 C   0  0  0  0  0  0
   59.3290   57.6340   13.8770 C   0  0  0  0  0  0
   58.5920   57.5670   12.9060 O   0  0  0  0  0  0
   59.5010   58.9020   14.5320 N   0  0  0  0  0  0
   60.8830   56.8100   15.5740 N   0  0  0  0  0  0
   65.1361   54.1692   14.9658 H   0  0  0  0  0  0
   66.0980   53.2483   16.1713 H   0  0  0  0  0  0
   65.0833   54.4713   17.9289 H   0  0  0  0  0  0
   63.1203   52.8378   16.2699 H   0  0  0  0  0  0
   64.6612   51.5850   17.5162 H   0  0  0  0  0  0
   61.3550   53.6785   17.8424 H   0  0  0  0  0  0
   62.4306   53.3804   19.8698 H   0  0  0  0  0  0
   62.2211   56.3082   17.7661 H   0  0  0  0  0  0
   61.2651   53.6396   14.9653 H   0  0  0  0  0  0
   60.1607   58.9833   15.4085 H   0  0  0  0  0  0
   58.9729   59.7910   14.1568 H   0  0  0  0  0  0
  1  2  2  0  0  0
  1  3  1  0  0  0
  1  4  1  0  0  0
  1  5  1  0  0  0
  5  6  1  0  0  0
  6  7  1  0  0  0
  6 22  1  0  0  0
  6 23  1  0  0  0
  7  8  1  0  0  0
  7  9  1  0  0  0
  7 24  1  0  0  0
  8 13  1  0  0  0
  9 10  1  0  0  0
  9 11  1  0  0  0
  9 25  1  0  0  0
 10 26  1  0  0  0
 11 12  1  0  0  0
 11 13  1  0  0  0
 11 27  1  0  0  0
 12 28  1  0  0  0
 13 14  1  0  0  0
 13 29  1  0  0  0
 14 15  1  0  0  0
 14 21  1  0  0  0
 15 16  2  0  0  0
 15 30  1  0  0  0
 16 17  1  0  0  0
 17 18  1  0  0  0
 17 21  2  0  0  0
 18 19  2  0  0  0
 18 20  1  0  0  0
 20 31  1  0  0  0
 20 32  1  0  0  0
M  CHG  2   3  -1   4  -1
M  END
> <s_m_source_file>
../1me8_ligand.sdf

> <i_m_source_file_index>
1

> <s_epik_input>
Tz1QKFtPSF0pKFtPSF0pT1tDSDJdW0NASF0xT1tDQEhdKFtDQEhdKFtPSF0pW0NAQEhdMVtPSF0pbjJbY0hdbmMobjIpQyg9TylbTkgyXQ==

> <s_epik_cmdline>
J2VwaWtfYXBwJywgJy1pbWFlJywgJ2xpZ2FuZF9wcm8ubWFlJywgJy1vbWFlJywgJ2xpZ2FuZF9wcmVwLm1hZScsICctbXMnLCAnMScsICctcGgnLCAnNycsICctcGh0JywgJzAuNScsICctbnQn

> <r_lp_tautomer_probability>
1

> <r_epik_Ionization_Penalty>
  0.1020

> <r_epik_Ionization_Penalty_Charging>
  0.1020

> <r_epik_Ionization_Penalty_Neutral>
  0.0000

> <r_epik_State_Penalty>
  0.0920

> <r_epik_Charging_Adjusted_Penalty>
0.194024004396068

> <i_epik_Tot_Q>
-2

> <i_epik_Tot_abs_Q>
2

> <s_epik_Chemistry_Notes>
This compound contains an acetal/aminal-like group ( X-CH(R)-Y where X, Y are N, S, or O) that may be acid/base labile, releasing an aldehyde.

$$$$
