1mem_ligand
                    3D
 Schrodinger Suite 2020-3.
 78 80  0  0  1  0            999 V2000
   23.6840    1.6270    5.3330 N   0  0  0  0  0  0
   22.4670    2.1540    5.1760 C   0  0  0  0  0  0
   22.3150    3.0940    4.3950 O   0  0  0  0  0  0
   24.8890    2.1860    4.6360 C   0  0  0  0  0  0
   26.1040    2.1900    5.4880 C   0  0  0  0  0  0
   26.3450    0.8490    6.0180 N   0  3  0  0  0  0
   25.2370    0.3570    6.8330 C   0  0  0  0  0  0
   23.9420    0.3540    6.0600 C   0  0  0  0  0  0
   21.4080    1.5970    5.7630 N   0  0  0  0  0  0
   20.0850    2.1820    5.5900 C   0  0  2  0  0  0
   20.1040    3.5740    6.1630 C   0  0  0  0  0  0
   20.6030    3.7770    7.2670 O   0  0  0  0  0  0
   19.0200    1.3660    6.3080 C   0  0  0  0  0  0
   18.3400    0.1740    5.6370 C   0  0  0  0  0  0
   18.8800   -0.1710    4.2600 C   0  0  0  0  0  0
   18.4170   -0.9850    6.5850 C   0  0  0  0  0  0
   17.4370    6.5670    4.6120 C   0  0  0  0  0  0
   18.1650    6.4090    5.9740 C   0  0  0  0  0  0
   19.6200    5.9220    5.8090 C   0  0  1  0  0  0
   19.6760    4.5440    5.3680 N   0  0  0  0  0  0
   20.4600    6.8050    4.8830 C   0  0  0  0  0  0
   21.9480    6.4830    4.9610 C   0  0  0  0  0  0
   22.7650    7.2850    3.9790 C   0  0  0  0  0  0
   23.2480    6.6840    2.8010 C   0  0  0  0  0  0
   23.9220    7.4640    1.8470 C   0  0  0  0  0  0
   24.1170    8.8370    2.0710 C   0  0  0  0  0  0
   23.6500    9.4360    3.2370 C   0  0  0  0  0  0
   22.9810    8.6660    4.1890 C   0  0  0  0  0  0
   15.8660    8.7930   -0.0300 C   0  0  0  0  0  0
   16.2720    9.9140    0.6950 C   0  0  0  0  0  0
   16.7900    9.7750    1.9940 C   0  0  0  0  0  0
   16.9310    8.5020    2.5930 C   0  0  0  0  0  0
   17.0930    8.3390    4.3490 S   0  0  0  0  0  0
   15.8070    8.9740    4.9660 O   0  0  0  0  0  0
   18.3230    9.2170    4.6770 O   0  0  0  0  0  0
   16.5100    7.3790    1.8190 C   0  0  0  0  0  0
   15.9830    7.5300    0.5270 C   0  0  0  0  0  0
   25.1096    1.5818    3.7437 H   0  0  0  0  0  0
   24.6894    3.2251    4.3351 H   0  0  0  0  0  0
   26.9711    2.5043    4.8886 H   0  0  0  0  0  0
   25.9631    2.8906    6.3243 H   0  0  0  0  0  0
   26.4882    0.1456    5.1845 H   0  0  0  0  0  0
   27.2470    0.8601    6.6475 H   0  0  0  0  0  0
   25.4504   -0.6716    7.1593 H   0  0  0  0  0  0
   25.1150    1.0034    7.7146 H   0  0  0  0  0  0
   23.1293    0.1708    6.7782 H   0  0  0  0  0  0
   23.9892   -0.4763    5.3401 H   0  0  0  0  0  0
   21.5340    0.6943    6.3788 H   0  0  0  0  0  0
   19.8805    2.1886    4.5092 H   0  0  0  0  0  0
   19.4477    0.9284    7.2221 H   0  0  0  0  0  0
   18.1756    2.0187    6.5744 H   0  0  0  0  0  0
   17.2877    0.4271    5.4407 H   0  0  0  0  0  0
   18.8016    0.7088    3.6044 H   0  0  0  0  0  0
   18.2950   -0.9993    3.8337 H   0  0  0  0  0  0
   19.9345   -0.4724    4.3446 H   0  0  0  0  0  0
   18.0155   -0.6851    7.5642 H   0  0  0  0  0  0
   19.4658   -1.2967    6.6986 H   0  0  0  0  0  0
   17.8263   -1.8235    6.1877 H   0  0  0  0  0  0
   18.0800    6.1838    3.8060 H   0  0  0  0  0  0
   16.4954    5.9987    4.6314 H   0  0  0  0  0  0
   18.1878    7.3790    6.4923 H   0  0  0  0  0  0
   17.6289    5.6749    6.5934 H   0  0  0  0  0  0
   20.0838    5.9286    6.8064 H   0  0  0  0  0  0
   19.3582    4.2794    4.3487 H   0  0  0  0  0  0
   20.1357    6.6576    3.8423 H   0  0  0  0  0  0
   20.3268    7.8605    5.1626 H   0  0  0  0  0  0
   22.3190    6.7065    5.9721 H   0  0  0  0  0  0
   22.1045    5.4168    4.7404 H   0  0  0  0  0  0
   23.0995    5.6178    2.6300 H   0  0  0  0  0  0
   24.2941    7.0035    0.9319 H   0  0  0  0  0  0
   24.6382    9.4378    1.3257 H   0  0  0  0  0  0
   23.8061   10.5015    3.4058 H   0  0  0  0  0  0
   22.6209    9.1346    5.1049 H   0  0  0  0  0  0
   15.4572    8.9110   -1.0335 H   0  0  0  0  0  0
   16.1867   10.9055    0.2502 H   0  0  0  0  0  0
   17.0883   10.6641    2.5495 H   0  0  0  0  0  0
   16.6001    6.3786    2.2422 H   0  0  0  0  0  0
   15.6658    6.6536   -0.0381 H   0  0  0  0  0  0
  1  2  1  0  0  0
  1  4  1  0  0  0
  1  8  1  0  0  0
  2  3  2  0  0  0
  2  9  1  0  0  0
  4  5  1  0  0  0
  4 38  1  0  0  0
  4 39  1  0  0  0
  5  6  1  0  0  0
  5 40  1  0  0  0
  5 41  1  0  0  0
  6  7  1  0  0  0
  6 42  1  0  0  0
  6 43  1  0  0  0
  7  8  1  0  0  0
  7 44  1  0  0  0
  7 45  1  0  0  0
  8 46  1  0  0  0
  8 47  1  0  0  0
  9 10  1  0  0  0
  9 48  1  0  0  0
 10 11  1  0  0  0
 10 13  1  0  0  0
 10 49  1  0  0  0
 11 12  2  0  0  0
 11 20  1  0  0  0
 13 14  1  0  0  0
 13 50  1  0  0  0
 13 51  1  0  0  0
 14 15  1  0  0  0
 14 16  1  0  0  0
 14 52  1  0  0  0
 15 53  1  0  0  0
 15 54  1  0  0  0
 15 55  1  0  0  0
 16 56  1  0  0  0
 16 57  1  0  0  0
 16 58  1  0  0  0
 17 18  1  0  0  0
 17 33  1  0  0  0
 17 59  1  0  0  0
 17 60  1  0  0  0
 18 19  1  0  0  0
 18 61  1  0  0  0
 18 62  1  0  0  0
 19 20  1  0  0  0
 19 21  1  0  0  0
 19 63  1  0  0  0
 20 64  1  0  0  0
 21 22  1  0  0  0
 21 65  1  0  0  0
 21 66  1  0  0  0
 22 23  1  0  0  0
 22 67  1  0  0  0
 22 68  1  0  0  0
 23 24  2  0  0  0
 23 28  1  0  0  0
 24 25  1  0  0  0
 24 69  1  0  0  0
 25 26  2  0  0  0
 25 70  1  0  0  0
 26 27  1  0  0  0
 26 71  1  0  0  0
 27 28  2  0  0  0
 27 72  1  0  0  0
 28 73  1  0  0  0
 29 30  2  0  0  0
 29 37  1  0  0  0
 29 74  1  0  0  0
 30 31  1  0  0  0
 30 75  1  0  0  0
 31 32  2  0  0  0
 31 76  1  0  0  0
 32 33  1  0  0  0
 32 36  1  0  0  0
 33 34  2  0  0  0
 33 35  2  0  0  0
 36 37  2  0  0  0
 36 77  1  0  0  0
 37 78  1  0  0  0
M  CHG  1   6   1
M  END
> <s_m_source_file>
../1mem_ligand.sdf

> <i_m_source_file_index>
1

> <s_epik_input>
W0NIMl0xW0NIMl1bTkgyK11bQ0gyXVtDSDJdTjFDKD1PKVtOSF1bQ0BASF0oW0NIMl1bQ0hdKFtDSDNdKVtDSDNdKUMoPU8pW05IXVtDQEBIXShbQ0gyXVtDSDJdYzJbY0hdW2NIXVtjSF1bY0hdW2NIXTIpW0NIMl1bQ0gyXVMoPU8pKD1PKWMzW2NIXVtjSF1bY0hdW2NIXVtjSF0z

> <s_epik_cmdline>
J2VwaWtfYXBwJywgJy1pbWFlJywgJ2xpZ2FuZF9wcm8ubWFlJywgJy1vbWFlJywgJ2xpZ2FuZF9wcmVwLm1hZScsICctbXMnLCAnMScsICctcGgnLCAnNycsICctcGh0JywgJzAuNScsICctbnQn

> <r_epik_Ionization_Penalty>
  0.0259

> <r_epik_Ionization_Penalty_Charging>
  0.0258

> <r_epik_Ionization_Penalty_Neutral>
  0.0000

> <r_epik_State_Penalty>
  0.0210

> <r_epik_Charging_Adjusted_Penalty>
0.0468777765884146

> <i_epik_Tot_Q>
1

> <i_epik_Tot_abs_Q>
1

$$$$
