1mes_ligand
                    3D
 Schrodinger Suite 2020-3.
 80 84  0  0  1  0            999 V2000
   -8.8690   15.3780   27.9640 C   0  0  0  0  0  0
   -8.8150   17.6720   26.9600 C   0  0  1  0  0  0
  -10.1990   18.2480   27.1790 C   0  0  1  0  0  0
  -10.6690   18.0060   28.5980 C   0  0  2  0  0  0
  -10.9090   16.5410   28.8850 C   0  0  1  0  0  0
   -8.0110   15.6060   25.7700 C   0  0  0  0  0  0
   -8.4740   16.0510   24.4250 C   0  0  0  0  0  0
   -9.8360   16.2820   24.1300 C   0  0  0  0  0  0
  -10.2050   16.6360   22.8130 C   0  0  0  0  0  0
   -9.2050   16.7570   21.8170 C   0  0  0  0  0  0
   -7.8480   16.5230   22.1380 C   0  0  0  0  0  0
   -7.4760   16.1780   23.4460 C   0  0  0  0  0  0
   -9.5860   17.1040   20.3970 C   0  0  0  0  0  0
   -7.7040   18.2790   27.8410 C   0  0  0  0  0  0
   -6.3320   18.1200   27.2130 C   0  0  0  0  0  0
   -5.3460   17.3470   27.8630 C   0  0  0  0  0  0
   -4.0940   17.1680   27.2500 C   0  0  0  0  0  0
   -3.8330   17.7550   25.9940 C   0  0  0  0  0  0
   -4.8120   18.5290   25.3420 C   0  0  0  0  0  0
   -6.0630   18.7170   25.9540 C   0  0  0  0  0  0
  -12.0110   15.8760   28.0250 C   0  0  0  0  0  0
  -12.5700   14.6220   28.6600 C   0  0  0  0  0  0
  -12.2080   13.3540   28.1470 C   0  0  0  0  0  0
  -12.6840   12.1840   28.7780 C   0  0  0  0  0  0
  -13.5110   12.2900   29.9170 C   0  0  0  0  0  0
  -13.8760   13.5600   30.4250 C   0  0  0  0  0  0
  -13.4090   14.7330   29.7980 C   0  0  0  0  0  0
   -9.6290   14.7530   30.1140 C   0  0  0  0  0  0
   -9.7200   15.3630   31.4700 C   0  0  0  0  0  0
  -10.3660   14.5760   32.4350 C   0  0  0  0  0  0
  -10.4170   15.0250   33.7550 C   0  0  0  0  0  0
   -9.8390   16.2670   34.1110 C   0  0  0  0  0  0
   -9.1970   17.0610   33.1310 C   0  0  0  0  0  0
   -9.1430   16.6120   31.7980 C   0  0  0  0  0  0
   -9.8900   16.7290   35.5450 C   0  0  0  0  0  0
   -8.6580   16.2070   26.9250 N   0  0  0  0  0  0
   -9.7360   15.6380   28.9630 N   0  0  0  0  0  0
   -8.2480   14.3240   27.9980 O   0  0  0  0  0  0
  -10.0730   19.6260   26.9030 O   0  0  0  0  0  0
  -11.8890   18.6590   28.8310 O   0  0  0  0  0  0
   -8.7340   18.1270   19.8620 O   0  0  0  0  0  0
  -11.1950   16.5170   36.1030 O   0  0  0  0  0  0
   -8.6998   17.9520   25.9025 H   0  0  0  0  0  0
  -10.9618   17.8372   26.5012 H   0  0  0  0  0  0
   -9.9199   18.4373   29.2783 H   0  0  0  0  0  0
  -11.2150   16.6423   29.9367 H   0  0  0  0  0  0
   -6.9334   15.8250   25.7982 H   0  0  0  0  0  0
   -8.1644   14.5169   25.7892 H   0  0  0  0  0  0
  -10.5928   16.1883   24.9088 H   0  0  0  0  0  0
  -11.2513   16.8147   22.5652 H   0  0  0  0  0  0
   -7.0857   16.6113   21.3639 H   0  0  0  0  0  0
   -6.4287   16.0112   23.6980 H   0  0  0  0  0  0
   -9.4965   16.2087   19.7642 H   0  0  0  0  0  0
  -10.6242   17.4669   20.3741 H   0  0  0  0  0  0
   -7.8947   19.3529   27.9835 H   0  0  0  0  0  0
   -7.6952   17.7753   28.8189 H   0  0  0  0  0  0
   -5.5537   16.8929   28.8319 H   0  0  0  0  0  0
   -3.3246   16.5756   27.7451 H   0  0  0  0  0  0
   -2.8614   17.6075   25.5224 H   0  0  0  0  0  0
   -4.6015   18.9782   24.3715 H   0  0  0  0  0  0
   -6.8258   19.3207   25.4622 H   0  0  0  0  0  0
  -12.8427   16.5821   27.8848 H   0  0  0  0  0  0
  -11.5948   15.6004   27.0448 H   0  0  0  0  0  0
  -11.5653   13.2808   27.2697 H   0  0  0  0  0  0
  -12.4140   11.2030   28.3872 H   0  0  0  0  0  0
  -13.8715   11.3868   30.4093 H   0  0  0  0  0  0
  -14.5191   13.6309   31.3022 H   0  0  0  0  0  0
  -13.6893   15.7134   30.1831 H   0  0  0  0  0  0
  -10.4366   14.0070   30.0792 H   0  0  0  0  0  0
   -8.6557   14.2409   30.0936 H   0  0  0  0  0  0
  -10.8223   13.6259   32.1571 H   0  0  0  0  0  0
  -10.9046   14.4160   34.5162 H   0  0  0  0  0  0
   -8.7470   18.0147   33.4068 H   0  0  0  0  0  0
   -8.6634   17.2182   31.0295 H   0  0  0  0  0  0
   -9.1550   16.1652   36.1382 H   0  0  0  0  0  0
   -9.6541   17.8023   35.5931 H   0  0  0  0  0  0
   -9.7396   19.9597   25.9093 H   0  0  0  0  0  0
  -11.9668   19.7468   28.6875 H   0  0  0  0  0  0
   -8.8869   18.4883   18.8343 H   0  0  0  0  0  0
  -11.4003   16.8016   37.1455 H   0  0  0  0  0  0
  1 38  2  0  0  0
  1 37  1  0  0  0
  1 36  1  0  0  0
  2 36  1  0  0  0
  2 14  1  0  0  0
  2  3  1  0  0  0
  2 43  1  0  0  0
  3 39  1  0  0  0
  3  4  1  0  0  0
  3 44  1  0  0  0
  4 40  1  0  0  0
  4  5  1  0  0  0
  4 45  1  0  0  0
  5 37  1  0  0  0
  5 21  1  0  0  0
  5 46  1  0  0  0
  6 36  1  0  0  0
  6  7  1  0  0  0
  6 47  1  0  0  0
  6 48  1  0  0  0
  7 12  2  0  0  0
  7  8  1  0  0  0
  8  9  2  0  0  0
  8 49  1  0  0  0
  9 10  1  0  0  0
  9 50  1  0  0  0
 10 13  1  0  0  0
 10 11  2  0  0  0
 11 12  1  0  0  0
 11 51  1  0  0  0
 12 52  1  0  0  0
 13 41  1  0  0  0
 13 53  1  0  0  0
 13 54  1  0  0  0
 14 15  1  0  0  0
 14 55  1  0  0  0
 14 56  1  0  0  0
 15 20  2  0  0  0
 15 16  1  0  0  0
 16 17  2  0  0  0
 16 57  1  0  0  0
 17 18  1  0  0  0
 17 58  1  0  0  0
 18 19  2  0  0  0
 18 59  1  0  0  0
 19 20  1  0  0  0
 19 60  1  0  0  0
 20 61  1  0  0  0
 21 22  1  0  0  0
 21 62  1  0  0  0
 21 63  1  0  0  0
 22 27  2  0  0  0
 22 23  1  0  0  0
 23 24  2  0  0  0
 23 64  1  0  0  0
 24 25  1  0  0  0
 24 65  1  0  0  0
 25 26  2  0  0  0
 25 66  1  0  0  0
 26 27  1  0  0  0
 26 67  1  0  0  0
 27 68  1  0  0  0
 28 37  1  0  0  0
 28 29  1  0  0  0
 28 69  1  0  0  0
 28 70  1  0  0  0
 29 34  2  0  0  0
 29 30  1  0  0  0
 30 31  2  0  0  0
 30 71  1  0  0  0
 31 32  1  0  0  0
 31 72  1  0  0  0
 32 35  1  0  0  0
 32 33  2  0  0  0
 33 34  1  0  0  0
 33 73  1  0  0  0
 34 74  1  0  0  0
 35 42  1  0  0  0
 35 75  1  0  0  0
 35 76  1  0  0  0
 39 77  1  0  0  0
 40 78  1  0  0  0
 41 79  1  0  0  0
 42 80  1  0  0  0
M  END
> <s_m_source_file>
../1mes_ligand.sdf

> <i_m_source_file_index>
1

> <s_epik_input>
W2NIXTFbY0hdYyhbQ0gyXVtPSF0pW2NIXVtjSF1jMVtDSDJdTihDMj1PKVtDQEhdKFtDSDJdYzNbY0hdW2NIXVtjSF1bY0hdW2NIXTMpW0NASF0oW09IXSlbQ0BASF0oW09IXSlbQ0BASF0oW0NIMl1jNFtjSF1bY0hdW2NIXVtjSF1bY0hdNClOMltDSDJdYzVbY0hdW2NIXWMoW2NIXVtjSF01KVtDSDJdW09IXQ==

> <s_epik_cmdline>
J2VwaWtfYXBwJywgJy1pbWFlJywgJ2xpZ2FuZF9wcm8ubWFlJywgJy1vbWFlJywgJ2xpZ2FuZF9wcmVwLm1hZScsICctbXMnLCAnMScsICctcGgnLCAnNycsICctcGh0JywgJzAuNScsICctbnQn

> <r_lp_tautomer_probability>
1

> <r_epik_Ionization_Penalty>
  0.0000

> <r_epik_Ionization_Penalty_Charging>
  0.0000

> <r_epik_Ionization_Penalty_Neutral>
  0.0000

> <r_epik_State_Penalty>
 -0.0000

> <r_epik_Charging_Adjusted_Penalty>
0

> <i_epik_Tot_Q>
0

> <i_epik_Tot_abs_Q>
0

$$$$
