1mf4_ligand
                    3D
 Schrodinger Suite 2020-3.
 84 84  0  0  1  0            999 V2000
   19.5260   13.8380    7.0960 N   0  3  0  0  0  0
   18.7340   12.9280    6.2230 C   0  0  2  0  0  0
   17.5550   12.2860    7.0130 C   0  0  0  0  0  0
   17.7640   11.3790    7.8250 O   0  0  0  0  0  0
   19.6780   11.9110    5.4580 C   0  0  0  0  0  0
   21.0390   12.5300    5.1810 C   0  0  0  0  0  0
   19.8720   10.6280    6.2070 C   0  0  0  0  0  0
   16.3350   12.8180    6.8190 N   0  0  0  0  0  0
   15.0890   12.2200    7.3800 C   0  0  2  0  0  0
   13.8640   11.9120    6.4290 C   0  0  0  0  0  0
   13.7680   10.7480    6.1670 O   0  0  0  0  0  0
   14.6370   12.9380    8.6630 C   0  0  0  0  0  0
   13.2070   12.9060    5.8000 N   0  0  0  0  0  0
   12.0300   12.6530    4.8990 C   0  0  2  0  0  0
   11.5620   13.8280    4.0170 C   0  0  0  0  0  0
   12.1470   14.9180    3.9790 O   0  0  0  0  0  0
   10.6930   12.5520    5.6410 C   0  0  0  0  0  0
   10.4280   11.3260    6.4650 C   0  0  0  0  0  0
   11.4060   10.5690    7.0850 C   0  0  0  0  0  0
    9.0960   11.0220    6.7130 C   0  0  0  0  0  0
   11.0310    9.4850    7.8980 C   0  0  0  0  0  0
    8.7240    9.9710    7.5070 C   0  0  0  0  0  0
    9.6840    9.1950    8.1020 C   0  0  0  0  0  0
   10.3680   13.5790    3.4520 N   0  0  0  0  0  0
    9.5520   14.5050    2.6580 C   0  0  2  0  0  0
    8.0630   14.1990    2.7340 C   0  0  0  0  0  0
    7.6110   13.2870    3.4200 O   0  0  0  0  0  0
    9.8150   14.3110    1.1810 C   0  0  0  0  0  0
   10.0480   15.5610    0.4500 C   0  0  0  0  0  0
   11.4690   15.8300    0.5690 C   0  0  0  0  0  0
   11.9380   17.0500   -0.0290 N   0  0  0  0  0  0
   13.2030   17.3810    0.0500 C   0  0  0  0  0  0
   14.0240   16.5580    0.6930 N   0  0  0  0  0  0
   13.6510   18.4990   -0.4880 N   0  3  0  0  0  0
    7.3470   14.9500    1.9030 N   0  0  0  0  0  0
    5.9080   14.8640    1.6190 C   0  0  2  0  0  0
    4.9250   14.1660    2.5520 C   0  0  0  0  0  0
    4.8160   14.7010    3.6540 O   0  0  0  0  0  0
    5.6950   14.3050    0.2140 C   0  0  0  0  0  0
    4.3210   14.3640   -0.1330 O   0  0  0  0  0  0
    4.2818   13.1335    2.2236 O   0  5  0  0  0  0
   18.8474   14.5318    7.6139 H   0  0  0  0  0  0
   20.2360   14.4103    6.4808 H   0  0  0  0  0  0
   20.0796   13.2441    7.8382 H   0  0  0  0  0  0
   18.2610   13.5641    5.4604 H   0  0  0  0  0  0
   19.2061   11.6383    4.5025 H   0  0  0  0  0  0
   20.9076   13.4734    4.6309 H   0  0  0  0  0  0
   21.6421   11.8350    4.5782 H   0  0  0  0  0  0
   21.5519   12.7293    6.1335 H   0  0  0  0  0  0
   18.8924   10.1717    6.4126 H   0  0  0  0  0  0
   20.3879   10.8323    7.1568 H   0  0  0  0  0  0
   20.4781    9.9380    5.6015 H   0  0  0  0  0  0
   16.2811   13.7361    6.2154 H   0  0  0  0  0  0
   15.5123   11.2299    7.6049 H   0  0  0  0  0  0
   15.5118   13.1364    9.2997 H   0  0  0  0  0  0
   13.9239   12.3016    9.2075 H   0  0  0  0  0  0
   14.1521   13.8895    8.3993 H   0  0  0  0  0  0
   13.5617   13.9339    5.9659 H   0  0  0  0  0  0
   12.4478   11.7703    4.3928 H   0  0  0  0  0  0
   10.6002   13.3918    6.3453 H   0  0  0  0  0  0
    9.8672   12.5891    4.9153 H   0  0  0  0  0  0
   12.4594   10.8112    6.9442 H   0  0  0  0  0  0
    8.3211   11.6407    6.2604 H   0  0  0  0  0  0
   11.7968    8.8696    8.3702 H   0  0  0  0  0  0
    7.6680    9.7521    7.6654 H   0  0  0  0  0  0
    9.3947    8.3542    8.7324 H   0  0  0  0  0  0
   10.0135   12.5544    3.6380 H   0  0  0  0  0  0
    9.8333   15.4835    3.0745 H   0  0  0  0  0  0
   10.7088   13.6839    1.0470 H   0  0  0  0  0  0
    8.9484   13.8184    0.7158 H   0  0  0  0  0  0
    9.7533   15.4310   -0.6018 H   0  0  0  0  0  0
    9.4503   16.3666    0.9014 H   0  0  0  0  0  0
   11.7431   15.8895    1.6326 H   0  0  0  0  0  0
   12.0371   15.0197    0.0887 H   0  0  0  0  0  0
   11.2336   17.7105   -0.5559 H   0  0  0  0  0  0
   13.6357   15.6293    1.1364 H   0  0  0  0  0  0
   15.0921   16.8053    0.7820 H   0  0  0  0  0  0
   12.9590   19.1705   -1.0174 H   0  0  0  0  0  0
    7.9630   15.7084    1.3976 H   0  0  0  0  0  0
    5.6872   15.9280    1.7898 H   0  0  0  0  0  0
    6.2748   14.8983   -0.5084 H   0  0  0  0  0  0
    6.0302   13.2578    0.1813 H   0  0  0  0  0  0
    3.9858   14.0008   -1.1157 H   0  0  0  0  0  0
   14.7166   18.7598   -0.4073 H   0  0  0  0  0  0
  1  2  1  0  0  0
  1 42  1  0  0  0
  1 43  1  0  0  0
  1 44  1  0  0  0
  2  3  1  0  0  0
  2  5  1  0  0  0
  2 45  1  0  0  0
  3  4  2  0  0  0
  3  8  1  0  0  0
  5  6  1  0  0  0
  5  7  1  0  0  0
  5 46  1  0  0  0
  6 47  1  0  0  0
  6 48  1  0  0  0
  6 49  1  0  0  0
  7 50  1  0  0  0
  7 51  1  0  0  0
  7 52  1  0  0  0
  8  9  1  0  0  0
  8 53  1  0  0  0
  9 10  1  0  0  0
  9 12  1  0  0  0
  9 54  1  0  0  0
 10 11  2  0  0  0
 10 13  1  0  0  0
 12 55  1  0  0  0
 12 56  1  0  0  0
 12 57  1  0  0  0
 13 14  1  0  0  0
 13 58  1  0  0  0
 14 15  1  0  0  0
 14 17  1  0  0  0
 14 59  1  0  0  0
 15 16  2  0  0  0
 15 24  1  0  0  0
 17 18  1  0  0  0
 17 60  1  0  0  0
 17 61  1  0  0  0
 18 19  2  0  0  0
 18 20  1  0  0  0
 19 21  1  0  0  0
 19 62  1  0  0  0
 20 22  2  0  0  0
 20 63  1  0  0  0
 21 23  2  0  0  0
 21 64  1  0  0  0
 22 23  1  0  0  0
 22 65  1  0  0  0
 23 66  1  0  0  0
 24 25  1  0  0  0
 24 67  1  0  0  0
 25 26  1  0  0  0
 25 28  1  0  0  0
 25 68  1  0  0  0
 26 27  2  0  0  0
 26 35  1  0  0  0
 28 29  1  0  0  0
 28 69  1  0  0  0
 28 70  1  0  0  0
 29 30  1  0  0  0
 29 71  1  0  0  0
 29 72  1  0  0  0
 30 31  1  0  0  0
 30 73  1  0  0  0
 30 74  1  0  0  0
 31 32  1  0  0  0
 31 75  1  0  0  0
 32 33  1  0  0  0
 32 34  2  0  0  0
 33 76  1  0  0  0
 33 77  1  0  0  0
 34 78  1  0  0  0
 34 84  1  0  0  0
 35 36  1  0  0  0
 35 79  1  0  0  0
 36 37  1  0  0  0
 36 39  1  0  0  0
 36 80  1  0  0  0
 37 38  2  0  0  0
 37 41  1  0  0  0
 39 40  1  0  0  0
 39 81  1  0  0  0
 39 82  1  0  0  0
 40 83  1  0  0  0
M  CHG  3   1   1  34   1  41  -1
M  END
> <s_m_source_file>
../1mf4_ligand.sdf

> <i_m_source_file_index>
1

> <s_epik_input>
W0NIM11bQ0hdKFtDSDNdKVtDQEhdKFtOSDMrXSlDKD1PKVtOSF1bQ0BASF0oW0NIM10pQyg9TylbTkhdW0NAQEhdKFtDSDJdYzFbY0hdW2NIXVtjSF1bY0hdW2NIXTEpQyg9TylbTkhdW0NASF0oQyg9TylbTkhdW0NASF0oQyg9TylbT0hdKVtDSDJdW09IXSlbQ0gyXVtDSDJdW0NIMl1bTkhdL0MoW05IMl0pPU5cW0hd

> <s_epik_cmdline>
J2VwaWtfYXBwJywgJy1pbWFlJywgJ2xpZ2FuZF9wcm8ubWFlJywgJy1vbWFlJywgJ2xpZ2FuZF9wcmVwLm1hZScsICctbXMnLCAnMScsICctcGgnLCAnNycsICctcGh0JywgJzAuNScsICctbnQn

> <r_epik_Ionization_Penalty>
  0.0833

> <r_epik_Ionization_Penalty_Charging>
  0.0832

> <r_epik_Ionization_Penalty_Neutral>
  0.0000

> <r_epik_State_Penalty>
  0.0738

> <r_epik_Charging_Adjusted_Penalty>
0.157094916811216

> <i_epik_Tot_Q>
1

> <i_epik_Tot_abs_Q>
3

> <s_epik_Chemistry_Notes>
This compound has an imine and may undergo hydrolysis.

$$$$
