1mfa_ligand
                    3D
 Schrodinger Suite 2020-3.
 67 69  0  0  1  0            999 V2000
   10.7060   -8.9050   64.6760 C   0  0  2  0  0  0
   11.5500   -8.1390   65.6610 C   0  0  1  0  0  0
   11.6750   -8.8030   67.0060 C   0  0  2  0  0  0
   10.2940   -9.2450   67.4840 C   0  0  2  0  0  0
    9.6710  -10.2030   66.4400 C   0  0  1  0  0  0
    8.3200  -10.7980   66.8990 C   0  0  0  0  0  0
   12.8480   -8.0600   65.1630 O   0  0  0  0  0  0
   12.2400   -7.8490   67.8820 O   0  0  0  0  0  0
    9.4940   -8.0750   67.6350 O   0  0  0  0  0  0
    9.4960   -9.4460   65.2230 O   0  0  0  0  0  0
    8.0070  -11.9680   66.1500 O   0  0  0  0  0  0
   10.1940  -11.6420   63.1380 C   0  0  1  0  0  0
   11.0770  -10.4460   62.8910 C   0  0  2  0  0  0
   12.2940  -10.8070   62.0500 C   0  0  2  0  0  0
   13.0420  -12.0170   62.6330 C   0  0  1  0  0  0
   12.0610  -13.1800   62.8670 C   0  0  1  0  0  0
   12.6430  -14.4110   63.5740 C   0  0  0  0  0  0
    8.4880  -12.8950   61.9170 C   0  0  0  0  0  0
    9.6110  -12.0020   61.8990 O   0  0  0  0  0  0
   11.5170   -9.9660   64.1460 O   0  0  0  0  0  0
   13.1770   -9.6680   62.0310 O   0  0  0  0  0  0
   14.0830  -12.4220   61.7600 O   0  0  0  0  0  0
   10.9850  -12.7090   63.6700 O   0  0  0  0  0  0
   13.1760  -14.0250   64.8430 O   0  0  0  0  0  0
   13.7270   -9.3240   60.7320 C   0  0  2  0  0  0
   14.8940   -8.3880   60.9610 C   0  0  1  0  0  0
   14.3860   -7.0230   61.4200 C   0  0  0  0  0  0
   13.3880   -6.5130   60.3760 C   0  0  2  0  0  0
   12.2170   -7.4920   60.2770 C   0  0  1  0  0  0
   11.1940   -7.0300   59.2240 C   0  0  0  0  0  0
   15.7160   -8.9730   61.9510 O   0  0  0  0  0  0
   14.0260   -6.3780   59.1000 O   0  0  0  0  0  0
   12.7360   -8.7700   59.8900 O   0  0  0  0  0  0
   10.3510   -8.2380   63.8766 H   0  0  0  0  0  0
   11.1186   -7.1324   65.7638 H   0  0  0  0  0  0
   12.3622   -9.6619   66.9994 H   0  0  0  0  0  0
   10.3244   -9.7184   68.4764 H   0  0  0  0  0  0
   10.3482  -11.0429   66.2255 H   0  0  0  0  0  0
    8.3792  -11.0627   67.9650 H   0  0  0  0  0  0
    7.5225  -10.0553   66.7494 H   0  0  0  0  0  0
   13.0324   -7.6077   64.1774 H   0  0  0  0  0  0
   13.2363   -7.4323   67.6728 H   0  0  0  0  0  0
    9.7973   -7.2888   68.3420 H   0  0  0  0  0  0
    7.0754  -12.5171   66.3514 H   0  0  0  0  0  0
    9.3763  -11.4689   63.8531 H   0  0  0  0  0  0
   10.5025   -9.6465   62.4003 H   0  0  0  0  0  0
   11.9890  -11.0206   61.0149 H   0  0  0  0  0  0
   13.5649  -11.7449   63.5617 H   0  0  0  0  0  0
   11.6848  -13.4913   61.8813 H   0  0  0  0  0  0
   11.8494  -15.1582   63.7219 H   0  0  0  0  0  0
   13.4438  -14.8440   62.9566 H   0  0  0  0  0  0
    8.1490  -13.0786   60.8868 H   0  0  0  0  0  0
    7.6698  -12.4435   62.4973 H   0  0  0  0  0  0
    8.7843  -13.8474   62.3808 H   0  0  0  0  0  0
   14.8761  -11.7118   61.4831 H   0  0  0  0  0  0
   13.6386  -14.7785   65.4974 H   0  0  0  0  0  0
   14.0236  -10.2329   60.1880 H   0  0  0  0  0  0
   15.5209   -8.2734   60.0644 H   0  0  0  0  0  0
   13.8932   -7.1251   62.3981 H   0  0  0  0  0  0
   15.2332   -6.3268   61.5072 H   0  0  0  0  0  0
   13.0399   -5.4994   60.6238 H   0  0  0  0  0  0
   11.7300   -7.6110   61.2561 H   0  0  0  0  0  0
   10.7891   -6.0486   59.5121 H   0  0  0  0  0  0
   10.3746   -7.7613   59.1633 H   0  0  0  0  0  0
   11.6873   -6.9499   58.2441 H   0  0  0  0  0  0
   16.1656   -9.9620   61.7786 H   0  0  0  0  0  0
   14.8923   -5.7098   58.9862 H   0  0  0  0  0  0
  1 10  1  0  0  0
  1  2  1  0  0  0
  1 20  1  0  0  0
  1 34  1  0  0  0
  2  7  1  0  0  0
  2  3  1  0  0  0
  2 35  1  0  0  0
  3  8  1  0  0  0
  3  4  1  0  0  0
  3 36  1  0  0  0
  4  9  1  0  0  0
  4  5  1  0  0  0
  4 37  1  0  0  0
  5 10  1  0  0  0
  5  6  1  0  0  0
  5 38  1  0  0  0
  6 11  1  0  0  0
  6 39  1  0  0  0
  6 40  1  0  0  0
  7 41  1  0  0  0
  8 42  1  0  0  0
  9 43  1  0  0  0
 11 44  1  0  0  0
 12 23  1  0  0  0
 12 19  1  0  0  0
 12 13  1  0  0  0
 12 45  1  0  0  0
 13 20  1  0  0  0
 13 14  1  0  0  0
 13 46  1  0  0  0
 14 21  1  0  0  0
 14 15  1  0  0  0
 14 47  1  0  0  0
 15 22  1  0  0  0
 15 16  1  0  0  0
 15 48  1  0  0  0
 16 23  1  0  0  0
 16 17  1  0  0  0
 16 49  1  0  0  0
 17 24  1  0  0  0
 17 50  1  0  0  0
 17 51  1  0  0  0
 18 19  1  0  0  0
 18 52  1  0  0  0
 18 53  1  0  0  0
 18 54  1  0  0  0
 21 25  1  0  0  0
 22 55  1  0  0  0
 24 56  1  0  0  0
 25 33  1  0  0  0
 25 26  1  0  0  0
 25 57  1  0  0  0
 26 31  1  0  0  0
 26 27  1  0  0  0
 26 58  1  0  0  0
 27 28  1  0  0  0
 27 59  1  0  0  0
 27 60  1  0  0  0
 28 32  1  0  0  0
 28 29  1  0  0  0
 28 61  1  0  0  0
 29 33  1  0  0  0
 29 30  1  0  0  0
 29 62  1  0  0  0
 30 63  1  0  0  0
 30 64  1  0  0  0
 30 65  1  0  0  0
 31 66  1  0  0  0
 32 67  1  0  0  0
M  END
> <s_m_source_file>
../1mfa_ligand.sdf

> <i_m_source_file_index>
1

> <s_epik_input>
W09IXVtDSDJdW0NAQEhdKE8xKVtDQEhdKFtPSF0pW0NASF0oW09IXSlbQ0BASF0oW09IXSlbQ0BIXTFPW0NASF0oW0NASF0yT1tDSDNdKVtDQEhdKFtDQEhdKFtPSF0pW0NASF0oTzIpW0NIMl1bT0hdKU9bQ0BASF0zW0NASF0oW09IXSlbQ0gyXVtDQEBIXShbT0hdKVtDQEhdKE8zKVtDSDNd

> <s_epik_cmdline>
J2VwaWtfYXBwJywgJy1pbWFlJywgJ2xpZ2FuZF9wcm8ubWFlJywgJy1vbWFlJywgJ2xpZ2FuZF9wcmVwLm1hZScsICctbXMnLCAnMScsICctcGgnLCAnNycsICctcGh0JywgJzAuNScsICctbnQn

> <r_lp_tautomer_probability>
1

> <r_epik_Ionization_Penalty>
  0.0000

> <r_epik_Ionization_Penalty_Charging>
  0.0000

> <r_epik_Ionization_Penalty_Neutral>
  0.0000

> <r_epik_State_Penalty>
 -0.0000

> <r_epik_Charging_Adjusted_Penalty>
0

> <i_epik_Tot_Q>
0

> <i_epik_Tot_abs_Q>
0

> <s_epik_Chemistry_Notes>
This compound contains an acetal/aminal-like group ( X-CH(R)-Y where X, Y are N, S, or O) that may be acid/base labile, releasing an aldehyde.

$$$$
