1mfd_ligand
                    3D
 Schrodinger Suite 2020-3.
 67 69  0  0  1  0            999 V2000
   20.6750   40.5530   23.0620 C   0  0  2  0  0  0
   19.5720   41.2010   23.9930 C   0  0  1  0  0  0
   20.1140   42.4320   24.7620 C   0  0  2  0  0  0
   21.5470   42.1810   25.2890 C   0  0  2  0  0  0
   22.4370   41.7720   24.1090 C   0  0  1  0  0  0
   23.9700   41.7110   24.2210 C   0  0  0  0  0  0
   18.3600   41.6300   23.3570 O   0  0  0  0  0  0
   19.2250   42.6400   25.8700 O   0  0  0  0  0  0
   21.4030   41.1540   26.2400 O   0  0  0  0  0  0
   21.9360   40.4880   23.6930 O   0  0  0  0  0  0
   24.5790   42.7700   23.4630 O   0  0  0  0  0  0
   21.9620   41.6870   19.8440 C   0  0  1  0  0  0
   21.0370   40.7650   20.6280 C   0  0  2  0  0  0
   19.6410   40.7110   20.0060 C   0  0  2  0  0  0
   19.0560   42.1370   19.8550 C   0  0  1  0  0  0
   20.0520   42.9340   18.9460 C   0  0  1  0  0  0
   19.6210   44.3900   18.6390 C   0  0  0  0  0  0
   23.6620   40.7160   18.3280 C   0  0  0  0  0  0
   22.2840   41.0760   18.5930 O   0  0  0  0  0  0
   20.9260   41.3510   21.9120 O   0  0  0  0  0  0
   18.8070   39.9600   20.8850 O   0  0  0  0  0  0
   17.7210   42.1610   19.3700 O   0  0  0  0  0  0
   21.3270   42.9580   19.6300 O   0  0  0  0  0  0
   18.9540   45.0340   19.7230 O   0  0  0  0  0  0
   17.9140   39.0740   20.2720 C   0  0  2  0  0  0
   16.8540   38.7670   21.3500 C   0  0  1  0  0  0
   17.4230   37.8610   22.4500 C   0  0  0  0  0  0
   18.1380   36.6480   21.8660 C   0  0  2  0  0  0
   19.2340   37.1010   20.8540 C   0  0  1  0  0  0
   19.9060   35.9110   20.1660 C   0  0  0  0  0  0
   16.4790   40.0190   21.9370 O   0  0  0  0  0  0
   17.2290   35.7600   21.2390 O   0  0  0  0  0  0
   18.6320   37.9200   19.8240 O   0  0  0  0  0  0
   20.3747   39.5390   22.7595 H   0  0  0  0  0  0
   19.2217   40.3822   24.6386 H   0  0  0  0  0  0
   20.1126   43.3417   24.1436 H   0  0  0  0  0  0
   22.0300   43.0142   25.8205 H   0  0  0  0  0  0
   22.3159   42.5703   23.3619 H   0  0  0  0  0  0
   24.2650   41.8145   25.2756 H   0  0  0  0  0  0
   24.3279   40.7458   23.8332 H   0  0  0  0  0  0
   17.7813   40.9241   22.7432 H   0  0  0  0  0  0
   18.1575   42.8347   25.6896 H   0  0  0  0  0  0
   20.7884   41.3177   27.1375 H   0  0  0  0  0  0
   25.6743   42.8687   23.4376 H   0  0  0  0  0  0
   22.9096   41.8876   20.3653 H   0  0  0  0  0  0
   21.4445   39.7469   20.7134 H   0  0  0  0  0  0
   19.6575   40.1884   19.0382 H   0  0  0  0  0  0
   18.8633   42.6110   20.8288 H   0  0  0  0  0  0
   20.1662   42.4208   17.9798 H   0  0  0  0  0  0
   20.5094   44.9924   18.3984 H   0  0  0  0  0  0
   18.9313   44.3953   17.7821 H   0  0  0  0  0  0
   23.7364   40.2605   17.3295 H   0  0  0  0  0  0
   24.0052   39.9964   19.0859 H   0  0  0  0  0  0
   24.2906   41.6178   18.3674 H   0  0  0  0  0  0
   16.9262   41.6369   19.9209 H   0  0  0  0  0  0
   18.6037   46.0711   19.6151 H   0  0  0  0  0  0
   17.5034   39.5025   19.3458 H   0  0  0  0  0  0
   15.9579   38.3004   20.9148 H   0  0  0  0  0  0
   18.1435   38.4291   23.0567 H   0  0  0  0  0  0
   16.6038   37.5047   23.0918 H   0  0  0  0  0  0
   18.5490   36.0424   22.6872 H   0  0  0  0  0  0
   19.9898   37.7080   21.3740 H   0  0  0  0  0  0
   20.3750   35.2663   20.9239 H   0  0  0  0  0  0
   20.6746   36.2765   19.4691 H   0  0  0  0  0  0
   19.1515   35.3347   19.6104 H   0  0  0  0  0  0
   16.0463   40.8127   21.3102 H   0  0  0  0  0  0
   16.3877   35.3404   21.8100 H   0  0  0  0  0  0
  1 10  1  0  0  0
  1  2  1  0  0  0
  1 20  1  0  0  0
  1 34  1  0  0  0
  2  7  1  0  0  0
  2  3  1  0  0  0
  2 35  1  0  0  0
  3  8  1  0  0  0
  3  4  1  0  0  0
  3 36  1  0  0  0
  4  9  1  0  0  0
  4  5  1  0  0  0
  4 37  1  0  0  0
  5 10  1  0  0  0
  5  6  1  0  0  0
  5 38  1  0  0  0
  6 11  1  0  0  0
  6 39  1  0  0  0
  6 40  1  0  0  0
  7 41  1  0  0  0
  8 42  1  0  0  0
  9 43  1  0  0  0
 11 44  1  0  0  0
 12 23  1  0  0  0
 12 19  1  0  0  0
 12 13  1  0  0  0
 12 45  1  0  0  0
 13 20  1  0  0  0
 13 14  1  0  0  0
 13 46  1  0  0  0
 14 21  1  0  0  0
 14 15  1  0  0  0
 14 47  1  0  0  0
 15 22  1  0  0  0
 15 16  1  0  0  0
 15 48  1  0  0  0
 16 23  1  0  0  0
 16 17  1  0  0  0
 16 49  1  0  0  0
 17 24  1  0  0  0
 17 50  1  0  0  0
 17 51  1  0  0  0
 18 19  1  0  0  0
 18 52  1  0  0  0
 18 53  1  0  0  0
 18 54  1  0  0  0
 21 25  1  0  0  0
 22 55  1  0  0  0
 24 56  1  0  0  0
 25 33  1  0  0  0
 25 26  1  0  0  0
 25 57  1  0  0  0
 26 31  1  0  0  0
 26 27  1  0  0  0
 26 58  1  0  0  0
 27 28  1  0  0  0
 27 59  1  0  0  0
 27 60  1  0  0  0
 28 32  1  0  0  0
 28 29  1  0  0  0
 28 61  1  0  0  0
 29 33  1  0  0  0
 29 30  1  0  0  0
 29 62  1  0  0  0
 30 63  1  0  0  0
 30 64  1  0  0  0
 30 65  1  0  0  0
 31 66  1  0  0  0
 32 67  1  0  0  0
M  END
> <s_m_source_file>
../1mfd_ligand.sdf

> <i_m_source_file_index>
1

> <s_epik_input>
W09IXVtDSDJdW0NAQEhdKE8xKVtDQEhdKFtPSF0pW0NASF0oW09IXSlbQ0BASF0oW09IXSlbQ0BIXTFPW0NASF0oW0NASF0yT1tDSDNdKVtDQEhdKFtDQEhdKFtPSF0pW0NASF0oTzIpW0NIMl1bT0hdKU9bQ0BASF0zW0NASF0oW09IXSlbQ0gyXVtDQEBIXShbT0hdKVtDQEhdKE8zKVtDSDNd

> <s_epik_cmdline>
J2VwaWtfYXBwJywgJy1pbWFlJywgJ2xpZ2FuZF9wcm8ubWFlJywgJy1vbWFlJywgJ2xpZ2FuZF9wcmVwLm1hZScsICctbXMnLCAnMScsICctcGgnLCAnNycsICctcGh0JywgJzAuNScsICctbnQn

> <r_lp_tautomer_probability>
1

> <r_epik_Ionization_Penalty>
  0.0000

> <r_epik_Ionization_Penalty_Charging>
  0.0000

> <r_epik_Ionization_Penalty_Neutral>
  0.0000

> <r_epik_State_Penalty>
 -0.0000

> <r_epik_Charging_Adjusted_Penalty>
0

> <i_epik_Tot_Q>
0

> <i_epik_Tot_abs_Q>
0

> <s_epik_Chemistry_Notes>
This compound contains an acetal/aminal-like group ( X-CH(R)-Y where X, Y are N, S, or O) that may be acid/base labile, releasing an aldehyde.

$$$$
