1mfg_ligand
                    3D
 Schrodinger Suite 2020-3.
142143  0  0  1  0            999 V2000
   17.8240   -6.3730   13.2850 N   0  3  0  0  0  0
   18.6400   -5.5060   14.1150 C   0  0  2  0  0  0
   18.0950   -4.0720   14.1160 C   0  0  0  0  0  0
   17.5600   -3.6500   13.0680 O   0  0  0  0  0  0
   20.0790   -5.5280   13.6140 C   0  0  0  0  0  0
   20.2590   -5.1660   12.1450 C   0  0  0  0  0  0
   21.7370   -5.0000   11.8010 C   0  0  0  0  0  0
   22.5780   -5.0280   12.7230 O   0  0  0  0  0  0
   22.0550   -4.8340   10.6010 O   0  5  0  0  0  0
   18.2190   -3.3050   15.2040 N   0  0  0  0  0  0
   17.7770   -1.9330   15.2890 C   0  0  2  0  0  0
   18.6940   -1.0350   14.4730 C   0  0  0  0  0  0
   19.9080   -1.1220   14.6600 O   0  0  0  0  0  0
   17.8130   -1.4400   16.7510 C   0  0  0  0  0  0
   17.2680   -0.0240   16.8680 C   0  0  0  0  0  0
   15.9480    0.2540   16.5670 C   0  0  0  0  0  0
   18.1060    1.0250   17.2860 C   0  0  0  0  0  0
   15.4420    1.5500   16.6880 C   0  0  0  0  0  0
   17.6180    2.3170   17.3940 C   0  0  0  0  0  0
   16.2840    2.5510   17.0910 C   0  0  0  0  0  0
   15.7870    3.8430   17.1810 O   0  0  0  0  0  0
   18.1460   -0.1690   13.6190 N   0  0  0  0  0  0
   18.8910    0.6300   12.6880 C   0  0  2  0  0  0
   18.5640    2.1240   12.8390 C   0  0  0  0  0  0
   18.8510    2.9450   11.9760 O   0  0  0  0  0  0
   18.6230    0.1870   11.2460 C   0  0  0  0  0  0
   19.0590   -1.2260   10.8570 C   0  0  0  0  0  0
   18.6860   -1.4640    9.3830 C   0  0  0  0  0  0
   20.5460   -1.3930   11.1330 C   0  0  0  0  0  0
   17.9790    2.4940   13.9790 N   0  0  0  0  0  0
   17.7790    3.8790   14.2830 C   0  0  0  0  0  0
   16.4590    4.5060   13.9370 C   0  0  0  0  0  0
   16.2410    5.6890   14.1110 O   0  0  0  0  0  0
   15.5110    3.7120   13.4270 N   0  0  0  0  0  0
   14.1980    4.2410   13.1240 C   0  0  2  0  0  0
   13.2880    4.2750   14.3560 C   0  0  0  0  0  0
   12.7720    3.2410   14.7930 O   0  0  0  0  0  0
   13.5010    3.4640   11.9940 C   0  0  0  0  0  0
   12.2030    4.1430   11.5290 C   0  0  0  0  0  0
   12.4780    5.4270   10.7900 C   0  0  0  0  0  0
   11.4020    3.2200   10.6310 C   0  0  0  0  0  0
   13.0720    5.4680   14.8750 N   0  0  0  0  0  0
   12.2310    5.6740   16.0470 C   0  0  2  0  0  0
   10.9770    6.3890   15.5630 C   0  0  0  0  0  0
   10.8680    6.7950   14.4120 O   0  0  0  0  0  0
   13.0080    6.4310   17.1250 C   0  0  0  0  0  0
   13.6400    7.7430   16.7500 C   0  0  0  0  0  0
   13.5000    8.1310   15.5770 O   0  0  0  0  0  0
   14.2690    8.3450   17.6410 O   0  5  0  0  0  0
   10.0340    6.5420   16.4730 N   0  0  0  0  0  0
    8.7260    7.0730   16.2000 C   0  0  2  0  0  0
    8.4240    8.2690   17.1080 C   0  0  0  0  0  0
    8.2940    8.0590   18.3290 O   0  0  0  0  0  0
    7.5960    6.0300   16.3800 C   0  0  0  0  0  0
    6.2230    6.6570   16.0880 C   0  0  0  0  0  0
    7.8500    4.8250   15.4850 C   0  0  0  0  0  0
    8.2790    9.4570   16.5580 N   0  0  0  0  0  0
    7.9040   10.6150   17.4050 C   0  0  2  0  0  0
    6.4620   10.5410   17.8530 C   0  0  0  0  0  0
    5.5480   10.2090   17.0920 O   0  0  0  0  0  0
    8.0900   11.8400   16.4910 C   0  0  0  0  0  0
    8.5980   11.3250   15.2230 C   0  0  0  0  0  0
    8.5400    9.8530   15.1690 C   0  0  0  0  0  0
    6.2440   10.8240   19.1330 N   0  0  0  0  0  0
    4.9140   10.8860   19.6980 C   0  0  2  0  0  0
    4.7650   12.1680   20.5230 C   0  0  0  0  0  0
    3.6290   12.4160   20.9870 O   0  0  0  0  0  0
    4.6450    9.6550   20.5980 C   0  0  0  0  0  0
    4.6480    8.3700   19.7770 C   0  0  0  0  0  0
    5.6780    9.5360   21.7280 C   0  0  0  0  0  0
    5.7300   12.9720   20.6860 O   0  5  0  0  0  0
   16.7856   -6.3564   13.6475 H   0  0  0  0  0  0
   18.2133   -7.4006   13.3346 H   0  0  0  0  0  0
   17.8547   -6.0191   12.2440 H   0  0  0  0  0  0
   18.5804   -5.9225   15.1314 H   0  0  0  0  0  0
   20.6788   -4.8080   14.1901 H   0  0  0  0  0  0
   20.4962   -6.5378   13.7414 H   0  0  0  0  0  0
   19.8375   -5.9642   11.5164 H   0  0  0  0  0  0
   19.7388   -4.2200   11.9341 H   0  0  0  0  0  0
   18.6939   -3.7847   16.0726 H   0  0  0  0  0  0
   16.7565   -1.9469   14.8786 H   0  0  0  0  0  0
   17.1999   -2.1047   17.3773 H   0  0  0  0  0  0
   18.8510   -1.4476   17.1151 H   0  0  0  0  0  0
   15.2928   -0.5495   16.2305 H   0  0  0  0  0  0
   19.1490    0.8197   17.5272 H   0  0  0  0  0  0
   14.3959    1.7605   16.4656 H   0  0  0  0  0  0
   18.2681    3.1327   17.7103 H   0  0  0  0  0  0
   14.7318    4.0441   16.9440 H   0  0  0  0  0  0
   17.0497   -0.0883   13.6590 H   0  0  0  0  0  0
   19.9362    0.4334   12.9688 H   0  0  0  0  0  0
   17.5422    0.2268   11.0451 H   0  0  0  0  0  0
   19.1499    0.8585   10.5522 H   0  0  0  0  0  0
   18.5480   -1.9857   11.4667 H   0  0  0  0  0  0
   17.6022   -1.3282    9.2525 H   0  0  0  0  0  0
   18.9645   -2.4885    9.0951 H   0  0  0  0  0  0
   19.2247   -0.7454    8.7478 H   0  0  0  0  0  0
   20.7438   -1.2100   12.1995 H   0  0  0  0  0  0
   21.1147   -0.6733   10.5259 H   0  0  0  0  0  0
   20.8545   -2.4164   10.8732 H   0  0  0  0  0  0
   17.6488    1.7217   14.6893 H   0  0  0  0  0  0
   17.8888    4.0362   15.3662 H   0  0  0  0  0  0
   18.5256    4.4836   13.7472 H   0  0  0  0  0  0
   15.7337    2.6515   13.2380 H   0  0  0  0  0  0
   14.4346    5.2646   12.7981 H   0  0  0  0  0  0
   14.1755    3.3924   11.1280 H   0  0  0  0  0  0
   13.2478    2.4531   12.3461 H   0  0  0  0  0  0
   11.6129    4.3861   12.4249 H   0  0  0  0  0  0
   13.0591    6.1035   11.4340 H   0  0  0  0  0  0
   11.5252    5.9060   10.5202 H   0  0  0  0  0  0
   13.0504    5.2088    9.8764 H   0  0  0  0  0  0
   11.1962    2.2791   11.1624 H   0  0  0  0  0  0
   11.9770    3.0071    9.7177 H   0  0  0  0  0  0
   10.4518    3.7043   10.3615 H   0  0  0  0  0  0
   13.5560    6.3271   14.3875 H   0  0  0  0  0  0
   11.9527    4.7059   16.4890 H   0  0  0  0  0  0
   12.3364    6.6668   17.9636 H   0  0  0  0  0  0
   13.8388    5.8063   17.4851 H   0  0  0  0  0  0
   10.3000    6.2334   17.4947 H   0  0  0  0  0  0
    8.8222    7.3662   15.1442 H   0  0  0  0  0  0
    7.5876    5.6758   17.4214 H   0  0  0  0  0  0
    6.0677    7.5232   16.7480 H   0  0  0  0  0  0
    5.4339    5.9122   16.2686 H   0  0  0  0  0  0
    6.1851    6.9842   15.0385 H   0  0  0  0  0  0
    8.8372    4.3983   15.7160 H   0  0  0  0  0  0
    7.8237    5.1390   14.4311 H   0  0  0  0  0  0
    7.0726    4.0670   15.6612 H   0  0  0  0  0  0
    8.5169   10.6199   18.3184 H   0  0  0  0  0  0
    7.1228   12.3460   16.3547 H   0  0  0  0  0  0
    8.8062   12.5361   16.9520 H   0  0  0  0  0  0
    7.9934   11.7255   14.3960 H   0  0  0  0  0  0
    9.6457   11.6348   15.0947 H   0  0  0  0  0  0
    9.4910    9.4127   14.8347 H   0  0  0  0  0  0
    7.7233    9.4936   14.5256 H   0  0  0  0  0  0
    7.1211   11.0148   19.7688 H   0  0  0  0  0  0
    4.2342   10.8942   18.8333 H   0  0  0  0  0  0
    3.6502    9.7869   21.0485 H   0  0  0  0  0  0
    3.9091    8.4512   18.9662 H   0  0  0  0  0  0
    4.3890    7.5200   20.4254 H   0  0  0  0  0  0
    5.6481    8.2119   19.3472 H   0  0  0  0  0  0
    5.6790   10.4613   22.3228 H   0  0  0  0  0  0
    6.6771    9.3766   21.2962 H   0  0  0  0  0  0
    5.4179    8.6848   22.3744 H   0  0  0  0  0  0
  1  2  1  0  0  0
  1 72  1  0  0  0
  1 73  1  0  0  0
  1 74  1  0  0  0
  2  3  1  0  0  0
  2  5  1  0  0  0
  2 75  1  0  0  0
  3  4  2  0  0  0
  3 10  1  0  0  0
  5  6  1  0  0  0
  5 76  1  0  0  0
  5 77  1  0  0  0
  6  7  1  0  0  0
  6 78  1  0  0  0
  6 79  1  0  0  0
  7  8  2  0  0  0
  7  9  1  0  0  0
 10 11  1  0  0  0
 10 80  1  0  0  0
 11 12  1  0  0  0
 11 14  1  0  0  0
 11 81  1  0  0  0
 12 13  2  0  0  0
 12 22  1  0  0  0
 14 15  1  0  0  0
 14 82  1  0  0  0
 14 83  1  0  0  0
 15 16  2  0  0  0
 15 17  1  0  0  0
 16 18  1  0  0  0
 16 84  1  0  0  0
 17 19  2  0  0  0
 17 85  1  0  0  0
 18 20  2  0  0  0
 18 86  1  0  0  0
 19 20  1  0  0  0
 19 87  1  0  0  0
 20 21  1  0  0  0
 21 88  1  0  0  0
 22 23  1  0  0  0
 22 89  1  0  0  0
 23 24  1  0  0  0
 23 26  1  0  0  0
 23 90  1  0  0  0
 24 25  2  0  0  0
 24 30  1  0  0  0
 26 27  1  0  0  0
 26 91  1  0  0  0
 26 92  1  0  0  0
 27 28  1  0  0  0
 27 29  1  0  0  0
 27 93  1  0  0  0
 28 94  1  0  0  0
 28 95  1  0  0  0
 28 96  1  0  0  0
 29 97  1  0  0  0
 29 98  1  0  0  0
 29 99  1  0  0  0
 30 31  1  0  0  0
 30100  1  0  0  0
 31 32  1  0  0  0
 31101  1  0  0  0
 31102  1  0  0  0
 32 33  2  0  0  0
 32 34  1  0  0  0
 34 35  1  0  0  0
 34103  1  0  0  0
 35 36  1  0  0  0
 35 38  1  0  0  0
 35104  1  0  0  0
 36 37  2  0  0  0
 36 42  1  0  0  0
 38 39  1  0  0  0
 38105  1  0  0  0
 38106  1  0  0  0
 39 40  1  0  0  0
 39 41  1  0  0  0
 39107  1  0  0  0
 40108  1  0  0  0
 40109  1  0  0  0
 40110  1  0  0  0
 41111  1  0  0  0
 41112  1  0  0  0
 41113  1  0  0  0
 42 43  1  0  0  0
 42114  1  0  0  0
 43 44  1  0  0  0
 43 46  1  0  0  0
 43115  1  0  0  0
 44 45  2  0  0  0
 44 50  1  0  0  0
 46 47  1  0  0  0
 46116  1  0  0  0
 46117  1  0  0  0
 47 48  2  0  0  0
 47 49  1  0  0  0
 50 51  1  0  0  0
 50118  1  0  0  0
 51 52  1  0  0  0
 51 54  1  0  0  0
 51119  1  0  0  0
 52 53  2  0  0  0
 52 57  1  0  0  0
 54 55  1  0  0  0
 54 56  1  0  0  0
 54120  1  0  0  0
 55121  1  0  0  0
 55122  1  0  0  0
 55123  1  0  0  0
 56124  1  0  0  0
 56125  1  0  0  0
 56126  1  0  0  0
 57 58  1  0  0  0
 57 63  1  0  0  0
 58 59  1  0  0  0
 58 61  1  0  0  0
 58127  1  0  0  0
 59 60  2  0  0  0
 59 64  1  0  0  0
 61 62  1  0  0  0
 61128  1  0  0  0
 61129  1  0  0  0
 62 63  1  0  0  0
 62130  1  0  0  0
 62131  1  0  0  0
 63132  1  0  0  0
 63133  1  0  0  0
 64 65  1  0  0  0
 64134  1  0  0  0
 65 66  1  0  0  0
 65 68  1  0  0  0
 65135  1  0  0  0
 66 67  2  0  0  0
 66 71  1  0  0  0
 68 69  1  0  0  0
 68 70  1  0  0  0
 68136  1  0  0  0
 69137  1  0  0  0
 69138  1  0  0  0
 69139  1  0  0  0
 70140  1  0  0  0
 70141  1  0  0  0
 70142  1  0  0  0
M  CHG  4   1   1   9  -1  49  -1  71  -1
M  END
> <s_m_source_file>
../1mfg_ligand.sdf

> <i_m_source_file_index>
1

> <s_epik_input>
Tz1DKFtPSF0pW0NIMl1bQ0gyXVtDQEhdKFtOSDMrXSlDKD1PKVtOSF1bQ0BASF0oW0NIMl1jMVtjSF1bY0hdYyhbT0hdKVtjSF1bY0hdMSlDKD1PKVtOSF1bQ0BASF0oW0NIMl1bQ0hdKFtDSDNdKVtDSDNdKUMoPU8pW05IXVtDSDJdQyg9TylbTkhdW0NAQEhdKFtDSDJdW0NIXShbQ0gzXSlbQ0gzXSlDKD1PKVtOSF1bQ0BASF0oW0NIMl1DKD1PKVtPSF0pQyg9TylbTkhdW0NAQEhdKFtDSF0oW0NIM10pW0NIM10pQyg9TylOMltDQEBIXShbQ0gyXVtDSDJdW0NIMl0yKUMoPU8pW05IXVtDQEhdKEMoPU8pW09IXSlbQ0hdKFtDSDNdKVtDSDNd

> <s_epik_cmdline>
J2VwaWtfYXBwJywgJy1pbWFlJywgJ2xpZ2FuZF9wcm8ubWFlJywgJy1vbWFlJywgJ2xpZ2FuZF9wcmVwLm1hZScsICctbXMnLCAnMScsICctcGgnLCAnNycsICctcGh0JywgJzAuNScsICctbnQn

> <r_lp_tautomer_probability>
0.999999999997365

> <r_epik_Ionization_Penalty>
  0.0843

> <r_epik_Ionization_Penalty_Charging>
  0.0834

> <r_epik_Ionization_Penalty_Neutral>
  0.0009

> <r_epik_State_Penalty>
  0.0715

> <r_epik_Charging_Adjusted_Penalty>
0.154885530114953

> <i_epik_Tot_Q>
-2

> <i_epik_Tot_abs_Q>
4

$$$$
