1mfi_ligand
                    3D
 Schrodinger Suite 2020-3.
 19 19  0  0  1  0            999 V2000
   -5.7790   12.8310   -3.4600 C   0  0  0  0  0  0
   -6.3270   11.7680   -4.3150 C   0  0  0  0  0  0
   -5.8020   10.5790   -4.6410 C   0  0  0  0  0  0
   -4.4330   10.1460   -4.3210 C   0  0  0  0  0  0
   -4.3300    8.8990   -4.0560 O   0  5  0  0  0  0
   -3.4890   10.9710   -4.4260 O   0  0  0  0  0  0
   -4.6470   12.6650   -2.6530 C   0  0  0  0  0  0
   -4.2200   13.7210   -1.8080 C   0  0  0  0  0  0
   -4.9750   14.9330   -1.7730 C   0  0  0  0  0  0
   -4.6130   15.9730   -0.9510 O   0  0  0  0  0  0
   -6.0590   15.1180   -2.6040 C   0  0  0  0  0  0
   -6.4580   14.0670   -3.4230 C   0  0  0  0  0  0
   -6.5830    9.7240   -5.4240 F   0  0  0  0  0  0
   -7.3116   12.0610   -4.7084 H   0  0  0  0  0  0
   -4.0947   11.7255   -2.6741 H   0  0  0  0  0  0
   -3.3270   13.6091   -1.1931 H   0  0  0  0  0  0
   -3.7535   15.8648   -0.2731 H   0  0  0  0  0  0
   -6.5926   16.0684   -2.6190 H   0  0  0  0  0  0
   -7.3304   14.2039   -4.0619 H   0  0  0  0  0  0
  1 12  2  0  0  0
  1  7  1  0  0  0
  1  2  1  0  0  0
  2  3  2  0  0  0
  2 14  1  0  0  0
  3 13  1  0  0  0
  3  4  1  0  0  0
  4  6  2  0  0  0
  4  5  1  0  0  0
  7  8  2  0  0  0
  7 15  1  0  0  0
  8  9  1  0  0  0
  8 16  1  0  0  0
  9 11  2  0  0  0
  9 10  1  0  0  0
 10 17  1  0  0  0
 11 12  1  0  0  0
 11 18  1  0  0  0
 12 19  1  0  0  0
M  CHG  1   5  -1
M  END
> <s_m_source_file>
../1mfi_ligand.sdf

> <i_m_source_file_index>
1

> <s_epik_input>
W09IXUMoPU8pL0MoRik9W0NIXVxjMVtjSF1bY0hdYyhbT0hdKVtjSF1bY0hdMQ==

> <s_epik_cmdline>
J2VwaWtfYXBwJywgJy1pbWFlJywgJ2xpZ2FuZF9wcm8ubWFlJywgJy1vbWFlJywgJ2xpZ2FuZF9wcmVwLm1hZScsICctbXMnLCAnMScsICctcGgnLCAnNycsICctcGh0JywgJzAuNScsICctbnQn

> <r_lp_tautomer_probability>
1

> <r_epik_Ionization_Penalty>
  0.0007

> <r_epik_Ionization_Penalty_Charging>
  0.0000

> <r_epik_Ionization_Penalty_Neutral>
  0.0006

> <r_epik_State_Penalty>
 -0.0000

> <r_epik_Charging_Adjusted_Penalty>
8.75940711371158e-06

> <i_epik_Tot_Q>
-1

> <i_epik_Tot_abs_Q>
1

$$$$
