1mh5_ligand
                    3D
 Schrodinger Suite 2020-3.
 60 61  0  0  1  0            999 V2000
   30.5160  -39.0010   42.2600 C   0  0  0  0  0  0
   30.7510  -38.3080   41.0700 C   0  0  0  0  0  0
   30.8830  -36.9180   41.0610 C   0  0  0  0  0  0
   30.7830  -36.2050   42.2470 C   0  0  0  0  0  0
   30.5570  -36.8810   43.4420 C   0  0  0  0  0  0
   30.4260  -38.2780   43.4430 C   0  0  0  0  0  0
   30.2680  -40.4920   42.2480 C   0  0  0  0  0  0
   28.8200  -40.8490   42.0730 C   0  0  0  0  0  0
   28.5250  -42.2770   41.9730 N   0  0  0  0  0  0
   27.3030  -42.7660   42.1590 C   0  0  0  0  0  0
   26.3500  -42.0360   42.4180 O   0  0  0  0  0  0
   27.0830  -44.2760   42.0040 C   0  0  0  0  0  0
   28.2300  -45.0060   42.4230 O   0  0  0  0  0  0
   29.2050  -45.6580   41.3470 P   0  0  2  0  0  0
   30.4760  -44.8850   41.2810 O   0  5  0  0  0  0
   28.4220  -45.8710   40.1070 O   0  0  0  0  0  0
   29.5390  -46.9640   41.8520 C   0  0  1  0  0  0
   30.6370  -47.6290   41.0320 C   0  0  0  0  0  0
   31.0150  -48.9970   41.5280 C   0  0  0  0  0  0
   30.3020  -50.1220   41.1200 C   0  0  0  0  0  0
   30.6530  -51.3890   41.5800 C   0  0  0  0  0  0
   31.7220  -51.5390   42.4600 C   0  0  0  0  0  0
   32.4350  -50.4220   42.8740 C   0  0  0  0  0  0
   32.0790  -49.1630   42.4100 C   0  0  0  0  0  0
   29.9750  -46.9290   43.2390 N   0  0  0  0  0  0
   29.4100  -47.6860   44.1740 C   0  0  0  0  0  0
   28.4730  -48.4480   43.9420 O   0  0  0  0  0  0
   29.9620  -47.5600   45.5740 C   0  0  0  0  0  0
   30.5500  -48.8530   46.0750 C   0  0  0  0  0  0
   29.4820  -49.9140   46.1920 C   0  0  0  0  0  0
   30.0560  -51.2960   46.4230 C   0  0  0  0  0  0
   30.8170  -51.7770   45.5510 O   0  5  0  0  0  0
   29.7460  -51.8980   47.4740 O   0  0  0  0  0  0
   30.8326  -38.8609   40.1342 H   0  0  0  0  0  0
   31.0645  -36.3934   40.1229 H   0  0  0  0  0  0
   30.8811  -35.1194   42.2426 H   0  0  0  0  0  0
   30.4818  -36.3256   44.3769 H   0  0  0  0  0  0
   30.2516  -38.8021   44.3827 H   0  0  0  0  0  0
   30.8258  -40.9498   41.4178 H   0  0  0  0  0  0
   30.6049  -40.9274   43.2003 H   0  0  0  0  0  0
   28.2438  -40.4754   42.9323 H   0  0  0  0  0  0
   28.4385  -40.3907   41.1486 H   0  0  0  0  0  0
   29.3290  -42.9894   41.7362 H   0  0  0  0  0  0
   26.2247  -44.5864   42.6179 H   0  0  0  0  0  0
   26.8827  -44.5109   40.9482 H   0  0  0  0  0  0
   28.5816  -47.5033   41.8025 H   0  0  0  0  0  0
   30.3011  -47.7389   39.9903 H   0  0  0  0  0  0
   31.5440  -47.0073   41.0611 H   0  0  0  0  0  0
   29.4619  -50.0098   40.4346 H   0  0  0  0  0  0
   30.0910  -52.2632   41.2512 H   0  0  0  0  0  0
   31.9977  -52.5294   42.8222 H   0  0  0  0  0  0
   33.2729  -50.5334   43.5622 H   0  0  0  0  0  0
   32.6417  -48.2904   42.7417 H   0  0  0  0  0  0
   30.7957  -46.2617   43.5409 H   0  0  0  0  0  0
   30.7545  -46.7972   45.5884 H   0  0  0  0  0  0
   29.1555  -47.2638   46.2609 H   0  0  0  0  0  0
   31.3220  -49.2011   45.3729 H   0  0  0  0  0  0
   31.0010  -48.6914   47.0652 H   0  0  0  0  0  0
   28.8212  -49.6772   47.0389 H   0  0  0  0  0  0
   28.8921  -49.9444   45.2640 H   0  0  0  0  0  0
  1  2  2  0  0  0
  1  6  1  0  0  0
  1  7  1  0  0  0
  2  3  1  0  0  0
  2 34  1  0  0  0
  3  4  2  0  0  0
  3 35  1  0  0  0
  4  5  1  0  0  0
  4 36  1  0  0  0
  5  6  2  0  0  0
  5 37  1  0  0  0
  6 38  1  0  0  0
  7  8  1  0  0  0
  7 39  1  0  0  0
  7 40  1  0  0  0
  8  9  1  0  0  0
  8 41  1  0  0  0
  8 42  1  0  0  0
  9 10  1  0  0  0
  9 43  1  0  0  0
 10 11  2  0  0  0
 10 12  1  0  0  0
 12 13  1  0  0  0
 12 44  1  0  0  0
 12 45  1  0  0  0
 13 14  1  0  0  0
 14 15  1  0  0  0
 14 16  2  0  0  0
 14 17  1  0  0  0
 17 18  1  0  0  0
 17 25  1  0  0  0
 17 46  1  0  0  0
 18 19  1  0  0  0
 18 47  1  0  0  0
 18 48  1  0  0  0
 19 20  2  0  0  0
 19 24  1  0  0  0
 20 21  1  0  0  0
 20 49  1  0  0  0
 21 22  2  0  0  0
 21 50  1  0  0  0
 22 23  1  0  0  0
 22 51  1  0  0  0
 23 24  2  0  0  0
 23 52  1  0  0  0
 24 53  1  0  0  0
 25 26  1  0  0  0
 25 54  1  0  0  0
 26 27  2  0  0  0
 26 28  1  0  0  0
 28 29  1  0  0  0
 28 55  1  0  0  0
 28 56  1  0  0  0
 29 30  1  0  0  0
 29 57  1  0  0  0
 29 58  1  0  0  0
 30 31  1  0  0  0
 30 59  1  0  0  0
 30 60  1  0  0  0
 31 32  1  0  0  0
 31 33  2  0  0  0
M  CHG  2  15  -1  32  -1
M  END
> <s_m_source_file>
../1mh5_ligand.sdf

> <i_m_source_file_index>
1

> <s_epik_input>
W2NIXTFbY0hdW2NIXVtjSF1bY0hdYzFbQ0gyXVtDSDJdW05IXUMoPU8pW0NIMl1PW1BAQF0oPU8pKFtPSF0pW0NAQEhdKFtDSDJdYzJbY0hdW2NIXVtjSF1bY0hdW2NIXTIpW05IXUMoPU8pW0NIMl1bQ0gyXVtDSDJdQyg9TylbT0hd

> <s_epik_cmdline>
J2VwaWtfYXBwJywgJy1pbWFlJywgJ2xpZ2FuZF9wcm8ubWFlJywgJy1vbWFlJywgJ2xpZ2FuZF9wcmVwLm1hZScsICctbXMnLCAnMScsICctcGgnLCAnNycsICctcGh0JywgJzAuNScsICctbnQn

> <r_lp_tautomer_probability>
1

> <r_epik_Ionization_Penalty>
  0.0031

> <r_epik_Ionization_Penalty_Charging>
  0.0031

> <r_epik_Ionization_Penalty_Neutral>
  0.0000

> <r_epik_State_Penalty>
 -0.0000

> <r_epik_Charging_Adjusted_Penalty>
0.00313804859300422

> <i_epik_Tot_Q>
-2

> <i_epik_Tot_abs_Q>
2

$$$$
