1mik_ligand
                    3D
 Schrodinger Suite 2020-3.
200200  0  0  1  0            999 V2000
    5.2230   34.7960   19.6180 N   0  0  0  0  0  0
    4.6420   36.1740   19.7570 C   0  0  0  0  0  0
    6.4490   34.6830   18.8150 C   0  0  2  0  0  0
    7.6700   35.4780   19.3440 C   0  0  0  0  0  0
    7.6040   36.1030   20.4030 O   0  0  0  0  0  0
    6.2090   35.0270   17.3290 C   0  0  2  0  0  0
    6.0170   36.4390   17.2010 O   0  0  0  0  0  0
    4.9880   34.2830   16.7320 C   0  0  2  0  0  0
    5.1140   32.7520   16.9180 C   0  0  0  0  0  0
    4.8670   34.6170   15.2350 C   0  0  0  0  0  0
    6.0540   34.1690   14.3740 C   0  0  0  0  0  0
    6.7270   35.0620   13.6440 C   0  0  0  0  0  0
    7.8910   34.6010   12.7990 C   0  0  0  0  0  0
    8.8190   35.2840   18.6960 N   0  0  0  0  0  0
   10.0770   35.9290   19.0920 C   0  0  1  0  0  0
   11.1670   34.8750   19.3310 C   0  0  0  0  0  0
   10.7790   33.7180   20.2320 C   0  0  0  0  0  0
   11.8350   32.6220   20.2050 C   0  0  0  0  0  0
   13.1010   33.0490   20.6740 O   0  0  0  0  0  0
   10.5610   36.8430   17.9670 C   0  0  0  0  0  0
   11.3700   36.4030   17.1520 O   0  0  0  0  0  0
   10.2300   38.1280   17.9980 N   0  0  0  0  0  0
   10.6900   38.9890   16.9130 C   0  0  0  0  0  0
    9.5450   39.7030   16.2070 C   0  0  0  0  0  0
    9.5220   40.9400   16.2360 O   0  0  0  0  0  0
    9.2890   38.8380   18.9440 C   0  0  0  0  0  0
    8.8180   38.9980   15.3320 N   0  0  0  0  0  0
    9.0770   37.5910   14.8770 C   0  0  0  0  0  0
    7.6690   39.6140   14.6520 C   0  0  1  0  0  0
    7.6170   39.2430   13.1620 C   0  0  0  0  0  0
    8.2030   40.1980   12.1200 C   0  0  0  0  0  0
    7.6520   41.6300   12.3140 C   0  0  0  0  0  0
    9.7180   40.1750   12.2230 C   0  0  0  0  0  0
    6.3570   39.1650   15.3160 C   0  0  0  0  0  0
    5.8490   38.0770   15.0210 O   0  0  0  0  0  0
    5.8270   39.9930   16.2160 N   0  0  0  0  0  0
    4.5820   39.6790   16.9160 C   0  0  2  0  0  0
    3.4250   39.8840   15.9390 C   0  0  0  0  0  0
    3.3150   40.9640   15.3350 O   0  0  0  0  0  0
    4.3920   40.6000   18.1230 C   0  0  0  0  0  0
    3.1430   40.1980   18.8900 C   0  0  0  0  0  0
    5.6020   40.5420   19.0030 C   0  0  0  0  0  0
    2.6330   38.8360   15.6970 N   0  0  0  0  0  0
    2.5390   37.5910   16.5310 C   0  0  0  0  0  0
    1.5380   38.9610   14.7360 C   0  0  1  0  0  0
    1.4490   37.7310   13.8120 C   0  0  0  0  0  0
    2.7270   37.2280   13.1170 C   0  0  0  0  0  0
    2.4020   36.0070   12.2600 C   0  0  0  0  0  0
    3.3810   38.3190   12.2940 C   0  0  0  0  0  0
    0.1930   39.2210   15.4040 C   0  0  0  0  0  0
    0.1400   39.5360   16.5950 O   0  0  0  0  0  0
   -0.7770   39.5200   14.5480 N   0  0  0  0  0  0
   -2.1360   39.7920   14.9890 C   0  0  2  0  0  0
   -2.7080   38.5650   15.6840 C   0  0  0  0  0  0
   -2.4750   37.4370   15.2320 O   0  0  0  0  0  0
   -3.0180   40.1610   13.7740 C   0  0  0  0  0  0
   -3.7510   38.8280   16.4650 N   0  0  0  0  0  0
   -4.4600   37.7830   17.1800 C   0  0  2  0  0  0
   -5.9150   38.1910   17.3850 C   0  0  0  0  0  0
   -3.8040   37.5150   18.5130 C   0  0  0  0  0  0
   -3.4170   38.4460   19.2100 O   0  0  0  0  0  0
   -3.6370   36.2430   18.8410 N   0  0  0  0  0  0
   -4.0740   35.0450   18.0280 C   0  0  0  0  0  0
   -3.0320   35.9080   20.1180 C   0  0  1  0  0  0
   -4.0930   35.3520   21.0750 C   0  0  0  0  0  0
   -5.2140   36.3140   21.4750 C   0  0  0  0  0  0
   -6.2380   35.5760   22.2920 C   0  0  0  0  0  0
   -4.6480   37.4920   22.2550 C   0  0  0  0  0  0
   -1.9140   34.9100   19.9450 C   0  0  0  0  0  0
   -2.0640   33.7460   20.2960 O   0  0  0  0  0  0
   -0.7640   35.3650   19.4690 N   0  0  0  0  0  0
   -0.5390   36.7780   19.0100 C   0  0  0  0  0  0
    0.3370   34.4200   19.2860 C   0  0  1  0  0  0
    0.8240   34.4390   17.8340 C   0  0  0  0  0  0
   -0.1100   33.9550   16.7140 C   0  0  0  0  0  0
    0.7290   33.9500   15.4480 C   0  0  0  0  0  0
   -0.6730   32.5680   16.9410 C   0  0  0  0  0  0
    1.4950   34.7110   20.2310 C   0  0  0  0  0  0
    1.4070   35.6550   21.0220 O   0  0  0  0  0  0
    2.3990   33.7380   20.3760 N   0  0  0  0  0  0
    2.2560   32.2960   19.8770 C   0  0  0  0  0  0
    3.5730   33.9620   21.2360 C   0  0  1  0  0  0
    3.5910   33.0140   22.4970 C   0  0  0  0  0  0
    4.6790   33.4730   23.4790 C   0  0  0  0  0  0
    2.2120   33.0250   23.2220 C   0  0  0  0  0  0
    4.8700   33.7910   20.4230 C   0  0  0  0  0  0
    5.4600   32.7050   20.4180 O   0  0  0  0  0  0
    5.0765   36.8340   18.9918 H   0  0  0  0  0  0
    4.8729   36.5701   20.7569 H   0  0  0  0  0  0
    3.5511   36.1271   19.6241 H   0  0  0  0  0  0
    6.6587   33.6113   18.9468 H   0  0  0  0  0  0
    7.1080   34.7787   16.7458 H   0  0  0  0  0  0
    6.7848   37.1343   17.5713 H   0  0  0  0  0  0
    4.0825   34.6176   17.2594 H   0  0  0  0  0  0
    5.2002   32.5187   17.9895 H   0  0  0  0  0  0
    6.0095   32.3911   16.3910 H   0  0  0  0  0  0
    4.2219   32.2579   16.5057 H   0  0  0  0  0  0
    3.9740   34.1261   14.8208 H   0  0  0  0  0  0
    4.7788   35.7061   15.1083 H   0  0  0  0  0  0
    6.3509   33.1099   14.3583 H   0  0  0  0  0  0
    6.4319   36.1215   13.6619 H   0  0  0  0  0  0
    8.3238   35.4627   12.2697 H   0  0  0  0  0  0
    7.5410   33.8587   12.0665 H   0  0  0  0  0  0
    8.6558   34.1459   13.4455 H   0  0  0  0  0  0
    8.7972   34.6063   17.8298 H   0  0  0  0  0  0
    9.8507   36.4911   20.0100 H   0  0  0  0  0  0
   11.4640   34.4302   18.3698 H   0  0  0  0  0  0
   12.0406   35.3509   19.8003 H   0  0  0  0  0  0
   10.6730   34.0781   21.2660 H   0  0  0  0  0  0
    9.8231   33.2930   19.8920 H   0  0  0  0  0  0
   11.5117   31.7856   20.8421 H   0  0  0  0  0  0
   11.9681   32.2664   19.1726 H   0  0  0  0  0  0
   13.9442   32.3431   20.7012 H   0  0  0  0  0  0
   11.3689   39.7552   17.3156 H   0  0  0  0  0  0
   11.2229   38.3834   16.1651 H   0  0  0  0  0  0
    8.9755   38.1446   19.7383 H   0  0  0  0  0  0
    8.4044   39.1847   18.3897 H   0  0  0  0  0  0
    9.8023   39.7014   19.3924 H   0  0  0  0  0  0
    9.9441   37.1844   15.4181 H   0  0  0  0  0  0
    9.2843   37.5873   13.7967 H   0  0  0  0  0  0
    8.1924   36.9704   15.0828 H   0  0  0  0  0  0
    7.8311   40.6964   14.7621 H   0  0  0  0  0  0
    8.1623   38.3016   12.9993 H   0  0  0  0  0  0
    6.5691   39.1181   12.8516 H   0  0  0  0  0  0
    7.9189   39.8568   11.1136 H   0  0  0  0  0  0
    6.5550   41.6147   12.2342 H   0  0  0  0  0  0
    8.0669   42.2907   11.5385 H   0  0  0  0  0  0
    7.9423   42.0031   13.3073 H   0  0  0  0  0  0
   10.0796   39.1458   12.0811 H   0  0  0  0  0  0
   10.0236   40.5375   13.2156 H   0  0  0  0  0  0
   10.1482   40.8250   11.4468 H   0  0  0  0  0  0
    6.3538   40.9354   16.4266 H   0  0  0  0  0  0
    4.6559   38.6357   17.2565 H   0  0  0  0  0  0
    4.2780   41.6424   17.7909 H   0  0  0  0  0  0
    2.2704   40.2490   18.2222 H   0  0  0  0  0  0
    2.9967   40.8837   19.7376 H   0  0  0  0  0  0
    3.2580   39.1704   19.2653 H   0  0  0  0  0  0
    6.4902   40.8369   18.4250 H   0  0  0  0  0  0
    5.7330   39.5166   19.3791 H   0  0  0  0  0  0
    5.4716   41.2299   19.8514 H   0  0  0  0  0  0
    3.3865   37.5539   17.2312 H   0  0  0  0  0  0
    2.5658   36.7079   15.8758 H   0  0  0  0  0  0
    1.5958   37.5992   17.0970 H   0  0  0  0  0  0
    1.8151   39.8561   14.1597 H   0  0  0  0  0  0
    1.0881   36.8656   14.3873 H   0  0  0  0  0  0
    0.7506   37.9408   12.9884 H   0  0  0  0  0  0
    3.4633   36.9386   13.8813 H   0  0  0  0  0  0
    1.9295   35.2353   12.8855 H   0  0  0  0  0  0
    3.3295   35.6080   11.8235 H   0  0  0  0  0  0
    1.7128   36.2980   11.4535 H   0  0  0  0  0  0
    3.6019   39.1823   12.9390 H   0  0  0  0  0  0
    2.6996   38.6284   11.4878 H   0  0  0  0  0  0
    4.3163   37.9384   11.8578 H   0  0  0  0  0  0
   -0.5281   39.5588   13.4772 H   0  0  0  0  0  0
   -2.0657   40.6282   15.7002 H   0  0  0  0  0  0
   -2.6014   41.0481   13.2745 H   0  0  0  0  0  0
   -4.0405   40.3790   14.1159 H   0  0  0  0  0  0
   -3.0396   39.3184   13.0672 H   0  0  0  0  0  0
   -4.0728   39.8755   16.5606 H   0  0  0  0  0  0
   -4.3915   36.8813   16.5537 H   0  0  0  0  0  0
   -6.3829   38.3837   16.4083 H   0  0  0  0  0  0
   -5.9571   39.1033   17.9981 H   0  0  0  0  0  0
   -6.4545   37.3803   17.8965 H   0  0  0  0  0  0
   -4.5189   35.3866   17.0817 H   0  0  0  0  0  0
   -4.8187   34.4682   18.5962 H   0  0  0  0  0  0
   -3.2023   34.4089   17.8148 H   0  0  0  0  0  0
   -2.6088   36.8493   20.4987 H   0  0  0  0  0  0
   -4.5879   34.4863   20.6107 H   0  0  0  0  0  0
   -3.6124   35.0396   22.0138 H   0  0  0  0  0  0
   -5.7120   36.7061   20.5759 H   0  0  0  0  0  0
   -6.6323   34.7306   21.7090 H   0  0  0  0  0  0
   -7.0611   36.2581   22.5513 H   0  0  0  0  0  0
   -5.7698   35.1994   23.2134 H   0  0  0  0  0  0
   -3.9025   38.0157   21.6385 H   0  0  0  0  0  0
   -4.1706   37.1264   23.1761 H   0  0  0  0  0  0
   -5.4618   38.1852   22.5141 H   0  0  0  0  0  0
   -1.4415   37.3754   19.2065 H   0  0  0  0  0  0
   -0.3235   36.7832   17.9313 H   0  0  0  0  0  0
    0.3127   37.2097   19.5562 H   0  0  0  0  0  0
   -0.0887   33.4379   19.5395 H   0  0  0  0  0  0
    1.0789   35.4696   17.5462 H   0  0  0  0  0  0
    1.7145   33.8005   17.7375 H   0  0  0  0  0  0
   -0.9886   34.6143   16.6552 H   0  0  0  0  0  0
    1.1412   34.9555   15.2773 H   0  0  0  0  0  0
    0.1004   33.6614   14.5927 H   0  0  0  0  0  0
    1.5530   33.2295   15.5571 H   0  0  0  0  0  0
   -1.2820   32.5649   17.8570 H   0  0  0  0  0  0
    0.1533   31.8498   17.0477 H   0  0  0  0  0  0
   -1.2993   32.2816   16.0833 H   0  0  0  0  0  0
    1.3594   32.2139   19.2450 H   0  0  0  0  0  0
    2.1612   31.6178   20.7379 H   0  0  0  0  0  0
    3.1448   32.0213   19.2900 H   0  0  0  0  0  0
    3.4631   35.0084   21.5570 H   0  0  0  0  0  0
    3.8149   31.9866   22.1739 H   0  0  0  0  0  0
    5.6557   33.4674   22.9729 H   0  0  0  0  0  0
    4.7082   32.7889   24.3399 H   0  0  0  0  0  0
    4.4524   34.4914   23.8275 H   0  0  0  0  0  0
    1.4280   32.6970   22.5236 H   0  0  0  0  0  0
    1.9893   34.0442   23.5709 H   0  0  0  0  0  0
    2.2451   32.3416   24.0833 H   0  0  0  0  0  0
  1  2  1  0  0  0
  1  3  1  0  0  0
  1 86  1  0  0  0
  2 88  1  0  0  0
  2 89  1  0  0  0
  2 90  1  0  0  0
  3  4  1  0  0  0
  3  6  1  0  0  0
  3 91  1  0  0  0
  4  5  2  0  0  0
  4 14  1  0  0  0
  6  7  1  0  0  0
  6  8  1  0  0  0
  6 92  1  0  0  0
  7 93  1  0  0  0
  8  9  1  0  0  0
  8 10  1  0  0  0
  8 94  1  0  0  0
  9 95  1  0  0  0
  9 96  1  0  0  0
  9 97  1  0  0  0
 10 11  1  0  0  0
 10 98  1  0  0  0
 10 99  1  0  0  0
 11 12  2  0  0  0
 11100  1  0  0  0
 12 13  1  0  0  0
 12101  1  0  0  0
 13102  1  0  0  0
 13103  1  0  0  0
 13104  1  0  0  0
 14 15  1  0  0  0
 14105  1  0  0  0
 15 16  1  0  0  0
 15 20  1  0  0  0
 15106  1  0  0  0
 16 17  1  0  0  0
 16107  1  0  0  0
 16108  1  0  0  0
 17 18  1  0  0  0
 17109  1  0  0  0
 17110  1  0  0  0
 18 19  1  0  0  0
 18111  1  0  0  0
 18112  1  0  0  0
 19113  1  0  0  0
 20 21  2  0  0  0
 20 22  1  0  0  0
 22 23  1  0  0  0
 22 26  1  0  0  0
 23 24  1  0  0  0
 23114  1  0  0  0
 23115  1  0  0  0
 24 25  2  0  0  0
 24 27  1  0  0  0
 26116  1  0  0  0
 26117  1  0  0  0
 26118  1  0  0  0
 27 28  1  0  0  0
 27 29  1  0  0  0
 28119  1  0  0  0
 28120  1  0  0  0
 28121  1  0  0  0
 29 30  1  0  0  0
 29 34  1  0  0  0
 29122  1  0  0  0
 30 31  1  0  0  0
 30123  1  0  0  0
 30124  1  0  0  0
 31 32  1  0  0  0
 31 33  1  0  0  0
 31125  1  0  0  0
 32126  1  0  0  0
 32127  1  0  0  0
 32128  1  0  0  0
 33129  1  0  0  0
 33130  1  0  0  0
 33131  1  0  0  0
 34 35  2  0  0  0
 34 36  1  0  0  0
 36 37  1  0  0  0
 36132  1  0  0  0
 37 38  1  0  0  0
 37 40  1  0  0  0
 37133  1  0  0  0
 38 39  2  0  0  0
 38 43  1  0  0  0
 40 41  1  0  0  0
 40 42  1  0  0  0
 40134  1  0  0  0
 41135  1  0  0  0
 41136  1  0  0  0
 41137  1  0  0  0
 42138  1  0  0  0
 42139  1  0  0  0
 42140  1  0  0  0
 43 44  1  0  0  0
 43 45  1  0  0  0
 44141  1  0  0  0
 44142  1  0  0  0
 44143  1  0  0  0
 45 46  1  0  0  0
 45 50  1  0  0  0
 45144  1  0  0  0
 46 47  1  0  0  0
 46145  1  0  0  0
 46146  1  0  0  0
 47 48  1  0  0  0
 47 49  1  0  0  0
 47147  1  0  0  0
 48148  1  0  0  0
 48149  1  0  0  0
 48150  1  0  0  0
 49151  1  0  0  0
 49152  1  0  0  0
 49153  1  0  0  0
 50 51  2  0  0  0
 50 52  1  0  0  0
 52 53  1  0  0  0
 52154  1  0  0  0
 53 54  1  0  0  0
 53 56  1  0  0  0
 53155  1  0  0  0
 54 55  2  0  0  0
 54 57  1  0  0  0
 56156  1  0  0  0
 56157  1  0  0  0
 56158  1  0  0  0
 57 58  1  0  0  0
 57159  1  0  0  0
 58 59  1  0  0  0
 58 60  1  0  0  0
 58160  1  0  0  0
 59161  1  0  0  0
 59162  1  0  0  0
 59163  1  0  0  0
 60 61  2  0  0  0
 60 62  1  0  0  0
 62 63  1  0  0  0
 62 64  1  0  0  0
 63164  1  0  0  0
 63165  1  0  0  0
 63166  1  0  0  0
 64 65  1  0  0  0
 64 69  1  0  0  0
 64167  1  0  0  0
 65 66  1  0  0  0
 65168  1  0  0  0
 65169  1  0  0  0
 66 67  1  0  0  0
 66 68  1  0  0  0
 66170  1  0  0  0
 67171  1  0  0  0
 67172  1  0  0  0
 67173  1  0  0  0
 68174  1  0  0  0
 68175  1  0  0  0
 68176  1  0  0  0
 69 70  2  0  0  0
 69 71  1  0  0  0
 71 72  1  0  0  0
 71 73  1  0  0  0
 72177  1  0  0  0
 72178  1  0  0  0
 72179  1  0  0  0
 73 74  1  0  0  0
 73 78  1  0  0  0
 73180  1  0  0  0
 74 75  1  0  0  0
 74181  1  0  0  0
 74182  1  0  0  0
 75 76  1  0  0  0
 75 77  1  0  0  0
 75183  1  0  0  0
 76184  1  0  0  0
 76185  1  0  0  0
 76186  1  0  0  0
 77187  1  0  0  0
 77188  1  0  0  0
 77189  1  0  0  0
 78 79  2  0  0  0
 78 80  1  0  0  0
 80 81  1  0  0  0
 80 82  1  0  0  0
 81190  1  0  0  0
 81191  1  0  0  0
 81192  1  0  0  0
 82 83  1  0  0  0
 82 86  1  0  0  0
 82193  1  0  0  0
 83 84  1  0  0  0
 83 85  1  0  0  0
 83194  1  0  0  0
 84195  1  0  0  0
 84196  1  0  0  0
 84197  1  0  0  0
 85198  1  0  0  0
 85199  1  0  0  0
 85200  1  0  0  0
 86 87  2  0  0  0
M  END
> <s_m_source_file>
../1mik_ligand.sdf

> <i_m_source_file_index>
1

> <s_epik_input>
W0NIM11cW0NIXT1bQ0hdXFtDSDJdW0NAQEhdKFtDSDNdKVtDQEBIXShbT0hdKVtDQEhdKE4xW0NIM10pQyg9TylbTkhdW0NAQEhdKFtDSDJdW0NIMl1bQ0gyXVtPSF0pQyg9TylOKFtDSDNdKVtDSDJdQyg9TylOKFtDSDNdKVtDQEBIXShbQ0gyXVtDSF0oW0NIM10pW0NIM10pQyg9TylbTkhdW0NAQEhdKFtDSF0oW0NIM10pW0NIM10pQyg9TylOKFtDSDNdKVtDQEBIXShbQ0gyXVtDSF0oW0NIM10pW0NIM10pQyg9TylbTkhdW0NAQEhdKFtDSDNdKUMoPU8pW05IXVtDQEhdKFtDSDNdKUMoPU8pTihbQ0gzXSlbQ0BASF0oW0NIMl1bQ0hdKFtDSDNdKVtDSDNdKUMoPU8pTihbQ0gzXSlbQ0BASF0oW0NIMl1bQ0hdKFtDSDNdKVtDSDNdKUMoPU8pTihbQ0gzXSlbQ0BIXShDMT1PKVtDSF0oW0NIM10pW0NIM10=

> <s_epik_cmdline>
J2VwaWtfYXBwJywgJy1pbWFlJywgJ2xpZ2FuZF9wcm8ubWFlJywgJy1vbWFlJywgJ2xpZ2FuZF9wcmVwLm1hZScsICctbXMnLCAnMScsICctcGgnLCAnNycsICctcGh0JywgJzAuNScsICctbnQn

> <s_epik_pKa_notes>
Molecule size exceeds maximum supported for generating protonation states

$$$$
