1mkd_ligand
                    3D
 Schrodinger Suite 2020-3.
 29 30  0  0  1  0            999 V2000
   44.2410    5.3070  116.0970 O   0  0  0  0  0  0
   44.3400    5.5750  117.2810 C   0  0  0  0  0  0
   44.4200    4.5560  118.2300 N   0  0  0  0  0  0
   44.5350    4.8710  119.5950 N   0  0  0  0  0  0
   44.5750    6.0820  120.0540 C   0  0  0  0  0  0
   44.4910    7.2210  119.0520 C   0  0  0  0  0  0
   44.3770    7.0080  117.7210 C   0  0  0  0  0  0
   44.6910    6.2460  121.4060 C   0  0  0  0  0  0
   44.7530    5.1070  122.2860 C   0  0  0  0  0  0
   44.8750    5.2540  123.7050 C   0  0  0  0  0  0
   44.9380    6.5610  124.2820 C   0  0  0  0  0  0
   44.8770    7.7010  123.4130 C   0  0  0  0  0  0
   44.7530    7.5400  122.0140 C   0  0  0  0  0  0
   45.1660    7.7870  126.5070 C   0  0  0  0  0  0
   45.0640    6.6480  125.6510 O   0  0  0  0  0  0
   46.3110    8.5220  126.1970 F   0  0  0  0  0  0
   44.0770    8.6300  126.3890 F   0  0  0  0  0  0
   44.9340    4.1790  124.5490 O   0  0  0  0  0  0
   44.8910    2.7960  124.2100 C   0  0  0  0  0  0
   44.3931    3.5037  117.9107 H   0  0  0  0  0  0
   44.5238    8.2469  119.4189 H   0  0  0  0  0  0
   44.3155    7.8310  117.0090 H   0  0  0  0  0  0
   44.7057    4.1050  121.8595 H   0  0  0  0  0  0
   44.9269    8.7040  123.8369 H   0  0  0  0  0  0
   44.7032    8.4259  121.3809 H   0  0  0  0  0  0
   45.2033    7.4313  127.5472 H   0  0  0  0  0  0
   44.9610    2.1915  125.1264 H   0  0  0  0  0  0
   45.7344    2.5548  123.5463 H   0  0  0  0  0  0
   43.9444    2.5738  123.6956 H   0  0  0  0  0  0
  1  2  2  0  0  0
  2  3  1  0  0  0
  2  7  1  0  0  0
  3  4  1  0  0  0
  3 20  1  0  0  0
  4  5  2  0  0  0
  5  6  1  0  0  0
  5  8  1  0  0  0
  6  7  2  0  0  0
  6 21  1  0  0  0
  7 22  1  0  0  0
  8  9  2  0  0  0
  8 13  1  0  0  0
  9 10  1  0  0  0
  9 23  1  0  0  0
 10 11  2  0  0  0
 10 18  1  0  0  0
 11 12  1  0  0  0
 11 15  1  0  0  0
 12 13  2  0  0  0
 12 24  1  0  0  0
 13 25  1  0  0  0
 14 15  1  0  0  0
 14 16  1  0  0  0
 14 17  1  0  0  0
 14 26  1  0  0  0
 18 19  1  0  0  0
 19 27  1  0  0  0
 19 28  1  0  0  0
 19 29  1  0  0  0
M  END
> <s_m_source_file>
../1mkd_ligand.sdf

> <i_m_source_file_index>
1

> <s_epik_input>
Tz1jMVtuSF1uYyhbY0hdW2NIXTEpLWMyW2NIXWMoT1tDSDNdKWMoW2NIXVtjSF0yKU9bQ0hdKEYpRg==

> <s_epik_cmdline>
J2VwaWtfYXBwJywgJy1pbWFlJywgJ2xpZ2FuZF9wcm8ubWFlJywgJy1vbWFlJywgJ2xpZ2FuZF9wcmVwLm1hZScsICctbXMnLCAnMScsICctcGgnLCAnNycsICctcGh0JywgJzAuNScsICctbnQn

> <r_lp_tautomer_probability>
1

> <r_epik_Ionization_Penalty>
  0.0002

> <r_epik_Ionization_Penalty_Charging>
  0.0002

> <r_epik_Ionization_Penalty_Neutral>
  0.0000

> <r_epik_State_Penalty>
 -0.0000

> <r_epik_Charging_Adjusted_Penalty>
0.000157085814449251

> <i_epik_Tot_Q>
0

> <i_epik_Tot_abs_Q>
0

$$$$
