1ml1_ligand
                    3D
 Schrodinger Suite 2020-3.
 11 10  0  0  1  0            999 V2000
   38.3890   -4.0920   -8.4460 P   0  0  0  0  0  0
   38.8430   -3.2020   -7.2220 O   0  0  0  0  0  0
   37.9810   -5.4300   -7.9080 O   0  0  0  0  0  0
   39.5560   -4.1360   -9.3950 O   0  5  0  0  0  0
   37.1670   -3.3930   -9.1210 O   0  5  0  0  0  0
   38.0740   -3.2370   -6.0530 C   0  0  0  0  0  0
   38.5600   -2.2780   -5.0130 C   0  0  0  0  0  0
   37.7380   -2.0760   -4.0620 O   0  5  0  0  0  0
   39.6520   -1.7570   -5.0910 O   0  0  0  0  0  0
   37.0324   -2.9759   -6.2914 H   0  0  0  0  0  0
   38.1089   -4.2481   -5.6213 H   0  0  0  0  0  0
  1  2  1  0  0  0
  1  3  2  0  0  0
  1  4  1  0  0  0
  1  5  1  0  0  0
  2  6  1  0  0  0
  6  7  1  0  0  0
  6 10  1  0  0  0
  6 11  1  0  0  0
  7  8  1  0  0  0
  7  9  2  0  0  0
M  CHG  3   4  -1   5  -1   8  -1
M  END
> <s_m_source_file>
../1ml1_ligand.sdf

> <i_m_source_file_index>
1

> <s_epik_input>
Tz1QKFtPSF0pKFtPSF0pT1tDSDJdQyg9TylbT0hd

> <s_epik_cmdline>
J2VwaWtfYXBwJywgJy1pbWFlJywgJ2xpZ2FuZF9wcm8ubWFlJywgJy1vbWFlJywgJ2xpZ2FuZF9wcmVwLm1hZScsICctbXMnLCAnMScsICctcGgnLCAnNycsICctcGh0JywgJzAuNScsICctbnQn

> <r_epik_Ionization_Penalty>
  0.1459

> <r_epik_Ionization_Penalty_Charging>
  0.1459

> <r_epik_Ionization_Penalty_Neutral>
  0.0000

> <r_epik_State_Penalty>
  0.1346

> <r_epik_Charging_Adjusted_Penalty>
0.280492608850728

> <i_epik_Tot_Q>
-3

> <i_epik_Tot_abs_Q>
3

$$$$
