1mm7_ligand
                    3D
 Schrodinger Suite 2020-3.
 19 19  0  0  1  0            999 V2000
   76.3200   25.9240   44.9670 C   0  0  0  0  0  0
   76.2290   26.2240   43.4660 C   0  0  2  0  0  0
   77.6700   26.5420   43.0440 C   0  0  0  0  0  0
   77.9500   24.8220   41.1760 C   0  0  0  0  0  0
   77.3830   26.2010   39.4900 C   0  0  0  0  0  0
   75.2300   27.3370   43.3670 N   0  3  0  0  0  0
   77.9110   26.1050   41.6570 N   0  0  0  0  0  0
   77.6320   24.9180   39.8630 N   0  0  0  0  0  0
   75.5970   26.5530   45.7490 O   0  0  0  0  0  0
   77.1170   25.0430   45.3260 O   0  5  0  0  0  0
   78.2130   23.8670   41.8330 O   0  5  0  0  0  0
   77.0700   26.6560   38.4150 O   0  0  0  0  0  0
   77.5450   26.9980   40.5930 O   0  0  0  0  0  0
   75.8599   25.4409   42.7874 H   0  0  0  0  0  0
   77.8409   27.6266   43.1114 H   0  0  0  0  0  0
   78.3713   26.0182   43.7103 H   0  0  0  0  0  0
   74.2449   26.9760   43.6977 H   0  0  0  0  0  0
   75.1640   27.6787   42.3235 H   0  0  0  0  0  0
   75.5480   28.1731   44.0072 H   0  0  0  0  0  0
  1  2  1  0  0  0
  1  9  2  0  0  0
  1 10  1  0  0  0
  2  3  1  0  0  0
  2  6  1  0  0  0
  2 14  1  0  0  0
  3  7  1  0  0  0
  3 15  1  0  0  0
  3 16  1  0  0  0
  4 11  1  0  0  0
  4  8  2  0  0  0
  4  7  1  0  0  0
  5 13  1  0  0  0
  5 12  2  0  0  0
  5  8  1  0  0  0
  6 17  1  0  0  0
  6 18  1  0  0  0
  6 19  1  0  0  0
  7 13  1  0  0  0
M  CHG  3   6   1  10  -1  11  -1
M  END
> <s_m_source_file>
../1mm7_ligand.sdf

> <i_m_source_file_index>
1

> <s_epik_input>
Tz1DKFtPSF0pW0NAQEhdKFtOSDMrXSlbQ0gyXW4oYzE9TylvYyg9TylbbkhdMQ==

> <s_epik_cmdline>
J2VwaWtfYXBwJywgJy1pbWFlJywgJ2xpZ2FuZF9wcm8ubWFlJywgJy1vbWFlJywgJ2xpZ2FuZF9wcmVwLm1hZScsICctbXMnLCAnMScsICctcGgnLCAnNycsICctcGh0JywgJzAuNScsICctbnQn

> <r_lp_tautomer_probability>
1

> <r_epik_Ionization_Penalty>
  0.0168

> <r_epik_Ionization_Penalty_Charging>
  0.0168

> <r_epik_Ionization_Penalty_Neutral>
  0.0000

> <r_epik_State_Penalty>
 -0.0000

> <r_epik_Charging_Adjusted_Penalty>
0.016811680713678

> <i_epik_Tot_Q>
-1

> <i_epik_Tot_abs_Q>
3

$$$$
