1mmp_ligand
                    3D
 Schrodinger Suite 2020-3.
 66 68  0  0  1  0            999 V2000
   11.5580   44.7910   66.3890 C   0  0  0  0  0  0
   11.9450   44.4720   65.1460 O   0  5  0  0  0  0
   12.2690   45.6630   66.8920 O   0  0  0  0  0  0
   10.3330   44.2360   67.0360 C   0  0  0  0  0  0
    9.3130   45.3600   67.1760 C   0  0  2  0  0  0
    8.3840   44.9480   68.3140 C   0  0  0  0  0  0
    7.6430   43.9600   68.2230 O   0  0  0  0  0  0
    8.4420   45.6720   69.4300 N   0  0  0  0  0  0
    7.6250   45.3850   70.6030 C   0  0  2  0  0  0
    6.2760   46.0300   70.5310 C   0  0  0  0  0  0
    6.1860   47.2190   70.2100 O   0  0  0  0  0  0
    5.2370   45.2760   70.8750 N   0  0  0  0  0  0
    3.8440   45.7640   70.9240 C   0  0  0  0  0  0
    3.0340   44.7920   71.8460 C   0  0  0  0  0  0
    3.5640   44.6450   73.2990 C   0  0  0  0  0  0
    3.4420   45.9070   74.1870 C   0  0  0  0  0  0
    3.9970   45.6940   75.6130 C   0  0  0  0  0  0
    5.3930   46.2940   75.9250 C   0  0  0  0  0  0
    6.3890   45.7520   74.9850 N   0  0  0  0  0  0
    8.5260   45.5910   65.8840 C   0  0  0  0  0  0
    7.4860   46.7310   65.9280 C   0  0  0  0  0  0
    8.1430   48.1020   66.1570 C   0  0  0  0  0  0
    6.7010   46.6780   64.6190 C   0  0  0  0  0  0
    8.3830   45.8870   71.8460 C   0  0  0  0  0  0
    7.6940   45.5410   73.1080 C   0  0  0  0  0  0
    6.8560   46.3740   73.8590 C   0  0  0  0  0  0
    7.7320   44.3310   73.8390 C   0  0  0  0  0  0
    6.9140   44.4990   74.9990 C   0  0  0  0  0  0
    8.3880   43.1240   73.6100 C   0  0  0  0  0  0
    6.7590   43.4620   75.9200 C   0  0  0  0  0  0
    8.2290   42.1010   74.5370 C   0  0  0  0  0  0
    7.4220   42.2710   75.6800 C   0  0  0  0  0  0
    9.9216   43.4296   66.4111 H   0  0  0  0  0  0
   10.5912   43.8360   68.0276 H   0  0  0  0  0  0
    9.8207   46.3120   67.3905 H   0  0  0  0  0  0
    9.1447   46.5182   69.4428 H   0  0  0  0  0  0
    7.4538   44.2984   70.6045 H   0  0  0  0  0  0
    5.4630   44.2308   71.1327 H   0  0  0  0  0  0
    3.8272   46.7845   71.3341 H   0  0  0  0  0  0
    3.4216   45.7701   69.9083 H   0  0  0  0  0  0
    1.9961   45.1465   71.9304 H   0  0  0  0  0  0
    3.0422   43.7818   71.4108 H   0  0  0  0  0  0
    3.0057   43.8495   73.8142 H   0  0  0  0  0  0
    4.6329   44.3862   73.2750 H   0  0  0  0  0  0
    4.0044   46.7337   73.7285 H   0  0  0  0  0  0
    2.3830   46.1902   74.2783 H   0  0  0  0  0  0
    3.3116   46.1467   76.3446 H   0  0  0  0  0  0
    4.0880   44.6163   75.8139 H   0  0  0  0  0  0
    5.3530   47.3885   75.8222 H   0  0  0  0  0  0
    5.6829   46.0327   76.9534 H   0  0  0  0  0  0
    9.2226   45.8406   65.0700 H   0  0  0  0  0  0
    7.9710   44.6774   65.6244 H   0  0  0  0  0  0
    6.7981   46.5967   66.7758 H   0  0  0  0  0  0
    8.6944   48.0899   67.1087 H   0  0  0  0  0  0
    7.3658   48.8795   66.1934 H   0  0  0  0  0  0
    8.8388   48.3174   65.3327 H   0  0  0  0  0  0
    6.2516   45.6809   64.5011 H   0  0  0  0  0  0
    7.3796   46.8764   63.7763 H   0  0  0  0  0  0
    5.9065   47.4385   64.6369 H   0  0  0  0  0  0
    9.3850   45.4339   71.8722 H   0  0  0  0  0  0
    8.4768   46.9821   71.8008 H   0  0  0  0  0  0
    6.6051   47.3973   73.5798 H   0  0  0  0  0  0
    9.0104   42.9853   72.7260 H   0  0  0  0  0  0
    6.1332   43.5865   76.8037 H   0  0  0  0  0  0
    8.7374   41.1502   74.3773 H   0  0  0  0  0  0
    7.3181   41.4490   76.3883 H   0  0  0  0  0  0
  1  4  1  0  0  0
  1  3  2  0  0  0
  1  2  1  0  0  0
  4  5  1  0  0  0
  4 33  1  0  0  0
  4 34  1  0  0  0
  5 20  1  0  0  0
  5  6  1  0  0  0
  5 35  1  0  0  0
  6  8  1  0  0  0
  6  7  2  0  0  0
  8  9  1  0  0  0
  8 36  1  0  0  0
  9 24  1  0  0  0
  9 10  1  0  0  0
  9 37  1  0  0  0
 10 12  1  0  0  0
 10 11  2  0  0  0
 12 13  1  0  0  0
 12 38  1  0  0  0
 13 14  1  0  0  0
 13 39  1  0  0  0
 13 40  1  0  0  0
 14 15  1  0  0  0
 14 41  1  0  0  0
 14 42  1  0  0  0
 15 16  1  0  0  0
 15 43  1  0  0  0
 15 44  1  0  0  0
 16 17  1  0  0  0
 16 45  1  0  0  0
 16 46  1  0  0  0
 17 18  1  0  0  0
 17 47  1  0  0  0
 17 48  1  0  0  0
 18 19  1  0  0  0
 18 49  1  0  0  0
 18 50  1  0  0  0
 19 28  1  0  0  0
 19 26  1  0  0  0
 20 21  1  0  0  0
 20 51  1  0  0  0
 20 52  1  0  0  0
 21 23  1  0  0  0
 21 22  1  0  0  0
 21 53  1  0  0  0
 22 54  1  0  0  0
 22 55  1  0  0  0
 22 56  1  0  0  0
 23 57  1  0  0  0
 23 58  1  0  0  0
 23 59  1  0  0  0
 24 25  1  0  0  0
 24 60  1  0  0  0
 24 61  1  0  0  0
 25 26  2  0  0  0
 25 27  1  0  0  0
 26 62  1  0  0  0
 27 29  2  0  0  0
 27 28  1  0  0  0
 28 30  2  0  0  0
 29 31  1  0  0  0
 29 63  1  0  0  0
 30 32  1  0  0  0
 30 64  1  0  0  0
 31 32  2  0  0  0
 31 65  1  0  0  0
 32 66  1  0  0  0
M  CHG  1   2  -1
M  END
> <s_m_source_file>
../1mmp_ligand.sdf

> <i_m_source_file_index>
1

> <s_epik_input>
W2NIXTFbY0hdW2NIXVtjSF1jKGMxbjIzKWMoW2NIXTMpW0NIMl1bQ0BIXShbTkhdQyg9TylbQ0BASF0oW0NIMl1DKD1PKVtPSF0pW0NIMl1bQ0hdKFtDSDNdKVtDSDNdKUMoPU8pW05IXVtDSDJdW0NIMl1bQ0gyXVtDSDJdW0NIMl1bQ0gyXTI=

> <s_epik_cmdline>
J2VwaWtfYXBwJywgJy1pbWFlJywgJ2xpZ2FuZF9wcm8ubWFlJywgJy1vbWFlJywgJ2xpZ2FuZF9wcmVwLm1hZScsICctbXMnLCAnMScsICctcGgnLCAnNycsICctcGh0JywgJzAuNScsICctbnQn

> <r_lp_tautomer_probability>
1

> <r_epik_Ionization_Penalty>
  0.0051

> <r_epik_Ionization_Penalty_Charging>
  0.0051

> <r_epik_Ionization_Penalty_Neutral>
  0.0000

> <r_epik_State_Penalty>
 -0.0000

> <r_epik_Charging_Adjusted_Penalty>
0.00508233725903642

> <i_epik_Tot_Q>
-1

> <i_epik_Tot_abs_Q>
1

$$$$
