1mmq_ligand
                    3D
 Schrodinger Suite 2020-3.
 69 71  0  0  1  0            999 V2000
   47.9690  -40.9710   50.9150 C   0  0  0  0  0  0
   46.7560  -40.8270   50.6010 O   0  0  0  0  0  0
   48.6030  -41.4840   51.9510 N   0  0  0  0  0  0
   47.7630  -42.0180   52.9250 O   0  0  0  0  0  0
   48.7780  -40.2470   49.8760 C   0  0  0  0  0  0
   48.5080  -38.7240   49.9700 C   0  0  2  0  0  0
   49.3260  -38.1390   48.8410 C   0  0  0  0  0  0
   50.5570  -38.0660   48.8950 O   0  0  0  0  0  0
   48.6280  -37.7230   47.8030 N   0  0  0  0  0  0
   49.2790  -37.1970   46.6100 C   0  0  2  0  0  0
   49.4630  -35.6890   46.5510 C   0  0  0  0  0  0
   48.5070  -34.9340   46.7340 O   0  0  0  0  0  0
   50.6620  -35.2420   46.2130 N   0  0  0  0  0  0
   50.9740  -33.8060   46.0610 C   0  0  0  0  0  0
   52.1870  -33.6750   45.1100 C   0  0  0  0  0  0
   51.9670  -34.3030   43.7170 C   0  0  0  0  0  0
   51.0420  -33.5000   42.7770 C   0  0  0  0  0  0
   50.8080  -34.1630   41.3970 C   0  0  0  0  0  0
   49.5550  -35.0600   41.2300 C   0  0  0  0  0  0
   49.5110  -36.1720   42.1950 N   0  0  0  0  0  0
   48.8780  -38.0780   51.3260 C   0  0  0  0  0  0
   48.3890  -36.6150   51.4910 C   0  0  0  0  0  0
   46.8610  -36.4940   51.3370 C   0  0  0  0  0  0
   48.7840  -36.1460   52.8970 C   0  0  0  0  0  0
   48.4360  -37.7410   45.4080 C   0  0  0  0  0  0
   49.0240  -37.3630   44.0980 C   0  0  0  0  0  0
   48.7600  -36.1950   43.3410 C   0  0  0  0  0  0
   49.9890  -38.0740   43.3560 C   0  0  0  0  0  0
   50.2680  -37.3070   42.1780 C   0  0  0  0  0  0
   50.6390  -39.2930   43.5890 C   0  0  0  0  0  0
   51.1970  -37.7840   41.2510 C   0  0  0  0  0  0
   51.5690  -39.7590   42.6520 C   0  0  0  0  0  0
   51.8400  -39.0080   41.4950 C   0  0  0  0  0  0
   49.6940  -41.5156   52.0881 H   0  0  0  0  0  0
   48.1905  -42.4714   53.8315 H   0  0  0  0  0  0
   49.8479  -40.4384   50.0454 H   0  0  0  0  0  0
   48.4953  -40.6060   48.8754 H   0  0  0  0  0  0
   47.4337  -38.5088   49.8720 H   0  0  0  0  0  0
   47.5305  -37.7795   47.8511 H   0  0  0  0  0  0
   50.3210  -37.5454   46.6641 H   0  0  0  0  0  0
   51.4448  -35.9959   46.0431 H   0  0  0  0  0  0
   50.1029  -33.2843   45.6378 H   0  0  0  0  0  0
   51.2159  -33.3772   47.0447 H   0  0  0  0  0  0
   52.4162  -32.6107   44.9525 H   0  0  0  0  0  0
   53.0588  -34.1756   45.5565 H   0  0  0  0  0  0
   52.9338  -34.3985   43.2010 H   0  0  0  0  0  0
   51.5125  -35.2982   43.8311 H   0  0  0  0  0  0
   50.0554  -33.3797   43.2484 H   0  0  0  0  0  0
   51.4815  -32.5094   42.5884 H   0  0  0  0  0  0
   50.7085  -33.3831   40.6277 H   0  0  0  0  0  0
   51.6617  -34.8123   41.1526 H   0  0  0  0  0  0
   48.6484  -34.4544   41.3763 H   0  0  0  0  0  0
   49.5468  -35.4940   40.2193 H   0  0  0  0  0  0
   48.4302  -38.6610   52.1442 H   0  0  0  0  0  0
   49.9720  -38.0663   51.4402 H   0  0  0  0  0  0
   48.8503  -35.9897   50.7124 H   0  0  0  0  0  0
   46.5663  -36.8281   50.3313 H   0  0  0  0  0  0
   46.5602  -35.4453   51.4779 H   0  0  0  0  0  0
   46.3655  -37.1222   52.0919 H   0  0  0  0  0  0
   49.8742  -36.2282   53.0181 H   0  0  0  0  0  0
   48.2832  -36.7752   53.6476 H   0  0  0  0  0  0
   48.4779  -35.0983   53.0335 H   0  0  0  0  0  0
   48.3903  -38.8389   45.4593 H   0  0  0  0  0  0
   47.4173  -37.3289   45.4583 H   0  0  0  0  0  0
   48.0532  -35.4177   43.6316 H   0  0  0  0  0  0
   50.4235  -39.8709   44.4878 H   0  0  0  0  0  0
   51.4201  -37.2134   40.3495 H   0  0  0  0  0  0
   52.0835  -40.7052   42.8198 H   0  0  0  0  0  0
   52.5643  -39.3837   40.7723 H   0  0  0  0  0  0
  1  5  1  0  0  0
  1  3  1  0  0  0
  1  2  2  0  0  0
  3  4  1  0  0  0
  3 34  1  0  0  0
  4 35  1  0  0  0
  5  6  1  0  0  0
  5 36  1  0  0  0
  5 37  1  0  0  0
  6 21  1  0  0  0
  6  7  1  0  0  0
  6 38  1  0  0  0
  7  9  1  0  0  0
  7  8  2  0  0  0
  9 10  1  0  0  0
  9 39  1  0  0  0
 10 25  1  0  0  0
 10 11  1  0  0  0
 10 40  1  0  0  0
 11 13  1  0  0  0
 11 12  2  0  0  0
 13 14  1  0  0  0
 13 41  1  0  0  0
 14 15  1  0  0  0
 14 42  1  0  0  0
 14 43  1  0  0  0
 15 16  1  0  0  0
 15 44  1  0  0  0
 15 45  1  0  0  0
 16 17  1  0  0  0
 16 46  1  0  0  0
 16 47  1  0  0  0
 17 18  1  0  0  0
 17 48  1  0  0  0
 17 49  1  0  0  0
 18 19  1  0  0  0
 18 50  1  0  0  0
 18 51  1  0  0  0
 19 20  1  0  0  0
 19 52  1  0  0  0
 19 53  1  0  0  0
 20 29  1  0  0  0
 20 27  1  0  0  0
 21 22  1  0  0  0
 21 54  1  0  0  0
 21 55  1  0  0  0
 22 24  1  0  0  0
 22 23  1  0  0  0
 22 56  1  0  0  0
 23 57  1  0  0  0
 23 58  1  0  0  0
 23 59  1  0  0  0
 24 60  1  0  0  0
 24 61  1  0  0  0
 24 62  1  0  0  0
 25 26  1  0  0  0
 25 63  1  0  0  0
 25 64  1  0  0  0
 26 27  2  0  0  0
 26 28  1  0  0  0
 27 65  1  0  0  0
 28 30  2  0  0  0
 28 29  1  0  0  0
 29 31  2  0  0  0
 30 32  1  0  0  0
 30 66  1  0  0  0
 31 33  1  0  0  0
 31 67  1  0  0  0
 32 33  2  0  0  0
 32 68  1  0  0  0
 33 69  1  0  0  0
M  END
> <s_m_source_file>
../1mmq_ligand.sdf

> <i_m_source_file_index>
1

> <s_epik_input>
W09IXVtOSF1DKD1PKVtDSDJdW0NAQEhdKFtDSDJdW0NIXShbQ0gzXSlbQ0gzXSlDKD1PKVtOSF1bQ0BASF0oW0NIMl1jKFtjSF0xKWMoYzJuMTMpW2NIXVtjSF1bY0hdW2NIXTIpQyg9TylbTkhdW0NIMl1bQ0gyXVtDSDJdW0NIMl1bQ0gyXVtDSDJdMw==

> <s_epik_cmdline>
J2VwaWtfYXBwJywgJy1pbWFlJywgJ2xpZ2FuZF9wcm8ubWFlJywgJy1vbWFlJywgJ2xpZ2FuZF9wcmVwLm1hZScsICctbXMnLCAnMScsICctcGgnLCAnNycsICctcGh0JywgJzAuNScsICctbnQn

> <r_lp_tautomer_probability>
1

> <r_epik_Ionization_Penalty>
  0.0054

> <r_epik_Ionization_Penalty_Charging>
  0.0000

> <r_epik_Ionization_Penalty_Neutral>
  0.0054

> <r_epik_State_Penalty>
 -0.0000

> <r_epik_Charging_Adjusted_Penalty>
0

> <i_epik_Tot_Q>
0

> <i_epik_Tot_abs_Q>
0

> <s_epik_Chemistry_Notes>
This compound has a N-S or N-O group and may undergo hydrolysis at high or low pH.

$$$$
