1mmr_ligand
                    3D
 Schrodinger Suite 2020-3.
 72 74  0  0  1  0            999 V2000
   48.5470  -41.6620   50.4750 S   0  0  0  0  0  0
   46.9890  -41.6190   50.1060 N   0  0  0  0  0  0
   48.4480  -42.3000   51.9330 N   0  0  0  0  0  0
   49.3690  -40.1680   50.8410 C   0  0  0  0  0  0
   48.8240  -38.9520   50.0840 C   0  0  2  0  0  0
   49.5880  -38.6050   48.8100 C   0  0  0  0  0  0
   50.8160  -38.6870   48.7630 O   0  0  0  0  0  0
   48.8960  -38.1550   47.7650 N   0  0  0  0  0  0
   49.5600  -37.7740   46.5250 C   0  0  2  0  0  0
   49.6590  -36.2600   46.4320 C   0  0  0  0  0  0
   48.6950  -35.5400   46.6970 O   0  0  0  0  0  0
   50.8270  -35.7590   46.0590 N   0  0  0  0  0  0
   51.0670  -34.3230   45.8780 C   0  0  0  0  0  0
   52.3220  -34.1660   44.9690 C   0  0  0  0  0  0
   52.0110  -33.5720   43.5890 C   0  0  0  0  0  0
   51.5760  -34.6190   42.5870 C   0  0  0  0  0  0
   50.3440  -34.1920   41.7760 C   0  0  0  0  0  0
   49.6180  -35.4330   41.2040 C   0  0  0  0  0  0
   49.6220  -36.5760   42.1510 N   0  0  0  0  0  0
   49.0010  -37.7940   51.0950 C   0  0  0  0  0  0
   48.1640  -36.5100   51.0830 C   0  0  0  0  0  0
   46.6720  -36.7350   50.7500 C   0  0  0  0  0  0
   48.2860  -35.9550   52.5160 C   0  0  0  0  0  0
   48.7740  -38.3430   45.3280 C   0  0  0  0  0  0
   49.3070  -37.8690   44.0140 C   0  0  0  0  0  0
   48.9740  -36.6760   43.3370 C   0  0  0  0  0  0
   50.2170  -38.5150   43.1610 C   0  0  0  0  0  0
   50.3870  -37.6860   42.0150 C   0  0  0  0  0  0
   50.9060  -39.7270   43.2620 C   0  0  0  0  0  0
   51.2480  -38.0770   40.9750 C   0  0  0  0  0  0
   51.7560  -40.1120   42.2220 C   0  0  0  0  0  0
   51.9280  -39.2970   41.0880 C   0  0  0  0  0  0
   49.5390  -42.6890   49.4600 C   0  0  0  0  0  0
   46.4548  -40.6576   50.0864 H   0  0  0  0  0  0
   48.8595  -41.7602   52.7986 H   0  0  0  0  0  0
   49.2730  -39.9503   51.9150 H   0  0  0  0  0  0
   50.4334  -40.2615   50.5796 H   0  0  0  0  0  0
   47.7975  -39.1516   49.7428 H   0  0  0  0  0  0
   47.8024  -38.0735   47.8508 H   0  0  0  0  0  0
   50.5745  -38.1975   46.5625 H   0  0  0  0  0  0
   51.6398  -36.4789   45.8831 H   0  0  0  0  0  0
   50.1890  -33.8616   45.4024 H   0  0  0  0  0  0
   51.2421  -33.8542   46.8576 H   0  0  0  0  0  0
   53.0475  -33.4989   45.4576 H   0  0  0  0  0  0
   52.7823  -35.1517   44.8059 H   0  0  0  0  0  0
   51.1987  -32.8360   43.6812 H   0  0  0  0  0  0
   52.9099  -33.0781   43.1913 H   0  0  0  0  0  0
   52.3948  -34.8104   41.8779 H   0  0  0  0  0  0
   51.3237  -35.5500   43.1157 H   0  0  0  0  0  0
   49.6502  -33.6394   42.4267 H   0  0  0  0  0  0
   50.6590  -33.5459   40.9433 H   0  0  0  0  0  0
   48.5710  -35.1766   40.9849 H   0  0  0  0  0  0
   50.1177  -35.7561   40.2789 H   0  0  0  0  0  0
   48.8252  -38.1674   52.1146 H   0  0  0  0  0  0
   50.0239  -37.3962   51.0215 H   0  0  0  0  0  0
   48.5401  -35.8369   50.2984 H   0  0  0  0  0  0
   46.5801  -37.1312   49.7279 H   0  0  0  0  0  0
   46.1319  -35.7795   50.8228 H   0  0  0  0  0  0
   46.2418  -37.4545   51.4622 H   0  0  0  0  0  0
   49.3469  -35.7932   52.7574 H   0  0  0  0  0  0
   47.8540  -36.6754   53.2262 H   0  0  0  0  0  0
   47.7441  -35.0004   52.5868 H   0  0  0  0  0  0
   48.8320  -39.4414   45.3400 H   0  0  0  0  0  0
   47.7216  -38.0307   45.3985 H   0  0  0  0  0  0
   48.2810  -35.9274   43.7209 H   0  0  0  0  0  0
   50.7820  -40.3623   44.1390 H   0  0  0  0  0  0
   51.3840  -37.4439   40.0982 H   0  0  0  0  0  0
   52.2938  -41.0576   42.2902 H   0  0  0  0  0  0
   52.5969  -39.6178   40.2894 H   0  0  0  0  0  0
   50.5837  -42.6427   49.8013 H   0  0  0  0  0  0
   49.4782  -42.3430   48.4176 H   0  0  0  0  0  0
   49.1780  -43.7261   49.5238 H   0  0  0  0  0  0
  1 33  1  0  0  0
  1  4  1  0  0  0
  1  3  2  0  0  0
  1  2  2  0  0  0
  2 34  1  0  0  0
  3 35  1  0  0  0
  4  5  1  0  0  0
  4 36  1  0  0  0
  4 37  1  0  0  0
  5 20  1  0  0  0
  5  6  1  0  0  0
  5 38  1  0  0  0
  6  8  1  0  0  0
  6  7  2  0  0  0
  8  9  1  0  0  0
  8 39  1  0  0  0
  9 24  1  0  0  0
  9 10  1  0  0  0
  9 40  1  0  0  0
 10 12  1  0  0  0
 10 11  2  0  0  0
 12 13  1  0  0  0
 12 41  1  0  0  0
 13 14  1  0  0  0
 13 42  1  0  0  0
 13 43  1  0  0  0
 14 15  1  0  0  0
 14 44  1  0  0  0
 14 45  1  0  0  0
 15 16  1  0  0  0
 15 46  1  0  0  0
 15 47  1  0  0  0
 16 17  1  0  0  0
 16 48  1  0  0  0
 16 49  1  0  0  0
 17 18  1  0  0  0
 17 50  1  0  0  0
 17 51  1  0  0  0
 18 19  1  0  0  0
 18 52  1  0  0  0
 18 53  1  0  0  0
 19 28  1  0  0  0
 19 26  1  0  0  0
 20 21  1  0  0  0
 20 54  1  0  0  0
 20 55  1  0  0  0
 21 23  1  0  0  0
 21 22  1  0  0  0
 21 56  1  0  0  0
 22 57  1  0  0  0
 22 58  1  0  0  0
 22 59  1  0  0  0
 23 60  1  0  0  0
 23 61  1  0  0  0
 23 62  1  0  0  0
 24 25  1  0  0  0
 24 63  1  0  0  0
 24 64  1  0  0  0
 25 26  2  0  0  0
 25 27  1  0  0  0
 26 65  1  0  0  0
 27 29  2  0  0  0
 27 28  1  0  0  0
 28 30  2  0  0  0
 29 31  1  0  0  0
 29 66  1  0  0  0
 30 32  1  0  0  0
 30 67  1  0  0  0
 31 32  2  0  0  0
 31 68  1  0  0  0
 32 69  1  0  0  0
 33 70  1  0  0  0
 33 71  1  0  0  0
 33 72  1  0  0  0
M  END
> <s_m_source_file>
../1mmr_ligand.sdf

> <i_m_source_file_index>
1

> <s_epik_input>
W2NIXTFbY0hdW2NIXVtjSF1jKGMxbjIzKWMoW2NIXTMpW0NIMl1bQ0BIXShbTkhdQyg9TylbQ0BASF0oW0NIMl1TKD1bTkhdKSg9W05IXSlbQ0gzXSlbQ0gyXVtDSF0oW0NIM10pW0NIM10pQyg9TylbTkhdW0NIMl1bQ0gyXVtDSDJdW0NIMl1bQ0gyXVtDSDJdMg==

> <s_epik_cmdline>
J2VwaWtfYXBwJywgJy1pbWFlJywgJ2xpZ2FuZF9wcm8ubWFlJywgJy1vbWFlJywgJ2xpZ2FuZF9wcmVwLm1hZScsICctbXMnLCAnMScsICctcGgnLCAnNycsICctcGh0JywgJzAuNScsICctbnQn

> <r_lp_tautomer_probability>
1

> <r_epik_Ionization_Penalty>
  0.0000

> <r_epik_Ionization_Penalty_Charging>
  0.0000

> <r_epik_Ionization_Penalty_Neutral>
  0.0000

> <r_epik_State_Penalty>
 -0.0000

> <r_epik_Charging_Adjusted_Penalty>
0

> <i_epik_Tot_Q>
0

> <i_epik_Tot_abs_Q>
0

$$$$
