1mn9_ligand
                    3D
 Schrodinger Suite 2020-3.
 40 41  0  0  1  0            999 V2000
   70.0200   29.1910    2.1890 P   0  0  0  0  0  0
   70.4090   30.4430    2.9010 O   0  5  0  0  0  0
   70.1770   27.9030    2.9240 O   0  5  0  0  0  0
   70.6850   29.3210    0.8610 O   0  0  0  0  0  0
   68.4370   29.3140    1.8860 O   0  0  0  0  0  0
   67.3110   29.1810    0.7370 P   0  0  1  0  0  0
   67.5840   27.9800   -0.0980 O   0  5  0  0  0  0
   65.9830   29.3250    1.3750 O   0  0  0  0  0  0
   67.4870   30.4490   -0.2150 O   0  0  0  0  0  0
   68.2070   30.6740   -1.6210 P   0  0  2  0  0  0
   67.1900   30.7300   -2.7040 O   0  5  0  0  0  0
   69.3520   29.7350   -1.7300 O   0  0  0  0  0  0
   68.7850   32.1350   -1.3840 O   0  0  0  0  0  0
   69.7850   32.3530   -0.4040 C   0  0  0  0  0  0
   69.3340   33.4110    0.5640 C   0  0  1  0  0  0
   69.3620   34.7110   -0.0840 O   0  0  0  0  0  0
   68.2010   35.4600    0.2670 C   0  0  1  0  0  0
   67.3870   35.6090   -0.9340 N   0  0  0  0  0  0
   66.7520   36.7470   -1.3400 N   0  0  0  0  0  0
   65.2750   38.5860   -2.7230 N   0  0  0  0  0  0
   65.3130   37.3100   -3.2900 C   0  0  0  0  0  0
   64.6960   37.0780   -4.3350 O   0  0  0  0  0  0
   66.1010   36.4210   -2.5240 C   0  0  0  0  0  0
   66.3460   35.0870   -2.8370 N   0  0  0  0  0  0
   67.1060   34.6510   -1.8730 C   0  0  0  0  0  0
   67.4720   34.6990    1.3770 C   0  0  2  0  0  0
   67.9550   35.1380    2.6350 O   0  0  0  0  0  0
   67.9030   33.2870    1.0440 C   0  0  2  0  0  0
   67.7990   32.4120    2.1590 O   0  0  0  0  0  0
   69.9719   31.4174    0.1435 H   0  0  0  0  0  0
   70.7130   32.6827   -0.8941 H   0  0  0  0  0  0
   70.0383   33.3237    1.4044 H   0  0  0  0  0  0
   68.4847   36.4708    0.5953 H   0  0  0  0  0  0
   64.6988   39.3870   -3.2092 H   0  0  0  0  0  0
   65.8213   38.7899   -1.7903 H   0  0  0  0  0  0
   67.4802   33.6287   -1.8187 H   0  0  0  0  0  0
   66.3878   34.8389    1.4991 H   0  0  0  0  0  0
   67.7118   36.1484    2.9954 H   0  0  0  0  0  0
   67.2350   32.7942    0.3223 H   0  0  0  0  0  0
   68.0809   31.3538    2.0558 H   0  0  0  0  0  0
  1  2  1  0  0  0
  1  3  1  0  0  0
  1  4  2  0  0  0
  1  5  1  0  0  0
  5  6  1  0  0  0
  6  7  1  0  0  0
  6  8  2  0  0  0
  6  9  1  0  0  0
  9 10  1  0  0  0
 10 11  1  0  0  0
 10 12  2  0  0  0
 10 13  1  0  0  0
 13 14  1  0  0  0
 14 15  1  0  0  0
 14 30  1  0  0  0
 14 31  1  0  0  0
 15 16  1  0  0  0
 15 28  1  0  0  0
 15 32  1  0  0  0
 16 17  1  0  0  0
 17 18  1  0  0  0
 17 26  1  0  0  0
 17 33  1  0  0  0
 18 19  1  0  0  0
 18 25  1  0  0  0
 19 23  2  0  0  0
 20 21  1  0  0  0
 20 34  1  0  0  0
 20 35  1  0  0  0
 21 22  2  0  0  0
 21 23  1  0  0  0
 23 24  1  0  0  0
 24 25  2  0  0  0
 25 36  1  0  0  0
 26 27  1  0  0  0
 26 28  1  0  0  0
 26 37  1  0  0  0
 27 38  1  0  0  0
 28 29  1  0  0  0
 28 39  1  0  0  0
 29 40  1  0  0  0
M  CHG  4   2  -1   3  -1   7  -1  11  -1
M  END
> <s_m_source_file>
../1mn9_ligand.sdf

> <i_m_source_file_index>
1

> <s_epik_input>
W09IXVAoPU8pKFtPSF0pT1tQQF0oPU8pKFtPSF0pT1tQQEBdKD1PKShbT0hdKU9bQ0gyXVtDQEhdMU9bQ0BIXShbQ0BIXShbT0hdKVtDQEBIXTFbT0hdKW4ybmMoQyg9TylbTkgyXSluW2NIXTI=

> <s_epik_cmdline>
J2VwaWtfYXBwJywgJy1pbWFlJywgJ2xpZ2FuZF9wcm8ubWFlJywgJy1vbWFlJywgJ2xpZ2FuZF9wcmVwLm1hZScsICctbXMnLCAnMScsICctcGgnLCAnNycsICctcGh0JywgJzAuNScsICctbnQn

> <r_lp_tautomer_probability>
1

> <r_epik_Ionization_Penalty>
  0.0814

> <r_epik_Ionization_Penalty_Charging>
  0.0813

> <r_epik_Ionization_Penalty_Neutral>
  0.0000

> <r_epik_State_Penalty>
  0.0708

> <r_epik_Charging_Adjusted_Penalty>
0.152157994418768

> <i_epik_Tot_Q>
-4

> <i_epik_Tot_abs_Q>
4

> <s_epik_Chemistry_Notes>
This compound contains an acetal/aminal-like group ( X-CH(R)-Y where X, Y are N, S, or O) that may be acid/base labile, releasing an aldehyde.

$$$$
