1mnc_ligand
                    3D
 Schrodinger Suite 2020-3.
 52 52  0  0  1  0            999 V2000
   -1.3850   30.5520   22.4640 C   0  0  0  0  0  0
   -2.4560   29.6990   22.9610 C   0  0  0  0  0  0
   -2.8150   28.6040   21.9250 C   0  0  1  0  0  0
   -1.6460   27.6780   21.5070 C   0  0  0  0  0  0
   -1.7950   26.6720   20.3490 C   0  0  0  0  0  0
   -1.8480   27.4200   18.9930 C   0  0  0  0  0  0
   -0.5380   25.8050   20.2770 C   0  0  0  0  0  0
   -3.9840   27.8500   22.3950 C   0  0  0  0  0  0
   -6.3010   27.1380   22.0590 C   0  0  2  0  0  0
   -6.4320   25.7800   21.5310 C   0  0  0  0  0  0
   -6.9760   23.5280   22.0790 C   0  0  0  0  0  0
   -7.5580   27.8650   21.5540 C   0  0  0  0  0  0
   -7.7780   29.1720   22.1900 C   0  0  0  0  0  0
   -7.4810   30.3530   21.5530 C   0  0  0  0  0  0
   -7.6900   31.5700   22.1720 C   0  0  0  0  0  0
   -8.1990   31.5970   23.4700 C   0  0  0  0  0  0
   -8.4790   30.4520   24.1450 C   0  0  0  0  0  0
   -8.2810   29.2580   23.4830 C   0  0  0  0  0  0
   -0.1510   30.5060   22.9860 N   0  0  0  0  0  0
   -5.1290   27.8230   21.6570 N   0  0  0  0  0  0
   -6.7760   24.8860   22.4380 N   0  0  0  0  0  0
    0.8610   31.1850   22.5810 O   0  0  0  0  0  0
   -1.6560   31.3070   21.5320 O   0  0  0  0  0  0
   -3.9210   27.2370   23.4660 O   0  0  0  0  0  0
   -6.2180   25.5760   20.3170 O   0  0  0  0  0  0
   -2.1342   29.2123   23.8935 H   0  0  0  0  0  0
   -3.3504   30.3091   23.1556 H   0  0  0  0  0  0
   -3.1220   29.1042   20.9947 H   0  0  0  0  0  0
   -0.7851   28.2901   21.2001 H   0  0  0  0  0  0
   -1.3593   27.0425   22.3579 H   0  0  0  0  0  0
   -2.7024   26.0771   20.5301 H   0  0  0  0  0  0
   -2.7343   28.0711   18.9678 H   0  0  0  0  0  0
   -1.9066   26.6890   18.1731 H   0  0  0  0  0  0
   -0.9408   28.0309   18.8755 H   0  0  0  0  0  0
   -0.4300   25.2373   21.2130 H   0  0  0  0  0  0
    0.3431   26.4479   20.1343 H   0  0  0  0  0  0
   -0.6226   25.1060   19.4319 H   0  0  0  0  0  0
   -6.1374   27.0971   23.1460 H   0  0  0  0  0  0
   -7.2554   22.9500   22.9722 H   0  0  0  0  0  0
   -6.0468   23.1204   21.6543 H   0  0  0  0  0  0
   -7.7809   23.4609   21.3322 H   0  0  0  0  0  0
   -7.4717   28.0374   20.4710 H   0  0  0  0  0  0
   -8.4453   27.2475   21.7574 H   0  0  0  0  0  0
   -7.0736   30.3289   20.5423 H   0  0  0  0  0  0
   -7.4595   32.4995   21.6514 H   0  0  0  0  0  0
   -8.3760   32.5578   23.9534 H   0  0  0  0  0  0
   -8.8463   30.4757   25.1710 H   0  0  0  0  0  0
   -8.5324   28.3327   24.0014 H   0  0  0  0  0  0
   -0.0445   29.8122   23.8329 H   0  0  0  0  0  0
   -5.1121   28.3712   20.7035 H   0  0  0  0  0  0
   -6.9076   25.2038   23.4828 H   0  0  0  0  0  0
    1.8343   31.0728   23.0810 H   0  0  0  0  0  0
  1  2  1  0  0  0
  1 19  1  0  0  0
  1 23  2  0  0  0
  2  3  1  0  0  0
  2 26  1  0  0  0
  2 27  1  0  0  0
  3  4  1  0  0  0
  3  8  1  0  0  0
  3 28  1  0  0  0
  4  5  1  0  0  0
  4 29  1  0  0  0
  4 30  1  0  0  0
  5  6  1  0  0  0
  5  7  1  0  0  0
  5 31  1  0  0  0
  6 32  1  0  0  0
  6 33  1  0  0  0
  6 34  1  0  0  0
  7 35  1  0  0  0
  7 36  1  0  0  0
  7 37  1  0  0  0
  8 20  1  0  0  0
  8 24  2  0  0  0
  9 10  1  0  0  0
  9 12  1  0  0  0
  9 20  1  0  0  0
  9 38  1  0  0  0
 10 21  1  0  0  0
 10 25  2  0  0  0
 11 21  1  0  0  0
 11 39  1  0  0  0
 11 40  1  0  0  0
 11 41  1  0  0  0
 12 13  1  0  0  0
 12 42  1  0  0  0
 12 43  1  0  0  0
 13 14  2  0  0  0
 13 18  1  0  0  0
 14 15  1  0  0  0
 14 44  1  0  0  0
 15 16  2  0  0  0
 15 45  1  0  0  0
 16 17  1  0  0  0
 16 46  1  0  0  0
 17 18  2  0  0  0
 17 47  1  0  0  0
 18 48  1  0  0  0
 19 22  1  0  0  0
 19 49  1  0  0  0
 20 50  1  0  0  0
 21 51  1  0  0  0
 22 52  1  0  0  0
M  END
> <s_m_source_file>
../1mnc_ligand.sdf

> <i_m_source_file_index>
1

> <s_epik_input>
W09IXVtOSF1DKD1PKVtDSDJdW0NAQEhdKFtDSDJdW0NIXShbQ0gzXSlbQ0gzXSlDKD1PKVtOSF1bQ0BIXShDKD1PKVtOSF1bQ0gzXSlbQ0gyXWMxW2NIXVtjSF1bY0hdW2NIXVtjSF0x

> <s_epik_cmdline>
J2VwaWtfYXBwJywgJy1pbWFlJywgJ2xpZ2FuZF9wcm8ubWFlJywgJy1vbWFlJywgJ2xpZ2FuZF9wcmVwLm1hZScsICctbXMnLCAnMScsICctcGgnLCAnNycsICctcGh0JywgJzAuNScsICctbnQn

> <r_lp_tautomer_probability>
1

> <r_epik_Ionization_Penalty>
  0.0054

> <r_epik_Ionization_Penalty_Charging>
  0.0000

> <r_epik_Ionization_Penalty_Neutral>
  0.0054

> <r_epik_State_Penalty>
 -0.0000

> <r_epik_Charging_Adjusted_Penalty>
0

> <i_epik_Tot_Q>
0

> <i_epik_Tot_abs_Q>
0

> <s_epik_Chemistry_Notes>
This compound has a N-S or N-O group and may undergo hydrolysis at high or low pH.

$$$$
