1mns_ligand
                    3D
 Schrodinger Suite 2020-3.
 21 21  0  0  1  0            999 V2000
   32.4760    3.3490   15.6260 C   0  0  0  0  0  0
   31.2440    3.4670   16.2920 C   0  0  0  0  0  0
   31.0520    4.4560   17.2520 C   0  0  0  0  0  0
   32.1040    5.3350   17.5590 C   0  0  0  0  0  0
   33.3280    5.2160   16.8990 C   0  0  0  0  0  0
   33.5170    4.2270   15.9350 C   0  0  0  0  0  0
   29.7020    4.4770   18.0160 C   0  0  2  0  0  0
   28.6810    3.6440   17.4700 O   0  0  0  0  0  0
   29.1240    5.8820   18.3470 C   0  0  0  0  0  0
   30.1620    3.8860   19.3610 C   0  0  0  0  0  0
   29.8350    6.7730   18.8070 O   0  0  0  0  0  0
   27.9190    6.0570   18.1780 O   0  5  0  0  0  0
   32.6183    2.5754   14.8714 H   0  0  0  0  0  0
   30.4328    2.7787   16.0548 H   0  0  0  0  0  0
   31.9643    6.1100   18.3127 H   0  0  0  0  0  0
   34.1414    5.9008   17.1389 H   0  0  0  0  0  0
   34.4755    4.1392   15.4234 H   0  0  0  0  0  0
   28.2200    3.9000   16.5046 H   0  0  0  0  0  0
   30.5846    2.8839   19.1958 H   0  0  0  0  0  0
   29.3019    3.8134   20.0429 H   0  0  0  0  0  0
   30.9282    4.5384   19.8053 H   0  0  0  0  0  0
  1  2  2  0  0  0
  1  6  1  0  0  0
  1 13  1  0  0  0
  2  3  1  0  0  0
  2 14  1  0  0  0
  3  4  2  0  0  0
  3  7  1  0  0  0
  4  5  1  0  0  0
  4 15  1  0  0  0
  5  6  2  0  0  0
  5 16  1  0  0  0
  6 17  1  0  0  0
  7  8  1  0  0  0
  7  9  1  0  0  0
  7 10  1  0  0  0
  8 18  1  0  0  0
  9 11  2  0  0  0
  9 12  1  0  0  0
 10 19  1  0  0  0
 10 20  1  0  0  0
 10 21  1  0  0  0
M  CHG  1  12  -1
M  END
> <s_m_source_file>
../1mns_ligand.sdf

> <i_m_source_file_index>
1

> <s_epik_input>
W2NIXTFbY0hdW2NIXVtjSF1bY0hdYzFbQ0BAXShbT0hdKShbQ0gzXSlDKD1PKVtPSF0=

> <s_epik_cmdline>
J2VwaWtfYXBwJywgJy1pbWFlJywgJ2xpZ2FuZF9wcm8ubWFlJywgJy1vbWFlJywgJ2xpZ2FuZF9wcmVwLm1hZScsICctbXMnLCAnMScsICctcGgnLCAnNycsICctcGh0JywgJzAuNScsICctbnQn

> <r_lp_tautomer_probability>
1

> <r_epik_Ionization_Penalty>
  0.0002

> <r_epik_Ionization_Penalty_Charging>
  0.0002

> <r_epik_Ionization_Penalty_Neutral>
  0.0000

> <r_epik_State_Penalty>
 -0.0000

> <r_epik_Charging_Adjusted_Penalty>
0.000185613642065319

> <i_epik_Tot_Q>
-1

> <i_epik_Tot_abs_Q>
1

$$$$
