1moq_ligand
                    3D
 Schrodinger Suite 2020-3.
 29 29  0  0  1  0            999 V2000
   28.6010   16.1110   -4.4140 C   0  0  1  0  0  0
   28.8910   15.4320   -3.0910 C   0  0  1  0  0  0
   28.4690   16.3310   -1.9410 C   0  0  2  0  0  0
   29.1460   17.6830   -2.0190 C   0  0  1  0  0  0
   28.8520   18.3080   -3.3990 C   0  0  1  0  0  0
   29.7790   19.5210   -3.5920 C   0  0  0  0  0  0
   27.2100   16.2670   -4.5550 O   0  0  0  0  0  0
   28.2120   14.1670   -3.0350 N   0  3  0  0  0  0
   28.8730   15.7090   -0.7040 O   0  0  0  0  0  0
   28.6900   18.5990   -1.0450 O   0  0  0  0  0  0
   29.1460   17.3920   -4.4350 O   0  0  0  0  0  0
   31.1380   19.0410   -3.7440 O   0  0  0  0  0  0
   32.4010   19.8890   -3.1820 P   0  0  0  0  0  0
   32.4310   21.1820   -3.9060 O   0  5  0  0  0  0
   33.5520   19.0030   -3.3860 O   0  0  0  0  0  0
   32.1520   20.2280   -1.7260 O   0  5  0  0  0  0
   29.0104   15.5528   -5.2689 H   0  0  0  0  0  0
   29.9606   15.1913   -3.0010 H   0  0  0  0  0  0
   27.3759   16.4539   -1.9475 H   0  0  0  0  0  0
   30.2092   17.5422   -1.7746 H   0  0  0  0  0  0
   27.7820   18.5397   -3.5057 H   0  0  0  0  0  0
   29.4740   20.0762   -4.4913 H   0  0  0  0  0  0
   29.7092   20.1793   -2.7135 H   0  0  0  0  0  0
   26.7986   16.7432   -5.4572 H   0  0  0  0  0  0
   28.5367   13.5390   -3.8777 H   0  0  0  0  0  0
   27.1260   14.3307   -3.0968 H   0  0  0  0  0  0
   28.4535   13.6629   -2.0876 H   0  0  0  0  0  0
   28.4948   14.7100   -0.4415 H   0  0  0  0  0  0
   28.7963   18.3633    0.0242 H   0  0  0  0  0  0
  1 11  1  0  0  0
  1  7  1  0  0  0
  1  2  1  0  0  0
  1 17  1  0  0  0
  2  8  1  0  0  0
  2  3  1  0  0  0
  2 18  1  0  0  0
  3  9  1  0  0  0
  3  4  1  0  0  0
  3 19  1  0  0  0
  4 10  1  0  0  0
  4  5  1  0  0  0
  4 20  1  0  0  0
  5 11  1  0  0  0
  5  6  1  0  0  0
  5 21  1  0  0  0
  6 12  1  0  0  0
  6 22  1  0  0  0
  6 23  1  0  0  0
  7 24  1  0  0  0
  8 25  1  0  0  0
  8 26  1  0  0  0
  8 27  1  0  0  0
  9 28  1  0  0  0
 10 29  1  0  0  0
 12 13  1  0  0  0
 13 16  1  0  0  0
 13 15  2  0  0  0
 13 14  1  0  0  0
M  CHG  3   8   1  14  -1  16  -1
M  END
> <s_m_source_file>
../1moq_ligand.sdf

> <i_m_source_file_index>
1

> <s_epik_input>
W09IXVtDQEBIXTFbQ0BIXShbTkgzK10pW0NAQEhdKFtPSF0pW0NASF0oW09IXSlbQ0BIXShPMSlbQ0gyXU9QKD1PKShbT0hdKVtPSF0=

> <s_epik_cmdline>
J2VwaWtfYXBwJywgJy1pbWFlJywgJ2xpZ2FuZF9wcm8ubWFlJywgJy1vbWFlJywgJ2xpZ2FuZF9wcmVwLm1hZScsICctbXMnLCAnMScsICctcGgnLCAnNycsICctcGh0JywgJzAuNScsICctbnQn

> <r_lp_tautomer_probability>
1

> <r_epik_Ionization_Penalty>
  0.1809

> <r_epik_Ionization_Penalty_Charging>
  0.1808

> <r_epik_Ionization_Penalty_Neutral>
  0.0000

> <r_epik_State_Penalty>
 -0.0000

> <r_epik_Charging_Adjusted_Penalty>
0.180816129580539

> <i_epik_Tot_Q>
-1

> <i_epik_Tot_abs_Q>
3

> <s_epik_Chemistry_Notes>
This compound contains an acetal/aminal-like group ( X-CH(R)-Y where X, Y are N, S, or O) that may be acid/base labile, releasing an aldehyde.

$$$$
