1mpa_ligand
                    3D
 Schrodinger Suite 2020-3.
188191  0  0  1  0            999 V2000
  -14.3250   10.1160   48.1960 N   0  0  0  0  0  0
  -15.0860   10.8480   47.3940 C   0  0  0  0  0  0
  -14.6370   11.4500   46.4090 O   0  0  0  0  0  0
  -16.5600   10.9660   47.7840 C   0  0  0  0  0  0
  -12.9170    9.8920   47.9350 C   0  0  1  0  0  0
  -12.2730    9.3710   49.2120 C   0  0  2  0  0  0
  -11.8800   10.4860   50.0130 O   0  0  0  0  0  0
  -11.0850    8.4780   48.9430 C   0  0  0  0  0  0
  -12.8190    8.8700   46.8020 C   0  0  0  0  0  0
  -13.8160    8.1950   46.4850 O   0  0  0  0  0  0
  -11.6600    8.8170   46.1420 N   0  0  0  0  0  0
  -11.4280    7.8620   45.0580 C   0  0  2  0  0  0
  -10.0960    7.1030   45.1960 C   0  0  0  0  0  0
   -9.1370    7.6310   45.7640 O   0  0  0  0  0  0
  -11.5130    8.5570   43.6950 C   0  0  0  0  0  0
  -10.3800    9.5130   43.3680 C   0  0  0  0  0  0
  -10.5000   10.0370   41.9420 C   0  0  0  0  0  0
  -11.6050   11.0620   41.8050 C   0  0  0  0  0  0
  -11.1740   12.4030   42.3150 N   0  3  0  0  0  0
  -10.0650    5.8570   44.7120 N   0  0  0  0  0  0
   -8.8750    4.9730   44.7400 C   0  0  2  0  0  0
   -7.6820    5.5180   43.9690 C   0  0  0  0  0  0
   -7.8130    6.4920   43.2210 O   0  0  0  0  0  0
   -9.1720    3.6680   43.9960 C   0  0  0  0  0  0
  -10.2390    2.8560   44.6270 C   0  0  0  0  0  0
  -10.5110    3.0290   45.8320 O   0  0  0  0  0  0
  -10.7900    2.0190   43.8940 O   0  0  0  0  0  0
   -6.6040    4.7260   43.9720 N   0  0  0  0  0  0
   -5.4040    5.0360   43.2090 C   0  0  2  0  0  0
   -5.6980    4.8390   41.7140 C   0  0  0  0  0  0
   -4.8890    5.2180   40.8760 O   0  0  0  0  0  0
   -4.2370    4.1460   43.5960 C   0  0  2  0  0  0
   -3.8430    4.4620   44.9300 O   0  0  0  0  0  0
   -3.0390    4.3660   42.6730 C   0  0  0  0  0  0
   -6.8540    4.2630   41.3810 N   0  0  0  0  0  0
   -7.2250    4.0610   39.9830 C   0  0  2  0  0  0
   -8.4130    4.9370   39.6390 C   0  0  0  0  0  0
   -9.0960    4.7070   38.6360 O   0  0  0  0  0  0
   -7.5570    2.5890   39.6730 C   0  0  0  0  0  0
   -6.3740    1.6360   39.9200 C   0  0  0  0  0  0
   -5.2170    1.9400   39.5930 O   0  0  0  0  0  0
   -6.6650    0.4880   40.5110 N   0  0  0  0  0  0
   -8.6800    5.9150   40.5010 N   0  0  0  0  0  0
   -9.7670    6.8750   40.3160 C   0  0  2  0  0  0
  -11.1680    6.2820   40.3810 C   0  0  0  0  0  0
  -12.0440    6.6130   39.5850 O   0  0  0  0  0  0
   -9.5640    7.6290   39.0030 C   0  0  0  0  0  0
   -8.1700    8.1930   38.8830 C   0  0  0  0  0  0
   -7.6600    8.8230   39.8220 O   0  0  0  0  0  0
   -7.5090    7.9110   37.7590 N   0  0  0  0  0  0
  -11.3810    5.4090   41.3510 N   0  0  0  0  0  0
  -12.6870    4.7660   41.5140 C   0  0  2  0  0  0
  -13.3170    5.3380   42.7790 C   0  0  0  0  0  0
  -12.6180    5.7180   43.7280 O   0  0  0  0  0  0
  -12.5630    3.2270   41.6740 C   0  0  0  0  0  0
  -11.8640    2.5130   40.4740 C   0  0  0  0  0  0
  -12.1950    2.7120   39.2930 O   0  0  0  0  0  0
  -10.9520    1.6050   40.8090 N   0  0  0  0  0  0
  -14.6350    5.3610   42.8370 N   0  0  0  0  0  0
  -15.2510    5.8930   44.0330 C   0  0  2  0  0  0
  -15.1610    4.9450   45.2350 C   0  0  0  0  0  0
  -15.5770    3.7880   45.1870 O   0  0  0  0  0  0
  -16.6630    6.3640   43.7330 C   0  0  0  0  0  0
  -16.5610    7.8400   43.3400 C   0  0  0  0  0  0
  -17.7930    8.3030   42.5920 C   0  0  0  0  0  0
  -16.3290    8.6610   44.6080 C   0  0  0  0  0  0
   -2.2560    5.8630   52.2040 C   0  0  0  0  0  0
   -1.6230    6.6990   52.8550 O   0  0  0  0  0  0
   -1.5640    4.8110   51.6470 C   0  0  0  0  0  0
   -2.2270    3.8740   50.8670 C   0  0  0  0  0  0
   -1.3820    2.8270   50.3410 O   0  0  0  0  0  0
   -2.1300    1.9350   49.5740 C   0  0  0  0  0  0
   -1.3500    0.9190   49.0810 C   0  0  0  0  0  0
   -1.9350   -0.0740   48.3160 C   0  0  0  0  0  0
   -1.2560   -1.0350   47.9190 O   0  0  0  0  0  0
   -3.2970   -0.0220   48.0400 C   0  0  0  0  0  0
   -4.0680    1.0100   48.5390 C   0  0  0  0  0  0
   -3.4970    1.9880   49.3100 C   0  0  0  0  0  0
   -4.2440    3.0010   49.8710 C   0  0  0  0  0  0
   -3.6040    3.9800   50.6460 C   0  0  0  0  0  0
   -4.2990    5.0560   51.2190 C   0  0  0  0  0  0
   -3.6250    5.9880   51.9900 C   0  0  0  0  0  0
   -5.6560    2.9980   49.8060 C   0  0  0  0  0  0
   -6.3710    2.9050   50.9990 C   0  0  0  0  0  0
   -7.7540    2.9830   51.0020 C   0  0  0  0  0  0
   -8.4800    3.1400   49.8310 C   0  0  0  0  0  0
   -7.7840    3.2130   48.6260 C   0  0  0  0  0  0
   -6.3750    3.1570   48.5710 C   0  0  0  0  0  0
   -5.7870    3.4240   47.3370 C   0  0  0  0  0  0
   -4.6350    3.9020   47.2760 O   0  0  0  0  0  0
   -6.4080    3.2140   46.2610 O   0  0  0  0  0  0
   -9.8090    3.1790   49.8490 N   0  0  0  0  0  0
  -10.8860    3.8890   49.5300 C   0  0  0  0  0  0
  -10.9300    4.9800   48.9670 O   0  0  0  0  0  0
  -12.1720    3.2280   49.8780 C   0  0  0  0  0  0
  -12.8470    2.4950   48.4130 S   0  0  0  0  0  0
  -13.0290    3.9390   47.3940 C   0  0  0  0  0  0
  -14.3800    4.6180   47.4840 C   0  0  2  0  0  0
  -14.5520    5.4290   46.3040 N   0  0  0  0  0  0
  -13.6650    6.4220   48.8860 O   0  0  0  0  0  0
  -14.4390    5.4710   48.7460 C   0  0  0  0  0  0
  -15.3270    5.1130   49.6880 N   0  0  0  0  0  0
  -14.7970    9.6720   49.0848 H   0  0  0  0  0  0
  -16.7518   10.3584   48.6807 H   0  0  0  0  0  0
  -17.1883   10.6062   46.9559 H   0  0  0  0  0  0
  -16.8001   12.0183   47.9960 H   0  0  0  0  0  0
  -12.4388   10.8390   47.6442 H   0  0  0  0  0  0
  -13.0046    8.7909   49.7937 H   0  0  0  0  0  0
  -12.6234   11.2421   50.3058 H   0  0  0  0  0  0
  -11.4006    7.6239   48.3258 H   0  0  0  0  0  0
  -10.6789    8.1108   49.8971 H   0  0  0  0  0  0
  -10.3103    9.0490   48.4102 H   0  0  0  0  0  0
  -10.8662    9.5199   46.4350 H   0  0  0  0  0  0
  -12.2502    7.1402   45.1722 H   0  0  0  0  0  0
  -11.5158    7.8000   42.8970 H   0  0  0  0  0  0
  -12.4388    9.1488   43.6422 H   0  0  0  0  0  0
  -10.4094   10.3670   44.0607 H   0  0  0  0  0  0
   -9.4177    8.9902   43.4713 H   0  0  0  0  0  0
   -9.5531   10.5114   41.6448 H   0  0  0  0  0  0
  -10.7208    9.2013   41.2616 H   0  0  0  0  0  0
  -11.8809   11.1642   40.7451 H   0  0  0  0  0  0
  -12.4823   10.7348   42.3823 H   0  0  0  0  0  0
  -11.9991   13.1214   42.2004 H   0  0  0  0  0  0
  -10.3026   12.7508   41.7409 H   0  0  0  0  0  0
  -10.9039   12.3214   43.3782 H   0  0  0  0  0  0
  -11.0064    5.4982   44.2704 H   0  0  0  0  0  0
   -8.6698    4.8864   45.8172 H   0  0  0  0  0  0
   -9.4961    3.8965   42.9700 H   0  0  0  0  0  0
   -8.2632    3.0490   43.9642 H   0  0  0  0  0  0
  -11.3015    2.4308   46.3088 H   0  0  0  0  0  0
   -6.6475    3.8109   44.5809 H   0  0  0  0  0  0
   -5.1602    6.0774   43.4662 H   0  0  0  0  0  0
   -4.5511    3.0920   43.5783 H   0  0  0  0  0  0
   -4.5661    4.3689   45.7537 H   0  0  0  0  0  0
   -3.3247    4.1268   41.6380 H   0  0  0  0  0  0
   -2.2109    3.7127   42.9851 H   0  0  0  0  0  0
   -2.7192    5.4168   42.7315 H   0  0  0  0  0  0
   -7.5332    3.9378   42.1828 H   0  0  0  0  0  0
   -6.3377    4.3653   39.4085 H   0  0  0  0  0  0
   -8.3891    2.2584   40.3120 H   0  0  0  0  0  0
   -7.8459    2.4930   38.6160 H   0  0  0  0  0  0
   -7.7055    0.2583   40.7843 H   0  0  0  0  0  0
   -5.8664   -0.2364   40.7289 H   0  0  0  0  0  0
   -8.0337    5.9803   41.3887 H   0  0  0  0  0  0
   -9.6755    7.5336   41.1923 H   0  0  0  0  0  0
   -9.7310    6.9450   38.1578 H   0  0  0  0  0  0
  -10.2778    8.4640   38.9455 H   0  0  0  0  0  0
   -8.0063    7.3490   36.9548 H   0  0  0  0  0  0
   -6.4667    8.2405   37.6365 H   0  0  0  0  0  0
  -10.5593    5.1679   42.0414 H   0  0  0  0  0  0
  -13.2626    4.9991   40.6060 H   0  0  0  0  0  0
  -11.9729    2.9983   42.5737 H   0  0  0  0  0  0
  -13.5662    2.7865   41.7717 H   0  0  0  0  0  0
  -10.6851    1.4575   41.8659 H   0  0  0  0  0  0
  -10.4645    1.0015   40.0292 H   0  0  0  0  0  0
  -15.2628    4.9920   42.0125 H   0  0  0  0  0  0
  -14.6376    6.7696   44.2884 H   0  0  0  0  0  0
  -17.0810    5.7678   42.9085 H   0  0  0  0  0  0
  -17.2890    6.2402   44.6290 H   0  0  0  0  0  0
  -15.7215    7.9863   42.6445 H   0  0  0  0  0  0
  -17.9255    7.6896   41.6885 H   0  0  0  0  0  0
  -17.6726    9.3579   42.3046 H   0  0  0  0  0  0
  -18.6761    8.1978   43.2394 H   0  0  0  0  0  0
  -15.4277    8.2953   45.1218 H   0  0  0  0  0  0
  -17.1979    8.5592   45.2748 H   0  0  0  0  0  0
  -16.1944    9.7193   44.3400 H   0  0  0  0  0  0
   -0.5409    6.5730   53.0074 H   0  0  0  0  0  0
   -0.4921    4.7138   51.8192 H   0  0  0  0  0  0
   -0.2805    0.8948   49.2901 H   0  0  0  0  0  0
   -0.1787   -1.0750   48.1379 H   0  0  0  0  0  0
   -3.7575   -0.7977   47.4282 H   0  0  0  0  0  0
   -5.1348    1.0463   48.3184 H   0  0  0  0  0  0
   -4.0672    3.2627   48.8173 H   0  0  0  0  0  0
   -5.3720    5.1584   51.0568 H   0  0  0  0  0  0
   -4.1693    6.8231   52.4311 H   0  0  0  0  0  0
   -5.8363    2.7695   51.9391 H   0  0  0  0  0  0
   -8.2863    2.9192   51.9510 H   0  0  0  0  0  0
   -8.3452    3.3165   47.6973 H   0  0  0  0  0  0
   -5.9261    3.4314   45.2964 H   0  0  0  0  0  0
  -10.3781    2.3407   50.2772 H   0  0  0  0  0  0
  -11.9918    2.4514   50.6359 H   0  0  0  0  0  0
  -12.8720    3.9759   50.2787 H   0  0  0  0  0  0
  -12.2787    4.6893   47.6840 H   0  0  0  0  0  0
  -12.8837    3.6639   46.3389 H   0  0  0  0  0  0
  -15.2060    3.8916   47.4899 H   0  0  0  0  0  0
  -14.1747    6.4621   46.2869 H   0  0  0  0  0  0
  -15.9962    4.2570   49.5161 H   0  0  0  0  0  0
  -15.3851    5.6758   50.6313 H   0  0  0  0  0  0
  1  2  1  0  0  0
  1  5  1  0  0  0
  1103  1  0  0  0
  2  3  2  0  0  0
  2  4  1  0  0  0
  4104  1  0  0  0
  4105  1  0  0  0
  4106  1  0  0  0
  5  6  1  0  0  0
  5  9  1  0  0  0
  5107  1  0  0  0
  6  7  1  0  0  0
  6  8  1  0  0  0
  6108  1  0  0  0
  7109  1  0  0  0
  8110  1  0  0  0
  8111  1  0  0  0
  8112  1  0  0  0
  9 10  2  0  0  0
  9 11  1  0  0  0
 11 12  1  0  0  0
 11113  1  0  0  0
 12 13  1  0  0  0
 12 15  1  0  0  0
 12114  1  0  0  0
 13 14  2  0  0  0
 13 20  1  0  0  0
 15 16  1  0  0  0
 15115  1  0  0  0
 15116  1  0  0  0
 16 17  1  0  0  0
 16117  1  0  0  0
 16118  1  0  0  0
 17 18  1  0  0  0
 17119  1  0  0  0
 17120  1  0  0  0
 18 19  1  0  0  0
 18121  1  0  0  0
 18122  1  0  0  0
 19123  1  0  0  0
 19124  1  0  0  0
 19125  1  0  0  0
 20 21  1  0  0  0
 20126  1  0  0  0
 21 22  1  0  0  0
 21 24  1  0  0  0
 21127  1  0  0  0
 22 23  2  0  0  0
 22 28  1  0  0  0
 24 25  1  0  0  0
 24128  1  0  0  0
 24129  1  0  0  0
 25 26  1  0  0  0
 25 27  2  0  0  0
 26130  1  0  0  0
 28 29  1  0  0  0
 28131  1  0  0  0
 29 30  1  0  0  0
 29 32  1  0  0  0
 29132  1  0  0  0
 30 31  2  0  0  0
 30 35  1  0  0  0
 32 33  1  0  0  0
 32 34  1  0  0  0
 32133  1  0  0  0
 33134  1  0  0  0
 34135  1  0  0  0
 34136  1  0  0  0
 34137  1  0  0  0
 35 36  1  0  0  0
 35138  1  0  0  0
 36 37  1  0  0  0
 36 39  1  0  0  0
 36139  1  0  0  0
 37 38  2  0  0  0
 37 43  1  0  0  0
 39 40  1  0  0  0
 39140  1  0  0  0
 39141  1  0  0  0
 40 41  2  0  0  0
 40 42  1  0  0  0
 42142  1  0  0  0
 42143  1  0  0  0
 43 44  1  0  0  0
 43144  1  0  0  0
 44 45  1  0  0  0
 44 47  1  0  0  0
 44145  1  0  0  0
 45 46  2  0  0  0
 45 51  1  0  0  0
 47 48  1  0  0  0
 47146  1  0  0  0
 47147  1  0  0  0
 48 49  2  0  0  0
 48 50  1  0  0  0
 50148  1  0  0  0
 50149  1  0  0  0
 51 52  1  0  0  0
 51150  1  0  0  0
 52 53  1  0  0  0
 52 55  1  0  0  0
 52151  1  0  0  0
 53 54  2  0  0  0
 53 59  1  0  0  0
 55 56  1  0  0  0
 55152  1  0  0  0
 55153  1  0  0  0
 56 57  2  0  0  0
 56 58  1  0  0  0
 58154  1  0  0  0
 58155  1  0  0  0
 59 60  1  0  0  0
 59156  1  0  0  0
 60 61  1  0  0  0
 60 63  1  0  0  0
 60157  1  0  0  0
 61 62  2  0  0  0
 61 99  1  0  0  0
 63 64  1  0  0  0
 63158  1  0  0  0
 63159  1  0  0  0
 64 65  1  0  0  0
 64 66  1  0  0  0
 64160  1  0  0  0
 65161  1  0  0  0
 65162  1  0  0  0
 65163  1  0  0  0
 66164  1  0  0  0
 66165  1  0  0  0
 66166  1  0  0  0
 67 68  1  0  0  0
 67 69  2  0  0  0
 67 82  1  0  0  0
 68167  1  0  0  0
 69 70  1  0  0  0
 69168  1  0  0  0
 70 71  1  0  0  0
 70 80  2  0  0  0
 71 72  1  0  0  0
 72 73  2  0  0  0
 72 78  1  0  0  0
 73 74  1  0  0  0
 73169  1  0  0  0
 74 75  1  0  0  0
 74 76  2  0  0  0
 75170  1  0  0  0
 76 77  1  0  0  0
 76171  1  0  0  0
 77 78  2  0  0  0
 77172  1  0  0  0
 78 79  1  0  0  0
 79 80  1  0  0  0
 79 83  1  0  0  0
 79173  1  0  0  0
 80 81  1  0  0  0
 81 82  2  0  0  0
 81174  1  0  0  0
 82175  1  0  0  0
 83 84  2  0  0  0
 83 88  1  0  0  0
 84 85  1  0  0  0
 84176  1  0  0  0
 85 86  2  0  0  0
 85177  1  0  0  0
 86 87  1  0  0  0
 86 92  1  0  0  0
 87 88  2  0  0  0
 87178  1  0  0  0
 88 89  1  0  0  0
 89 90  2  0  0  0
 89 91  1  0  0  0
 91179  1  0  0  0
 92 93  1  0  0  0
 92180  1  0  0  0
 93 94  2  0  0  0
 93 95  1  0  0  0
 95 96  1  0  0  0
 95181  1  0  0  0
 95182  1  0  0  0
 96 97  1  0  0  0
 97 98  1  0  0  0
 97183  1  0  0  0
 97184  1  0  0  0
 98 99  1  0  0  0
 98101  1  0  0  0
 98185  1  0  0  0
 99186  1  0  0  0
100101  2  0  0  0
101102  1  0  0  0
102187  1  0  0  0
102188  1  0  0  0
M  CHG  1  19   1
M  END
> <s_m_source_file>
../1mpa_ligand.sdf

> <i_m_source_file_index>
1

> <s_epik_input>
Tz1DKFtDSDNdKVtOSF1bQ0BASF0oW0NASF0oW09IXSlbQ0gzXSlDKD1PKVtOSF1bQ0BASF0oW0NIMl1bQ0gyXVtDSDJdW0NIMl1bTkgzK10pQyg9TylbTkhdW0NAQEhdKFtDSDJdQyg9TylbT0hdKUMoPU8pW05IXVtDQEBIXShbQ0BIXShbT0hdKVtDSDNdKUMoPU8pW05IXVtDQEBIXShbQ0gyXUMoPU8pW05IMl0pQyg9TylbTkhdW0NAQEhdKFtDSDJdQyg9TylbTkgyXSlDKD1PKVtOSF1bQ0BASF0oW0NIMl1DKD1PKVtOSDJdKUMoPU8pW05IXVtDQEBIXShbQ0gyXVtDSF0oW0NIM10pW0NIM10pQyg9TylbTkhdW0NASF0oQyg9TylbTkgyXSlbQ0gyXVNbQ0gyXUMoPU8pW05IXWMoW2NIXWMxQyg9TylbT0hdKVtjSF1bY0hdYzFbQ0hdKGMoYzIzKVtjSF1bY0hdYyhbT0hdKVtjSF0yKWM0YyhPMylbY0hdYyhbT0hdKVtjSF1bY0hdNA==

> <s_epik_cmdline>
J2VwaWtfYXBwJywgJy1pbWFlJywgJ2xpZ2FuZF9wcm8ubWFlJywgJy1vbWFlJywgJ2xpZ2FuZF9wcmVwLm1hZScsICctbXMnLCAnMScsICctcGgnLCAnNycsICctcGh0JywgJzAuNScsICctbnQn

> <s_epik_pKa_notes>
Molecule size exceeds maximum supported for generating protonation states

$$$$
