1mpl_ligand
                    3D
 Schrodinger Suite 2020-3.
 42 41  0  0  1  0            999 V2000
   25.9390  -19.0030   39.5930 N   0  3  0  0  0  0
   25.3040  -17.6030   39.5320 C   0  0  0  0  0  0
   24.6200  -17.4960   38.1570 C   0  0  0  0  0  0
   24.2120  -16.2480   37.8540 N   0  0  0  0  0  0
   23.4880  -15.8720   36.6450 C   0  0  1  0  0  0
   22.0810  -15.3450   36.9370 C   0  0  0  0  0  0
   21.1890  -16.3060   37.7450 C   0  0  0  0  0  0
   19.7620  -15.6290   37.7520 C   0  0  0  0  0  0
   19.6300  -14.3000   38.4860 C   0  0  0  0  0  0
   18.1720  -13.9100   38.6880 C   0  0  0  0  0  0
   17.6430  -13.1560   37.7310 N   0  0  0  0  0  0
   16.2350  -12.6980   37.8010 C   0  0  1  0  0  0
   16.3130  -10.9150   38.1530 P   0  0  0  0  0  0
   24.4750  -18.4380   37.4300 O   0  0  0  0  0  0
   24.2780  -14.7670   35.9400 C   0  0  0  0  0  0
   24.9820  -13.9420   36.5820 O   0  5  0  0  0  0
   24.0680  -14.7580   34.7190 O   0  0  0  0  0  0
   17.5670  -14.3060   39.6410 O   0  0  0  0  0  0
   15.4860  -12.9790   36.4740 C   0  0  0  0  0  0
   16.7700  -10.6740   39.5420 O   0  0  0  0  0  0
   16.9810  -10.1990   37.0360 O   0  0  0  0  0  0
   26.4448  -19.1343   40.5610 H   0  0  0  0  0  0
   26.6714  -19.1092   38.7792 H   0  0  0  0  0  0
   25.1548  -19.7664   39.4825 H   0  0  0  0  0  0
   24.5716  -17.4968   40.3458 H   0  0  0  0  0  0
   26.0882  -16.8395   39.6425 H   0  0  0  0  0  0
   24.4651  -15.4838   38.6036 H   0  0  0  0  0  0
   23.4091  -16.7987   36.0577 H   0  0  0  0  0  0
   22.1516  -14.4131   37.5171 H   0  0  0  0  0  0
   21.5591  -15.1480   35.9889 H   0  0  0  0  0  0
   21.1697  -17.2895   37.2528 H   0  0  0  0  0  0
   21.5929  -16.4131   38.7625 H   0  0  0  0  0  0
   19.4466  -15.4278   36.7176 H   0  0  0  0  0  0
   19.0381  -16.3044   38.2313 H   0  0  0  0  0  0
   20.1074  -14.3778   39.4739 H   0  0  0  0  0  0
   20.1223  -13.5082   37.9022 H   0  0  0  0  0  0
   18.2718  -12.8720   36.8743 H   0  0  0  0  0  0
   15.7439  -13.3937   38.4973 H   0  0  0  0  0  0
   15.4571  -14.0634   36.2919 H   0  0  0  0  0  0
   16.0103  -12.4817   35.6446 H   0  0  0  0  0  0
   14.4589  -12.5913   36.5435 H   0  0  0  0  0  0
   16.6525  -10.3679   35.9999 H   0  0  0  0  0  0
  1  2  1  0  0  0
  1 22  1  0  0  0
  1 23  1  0  0  0
  1 24  1  0  0  0
  2  3  1  0  0  0
  2 25  1  0  0  0
  2 26  1  0  0  0
  3  4  1  0  0  0
  3 14  2  0  0  0
  4  5  1  0  0  0
  4 27  1  0  0  0
  5  6  1  0  0  0
  5 15  1  0  0  0
  5 28  1  0  0  0
  6  7  1  0  0  0
  6 29  1  0  0  0
  6 30  1  0  0  0
  7  8  1  0  0  0
  7 31  1  0  0  0
  7 32  1  0  0  0
  8  9  1  0  0  0
  8 33  1  0  0  0
  8 34  1  0  0  0
  9 10  1  0  0  0
  9 35  1  0  0  0
  9 36  1  0  0  0
 10 11  1  0  0  0
 10 18  2  0  0  0
 11 12  1  0  0  0
 11 37  1  0  0  0
 12 13  1  0  0  0
 12 19  1  0  0  0
 12 38  1  0  0  0
 13 20  2  0  0  0
 13 21  1  0  0  0
 15 16  1  0  0  0
 15 17  2  0  0  0
 19 39  1  0  0  0
 19 40  1  0  0  0
 19 41  1  0  0  0
 21 42  1  0  0  0
M  CHG  2   1   1  16  -1
M  END
> <s_m_source_file>
../1mpl_ligand.sdf

> <i_m_source_file_index>
1

> <s_epik_input>
W05IMytdW0NIMl1DKD1PKVtOSF1bQ0BIXShDKD1PKVtPSF0pW0NIMl1bQ0gyXVtDSDJdW0NIMl1DKD1PKVtOSF1bQ0BIXShbQ0gzXSlbUEhdKD1PKVtPSF0=

> <s_epik_cmdline>
J2VwaWtfYXBwJywgJy1pbWFlJywgJ2xpZ2FuZF9wcm8ubWFlJywgJy1vbWFlJywgJ2xpZ2FuZF9wcmVwLm1hZScsICctbXMnLCAnMScsICctcGgnLCAnNycsICctcGh0JywgJzAuNScsICctbnQn

> <r_epik_Ionization_Penalty>
  0.1027

> <r_epik_Ionization_Penalty_Charging>
  0.1027

> <r_epik_Ionization_Penalty_Neutral>
  0.0000

> <r_epik_State_Penalty>
  0.0926

> <r_epik_Charging_Adjusted_Penalty>
0.195305702593375

> <i_epik_Tot_Q>
0

> <i_epik_Tot_abs_Q>
2

$$$$
