1mq1_ligand
                    3D
 Schrodinger Suite 2020-3.
217218  0  0  1  0            999 V2000
   -0.2290   11.9570   10.3760 N   0  3  0  0  0  0
   -0.0500   11.2090    9.1030 C   0  0  2  0  0  0
   -0.3720   12.0850    7.8970 C   0  0  0  0  0  0
    0.1580   11.8740    6.8060 O   0  0  0  0  0  0
   -0.9680    9.9840    9.1230 C   0  0  2  0  0  0
   -2.0860   10.2070    9.9650 O   0  0  0  0  0  0
   -0.2750    8.7260    9.6050 C   0  0  0  0  0  0
   -1.2450   13.0670    8.0980 N   0  0  0  0  0  0
   -1.6360   13.9710    7.0220 C   0  0  2  0  0  0
   -0.4230   14.6970    6.4500 C   0  0  0  0  0  0
    0.0060   14.4200    5.3300 O   0  0  0  0  0  0
   -2.6600   14.9870    7.5300 C   0  0  0  0  0  0
   -4.0250   14.3850    7.8210 C   0  0  0  0  0  0
   -4.9780   14.5730    6.6530 C   0  0  0  0  0  0
   -6.3630   14.7200    7.0940 N   0  0  0  0  0  0
   -7.1390   13.7000    7.4500 C   0  0  0  0  0  0
   -6.6720   12.4590    7.4210 N   0  0  0  0  0  0
   -8.3880   13.9230    7.8390 N   0  0  0  0  0  0
    0.1270   15.6260    7.2250 N   0  0  0  0  0  0
    1.2920   16.3890    6.7910 C   0  0  2  0  0  0
    2.5870   15.8200    7.3700 C   0  0  0  0  0  0
    3.6740   16.3200    7.0840 O   0  0  0  0  0  0
    1.1430   17.8580    7.1910 C   0  0  2  0  0  0
   -0.0670   18.3960    6.6880 O   0  0  0  0  0  0
    2.2750   18.7310    6.6930 C   0  0  0  0  0  0
    2.4690   14.7680    8.1760 N   0  0  0  0  0  0
    3.6320   14.1330    8.7760 C   0  0  2  0  0  0
    4.2270   13.0930    7.8310 C   0  0  0  0  0  0
    5.2090   12.4450    8.1670 O   0  0  0  0  0  0
    3.2560   13.4740   10.1050 C   0  0  0  0  0  0
    4.4520   12.9410   10.8780 C   0  0  0  0  0  0
    4.5180   11.4220   10.8280 C   0  0  0  0  0  0
    5.9480   10.9310   10.6530 C   0  0  0  0  0  0
    6.0540    9.4550   10.8260 N   0  3  0  0  0  0
    3.5910   12.9350    6.6640 N   0  0  0  0  0  0
    3.9900   11.9740    5.6250 C   0  0  2  0  0  0
    4.0430   10.5170    6.1140 C   0  0  0  0  0  0
    4.0430    9.5920    5.3040 O   0  0  0  0  0  0
    5.2880   12.3740    4.8710 C   0  0  2  0  0  0
    6.4200   12.7780    5.8130 C   0  0  0  0  0  0
    4.9930   13.5070    3.9000 C   0  0  0  0  0  0
    6.9060   11.6440    6.6650 C   0  0  0  0  0  0
    4.0180   10.3090    7.4290 N   0  0  0  0  0  0
    4.0000    8.9580    8.0050 C   0  0  2  0  0  0
    5.3040    8.1620    7.8230 C   0  0  0  0  0  0
    5.4510    7.0980    8.4250 O   0  0  0  0  0  0
    2.8370    8.1570    7.4150 C   0  0  0  0  0  0
    2.5570    6.8850    8.1920 C   0  0  0  0  0  0
    2.5690    6.9370    9.4390 O   0  0  0  0  0  0
    2.3260    5.8380    7.5530 O   0  0  0  0  0  0
    6.2480    8.6430    7.0090 N   0  0  0  0  0  0
    7.5020    7.9070    6.8090 C   0  0  2  0  0  0
    8.1110    7.5530    8.1680 C   0  0  0  0  0  0
    8.0800    6.3920    8.5740 O   0  0  0  0  0  0
    8.5160    8.7110    5.9750 C   0  0  0  0  0  0
    8.0270    9.1360    4.6110 C   0  0  0  0  0  0
    6.7540    9.4660    4.2530 C   0  0  0  0  0  0
    8.8190    9.2900    3.4230 C   0  0  0  0  0  0
    6.7070    9.8340    2.9320 N   0  0  0  0  0  0
    7.9620    9.7310    2.3990 C   0  0  0  0  0  0
   10.1680    9.1050    3.1290 C   0  0  0  0  0  0
    8.4170    9.9910    1.1070 C   0  0  0  0  0  0
   10.6200    9.3600    1.8520 C   0  0  0  0  0  0
    9.7470    9.8010    0.8540 C   0  0  0  0  0  0
    8.6130    8.5740    8.8840 N   0  0  0  0  0  0
    9.1870    8.4020   10.2330 C   0  0  2  0  0  0
   10.2870    9.4330   10.5370 C   0  0  0  0  0  0
    9.9930   10.5150   11.0360 O   0  0  0  0  0  0
    9.7180    6.9780   10.4700 C   0  0  0  0  0  0
    8.7940    6.1560   11.3470 C   0  0  0  0  0  0
    9.2420    5.4320   12.2350 O   0  0  0  0  0  0
    7.4930    6.2640   11.1010 N   0  0  0  0  0  0
   11.5520    9.0830   10.2840 N   0  0  0  0  0  0
   12.6740    9.9780   10.5840 C   0  0  2  0  0  0
   13.1580   10.7860    9.3750 C   0  0  0  0  0  0
   13.5670   11.9380    9.5210 O   0  0  0  0  0  0
   13.8400    9.1730   11.1570 C   0  0  0  0  0  0
   14.9630   10.0370   11.7070 C   0  0  0  0  0  0
   16.0460   10.2700   10.6660 C   0  0  0  0  0  0
   17.1870    9.2770   10.8160 C   0  0  0  0  0  0
   17.9550    9.5000   12.0720 N   0  3  0  0  0  0
   13.1480   10.1800    8.1900 N   0  0  0  0  0  0
   13.6280   10.8570    6.9820 C   0  0  2  0  0  0
   12.9460   12.2140    6.7930 C   0  0  0  0  0  0
   13.6110   13.2490    6.7800 O   0  0  0  0  0  0
   13.4070    9.9770    5.7280 C   0  0  2  0  0  0
   13.7560   10.7330    4.4370 C   0  0  0  0  0  0
   11.9740    9.4840    5.6790 C   0  0  0  0  0  0
   15.2160   10.6380    4.0530 C   0  0  0  0  0  0
   11.6250   12.2120    6.6660 N   0  0  0  0  0  0
   10.8800   13.4520    6.5030 C   0  0  2  0  0  0
   10.4060   13.9540    7.8600 C   0  0  0  0  0  0
   10.2490   15.1550    8.0760 O   0  0  0  0  0  0
    9.6840   13.2440    5.5740 C   0  0  0  0  0  0
    9.9550   12.4040    4.3220 C   0  0  0  0  0  0
    8.7590   12.4490    3.3830 C   0  0  0  0  0  0
   11.2130   12.8790    3.6050 C   0  0  0  0  0  0
   10.1830   13.0120    8.7720 N   0  0  0  0  0  0
    9.7290   13.3290   10.1160 C   0  0  2  0  0  0
    8.3530   13.9880   10.0860 C   0  0  0  0  0  0
    8.0370   14.7400   11.0330 O   0  0  0  0  0  0
   10.7360   14.2410   10.8210 C   0  0  0  0  0  0
   10.5010   15.6040   10.5050 O   0  0  0  0  0  0
    7.6030   13.7490    9.1160 O   0  0  0  0  0  0
    0.4251   12.8414   10.3767 H   0  0  0  0  0  0
    0.0330   11.3065   11.2234 H   0  0  0  0  0  0
   -1.2775   12.2763   10.4693 H   0  0  0  0  0  0
    1.0071   10.9118    9.0382 H   0  0  0  0  0  0
   -1.3534    9.8355    8.1035 H   0  0  0  0  0  0
   -2.7386   11.0759    9.7942 H   0  0  0  0  0  0
    0.6005    8.5236    8.9705 H   0  0  0  0  0  0
   -0.9732    7.8779    9.5478 H   0  0  0  0  0  0
    0.0509    8.8631   10.6466 H   0  0  0  0  0  0
   -1.6749   13.1898    9.1030 H   0  0  0  0  0  0
   -2.0802   13.3292    6.2469 H   0  0  0  0  0  0
   -2.2955   15.4391    8.4642 H   0  0  0  0  0  0
   -2.8031   15.7729    6.7737 H   0  0  0  0  0  0
   -3.9172   13.3070    8.0118 H   0  0  0  0  0  0
   -4.4595   14.8724    8.7062 H   0  0  0  0  0  0
   -4.6982   15.4778    6.0934 H   0  0  0  0  0  0
   -4.9205   13.6984    5.9884 H   0  0  0  0  0  0
   -6.8206   15.7189    7.1458 H   0  0  0  0  0  0
   -5.6375   12.2680    7.0995 H   0  0  0  0  0  0
   -8.7809   14.9501    7.8651 H   0  0  0  0  0  0
   -9.0305   13.0807    8.1354 H   0  0  0  0  0  0
   -0.3163   15.8139    8.2140 H   0  0  0  0  0  0
    1.3067   16.2829    5.6962 H   0  0  0  0  0  0
    1.0874   17.9034    8.2887 H   0  0  0  0  0  0
   -1.0257   17.9134    6.9291 H   0  0  0  0  0  0
    3.2322   18.3390    7.0672 H   0  0  0  0  0  0
    2.1324   19.7592    7.0569 H   0  0  0  0  0  0
    2.2829   18.7291    5.5930 H   0  0  0  0  0  0
    1.4613   14.3796    8.3849 H   0  0  0  0  0  0
    4.3538   14.9465    8.9411 H   0  0  0  0  0  0
    2.7493   14.2086   10.7481 H   0  0  0  0  0  0
    2.5818   12.6257    9.9158 H   0  0  0  0  0  0
    5.3787   13.3437   10.4431 H   0  0  0  0  0  0
    4.3761   13.2511   11.9306 H   0  0  0  0  0  0
    4.1197   11.0066   11.7655 H   0  0  0  0  0  0
    3.9185   11.0566    9.9812 H   0  0  0  0  0  0
    6.3021   11.1856    9.6432 H   0  0  0  0  0  0
    6.5952   11.4127   11.4008 H   0  0  0  0  0  0
    7.1006    9.1443   10.6916 H   0  0  0  0  0  0
    5.4233    8.9520   10.0782 H   0  0  0  0  0  0
    5.7163    9.1790   11.8359 H   0  0  0  0  0  0
    2.7168   13.5838    6.5066 H   0  0  0  0  0  0
    3.1391   12.0598    4.9332 H   0  0  0  0  0  0
    5.6438   11.4964    4.3114 H   0  0  0  0  0  0
    7.2742   13.1434    5.2241 H   0  0  0  0  0  0
    6.0705   13.5752    6.4855 H   0  0  0  0  0  0
    4.1771   13.2085    3.2253 H   0  0  0  0  0  0
    5.8945   13.7281    3.3098 H   0  0  0  0  0  0
    4.6940   14.4036    4.4627 H   0  0  0  0  0  0
    7.7173   11.9977    7.3182 H   0  0  0  0  0  0
    7.2805   10.8353    6.0202 H   0  0  0  0  0  0
    6.0767   11.2671    7.2816 H   0  0  0  0  0  0
    4.0110   11.1886    8.0895 H   0  0  0  0  0  0
    3.8732    9.1542    9.0799 H   0  0  0  0  0  0
    1.9244    8.7710    7.4291 H   0  0  0  0  0  0
    3.0739    7.8761    6.3782 H   0  0  0  0  0  0
    2.1196    4.9003    8.0897 H   0  0  0  0  0  0
    6.0808    9.5968    6.4872 H   0  0  0  0  0  0
    7.2198    6.9999    6.2545 H   0  0  0  0  0  0
    8.7858    9.6314    6.5135 H   0  0  0  0  0  0
    9.4187    8.1043    5.8108 H   0  0  0  0  0  0
    5.8940    9.4411    4.9222 H   0  0  0  0  0  0
   10.8583    8.7625    3.8999 H   0  0  0  0  0  0
    7.7370   10.3333    0.3269 H   0  0  0  0  0  0
   11.6745    9.2154    1.6171 H   0  0  0  0  0  0
   10.1340    9.9974   -0.1459 H   0  0  0  0  0  0
    8.5831    9.5719    8.4221 H   0  0  0  0  0  0
    8.3249    8.5823   10.8920 H   0  0  0  0  0  0
    9.8210    6.4598    9.5052 H   0  0  0  0  0  0
   10.6991    7.0301   10.9648 H   0  0  0  0  0  0
    7.1384    6.9244   10.2959 H   0  0  0  0  0  0
    6.7703    5.6930   11.7024 H   0  0  0  0  0  0
   11.7405    8.0948    9.8391 H   0  0  0  0  0  0
   12.2581   10.6806   11.3212 H   0  0  0  0  0  0
   13.4787    8.5400   11.9809 H   0  0  0  0  0  0
   14.2699    8.5381   10.3683 H   0  0  0  0  0  0
   14.5583   11.0129   12.0134 H   0  0  0  0  0  0
   15.4167    9.5389   12.5765 H   0  0  0  0  0  0
   15.6172   10.1575    9.6593 H   0  0  0  0  0  0
   16.4519   11.2860   10.7802 H   0  0  0  0  0  0
   16.7826    8.2542   10.8363 H   0  0  0  0  0  0
   17.8779    9.3813    9.9665 H   0  0  0  0  0  0
   18.7682    8.7625   12.1403 H   0  0  0  0  0  0
   17.2844    9.3876   12.9367 H   0  0  0  0  0  0
   18.3797   10.5147   12.0668 H   0  0  0  0  0  0
   12.7690    9.1492    8.1290 H   0  0  0  0  0  0
   14.7016   11.0123    7.1644 H   0  0  0  0  0  0
   14.0686    9.1007    5.7939 H   0  0  0  0  0  0
   13.1701   10.3220    3.6016 H   0  0  0  0  0  0
   13.5187   11.7999    4.5613 H   0  0  0  0  0  0
   11.7395    8.9455    6.6091 H   0  0  0  0  0  0
   11.8484    8.8066    4.8214 H   0  0  0  0  0  0
   11.2945   10.3422    5.5709 H   0  0  0  0  0  0
   15.3881   11.2009    3.1237 H   0  0  0  0  0  0
   15.4865    9.5831    3.8982 H   0  0  0  0  0  0
   15.8351   11.0610    4.8579 H   0  0  0  0  0  0
   11.0931   11.2493    6.6857 H   0  0  0  0  0  0
   11.5822   14.1701    6.0544 H   0  0  0  0  0  0
    8.8793   12.7314    6.1214 H   0  0  0  0  0  0
    9.3217   14.2199    5.2185 H   0  0  0  0  0  0
   10.1153   11.3608    4.6319 H   0  0  0  0  0  0
    7.8611   12.1034    3.9162 H   0  0  0  0  0  0
    8.9467   11.7950    2.5186 H   0  0  0  0  0  0
    8.6045   13.4811    3.0353 H   0  0  0  0  0  0
   12.0666   12.8400    4.2977 H   0  0  0  0  0  0
   11.0691   13.9129    3.2582 H   0  0  0  0  0  0
   11.4113   12.2269    2.7416 H   0  0  0  0  0  0
   10.3531   11.9647    8.4816 H   0  0  0  0  0  0
    9.6633   12.3602   10.6328 H   0  0  0  0  0  0
    7.0523   15.2302   11.0411 H   0  0  0  0  0  0
   10.6474   14.1125   11.9099 H   0  0  0  0  0  0
   11.7553   13.9772   10.5024 H   0  0  0  0  0  0
   11.1430   16.3869   10.9351 H   0  0  0  0  0  0
  1  2  1  0  0  0
  1105  1  0  0  0
  1106  1  0  0  0
  1107  1  0  0  0
  2  3  1  0  0  0
  2  5  1  0  0  0
  2108  1  0  0  0
  3  4  2  0  0  0
  3  8  1  0  0  0
  5  6  1  0  0  0
  5  7  1  0  0  0
  5109  1  0  0  0
  6110  1  0  0  0
  7111  1  0  0  0
  7112  1  0  0  0
  7113  1  0  0  0
  8  9  1  0  0  0
  8114  1  0  0  0
  9 10  1  0  0  0
  9 12  1  0  0  0
  9115  1  0  0  0
 10 11  2  0  0  0
 10 19  1  0  0  0
 12 13  1  0  0  0
 12116  1  0  0  0
 12117  1  0  0  0
 13 14  1  0  0  0
 13118  1  0  0  0
 13119  1  0  0  0
 14 15  1  0  0  0
 14120  1  0  0  0
 14121  1  0  0  0
 15 16  1  0  0  0
 15122  1  0  0  0
 16 17  2  0  0  0
 16 18  1  0  0  0
 17123  1  0  0  0
 18124  1  0  0  0
 18125  1  0  0  0
 19 20  1  0  0  0
 19126  1  0  0  0
 20 21  1  0  0  0
 20 23  1  0  0  0
 20127  1  0  0  0
 21 22  2  0  0  0
 21 26  1  0  0  0
 23 24  1  0  0  0
 23 25  1  0  0  0
 23128  1  0  0  0
 24129  1  0  0  0
 25130  1  0  0  0
 25131  1  0  0  0
 25132  1  0  0  0
 26 27  1  0  0  0
 26133  1  0  0  0
 27 28  1  0  0  0
 27 30  1  0  0  0
 27134  1  0  0  0
 28 29  2  0  0  0
 28 35  1  0  0  0
 30 31  1  0  0  0
 30135  1  0  0  0
 30136  1  0  0  0
 31 32  1  0  0  0
 31137  1  0  0  0
 31138  1  0  0  0
 32 33  1  0  0  0
 32139  1  0  0  0
 32140  1  0  0  0
 33 34  1  0  0  0
 33141  1  0  0  0
 33142  1  0  0  0
 34143  1  0  0  0
 34144  1  0  0  0
 34145  1  0  0  0
 35 36  1  0  0  0
 35146  1  0  0  0
 36 37  1  0  0  0
 36 39  1  0  0  0
 36147  1  0  0  0
 37 38  2  0  0  0
 37 43  1  0  0  0
 39 40  1  0  0  0
 39 41  1  0  0  0
 39148  1  0  0  0
 40 42  1  0  0  0
 40149  1  0  0  0
 40150  1  0  0  0
 41151  1  0  0  0
 41152  1  0  0  0
 41153  1  0  0  0
 42154  1  0  0  0
 42155  1  0  0  0
 42156  1  0  0  0
 43 44  1  0  0  0
 43157  1  0  0  0
 44 45  1  0  0  0
 44 47  1  0  0  0
 44158  1  0  0  0
 45 46  2  0  0  0
 45 51  1  0  0  0
 47 48  1  0  0  0
 47159  1  0  0  0
 47160  1  0  0  0
 48 49  2  0  0  0
 48 50  1  0  0  0
 50161  1  0  0  0
 51 52  1  0  0  0
 51162  1  0  0  0
 52 53  1  0  0  0
 52 55  1  0  0  0
 52163  1  0  0  0
 53 54  2  0  0  0
 53 65  1  0  0  0
 55 56  1  0  0  0
 55164  1  0  0  0
 55165  1  0  0  0
 56 57  2  0  0  0
 56 58  1  0  0  0
 57 59  1  0  0  0
 57166  1  0  0  0
 58 60  2  0  0  0
 58 61  1  0  0  0
 59 60  1  0  0  0
 60 62  1  0  0  0
 61 63  2  0  0  0
 61167  1  0  0  0
 62 64  2  0  0  0
 62168  1  0  0  0
 63 64  1  0  0  0
 63169  1  0  0  0
 64170  1  0  0  0
 65 66  1  0  0  0
 65171  1  0  0  0
 66 67  1  0  0  0
 66 69  1  0  0  0
 66172  1  0  0  0
 67 68  2  0  0  0
 67 73  1  0  0  0
 69 70  1  0  0  0
 69173  1  0  0  0
 69174  1  0  0  0
 70 71  2  0  0  0
 70 72  1  0  0  0
 72175  1  0  0  0
 72176  1  0  0  0
 73 74  1  0  0  0
 73177  1  0  0  0
 74 75  1  0  0  0
 74 77  1  0  0  0
 74178  1  0  0  0
 75 76  2  0  0  0
 75 82  1  0  0  0
 77 78  1  0  0  0
 77179  1  0  0  0
 77180  1  0  0  0
 78 79  1  0  0  0
 78181  1  0  0  0
 78182  1  0  0  0
 79 80  1  0  0  0
 79183  1  0  0  0
 79184  1  0  0  0
 80 81  1  0  0  0
 80185  1  0  0  0
 80186  1  0  0  0
 81187  1  0  0  0
 81188  1  0  0  0
 81189  1  0  0  0
 82 83  1  0  0  0
 82190  1  0  0  0
 83 84  1  0  0  0
 83 86  1  0  0  0
 83191  1  0  0  0
 84 85  2  0  0  0
 84 90  1  0  0  0
 86 87  1  0  0  0
 86 88  1  0  0  0
 86192  1  0  0  0
 87 89  1  0  0  0
 87193  1  0  0  0
 87194  1  0  0  0
 88195  1  0  0  0
 88196  1  0  0  0
 88197  1  0  0  0
 89198  1  0  0  0
 89199  1  0  0  0
 89200  1  0  0  0
 90 91  1  0  0  0
 90201  1  0  0  0
 91 92  1  0  0  0
 91 94  1  0  0  0
 91202  1  0  0  0
 92 93  2  0  0  0
 92 98  1  0  0  0
 94 95  1  0  0  0
 94203  1  0  0  0
 94204  1  0  0  0
 95 96  1  0  0  0
 95 97  1  0  0  0
 95205  1  0  0  0
 96206  1  0  0  0
 96207  1  0  0  0
 96208  1  0  0  0
 97209  1  0  0  0
 97210  1  0  0  0
 97211  1  0  0  0
 98 99  1  0  0  0
 98212  1  0  0  0
 99100  1  0  0  0
 99102  1  0  0  0
 99213  1  0  0  0
100101  1  0  0  0
100104  2  0  0  0
101214  1  0  0  0
102103  1  0  0  0
102215  1  0  0  0
102216  1  0  0  0
103217  1  0  0  0
M  CHG  3   1   1  34   1  81   1
M  END
> <s_m_source_file>
../1mq1_ligand.sdf

> <i_m_source_file_index>
1

> <s_epik_input>
W0hdL049QyhbTkgyXSlcW05IXVtDSDJdW0NIMl1bQ0gyXVtDQEhdKFtOSF1DKD1PKVtDQEBIXShbTkgzK10pW0NASF0oW09IXSlbQ0gzXSlDKD1PKVtOSF1bQ0BASF0oW0NASF0oW09IXSlbQ0gzXSlDKD1PKVtOSF1bQ0BASF0oW0NIMl1bQ0gyXVtDSDJdW0NIMl1bTkgzK10pQyg9TylbTkhdW0NAQEhdKFtDQEBIXShbQ0gzXSlbQ0gyXVtDSDNdKUMoPU8pW05IXVtDQEBIXShbQ0gyXUMoPU8pW09IXSlDKD1PKVtOSF1bQ0BASF0oW0NIMl1jMVtjSF1bbkhdYyhjMTIpW2NIXVtjSF1bY0hdW2NIXTIpQyg9TylbTkhdW0NAQEhdKFtDSDJdQyg9TylbTkgyXSlDKD1PKVtOSF1bQ0BASF0oW0NIMl1bQ0gyXVtDSDJdW0NIMl1bTkgzK10pQyg9TylbTkhdW0NAQEhdKFtDQEBIXShbQ0gzXSlbQ0gyXVtDSDNdKUMoPU8pW05IXVtDQEBIXShbQ0gyXVtDSF0oW0NIM10pW0NIM10pQyg9TylbTkhdW0NASF0oQyg9TylbT0hdKVtDSDJdW09IXQ==

> <s_epik_cmdline>
J2VwaWtfYXBwJywgJy1pbWFlJywgJ2xpZ2FuZF9wcm8ubWFlJywgJy1vbWFlJywgJ2xpZ2FuZF9wcmVwLm1hZScsICctbXMnLCAnMScsICctcGgnLCAnNycsICctcGh0JywgJzAuNScsICctbnQn

> <s_epik_pKa_notes>
Molecule size exceeds maximum supported for generating protonation states

> <s_epik_Chemistry_Notes>
This compound has an imine and may undergo hydrolysis.

$$$$
