1mqd_ligand
                    3D
 Schrodinger Suite 2020-3.
 19 19  0  0  1  0            999 V2000
   72.8180   43.7880   43.0640 O   0  0  0  0  0  0
   74.0130   43.5010   42.3310 N   0  0  0  0  0  0
   72.5970   45.1230   42.9880 C   0  0  0  0  0  0
   73.6060   45.7530   42.3780 C   0  0  0  0  0  0
   74.4540   44.6770   41.8760 C   0  0  0  0  0  0
   75.4660   44.7740   41.1220 O   0  5  0  0  0  0
   73.8890   47.2110   42.1980 C   0  0  0  0  0  0
   74.7350   47.8530   43.3240 C   0  0  2  0  0  0
   74.0510   47.6890   44.6610 N   0  3  0  0  0  0
   74.9640   49.3460   42.9290 C   0  0  0  0  0  0
   74.7360   50.1900   43.8440 O   0  0  0  0  0  0
   75.3660   49.6150   41.7590 O   0  5  0  0  0  0
   71.7080   45.6206   43.3756 H   0  0  0  0  0  0
   74.4425   47.3640   41.2598 H   0  0  0  0  0  0
   72.9404   47.7666   42.1588 H   0  0  0  0  0  0
   75.7002   47.3433   43.4605 H   0  0  0  0  0  0
   73.9208   46.6184   44.8774 H   0  0  0  0  0  0
   73.0669   48.1795   44.6320 H   0  0  0  0  0  0
   74.6673   48.1497   45.4471 H   0  0  0  0  0  0
  1  2  1  0  0  0
  1  3  1  0  0  0
  2  5  2  0  0  0
  3  4  2  0  0  0
  3 13  1  0  0  0
  4  5  1  0  0  0
  4  7  1  0  0  0
  5  6  1  0  0  0
  7  8  1  0  0  0
  7 14  1  0  0  0
  7 15  1  0  0  0
  8  9  1  0  0  0
  8 10  1  0  0  0
  8 16  1  0  0  0
  9 17  1  0  0  0
  9 18  1  0  0  0
  9 19  1  0  0  0
 10 11  2  0  0  0
 10 12  1  0  0  0
M  CHG  3   6  -1   9   1  12  -1
M  END
> <s_m_source_file>
../1mqd_ligand.sdf

> <i_m_source_file_index>
1

> <s_epik_input>
Tz1jMVtuSF1vW2NIXWMxW0NIMl1bQ0BIXShbTkgzK10pQyg9TylbT0hd

> <s_epik_cmdline>
J2VwaWtfYXBwJywgJy1pbWFlJywgJ2xpZ2FuZF9wcm8ubWFlJywgJy1vbWFlJywgJ2xpZ2FuZF9wcmVwLm1hZScsICctbXMnLCAnMScsICctcGgnLCAnNycsICctcGh0JywgJzAuNScsICctbnQn

> <r_lp_tautomer_probability>
1

> <r_epik_Ionization_Penalty>
  0.0058

> <r_epik_Ionization_Penalty_Charging>
  0.0058

> <r_epik_Ionization_Penalty_Neutral>
  0.0000

> <r_epik_State_Penalty>
 -0.0000

> <r_epik_Charging_Adjusted_Penalty>
0.00582991255105802

> <i_epik_Tot_Q>
-1

> <i_epik_Tot_abs_Q>
3

$$$$
