1mqg_ligand
                    3D
 Schrodinger Suite 2020-3.
 23 23  0  0  1  0            999 V2000
   18.7120    3.0980   21.0510 N   0  0  0  0  0  0
   17.8410    3.7760   20.1570 C   0  0  0  0  0  0
   18.1940    4.3340   19.1470 O   0  0  0  0  0  0
   16.4840    3.7430   20.5520 N   0  0  0  0  0  0
   15.9350    3.1450   21.6550 C   0  0  0  0  0  0
   14.7440    3.1970   21.9020 O   0  0  0  0  0  0
   16.9670    2.4460   22.5360 C   0  0  0  0  0  0
   16.3750    1.4200   24.2420 I   0  0  0  0  0  0
   18.2580    2.4620   22.1520 C   0  0  0  0  0  0
   20.1530    2.9810   20.7490 C   0  0  0  0  0  0
   20.4560    2.0730   19.5690 C   0  0  2  0  0  0
   20.1600    0.6510   19.9600 N   0  3  0  0  0  0
   21.8790    2.1940   18.9970 C   0  0  0  0  0  0
   22.5640    1.1890   18.8910 O   0  0  0  0  0  0
   22.2350    3.3980   18.7140 O   0  5  0  0  0  0
   15.7202    4.2428   19.9381 H   0  0  0  0  0  0
   18.9812    1.9282   22.7686 H   0  0  0  0  0  0
   20.5596    3.9750   20.5111 H   0  0  0  0  0  0
   20.6786    2.5694   21.6233 H   0  0  0  0  0  0
   19.7862    2.3924   18.7570 H   0  0  0  0  0  0
   19.1396    0.5871   20.3657 H   0  0  0  0  0  0
   20.8798    0.3236   20.7247 H   0  0  0  0  0  0
   20.2442    0.0024   19.0755 H   0  0  0  0  0  0
  1  2  1  0  0  0
  1  9  1  0  0  0
  1 10  1  0  0  0
  2  3  2  0  0  0
  2  4  1  0  0  0
  4  5  1  0  0  0
  4 16  1  0  0  0
  5  6  2  0  0  0
  5  7  1  0  0  0
  7  8  1  0  0  0
  7  9  2  0  0  0
  9 17  1  0  0  0
 10 11  1  0  0  0
 10 18  1  0  0  0
 10 19  1  0  0  0
 11 12  1  0  0  0
 11 13  1  0  0  0
 11 20  1  0  0  0
 12 21  1  0  0  0
 12 22  1  0  0  0
 12 23  1  0  0  0
 13 14  2  0  0  0
 13 15  1  0  0  0
M  CHG  2  12   1  15  -1
M  END
> <s_m_source_file>
../1mqg_ligand.sdf

> <i_m_source_file_index>
1

> <s_epik_input>
Tz1DKFtPSF0pW0NAQEhdKFtOSDMrXSlbQ0gyXW4xYyg9TylbbkhdYyg9TyljKEkpW2NIXTE=

> <s_epik_cmdline>
J2VwaWtfYXBwJywgJy1pbWFlJywgJ2xpZ2FuZF9wcm8ubWFlJywgJy1vbWFlJywgJ2xpZ2FuZF9wcmVwLm1hZScsICctbXMnLCAnMScsICctcGgnLCAnNycsICctcGh0JywgJzAuNScsICctbnQn

> <r_lp_tautomer_probability>
1

> <r_epik_Ionization_Penalty>
  0.1610

> <r_epik_Ionization_Penalty_Charging>
  0.1610

> <r_epik_Ionization_Penalty_Neutral>
  0.0000

> <r_epik_State_Penalty>
 -0.0000

> <r_epik_Charging_Adjusted_Penalty>
0.160991929374562

> <i_epik_Tot_Q>
0

> <i_epik_Tot_abs_Q>
2

$$$$
