1mqh_ligand
                    3D
 Schrodinger Suite 2020-3.
 23 23  0  0  1  0            999 V2000
   15.7260   43.9930   15.3850 N   0  0  0  0  0  0
   15.4890   45.2560   14.7790 C   0  0  0  0  0  0
   15.3010   46.2820   15.3870 O   0  0  0  0  0  0
   15.4900   45.2160   13.3620 N   0  0  0  0  0  0
   15.6990   44.1270   12.5440 C   0  0  0  0  0  0
   15.6630   44.1960   11.3240 O   0  0  0  0  0  0
   15.9490   42.8430   13.3120 C   0  0  0  0  0  0
   16.3090   41.2560   12.3810 Br  0  0  0  0  0  0
   15.9640   42.8790   14.6610 C   0  0  0  0  0  0
   15.8190   43.8800   16.8520 C   0  0  0  0  0  0
   17.0620   44.5400   17.4280 C   0  0  2  0  0  0
   18.2470   43.6520   17.1660 N   0  3  0  0  0  0
   16.9770   44.9090   18.9130 C   0  0  0  0  0  0
   17.8250   44.4850   19.6570 O   0  0  0  0  0  0
   15.9590   45.6300   19.2350 O   0  5  0  0  0  0
   15.3075   46.1350   12.7857 H   0  0  0  0  0  0
   16.1809   41.9549   15.1969 H   0  0  0  0  0  0
   14.9441   44.3617   17.3130 H   0  0  0  0  0  0
   15.8454   42.8179   17.1370 H   0  0  0  0  0  0
   17.1783   45.4989   16.9018 H   0  0  0  0  0  0
   18.2874   43.4008   16.0958 H   0  0  0  0  0  0
   18.1508   42.7287   17.7561 H   0  0  0  0  0  0
   19.1695   44.1771   17.4545 H   0  0  0  0  0  0
  1  2  1  0  0  0
  1  9  1  0  0  0
  1 10  1  0  0  0
  2  3  2  0  0  0
  2  4  1  0  0  0
  4  5  1  0  0  0
  4 16  1  0  0  0
  5  6  2  0  0  0
  5  7  1  0  0  0
  7  8  1  0  0  0
  7  9  2  0  0  0
  9 17  1  0  0  0
 10 11  1  0  0  0
 10 18  1  0  0  0
 10 19  1  0  0  0
 11 12  1  0  0  0
 11 13  1  0  0  0
 11 20  1  0  0  0
 12 21  1  0  0  0
 12 22  1  0  0  0
 12 23  1  0  0  0
 13 14  2  0  0  0
 13 15  1  0  0  0
M  CHG  2  12   1  15  -1
M  END
> <s_m_source_file>
../1mqh_ligand.sdf

> <i_m_source_file_index>
1

> <s_epik_input>
Tz1DKFtPSF0pW0NAQEhdKFtOSDMrXSlbQ0gyXW4xYyg9TylbbkhdYyg9TyljKEJyKVtjSF0x

> <s_epik_cmdline>
J2VwaWtfYXBwJywgJy1pbWFlJywgJ2xpZ2FuZF9wcm8ubWFlJywgJy1vbWFlJywgJ2xpZ2FuZF9wcmVwLm1hZScsICctbXMnLCAnMScsICctcGgnLCAnNycsICctcGh0JywgJzAuNScsICctbnQn

> <r_lp_tautomer_probability>
0.999537046341301

> <r_epik_Ionization_Penalty>
  0.3794

> <r_epik_Ionization_Penalty_Charging>
  0.3794

> <r_epik_Ionization_Penalty_Neutral>
  0.0000

> <r_epik_State_Penalty>
  0.3423

> <r_epik_Charging_Adjusted_Penalty>
0.721783141236193

> <i_epik_Tot_Q>
0

> <i_epik_Tot_abs_Q>
2

$$$$
