1ms0_ligand
                    3D
 Schrodinger Suite 2020-3.
 38 38  0  0  1  0            999 V2000
   34.6050  -15.8460    9.5840 C   0  0  0  0  0  0
   33.7160  -16.1120   10.6570 C   0  0  1  0  0  0
   34.2630  -16.3080   12.0560 C   0  0  0  0  0  0
   33.2400  -16.9410   12.9940 C   0  0  1  0  0  0
   32.3650  -17.8500   12.1730 C   0  0  2  0  0  0
   31.6040  -16.9760   11.1970 C   0  0  2  0  0  0
   30.6760  -17.8780   10.3660 C   0  0  1  0  0  0
   29.6120  -17.0800    9.6470 C   0  0  1  0  0  0
   28.7460  -18.0500    8.8490 C   0  0  0  0  0  0
   31.2740  -19.9490   12.7040 C   0  0  0  0  0  0
   32.3290  -20.5910   11.8400 C   0  0  0  0  0  0
   31.4590  -18.6500   12.9840 N   0  0  0  0  0  0
   34.8930  -16.8120    8.5800 O   0  5  0  0  0  0
   35.2100  -14.6830    9.4650 O   0  0  0  0  0  0
   33.8740  -17.7210   13.9740 O   0  0  0  0  0  0
   32.4720  -16.1560   10.4120 O   0  0  0  0  0  0
   31.3590  -18.6980    9.4310 O   0  0  0  0  0  0
   28.8660  -16.3770   10.6120 O   0  0  0  0  0  0
   29.3810  -18.3560    7.6270 O   0  0  0  0  0  0
   30.1670  -20.6860   13.1810 O   0  0  0  0  0  0
   33.8114  -17.1915   10.4684 H   0  0  0  0  0  0
   35.1428  -16.9671   12.0167 H   0  0  0  0  0  0
   34.5533  -15.3337   12.4761 H   0  0  0  0  0  0
   32.6769  -16.1806   13.5550 H   0  0  0  0  0  0
   32.9774  -18.6101   11.6658 H   0  0  0  0  0  0
   31.0316  -16.1954   11.7196 H   0  0  0  0  0  0
   30.2213  -18.6095   11.0502 H   0  0  0  0  0  0
   30.0166  -16.2937    8.9928 H   0  0  0  0  0  0
   28.6022  -18.9744    9.4277 H   0  0  0  0  0  0
   27.7684  -17.5879    8.6472 H   0  0  0  0  0  0
   33.0951  -19.8451   11.5817 H   0  0  0  0  0  0
   31.8653  -20.9744   10.9191 H   0  0  0  0  0  0
   32.7965  -21.4219   12.3886 H   0  0  0  0  0  0
   30.9246  -18.1897   13.8281 H   0  0  0  0  0  0
   34.5652  -17.2508   14.6889 H   0  0  0  0  0  0
   32.1735  -19.3559    9.7683 H   0  0  0  0  0  0
   29.3623  -15.6415   11.2622 H   0  0  0  0  0  0
   28.9019  -19.0446    6.9155 H   0  0  0  0  0  0
  1  2  1  0  0  0
  1 13  1  0  0  0
  1 14  2  0  0  0
  2  3  1  0  0  0
  2 16  1  0  0  0
  2 21  1  0  0  0
  3  4  1  0  0  0
  3 22  1  0  0  0
  3 23  1  0  0  0
  4  5  1  0  0  0
  4 15  1  0  0  0
  4 24  1  0  0  0
  5  6  1  0  0  0
  5 12  1  0  0  0
  5 25  1  0  0  0
  6  7  1  0  0  0
  6 16  1  0  0  0
  6 26  1  0  0  0
  7  8  1  0  0  0
  7 17  1  0  0  0
  7 27  1  0  0  0
  8  9  1  0  0  0
  8 18  1  0  0  0
  8 28  1  0  0  0
  9 19  1  0  0  0
  9 29  1  0  0  0
  9 30  1  0  0  0
 10 11  1  0  0  0
 10 12  1  0  0  0
 10 20  2  0  0  0
 11 31  1  0  0  0
 11 32  1  0  0  0
 11 33  1  0  0  0
 12 34  1  0  0  0
 15 35  1  0  0  0
 17 36  1  0  0  0
 18 37  1  0  0  0
 19 38  1  0  0  0
M  CHG  1  13  -1
M  END
> <s_m_source_file>
../1ms0_ligand.sdf

> <i_m_source_file_index>
1

> <s_epik_input>
W09IXUMoPU8pW0NIXTFbQ0gyXVtDQEhdKFtPSF0pW0NAQEhdKFtOSF1DKD1PKVtDSDNdKVtDQEBIXShPMSlbQ0BIXShbT0hdKVtDQEhdKFtPSF0pW0NIMl1bT0hd

> <s_epik_cmdline>
J2VwaWtfYXBwJywgJy1pbWFlJywgJ2xpZ2FuZF9wcm8ubWFlJywgJy1vbWFlJywgJ2xpZ2FuZF9wcmVwLm1hZScsICctbXMnLCAnMScsICctcGgnLCAnNycsICctcGh0JywgJzAuNScsICctbnQn

> <r_lp_tautomer_probability>
1

> <r_epik_Ionization_Penalty>
  0.0001

> <r_epik_Ionization_Penalty_Charging>
  0.0001

> <r_epik_Ionization_Penalty_Neutral>
  0.0000

> <r_epik_State_Penalty>
 -0.0000

> <r_epik_Charging_Adjusted_Penalty>
0.000104746784792729

> <i_epik_Tot_Q>
-1

> <i_epik_Tot_abs_Q>
1

$$$$
