1ms6_ligand
                    3D
 Schrodinger Suite 2020-3.
 61 62  0  0  1  0            999 V2000
   50.6790   28.9840   61.6690 C   0  0  0  0  0  0
   51.5670   29.6310   63.8690 C   0  0  0  0  0  0
   51.9100   28.8360   65.1330 C   0  0  0  0  0  0
   53.0600   27.1730   63.9000 C   0  0  0  0  0  0
   52.7050   27.8160   62.5460 C   0  0  0  0  0  0
   49.7790   29.8170   61.7760 O   0  0  0  0  0  0
   53.1520   28.1550   64.9360 O   0  0  0  0  0  0
   51.6160   28.7890   62.6490 N   0  0  0  0  0  0
   50.7880   28.2580   60.5550 N   0  0  0  0  0  0
   49.7920   28.4250   59.4840 C   0  0  1  0  0  0
   50.1930   27.6390   58.2310 C   0  0  0  0  0  0
   51.5050   28.0890   57.5760 C   0  0  0  0  0  0
   51.8320   27.1980   56.3670 C   0  0  0  0  0  0
   51.3720   29.5510   57.1330 C   0  0  0  0  0  0
   48.4770   27.8970   60.0640 C   0  0  0  0  0  0
   48.4680   26.8420   60.6850 O   0  0  0  0  0  0
   45.3500   29.4450   60.9580 C   0  0  0  0  0  0
   47.3700   28.6100   59.8570 N   0  0  0  0  0  0
   45.0790   30.2630   59.8400 O   0  0  0  0  0  0
   44.7860   31.6030   60.2230 C   0  0  0  0  0  0
   44.0390   32.2400   59.0900 C   0  0  0  0  0  0
   42.6600   32.1650   59.0270 C   0  0  0  0  0  0
   41.9580   32.7470   57.9610 C   0  0  0  0  0  0
   42.6480   33.4100   56.9550 C   0  0  0  0  0  0
   44.0350   33.4920   57.0070 C   0  0  0  0  0  0
   44.7230   32.9080   58.0710 C   0  0  0  0  0  0
   45.1930   27.3610   59.6000 C   0  0  0  0  0  0
   43.8980   27.1820   59.8160 N   0  0  0  0  0  0
   46.0970   28.2030   60.4770 C   0  0  2  0  0  0
   50.5513   30.0435   63.9596 H   0  0  0  0  0  0
   52.2871   30.4534   63.7464 H   0  0  0  0  0  0
   51.9971   29.5242   65.9867 H   0  0  0  0  0  0
   51.1142   28.1032   65.3325 H   0  0  0  0  0  0
   52.2817   26.4463   64.1761 H   0  0  0  0  0  0
   54.0293   26.6592   63.8190 H   0  0  0  0  0  0
   53.5863   28.3388   62.1461 H   0  0  0  0  0  0
   52.3910   27.0335   61.8395 H   0  0  0  0  0  0
   51.6122   27.5399   60.4325 H   0  0  0  0  0  0
   49.7333   29.4858   59.1989 H   0  0  0  0  0  0
   50.3175   26.5769   58.4887 H   0  0  0  0  0  0
   49.4081   27.7414   57.4671 H   0  0  0  0  0  0
   52.3233   28.0004   58.3057 H   0  0  0  0  0  0
   51.9250   26.1526   56.6964 H   0  0  0  0  0  0
   52.7800   27.5259   55.9156 H   0  0  0  0  0  0
   51.0250   27.2778   55.6238 H   0  0  0  0  0  0
   51.1382   30.1787   58.0056 H   0  0  0  0  0  0
   50.5637   29.6375   56.3919 H   0  0  0  0  0  0
   52.3187   29.8856   56.6838 H   0  0  0  0  0  0
   45.9687   30.0010   61.6777 H   0  0  0  0  0  0
   44.4037   29.1530   61.4367 H   0  0  0  0  0  0
   47.4043   29.5067   59.2208 H   0  0  0  0  0  0
   44.1710   31.5975   61.1350 H   0  0  0  0  0  0
   45.7248   32.1425   60.4170 H   0  0  0  0  0  0
   42.1120   31.6478   59.8146 H   0  0  0  0  0  0
   40.8708   32.6787   57.9225 H   0  0  0  0  0  0
   42.1041   33.8648   56.1271 H   0  0  0  0  0  0
   44.5825   34.0104   56.2198 H   0  0  0  0  0  0
   45.8104   32.9738   58.1079 H   0  0  0  0  0  0
   45.6041   26.8497   58.7171 H   0  0  0  0  0  0
   43.4131   27.6609   60.6794 H   0  0  0  0  0  0
   43.3079   26.5545   59.1319 H   0  0  0  0  0  0
  1  6  2  0  0  0
  1  8  1  0  0  0
  1  9  1  0  0  0
  2  3  1  0  0  0
  2  8  1  0  0  0
  2 30  1  0  0  0
  2 31  1  0  0  0
  3  7  1  0  0  0
  3 32  1  0  0  0
  3 33  1  0  0  0
  4  5  1  0  0  0
  4  7  1  0  0  0
  4 34  1  0  0  0
  4 35  1  0  0  0
  5  8  1  0  0  0
  5 36  1  0  0  0
  5 37  1  0  0  0
  9 10  1  0  0  0
  9 38  1  0  0  0
 10 11  1  0  0  0
 10 15  1  0  0  0
 10 39  1  0  0  0
 11 12  1  0  0  0
 11 40  1  0  0  0
 11 41  1  0  0  0
 12 13  1  0  0  0
 12 14  1  0  0  0
 12 42  1  0  0  0
 13 43  1  0  0  0
 13 44  1  0  0  0
 13 45  1  0  0  0
 14 46  1  0  0  0
 14 47  1  0  0  0
 14 48  1  0  0  0
 15 16  2  0  0  0
 15 18  1  0  0  0
 17 19  1  0  0  0
 17 29  1  0  0  0
 17 49  1  0  0  0
 17 50  1  0  0  0
 18 29  1  0  0  0
 18 51  1  0  0  0
 19 20  1  0  0  0
 20 21  1  0  0  0
 20 52  1  0  0  0
 20 53  1  0  0  0
 21 22  2  0  0  0
 21 26  1  0  0  0
 22 23  1  0  0  0
 22 54  1  0  0  0
 23 24  2  0  0  0
 23 55  1  0  0  0
 24 25  1  0  0  0
 24 56  1  0  0  0
 25 26  2  0  0  0
 25 57  1  0  0  0
 26 58  1  0  0  0
 27 28  1  0  0  0
 27 29  2  0  0  0
 27 59  1  0  0  0
 28 60  1  0  0  0
 28 61  1  0  0  0
M  END
> <s_m_source_file>
../1ms6_ligand.sdf

> <i_m_source_file_index>
1

> <s_epik_input>
W0NIMl0xW0NIMl1PW0NIMl1bQ0gyXU4xQyg9TylbTkhdW0NAQEhdKFtDSDJdW0NIXShbQ0gzXSlbQ0gzXSlDKD1PKVtOSF1bQ0BIXSgvW0NIXT1OXFtIXSlbQ0gyXU9bQ0gyXWMyW2NIXVtjSF1bY0hdW2NIXVtjSF0y

> <s_epik_cmdline>
J2VwaWtfYXBwJywgJy1pbWFlJywgJ2xpZ2FuZF9wcm8ubWFlJywgJy1vbWFlJywgJ2xpZ2FuZF9wcmVwLm1hZScsICctbXMnLCAnMScsICctcGgnLCAnNycsICctcGh0JywgJzAuNScsICctbnQn

> <r_lp_tautomer_probability>
1

> <r_epik_Ionization_Penalty>
  0.0000

> <r_epik_Ionization_Penalty_Charging>
  0.0000

> <r_epik_Ionization_Penalty_Neutral>
  0.0000

> <r_epik_State_Penalty>
 -0.0000

> <r_epik_Charging_Adjusted_Penalty>
1.04165718968288e-08

> <i_epik_Tot_Q>
0

> <i_epik_Tot_abs_Q>
0

> <s_epik_Chemistry_Notes>
This compound has an imine and may undergo hydrolysis.

$$$$
