1ms7_ligand
                    3D
 Schrodinger Suite 2020-3.
 19 19  0  0  1  0            999 V2000
   11.1980   24.9750    8.4310 O   0  0  0  0  0  0
   11.4760   26.3750    8.5270 N   0  0  0  0  0  0
   11.2160   24.6430    7.1180 C   0  0  0  0  0  0
   11.4710   25.7030    6.3330 C   0  0  0  0  0  0
   11.6730   26.7960    7.2770 C   0  0  0  0  0  0
   11.9940   27.9860    7.0250 O   0  5  0  0  0  0
   11.5530   25.8350    4.8320 C   0  0  0  0  0  0
   10.2310   26.2520    4.1260 C   0  0  2  0  0  0
    9.1760   25.1970    4.3250 N   0  3  0  0  0  0
   10.5620   26.5230    2.6110 C   0  0  0  0  0  0
    9.8850   25.8630    1.7630 O   0  5  0  0  0  0
   11.4500   27.3790    2.3200 O   0  0  0  0  0  0
   11.0438   23.6343    6.7424 H   0  0  0  0  0  0
   12.2997   26.5996    4.5714 H   0  0  0  0  0  0
   11.8485   24.8699    4.3946 H   0  0  0  0  0  0
    9.7847   27.1484    4.5813 H   0  0  0  0  0  0
    8.9944   25.0584    5.4010 H   0  0  0  0  0  0
    9.5186   24.2485    3.8858 H   0  0  0  0  0  0
    8.2440   25.5132    3.8336 H   0  0  0  0  0  0
  1  2  1  0  0  0
  1  3  1  0  0  0
  2  5  2  0  0  0
  3  4  2  0  0  0
  3 13  1  0  0  0
  4  5  1  0  0  0
  4  7  1  0  0  0
  5  6  1  0  0  0
  7  8  1  0  0  0
  7 14  1  0  0  0
  7 15  1  0  0  0
  8  9  1  0  0  0
  8 10  1  0  0  0
  8 16  1  0  0  0
  9 17  1  0  0  0
  9 18  1  0  0  0
  9 19  1  0  0  0
 10 11  1  0  0  0
 10 12  2  0  0  0
M  CHG  3   6  -1   9   1  11  -1
M  END
> <s_m_source_file>
../1ms7_ligand.sdf

> <i_m_source_file_index>
1

> <s_epik_input>
Tz1jMVtuSF1vW2NIXWMxW0NIMl1bQ0BIXShbTkgzK10pQyg9TylbT0hd

> <s_epik_cmdline>
J2VwaWtfYXBwJywgJy1pbWFlJywgJ2xpZ2FuZF9wcm8ubWFlJywgJy1vbWFlJywgJ2xpZ2FuZF9wcmVwLm1hZScsICctbXMnLCAnMScsICctcGgnLCAnNycsICctcGh0JywgJzAuNScsICctbnQn

> <r_lp_tautomer_probability>
1

> <r_epik_Ionization_Penalty>
  0.0058

> <r_epik_Ionization_Penalty_Charging>
  0.0058

> <r_epik_Ionization_Penalty_Neutral>
  0.0000

> <r_epik_State_Penalty>
 -0.0000

> <r_epik_Charging_Adjusted_Penalty>
0.00582991255105802

> <i_epik_Tot_Q>
-1

> <i_epik_Tot_abs_Q>
3

$$$$
