1msn_ligand
                    3D
 Schrodinger Suite 2020-3.
 78 81  0  0  1  0            999 V2000
   10.3500   18.0310   18.6630 C   0  0  0  0  0  0
   10.3960   18.7610   17.4600 C   0  0  0  0  0  0
   11.5060   19.5930   17.1860 C   0  0  0  0  0  0
   12.5940   19.6940   18.1060 C   0  0  0  0  0  0
   12.5390   18.9480   19.3440 C   0  0  0  0  0  0
   11.4110   18.1140   19.5870 C   0  0  0  0  0  0
   13.6480   18.9920   20.3890 C   0  0  0  0  0  0
   13.7390   20.5840   17.7660 C   0  0  0  0  0  0
   13.4000   21.8680   17.4450 N   0  0  0  0  0  0
   14.3870   22.8850   17.0580 C   0  0  1  0  0  0
   13.9120   23.5650   15.7410 C   0  0  0  0  0  0
   14.5290   23.7930   18.2960 C   0  0  1  0  0  0
   15.8930   24.5330   18.3050 C   0  0  0  0  0  0
   17.0170   23.7990   18.5890 N   0  0  0  0  0  0
   18.3080   24.5330   18.6190 C   0  0  1  0  0  0
   19.1570   24.0320   19.8400 C   0  0  0  0  0  0
   18.6540   22.3260   19.9950 S   0  0  0  0  0  0
   16.9620   22.8240   19.7290 C   0  0  0  0  0  0
   13.8110   22.5640   14.6120 C   0  0  0  0  0  0
   14.9290   22.3090   13.7810 C   0  0  0  0  0  0
   14.8450   21.3630   12.7280 C   0  0  0  0  0  0
   13.6370   20.6650   12.5020 C   0  0  0  0  0  0
   12.5140   20.9110   13.3250 C   0  0  0  0  0  0
   12.6010   21.8560   14.3720 C   0  0  0  0  0  0
   13.4910   24.7440   18.2910 O   0  0  0  0  0  0
   15.9160   25.7360   18.0550 O   0  0  0  0  0  0
   18.8180   24.7880   21.1480 C   0  0  0  0  0  0
   20.6800   24.0820   19.6000 C   0  0  0  0  0  0
   18.9290   24.2670   17.2260 C   0  0  0  0  0  0
   19.7400   25.2500   16.7910 N   0  0  0  0  0  0
   20.4070   25.1510   15.5020 C   0  0  0  0  0  0
   18.6740   23.2280   16.6140 O   0  0  0  0  0  0
   11.3410   17.3920   20.7560 O   0  0  0  0  0  0
   14.9150   20.2110   17.7640 O   0  0  0  0  0  0
   20.7450   26.5100   14.9660 C   0  0  0  0  0  0
   22.0310   27.0430   15.2400 C   0  0  0  0  0  0
   22.4040   28.3180   14.7600 C   0  0  0  0  0  0
   21.4830   29.0850   14.0180 C   0  0  0  0  0  0
   20.1990   28.5730   13.7370 C   0  0  0  0  0  0
   19.8050   27.2920   14.2150 C   0  0  0  0  0  0
   18.4160   26.7930   13.8880 C   0  0  0  0  0  0
    9.4895   17.3984   18.8809 H   0  0  0  0  0  0
    9.5790   18.6851   16.7425 H   0  0  0  0  0  0
   11.5318   20.1658   16.2590 H   0  0  0  0  0  0
   14.4405   19.6773   20.0539 H   0  0  0  0  0  0
   14.0670   17.9836   20.5216 H   0  0  0  0  0  0
   13.2366   19.3468   21.3455 H   0  0  0  0  0  0
   12.3315   22.1262   17.4862 H   0  0  0  0  0  0
   15.3742   22.4580   16.8277 H   0  0  0  0  0  0
   12.9214   24.0166   15.8982 H   0  0  0  0  0  0
   14.6299   24.3469   15.4525 H   0  0  0  0  0  0
   14.3916   23.2083   19.2175 H   0  0  0  0  0  0
   18.1789   25.6156   18.7647 H   0  0  0  0  0  0
   16.5412   23.3203   20.6159 H   0  0  0  0  0  0
   16.3269   21.9700   19.4508 H   0  0  0  0  0  0
   15.8626   22.8448   13.9524 H   0  0  0  0  0  0
   15.7111   21.1744   12.0936 H   0  0  0  0  0  0
   13.5711   19.9371   11.6933 H   0  0  0  0  0  0
   11.5823   20.3724   13.1521 H   0  0  0  0  0  0
   11.7318   22.0443   15.0022 H   0  0  0  0  0  0
   12.4420   24.4131   18.2844 H   0  0  0  0  0  0
   17.7322   24.7533   21.3207 H   0  0  0  0  0  0
   19.1421   25.8355   21.0606 H   0  0  0  0  0  0
   19.3389   24.3122   21.9920 H   0  0  0  0  0  0
   20.9226   23.5453   18.6710 H   0  0  0  0  0  0
   21.2001   23.6065   20.4447 H   0  0  0  0  0  0
   21.0033   25.1298   19.5132 H   0  0  0  0  0  0
   19.8952   26.1361   17.4240 H   0  0  0  0  0  0
   21.3372   24.5746   15.6138 H   0  0  0  0  0  0
   19.7452   24.6435   14.7847 H   0  0  0  0  0  0
   10.4731   16.7452   20.9518 H   0  0  0  0  0  0
   22.7403   26.4611   15.8285 H   0  0  0  0  0  0
   23.4015   28.7078   14.9628 H   0  0  0  0  0  0
   21.7636   30.0758   13.6606 H   0  0  0  0  0  0
   19.5003   29.1657   13.1466 H   0  0  0  0  0  0
   18.2719   25.7952   14.3279 H   0  0  0  0  0  0
   18.2954   26.7333   12.7963 H   0  0  0  0  0  0
   17.6700   27.4875   14.3019 H   0  0  0  0  0  0
  1  2  2  0  0  0
  1  6  1  0  0  0
  1 42  1  0  0  0
  2  3  1  0  0  0
  2 43  1  0  0  0
  3  4  2  0  0  0
  3 44  1  0  0  0
  4  5  1  0  0  0
  4  8  1  0  0  0
  5  6  2  0  0  0
  5  7  1  0  0  0
  6 33  1  0  0  0
  7 45  1  0  0  0
  7 46  1  0  0  0
  7 47  1  0  0  0
  8  9  1  0  0  0
  8 34  2  0  0  0
  9 10  1  0  0  0
  9 48  1  0  0  0
 10 11  1  0  0  0
 10 12  1  0  0  0
 10 49  1  0  0  0
 11 19  1  0  0  0
 11 50  1  0  0  0
 11 51  1  0  0  0
 12 13  1  0  0  0
 12 25  1  0  0  0
 12 52  1  0  0  0
 13 14  1  0  0  0
 13 26  2  0  0  0
 14 15  1  0  0  0
 14 18  1  0  0  0
 15 16  1  0  0  0
 15 29  1  0  0  0
 15 53  1  0  0  0
 16 17  1  0  0  0
 16 27  1  0  0  0
 16 28  1  0  0  0
 17 18  1  0  0  0
 18 54  1  0  0  0
 18 55  1  0  0  0
 19 20  2  0  0  0
 19 24  1  0  0  0
 20 21  1  0  0  0
 20 56  1  0  0  0
 21 22  2  0  0  0
 21 57  1  0  0  0
 22 23  1  0  0  0
 22 58  1  0  0  0
 23 24  2  0  0  0
 23 59  1  0  0  0
 24 60  1  0  0  0
 25 61  1  0  0  0
 27 62  1  0  0  0
 27 63  1  0  0  0
 27 64  1  0  0  0
 28 65  1  0  0  0
 28 66  1  0  0  0
 28 67  1  0  0  0
 29 30  1  0  0  0
 29 32  2  0  0  0
 30 31  1  0  0  0
 30 68  1  0  0  0
 31 35  1  0  0  0
 31 69  1  0  0  0
 31 70  1  0  0  0
 33 71  1  0  0  0
 35 36  2  0  0  0
 35 40  1  0  0  0
 36 37  1  0  0  0
 36 72  1  0  0  0
 37 38  2  0  0  0
 37 73  1  0  0  0
 38 39  1  0  0  0
 38 74  1  0  0  0
 39 40  2  0  0  0
 39 75  1  0  0  0
 40 41  1  0  0  0
 41 76  1  0  0  0
 41 77  1  0  0  0
 41 78  1  0  0  0
M  END
> <s_m_source_file>
../1msn_ligand.sdf

> <i_m_source_file_index>
1

> <s_epik_input>
W0NIM11jMWMoW09IXSlbY0hdW2NIXVtjSF1jMUMoPU8pW05IXVtDQEBIXShbQ0gyXWMyW2NIXVtjSF1bY0hdW2NIXVtjSF0yKVtDQEhdKFtPSF0pQyg9TylOKFtDSDJdUzMpW0NAQEhdKEMzKFtDSDNdKVtDSDNdKUMoPU8pW05IXVtDSDJdYzRbY0hdW2NIXVtjSF1bY0hdYzRbQ0gzXQ==

> <s_epik_cmdline>
J2VwaWtfYXBwJywgJy1pbWFlJywgJ2xpZ2FuZF9wcm8ubWFlJywgJy1vbWFlJywgJ2xpZ2FuZF9wcmVwLm1hZScsICctbXMnLCAnMScsICctcGgnLCAnNycsICctcGh0JywgJzAuNScsICctbnQn

> <r_lp_tautomer_probability>
1

> <r_epik_Ionization_Penalty>
  0.0050

> <r_epik_Ionization_Penalty_Charging>
  0.0000

> <r_epik_Ionization_Penalty_Neutral>
  0.0050

> <r_epik_State_Penalty>
 -0.0000

> <r_epik_Charging_Adjusted_Penalty>
0

> <i_epik_Tot_Q>
0

> <i_epik_Tot_abs_Q>
0

> <s_epik_Chemistry_Notes>
This compound contains an acetal/aminal-like group ( X-CH(R)-Y where X, Y are N, S, or O) that may be acid/base labile, releasing an aldehyde.

$$$$
