1mto_ligand
                    3D
 Schrodinger Suite 2020-3.
 27 27  0  0  1  0            999 V2000
  -26.3460   17.8740   98.7390 O   0  0  0  0  0  0
  -26.0870   16.9310   97.7300 C   0  0  0  0  0  0
  -25.5710   15.6320   98.3800 C   0  0  2  0  0  0
  -25.2620   14.6260   97.4050 O   0  0  0  0  0  0
  -26.6120   15.1570   99.3980 C   0  0  1  0  0  0
  -27.6580   14.4400   98.8220 O   0  0  0  0  0  0
  -25.8020   14.4000  100.4660 C   0  0  2  0  0  0
  -26.3200   14.4520  101.7980 O   0  0  0  0  0  0
  -24.3850   14.9530  100.2790 C   0  0  2  0  0  0
  -24.4430   15.8690   99.1770 O   0  0  0  0  0  0
  -23.3860   13.9140  100.0180 C   0  0  0  0  0  0
  -22.4650   14.4530   98.9900 O   0  0  0  0  0  0
  -20.8830   14.4480   99.1290 P   0  0  0  0  0  0
  -20.4500   15.2280  100.3320 O   0  5  0  0  0  0
  -20.3370   13.0440   99.1670 O   0  5  0  0  0  0
  -20.3140   15.0610   97.8970 O   0  0  0  0  0  0
  -26.7243   18.8725   98.4746 H   0  0  0  0  0  0
  -27.0134   16.7255   97.1737 H   0  0  0  0  0  0
  -25.3269   17.3296   97.0420 H   0  0  0  0  0  0
  -26.0285   14.3045   96.6846 H   0  0  0  0  0  0
  -27.2506   15.9495   99.8153 H   0  0  0  0  0  0
  -28.2862   14.9083   98.0500 H   0  0  0  0  0  0
  -25.8736   13.3041  100.4040 H   0  0  0  0  0  0
  -27.3308   14.0734  102.0102 H   0  0  0  0  0  0
  -24.0208   15.4703  101.1789 H   0  0  0  0  0  0
  -22.8431   13.6857  100.9471 H   0  0  0  0  0  0
  -23.8883   13.0055   99.6541 H   0  0  0  0  0  0
  1  2  1  0  0  0
  1 17  1  0  0  0
  2  3  1  0  0  0
  2 18  1  0  0  0
  2 19  1  0  0  0
  3  4  1  0  0  0
  3  5  1  0  0  0
  3 10  1  0  0  0
  4 20  1  0  0  0
  5  6  1  0  0  0
  5  7  1  0  0  0
  5 21  1  0  0  0
  6 22  1  0  0  0
  7  8  1  0  0  0
  7  9  1  0  0  0
  7 23  1  0  0  0
  8 24  1  0  0  0
  9 10  1  0  0  0
  9 11  1  0  0  0
  9 25  1  0  0  0
 11 12  1  0  0  0
 11 26  1  0  0  0
 11 27  1  0  0  0
 12 13  1  0  0  0
 13 14  1  0  0  0
 13 15  1  0  0  0
 13 16  2  0  0  0
M  CHG  2  14  -1  15  -1
M  END
> <s_m_source_file>
../1mto_ligand.sdf

> <i_m_source_file_index>
1

> <s_epik_input>
W09IXVtDSDJdW0NAXTEoW09IXSlbQ0BASF0oW09IXSlbQ0BIXShbT0hdKVtDQEhdKE8xKVtDSDJdT1AoPU8pKFtPSF0pW09IXQ==

> <s_epik_cmdline>
J2VwaWtfYXBwJywgJy1pbWFlJywgJ2xpZ2FuZF9wcm8ubWFlJywgJy1vbWFlJywgJ2xpZ2FuZF9wcmVwLm1hZScsICctbXMnLCAnMScsICctcGgnLCAnNycsICctcGh0JywgJzAuNScsICctbnQn

> <r_epik_Ionization_Penalty>
  0.1011

> <r_epik_Ionization_Penalty_Charging>
  0.1011

> <r_epik_Ionization_Penalty_Neutral>
  0.0000

> <r_epik_State_Penalty>
  0.0911

> <r_epik_Charging_Adjusted_Penalty>
0.192231575256783

> <i_epik_Tot_Q>
-2

> <i_epik_Tot_abs_Q>
2

$$$$
