1mu8_ligand
                    3D
 Schrodinger Suite 2020-3.
 53 55  0  0  1  0            999 V2000
   21.1780  -16.7010   25.4070 N   0  0  0  0  0  0
   20.0330  -16.0520   25.9220 C   0  0  0  0  0  0
   20.0650  -14.6260   26.2280 C   0  0  0  0  0  0
   21.3150  -13.9430   25.9570 C   0  0  0  0  0  0
   22.4530  -14.6530   25.3870 C   0  0  0  0  0  0
   22.3790  -16.0760   25.1120 C   0  0  0  0  0  0
   18.7470  -16.8750   26.0440 C   0  0  0  0  0  0
   18.1550  -17.2280   24.6820 C   0  0  0  0  0  0
   17.7800  -16.2900   26.7950 F   0  0  0  0  0  0
   19.0610  -18.0500   26.6110 F   0  0  0  0  0  0
   17.5530  -16.0680   23.9960 N   0  0  0  0  0  0
   18.1460  -15.3600   22.9720 C   0  0  0  0  0  0
   17.4540  -14.1250   22.4830 C   0  0  0  0  0  0
   18.1050  -13.4120   21.4820 N   0  0  0  0  0  0
   19.3510  -13.8850   20.9220 C   0  0  0  0  0  0
   19.9300  -15.0650   21.4330 C   0  0  0  0  0  0
   19.3360  -15.7330   22.4270 N   0  0  0  0  0  0
   16.3690  -13.7490   22.9310 O   0  0  0  0  0  0
   20.0650  -13.1800   19.8330 C   0  0  0  0  0  0
   17.4600  -12.1780   20.9700 C   0  0  0  0  0  0
   16.0350  -12.4860   20.5320 C   0  0  0  0  0  0
   15.0910  -11.5730   20.9010 N   0  0  0  0  0  0
   15.7950  -13.4930   19.8760 O   0  0  0  0  0  0
   13.6630  -11.7940   20.5840 C   0  0  0  0  0  0
   12.7380  -11.6840   21.7980 C   0  0  0  0  0  0
   12.8360  -10.5670   22.6690 C   0  0  0  0  0  0
   11.9870  -10.4830   23.8270 C   0  0  0  0  0  0
   11.0360  -11.5280   24.1130 C   0  0  0  0  0  0
   11.8020  -12.6630   22.0970 N   0  0  0  0  0  0
   13.7300   -9.6110   22.3840 F   0  0  0  0  0  0
   10.9610  -12.6350   23.1990 C   0  0  0  0  0  0
   12.0660   -9.3140   24.7450 C   0  0  0  0  0  0
   19.1996  -14.1043   26.6366 H   0  0  0  0  0  0
   21.4051  -12.8806   26.1834 H   0  0  0  0  0  0
   23.3708  -14.1086   25.1646 H   0  0  0  0  0  0
   23.2238  -16.6244   24.6953 H   0  0  0  0  0  0
   18.9464  -17.6273   24.0306 H   0  0  0  0  0  0
   17.3679  -17.9858   24.8095 H   0  0  0  0  0  0
   16.5569  -15.7089   24.2940 H   0  0  0  0  0  0
   20.8666  -15.4343   21.0153 H   0  0  0  0  0  0
   19.4963  -12.2848   19.5411 H   0  0  0  0  0  0
   20.1648  -13.8499   18.9662 H   0  0  0  0  0  0
   21.0643  -12.8816   20.1828 H   0  0  0  0  0  0
   17.4404  -11.4177   21.7647 H   0  0  0  0  0  0
   18.0304  -11.7955   20.1107 H   0  0  0  0  0  0
   15.4008  -10.6652   21.4395 H   0  0  0  0  0  0
   13.3301  -11.0450   19.8504 H   0  0  0  0  0  0
   13.5324  -12.8021   20.1638 H   0  0  0  0  0  0
   10.3949  -11.4803   24.9933 H   0  0  0  0  0  0
   10.2506  -13.4437   23.3704 H   0  0  0  0  0  0
   12.8360   -8.6161   24.3845 H   0  0  0  0  0  0
   12.3282   -9.6589   25.7561 H   0  0  0  0  0  0
   11.0922   -8.8032   24.7728 H   0  0  0  0  0  0
  1  2  2  0  0  0
  1  6  1  0  0  0
  2  3  1  0  0  0
  2  7  1  0  0  0
  3  4  2  0  0  0
  3 33  1  0  0  0
  4  5  1  0  0  0
  4 34  1  0  0  0
  5  6  2  0  0  0
  5 35  1  0  0  0
  6 36  1  0  0  0
  7  8  1  0  0  0
  7  9  1  0  0  0
  7 10  1  0  0  0
  8 11  1  0  0  0
  8 37  1  0  0  0
  8 38  1  0  0  0
 11 12  1  0  0  0
 11 39  1  0  0  0
 12 13  1  0  0  0
 12 17  2  0  0  0
 13 14  1  0  0  0
 13 18  2  0  0  0
 14 15  1  0  0  0
 14 20  1  0  0  0
 15 16  2  0  0  0
 15 19  1  0  0  0
 16 17  1  0  0  0
 16 40  1  0  0  0
 19 41  1  0  0  0
 19 42  1  0  0  0
 19 43  1  0  0  0
 20 21  1  0  0  0
 20 44  1  0  0  0
 20 45  1  0  0  0
 21 22  1  0  0  0
 21 23  2  0  0  0
 22 24  1  0  0  0
 22 46  1  0  0  0
 24 25  1  0  0  0
 24 47  1  0  0  0
 24 48  1  0  0  0
 25 26  2  0  0  0
 25 29  1  0  0  0
 26 27  1  0  0  0
 26 30  1  0  0  0
 27 28  2  0  0  0
 27 32  1  0  0  0
 28 31  1  0  0  0
 28 49  1  0  0  0
 29 31  2  0  0  0
 31 50  1  0  0  0
 32 51  1  0  0  0
 32 52  1  0  0  0
 32 53  1  0  0  0
M  END
> <s_m_source_file>
../1mu8_ligand.sdf

> <i_m_source_file_index>
1

> <s_epik_input>
W2NIXTFbY0hdW2NIXVtjSF1uYzFDKEYpKEYpW0NIMl1bTkhdYzJjKD1PKW4oYyhbY0hdbjIpW0NIM10pW0NIMl1DKD1PKVtOSF1bQ0gyXWMzYyhGKWMoW0NIM10pW2NIXVtjSF1uMw==

> <s_epik_cmdline>
J2VwaWtfYXBwJywgJy1pbWFlJywgJ2xpZ2FuZF9wcm8ubWFlJywgJy1vbWFlJywgJ2xpZ2FuZF9wcmVwLm1hZScsICctbXMnLCAnMScsICctcGgnLCAnNycsICctcGh0JywgJzAuNScsICctbnQn

> <r_lp_tautomer_probability>
1

> <r_epik_Ionization_Penalty>
  0.0008

> <r_epik_Ionization_Penalty_Charging>
  0.0000

> <r_epik_Ionization_Penalty_Neutral>
  0.0008

> <r_epik_State_Penalty>
 -0.0000

> <r_epik_Charging_Adjusted_Penalty>
8.50770201985902e-08

> <i_epik_Tot_Q>
0

> <i_epik_Tot_abs_Q>
0

$$$$
