1mue_ligand
                    3D
 Schrodinger Suite 2020-3.
 49 51  0  0  1  0            999 V2000
   22.0800  -15.7580   25.0900 C   0  0  0  0  0  0
   20.9530  -16.4530   25.2050 N   0  3  0  0  0  0
   19.8510  -15.8890   25.7250 C   0  0  0  0  0  0
   19.8360  -14.5630   26.1210 C   0  0  0  0  0  0
   20.9710  -13.8180   25.9770 C   0  0  0  0  0  0
   22.1230  -14.4260   25.4800 C   0  0  0  0  0  0
   18.6030  -16.7060   25.9480 C   0  0  0  0  0  0
   17.9180  -17.0720   24.6620 C   0  0  0  0  0  0
   18.9660  -17.8240   26.5990 F   0  0  0  0  0  0
   17.7360  -16.0050   26.7280 F   0  0  0  0  0  0
   17.1580  -15.9350   24.1360 N   0  0  0  0  0  0
   17.9180  -15.2540   23.1780 C   0  0  0  0  0  0
   17.2740  -14.0320   22.4940 C   0  0  0  0  0  0
   18.0090  -13.4450   21.5160 N   0  0  0  0  0  0
   19.3550  -13.9470   21.1720 C   0  0  0  0  0  0
   19.9300  -15.0380   21.9380 C   0  0  0  0  0  0
   19.1980  -15.6190   22.9100 N   0  0  0  0  0  0
   17.5460  -12.2610   20.7780 C   0  0  0  0  0  0
   16.0670  -12.3310   20.4100 C   0  0  0  0  0  0
   15.2870  -11.4840   21.1270 N   0  0  0  0  0  0
   13.8690  -11.4110   20.7680 C   0  0  0  0  0  0
   12.9150  -11.4250   21.9620 C   0  0  0  0  0  0
   12.9000  -10.3750   22.8950 C   0  0  0  0  0  0
   12.0190  -10.4350   24.0000 C   0  0  0  0  0  0
   11.1120  -11.4930   24.1370 C   0  0  0  0  0  0
   11.1250  -12.5320   23.2100 C   0  0  0  0  0  0
   12.0370  -12.4940   22.1420 C   0  0  0  0  0  0
   16.1420  -13.6640   22.8260 O   0  0  0  0  0  0
   20.2420  -13.2370   19.8930 Cl  0  0  0  0  0  0
   15.6570  -13.1090   19.5420 O   0  0  0  0  0  0
   12.1890  -13.5200   21.2880 F   0  0  0  0  0  0
   20.9520  -17.7700   24.8070 O   0  5  0  0  0  0
   22.9737  -16.2353   24.6881 H   0  0  0  0  0  0
   18.9327  -14.1206   26.5410 H   0  0  0  0  0  0
   20.9764  -12.7620   26.2470 H   0  0  0  0  0  0
   23.0508  -13.8598   25.3982 H   0  0  0  0  0  0
   18.6709  -17.3703   23.9176 H   0  0  0  0  0  0
   17.2267  -17.9089   24.8400 H   0  0  0  0  0  0
   16.1428  -15.7327   24.5080 H   0  0  0  0  0  0
   20.9425  -15.3837   21.7296 H   0  0  0  0  0  0
   17.6953  -11.3627   21.3951 H   0  0  0  0  0  0
   18.1191  -12.1637   19.8442 H   0  0  0  0  0  0
   15.6788  -10.8666   21.9488 H   0  0  0  0  0  0
   13.6782  -10.4793   20.2153 H   0  0  0  0  0  0
   13.6058  -12.2723   20.1365 H   0  0  0  0  0  0
   13.5632   -9.5193   22.7682 H   0  0  0  0  0  0
   12.0465   -9.6482   24.7539 H   0  0  0  0  0  0
   10.4011  -11.5032   24.9632 H   0  0  0  0  0  0
   10.4332  -13.3681   23.3122 H   0  0  0  0  0  0
  1  2  2  0  0  0
  1  6  1  0  0  0
  1 33  1  0  0  0
  2  3  1  0  0  0
  2 32  1  0  0  0
  3  4  2  0  0  0
  3  7  1  0  0  0
  4  5  1  0  0  0
  4 34  1  0  0  0
  5  6  2  0  0  0
  5 35  1  0  0  0
  6 36  1  0  0  0
  7  8  1  0  0  0
  7  9  1  0  0  0
  7 10  1  0  0  0
  8 11  1  0  0  0
  8 37  1  0  0  0
  8 38  1  0  0  0
 11 12  1  0  0  0
 11 39  1  0  0  0
 12 13  1  0  0  0
 12 17  2  0  0  0
 13 14  1  0  0  0
 13 28  2  0  0  0
 14 15  1  0  0  0
 14 18  1  0  0  0
 15 16  2  0  0  0
 15 29  1  0  0  0
 16 17  1  0  0  0
 16 40  1  0  0  0
 18 19  1  0  0  0
 18 41  1  0  0  0
 18 42  1  0  0  0
 19 20  1  0  0  0
 19 30  2  0  0  0
 20 21  1  0  0  0
 20 43  1  0  0  0
 21 22  1  0  0  0
 21 44  1  0  0  0
 21 45  1  0  0  0
 22 23  2  0  0  0
 22 27  1  0  0  0
 23 24  1  0  0  0
 23 46  1  0  0  0
 24 25  2  0  0  0
 24 47  1  0  0  0
 25 26  1  0  0  0
 25 48  1  0  0  0
 26 27  2  0  0  0
 26 49  1  0  0  0
 27 31  1  0  0  0
M  CHG  2   2   1  32  -1
M  END
> <s_m_source_file>
../1mue_ligand.sdf

> <i_m_source_file_index>
1

> <s_epik_input>
W08tXVtuK10xW2NIXVtjSF1bY0hdW2NIXWMxQyhGKShGKVtDSDJdW05IXWMyYyg9TyluKGMoQ2wpW2NIXW4yKVtDSDJdQyg9TylbTkhdW0NIMl1jM1tjSF1bY0hdW2NIXVtjSF1jM0Y=

> <s_epik_cmdline>
J2VwaWtfYXBwJywgJy1pbWFlJywgJ2xpZ2FuZF9wcm8ubWFlJywgJy1vbWFlJywgJ2xpZ2FuZF9wcmVwLm1hZScsICctbXMnLCAnMScsICctcGgnLCAnNycsICctcGh0JywgJzAuNScsICctbnQn

> <r_lp_tautomer_probability>
1

> <r_epik_Ionization_Penalty>
  0.0000

> <r_epik_Ionization_Penalty_Charging>
  0.0000

> <r_epik_Ionization_Penalty_Neutral>
  0.0000

> <r_epik_State_Penalty>
 -0.0000

> <r_epik_Charging_Adjusted_Penalty>
1.0326084829743e-07

> <i_epik_Tot_Q>
0

> <i_epik_Tot_abs_Q>
2

$$$$
