1mui_ligand
                    3D
 Schrodinger Suite 2020-3.
 94 97  0  0  1  0            999 V2000
  -12.8260   12.8350   34.8630 C   0  0  0  0  0  0
  -10.6950   13.4560   33.6930 C   0  0  0  0  0  0
  -11.3120   14.7950   33.3690 N   0  0  0  0  0  0
  -12.6020   15.1110   33.7730 C   0  0  0  0  0  0
  -13.3030   14.1780   34.4780 N   0  0  0  0  0  0
   -6.2280   18.1490   27.5220 C   0  0  0  0  0  0
   -5.5330   18.8920   26.5370 C   0  0  0  0  0  0
   -4.2180   18.5350   26.1490 C   0  0  0  0  0  0
   -3.5830   17.4290   26.7450 C   0  0  0  0  0  0
   -4.2660   16.6810   27.7290 C   0  0  0  0  0  0
   -5.5790   17.0370   28.1160 C   0  0  0  0  0  0
  -13.1160   16.1860   33.5160 O   0  0  0  0  0  0
  -10.5260   15.8120   32.5870 C   0  0  2  0  0  0
  -10.3560   15.3130   31.1260 C   0  0  0  0  0  0
  -11.2180   15.9240   30.2550 N   0  0  0  0  0  0
  -11.2830   15.6520   28.8020 C   0  0  1  0  0  0
   -9.1410   16.1410   33.2720 C   0  0  0  0  0  0
   -8.3090   17.1860   32.5040 C   0  0  0  0  0  0
   -9.3490   16.6480   34.7180 C   0  0  0  0  0  0
   -9.5230   14.4560   30.8260 O   0  0  0  0  0  0
  -12.7040   11.1390   29.1350 C   0  0  0  0  0  0
  -13.3650   11.1000   30.3860 C   0  0  0  0  0  0
  -13.7730   12.3060   31.0020 C   0  0  0  0  0  0
  -13.5190   13.5420   30.3650 C   0  0  0  0  0  0
  -12.8550   13.5900   29.1090 C   0  0  0  0  0  0
  -12.4510   12.3790   28.5010 C   0  0  0  0  0  0
  -12.5910   14.9100   28.4420 C   0  0  0  0  0  0
  -11.2870   16.9600   27.9810 C   0  0  0  0  0  0
  -10.1160   17.9510   28.1120 C   0  0  1  0  0  0
   -8.7120   17.4430   27.6950 C   0  0  1  0  0  0
   -8.7530   17.0970   26.2550 N   0  0  0  0  0  0
   -8.2660   15.9270   25.7320 C   0  0  0  0  0  0
   -8.3990   15.8070   24.2010 C   0  0  0  0  0  0
   -8.7210   17.0700   23.5900 O   0  0  0  0  0  0
   -8.2970   17.1830   22.2520 C   0  0  0  0  0  0
  -10.4330   19.0340   27.2710 O   0  0  0  0  0  0
   -7.6370   18.5480   27.9160 C   0  0  0  0  0  0
   -7.7420   15.0210   26.3890 O   0  0  0  0  0  0
   -9.0670   16.6400   21.1650 C   0  0  0  0  0  0
   -8.5870   16.7880   19.8360 C   0  0  0  0  0  0
   -7.3740   17.4590   19.5740 C   0  0  0  0  0  0
   -6.6140   17.9970   20.6320 C   0  0  0  0  0  0
   -7.0610   17.8680   21.9690 C   0  0  0  0  0  0
   -6.2340   18.4510   23.0640 C   0  0  0  0  0  0
  -10.3740   15.9150   21.3830 C   0  0  0  0  0  0
  -11.2960   12.7740   34.9400 C   0  0  0  0  0  0
  -13.2320   12.5709   35.8506 H   0  0  0  0  0  0
  -13.1637   12.0987   34.1189 H   0  0  0  0  0  0
  -10.8412   12.7702   32.8455 H   0  0  0  0  0  0
   -9.6185   13.5838   33.8797 H   0  0  0  0  0  0
  -14.3137   14.5054   34.7632 H   0  0  0  0  0  0
   -6.0165   19.7505   26.0708 H   0  0  0  0  0  0
   -3.6976   19.1171   25.3885 H   0  0  0  0  0  0
   -2.5712   17.1519   26.4490 H   0  0  0  0  0  0
   -3.7782   15.8239   28.1932 H   0  0  0  0  0  0
   -6.0960   16.4520   28.8767 H   0  0  0  0  0  0
  -11.1241   16.7352   32.5823 H   0  0  0  0  0  0
  -11.8948   16.6641   30.7068 H   0  0  0  0  0  0
  -10.3846   15.0483   28.6060 H   0  0  0  0  0  0
   -8.5599   15.2071   33.2773 H   0  0  0  0  0  0
   -8.1507   16.8417   31.4713 H   0  0  0  0  0  0
   -7.3360   17.3166   33.0002 H   0  0  0  0  0  0
   -8.8463   18.1458   32.4922 H   0  0  0  0  0  0
   -9.9421   15.9134   35.2824 H   0  0  0  0  0  0
   -9.8816   17.6102   34.6961 H   0  0  0  0  0  0
   -8.3712   16.7811   35.2041 H   0  0  0  0  0  0
  -12.3887   10.2109   28.6582 H   0  0  0  0  0  0
  -13.5588   10.1442   30.8728 H   0  0  0  0  0  0
  -14.2820   12.2824   31.9655 H   0  0  0  0  0  0
  -13.8360   14.4692   30.8425 H   0  0  0  0  0  0
  -11.9414   12.4005   27.5377 H   0  0  0  0  0  0
  -13.4538   15.5409   28.7018 H   0  0  0  0  0  0
  -12.6056   14.6949   27.3633 H   0  0  0  0  0  0
  -11.3145   16.7193   26.9080 H   0  0  0  0  0  0
  -12.1725   17.5564   28.2458 H   0  0  0  0  0  0
  -10.0524   18.2661   29.1640 H   0  0  0  0  0  0
   -8.4485   16.5406   28.2662 H   0  0  0  0  0  0
   -9.1946   17.7995   25.5329 H   0  0  0  0  0  0
   -7.4482   15.4516   23.7771 H   0  0  0  0  0  0
   -9.1990   15.0924   23.9573 H   0  0  0  0  0  0
  -11.3936   19.5573   27.3866 H   0  0  0  0  0  0
   -7.6599   18.8045   28.9854 H   0  0  0  0  0  0
   -7.9506   19.4198   27.3230 H   0  0  0  0  0  0
   -9.1639   16.3774   19.0073 H   0  0  0  0  0  0
   -7.0225   17.5620   18.5474 H   0  0  0  0  0  0
   -5.6784   18.5144   20.4199 H   0  0  0  0  0  0
   -6.7218   18.2628   24.0318 H   0  0  0  0  0  0
   -6.1325   19.5353   22.9092 H   0  0  0  0  0  0
   -5.2376   17.9850   23.0588 H   0  0  0  0  0  0
  -10.6025   15.8865   22.4586 H   0  0  0  0  0  0
  -10.2921   14.8878   20.9982 H   0  0  0  0  0  0
  -11.1792   16.4428   20.8509 H   0  0  0  0  0  0
  -10.9534   13.2954   35.8460 H   0  0  0  0  0  0
  -10.9723   11.7234   34.9771 H   0  0  0  0  0  0
  1  5  1  0  0  0
  1 46  1  0  0  0
  1 47  1  0  0  0
  1 48  1  0  0  0
  2  3  1  0  0  0
  2 46  1  0  0  0
  2 49  1  0  0  0
  2 50  1  0  0  0
  3  4  1  0  0  0
  3 13  1  0  0  0
  4  5  1  0  0  0
  4 12  2  0  0  0
  5 51  1  0  0  0
  6  7  2  0  0  0
  6 11  1  0  0  0
  6 37  1  0  0  0
  7  8  1  0  0  0
  7 52  1  0  0  0
  8  9  2  0  0  0
  8 53  1  0  0  0
  9 10  1  0  0  0
  9 54  1  0  0  0
 10 11  2  0  0  0
 10 55  1  0  0  0
 11 56  1  0  0  0
 13 14  1  0  0  0
 13 17  1  0  0  0
 13 57  1  0  0  0
 14 15  1  0  0  0
 14 20  2  0  0  0
 15 16  1  0  0  0
 15 58  1  0  0  0
 16 27  1  0  0  0
 16 28  1  0  0  0
 16 59  1  0  0  0
 17 18  1  0  0  0
 17 19  1  0  0  0
 17 60  1  0  0  0
 18 61  1  0  0  0
 18 62  1  0  0  0
 18 63  1  0  0  0
 19 64  1  0  0  0
 19 65  1  0  0  0
 19 66  1  0  0  0
 21 22  2  0  0  0
 21 26  1  0  0  0
 21 67  1  0  0  0
 22 23  1  0  0  0
 22 68  1  0  0  0
 23 24  2  0  0  0
 23 69  1  0  0  0
 24 25  1  0  0  0
 24 70  1  0  0  0
 25 26  2  0  0  0
 25 27  1  0  0  0
 26 71  1  0  0  0
 27 72  1  0  0  0
 27 73  1  0  0  0
 28 29  1  0  0  0
 28 74  1  0  0  0
 28 75  1  0  0  0
 29 30  1  0  0  0
 29 36  1  0  0  0
 29 76  1  0  0  0
 30 31  1  0  0  0
 30 37  1  0  0  0
 30 77  1  0  0  0
 31 32  1  0  0  0
 31 78  1  0  0  0
 32 33  1  0  0  0
 32 38  2  0  0  0
 33 34  1  0  0  0
 33 79  1  0  0  0
 33 80  1  0  0  0
 34 35  1  0  0  0
 35 39  2  0  0  0
 35 43  1  0  0  0
 36 81  1  0  0  0
 37 82  1  0  0  0
 37 83  1  0  0  0
 39 40  1  0  0  0
 39 45  1  0  0  0
 40 41  2  0  0  0
 40 84  1  0  0  0
 41 42  1  0  0  0
 41 85  1  0  0  0
 42 43  2  0  0  0
 42 86  1  0  0  0
 43 44  1  0  0  0
 44 87  1  0  0  0
 44 88  1  0  0  0
 44 89  1  0  0  0
 45 90  1  0  0  0
 45 91  1  0  0  0
 45 92  1  0  0  0
 46 93  1  0  0  0
 46 94  1  0  0  0
M  END
> <s_m_source_file>
../1mui_ligand.sdf

> <i_m_source_file_index>
1

> <s_epik_input>
Tz1DMVtOSF1bQ0gyXVtDSDJdW0NIMl1OMVtDQEBIXShbQ0hdKFtDSDNdKVtDSDNdKUMoPU8pW05IXVtDQEBIXShbQ0gyXWMyW2NIXVtjSF1bY0hdW2NIXVtjSF0yKVtDSDJdW0NASF0oW09IXSlbQ0BIXShbQ0gyXWMzW2NIXVtjSF1bY0hdW2NIXVtjSF0zKVtOSF1DKD1PKVtDSDJdT2M0YyhbQ0gzXSlbY0hdW2NIXVtjSF1jNFtDSDNd

> <s_epik_cmdline>
J2VwaWtfYXBwJywgJy1pbWFlJywgJ2xpZ2FuZF9wcm8ubWFlJywgJy1vbWFlJywgJ2xpZ2FuZF9wcmVwLm1hZScsICctbXMnLCAnMScsICctcGgnLCAnNycsICctcGh0JywgJzAuNScsICctbnQn

> <r_lp_tautomer_probability>
1

> <r_epik_Ionization_Penalty>
  0.0001

> <r_epik_Ionization_Penalty_Charging>
  0.0000

> <r_epik_Ionization_Penalty_Neutral>
  0.0001

> <r_epik_State_Penalty>
 -0.0000

> <r_epik_Charging_Adjusted_Penalty>
0

> <i_epik_Tot_Q>
0

> <i_epik_Tot_abs_Q>
0

$$$$
