1mv0_ligand
                    3D
 Schrodinger Suite 2020-3.
217220  0  0  1  0            999 V2000
    1.3250    0.0000    0.0000 N   0  3  0  0  0  0
    2.0730    0.0000   -1.2450 C   0  0  2  0  0  0
    2.1090   -1.4200   -1.8140 C   0  0  0  0  0  0
    3.0680   -2.1580   -1.5910 O   0  0  0  0  0  0
    3.4590    0.6140   -1.0380 C   0  0  0  0  0  0
    3.5440    2.1370   -1.1660 C   0  0  0  0  0  0
    4.8060    2.6740   -0.4890 C   0  0  0  0  0  0
    3.4490    2.5700   -2.6300 C   0  0  0  0  0  0
    1.0530   -1.7600   -2.5380 N   0  0  0  0  0  0
    0.9510   -3.0790   -3.1400 C   0  0  2  0  0  0
    1.7900   -3.1170   -4.4190 C   0  0  0  0  0  0
    1.5590   -2.3370   -5.3410 O   0  0  0  0  0  0
   -0.5150   -3.4580   -3.3550 C   0  0  0  0  0  0
   -1.3480   -3.6640   -2.0880 C   0  0  0  0  0  0
   -1.0900   -2.5460   -1.0750 C   0  0  0  0  0  0
   -2.8340   -3.8010   -2.4240 C   0  0  0  0  0  0
    2.7730   -4.0570   -4.4330 N   0  0  0  0  0  0
    3.6480   -4.2070   -5.5840 C   0  0  2  0  0  0
    2.9210   -4.8990   -6.7390 C   0  0  0  0  0  0
    2.3490   -5.9730   -6.5620 O   0  0  0  0  0  0
    4.8390   -5.0000   -5.0710 C   0  0  0  0  0  0
    4.3760   -5.6620   -3.7840 C   0  0  0  0  0  0
    3.0760   -4.9980   -3.3600 C   0  0  0  0  0  0
    2.9680   -4.2540   -7.8960 N   0  0  0  0  0  0
    2.3190   -4.7930   -9.0790 C   0  0  2  0  0  0
    3.0220   -6.0730   -9.5360 C   0  0  0  0  0  0
    4.2490   -6.1170   -9.6160 O   0  0  0  0  0  0
    2.2980   -3.6980  -10.1470 C   0  0  2  0  0  0
    1.6130   -4.2960  -11.2440 O   0  0  0  0  0  0
    3.6910   -3.3910  -10.6990 C   0  0  0  0  0  0
    2.1930   -7.1100   -9.8310 N   0  0  0  0  0  0
    2.7220   -8.3870  -10.2790 C   0  0  2  0  0  0
    3.1940   -8.3060  -11.7320 C   0  0  0  0  0  0
    2.9630   -7.3050  -12.4080 O   0  0  0  0  0  0
    1.5860   -9.3760  -10.0780 C   0  0  0  0  0  0
    0.3210   -8.5400   -9.9640 C   0  0  0  0  0  0
    0.7360   -7.0940   -9.7460 C   0  0  0  0  0  0
    3.8630   -9.4010  -12.1810 N   0  0  0  0  0  0
    4.3690   -9.4640  -13.5420 C   0  0  2  0  0  0
    3.2330   -9.7060  -14.5380 C   0  0  0  0  0  0
    2.1520  -10.1510  -14.1560 O   0  0  0  0  0  0
    5.3970  -10.5830  -13.5290 C   0  0  0  0  0  0
    5.0970  -11.4100  -12.2890 C   0  0  0  0  0  0
    4.1560  -10.6050  -11.4080 C   0  0  0  0  0  0
    3.5180   -9.4040  -15.7960 N   0  0  0  0  0  0
    2.5340   -9.5840  -16.8500 C   0  0  2  0  0  0
    2.1300  -11.0580  -16.9190 C   0  0  0  0  0  0
    2.9870  -11.9380  -16.9810 O   0  0  0  0  0  0
    3.0600   -9.0280  -18.1750 C   0  0  0  0  0  0
    2.2300   -7.9110  -18.8110 C   0  0  0  0  0  0
    3.1120   -6.9770  -19.6410 C   0  0  0  0  0  0
    1.0730   -8.4870  -19.6310 C   0  0  0  0  0  0
    0.8240  -11.2820  -16.9040 N   0  0  0  0  0  0
    0.2960  -12.6340  -16.9640 C   0  0  2  0  0  0
    0.0110  -13.0210  -18.4170 C   0  0  0  0  0  0
   -0.1580  -12.1530  -19.2720 O   0  0  0  0  0  0
   -0.9740  -12.7680  -16.1210 C   0  0  0  0  0  0
   -2.0900  -12.1240  -16.7310 O   0  0  0  0  0  0
   -0.0330  -14.3580  -18.6580 N   0  0  0  0  0  0
   -0.2950  -14.8700  -19.9930 C   0  0  2  0  0  0
   -1.7730  -14.7200  -20.3580 C   0  0  0  0  0  0
   -2.5900  -14.3530  -19.5150 O   0  0  0  0  0  0
    0.1640  -16.3190  -19.9550 C   0  0  0  0  0  0
    0.2310  -16.6970  -18.4840 C   0  0  0  0  0  0
    0.1630  -15.4150  -17.6700 C   0  0  0  0  0  0
   -2.0710  -15.0110  -21.6150 N   0  0  0  0  0  0
   -3.4370  -14.9140  -22.1020 C   0  0  2  0  0  0
   -4.2800  -16.0550  -21.5290 C   0  0  0  0  0  0
   -4.3480  -17.1350  -22.1140 O   0  0  0  0  0  0
   -3.4800  -14.9390  -23.6310 C   0  0  0  0  0  0
   -2.8800  -16.1170  -24.1630 O   0  0  0  0  0  0
   -4.9000  -15.7760  -20.3920 N   0  0  0  0  0  0
   -5.7350  -16.7660  -19.7330 C   0  0  2  0  0  0
   -7.1110  -16.8290  -20.3990 C   0  0  0  0  0  0
   -8.0550  -16.1870  -19.9420 O   0  0  0  0  0  0
   -5.9090  -16.4390  -18.2480 C   0  0  0  0  0  0
   -4.9070  -17.2190  -17.3940 C   0  0  0  0  0  0
   -3.4750  -16.9920  -17.8830 C   0  0  0  0  0  0
   -2.5810  -18.0340  -17.3320 N   0  0  0  0  0  0
   -2.4630  -19.2690  -17.8380 C   0  0  0  0  0  0
   -3.1830  -19.6240  -18.9110 N   0  0  0  0  0  0
   -1.6260  -20.1490  -17.2720 N   0  0  0  0  0  0
   -7.1800  -17.6080  -21.4680 N   0  0  0  0  0  0
   -8.4250  -17.7630  -22.2010 C   0  0  2  0  0  0
   -9.3400  -18.7600  -21.4880 C   0  0  0  0  0  0
   -9.0980  -19.9660  -21.5230 O   0  0  0  0  0  0
   -8.1670  -18.2500  -23.6290 C   0  0  0  0  0  0
   -7.1630  -19.4050  -23.6410 C   0  0  0  0  0  0
   -7.4470  -20.3660  -24.7970 C   0  0  0  0  0  0
   -6.2010  -21.0560  -25.2000 N   0  0  0  0  0  0
   -5.6570  -22.0790  -24.5280 C   0  0  0  0  0  0
   -6.2460  -22.5380  -23.4150 N   0  0  0  0  0  0
   -4.5240  -22.6430  -24.9680 N   0  0  0  0  0  0
  -10.3730  -18.2200  -20.8570 N   0  0  0  0  0  0
  -11.3260  -19.0480  -20.1380 C   0  0  2  0  0  0
  -12.2070  -19.8120  -21.1280 C   0  0  0  0  0  0
  -13.2950  -19.3550  -21.4770 O   0  0  0  0  0  0
  -12.1910  -18.2030  -19.2000 C   0  0  0  0  0  0
  -11.4070  -17.3270  -18.3940 O   0  0  0  0  0  0
  -11.7060  -20.9620  -21.5520 N   0  0  0  0  0  0
  -12.4340  -21.7940  -22.4950 C   0  0  0  0  0  0
  -12.2570  -21.2830  -23.9260 C   0  0  0  0  0  0
  -12.2720  -22.0660  -24.8750 O   0  0  0  0  0  0
  -12.0856  -19.9826  -24.1460 O   0  0  0  0  0  0
    1.2976    1.0199    0.4113 H   0  0  0  0  0  0
    1.8126   -0.6730    0.7207 H   0  0  0  0  0  0
    0.2984   -0.3469   -0.1891 H   0  0  0  0  0  0
    1.5328    0.6460   -1.9527 H   0  0  0  0  0  0
    3.8201    0.3718   -0.0276 H   0  0  0  0  0  0
    4.1562    0.2054   -1.7843 H   0  0  0  0  0  0
    2.6830    2.5771   -0.6416 H   0  0  0  0  0  0
    4.8313    2.3385    0.5583 H   0  0  0  0  0  0
    4.8001    3.7735   -0.5217 H   0  0  0  0  0  0
    5.6942    2.2962   -1.0167 H   0  0  0  0  0  0
    2.5290    2.1620   -3.0741 H   0  0  0  0  0  0
    4.3219    2.1911   -3.1818 H   0  0  0  0  0  0
    3.4278    3.6683   -2.6869 H   0  0  0  0  0  0
    0.2458   -1.0265   -2.6805 H   0  0  0  0  0  0
    1.3716   -3.8017   -2.4253 H   0  0  0  0  0  0
   -1.0190   -2.6642   -3.9258 H   0  0  0  0  0  0
   -0.5711   -4.4037   -3.9141 H   0  0  0  0  0  0
   -1.0339   -4.6080   -1.6188 H   0  0  0  0  0  0
   -0.0122   -2.4840   -0.8639 H   0  0  0  0  0  0
   -1.6342   -2.7622   -0.1438 H   0  0  0  0  0  0
   -1.4382   -1.5883   -1.4893 H   0  0  0  0  0  0
   -2.9717   -4.6133   -3.1528 H   0  0  0  0  0  0
   -3.2014   -2.8571   -2.8531 H   0  0  0  0  0  0
   -3.3974   -4.0310   -1.5077 H   0  0  0  0  0  0
    3.9521   -3.2192   -5.9606 H   0  0  0  0  0  0
    5.1311   -5.7494   -5.8213 H   0  0  0  0  0  0
    5.6819   -4.3177   -4.8868 H   0  0  0  0  0  0
    4.2155   -6.7357   -3.9611 H   0  0  0  0  0  0
    5.1430   -5.5292   -3.0068 H   0  0  0  0  0  0
    3.1873   -4.4503   -2.4126 H   0  0  0  0  0  0
    2.2565   -5.7261   -3.2685 H   0  0  0  0  0  0
    3.5082   -3.2975   -7.9527 H   0  0  0  0  0  0
    1.2873   -5.0674   -8.8139 H   0  0  0  0  0  0
    1.8179   -2.7852   -9.7644 H   0  0  0  0  0  0
    0.5692   -4.6233  -11.1282 H   0  0  0  0  0  0
    4.3012   -2.9210   -9.9137 H   0  0  0  0  0  0
    3.6034   -2.7055  -11.5548 H   0  0  0  0  0  0
    4.1702   -4.3258  -11.0255 H   0  0  0  0  0  0
    3.6056   -8.6603   -9.6835 H   0  0  0  0  0  0
    1.5365  -10.0577  -10.9399 H   0  0  0  0  0  0
    1.7635   -9.9569   -9.1609 H   0  0  0  0  0  0
   -0.2646   -8.6329  -10.8905 H   0  0  0  0  0  0
   -0.2789   -8.8967   -9.1138 H   0  0  0  0  0  0
    0.4305   -6.7262   -8.7553 H   0  0  0  0  0  0
    0.3305   -6.4308  -10.5243 H   0  0  0  0  0  0
    4.8239   -8.5024  -13.8220 H   0  0  0  0  0  0
    5.2948  -11.1854  -14.4437 H   0  0  0  0  0  0
    6.4080  -10.1517  -13.4850 H   0  0  0  0  0  0
    4.6238  -12.3576  -12.5859 H   0  0  0  0  0  0
    6.0342  -11.6204  -11.7530 H   0  0  0  0  0  0
    4.6290  -10.3232  -10.4557 H   0  0  0  0  0  0
    3.2208  -11.1479  -11.2063 H   0  0  0  0  0  0
    4.5169   -9.0117  -16.0373 H   0  0  0  0  0  0
    1.6475   -8.9925  -16.5775 H   0  0  0  0  0  0
    4.0670   -8.6118  -18.0240 H   0  0  0  0  0  0
    3.1053   -9.8363  -18.9197 H   0  0  0  0  0  0
    1.7885   -7.3073  -18.0044 H   0  0  0  0  0  0
    3.9272   -6.5883  -19.0130 H   0  0  0  0  0  0
    2.5067   -6.1387  -20.0165 H   0  0  0  0  0  0
    3.5364   -7.5323  -20.4905 H   0  0  0  0  0  0
    0.4678   -9.1503  -18.9956 H   0  0  0  0  0  0
    1.4747   -9.0591  -20.4803 H   0  0  0  0  0  0
    0.4450   -7.6656  -20.0064 H   0  0  0  0  0  0
    0.1366  -10.4252  -16.8451 H   0  0  0  0  0  0
    1.0854  -13.2728  -16.5412 H   0  0  0  0  0  0
   -1.2191  -13.8328  -15.9939 H   0  0  0  0  0  0
   -0.8096  -12.3094  -15.1348 H   0  0  0  0  0  0
   -3.0721  -12.1393  -16.2358 H   0  0  0  0  0  0
    0.2653  -14.2875  -20.7391 H   0  0  0  0  0  0
   -0.5599  -16.9472  -20.4948 H   0  0  0  0  0  0
    1.1511  -16.4036  -20.4331 H   0  0  0  0  0  0
   -0.6167  -17.3522  -18.2348 H   0  0  0  0  0  0
    1.1745  -17.2260  -18.2839 H   0  0  0  0  0  0
    1.0965  -15.2320  -17.1176 H   0  0  0  0  0  0
   -0.6834  -15.4218  -16.9675 H   0  0  0  0  0  0
   -1.2664  -15.3301  -22.2939 H   0  0  0  0  0  0
   -3.8062  -13.9426  -21.7413 H   0  0  0  0  0  0
   -4.5262  -14.9039  -23.9690 H   0  0  0  0  0  0
   -2.9372  -14.0682  -24.0274 H   0  0  0  0  0  0
   -2.8395  -16.2701  -25.2515 H   0  0  0  0  0  0
   -4.7754  -14.7777  -19.9472 H   0  0  0  0  0  0
   -5.1935  -17.7158  -19.8542 H   0  0  0  0  0  0
   -5.7465  -15.3629  -18.0880 H   0  0  0  0  0  0
   -6.9274  -16.7072  -17.9303 H   0  0  0  0  0  0
   -4.9792  -16.8860  -16.3481 H   0  0  0  0  0  0
   -5.1334  -18.2938  -17.4530 H   0  0  0  0  0  0
   -3.4510  -17.0387  -18.9817 H   0  0  0  0  0  0
   -3.1263  -16.0032  -17.5503 H   0  0  0  0  0  0
   -1.9591  -17.8156  -16.4513 H   0  0  0  0  0  0
   -3.8702  -18.9017  -19.3758 H   0  0  0  0  0  0
   -3.0868  -20.6377  -19.3270 H   0  0  0  0  0  0
   -1.0349  -19.8577  -16.3912 H   0  0  0  0  0  0
   -6.2769  -18.1418  -21.7988 H   0  0  0  0  0  0
   -8.8700  -16.7571  -22.2146 H   0  0  0  0  0  0
   -9.1109  -18.5982  -24.0738 H   0  0  0  0  0  0
   -7.7612  -17.4234  -24.2306 H   0  0  0  0  0  0
   -6.1450  -19.0047  -23.7570 H   0  0  0  0  0  0
   -7.2326  -19.9612  -22.6946 H   0  0  0  0  0  0
   -8.1879  -21.1140  -24.4784 H   0  0  0  0  0  0
   -7.8415  -19.8014  -25.6547 H   0  0  0  0  0  0
   -5.6616  -20.7344  -26.1032 H   0  0  0  0  0  0
   -7.1761  -22.0749  -23.0539 H   0  0  0  0  0  0
   -5.7993  -23.3778  -22.8626 H   0  0  0  0  0  0
   -4.0407  -22.2662  -25.8815 H   0  0  0  0  0  0
  -10.5031  -17.1280  -20.8832 H   0  0  0  0  0  0
  -10.7167  -19.7464  -19.5456 H   0  0  0  0  0  0
  -12.8869  -17.5922  -19.7938 H   0  0  0  0  0  0
  -12.7621  -18.8648  -18.5322 H   0  0  0  0  0  0
  -11.8973  -16.6584  -17.6711 H   0  0  0  0  0  0
  -10.7227  -21.2845  -21.1791 H   0  0  0  0  0  0
  -12.0578  -22.8262  -22.4397 H   0  0  0  0  0  0
  -13.5052  -21.7803  -22.2452 H   0  0  0  0  0  0
  -11.9579  -19.6107  -25.1733 H   0  0  0  0  0  0
  1  2  1  0  0  0
  1105  1  0  0  0
  1106  1  0  0  0
  1107  1  0  0  0
  2  5  1  0  0  0
  2  3  1  0  0  0
  2108  1  0  0  0
  3  4  2  0  0  0
  3  9  1  0  0  0
  5  6  1  0  0  0
  5109  1  0  0  0
  5110  1  0  0  0
  6  7  1  0  0  0
  6  8  1  0  0  0
  6111  1  0  0  0
  7112  1  0  0  0
  7113  1  0  0  0
  7114  1  0  0  0
  8115  1  0  0  0
  8116  1  0  0  0
  8117  1  0  0  0
  9 10  1  0  0  0
  9118  1  0  0  0
 10 13  1  0  0  0
 10 11  1  0  0  0
 10119  1  0  0  0
 11 12  2  0  0  0
 11 17  1  0  0  0
 13 14  1  0  0  0
 13120  1  0  0  0
 13121  1  0  0  0
 14 15  1  0  0  0
 14 16  1  0  0  0
 14122  1  0  0  0
 15123  1  0  0  0
 15124  1  0  0  0
 15125  1  0  0  0
 16126  1  0  0  0
 16127  1  0  0  0
 16128  1  0  0  0
 17 18  1  0  0  0
 17 23  1  0  0  0
 18 19  1  0  0  0
 18 21  1  0  0  0
 18129  1  0  0  0
 19 20  2  0  0  0
 19 24  1  0  0  0
 21 22  1  0  0  0
 21130  1  0  0  0
 21131  1  0  0  0
 22 23  1  0  0  0
 22132  1  0  0  0
 22133  1  0  0  0
 23134  1  0  0  0
 23135  1  0  0  0
 24 25  1  0  0  0
 24136  1  0  0  0
 25 28  1  0  0  0
 25 26  1  0  0  0
 25137  1  0  0  0
 26 27  2  0  0  0
 26 31  1  0  0  0
 28 30  1  0  0  0
 28 29  1  0  0  0
 28138  1  0  0  0
 29139  1  0  0  0
 30140  1  0  0  0
 30141  1  0  0  0
 30142  1  0  0  0
 31 32  1  0  0  0
 31 37  1  0  0  0
 32 33  1  0  0  0
 32 35  1  0  0  0
 32143  1  0  0  0
 33 34  2  0  0  0
 33 38  1  0  0  0
 35 36  1  0  0  0
 35144  1  0  0  0
 35145  1  0  0  0
 36 37  1  0  0  0
 36146  1  0  0  0
 36147  1  0  0  0
 37148  1  0  0  0
 37149  1  0  0  0
 38 39  1  0  0  0
 38 44  1  0  0  0
 39 40  1  0  0  0
 39 42  1  0  0  0
 39150  1  0  0  0
 40 41  2  0  0  0
 40 45  1  0  0  0
 42 43  1  0  0  0
 42151  1  0  0  0
 42152  1  0  0  0
 43 44  1  0  0  0
 43153  1  0  0  0
 43154  1  0  0  0
 44155  1  0  0  0
 44156  1  0  0  0
 45 46  1  0  0  0
 45157  1  0  0  0
 46 49  1  0  0  0
 46 47  1  0  0  0
 46158  1  0  0  0
 47 48  2  0  0  0
 47 53  1  0  0  0
 49 50  1  0  0  0
 49159  1  0  0  0
 49160  1  0  0  0
 50 51  1  0  0  0
 50 52  1  0  0  0
 50161  1  0  0  0
 51162  1  0  0  0
 51163  1  0  0  0
 51164  1  0  0  0
 52165  1  0  0  0
 52166  1  0  0  0
 52167  1  0  0  0
 53 54  1  0  0  0
 53168  1  0  0  0
 54 57  1  0  0  0
 54 55  1  0  0  0
 54169  1  0  0  0
 55 56  2  0  0  0
 55 59  1  0  0  0
 57 58  1  0  0  0
 57170  1  0  0  0
 57171  1  0  0  0
 58172  1  0  0  0
 59 60  1  0  0  0
 59 65  1  0  0  0
 60 61  1  0  0  0
 60 63  1  0  0  0
 60173  1  0  0  0
 61 62  2  0  0  0
 61 66  1  0  0  0
 63 64  1  0  0  0
 63174  1  0  0  0
 63175  1  0  0  0
 64 65  1  0  0  0
 64176  1  0  0  0
 64177  1  0  0  0
 65178  1  0  0  0
 65179  1  0  0  0
 66 67  1  0  0  0
 66180  1  0  0  0
 67 70  1  0  0  0
 67 68  1  0  0  0
 67181  1  0  0  0
 68 69  2  0  0  0
 68 72  1  0  0  0
 70 71  1  0  0  0
 70182  1  0  0  0
 70183  1  0  0  0
 71184  1  0  0  0
 72 73  1  0  0  0
 72185  1  0  0  0
 73 76  1  0  0  0
 73 74  1  0  0  0
 73186  1  0  0  0
 74 75  2  0  0  0
 74 83  1  0  0  0
 76 77  1  0  0  0
 76187  1  0  0  0
 76188  1  0  0  0
 77 78  1  0  0  0
 77189  1  0  0  0
 77190  1  0  0  0
 78 79  1  0  0  0
 78191  1  0  0  0
 78192  1  0  0  0
 79 80  1  0  0  0
 79193  1  0  0  0
 80 82  2  0  0  0
 80 81  1  0  0  0
 81194  1  0  0  0
 81195  1  0  0  0
 82196  1  0  0  0
 83 84  1  0  0  0
 83197  1  0  0  0
 84 87  1  0  0  0
 84 85  1  0  0  0
 84198  1  0  0  0
 85 86  2  0  0  0
 85 94  1  0  0  0
 87 88  1  0  0  0
 87199  1  0  0  0
 87200  1  0  0  0
 88 89  1  0  0  0
 88201  1  0  0  0
 88202  1  0  0  0
 89 90  1  0  0  0
 89203  1  0  0  0
 89204  1  0  0  0
 90 91  1  0  0  0
 90205  1  0  0  0
 91 93  2  0  0  0
 91 92  1  0  0  0
 92206  1  0  0  0
 92207  1  0  0  0
 93208  1  0  0  0
 94 95  1  0  0  0
 94209  1  0  0  0
 95 98  1  0  0  0
 95 96  1  0  0  0
 95210  1  0  0  0
 96 97  2  0  0  0
 96100  1  0  0  0
 98 99  1  0  0  0
 98211  1  0  0  0
 98212  1  0  0  0
 99213  1  0  0  0
100101  1  0  0  0
100214  1  0  0  0
101102  1  0  0  0
101215  1  0  0  0
101216  1  0  0  0
102103  2  0  0  0
102104  1  0  0  0
104217  1  0  0  0
M  CHG  1   1   1
M  END
> <s_m_source_file>
../1mv0_ligand.sdf

> <i_m_source_file_index>
1

> <s_epik_input>
W0NIM11bQ0hdKFtDSDNdKVtDSDJdW0NASF0oW05IMytdKUMoPU8pW05IXVtDQEBIXShbQ0gyXVtDSF0oW0NIM10pW0NIM10pQyg9TylOMVtDQEBIXShbQ0gyXVtDSDJdW0NIMl0xKUMoPU8pW05IXVtDQEBIXShbQ0BIXShbT0hdKVtDSDNdKUMoPU8pTjJbQ0BASF0oW0NIMl1bQ0gyXVtDSDJdMilDKD1PKU4zW0NAQEhdKFtDSDJdW0NIMl1bQ0gyXTMpQyg9TylbTkhdW0NAQEhdKFtDSDJdW0NIXShbQ0gzXSlbQ0gzXSlDKD1PKVtOSF1bQ0BASF0oW0NIMl1bT0hdKUMoPU8pTjRbQ0BASF0oW0NIMl1bQ0gyXVtDSDJdNClDKD1PKVtOSF1bQ0BASF0oW0NIMl1bT0hdKUMoPU8pW05IXVtDQEBIXShbQ0gyXVtDSDJdW0NIMl1bTkhdL0MoW05IMl0pPU5cW0hdKUMoPU8pW05IXVtDQEBIXShbQ0gyXVtDSDJdW0NIMl1bTkhdL0MoW05IMl0pPU5cW0hdKUMoPU8pW05IXVtDQEBIXShbQ0gyXVtPSF0pQyg9TylbTkhdW0NIMl1DKD1PKVtPSF0=

> <s_epik_cmdline>
J2VwaWtfYXBwJywgJy1pbWFlJywgJ2xpZ2FuZF9wcm8ubWFlJywgJy1vbWFlJywgJ2xpZ2FuZF9wcmVwLm1hZScsICctbXMnLCAnMScsICctcGgnLCAnNycsICctcGh0JywgJzAuNScsICctbnQn

> <s_epik_pKa_notes>
Molecule size exceeds maximum supported for generating protonation states

> <s_epik_Chemistry_Notes>
This compound has an imine and may undergo hydrolysis.

$$$$
