1mwn_ligand
                    3D
 Schrodinger Suite 2020-3.
217218  0  0  1  0            999 V2000
   49.8260  -12.2780   23.1830 N   0  3  0  0  0  0
   50.7320  -12.9360   22.1980 C   0  0  2  0  0  0
   51.5730  -11.8770   21.4730 C   0  0  0  0  0  0
   51.2830  -11.5110   20.3500 O   0  0  0  0  0  0
   49.8970  -13.7000   21.1680 C   0  0  2  0  0  0
   48.9580  -14.5300   21.8390 O   0  0  0  0  0  0
   50.8160  -14.5630   20.3010 C   0  0  0  0  0  0
   52.6170  -11.3920   22.1000 N   0  0  0  0  0  0
   53.4940  -10.3630   21.4470 C   0  0  2  0  0  0
   54.9580  -10.7110   21.7190 C   0  0  0  0  0  0
   55.3490  -10.9680   22.8420 O   0  0  0  0  0  0
   53.1800   -8.9750   22.0210 C   0  0  0  0  0  0
   54.0720   -7.9050   21.3630 C   0  0  0  0  0  0
   53.7960   -7.8210   19.8550 C   0  0  0  0  0  0
   54.1840   -6.4690   19.3630 N   0  0  0  0  0  0
   54.3510   -6.2560   18.0850 C   0  0  0  0  0  0
   54.2120   -7.2310   17.2300 N   0  0  0  0  0  0
   54.6660   -5.0620   17.6650 N   0  0  0  0  0  0
   55.7680  -10.7180   20.6950 N   0  0  0  0  0  0
   57.2170  -11.0480   20.8670 C   0  0  2  0  0  0
   58.0570  -10.1190   19.9910 C   0  0  0  0  0  0
   57.5630   -9.5120   19.0590 O   0  0  0  0  0  0
   57.4660  -12.4970   20.4490 C   0  0  2  0  0  0
   56.9900  -12.6900   19.1280 O   0  0  0  0  0  0
   56.7410  -13.4430   21.4060 C   0  0  0  0  0  0
   59.3250  -10.0030   20.2920 N   0  0  0  0  0  0
   60.2330   -9.1120   19.5010 C   0  0  2  0  0  0
   61.2650   -9.9650   18.7610 C   0  0  0  0  0  0
   61.7660  -10.9410   19.2820 O   0  0  0  0  0  0
   60.9470   -8.1490   20.4590 C   0  0  0  0  0  0
   61.8890   -7.2300   19.6710 C   0  0  0  0  0  0
   62.5040   -6.1700   20.6120 C   0  0  0  0  0  0
   61.5840   -4.9440   20.7130 C   0  0  0  0  0  0
   61.8810   -4.2000   21.9780 N   0  3  0  0  0  0
   61.5810   -9.6050   17.5450 N   0  0  0  0  0  0
   62.5810  -10.3890   16.7640 C   0  0  2  0  0  0
   63.9250  -10.3550   17.5070 C   0  0  0  0  0  0
   63.9800  -10.5430   18.7060 O   0  0  0  0  0  0
   62.7440   -9.7430   15.3830 C   0  0  2  0  0  0
   63.0300   -8.2210   15.5580 C   0  0  0  0  0  0
   61.4560   -9.9560   14.5770 C   0  0  0  0  0  0
   64.2810   -7.8250   14.7730 C   0  0  0  0  0  0
   65.0150  -10.1140   16.8140 N   0  0  0  0  0  0
   66.3410  -10.0670   17.5030 C   0  0  2  0  0  0
   67.2380   -8.9750   16.9020 C   0  0  0  0  0  0
   67.5740   -8.9980   15.7320 O   0  0  0  0  0  0
   67.0300  -11.4230   17.3640 C   0  0  0  0  0  0
   68.3090  -11.4270   18.2030 C   0  0  0  0  0  0
   68.7220  -10.3580   18.6210 O   0  0  0  0  0  0
   68.8560  -12.4980   18.4110 O   0  0  0  0  0  0
   67.6490   -8.0310   17.7130 N   0  0  0  0  0  0
   68.5520   -6.9460   17.2250 C   0  0  2  0  0  0
   69.8960   -7.5880   16.8440 C   0  0  0  0  0  0
   70.5090   -7.2410   15.8610 O   0  0  0  0  0  0
   68.7690   -5.9190   18.3710 C   0  0  0  0  0  0
   68.4570   -4.5010   17.9540 C   0  0  0  0  0  0
   67.7610   -3.6270   18.7140 C   0  0  0  0  0  0
   68.8130   -3.7730   16.7340 C   0  0  0  0  0  0
   67.6730   -2.4180   18.0520 N   0  0  0  0  0  0
   68.3010   -2.4600   16.8280 C   0  0  0  0  0  0
   69.5160   -4.1100   15.5690 C   0  0  0  0  0  0
   68.4840   -1.5310   15.8050 C   0  0  0  0  0  0
   69.6970   -3.1780   14.5430 C   0  0  0  0  0  0
   69.1800   -1.8940   14.6640 C   0  0  0  0  0  0
   70.3560   -8.5290   17.6290 N   0  0  0  0  0  0
   71.6650   -9.1700   17.3280 C   0  0  2  0  0  0
   71.6360   -9.8470   15.9590 C   0  0  0  0  0  0
   72.5840   -9.7660   15.2050 O   0  0  0  0  0  0
   71.9660  -10.2170   18.4010 C   0  0  0  0  0  0
   73.2670  -10.9360   18.0490 C   0  0  0  0  0  0
   74.2570  -10.8070   18.7430 O   0  0  0  0  0  0
   73.3010  -11.6930   16.9840 N   0  0  0  0  0  0
   70.5720  -10.5100   15.6230 N   0  0  0  0  0  0
   70.5180  -11.1720   14.2920 C   0  0  2  0  0  0
   70.6670  -10.1060   13.2060 C   0  0  0  0  0  0
   71.3260  -10.3050   12.2050 O   0  0  0  0  0  0
   69.1800  -11.8940   14.1310 C   0  0  0  0  0  0
   69.1900  -12.7270   12.8470 C   0  0  0  0  0  0
   67.8680  -13.4890   12.7350 C   0  0  0  0  0  0
   67.8750  -14.3580   11.4810 C   0  0  0  0  0  0
   66.5470  -15.0170   11.3340 N   0  3  0  0  0  0
   70.0470   -8.9740   13.3990 N   0  0  0  0  0  0
   70.1320   -7.8910   12.3790 C   0  0  2  0  0  0
   71.5430   -7.2860   12.3410 C   0  0  0  0  0  0
   72.0680   -6.9900   11.2850 O   0  0  0  0  0  0
   69.1280   -6.7990   12.7350 C   0  0  2  0  0  0
   67.7110   -7.3690   12.6620 C   0  0  0  0  0  0
   69.2660   -5.6360   11.7550 C   0  0  0  0  0  0
   66.7200   -6.3610   13.2540 C   0  0  0  0  0  0
   72.1610   -7.0900   13.4750 N   0  0  0  0  0  0
   73.5310   -6.4940   13.4750 C   0  0  2  0  0  0
   74.4780   -7.3960   12.6860 C   0  0  0  0  0  0
   75.3300   -6.9350   11.9540 O   0  0  0  0  0  0
   74.0510   -6.3660   14.9070 C   0  0  0  0  0  0
   73.2120   -5.3560   15.6950 C   0  0  0  0  0  0
   73.6670   -5.3720   17.1570 C   0  0  0  0  0  0
   73.3720   -3.9420   15.1060 C   0  0  0  0  0  0
   74.3390   -8.6820   12.8420 N   0  0  0  0  0  0
   75.2310   -9.6280   12.1090 C   0  0  2  0  0  0
   74.6120  -11.0280   12.1330 C   0  0  0  0  0  0
   74.1670  -11.4780   11.0900 O   0  0  0  0  0  0
   76.6060   -9.6710   12.7830 C   0  0  0  0  0  0
   76.4410   -9.8980   14.1760 O   0  0  0  0  0  0
   74.5950  -11.6270   13.1950 O   0  0  0  0  0  0
   50.4262  -11.7288   23.9234 H   0  0  0  0  0  0
   49.2230  -13.0428   23.6944 H   0  0  0  0  0  0
   49.1605  -11.5771   22.6578 H   0  0  0  0  0  0
   51.3832  -13.6256   22.7552 H   0  0  0  0  0  0
   49.2957  -13.0146   20.5527 H   0  0  0  0  0  0
   48.2111  -14.0832   22.5117 H   0  0  0  0  0  0
   51.5418  -13.9193   19.7826 H   0  0  0  0  0  0
   50.2143  -15.1085   19.5592 H   0  0  0  0  0  0
   51.3525  -15.2816   20.9380 H   0  0  0  0  0  0
   52.8477  -11.7468   23.1153 H   0  0  0  0  0  0
   53.2969  -10.3709   20.3648 H   0  0  0  0  0  0
   52.1253   -8.7287   21.8286 H   0  0  0  0  0  0
   53.3643   -8.9764   23.1055 H   0  0  0  0  0  0
   53.8648   -6.9249   21.8175 H   0  0  0  0  0  0
   55.1299   -8.1643   21.5169 H   0  0  0  0  0  0
   54.3847   -8.5885   19.3312 H   0  0  0  0  0  0
   52.7251   -7.9895   19.6683 H   0  0  0  0  0  0
   54.3310   -5.6452   20.0769 H   0  0  0  0  0  0
   53.9464   -8.2384   17.5830 H   0  0  0  0  0  0
   54.7835   -4.2389   18.3852 H   0  0  0  0  0  0
   54.8141   -4.8782   16.5906 H   0  0  0  0  0  0
   55.3734  -10.4774   19.6968 H   0  0  0  0  0  0
   57.4773  -10.9106   21.9269 H   0  0  0  0  0  0
   58.5410  -12.7268   20.4090 H   0  0  0  0  0  0
   57.4014  -12.0911   18.3021 H   0  0  0  0  0  0
   57.1153  -13.2877   22.4286 H   0  0  0  0  0  0
   56.9253  -14.4840   21.1022 H   0  0  0  0  0  0
   55.6607  -13.2380   21.3758 H   0  0  0  0  0  0
   59.7212  -10.5751   21.1439 H   0  0  0  0  0  0
   59.6291   -8.5492   18.7739 H   0  0  0  0  0  0
   60.2010   -7.5367   20.9868 H   0  0  0  0  0  0
   61.5317   -8.7260   21.1906 H   0  0  0  0  0  0
   62.6964   -7.8287   19.2241 H   0  0  0  0  0  0
   61.3249   -6.7227   18.8745 H   0  0  0  0  0  0
   62.6356   -6.6023   21.6149 H   0  0  0  0  0  0
   63.4810   -5.8529   20.2183 H   0  0  0  0  0  0
   61.7567   -4.2839   19.8502 H   0  0  0  0  0  0
   60.5343   -5.2727   20.7188 H   0  0  0  0  0  0
   61.2222   -3.3221   22.0503 H   0  0  0  0  0  0
   62.9307   -3.8712   21.9722 H   0  0  0  0  0  0
   61.7083   -4.8601   22.8408 H   0  0  0  0  0  0
   61.1058   -8.7194   17.0979 H   0  0  0  0  0  0
   62.2226  -11.4240   16.6629 H   0  0  0  0  0  0
   63.5783  -10.2178   14.8459 H   0  0  0  0  0  0
   62.1726   -7.6416   15.1851 H   0  0  0  0  0  0
   63.1879   -7.9977   16.6235 H   0  0  0  0  0  0
   61.2690  -11.0340   14.4628 H   0  0  0  0  0  0
   61.5645   -9.4954   13.5840 H   0  0  0  0  0  0
   60.6111   -9.4913   15.1064 H   0  0  0  0  0  0
   64.4715   -6.7497   14.9048 H   0  0  0  0  0  0
   64.1281   -8.0421   13.7055 H   0  0  0  0  0  0
   65.1434   -8.3983   15.1439 H   0  0  0  0  0  0
   64.9530   -9.9470   15.7285 H   0  0  0  0  0  0
   66.1485   -9.8367   18.5612 H   0  0  0  0  0  0
   66.3543  -12.2156   17.7180 H   0  0  0  0  0  0
   67.2813  -11.6001   16.3078 H   0  0  0  0  0  0
   69.7775  -12.5377   19.0103 H   0  0  0  0  0  0
   67.3219   -8.0435   18.7632 H   0  0  0  0  0  0
   68.0936   -6.4583   16.3521 H   0  0  0  0  0  0
   68.1146   -6.1714   19.2183 H   0  0  0  0  0  0
   69.8192   -5.9497   18.6969 H   0  0  0  0  0  0
   67.3362   -3.8421   19.6945 H   0  0  0  0  0  0
   69.9276   -5.1136   15.4616 H   0  0  0  0  0  0
   68.0810   -0.5230   15.9027 H   0  0  0  0  0  0
   70.2459   -3.4597   13.6444 H   0  0  0  0  0  0
   69.3223   -1.1717   13.8602 H   0  0  0  0  0  0
   69.7777   -8.8463   18.5093 H   0  0  0  0  0  0
   72.4258   -8.3755   17.3243 H   0  0  0  0  0  0
   72.0702   -9.7217   19.3776 H   0  0  0  0  0  0
   71.1420  -10.9444   18.4449 H   0  0  0  0  0  0
   72.4019  -11.8056   16.3603 H   0  0  0  0  0  0
   74.2287  -12.2175   16.7114 H   0  0  0  0  0  0
   69.7162  -10.5855   16.3100 H   0  0  0  0  0  0
   71.3399  -11.9005   14.2312 H   0  0  0  0  0  0
   69.0152  -12.5572   14.9929 H   0  0  0  0  0  0
   68.3680  -11.1538   14.0774 H   0  0  0  0  0  0
   69.3085  -12.0616   11.9792 H   0  0  0  0  0  0
   70.0269  -13.4402   12.8791 H   0  0  0  0  0  0
   67.7379  -14.1294   13.6198 H   0  0  0  0  0  0
   67.0356  -12.7724   12.6755 H   0  0  0  0  0  0
   68.0747  -13.7296   10.6005 H   0  0  0  0  0  0
   68.6593  -15.1241   11.5701 H   0  0  0  0  0  0
   66.5472  -15.6449   10.4308 H   0  0  0  0  0  0
   65.7643  -14.2491   11.2465 H   0  0  0  0  0  0
   66.3490  -15.6436   12.2161 H   0  0  0  0  0  0
   69.4607   -8.8202   14.3170 H   0  0  0  0  0  0
   69.8970   -8.3392   11.4023 H   0  0  0  0  0  0
   69.3270   -6.4378   13.7548 H   0  0  0  0  0  0
   67.4486   -7.5659   11.6120 H   0  0  0  0  0  0
   67.6633   -8.3074   13.2340 H   0  0  0  0  0  0
   70.2864   -5.2289   11.8105 H   0  0  0  0  0  0
   68.5426   -4.8493   12.0154 H   0  0  0  0  0  0
   69.0684   -5.9922   10.7332 H   0  0  0  0  0  0
   65.7016   -6.7733   13.2003 H   0  0  0  0  0  0
   66.7662   -5.4224   12.6823 H   0  0  0  0  0  0
   66.9809   -6.1639   14.3043 H   0  0  0  0  0  0
   71.6790   -7.3608   14.4260 H   0  0  0  0  0  0
   73.4606   -5.5003   13.0086 H   0  0  0  0  0  0
   73.9940   -7.3443   15.4066 H   0  0  0  0  0  0
   75.0964   -6.0242   14.8883 H   0  0  0  0  0  0
   72.1509   -5.6392   15.6330 H   0  0  0  0  0  0
   73.5484   -6.3859   17.5668 H   0  0  0  0  0  0
   73.0551   -4.6672   17.7392 H   0  0  0  0  0  0
   74.7244   -5.0744   17.2152 H   0  0  0  0  0  0
   73.0425   -3.9425   14.0565 H   0  0  0  0  0  0
   74.4285   -3.6404   15.1584 H   0  0  0  0  0  0
   72.7593   -3.2332   15.6824 H   0  0  0  0  0  0
   73.5614   -9.0700   13.5164 H   0  0  0  0  0  0
   75.3294   -9.2686   11.0740 H   0  0  0  0  0  0
   73.7154  -12.4808   11.0720 H   0  0  0  0  0  0
   77.2032  -10.4849   12.3461 H   0  0  0  0  0  0
   77.1218   -8.7123   12.6253 H   0  0  0  0  0  0
   77.3223   -9.9607   14.8312 H   0  0  0  0  0  0
  1  2  1  0  0  0
  1105  1  0  0  0
  1106  1  0  0  0
  1107  1  0  0  0
  2  3  1  0  0  0
  2  5  1  0  0  0
  2108  1  0  0  0
  3  4  2  0  0  0
  3  8  1  0  0  0
  5  6  1  0  0  0
  5  7  1  0  0  0
  5109  1  0  0  0
  6110  1  0  0  0
  7111  1  0  0  0
  7112  1  0  0  0
  7113  1  0  0  0
  8  9  1  0  0  0
  8114  1  0  0  0
  9 10  1  0  0  0
  9 12  1  0  0  0
  9115  1  0  0  0
 10 11  2  0  0  0
 10 19  1  0  0  0
 12 13  1  0  0  0
 12116  1  0  0  0
 12117  1  0  0  0
 13 14  1  0  0  0
 13118  1  0  0  0
 13119  1  0  0  0
 14 15  1  0  0  0
 14120  1  0  0  0
 14121  1  0  0  0
 15 16  1  0  0  0
 15122  1  0  0  0
 16 17  2  0  0  0
 16 18  1  0  0  0
 17123  1  0  0  0
 18124  1  0  0  0
 18125  1  0  0  0
 19 20  1  0  0  0
 19126  1  0  0  0
 20 21  1  0  0  0
 20 23  1  0  0  0
 20127  1  0  0  0
 21 22  2  0  0  0
 21 26  1  0  0  0
 23 24  1  0  0  0
 23 25  1  0  0  0
 23128  1  0  0  0
 24129  1  0  0  0
 25130  1  0  0  0
 25131  1  0  0  0
 25132  1  0  0  0
 26 27  1  0  0  0
 26133  1  0  0  0
 27 28  1  0  0  0
 27 30  1  0  0  0
 27134  1  0  0  0
 28 29  2  0  0  0
 28 35  1  0  0  0
 30 31  1  0  0  0
 30135  1  0  0  0
 30136  1  0  0  0
 31 32  1  0  0  0
 31137  1  0  0  0
 31138  1  0  0  0
 32 33  1  0  0  0
 32139  1  0  0  0
 32140  1  0  0  0
 33 34  1  0  0  0
 33141  1  0  0  0
 33142  1  0  0  0
 34143  1  0  0  0
 34144  1  0  0  0
 34145  1  0  0  0
 35 36  1  0  0  0
 35146  1  0  0  0
 36 37  1  0  0  0
 36 39  1  0  0  0
 36147  1  0  0  0
 37 38  2  0  0  0
 37 43  1  0  0  0
 39 40  1  0  0  0
 39 41  1  0  0  0
 39148  1  0  0  0
 40 42  1  0  0  0
 40149  1  0  0  0
 40150  1  0  0  0
 41151  1  0  0  0
 41152  1  0  0  0
 41153  1  0  0  0
 42154  1  0  0  0
 42155  1  0  0  0
 42156  1  0  0  0
 43 44  1  0  0  0
 43157  1  0  0  0
 44 45  1  0  0  0
 44 47  1  0  0  0
 44158  1  0  0  0
 45 46  2  0  0  0
 45 51  1  0  0  0
 47 48  1  0  0  0
 47159  1  0  0  0
 47160  1  0  0  0
 48 49  2  0  0  0
 48 50  1  0  0  0
 50161  1  0  0  0
 51 52  1  0  0  0
 51162  1  0  0  0
 52 53  1  0  0  0
 52 55  1  0  0  0
 52163  1  0  0  0
 53 54  2  0  0  0
 53 65  1  0  0  0
 55 56  1  0  0  0
 55164  1  0  0  0
 55165  1  0  0  0
 56 57  2  0  0  0
 56 58  1  0  0  0
 57 59  1  0  0  0
 57166  1  0  0  0
 58 60  2  0  0  0
 58 61  1  0  0  0
 59 60  1  0  0  0
 60 62  1  0  0  0
 61 63  2  0  0  0
 61167  1  0  0  0
 62 64  2  0  0  0
 62168  1  0  0  0
 63 64  1  0  0  0
 63169  1  0  0  0
 64170  1  0  0  0
 65 66  1  0  0  0
 65171  1  0  0  0
 66 67  1  0  0  0
 66 69  1  0  0  0
 66172  1  0  0  0
 67 68  2  0  0  0
 67 73  1  0  0  0
 69 70  1  0  0  0
 69173  1  0  0  0
 69174  1  0  0  0
 70 71  2  0  0  0
 70 72  1  0  0  0
 72175  1  0  0  0
 72176  1  0  0  0
 73 74  1  0  0  0
 73177  1  0  0  0
 74 75  1  0  0  0
 74 77  1  0  0  0
 74178  1  0  0  0
 75 76  2  0  0  0
 75 82  1  0  0  0
 77 78  1  0  0  0
 77179  1  0  0  0
 77180  1  0  0  0
 78 79  1  0  0  0
 78181  1  0  0  0
 78182  1  0  0  0
 79 80  1  0  0  0
 79183  1  0  0  0
 79184  1  0  0  0
 80 81  1  0  0  0
 80185  1  0  0  0
 80186  1  0  0  0
 81187  1  0  0  0
 81188  1  0  0  0
 81189  1  0  0  0
 82 83  1  0  0  0
 82190  1  0  0  0
 83 84  1  0  0  0
 83 86  1  0  0  0
 83191  1  0  0  0
 84 85  2  0  0  0
 84 90  1  0  0  0
 86 87  1  0  0  0
 86 88  1  0  0  0
 86192  1  0  0  0
 87 89  1  0  0  0
 87193  1  0  0  0
 87194  1  0  0  0
 88195  1  0  0  0
 88196  1  0  0  0
 88197  1  0  0  0
 89198  1  0  0  0
 89199  1  0  0  0
 89200  1  0  0  0
 90 91  1  0  0  0
 90201  1  0  0  0
 91 92  1  0  0  0
 91 94  1  0  0  0
 91202  1  0  0  0
 92 93  2  0  0  0
 92 98  1  0  0  0
 94 95  1  0  0  0
 94203  1  0  0  0
 94204  1  0  0  0
 95 96  1  0  0  0
 95 97  1  0  0  0
 95205  1  0  0  0
 96206  1  0  0  0
 96207  1  0  0  0
 96208  1  0  0  0
 97209  1  0  0  0
 97210  1  0  0  0
 97211  1  0  0  0
 98 99  1  0  0  0
 98212  1  0  0  0
 99100  1  0  0  0
 99102  1  0  0  0
 99213  1  0  0  0
100101  1  0  0  0
100104  2  0  0  0
101214  1  0  0  0
102103  1  0  0  0
102215  1  0  0  0
102216  1  0  0  0
103217  1  0  0  0
M  CHG  3   1   1  34   1  81   1
M  END
> <s_m_source_file>
../1mwn_ligand.sdf

> <i_m_source_file_index>
1

> <s_epik_input>
W0hdL049QyhbTkgyXSlcW05IXVtDSDJdW0NIMl1bQ0gyXVtDQEhdKFtOSF1DKD1PKVtDQEBIXShbTkgzK10pW0NASF0oW09IXSlbQ0gzXSlDKD1PKVtOSF1bQ0BASF0oW0NASF0oW09IXSlbQ0gzXSlDKD1PKVtOSF1bQ0BASF0oW0NIMl1bQ0gyXVtDSDJdW0NIMl1bTkgzK10pQyg9TylbTkhdW0NAQEhdKFtDQEBIXShbQ0gzXSlbQ0gyXVtDSDNdKUMoPU8pW05IXVtDQEBIXShbQ0gyXUMoPU8pW09IXSlDKD1PKVtOSF1bQ0BASF0oW0NIMl1jMVtjSF1bbkhdYyhjMTIpW2NIXVtjSF1bY0hdW2NIXTIpQyg9TylbTkhdW0NAQEhdKFtDSDJdQyg9TylbTkgyXSlDKD1PKVtOSF1bQ0BASF0oW0NIMl1bQ0gyXVtDSDJdW0NIMl1bTkgzK10pQyg9TylbTkhdW0NAQEhdKFtDQEBIXShbQ0gzXSlbQ0gyXVtDSDNdKUMoPU8pW05IXVtDQEBIXShbQ0gyXVtDSF0oW0NIM10pW0NIM10pQyg9TylbTkhdW0NASF0oQyg9TylbT0hdKVtDSDJdW09IXQ==

> <s_epik_cmdline>
J2VwaWtfYXBwJywgJy1pbWFlJywgJ2xpZ2FuZF9wcm8ubWFlJywgJy1vbWFlJywgJ2xpZ2FuZF9wcmVwLm1hZScsICctbXMnLCAnMScsICctcGgnLCAnNycsICctcGh0JywgJzAuNScsICctbnQn

> <s_epik_pKa_notes>
Molecule size exceeds maximum supported for generating protonation states

> <s_epik_Chemistry_Notes>
This compound has an imine and may undergo hydrolysis.

$$$$
