1mx1_ligand
                    3D
 Schrodinger Suite 2020-3.
 30 32  0  0  1  0            999 V2000
   22.9510  -28.7130   25.7730 C   0  0  0  0  0  0
   23.2920  -29.5050   26.8960 C   0  0  0  0  0  0
   22.2970  -29.8660   27.8410 C   0  0  0  0  0  0
   20.8940  -29.4120   27.6510 C   0  0  0  0  0  0
   20.6030  -28.6090   26.4930 C   0  0  0  0  0  0
   21.6220  -28.2690   25.5710 C   0  0  0  0  0  0
   22.6380  -30.6140   28.8950 N   0  3  0  0  0  0
   21.7640  -30.9990   29.8330 C   0  0  0  0  0  0
   20.3600  -30.6200   29.7640 C   0  0  0  0  0  0
   19.9270  -29.8130   28.6510 C   0  0  0  0  0  0
   22.3190  -31.8720   31.0080 C   0  0  0  0  0  0
   21.2510  -32.5540   31.9190 C   0  0  0  0  0  0
   20.0870  -31.5770   32.2290 C   0  0  0  0  0  0
   19.3940  -31.1150   30.9150 C   0  0  0  0  0  0
   18.6270  -29.4480   28.5650 N   0  0  0  0  0  0
   23.7232  -28.4411   25.0533 H   0  0  0  0  0  0
   24.3206  -29.8380   27.0348 H   0  0  0  0  0  0
   19.5851  -28.2580   26.3236 H   0  0  0  0  0  0
   21.3815  -27.6608   24.6990 H   0  0  0  0  0  0
   22.9363  -32.6860   30.6001 H   0  0  0  0  0  0
   22.9314  -31.2453   31.6729 H   0  0  0  0  0  0
   20.8445  -33.4391   31.4079 H   0  0  0  0  0  0
   21.7188  -32.8602   32.8663 H   0  0  0  0  0  0
   19.3444  -32.0814   32.8648 H   0  0  0  0  0  0
   20.4796  -30.6937   32.7540 H   0  0  0  0  0  0
   18.7123  -30.2993   31.1976 H   0  0  0  0  0  0
   18.8085  -31.9750   30.5578 H   0  0  0  0  0  0
   18.2833  -28.8322   27.7208 H   0  0  0  0  0  0
   17.9138  -29.7670   29.3393 H   0  0  0  0  0  0
   23.6800  -30.9428   29.0221 H   0  0  0  0  0  0
  1  2  2  0  0  0
  1  6  1  0  0  0
  1 16  1  0  0  0
  2  3  1  0  0  0
  2 17  1  0  0  0
  3  4  2  0  0  0
  3  7  1  0  0  0
  4  5  1  0  0  0
  4 10  1  0  0  0
  5  6  2  0  0  0
  5 18  1  0  0  0
  6 19  1  0  0  0
  7  8  2  0  0  0
  7 30  1  0  0  0
  8  9  1  0  0  0
  8 11  1  0  0  0
  9 10  2  0  0  0
  9 14  1  0  0  0
 10 15  1  0  0  0
 11 12  1  0  0  0
 11 20  1  0  0  0
 11 21  1  0  0  0
 12 13  1  0  0  0
 12 22  1  0  0  0
 12 23  1  0  0  0
 13 14  1  0  0  0
 13 24  1  0  0  0
 13 25  1  0  0  0
 14 26  1  0  0  0
 14 27  1  0  0  0
 15 28  1  0  0  0
 15 29  1  0  0  0
M  CHG  1   7   1
M  END
> <s_m_source_file>
../1mx1_ligand.sdf

> <i_m_source_file_index>
1

> <s_epik_input>
W2NIXTFbY0hdW2NIXVtjSF1jKGMxMiljKFtOSDJdKWMzYyhuMilbQ0gyXVtDSDJdW0NIMl1bQ0gyXTM=

> <s_epik_cmdline>
J2VwaWtfYXBwJywgJy1pbWFlJywgJ2xpZ2FuZF9wcm8ubWFlJywgJy1vbWFlJywgJ2xpZ2FuZF9wcmVwLm1hZScsICctbXMnLCAnMScsICctcGgnLCAnNycsICctcGh0JywgJzAuNScsICctbnQn

> <r_lp_tautomer_probability>
1

> <r_epik_Ionization_Penalty>
  0.0007

> <r_epik_Ionization_Penalty_Charging>
  0.0007

> <r_epik_Ionization_Penalty_Neutral>
  0.0000

> <r_epik_State_Penalty>
 -0.0000

> <r_epik_Charging_Adjusted_Penalty>
0.000692850471966659

> <i_epik_Tot_Q>
1

> <i_epik_Tot_abs_Q>
1

$$$$
