1mxl_ligand
                    3D
 Schrodinger Suite 2020-3.
261260  0  0  1  0            999 V2000
   53.7630    4.3340    6.7510 N   0  3  0  0  0  0
   54.3680    5.6860    6.9270 C   0  0  2  0  0  0
   54.9360    6.1850    5.5950 C   0  0  0  0  0  0
   55.7340    7.1000    5.5550 O   0  0  0  0  0  0
   55.4870    5.4910    7.9490 C   0  0  0  0  0  0
   55.7350    6.8050    8.6940 C   0  0  0  0  0  0
   56.8850    7.5640    8.0280 C   0  0  0  0  0  0
   57.4680    8.4050    9.1100 N   0  0  0  0  0  0
   57.9210    9.5980    8.8400 C   0  0  0  0  0  0
   59.1390    9.7510    8.3980 N   0  0  0  0  0  0
   57.1560   10.6410    9.0140 N   0  0  0  0  0  0
   54.5320    5.5890    4.5070 N   0  0  0  0  0  0
   55.0500    6.0280    3.1790 C   0  0  2  0  0  0
   53.9170    6.6300    2.3430 C   0  0  0  0  0  0
   53.8840    6.4940    1.1370 O   0  0  0  0  0  0
   55.5830    4.7540    2.5220 C   0  0  2  0  0  0
   56.4830    4.0100    3.5110 C   0  0  0  0  0  0
   56.3920    5.1200    1.2760 C   0  0  0  0  0  0
   57.7740    4.8040    3.7220 C   0  0  0  0  0  0
   52.9890    7.2940    2.9760 N   0  0  0  0  0  0
   51.8610    7.9030    2.2150 C   0  0  2  0  0  0
   51.3270    6.9080    1.1810 C   0  0  0  0  0  0
   51.4880    7.0860   -0.0100 O   0  0  0  0  0  0
   52.4630    9.1250    1.5240 C   0  0  0  0  0  0
   51.6330   10.2540    1.7610 O   0  0  0  0  0  0
   50.6940    5.8590    1.6300 N   0  0  0  0  0  0
   50.1510    4.8480    0.6770 C   0  0  2  0  0  0
   49.2990    5.5280   -0.3990 C   0  0  0  0  0  0
   49.2590    5.0980   -1.5340 O   0  0  0  0  0  0
   49.2880    3.9230    1.5370 C   0  0  0  0  0  0
   48.6140    6.5830   -0.0500 N   0  0  0  0  0  0
   47.7620    7.2840   -1.0540 C   0  0  2  0  0  0
   48.6180    8.1760   -1.9580 C   0  0  0  0  0  0
   48.4100    8.2460   -3.1530 O   0  0  0  0  0  0
   46.7950    8.1320   -0.2260 C   0  0  0  0  0  0
   47.5890    9.0330    0.7210 C   0  0  0  0  0  0
   48.3330    8.5010    1.5290 O   0  0  0  0  0  0
   47.4370   10.2400    0.6260 O   0  0  0  0  0  0
   49.5760    8.8590   -1.3970 N   0  0  0  0  0  0
   50.4400    9.7490   -2.2260 C   0  0  2  0  0  0
   51.5710    8.9450   -2.8750 C   0  0  0  0  0  0
   52.3390    9.4620   -3.6610 O   0  0  0  0  0  0
   51.0060   10.7760   -1.2450 C   0  0  0  0  0  0
   51.6820    7.6860   -2.5510 N   0  0  0  0  0  0
   52.7670    6.8560   -3.1520 C   0  0  2  0  0  0
   52.4520    6.5510   -4.6190 C   0  0  0  0  0  0
   53.2520    6.7990   -5.5000 O   0  0  0  0  0  0
   52.7860    5.5690   -2.3280 C   0  0  0  0  0  0
   54.2290    5.2250   -1.9530 C   0  0  0  0  0  0
   54.6890    3.6440   -2.7060 S   0  0  0  0  0  0
   55.9990    4.2740   -3.7840 C   0  0  0  0  0  0
   51.2950    6.0090   -4.8890 N   0  0  0  0  0  0
   50.9350    5.6850   -6.3000 C   0  0  2  0  0  0
   50.5160    6.9550   -7.0470 C   0  0  0  0  0  0
   50.6910    7.0680   -8.2440 O   0  0  0  0  0  0
   49.7600    4.7110   -6.1960 C   0  0  0  0  0  0
   50.2880    3.2780   -6.1300 C   0  0  0  0  0  0
   50.9940    2.9720   -4.4930 S   0  0  0  0  0  0
   52.7240    3.2590   -4.9380 C   0  0  0  0  0  0
   49.9610    7.9100   -6.3520 N   0  0  0  0  0  0
   49.5280    9.1680   -7.0240 C   0  0  2  0  0  0
   50.7440    9.9430   -7.5430 C   0  0  0  0  0  0
   50.6750   10.6240   -8.5460 O   0  0  0  0  0  0
   48.8070    9.9690   -5.9390 C   0  0  0  0  0  0
   47.4550   10.4490   -6.4700 C   0  0  0  0  0  0
   46.3570   10.0950   -5.4650 C   0  0  0  0  0  0
   45.8460   10.9580   -4.7780 O   0  0  0  0  0  0
   45.9680    8.8540   -5.3490 N   0  0  0  0  0  0
   51.8570    9.8460   -6.8660 N   0  0  0  0  0  0
   53.0720   10.5820   -7.3220 C   0  0  2  0  0  0
   53.8280    9.7620   -8.3730 C   0  0  0  0  0  0
   54.0870   10.2260   -9.4650 O   0  0  0  0  0  0
   53.9230   10.7600   -6.0650 C   0  0  0  0  0  0
   54.1830    8.5480   -8.0520 N   0  0  0  0  0  0
   54.9210    7.7030   -9.0370 C   0  0  2  0  0  0
   54.1990    6.3690   -9.2320 C   0  0  0  0  0  0
   53.0550    6.2100   -8.8560 O   0  0  0  0  0  0
   56.3110    7.4800   -8.4280 C   0  0  0  0  0  0
   56.1930    7.2560   -6.9180 C   0  0  0  0  0  0
   57.4190    6.4900   -6.4160 C   0  0  0  0  0  0
   56.1180    8.6100   -6.2110 C   0  0  0  0  0  0
   54.8570    5.4080   -9.8230 N   0  0  0  0  0  0
   54.2030    4.0870  -10.0450 C   0  0  2  0  0  0
   52.8790    4.2760  -10.7890 C   0  0  0  0  0  0
   51.9450    3.5160  -10.6210 O   0  0  0  0  0  0
   53.9610    3.5250   -8.6440 C   0  0  0  0  0  0
   55.2950    3.1050   -8.0260 C   0  0  0  0  0  0
   55.9050    4.2900   -7.2750 C   0  0  0  0  0  0
   55.0650    1.9500   -7.0510 C   0  0  0  0  0  0
   52.7910    5.2870  -11.6090 N   0  0  0  0  0  0
   51.5290    5.5320  -12.3650 C   0  0  0  0  0  0
   51.2240    7.0300  -12.3730 C   0  0  0  0  0  0
   50.5950    7.5500  -11.4720 O   0  0  0  0  0  0
   51.6660    7.7310  -13.3800 N   0  0  0  0  0  0
   51.4030    9.1970  -13.4400 C   0  0  2  0  0  0
   51.2610    9.6560  -14.8940 C   0  0  0  0  0  0
   51.4940   10.8030  -15.2190 O   0  0  0  0  0  0
   52.6280    9.8430  -12.7910 C   0  0  0  0  0  0
   50.8780    8.7680  -15.7710 N   0  0  0  0  0  0
   50.7220    9.1560  -17.2030 C   0  0  2  0  0  0
   49.4250    9.9450  -17.3990 C   0  0  0  0  0  0
   48.3410    9.4380  -17.1850 O   0  0  0  0  0  0
   50.6650    7.8330  -17.9670 C   0  0  0  0  0  0
   50.7300    8.1070  -19.4700 C   0  0  0  0  0  0
   49.7970    7.1420  -20.2050 C   0  0  0  0  0  0
   50.3940    6.9900  -21.5600 N   0  0  0  0  0  0
   50.1360    5.9280  -22.2720 C   0  0  0  0  0  0
   48.9050    5.5170  -22.4080 N   0  0  0  0  0  0
   51.1090    5.2750  -22.8470 N   0  0  0  0  0  0
   49.5260   11.1810  -17.8040 N   0  0  0  0  0  0
   48.2980   11.9990  -18.0120 C   0  0  2  0  0  0
   48.4860   12.9410  -19.2050 C   0  0  0  0  0  0
   48.1230   14.0990  -19.1580 O   0  0  0  0  0  0
   48.1290   12.7960  -16.7190 C   0  0  0  0  0  0
   49.0520   12.4520  -20.2760 N   0  0  0  0  0  0
   49.2630   13.3190  -21.4710 C   0  0  2  0  0  0
   50.0970   14.5470  -21.0920 C   0  0  0  0  0  0
   50.6000   14.5770  -19.9810 O   0  0  0  0  0  0
   47.8600   13.7390  -21.9080 C   0  0  0  0  0  0
   47.7710   13.7190  -23.4350 C   0  0  0  0  0  0
   46.3340   14.0200  -23.8690 C   0  0  0  0  0  0
   46.3500   14.7910  -25.1910 C   0  0  0  0  0  0
   45.1980   14.2500  -25.9630 N   0  3  0  0  0  0
   50.2200   15.4340  -21.9200 O   0  0  0  0  0  0
   52.9411    4.3922    6.0223 H   0  0  0  0  0  0
   53.3729    3.9784    7.7161 H   0  0  0  0  0  0
   54.5289    3.6344    6.3848 H   0  0  0  0  0  0
   53.6160    6.4143    7.2648 H   0  0  0  0  0  0
   55.1948    4.7119    8.6685 H   0  0  0  0  0  0
   56.4077    5.1847    7.4307 H   0  0  0  0  0  0
   54.8244    7.4213    8.6635 H   0  0  0  0  0  0
   55.9970    6.5895    9.7404 H   0  0  0  0  0  0
   57.6179    6.8455    7.6322 H   0  0  0  0  0  0
   56.4911    8.1773    7.2042 H   0  0  0  0  0  0
   57.5172    8.0204   10.1394 H   0  0  0  0  0  0
   59.7850    8.8730    8.2508 H   0  0  0  0  0  0
   56.1289   10.5137    9.3866 H   0  0  0  0  0  0
   57.5384   11.6474    8.7881 H   0  0  0  0  0  0
   53.8090    4.7624    4.5694 H   0  0  0  0  0  0
   55.8260    6.7992    3.2935 H   0  0  0  0  0  0
   54.7384    4.1105    2.2347 H   0  0  0  0  0  0
   55.9591    3.8995    4.4719 H   0  0  0  0  0  0
   56.7257    3.0152    3.1092 H   0  0  0  0  0  0
   55.7465    5.6550    0.5638 H   0  0  0  0  0  0
   56.7758    4.2027    0.8055 H   0  0  0  0  0  0
   57.2353    5.7654    1.5629 H   0  0  0  0  0  0
   58.4212    4.2694    4.4329 H   0  0  0  0  0  0
   57.5311    5.7988    4.1238 H   0  0  0  0  0  0
   58.2977    4.9145    2.7610 H   0  0  0  0  0  0
   53.0381    7.4047    4.0693 H   0  0  0  0  0  0
   51.0299    8.1685    2.8849 H   0  0  0  0  0  0
   53.4686    9.3158    1.9270 H   0  0  0  0  0  0
   52.5309    8.9381    0.4421 H   0  0  0  0  0  0
   51.9039   11.2338    1.3407 H   0  0  0  0  0  0
   50.5611    5.7209    2.7132 H   0  0  0  0  0  0
   50.9658    4.3155    0.1646 H   0  0  0  0  0  0
   49.9152    3.4439    2.3032 H   0  0  0  0  0  0
   48.8321    3.1503    0.9005 H   0  0  0  0  0  0
   48.4962    4.5097    2.0256 H   0  0  0  0  0  0
   48.6648    6.9551    0.9839 H   0  0  0  0  0  0
   47.2454    6.5597   -1.7009 H   0  0  0  0  0  0
   46.1849    8.7536   -0.8978 H   0  0  0  0  0  0
   46.1384    7.4723    0.3602 H   0  0  0  0  0  0
   48.9196    9.1178    2.2258 H   0  0  0  0  0  0
   49.7477    8.7797   -0.3134 H   0  0  0  0  0  0
   49.8589   10.2143   -3.0359 H   0  0  0  0  0  0
   50.1801   11.3424   -0.7900 H   0  0  0  0  0  0
   51.6726   11.4671   -1.7817 H   0  0  0  0  0  0
   51.5725   10.2574   -0.4575 H   0  0  0  0  0  0
   50.9774    7.2362   -1.8360 H   0  0  0  0  0  0
   53.7298    7.3872   -3.1227 H   0  0  0  0  0  0
   52.1930    5.7110   -1.4125 H   0  0  0  0  0  0
   52.3553    4.7481   -2.9201 H   0  0  0  0  0  0
   54.9013    6.0147   -2.3196 H   0  0  0  0  0  0
   54.3153    5.1486   -0.8591 H   0  0  0  0  0  0
   56.4334    3.4421   -4.3578 H   0  0  0  0  0  0
   56.7820    4.7458   -3.1722 H   0  0  0  0  0  0
   55.5778    5.0170   -4.4772 H   0  0  0  0  0  0
   50.5860    5.7913   -4.0766 H   0  0  0  0  0  0
   51.7940    5.2534   -6.8346 H   0  0  0  0  0  0
   49.1815    4.9302   -5.2865 H   0  0  0  0  0  0
   49.1124    4.8222   -7.0782 H   0  0  0  0  0  0
   49.4622    2.5743   -6.3111 H   0  0  0  0  0  0
   51.0642    3.1375   -6.8967 H   0  0  0  0  0  0
   53.3588    3.1198   -4.0505 H   0  0  0  0  0  0
   52.8402    4.2860   -5.3146 H   0  0  0  0  0  0
   53.0248    2.5457   -5.7195 H   0  0  0  0  0  0
   49.8129    7.7858   -5.2691 H   0  0  0  0  0  0
   48.8817    8.9465   -7.8861 H   0  0  0  0  0  0
   48.6482    9.3312   -5.0569 H   0  0  0  0  0  0
   49.4191   10.8385   -5.6573 H   0  0  0  0  0  0
   47.4834   11.5393   -6.6129 H   0  0  0  0  0  0
   47.2436    9.9585   -7.4316 H   0  0  0  0  0  0
   46.4298    8.0725   -5.9702 H   0  0  0  0  0  0
   45.1784    8.5900   -4.6300 H   0  0  0  0  0  0
   51.8991    9.2226   -5.9607 H   0  0  0  0  0  0
   52.7988   11.5424   -7.7834 H   0  0  0  0  0  0
   53.3637   11.3501   -5.3241 H   0  0  0  0  0  0
   54.8545   11.2846   -6.3241 H   0  0  0  0  0  0
   54.1633    9.7734   -5.6422 H   0  0  0  0  0  0
   53.9392    8.1471   -7.0571 H   0  0  0  0  0  0
   54.9700    8.2014  -10.0164 H   0  0  0  0  0  0
   56.7758    6.5961   -8.8892 H   0  0  0  0  0  0
   56.9390    8.3637   -8.6142 H   0  0  0  0  0  0
   55.2844    6.6746   -6.7025 H   0  0  0  0  0  0
   57.4754    5.5155   -6.9230 H   0  0  0  0  0  0
   57.3348    6.3342   -5.3304 H   0  0  0  0  0  0
   58.3281    7.0698   -6.6338 H   0  0  0  0  0  0
   55.2374    9.1628   -6.5701 H   0  0  0  0  0  0
   57.0280    9.1883   -6.4289 H   0  0  0  0  0  0
   56.0347    8.4527   -5.1255 H   0  0  0  0  0  0
   55.8922    5.5722  -10.1568 H   0  0  0  0  0  0
   54.8371    3.4279  -10.6561 H   0  0  0  0  0  0
   53.4924    4.2965   -8.0154 H   0  0  0  0  0  0
   53.2958    2.6513   -8.7092 H   0  0  0  0  0  0
   55.9810    2.7814   -8.8227 H   0  0  0  0  0  0
   56.0710    5.1218   -7.9754 H   0  0  0  0  0  0
   56.8648    3.9877   -6.8307 H   0  0  0  0  0  0
   55.2178    4.6126   -6.4789 H   0  0  0  0  0  0
   54.6264    1.0972   -7.5898 H   0  0  0  0  0  0
   54.3781    2.2734   -6.2550 H   0  0  0  0  0  0
   56.0251    1.6485   -6.6068 H   0  0  0  0  0  0
   53.6512    5.9596  -11.7419 H   0  0  0  0  0  0
   51.6460    5.1756  -13.3991 H   0  0  0  0  0  0
   50.7015    4.9914  -11.8823 H   0  0  0  0  0  0
   52.2329    7.2405  -14.1850 H   0  0  0  0  0  0
   50.4660    9.4483  -12.9214 H   0  0  0  0  0  0
   52.7134    9.5020  -11.7487 H   0  0  0  0  0  0
   52.5192   10.9374  -12.8110 H   0  0  0  0  0  0
   53.5324    9.5542  -13.3466 H   0  0  0  0  0  0
   50.6704    7.7349  -15.4553 H   0  0  0  0  0  0
   51.5541    9.7964  -17.5308 H   0  0  0  0  0  0
   51.5171    7.2026  -17.6727 H   0  0  0  0  0  0
   49.7251    7.3129  -17.7301 H   0  0  0  0  0  0
   50.4163    9.1426  -19.6678 H   0  0  0  0  0  0
   51.7610    7.9621  -19.8249 H   0  0  0  0  0  0
   49.7621    6.1838  -19.6660 H   0  0  0  0  0  0
   48.7862    7.5734  -20.2518 H   0  0  0  0  0  0
   51.0533    7.7736  -21.9616 H   0  0  0  0  0  0
   48.0848    6.0671  -21.9236 H   0  0  0  0  0  0
   52.1468    5.6212  -22.7325 H   0  0  0  0  0  0
   50.8912    4.3785  -23.4460 H   0  0  0  0  0  0
   50.5172   11.6194  -17.9919 H   0  0  0  0  0  0
   47.4301   11.3580  -18.2264 H   0  0  0  0  0  0
   47.9956   12.1025  -15.8756 H   0  0  0  0  0  0
   47.2459   13.4465  -16.8021 H   0  0  0  0  0  0
   49.0239   13.4126  -16.5487 H   0  0  0  0  0  0
   49.3730   11.4001  -20.2961 H   0  0  0  0  0  0
   49.8044   12.7769  -22.2603 H   0  0  0  0  0  0
   51.2053   15.4429  -19.6745 H   0  0  0  0  0  0
   47.1210   13.0399  -21.4895 H   0  0  0  0  0  0
   47.6511   14.7554  -21.5429 H   0  0  0  0  0  0
   48.4461   14.4810  -23.8516 H   0  0  0  0  0  0
   48.0649   12.7262  -23.8065 H   0  0  0  0  0  0
   45.7858   13.0757  -24.0023 H   0  0  0  0  0  0
   45.8373   14.6264  -23.0973 H   0  0  0  0  0  0
   46.2360   15.8664  -24.9897 H   0  0  0  0  0  0
   47.3050   14.6139  -25.7073 H   0  0  0  0  0  0
   45.1387   14.7575  -26.9371 H   0  0  0  0  0  0
   44.2675   14.4227  -25.4024 H   0  0  0  0  0  0
   45.3366   13.1701  -26.1199 H   0  0  0  0  0  0
  1  2  1  0  0  0
  1125  1  0  0  0
  1126  1  0  0  0
  1127  1  0  0  0
  2  3  1  0  0  0
  2  5  1  0  0  0
  2128  1  0  0  0
  3  4  2  0  0  0
  3 12  1  0  0  0
  5  6  1  0  0  0
  5129  1  0  0  0
  5130  1  0  0  0
  6  7  1  0  0  0
  6131  1  0  0  0
  6132  1  0  0  0
  7  8  1  0  0  0
  7133  1  0  0  0
  7134  1  0  0  0
  8  9  1  0  0  0
  8135  1  0  0  0
  9 10  2  0  0  0
  9 11  1  0  0  0
 10136  1  0  0  0
 11137  1  0  0  0
 11138  1  0  0  0
 12 13  1  0  0  0
 12139  1  0  0  0
 13 14  1  0  0  0
 13 16  1  0  0  0
 13140  1  0  0  0
 14 15  2  0  0  0
 14 20  1  0  0  0
 16 17  1  0  0  0
 16 18  1  0  0  0
 16141  1  0  0  0
 17 19  1  0  0  0
 17142  1  0  0  0
 17143  1  0  0  0
 18144  1  0  0  0
 18145  1  0  0  0
 18146  1  0  0  0
 19147  1  0  0  0
 19148  1  0  0  0
 19149  1  0  0  0
 20 21  1  0  0  0
 20150  1  0  0  0
 21 22  1  0  0  0
 21 24  1  0  0  0
 21151  1  0  0  0
 22 23  2  0  0  0
 22 26  1  0  0  0
 24 25  1  0  0  0
 24152  1  0  0  0
 24153  1  0  0  0
 25154  1  0  0  0
 26 27  1  0  0  0
 26155  1  0  0  0
 27 28  1  0  0  0
 27 30  1  0  0  0
 27156  1  0  0  0
 28 29  2  0  0  0
 28 31  1  0  0  0
 30157  1  0  0  0
 30158  1  0  0  0
 30159  1  0  0  0
 31 32  1  0  0  0
 31160  1  0  0  0
 32 33  1  0  0  0
 32 35  1  0  0  0
 32161  1  0  0  0
 33 34  2  0  0  0
 33 39  1  0  0  0
 35 36  1  0  0  0
 35162  1  0  0  0
 35163  1  0  0  0
 36 37  1  0  0  0
 36 38  2  0  0  0
 37164  1  0  0  0
 39 40  1  0  0  0
 39165  1  0  0  0
 40 41  1  0  0  0
 40 43  1  0  0  0
 40166  1  0  0  0
 41 42  2  0  0  0
 41 44  1  0  0  0
 43167  1  0  0  0
 43168  1  0  0  0
 43169  1  0  0  0
 44 45  1  0  0  0
 44170  1  0  0  0
 45 46  1  0  0  0
 45 48  1  0  0  0
 45171  1  0  0  0
 46 47  2  0  0  0
 46 52  1  0  0  0
 48 49  1  0  0  0
 48172  1  0  0  0
 48173  1  0  0  0
 49 50  1  0  0  0
 49174  1  0  0  0
 49175  1  0  0  0
 50 51  1  0  0  0
 51176  1  0  0  0
 51177  1  0  0  0
 51178  1  0  0  0
 52 53  1  0  0  0
 52179  1  0  0  0
 53 54  1  0  0  0
 53 56  1  0  0  0
 53180  1  0  0  0
 54 55  2  0  0  0
 54 60  1  0  0  0
 56 57  1  0  0  0
 56181  1  0  0  0
 56182  1  0  0  0
 57 58  1  0  0  0
 57183  1  0  0  0
 57184  1  0  0  0
 58 59  1  0  0  0
 59185  1  0  0  0
 59186  1  0  0  0
 59187  1  0  0  0
 60 61  1  0  0  0
 60188  1  0  0  0
 61 62  1  0  0  0
 61 64  1  0  0  0
 61189  1  0  0  0
 62 63  2  0  0  0
 62 69  1  0  0  0
 64 65  1  0  0  0
 64190  1  0  0  0
 64191  1  0  0  0
 65 66  1  0  0  0
 65192  1  0  0  0
 65193  1  0  0  0
 66 67  2  0  0  0
 66 68  1  0  0  0
 68194  1  0  0  0
 68195  1  0  0  0
 69 70  1  0  0  0
 69196  1  0  0  0
 70 71  1  0  0  0
 70 73  1  0  0  0
 70197  1  0  0  0
 71 72  2  0  0  0
 71 74  1  0  0  0
 73198  1  0  0  0
 73199  1  0  0  0
 73200  1  0  0  0
 74 75  1  0  0  0
 74201  1  0  0  0
 75 76  1  0  0  0
 75 78  1  0  0  0
 75202  1  0  0  0
 76 77  2  0  0  0
 76 82  1  0  0  0
 78 79  1  0  0  0
 78203  1  0  0  0
 78204  1  0  0  0
 79 80  1  0  0  0
 79 81  1  0  0  0
 79205  1  0  0  0
 80206  1  0  0  0
 80207  1  0  0  0
 80208  1  0  0  0
 81209  1  0  0  0
 81210  1  0  0  0
 81211  1  0  0  0
 82 83  1  0  0  0
 82212  1  0  0  0
 83 84  1  0  0  0
 83 86  1  0  0  0
 83213  1  0  0  0
 84 85  2  0  0  0
 84 90  1  0  0  0
 86 87  1  0  0  0
 86214  1  0  0  0
 86215  1  0  0  0
 87 88  1  0  0  0
 87 89  1  0  0  0
 87216  1  0  0  0
 88217  1  0  0  0
 88218  1  0  0  0
 88219  1  0  0  0
 89220  1  0  0  0
 89221  1  0  0  0
 89222  1  0  0  0
 90 91  1  0  0  0
 90223  1  0  0  0
 91 92  1  0  0  0
 91224  1  0  0  0
 91225  1  0  0  0
 92 93  2  0  0  0
 92 94  1  0  0  0
 94 95  1  0  0  0
 94226  1  0  0  0
 95 96  1  0  0  0
 95 98  1  0  0  0
 95227  1  0  0  0
 96 97  2  0  0  0
 96 99  1  0  0  0
 98228  1  0  0  0
 98229  1  0  0  0
 98230  1  0  0  0
 99100  1  0  0  0
 99231  1  0  0  0
100101  1  0  0  0
100103  1  0  0  0
100232  1  0  0  0
101102  2  0  0  0
101110  1  0  0  0
103104  1  0  0  0
103233  1  0  0  0
103234  1  0  0  0
104105  1  0  0  0
104235  1  0  0  0
104236  1  0  0  0
105106  1  0  0  0
105237  1  0  0  0
105238  1  0  0  0
106107  1  0  0  0
106239  1  0  0  0
107108  2  0  0  0
107109  1  0  0  0
108240  1  0  0  0
109241  1  0  0  0
109242  1  0  0  0
110111  1  0  0  0
110243  1  0  0  0
111112  1  0  0  0
111114  1  0  0  0
111244  1  0  0  0
112113  2  0  0  0
112115  1  0  0  0
114245  1  0  0  0
114246  1  0  0  0
114247  1  0  0  0
115116  1  0  0  0
115248  1  0  0  0
116117  1  0  0  0
116119  1  0  0  0
116249  1  0  0  0
117118  1  0  0  0
117124  2  0  0  0
118250  1  0  0  0
119120  1  0  0  0
119251  1  0  0  0
119252  1  0  0  0
120121  1  0  0  0
120253  1  0  0  0
120254  1  0  0  0
121122  1  0  0  0
121255  1  0  0  0
121256  1  0  0  0
122123  1  0  0  0
122257  1  0  0  0
122258  1  0  0  0
123259  1  0  0  0
123260  1  0  0  0
123261  1  0  0  0
M  CHG  2   1   1 123   1
M  END
> <s_m_source_file>
../1mxl_ligand.sdf

> <i_m_source_file_index>
1

> <s_epik_input>
W0hdL049QyhbTkgyXSlcW05IXVtDSDJdW0NIMl1bQ0gyXVtDQEhdKFtOSDMrXSlDKD1PKVtOSF1bQ0BASF0oW0NAQEhdKFtDSDNdKVtDSDJdW0NIM10pQyg9TylbTkhdW0NAQEhdKFtDSDJdW09IXSlDKD1PKVtOSF1bQ0BASF0oW0NIM10pQyg9TylbTkhdW0NAQEhdKFtDSDJdQyg9TylbT0hdKUMoPU8pW05IXVtDQEBIXShbQ0gzXSlDKD1PKVtOSF1bQ0BASF0oW0NIMl1bQ0gyXVNbQ0gzXSlDKD1PKVtOSF1bQ0BASF0oW0NIMl1bQ0gyXVNbQ0gzXSlDKD1PKVtOSF1bQ0BASF0oW0NIMl1bQ0gyXUMoPU8pW05IMl0pQyg9TylbTkhdW0NAQEhdKFtDSDNdKUMoPU8pW05IXVtDQEBIXShbQ0gyXVtDSF0oW0NIM10pW0NIM10pQyg9TylbTkhdW0NAQEhdKFtDSDJdW0NIXShbQ0gzXSlbQ0gzXSlDKD1PKVtOSF1bQ0gyXUMoPU8pW05IXVtDQEBIXShbQ0gzXSlDKD1PKVtOSF1bQ0BASF0oW0NIMl1bQ0gyXVtDSDJdW05IXS9DKD1OXFtIXSlbTkgyXSlDKD1PKVtOSF1bQ0BASF0oW0NIM10pQyg9TylbTkhdW0NASF0oQyg9TylbT0hdKVtDSDJdW0NIMl1bQ0gyXVtDSDJdW05IMytd

> <s_epik_cmdline>
J2VwaWtfYXBwJywgJy1pbWFlJywgJ2xpZ2FuZF9wcm8ubWFlJywgJy1vbWFlJywgJ2xpZ2FuZF9wcmVwLm1hZScsICctbXMnLCAnMScsICctcGgnLCAnNycsICctcGh0JywgJzAuNScsICctbnQn

> <s_epik_pKa_notes>
Molecule size exceeds maximum supported for generating protonation states

> <s_epik_Chemistry_Notes>
This compound has an imine and may undergo hydrolysis.

$$$$
