1my2_ligand
                    3D
 Schrodinger Suite 2020-3.
 22 22  0  0  1  0            999 V2000
   48.4200   25.5000   43.0060 N   0  3  0  0  0  0
   47.3100   26.4980   43.1070 C   0  0  2  0  0  0
   47.0400   26.8210   44.6210 C   0  0  0  0  0  0
   46.0960   27.6400   44.8830 O   0  5  0  0  0  0
   47.7780   26.2460   45.4730 O   0  0  0  0  0  0
   46.0450   25.9320   42.4090 C   0  0  0  0  0  0
   46.2120   25.6560   40.9290 C   0  0  0  0  0  0
   46.0320   26.5640   39.8430 C   0  0  0  0  0  0
   46.6300   24.5450   40.2620 C   0  0  0  0  0  0
   47.0680   23.1780   40.6820 C   0  0  0  0  0  0
   45.6470   27.7980   40.1590 O   0  5  0  0  0  0
   46.2870   26.1470   38.6280 N   0  0  0  0  0  0
   46.6900   24.7850   38.9000 O   0  0  0  0  0  0
   49.3180   25.8991   43.5002 H   0  0  0  0  0  0
   48.6412   25.3036   41.9465 H   0  0  0  0  0  0
   48.1168   24.5635   43.4970 H   0  0  0  0  0  0
   47.6229   27.4117   42.5805 H   0  0  0  0  0  0
   45.7608   24.9799   42.8810 H   0  0  0  0  0  0
   45.2187   26.6513   42.5081 H   0  0  0  0  0  0
   46.9844   23.0859   41.7749 H   0  0  0  0  0  0
   48.1136   23.0189   40.3795 H   0  0  0  0  0  0
   46.4282   22.4239   40.2004 H   0  0  0  0  0  0
  1  2  1  0  0  0
  1 14  1  0  0  0
  1 15  1  0  0  0
  1 16  1  0  0  0
  2  3  1  0  0  0
  2  6  1  0  0  0
  2 17  1  0  0  0
  3  4  1  0  0  0
  3  5  2  0  0  0
  6  7  1  0  0  0
  6 18  1  0  0  0
  6 19  1  0  0  0
  7  8  1  0  0  0
  7  9  2  0  0  0
  8 11  1  0  0  0
  8 12  2  0  0  0
  9 10  1  0  0  0
  9 13  1  0  0  0
 10 20  1  0  0  0
 10 21  1  0  0  0
 10 22  1  0  0  0
 12 13  1  0  0  0
M  CHG  3   1   1   4  -1  11  -1
M  END
> <s_m_source_file>
../1my2_ligand.sdf

> <i_m_source_file_index>
1

> <s_epik_input>
W09IXUMoPU8pW0NAQEhdKFtOSDMrXSlbQ0gyXWMxYyhbT0hdKW5vYzFbQ0gzXQ==

> <s_epik_cmdline>
J2VwaWtfYXBwJywgJy1pbWFlJywgJ2xpZ2FuZF9wcm8ubWFlJywgJy1vbWFlJywgJ2xpZ2FuZF9wcmVwLm1hZScsICctbXMnLCAnMScsICctcGgnLCAnNycsICctcGh0JywgJzAuNScsICctbnQn

> <r_lp_tautomer_probability>
1

> <r_epik_Ionization_Penalty>
  0.0109

> <r_epik_Ionization_Penalty_Charging>
  0.0109

> <r_epik_Ionization_Penalty_Neutral>
  0.0000

> <r_epik_State_Penalty>
  0.0000

> <r_epik_Charging_Adjusted_Penalty>
0.0109608078861515

> <i_epik_Tot_Q>
-1

> <i_epik_Tot_abs_Q>
3

$$$$
