1my4_ligand
                    3D
 Schrodinger Suite 2020-3.
 23 23  0  0  1  0            999 V2000
   77.7800   26.8970   42.4860 N   0  0  0  0  0  0
   77.8930   25.6330   41.9020 C   0  0  0  0  0  0
   77.9750   24.6180   42.5330 O   0  0  0  0  0  0
   77.8640   25.6520   40.4920 N   0  0  0  0  0  0
   77.7610   26.7580   39.6760 C   0  0  0  0  0  0
   77.7620   26.6720   38.4710 O   0  0  0  0  0  0
   77.6260   28.0790   40.4410 C   0  0  0  0  0  0
   77.3390   29.9640   39.4640 I   0  0  0  0  0  0
   77.6270   28.0220   41.7730 C   0  0  0  0  0  0
   77.7150   27.0080   43.9230 C   0  0  0  0  0  0
   76.4170   26.4680   44.4430 C   0  0  2  0  0  0
   75.3110   27.4610   44.1640 N   0  3  0  0  0  0
   76.4300   26.1310   45.9150 C   0  0  0  0  0  0
   75.5960   26.6480   46.6090 O   0  0  0  0  0  0
   77.3860   25.3470   46.2810 O   0  5  0  0  0  0
   77.9272   24.7098   39.9278 H   0  0  0  0  0  0
   77.4942   28.9551   42.3205 H   0  0  0  0  0  0
   78.5409   26.4372   44.3726 H   0  0  0  0  0  0
   77.7996   28.0656   44.2133 H   0  0  0  0  0  0
   76.2545   25.5199   43.9095 H   0  0  0  0  0  0
   75.3009   27.7070   43.0919 H   0  0  0  0  0  0
   75.4842   28.3765   44.7486 H   0  0  0  0  0  0
   74.3435   27.0217   44.4485 H   0  0  0  0  0  0
  1  2  1  0  0  0
  1  9  1  0  0  0
  1 10  1  0  0  0
  2  3  2  0  0  0
  2  4  1  0  0  0
  4  5  1  0  0  0
  4 16  1  0  0  0
  5  6  2  0  0  0
  5  7  1  0  0  0
  7  8  1  0  0  0
  7  9  2  0  0  0
  9 17  1  0  0  0
 10 11  1  0  0  0
 10 18  1  0  0  0
 10 19  1  0  0  0
 11 12  1  0  0  0
 11 13  1  0  0  0
 11 20  1  0  0  0
 12 21  1  0  0  0
 12 22  1  0  0  0
 12 23  1  0  0  0
 13 14  2  0  0  0
 13 15  1  0  0  0
M  CHG  2  12   1  15  -1
M  END
> <s_m_source_file>
../1my4_ligand.sdf

> <i_m_source_file_index>
1

> <s_epik_input>
Tz1DKFtPSF0pW0NAQEhdKFtOSDMrXSlbQ0gyXW4xYyg9TylbbkhdYyg9TyljKEkpW2NIXTE=

> <s_epik_cmdline>
J2VwaWtfYXBwJywgJy1pbWFlJywgJ2xpZ2FuZF9wcm8ubWFlJywgJy1vbWFlJywgJ2xpZ2FuZF9wcmVwLm1hZScsICctbXMnLCAnMScsICctcGgnLCAnNycsICctcGh0JywgJzAuNScsICctbnQn

> <r_lp_tautomer_probability>
1

> <r_epik_Ionization_Penalty>
  0.1610

> <r_epik_Ionization_Penalty_Charging>
  0.1610

> <r_epik_Ionization_Penalty_Neutral>
  0.0000

> <r_epik_State_Penalty>
 -0.0000

> <r_epik_Charging_Adjusted_Penalty>
0.160991929374562

> <i_epik_Tot_Q>
0

> <i_epik_Tot_abs_Q>
2

$$$$
