1mzc_ligand
                    3D
 Schrodinger Suite 2020-3.
 69 72  0  0  1  0            999 V2000
   14.5970  135.5110   -4.6940 C   0  0  1  0  0  0
   14.4290  134.0330   -4.0840 C   0  0  0  0  0  0
   16.1330  135.9440   -4.9550 C   0  0  0  0  0  0
   13.6970  135.5740   -6.0210 C   0  0  0  0  0  0
   14.0150  136.6010   -3.6960 C   0  0  0  0  0  0
   15.5560  133.3530   -3.5590 C   0  0  0  0  0  0
   13.1740  133.3260   -4.0080 C   0  0  0  0  0  0
   16.9250  135.2990   -5.9540 N   0  0  0  0  0  0
   16.6390  136.8580   -4.2700 O   0  0  0  0  0  0
   13.9800  134.5780   -7.1700 C   0  0  0  0  0  0
   14.4070  136.4690   -2.2080 C   0  0  0  0  0  0
   15.4980  132.0440   -2.9810 C   0  0  0  0  0  0
   13.0950  132.0150   -3.4370 C   0  0  0  0  0  0
   16.4980  134.2450   -6.8830 C   0  0  0  0  0  0
   18.3160  135.7220   -6.1370 C   0  0  0  0  0  0
   15.3690  134.7030   -7.7990 C   0  0  0  0  0  0
   16.6820  131.4310   -2.4750 O   0  0  0  0  0  0
   14.2550  131.3730   -2.9240 C   0  0  0  0  0  0
   17.8320  132.2480   -2.3910 C   0  0  0  0  0  0
   18.8010  132.3610   -3.4460 C   0  0  0  0  0  0
   18.0070  132.9980   -1.1940 C   0  0  0  0  0  0
   19.9210  133.2120   -3.2750 C   0  0  0  0  0  0
   18.6250  131.7080   -4.7090 C   0  0  0  0  0  0
   19.1270  133.8700   -1.0090 C   0  0  0  0  0  0
   20.0830  133.9570   -2.0780 C   0  0  0  0  0  0
   18.4220  131.2060   -5.7280 N   0  0  0  0  0  0
   19.3220  134.6930    0.2930 C   0  0  2  0  0  0
   19.3080  133.8390    1.5610 C   0  0  0  0  0  0
   18.2190  135.7940    0.4250 C   0  0  0  0  0  0
   20.6330  135.3480    0.2530 N   0  0  0  0  0  0
   20.0940  132.7240    1.7930 N   0  0  0  0  0  0
   18.5490  133.9460    2.7280 C   0  0  0  0  0  0
   19.7520  132.2710    3.0230 C   0  0  0  0  0  0
   21.1080  132.0520    0.9940 C   0  0  0  0  0  0
   18.8250  132.9690    3.6430 N   0  3  0  0  0  0
   12.6434  135.3981   -5.7582 H   0  0  0  0  0  0
   13.7982  136.5658   -6.4860 H   0  0  0  0  0  0
   14.3567  137.6001   -4.0044 H   0  0  0  0  0  0
   12.9157  136.5670   -3.7164 H   0  0  0  0  0  0
   16.5227  133.8552   -3.5973 H   0  0  0  0  0  0
   12.2696  133.7980   -4.3920 H   0  0  0  0  0  0
   13.8943  133.5485   -6.7922 H   0  0  0  0  0  0
   13.2505  134.7338   -7.9784 H   0  0  0  0  0  0
   13.9396  137.2814   -1.6323 H   0  0  0  0  0  0
   15.5008  136.5323   -2.1100 H   0  0  0  0  0  0
   14.0598  135.4992   -1.8220 H   0  0  0  0  0  0
   12.1336  131.5031   -3.3952 H   0  0  0  0  0  0
   17.3480  133.9458   -7.5138 H   0  0  0  0  0  0
   16.1413  133.3752   -6.3118 H   0  0  0  0  0  0
   18.5587  136.5094   -5.4082 H   0  0  0  0  0  0
   18.4494  136.1124   -7.1567 H   0  0  0  0  0  0
   18.9841  134.8617   -5.9835 H   0  0  0  0  0  0
   15.4157  134.0881   -8.7099 H   0  0  0  0  0  0
   15.5616  135.7550   -8.0564 H   0  0  0  0  0  0
   14.1868  130.3747   -2.4916 H   0  0  0  0  0  0
   17.2688  132.9059   -0.3973 H   0  0  0  0  0  0
   20.6636  133.2950   -4.0686 H   0  0  0  0  0  0
   20.9500  134.6082   -1.9674 H   0  0  0  0  0  0
   17.2278  135.3181    0.4564 H   0  0  0  0  0  0
   18.2728  136.4724   -0.4392 H   0  0  0  0  0  0
   18.3807  136.3658    1.3507 H   0  0  0  0  0  0
   21.4209  134.5860    0.1602 H   0  0  0  0  0  0
   20.6769  136.0280   -0.6105 H   0  0  0  0  0  0
   17.8102  134.7303    2.8928 H   0  0  0  0  0  0
   20.2129  131.3893    3.4682 H   0  0  0  0  0  0
   21.2301  132.5802    0.0369 H   0  0  0  0  0  0
   20.7963  131.0145    0.8031 H   0  0  0  0  0  0
   22.0640  132.0534    1.5382 H   0  0  0  0  0  0
   18.2906  132.9489    4.6043 H   0  0  0  0  0  0
  1  2  1  0  0  0
  1  3  1  0  0  0
  1  4  1  0  0  0
  1  5  1  0  0  0
  2  6  2  0  0  0
  2  7  1  0  0  0
  3  8  1  0  0  0
  3  9  2  0  0  0
  4 10  1  0  0  0
  4 36  1  0  0  0
  4 37  1  0  0  0
  5 11  1  0  0  0
  5 38  1  0  0  0
  5 39  1  0  0  0
  6 12  1  0  0  0
  6 40  1  0  0  0
  7 13  2  0  0  0
  7 41  1  0  0  0
  8 14  1  0  0  0
  8 15  1  0  0  0
 10 16  1  0  0  0
 10 42  1  0  0  0
 10 43  1  0  0  0
 11 44  1  0  0  0
 11 45  1  0  0  0
 11 46  1  0  0  0
 12 17  1  0  0  0
 12 18  2  0  0  0
 13 18  1  0  0  0
 13 47  1  0  0  0
 14 16  1  0  0  0
 14 48  1  0  0  0
 14 49  1  0  0  0
 15 50  1  0  0  0
 15 51  1  0  0  0
 15 52  1  0  0  0
 16 53  1  0  0  0
 16 54  1  0  0  0
 17 19  1  0  0  0
 18 55  1  0  0  0
 19 20  2  0  0  0
 19 21  1  0  0  0
 20 22  1  0  0  0
 20 23  1  0  0  0
 21 24  2  0  0  0
 21 56  1  0  0  0
 22 25  2  0  0  0
 22 57  1  0  0  0
 23 26  3  0  0  0
 24 25  1  0  0  0
 24 27  1  0  0  0
 25 58  1  0  0  0
 27 28  1  0  0  0
 27 29  1  0  0  0
 27 30  1  0  0  0
 28 31  1  0  0  0
 28 32  2  0  0  0
 29 59  1  0  0  0
 29 60  1  0  0  0
 29 61  1  0  0  0
 30 62  1  0  0  0
 30 63  1  0  0  0
 31 33  1  0  0  0
 31 34  1  0  0  0
 32 35  1  0  0  0
 32 64  1  0  0  0
 33 35  2  0  0  0
 33 65  1  0  0  0
 34 66  1  0  0  0
 34 67  1  0  0  0
 34 68  1  0  0  0
 35 69  1  0  0  0
M  CHG  1  35   1
M  END
> <s_m_source_file>
../1mzc_ligand.sdf

> <i_m_source_file_index>
1

> <s_epik_input>
W0NIMl0xW0NIMl1bQ0gyXVtDSDJdTihbQ0gzXSlDKD1PKVtDQF0xKFtDSDJdW0NIM10pYzJbY0hdYyhbY0hdW2NIXVtjSF0yKU9jM2MoQyNOKVtjSF1bY0hdYyhbY0hdMylbQ0BdKFtDSDNdKShbTkgzK10pYzRuKFtDSDNdKVtjSF1uW2NIXTQ=

> <s_epik_cmdline>
J2VwaWtfYXBwJywgJy1pbWFlJywgJ2xpZ2FuZF9wcm8ubWFlJywgJy1vbWFlJywgJ2xpZ2FuZF9wcmVwLm1hZScsICctbXMnLCAnMScsICctcGgnLCAnNycsICctcGh0JywgJzAuNScsICctbnQn

> <r_lp_tautomer_probability>
1

> <r_epik_Ionization_Penalty>
  0.2994

> <r_epik_Ionization_Penalty_Charging>
  0.0000

> <r_epik_Ionization_Penalty_Neutral>
  0.2994

> <r_epik_State_Penalty>
 -0.0000

> <r_epik_Charging_Adjusted_Penalty>
0

> <i_epik_Tot_Q>
1

> <i_epik_Tot_abs_Q>
1

$$$$
