1n1g_ligand
                    3D
 Schrodinger Suite 2020-3.
 13 14  0  0  1  0            999 V2000
   33.0560   56.2780   31.8530 Cl  0  0  0  0  0  0
   33.9490   55.0030   30.9600 C   0  0  0  0  0  0
   35.2730   54.8720   31.1150 N   0  0  0  0  0  0
   35.9950   53.9290   30.4650 C   0  0  0  0  0  0
   37.8460   53.8920   30.8020 Br  0  0  0  0  0  0
   33.3180   54.0380   30.0200 C   0  0  0  0  0  0
   34.1690   53.0520   29.3640 C   0  0  0  0  0  0
   35.4830   53.0230   29.6010 N   0  0  0  0  0  0
   32.0630   53.8360   29.6040 N   0  0  0  0  0  0
   32.1180   52.7810   28.7280 C   0  0  0  0  0  0
   33.3920   52.3010   28.5790 N   0  3  0  0  0  0
   31.1991   52.4212   28.2419 H   0  0  0  0  0  0
   33.8334   51.4876   27.9844 H   0  0  0  0  0  0
  1  2  1  0  0  0
  2  3  2  0  0  0
  2  6  1  0  0  0
  3  4  1  0  0  0
  4  5  1  0  0  0
  4  8  2  0  0  0
  6  7  2  0  0  0
  6  9  1  0  0  0
  7  8  1  0  0  0
  7 11  1  0  0  0
  9 10  2  0  0  0
 10 11  1  0  0  0
 10 12  1  0  0  0
 11 13  1  0  0  0
M  CHG  1  11   1
M  END
> <s_m_source_file>
../1n1g_ligand.sdf

> <i_m_source_file_index>
1

> <s_epik_input>
Q2xjMW5jKEJyKW5jKGMxMilbbkhdW2NIXW4y

> <s_epik_cmdline>
J2VwaWtfYXBwJywgJy1pbWFlJywgJ2xpZ2FuZF9wcm8ubWFlJywgJy1vbWFlJywgJ2xpZ2FuZF9wcmVwLm1hZScsICctbXMnLCAnMScsICctcGgnLCAnNycsICctcGh0JywgJzAuNScsICctbnQn

> <r_epik_Ionization_Penalty>
  0.0004

> <r_epik_Ionization_Penalty_Charging>
  0.0000

> <r_epik_Ionization_Penalty_Neutral>
  0.0004

> <r_epik_State_Penalty>
  0.0060

> <r_epik_Charging_Adjusted_Penalty>
0.00598827633218193

> <i_epik_Tot_Q>
1

> <i_epik_Tot_abs_Q>
1

> <s_epik_Chemistry_Notes>
This compound has an imine and may undergo hydrolysis.

$$$$
