1n1t_ligand
                    3D
 Schrodinger Suite 2020-3.
 36 36  0  0  1  0            999 V2000
   26.7420   -4.0680    8.9050 C   0  0  0  0  0  0
   25.5060   -3.4670    8.5820 C   0  0  0  0  0  0
   25.3410   -2.0090    8.8180 C   0  0  0  0  0  0
   24.0660   -1.4590    8.1740 C   0  0  1  0  0  0
   22.9720   -2.4970    8.1340 C   0  0  2  0  0  0
   23.5070   -3.7170    7.3940 C   0  0  2  0  0  0
   22.4930   -4.8490    7.2510 C   0  0  1  0  0  0
   23.1030   -6.0910    6.6280 C   0  0  1  0  0  0
   22.0640   -7.2190    6.5530 C   0  0  0  0  0  0
   20.5810   -2.1270    7.8090 C   0  0  0  0  0  0
   19.4610   -1.3550    7.1540 C   0  0  0  0  0  0
   21.8370   -1.8570    7.4870 N   0  0  0  0  0  0
   27.6530   -3.4570    9.7230 O   0  5  0  0  0  0
   26.9930   -5.2630    8.4780 O   0  0  0  0  0  0
   23.6650   -0.2960    8.9060 O   0  0  0  0  0  0
   24.6210   -4.2480    8.1060 O   0  0  0  0  0  0
   21.9760   -5.2570    8.5200 O   0  0  0  0  0  0
   23.5510   -5.7960    5.3040 O   0  0  0  0  0  0
   20.9620   -6.9020    5.7290 O   0  0  0  0  0  0
   20.2520   -3.1040    8.7160 O   0  0  0  0  0  0
   26.0939   -1.4574    9.4001 H   0  0  0  0  0  0
   24.2365   -1.1296    7.1384 H   0  0  0  0  0  0
   22.6112   -2.8315    9.1178 H   0  0  0  0  0  0
   23.8373   -3.3806    6.4001 H   0  0  0  0  0  0
   21.6559   -4.4573    6.6544 H   0  0  0  0  0  0
   23.9913   -6.3935    7.2020 H   0  0  0  0  0  0
   22.5355   -8.1253    6.1452 H   0  0  0  0  0  0
   21.6772   -7.4288    7.5611 H   0  0  0  0  0  0
   19.8836   -0.6146    6.4589 H   0  0  0  0  0  0
   18.8713   -0.8386    7.9258 H   0  0  0  0  0  0
   18.8121   -2.0493    6.6001 H   0  0  0  0  0  0
   22.0035   -1.1136    6.6935 H   0  0  0  0  0  0
   24.3604    0.5485    9.0208 H   0  0  0  0  0  0
   21.4777   -4.5246    9.1721 H   0  0  0  0  0  0
   24.3031   -5.0102    5.1402 H   0  0  0  0  0  0
   20.1486   -7.6302    5.5941 H   0  0  0  0  0  0
  1  2  1  0  0  0
  1 13  1  0  0  0
  1 14  2  0  0  0
  2  3  2  0  0  0
  2 16  1  0  0  0
  3  4  1  0  0  0
  3 21  1  0  0  0
  4  5  1  0  0  0
  4 15  1  0  0  0
  4 22  1  0  0  0
  5  6  1  0  0  0
  5 12  1  0  0  0
  5 23  1  0  0  0
  6  7  1  0  0  0
  6 16  1  0  0  0
  6 24  1  0  0  0
  7  8  1  0  0  0
  7 17  1  0  0  0
  7 25  1  0  0  0
  8  9  1  0  0  0
  8 18  1  0  0  0
  8 26  1  0  0  0
  9 19  1  0  0  0
  9 27  1  0  0  0
  9 28  1  0  0  0
 10 11  1  0  0  0
 10 12  1  0  0  0
 10 20  2  0  0  0
 11 29  1  0  0  0
 11 30  1  0  0  0
 11 31  1  0  0  0
 12 32  1  0  0  0
 15 33  1  0  0  0
 17 34  1  0  0  0
 18 35  1  0  0  0
 19 36  1  0  0  0
M  CHG  1  13  -1
M  END
> <s_m_source_file>
../1n1t_ligand.sdf

> <i_m_source_file_index>
1

> <s_epik_input>
W09IXUMoPU8pQzE9W0NIXVtDQEhdKFtPSF0pW0NAQEhdKFtOSF1DKD1PKVtDSDNdKVtDQEBIXShPMSlbQ0BIXShbT0hdKVtDQEhdKFtPSF0pW0NIMl1bT0hd

> <s_epik_cmdline>
J2VwaWtfYXBwJywgJy1pbWFlJywgJ2xpZ2FuZF9wcm8ubWFlJywgJy1vbWFlJywgJ2xpZ2FuZF9wcmVwLm1hZScsICctbXMnLCAnMScsICctcGgnLCAnNycsICctcGh0JywgJzAuNScsICctbnQn

> <r_lp_tautomer_probability>
1

> <r_epik_Ionization_Penalty>
  0.0004

> <r_epik_Ionization_Penalty_Charging>
  0.0004

> <r_epik_Ionization_Penalty_Neutral>
  0.0000

> <r_epik_State_Penalty>
 -0.0000

> <r_epik_Charging_Adjusted_Penalty>
0.000352443490958098

> <i_epik_Tot_Q>
-1

> <i_epik_Tot_abs_Q>
1

$$$$
