1n1v_ligand
                    3D
 Schrodinger Suite 2020-3.
 36 36  0  0  1  0            999 V2000
   26.8420   -3.8040    9.4340 C   0  0  0  0  0  0
   25.6400   -3.2280    9.0500 C   0  0  0  0  0  0
   25.5100   -1.7360    9.2070 C   0  0  0  0  0  0
   24.1940   -1.1850    8.6640 C   0  0  1  0  0  0
   23.1210   -2.2640    8.6610 C   0  0  2  0  0  0
   23.6610   -3.4530    7.8730 C   0  0  2  0  0  0
   22.6000   -4.5430    7.6040 C   0  0  1  0  0  0
   23.1910   -5.8390    7.0610 C   0  0  1  0  0  0
   22.1020   -6.9120    6.9920 C   0  0  0  0  0  0
   20.7050   -2.0340    8.3240 C   0  0  0  0  0  0
   19.6530   -1.2250    7.6260 C   0  0  0  0  0  0
   21.9510   -1.6990    8.0310 N   0  0  0  0  0  0
   27.7030   -3.2040   10.3770 O   0  5  0  0  0  0
   27.1830   -4.9300    8.8970 O   0  0  0  0  0  0
   23.7650   -0.1170    9.4720 O   0  0  0  0  0  0
   24.7470   -4.0050    8.5960 O   0  0  0  0  0  0
   21.9250   -4.9030    8.7970 O   0  0  0  0  0  0
   23.6990   -5.6350    5.7710 O   0  0  0  0  0  0
   21.2780   -6.6720    5.8640 O   0  0  0  0  0  0
   20.3880   -3.0800    9.2060 O   0  0  0  0  0  0
   26.3211   -1.1596    9.6759 H   0  0  0  0  0  0
   24.3330   -0.7651    7.6568 H   0  0  0  0  0  0
   22.8068   -2.5867    9.6646 H   0  0  0  0  0  0
   24.0603   -3.1018    6.9101 H   0  0  0  0  0  0
   21.8618   -4.1153    6.9096 H   0  0  0  0  0  0
   24.0559   -6.1541    7.6632 H   0  0  0  0  0  0
   22.5695   -7.9036    6.9020 H   0  0  0  0  0  0
   21.4928   -6.8756    7.9072 H   0  0  0  0  0  0
   20.1347   -0.4675    6.9903 H   0  0  0  0  0  0
   19.0179   -0.7266    8.3732 H   0  0  0  0  0  0
   19.0347   -1.8875    7.0025 H   0  0  0  0  0  0
   22.0630   -0.9341    7.2485 H   0  0  0  0  0  0
   24.4071    0.7666    9.6022 H   0  0  0  0  0  0
   21.4061   -4.1345    9.3887 H   0  0  0  0  0  0
   24.4975   -4.8969    5.6047 H   0  0  0  0  0  0
   20.4341   -7.3432    5.6466 H   0  0  0  0  0  0
  1  2  1  0  0  0
  1 13  1  0  0  0
  1 14  2  0  0  0
  2  3  2  0  0  0
  2 16  1  0  0  0
  3  4  1  0  0  0
  3 21  1  0  0  0
  4  5  1  0  0  0
  4 15  1  0  0  0
  4 22  1  0  0  0
  5  6  1  0  0  0
  5 12  1  0  0  0
  5 23  1  0  0  0
  6  7  1  0  0  0
  6 16  1  0  0  0
  6 24  1  0  0  0
  7  8  1  0  0  0
  7 17  1  0  0  0
  7 25  1  0  0  0
  8  9  1  0  0  0
  8 18  1  0  0  0
  8 26  1  0  0  0
  9 19  1  0  0  0
  9 27  1  0  0  0
  9 28  1  0  0  0
 10 11  1  0  0  0
 10 12  1  0  0  0
 10 20  2  0  0  0
 11 29  1  0  0  0
 11 30  1  0  0  0
 11 31  1  0  0  0
 12 32  1  0  0  0
 15 33  1  0  0  0
 17 34  1  0  0  0
 18 35  1  0  0  0
 19 36  1  0  0  0
M  CHG  1  13  -1
M  END
> <s_m_source_file>
../1n1v_ligand.sdf

> <i_m_source_file_index>
1

> <s_epik_input>
W09IXUMoPU8pQzE9W0NIXVtDQEhdKFtPSF0pW0NAQEhdKFtOSF1DKD1PKVtDSDNdKVtDQEBIXShPMSlbQ0BIXShbT0hdKVtDQEhdKFtPSF0pW0NIMl1bT0hd

> <s_epik_cmdline>
J2VwaWtfYXBwJywgJy1pbWFlJywgJ2xpZ2FuZF9wcm8ubWFlJywgJy1vbWFlJywgJ2xpZ2FuZF9wcmVwLm1hZScsICctbXMnLCAnMScsICctcGgnLCAnNycsICctcGh0JywgJzAuNScsICctbnQn

> <r_lp_tautomer_probability>
1

> <r_epik_Ionization_Penalty>
  0.0004

> <r_epik_Ionization_Penalty_Charging>
  0.0004

> <r_epik_Ionization_Penalty_Neutral>
  0.0000

> <r_epik_State_Penalty>
 -0.0000

> <r_epik_Charging_Adjusted_Penalty>
0.000352443490958098

> <i_epik_Tot_Q>
-1

> <i_epik_Tot_abs_Q>
1

$$$$
