1n3i_ligand
                    3D
 Schrodinger Suite 2020-3.
 35 37  0  0  1  0            999 V2000
   54.7860   13.5760   44.0320 O   0  0  0  0  0  0
   54.9630   14.9140   44.4710 C   0  0  0  0  0  0
   56.2460   15.6180   44.7340 C   0  0  1  0  0  0
   57.0460   15.6340   43.5030 C   0  0  0  0  0  0
   56.0710   17.0320   45.1720 C   0  0  1  0  0  0
   56.9050   17.4660   46.2280 O   0  0  0  0  0  0
   56.2120   17.6320   43.8270 C   0  0  0  0  0  0
   57.3550   17.0200   43.2100 N   0  0  2  0  0  0
   57.5110   17.2290   41.7890 C   0  0  0  0  0  0
   56.6420   16.7970   40.6660 C   0  0  0  0  0  0
   56.7440   15.6870   39.8370 C   0  0  0  0  0  0
   55.8070   15.5800   38.9250 N   0  3  0  0  0  0
   54.9980   16.6890   39.1290 C   0  0  0  0  0  0
   53.7860   17.1310   38.4300 C   0  0  0  0  0  0
   53.2380   16.5700   37.4840 O   0  0  0  0  0  0
   53.2170   18.3510   38.9360 N   0  0  0  0  0  0
   53.7530   19.1040   40.0300 C   0  0  0  0  0  0
   54.9020   18.6860   40.6950 N   0  0  0  0  0  0
   55.4900   17.4660   40.2070 C   0  0  0  0  0  0
   53.7725   13.1780   43.8756 H   0  0  0  0  0  0
   54.5174   15.6024   43.7378 H   0  0  0  0  0  0
   54.4714   15.0481   45.4459 H   0  0  0  0  0  0
   56.7484   15.0636   45.5404 H   0  0  0  0  0  0
   57.9692   15.0563   43.6581 H   0  0  0  0  0  0
   56.4661   15.1853   42.6830 H   0  0  0  0  0  0
   55.1755   17.3279   45.7381 H   0  0  0  0  0  0
   56.8018   17.0212   47.2287 H   0  0  0  0  0  0
   55.3025   17.4350   43.2405 H   0  0  0  0  0  0
   56.3581   18.7180   43.9234 H   0  0  0  0  0  0
   57.5297   18.3082   41.5770 H   0  0  0  0  0  0
   58.4537   16.7729   41.4526 H   0  0  0  0  0  0
   57.5701   14.9734   39.9725 H   0  0  0  0  0  0
   52.3074   18.7655   38.4769 H   0  0  0  0  0  0
   53.2530   20.0192   40.3469 H   0  0  0  0  0  0
   55.8127   14.7292   38.2278 H   0  0  0  0  0  0
  1  2  1  0  0  0
  1 20  1  0  0  0
  2  3  1  0  0  0
  2 21  1  0  0  0
  2 22  1  0  0  0
  3  4  1  0  0  0
  3  5  1  0  0  0
  3 23  1  0  0  0
  4  8  1  0  0  0
  4 24  1  0  0  0
  4 25  1  0  0  0
  5  6  1  0  0  0
  5  7  1  0  0  0
  5 26  1  0  0  0
  6 27  1  0  0  0
  7  8  1  0  0  0
  7 28  1  0  0  0
  7 29  1  0  0  0
  8  9  1  0  0  0
  9 10  1  0  0  0
  9 30  1  0  0  0
  9 31  1  0  0  0
 10 11  2  0  0  0
 10 19  1  0  0  0
 11 12  1  0  0  0
 11 32  1  0  0  0
 12 13  1  0  0  0
 12 35  1  0  0  0
 13 14  1  0  0  0
 13 19  2  0  0  0
 14 15  2  0  0  0
 14 16  1  0  0  0
 16 17  1  0  0  0
 16 33  1  0  0  0
 17 18  2  0  0  0
 17 34  1  0  0  0
 18 19  1  0  0  0
M  CHG  1  12   1
M  END
> <s_m_source_file>
../1n3i_ligand.sdf

> <i_m_source_file_index>
1

> <s_epik_input>
W09IXVtDSDJdW0NASF0xW0NIMl1bTkBIK10oW0NIMl1bQ0BASF0xW09IXSlbQ0gyXWMoW2NIXVtuSF0yKWMoYzIzKW5bY0hdW25IXWMzPU8=

> <s_epik_cmdline>
J2VwaWtfYXBwJywgJy1pbWFlJywgJ2xpZ2FuZF9wcm8ubWFlJywgJy1vbWFlJywgJ2xpZ2FuZF9wcmVwLm1hZScsICctbXMnLCAnMScsICctcGgnLCAnNycsICctcGh0JywgJzAuNScsICctbnQn

> <r_epik_Ionization_Penalty>
  0.2787

> <r_epik_Ionization_Penalty_Charging>
  0.0000

> <r_epik_Ionization_Penalty_Neutral>
  0.2787

> <r_epik_State_Penalty>
  0.2711

> <r_epik_Charging_Adjusted_Penalty>
0.271117166616451

> <i_epik_Tot_Q>
1

> <i_epik_Tot_abs_Q>
1

$$$$
