1n3w_ligand
                    3D
 Schrodinger Suite 2020-3.
 45 46  0  0  1  0            999 V2000
  113.0970   31.5320   22.6810 C   0  0  1  0  0  0
  113.9960   30.4370   22.0870 C   0  0  1  0  0  0
  115.4480   30.9430   22.1000 C   0  0  2  0  0  0
  115.5440   32.2230   21.2760 C   0  0  1  0  0  0
  114.5600   33.2570   21.8170 C   0  0  1  0  0  0
  114.5100   34.4890   20.9370 C   0  0  0  0  0  0
  113.4690   31.7870   24.0220 O   0  0  0  0  0  0
  113.8760   29.2370   22.8370 O   0  0  0  0  0  0
  116.3250   29.9670   21.5730 O   0  0  0  0  0  0
  116.8630   32.7370   21.3430 O   0  0  0  0  0  0
  113.2210   32.6980   21.8660 O   0  0  0  0  0  0
  113.8560   35.5660   21.5940 O   0  0  0  0  0  0
  111.8420   31.5770   27.8970 C   0  0  1  0  0  0
  111.5170   30.4090   26.9570 C   0  0  1  0  0  0
  112.4320   30.4220   25.7250 C   0  0  2  0  0  0
  112.4390   31.7840   25.0380 C   0  0  1  0  0  0
  112.7400   32.8800   26.0840 C   0  0  1  0  0  0
  112.6580   34.2900   25.5140 C   0  0  0  0  0  0
  113.1140   31.4280   28.4040 O   0  0  0  0  0  0
  111.6790   29.1820   27.6570 O   0  0  0  0  0  0
  112.0080   29.4350   24.7980 O   0  0  0  0  0  0
  111.7960   32.8180   27.1870 O   0  0  0  0  0  0
  113.4460   35.2010   26.2730 O   0  0  0  0  0  0
  112.0271   31.2820   22.7332 H   0  0  0  0  0  0
  113.6741   30.1389   21.0783 H   0  0  0  0  0  0
  115.8090   31.0952   23.1279 H   0  0  0  0  0  0
  115.3659   32.0233   20.2090 H   0  0  0  0  0  0
  114.8620   33.5262   22.8399 H   0  0  0  0  0  0
  115.5342   34.8021   20.6860 H   0  0  0  0  0  0
  113.9605   34.2573   20.0126 H   0  0  0  0  0  0
  112.8984   28.7412   22.9288 H   0  0  0  0  0  0
  116.3896   28.9745   22.0429 H   0  0  0  0  0  0
  117.7093   32.1271   20.9942 H   0  0  0  0  0  0
  113.7399   36.5331   21.0828 H   0  0  0  0  0  0
  111.1620   31.6344   28.7597 H   0  0  0  0  0  0
  110.4613   30.4436   26.6498 H   0  0  0  0  0  0
  113.4550   30.1440   26.0184 H   0  0  0  0  0  0
  111.4862   31.9733   24.5220 H   0  0  0  0  0  0
  113.7503   32.6881   26.4746 H   0  0  0  0  0  0
  113.0259   34.2884   24.4774 H   0  0  0  0  0  0
  111.6128   34.6324   25.5316 H   0  0  0  0  0  0
  113.3711   30.5335   28.9903 H   0  0  0  0  0  0
  111.1004   28.9907   28.5728 H   0  0  0  0  0  0
  111.9379   28.3822   25.1091 H   0  0  0  0  0  0
  113.4899   36.2619   25.9857 H   0  0  0  0  0  0
  1  2  1  0  0  0
  1  7  1  0  0  0
  1 11  1  0  0  0
  1 24  1  0  0  0
  2  3  1  0  0  0
  2  8  1  0  0  0
  2 25  1  0  0  0
  3  4  1  0  0  0
  3  9  1  0  0  0
  3 26  1  0  0  0
  4  5  1  0  0  0
  4 10  1  0  0  0
  4 27  1  0  0  0
  5  6  1  0  0  0
  5 11  1  0  0  0
  5 28  1  0  0  0
  6 12  1  0  0  0
  6 29  1  0  0  0
  6 30  1  0  0  0
  7 16  1  0  0  0
  8 31  1  0  0  0
  9 32  1  0  0  0
 10 33  1  0  0  0
 12 34  1  0  0  0
 13 14  1  0  0  0
 13 19  1  0  0  0
 13 22  1  0  0  0
 13 35  1  0  0  0
 14 15  1  0  0  0
 14 20  1  0  0  0
 14 36  1  0  0  0
 15 16  1  0  0  0
 15 21  1  0  0  0
 15 37  1  0  0  0
 16 17  1  0  0  0
 16 38  1  0  0  0
 17 18  1  0  0  0
 17 22  1  0  0  0
 17 39  1  0  0  0
 18 23  1  0  0  0
 18 40  1  0  0  0
 18 41  1  0  0  0
 19 42  1  0  0  0
 20 43  1  0  0  0
 21 44  1  0  0  0
 23 45  1  0  0  0
M  END
> <s_m_source_file>
../1n3w_ligand.sdf

> <i_m_source_file_index>
1

> <s_epik_input>
W09IXVtDQEBIXTFbQ0BIXShbT0hdKVtDQEBIXShbT0hdKVtDQEBIXShbQ0BIXShPMSlbQ0gyXVtPSF0pT1tDQEBIXTJbQ0BIXShbT0hdKVtDQEBIXShbT0hdKVtDQEhdKFtPSF0pW0NASF0oTzIpW0NIMl1bT0hd

> <s_epik_cmdline>
J2VwaWtfYXBwJywgJy1pbWFlJywgJ2xpZ2FuZF9wcm8ubWFlJywgJy1vbWFlJywgJ2xpZ2FuZF9wcmVwLm1hZScsICctbXMnLCAnMScsICctcGgnLCAnNycsICctcGh0JywgJzAuNScsICctbnQn

> <r_lp_tautomer_probability>
1

> <r_epik_Ionization_Penalty>
  0.0000

> <r_epik_Ionization_Penalty_Charging>
  0.0000

> <r_epik_Ionization_Penalty_Neutral>
  0.0000

> <r_epik_State_Penalty>
 -0.0000

> <r_epik_Charging_Adjusted_Penalty>
0

> <i_epik_Tot_Q>
0

> <i_epik_Tot_abs_Q>
0

> <s_epik_Chemistry_Notes>
This compound contains an acetal/aminal-like group ( X-CH(R)-Y where X, Y are N, S, or O) that may be acid/base labile, releasing an aldehyde.

$$$$
