1n43_ligand
                    3D
 Schrodinger Suite 2020-3.
 31 32  0  0  1  0            999 V2000
    6.4620  -16.3600   24.7060 C   0  0  0  0  0  0
    5.9640  -15.2510   25.0220 O   0  0  0  0  0  0
    5.9560  -17.0760   23.8040 O   0  5  0  0  0  0
    7.6700  -16.7890   25.4510 C   0  0  0  0  0  0
    8.5460  -15.6250   25.9020 C   0  0  0  0  0  0
    8.9690  -14.7510   24.7220 C   0  0  0  0  0  0
   10.1490  -13.8000   25.0530 C   0  0  0  0  0  0
   10.7860  -13.0660   23.8940 C   0  0  2  0  0  0
   11.9910  -14.0020   22.8870 S   0  0  0  0  0  0
   12.3740  -12.4820   21.9520 C   0  0  0  0  0  0
   12.4060  -11.3560   22.9710 C   0  0  2  0  0  0
   13.6860  -11.1820   23.6210 N   0  0  0  0  0  0
   13.6230  -11.4040   24.9380 C   0  0  0  0  0  0
   14.5770  -11.3060   25.7460 O   0  0  0  0  0  0
   12.3540  -11.7180   25.2760 N   0  0  0  0  0  0
   11.4590  -11.7300   24.1320 C   0  0  2  0  0  0
    7.3677  -17.3441   26.3513 H   0  0  0  0  0  0
    8.2852  -17.4374   24.8098 H   0  0  0  0  0  0
    7.9874  -15.0004   26.6147 H   0  0  0  0  0  0
    9.4523  -16.0151   26.3883 H   0  0  0  0  0  0
    9.2853  -15.3919   23.8859 H   0  0  0  0  0  0
    8.1203  -14.1271   24.4050 H   0  0  0  0  0  0
    9.8059  -13.0173   25.7456 H   0  0  0  0  0  0
   10.9620  -14.3738   25.5219 H   0  0  0  0  0  0
    9.7696  -12.7924   23.5746 H   0  0  0  0  0  0
   13.3485  -12.5935   21.4542 H   0  0  0  0  0  0
   11.5936  -12.3101   21.1960 H   0  0  0  0  0  0
   12.1956  -10.4291   22.4174 H   0  0  0  0  0  0
   14.5689  -10.8975   23.0298 H   0  0  0  0  0  0
   11.9673  -11.9501   26.2793 H   0  0  0  0  0  0
   10.6173  -11.0460   24.3156 H   0  0  0  0  0  0
  1  2  2  0  0  0
  1  3  1  0  0  0
  1  4  1  0  0  0
  4  5  1  0  0  0
  4 17  1  0  0  0
  4 18  1  0  0  0
  5  6  1  0  0  0
  5 19  1  0  0  0
  5 20  1  0  0  0
  6  7  1  0  0  0
  6 21  1  0  0  0
  6 22  1  0  0  0
  7  8  1  0  0  0
  7 23  1  0  0  0
  7 24  1  0  0  0
  8  9  1  0  0  0
  8 16  1  0  0  0
  8 25  1  0  0  0
  9 10  1  0  0  0
 10 11  1  0  0  0
 10 26  1  0  0  0
 10 27  1  0  0  0
 11 12  1  0  0  0
 11 16  1  0  0  0
 11 28  1  0  0  0
 12 13  1  0  0  0
 12 29  1  0  0  0
 13 14  2  0  0  0
 13 15  1  0  0  0
 15 16  1  0  0  0
 15 30  1  0  0  0
 16 31  1  0  0  0
M  CHG  1   3  -1
M  END
> <s_m_source_file>
../1n43_ligand.sdf

> <i_m_source_file_index>
1

> <s_epik_input>
Tz1DKFtPSF0pW0NIMl1bQ0gyXVtDSDJdW0NIMl1bQ0BIXShTW0NIMl0xKVtDQEhdKFtDQEhdMTIpW05IXUMoPU8pW05IXTI=

> <s_epik_cmdline>
J2VwaWtfYXBwJywgJy1pbWFlJywgJ2xpZ2FuZF9wcm8ubWFlJywgJy1vbWFlJywgJ2xpZ2FuZF9wcmVwLm1hZScsICctbXMnLCAnMScsICctcGgnLCAnNycsICctcGh0JywgJzAuNScsICctbnQn

> <r_lp_tautomer_probability>
1

> <r_epik_Ionization_Penalty>
  0.0045

> <r_epik_Ionization_Penalty_Charging>
  0.0044

> <r_epik_Ionization_Penalty_Neutral>
  0.0000

> <r_epik_State_Penalty>
 -0.0000

> <r_epik_Charging_Adjusted_Penalty>
0.00443833021372702

> <i_epik_Tot_Q>
-1

> <i_epik_Tot_abs_Q>
1

$$$$
