1n4h_ligand
                    3D
 Schrodinger Suite 2020-3.
 49 49  0  0  1  0            999 V2000
   22.6760   32.3860    7.5850 C   0  0  0  0  0  0
   21.9060   33.5740    6.8750 C   0  0  0  0  0  0
   21.6370   33.4550    5.3740 C   0  0  0  0  0  0
   22.7900   32.9260    4.5060 C   0  0  0  0  0  0
   23.8910   32.0960    5.2550 C   0  0  0  0  0  0
   23.8620   31.8350    6.6380 C   0  0  0  0  0  0
   24.9190   31.0450    7.3340 C   0  0  0  0  0  0
   25.0460   29.7100    7.5730 C   0  0  0  0  0  0
   26.0800   29.0940    8.3970 C   0  0  0  0  0  0
   26.0660   27.7250    8.5310 C   0  0  0  0  0  0
   27.0510   27.0180    9.3290 C   0  0  0  0  0  0
   27.0700   25.6940    9.4400 C   0  0  0  0  0  0
   28.0570   24.9770   10.2420 C   0  0  0  0  0  0
   27.9510   23.6260   10.2240 C   0  0  0  0  0  0
   28.7050   22.5640   10.8700 C   0  0  0  0  0  0
   21.6500   31.2540    7.8880 C   0  0  0  0  0  0
   23.2350   32.9900    8.9100 C   0  0  0  0  0  0
   24.9480   31.6510    4.2340 C   0  0  0  0  0  0
   27.1570   29.9910    9.0840 C   0  0  0  0  0  0
   29.1590   25.7760   11.0430 C   0  0  0  0  0  0
   28.3770   21.4240   10.6260 O   0  0  0  0  0  0
   29.6410   22.7790   11.6280 O   0  5  0  0  0  0
   20.9146   33.6956    7.3358 H   0  0  0  0  0  0
   22.4808   34.5047    6.9909 H   0  0  0  0  0  0
   20.7961   32.7662    5.2057 H   0  0  0  0  0  0
   21.3867   34.4457    4.9667 H   0  0  0  0  0  0
   22.3873   32.2640    3.7253 H   0  0  0  0  0  0
   23.3128   33.7718    4.0357 H   0  0  0  0  0  0
   25.6940   31.7426    7.6843 H   0  0  0  0  0  0
   24.3320   29.0012    7.1281 H   0  0  0  0  0  0
   25.2912   27.1307    8.0245 H   0  0  0  0  0  0
   27.8030   27.6248    9.8546 H   0  0  0  0  0  0
   26.3187   25.0871    8.9136 H   0  0  0  0  0  0
   27.1633   23.1440    9.6263 H   0  0  0  0  0  0
   21.2685   30.8421    6.9421 H   0  0  0  0  0  0
   20.8137   31.6641    8.4731 H   0  0  0  0  0  0
   22.1433   30.4563    8.4628 H   0  0  0  0  0  0
   23.9565   33.7862    8.6743 H   0  0  0  0  0  0
   23.7361   32.2010    9.4899 H   0  0  0  0  0  0
   22.4066   33.4088    9.5002 H   0  0  0  0  0  0
   24.6725   32.0219    3.2357 H   0  0  0  0  0  0
   25.0002   30.5524    4.2155 H   0  0  0  0  0  0
   25.9285   32.0599    4.5194 H   0  0  0  0  0  0
   26.9681   31.0459    8.8359 H   0  0  0  0  0  0
   28.1565   29.7033    8.7258 H   0  0  0  0  0  0
   27.1053   29.8559   10.1744 H   0  0  0  0  0  0
   29.0169   26.8553   10.8849 H   0  0  0  0  0  0
   30.1571   25.4815   10.6865 H   0  0  0  0  0  0
   29.0705   25.5477   12.1154 H   0  0  0  0  0  0
  1  2  1  0  0  0
  1  6  1  0  0  0
  1 16  1  0  0  0
  1 17  1  0  0  0
  2  3  1  0  0  0
  2 23  1  0  0  0
  2 24  1  0  0  0
  3  4  1  0  0  0
  3 25  1  0  0  0
  3 26  1  0  0  0
  4  5  1  0  0  0
  4 27  1  0  0  0
  4 28  1  0  0  0
  5  6  2  0  0  0
  5 18  1  0  0  0
  6  7  1  0  0  0
  7  8  2  0  0  0
  7 29  1  0  0  0
  8  9  1  0  0  0
  8 30  1  0  0  0
  9 10  2  0  0  0
  9 19  1  0  0  0
 10 11  1  0  0  0
 10 31  1  0  0  0
 11 12  2  0  0  0
 11 32  1  0  0  0
 12 13  1  0  0  0
 12 33  1  0  0  0
 13 14  2  0  0  0
 13 20  1  0  0  0
 14 15  1  0  0  0
 14 34  1  0  0  0
 15 21  2  0  0  0
 15 22  1  0  0  0
 16 35  1  0  0  0
 16 36  1  0  0  0
 16 37  1  0  0  0
 17 38  1  0  0  0
 17 39  1  0  0  0
 17 40  1  0  0  0
 18 41  1  0  0  0
 18 42  1  0  0  0
 18 43  1  0  0  0
 19 44  1  0  0  0
 19 45  1  0  0  0
 19 46  1  0  0  0
 20 47  1  0  0  0
 20 48  1  0  0  0
 20 49  1  0  0  0
M  CHG  1  22  -1
M  END
> <s_m_source_file>
../1n4h_ligand.sdf

> <i_m_source_file_index>
1

> <s_epik_input>
W0NIM11DMShbQ0gzXSlbQ0gyXVtDSDJdW0NIMl1DKFtDSDNdKT1DMS9bQ0hdPVtDSF0vQyhbQ0gzXSk9W0NIXS9bQ0hdPVtDSF0vQyhbQ0gzXSk9W0NIXS9DKD1PKVtPSF0=

> <s_epik_cmdline>
J2VwaWtfYXBwJywgJy1pbWFlJywgJ2xpZ2FuZF9wcm8ubWFlJywgJy1vbWFlJywgJ2xpZ2FuZF9wcmVwLm1hZScsICctbXMnLCAnMScsICctcGgnLCAnNycsICctcGh0JywgJzAuNScsICctbnQn

> <r_lp_tautomer_probability>
1

> <r_epik_Ionization_Penalty>
  0.0057

> <r_epik_Ionization_Penalty_Charging>
  0.0057

> <r_epik_Ionization_Penalty_Neutral>
  0.0000

> <r_epik_State_Penalty>
 -0.0000

> <r_epik_Charging_Adjusted_Penalty>
0.00570698066260046

> <i_epik_Tot_Q>
-1

> <i_epik_Tot_abs_Q>
1

$$$$
