1n4k_ligand
                    3D
 Schrodinger Suite 2020-3.
 33 33  0  0  1  0            999 V2000
   23.1630   -2.1100   10.2630 C   0  0  2  0  0  0
   22.5710   -3.4900   10.6800 C   0  0  1  0  0  0
   22.9430   -3.8020   12.1310 C   0  0  1  0  0  0
   22.3860   -2.6940   13.0500 C   0  0  2  0  0  0
   22.9670   -1.3280   12.6370 C   0  0  1  0  0  0
   22.6040   -0.9950   11.1750 C   0  0  1  0  0  0
   22.8100   -1.7080    8.8800 O   0  0  0  0  0  0
   21.1440   -3.4870   10.5450 O   0  0  0  0  0  0
   22.3880   -5.0460   12.4990 O   0  0  0  0  0  0
   22.7500   -3.0220   14.4480 O   0  0  0  0  0  0
   22.4040   -0.2860   13.5190 O   0  0  0  0  0  0
   23.1590    0.2590   10.7890 O   0  0  0  0  0  0
   23.6820   -2.0580    7.5940 P   0  0  0  0  0  0
   22.9530   -1.4340    6.4570 O   0  5  0  0  0  0
   23.7090   -3.5430    7.5680 O   0  5  0  0  0  0
   24.9660   -1.4700    7.9690 O   0  0  0  0  0  0
   21.7740   -3.5700   15.5870 P   0  0  0  0  0  0
   20.7220   -2.5200   15.5470 O   0  5  0  0  0  0
   21.3360   -4.8620   15.0640 O   0  0  0  0  0  0
   22.5570   -3.6840   16.8440 O   0  5  0  0  0  0
   23.1580    0.9460   14.2040 P   0  0  0  0  0  0
   22.0260    1.5670   14.9390 O   0  5  0  0  0  0
   24.2190    0.3100   15.0370 O   0  5  0  0  0  0
   23.6350    1.6890   13.0430 O   0  0  0  0  0  0
   24.2578   -2.2097   10.3023 H   0  0  0  0  0  0
   22.9168   -4.2898   10.0086 H   0  0  0  0  0  0
   24.0288   -3.9308   12.2510 H   0  0  0  0  0  0
   21.2883   -2.6428   13.0018 H   0  0  0  0  0  0
   24.0603   -1.3345   12.7582 H   0  0  0  0  0  0
   21.5199   -0.8526   11.0546 H   0  0  0  0  0  0
   20.6845   -3.2806    9.5671 H   0  0  0  0  0  0
   22.6701   -5.9576   11.9518 H   0  0  0  0  0  0
   22.9925    0.6446    9.7723 H   0  0  0  0  0  0
  1  7  1  0  0  0
  1  6  1  0  0  0
  1  2  1  0  0  0
  1 25  1  0  0  0
  2  8  1  0  0  0
  2  3  1  0  0  0
  2 26  1  0  0  0
  3  9  1  0  0  0
  3  4  1  0  0  0
  3 27  1  0  0  0
  4 10  1  0  0  0
  4  5  1  0  0  0
  4 28  1  0  0  0
  5 11  1  0  0  0
  5  6  1  0  0  0
  5 29  1  0  0  0
  6 12  1  0  0  0
  6 30  1  0  0  0
  7 13  1  0  0  0
  8 31  1  0  0  0
  9 32  1  0  0  0
 10 17  1  0  0  0
 11 21  1  0  0  0
 12 33  1  0  0  0
 13 16  2  0  0  0
 13 15  1  0  0  0
 13 14  1  0  0  0
 17 20  1  0  0  0
 17 19  2  0  0  0
 17 18  1  0  0  0
 21 24  2  0  0  0
 21 23  1  0  0  0
 21 22  1  0  0  0
M  CHG  6  14  -1  15  -1  18  -1  20  -1  22  -1  23  -1
M  END
> <s_m_source_file>
../1n4k_ligand.sdf

> <i_m_source_file_index>
1

> <s_epik_input>
W09IXVAoPU8pKFtPSF0pT1tDQEBIXTFbQ0BIXShbT0hdKVtDQEhdKFtPSF0pW0NAQEhdKE9QKD1PKShbT0hdKVtPSF0pW0NAQEhdKFtDQEhdMVtPSF0pT1AoPU8pKFtPSF0pW09IXQ==

> <s_epik_cmdline>
J2VwaWtfYXBwJywgJy1pbWFlJywgJ2xpZ2FuZF9wcm8ubWFlJywgJy1vbWFlJywgJ2xpZ2FuZF9wcmVwLm1hZScsICctbXMnLCAnMScsICctcGgnLCAnNycsICctcGh0JywgJzAuNScsICctbnQn

> <r_epik_Ionization_Penalty>
  0.3504

> <r_epik_Ionization_Penalty_Charging>
  0.3504

> <r_epik_Ionization_Penalty_Neutral>
  0.0000

> <r_epik_State_Penalty>
  0.1957

> <r_epik_Charging_Adjusted_Penalty>
0.546048514123987

> <i_epik_Tot_Q>
-6

> <i_epik_Tot_abs_Q>
6

$$$$
