1n4m_ligand
                    3D
 Schrodinger Suite 2020-3.
270273  0  0  1  0            999 V2000
   -7.0680    7.2190  -15.5900 N   0  3  0  0  0  0
   -6.0740    6.4980  -14.7330 C   0  0  2  0  0  0
   -6.7410    5.3900  -13.9100 C   0  0  0  0  0  0
   -7.8950    5.5220  -13.4980 O   0  0  0  0  0  0
   -5.3860    7.4940  -13.8060 C   0  0  0  0  0  0
   -4.3860    6.8380  -12.8960 C   0  0  0  0  0  0
   -4.7850    5.9600  -12.1090 O   0  0  0  0  0  0
   -3.1980    7.2000  -12.9660 O   0  0  0  0  0  0
   -6.0060    4.3120  -13.6520 N   0  0  0  0  0  0
   -6.5440    3.1720  -12.9060 C   0  0  2  0  0  0
   -6.8010    3.3560  -11.4040 C   0  0  0  0  0  0
   -7.4910    2.5380  -10.7920 O   0  0  0  0  0  0
   -5.6460    1.9400  -13.1170 C   0  0  0  0  0  0
   -4.2080    2.1540  -12.6380 C   0  0  0  0  0  0
   -3.3550    1.2920  -12.9400 O   0  0  0  0  0  0
   -3.9260    3.1690  -11.9620 O   0  0  0  0  0  0
   -6.2730    4.4250  -10.8110 N   0  0  0  0  0  0
   -6.4400    4.6710   -9.3760 C   0  0  2  0  0  0
   -7.8730    4.6630   -8.8580 C   0  0  0  0  0  0
   -8.7790    5.2680   -9.4450 O   0  0  0  0  0  0
   -5.8070    5.9960   -8.9750 C   0  0  0  0  0  0
   -5.6690    6.1700   -7.4810 C   0  0  0  0  0  0
   -4.7640    5.3900   -6.7530 C   0  0  0  0  0  0
   -6.3980    7.1530   -6.7980 C   0  0  0  0  0  0
   -4.5730    5.5880   -5.3860 C   0  0  0  0  0  0
   -6.2190    7.3630   -5.4190 C   0  0  0  0  0  0
   -5.2980    6.5780   -4.7210 C   0  0  0  0  0  0
   -5.0730    6.7940   -3.3740 O   0  0  0  0  0  0
   -8.0560    3.9850   -7.7310 N   0  0  0  0  0  0
   -9.3570    3.8840   -7.1060 C   0  0  2  0  0  0
   -9.4920    4.8050   -5.9050 C   0  0  0  0  0  0
   -8.8670    4.5850   -4.8600 O   0  0  0  0  0  0
   -9.6320    2.4570   -6.6420 C   0  0  0  0  0  0
  -10.9700    2.3830   -5.9050 C   0  0  0  0  0  0
  -12.0970    2.4370   -6.9220 C   0  0  0  0  0  0
  -11.0580    1.1300   -5.0920 C   0  0  0  0  0  0
  -10.3040    5.8440   -6.0600 N   0  0  0  0  0  0
  -10.5510    6.7590   -4.9580 C   0  0  2  0  0  0
  -11.5060    5.9690   -4.0690 C   0  0  0  0  0  0
  -12.7100    5.9240   -4.3060 O   0  0  0  0  0  0
  -11.1840    8.0470   -5.4810 C   0  0  0  0  0  0
  -10.2900    8.7430   -6.4500 C   0  0  0  0  0  0
  -10.2720    8.5930   -7.8160 C   0  0  0  0  0  0
   -9.2110    9.6350   -6.1310 C   0  0  0  0  0  0
   -9.2480    9.3350   -8.3580 N   0  0  0  0  0  0
   -8.5790    9.9800   -7.3510 C   0  0  0  0  0  0
   -8.7150   10.1750   -4.9350 C   0  0  0  0  0  0
   -7.4740   10.8420   -7.4070 C   0  0  0  0  0  0
   -7.6140   11.0360   -4.9910 C   0  0  0  0  0  0
   -7.0090   11.3580   -6.2200 C   0  0  0  0  0  0
  -10.9390    5.3190   -3.0610 N   0  0  0  0  0  0
  -11.7240    4.4820   -2.1760 C   0  0  0  0  0  0
  -12.5310    5.1010   -1.0580 C   0  0  0  0  0  0
  -13.4840    4.4770   -0.5870 O   0  0  0  0  0  0
  -12.1690    6.3010   -0.6110 N   0  0  0  0  0  0
  -12.9220    6.9160    0.4770 C   0  0  2  0  0  0
  -14.3240    7.2820    0.0410 C   0  0  0  0  0  0
  -14.5110    8.0860   -0.8630 O   0  0  0  0  0  0
  -12.2020    8.1530    1.0230 C   0  0  0  0  0  0
  -10.9450    7.8300    1.8330 C   0  0  0  0  0  0
  -10.4650    9.0730    2.5760 C   0  0  0  0  0  0
  -11.2600    6.7200    2.8230 C   0  0  0  0  0  0
  -15.3130    6.6800    0.6850 N   0  0  0  0  0  0
  -16.7020    6.9560    0.3530 C   0  0  2  0  0  0
  -17.0010    8.4120    0.7350 C   0  0  0  0  0  0
  -16.1570    9.0870    1.3230 O   0  0  0  0  0  0
  -17.6150    5.9760    1.1050 C   0  0  0  0  0  0
  -18.8680    5.5620    0.3300 C   0  0  0  0  0  0
  -18.5500    5.0580   -1.0750 C   0  0  0  0  0  0
  -17.6520    4.1950   -1.2070 O   0  0  0  0  0  0
  -19.2000    5.5240   -2.0430 O   0  0  0  0  0  0
  -18.1880    8.9010    0.4000 N   0  0  0  0  0  0
  -18.5320   10.2830    0.7180 C   0  0  2  0  0  0
  -18.2350   10.5880    2.1760 C   0  0  0  0  0  0
  -18.6010    9.8300    3.0740 O   0  0  0  0  0  0
  -20.0020   10.5500    0.4170 C   0  0  0  0  0  0
  -17.5620   11.7050    2.4050 N   0  0  0  0  0  0
  -17.2260   12.0980    3.7580 C   0  0  0  0  0  0
  -16.5790   11.0400    4.6360 C   0  0  0  0  0  0
  -17.1660   10.6470    5.6410 O   0  0  0  0  0  0
  -15.3840   10.5720    4.2780 N   0  0  0  0  0  0
  -14.6980    9.5840    5.1060 C   0  0  2  0  0  0
  -13.4020   10.1180    5.7300 C   0  0  0  0  0  0
  -12.9920    9.6690    6.7990 O   0  0  0  0  0  0
  -14.4250    8.2970    4.3210 C   0  0  0  0  0  0
  -15.5440    7.2690    4.4760 C   0  0  0  0  0  0
  -15.2030    5.9110    3.8870 C   0  0  0  0  0  0
  -15.5890    4.8830    4.4930 O   0  0  0  0  0  0
  -14.5480    5.8680    2.8220 O   0  0  0  0  0  0
  -12.7650   11.0780    5.0730 N   0  0  0  0  0  0
  -11.5490   11.6720    5.6100 C   0  0  0  0  0  0
  -10.4730   10.8130    6.2570 C   0  0  0  0  0  0
  -10.6930    9.6810    6.6700 O   0  0  0  0  0  0
   -9.2870   11.3940    6.3610 N   0  0  0  0  0  0
   -8.1300   10.7260    6.9390 C   0  0  2  0  0  0
   -8.3490   10.2930    8.3970 C   0  0  0  0  0  0
   -7.7820    9.2970    8.8430 O   0  0  0  0  0  0
   -6.8820   11.6550    6.8460 C   0  0  2  0  0  0
   -5.6110   10.8940    7.2340 C   0  0  0  0  0  0
   -7.0580   12.8580    7.7660 C   0  0  0  0  0  0
   -5.2520    9.7630    6.2950 C   0  0  0  0  0  0
   -9.1790   11.0340    9.1300 N   0  0  0  0  0  0
   -9.4580   10.7310   10.5340 C   0  0  2  0  0  0
  -10.0820    9.3770   10.7490 C   0  0  0  0  0  0
   -9.9930    8.8130   11.8300 O   0  0  0  0  0  0
  -10.3870   11.7780   11.1460 C   0  0  0  0  0  0
   -9.7020   12.9930   11.3600 O   0  0  0  0  0  0
  -10.7370    8.8630    9.7250 N   0  0  0  0  0  0
  -11.3680    7.5770    9.8420 C   0  0  2  0  0  0
  -10.3860    6.4720    9.5130 C   0  0  0  0  0  0
  -10.7790    5.3240    9.3720 O   0  0  0  0  0  0
  -12.5570    7.5130    8.9040 C   0  0  0  0  0  0
  -13.6010    8.5650    9.2210 C   0  0  0  0  0  0
  -14.3860    8.9090    8.3180 O   0  0  0  0  0  0
  -13.6490    9.0400   10.3740 O   0  0  0  0  0  0
   -9.1080    6.8160    9.4020 N   0  0  0  0  0  0
   -8.0810    5.8280    9.0710 C   0  0  2  0  0  0
   -7.0340    5.6800   10.1590 C   0  0  0  0  0  0
   -6.2690    4.7180   10.1740 O   0  0  0  0  0  0
   -7.4070    6.2090    7.7680 C   0  0  0  0  0  0
   -8.4400    6.2460    6.6600 C   0  0  0  0  0  0
   -7.7910    6.6730    5.3750 C   0  0  0  0  0  0
   -9.0850    4.8820    6.5440 C   0  0  0  0  0  0
   -6.9940    6.6600   11.0510 N   0  0  0  0  0  0
   -6.0680    6.6510   12.1710 C   0  0  2  0  0  0
   -6.8580    6.8810   13.4580 C   0  0  0  0  0  0
   -7.8510    7.6060   13.4560 O   0  0  0  0  0  0
   -4.9950    7.7290   11.9830 C   0  0  0  0  0  0
   -4.0440    7.4460   10.8450 C   0  0  0  0  0  0
   -4.3670    7.8110    9.5420 C   0  0  0  0  0  0
   -2.8270    6.8030   11.0820 C   0  0  0  0  0  0
   -3.5020    7.5520    8.4970 C   0  0  0  0  0  0
   -1.9480    6.5330   10.0390 C   0  0  0  0  0  0
   -2.2820    6.9100    8.7380 C   0  0  0  0  0  0
   -6.4190    6.2430   14.5430 N   0  0  0  0  0  0
   -7.0670    6.3420   15.8570 C   0  0  2  0  0  0
   -6.7600    7.6400   16.5800 C   0  0  0  0  0  0
   -6.2550    7.5610   17.7210 O   0  0  0  0  0  0
   -6.6300    5.1760   16.7480 C   0  0  0  0  0  0
   -7.2980    3.8720   16.3720 C   0  0  0  0  0  0
   -6.8330    2.8080   16.8380 O   0  0  0  0  0  0
   -8.2940    3.9130   15.6170 O   0  0  0  0  0  0
   -7.0370    8.7120   16.0080 O   0  0  0  0  0  0
   -7.5646    6.5007  -16.2590 H   0  0  0  0  0  0
   -6.5498    7.9814  -16.1903 H   0  0  0  0  0  0
   -7.8197    7.7045  -14.9503 H   0  0  0  0  0  0
   -5.3381    6.0374  -15.4084 H   0  0  0  0  0  0
   -4.8543    8.2468  -14.4064 H   0  0  0  0  0  0
   -6.1397    7.9915  -13.1780 H   0  0  0  0  0  0
   -4.0739    5.4639  -11.4320 H   0  0  0  0  0  0
   -4.9679    4.2911  -14.0153 H   0  0  0  0  0  0
   -7.5400    3.0943  -13.3664 H   0  0  0  0  0  0
   -6.0585    1.0859  -12.5599 H   0  0  0  0  0  0
   -5.6065    1.6942  -14.1885 H   0  0  0  0  0  0
   -2.8947    3.3292  -11.6144 H   0  0  0  0  0  0
   -5.6992    5.1328  -11.4273 H   0  0  0  0  0  0
   -5.9230    3.7963   -8.9546 H   0  0  0  0  0  0
   -4.7989    6.0670   -9.4093 H   0  0  0  0  0  0
   -6.4259    6.8256   -9.3474 H   0  0  0  0  0  0
   -4.1970    4.6122   -7.2645 H   0  0  0  0  0  0
   -7.1156    7.7649   -7.3447 H   0  0  0  0  0  0
   -3.8599    4.9717   -4.8386 H   0  0  0  0  0  0
   -6.7931    8.1306   -4.9000 H   0  0  0  0  0  0
   -4.3463    6.1718   -2.8311 H   0  0  0  0  0  0
   -7.1858    3.4926   -7.2724 H   0  0  0  0  0  0
  -10.0433    4.1959   -7.9071 H   0  0  0  0  0  0
   -9.6668    1.7880   -7.5145 H   0  0  0  0  0  0
   -8.8307    2.1316   -5.9622 H   0  0  0  0  0  0
  -11.0619    3.2238   -5.2017 H   0  0  0  0  0  0
  -12.0165    3.3634   -7.5097 H   0  0  0  0  0  0
  -13.0643    2.4176   -6.3987 H   0  0  0  0  0  0
  -12.0263    1.5691   -7.5941 H   0  0  0  0  0  0
  -10.2354    1.1080   -4.3621 H   0  0  0  0  0  0
  -10.9826    0.2561   -5.7559 H   0  0  0  0  0  0
  -12.0207    1.1047   -4.5604 H   0  0  0  0  0  0
  -10.7914    6.0095   -7.0321 H   0  0  0  0  0  0
   -9.6206    7.0483   -4.4474 H   0  0  0  0  0  0
  -12.1302    7.8103   -5.9895 H   0  0  0  0  0  0
  -11.3804    8.7272   -4.6391 H   0  0  0  0  0  0
  -10.9670    7.9767   -8.3863 H   0  0  0  0  0  0
   -9.1789    9.9283   -3.9800 H   0  0  0  0  0  0
   -7.0012   11.0937   -8.3563 H   0  0  0  0  0  0
   -7.2190   11.4636   -4.0695 H   0  0  0  0  0  0
   -6.1523   12.0318   -6.2315 H   0  0  0  0  0  0
   -9.8555    5.4230   -2.9022 H   0  0  0  0  0  0
  -12.4706    3.9269   -2.7629 H   0  0  0  0  0  0
  -11.0615    3.7716   -1.6598 H   0  0  0  0  0  0
  -11.3114    6.8289   -1.0535 H   0  0  0  0  0  0
  -12.9781    6.1353    1.2498 H   0  0  0  0  0  0
  -11.8940    8.7971    0.1862 H   0  0  0  0  0  0
  -12.8815    8.7108    1.6842 H   0  0  0  0  0  0
  -10.1446    7.4958    1.1565 H   0  0  0  0  0  0
  -10.2400    9.8693    1.8513 H   0  0  0  0  0  0
   -9.5572    8.8306    3.1480 H   0  0  0  0  0  0
  -11.2517    9.4153    3.2644 H   0  0  0  0  0  0
  -11.6049    5.8292    2.2775 H   0  0  0  0  0  0
  -12.0487    7.0562    3.5121 H   0  0  0  0  0  0
  -10.3543    6.4715    3.3956 H   0  0  0  0  0  0
  -15.0703    5.9616    1.4819 H   0  0  0  0  0  0
  -16.8327    6.8084   -0.7292 H   0  0  0  0  0  0
  -17.0574    5.0551    1.3309 H   0  0  0  0  0  0
  -17.9551    6.4382    2.0435 H   0  0  0  0  0  0
  -19.3827    4.7537    0.8700 H   0  0  0  0  0  0
  -19.5420    6.4260    0.2341 H   0  0  0  0  0  0
  -18.9892    5.1766   -3.0652 H   0  0  0  0  0  0
  -18.9144    8.2591   -0.1200 H   0  0  0  0  0  0
  -17.8947   10.9057    0.0730 H   0  0  0  0  0  0
  -20.2063   10.3262   -0.6404 H   0  0  0  0  0  0
  -20.2316   11.6066    0.6192 H   0  0  0  0  0  0
  -20.6290    9.9099    1.0550 H   0  0  0  0  0  0
  -17.2577   12.3364    1.5572 H   0  0  0  0  0  0
  -16.5159   12.9377    3.7303 H   0  0  0  0  0  0
  -18.1392   12.4074    4.2875 H   0  0  0  0  0  0
  -14.9144   10.9348    3.3518 H   0  0  0  0  0  0
  -15.4194    9.3920    5.9140 H   0  0  0  0  0  0
  -14.3283    8.5336    3.2511 H   0  0  0  0  0  0
  -13.4920    7.8389    4.6810 H   0  0  0  0  0  0
  -15.7599    7.1204    5.5443 H   0  0  0  0  0  0
  -16.4486    7.6320    3.9661 H   0  0  0  0  0  0
  -15.3562    3.8866    4.0893 H   0  0  0  0  0  0
  -13.1675   11.4246    4.1097 H   0  0  0  0  0  0
  -11.0090   12.1926    4.8054 H   0  0  0  0  0  0
  -11.8102   12.3906    6.4008 H   0  0  0  0  0  0
   -9.1974   12.4249    5.9879 H   0  0  0  0  0  0
   -8.0302    9.8185    6.3254 H   0  0  0  0  0  0
   -6.7691   12.0143    5.8125 H   0  0  0  0  0  0
   -4.7571   11.5874    7.2441 H   0  0  0  0  0  0
   -5.7379   10.4541    8.2342 H   0  0  0  0  0  0
   -7.9713   13.4033    7.4858 H   0  0  0  0  0  0
   -6.1884   13.5246    7.6684 H   0  0  0  0  0  0
   -7.1412   12.5140    8.8075 H   0  0  0  0  0  0
   -4.3317    9.2732    6.6460 H   0  0  0  0  0  0
   -5.0912   10.1635    5.2832 H   0  0  0  0  0  0
   -6.0721    9.0302    6.2733 H   0  0  0  0  0  0
   -9.6607   11.8971    8.6474 H   0  0  0  0  0  0
   -8.4560   10.7341   10.9878 H   0  0  0  0  0  0
  -11.2309   11.9623   10.4649 H   0  0  0  0  0  0
  -10.7677   11.4113   12.1107 H   0  0  0  0  0  0
  -10.2308   13.8530   11.7968 H   0  0  0  0  0  0
  -10.7991    9.4221    8.7797 H   0  0  0  0  0  0
  -11.6892    7.4884   10.8903 H   0  0  0  0  0  0
  -12.2173    7.6727    7.8700 H   0  0  0  0  0  0
  -13.0349    6.5255    8.9846 H   0  0  0  0  0  0
  -14.3997    9.8044   10.6231 H   0  0  0  0  0  0
   -8.8278    7.8673    9.5643 H   0  0  0  0  0  0
   -8.6227    4.8749    8.9805 H   0  0  0  0  0  0
   -6.9432    7.2011    7.8715 H   0  0  0  0  0  0
   -6.6332    5.4661    7.5245 H   0  0  0  0  0  0
   -9.2253    6.9836    6.8819 H   0  0  0  0  0  0
   -7.3370    7.6663    5.5059 H   0  0  0  0  0  0
   -8.5487    6.7182    4.5789 H   0  0  0  0  0  0
   -7.0119    5.9472    5.0989 H   0  0  0  0  0  0
   -9.5460    4.6115    7.5054 H   0  0  0  0  0  0
   -8.3205    4.1361    6.2812 H   0  0  0  0  0  0
   -9.8573    4.9070    5.7611 H   0  0  0  0  0  0
   -7.6930    7.4995   10.9220 H   0  0  0  0  0  0
   -5.5854    5.6626   12.1868 H   0  0  0  0  0  0
   -5.4782    8.6947   11.7737 H   0  0  0  0  0  0
   -4.3932    7.8113   12.9001 H   0  0  0  0  0  0
   -5.3162    8.3085    9.3430 H   0  0  0  0  0  0
   -2.5628    6.5090   12.0978 H   0  0  0  0  0  0
   -3.7699    7.8481    7.4828 H   0  0  0  0  0  0
   -1.0020    6.0290   10.2370 H   0  0  0  0  0  0
   -1.5974    6.7059    7.9148 H   0  0  0  0  0  0
   -5.5231    5.6173   14.4173 H   0  0  0  0  0  0
   -8.1420    6.3165   15.6253 H   0  0  0  0  0  0
   -6.0162    8.4769   18.2814 H   0  0  0  0  0  0
   -5.5426    5.0351   16.6603 H   0  0  0  0  0  0
   -6.8879    5.3973   17.7942 H   0  0  0  0  0  0
   -7.2989    1.8452   16.5813 H   0  0  0  0  0  0
  1  2  1  0  0  0
  1144  1  0  0  0
  1145  1  0  0  0
  1146  1  0  0  0
  2  3  1  0  0  0
  2  5  1  0  0  0
  2147  1  0  0  0
  3  4  2  0  0  0
  3  9  1  0  0  0
  5  6  1  0  0  0
  5148  1  0  0  0
  5149  1  0  0  0
  6  7  1  0  0  0
  6  8  2  0  0  0
  7150  1  0  0  0
  9 10  1  0  0  0
  9151  1  0  0  0
 10 11  1  0  0  0
 10 13  1  0  0  0
 10152  1  0  0  0
 11 12  2  0  0  0
 11 17  1  0  0  0
 13 14  1  0  0  0
 13153  1  0  0  0
 13154  1  0  0  0
 14 15  2  0  0  0
 14 16  1  0  0  0
 16155  1  0  0  0
 17 18  1  0  0  0
 17156  1  0  0  0
 18 19  1  0  0  0
 18 21  1  0  0  0
 18157  1  0  0  0
 19 20  2  0  0  0
 19 29  1  0  0  0
 21 22  1  0  0  0
 21158  1  0  0  0
 21159  1  0  0  0
 22 23  2  0  0  0
 22 24  1  0  0  0
 23 25  1  0  0  0
 23160  1  0  0  0
 24 26  2  0  0  0
 24161  1  0  0  0
 25 27  2  0  0  0
 25162  1  0  0  0
 26 27  1  0  0  0
 26163  1  0  0  0
 27 28  1  0  0  0
 28164  1  0  0  0
 29 30  1  0  0  0
 29165  1  0  0  0
 30 31  1  0  0  0
 30 33  1  0  0  0
 30166  1  0  0  0
 31 32  2  0  0  0
 31 37  1  0  0  0
 33 34  1  0  0  0
 33167  1  0  0  0
 33168  1  0  0  0
 34 35  1  0  0  0
 34 36  1  0  0  0
 34169  1  0  0  0
 35170  1  0  0  0
 35171  1  0  0  0
 35172  1  0  0  0
 36173  1  0  0  0
 36174  1  0  0  0
 36175  1  0  0  0
 37 38  1  0  0  0
 37176  1  0  0  0
 38 39  1  0  0  0
 38 41  1  0  0  0
 38177  1  0  0  0
 39 40  2  0  0  0
 39 51  1  0  0  0
 41 42  1  0  0  0
 41178  1  0  0  0
 41179  1  0  0  0
 42 43  2  0  0  0
 42 44  1  0  0  0
 43 45  1  0  0  0
 43180  1  0  0  0
 44 46  2  0  0  0
 44 47  1  0  0  0
 45 46  1  0  0  0
 46 48  1  0  0  0
 47 49  2  0  0  0
 47181  1  0  0  0
 48 50  2  0  0  0
 48182  1  0  0  0
 49 50  1  0  0  0
 49183  1  0  0  0
 50184  1  0  0  0
 51 52  1  0  0  0
 51185  1  0  0  0
 52 53  1  0  0  0
 52186  1  0  0  0
 52187  1  0  0  0
 53 54  2  0  0  0
 53 55  1  0  0  0
 55 56  1  0  0  0
 55188  1  0  0  0
 56 57  1  0  0  0
 56 59  1  0  0  0
 56189  1  0  0  0
 57 58  2  0  0  0
 57 63  1  0  0  0
 59 60  1  0  0  0
 59190  1  0  0  0
 59191  1  0  0  0
 60 61  1  0  0  0
 60 62  1  0  0  0
 60192  1  0  0  0
 61193  1  0  0  0
 61194  1  0  0  0
 61195  1  0  0  0
 62196  1  0  0  0
 62197  1  0  0  0
 62198  1  0  0  0
 63 64  1  0  0  0
 63199  1  0  0  0
 64 65  1  0  0  0
 64 67  1  0  0  0
 64200  1  0  0  0
 65 66  2  0  0  0
 65 72  1  0  0  0
 67 68  1  0  0  0
 67201  1  0  0  0
 67202  1  0  0  0
 68 69  1  0  0  0
 68203  1  0  0  0
 68204  1  0  0  0
 69 70  2  0  0  0
 69 71  1  0  0  0
 71205  1  0  0  0
 72 73  1  0  0  0
 72206  1  0  0  0
 73 74  1  0  0  0
 73 76  1  0  0  0
 73207  1  0  0  0
 74 75  2  0  0  0
 74 77  1  0  0  0
 76208  1  0  0  0
 76209  1  0  0  0
 76210  1  0  0  0
 77 78  1  0  0  0
 77211  1  0  0  0
 78 79  1  0  0  0
 78212  1  0  0  0
 78213  1  0  0  0
 79 80  2  0  0  0
 79 81  1  0  0  0
 81 82  1  0  0  0
 81214  1  0  0  0
 82 83  1  0  0  0
 82 85  1  0  0  0
 82215  1  0  0  0
 83 84  2  0  0  0
 83 90  1  0  0  0
 85 86  1  0  0  0
 85216  1  0  0  0
 85217  1  0  0  0
 86 87  1  0  0  0
 86218  1  0  0  0
 86219  1  0  0  0
 87 88  1  0  0  0
 87 89  2  0  0  0
 88220  1  0  0  0
 90 91  1  0  0  0
 90221  1  0  0  0
 91 92  1  0  0  0
 91222  1  0  0  0
 91223  1  0  0  0
 92 93  2  0  0  0
 92 94  1  0  0  0
 94 95  1  0  0  0
 94224  1  0  0  0
 95 96  1  0  0  0
 95 98  1  0  0  0
 95225  1  0  0  0
 96 97  2  0  0  0
 96102  1  0  0  0
 98 99  1  0  0  0
 98100  1  0  0  0
 98226  1  0  0  0
 99101  1  0  0  0
 99227  1  0  0  0
 99228  1  0  0  0
100229  1  0  0  0
100230  1  0  0  0
100231  1  0  0  0
101232  1  0  0  0
101233  1  0  0  0
101234  1  0  0  0
102103  1  0  0  0
102235  1  0  0  0
103104  1  0  0  0
103106  1  0  0  0
103236  1  0  0  0
104105  2  0  0  0
104108  1  0  0  0
106107  1  0  0  0
106237  1  0  0  0
106238  1  0  0  0
107239  1  0  0  0
108109  1  0  0  0
108240  1  0  0  0
109110  1  0  0  0
109112  1  0  0  0
109241  1  0  0  0
110111  2  0  0  0
110116  1  0  0  0
112113  1  0  0  0
112242  1  0  0  0
112243  1  0  0  0
113114  2  0  0  0
113115  1  0  0  0
115244  1  0  0  0
116117  1  0  0  0
116245  1  0  0  0
117118  1  0  0  0
117120  1  0  0  0
117246  1  0  0  0
118119  2  0  0  0
118124  1  0  0  0
120121  1  0  0  0
120247  1  0  0  0
120248  1  0  0  0
121122  1  0  0  0
121123  1  0  0  0
121249  1  0  0  0
122250  1  0  0  0
122251  1  0  0  0
122252  1  0  0  0
123253  1  0  0  0
123254  1  0  0  0
123255  1  0  0  0
124125  1  0  0  0
124256  1  0  0  0
125126  1  0  0  0
125128  1  0  0  0
125257  1  0  0  0
126127  2  0  0  0
126135  1  0  0  0
128129  1  0  0  0
128258  1  0  0  0
128259  1  0  0  0
129130  2  0  0  0
129131  1  0  0  0
130132  1  0  0  0
130260  1  0  0  0
131133  2  0  0  0
131261  1  0  0  0
132134  2  0  0  0
132262  1  0  0  0
133134  1  0  0  0
133263  1  0  0  0
134264  1  0  0  0
135136  1  0  0  0
135265  1  0  0  0
136137  1  0  0  0
136139  1  0  0  0
136266  1  0  0  0
137138  1  0  0  0
137143  2  0  0  0
138267  1  0  0  0
139140  1  0  0  0
139268  1  0  0  0
139269  1  0  0  0
140141  1  0  0  0
140142  2  0  0  0
141270  1  0  0  0
M  CHG  1   1   1
M  END
> <s_m_source_file>
../1n4m_ligand.sdf

> <i_m_source_file_index>
1

> <s_epik_input>
W09IXUMoPU8pW0NIMl1bQ0BIXShbTkgzK10pQyg9TylbTkhdW0NAQEhdKFtDSDJdQyg9TylbT0hdKUMoPU8pW05IXVtDQEBIXShbQ0gyXWMxW2NIXVtjSF1jKFtPSF0pW2NIXVtjSF0xKUMoPU8pW05IXVtDQEBIXShbQ0gyXVtDSF0oW0NIM10pW0NIM10pQyg9TylbTkhdW0NAQEhdKFtDSDJdYzJbY0hdW25IXWMoYzIzKVtjSF1bY0hdW2NIXVtjSF0zKUMoPU8pW05IXVtDSDJdQyg9TylbTkhdW0NAQEhdKFtDSDJdW0NIXShbQ0gzXSlbQ0gzXSlDKD1PKVtOSF1bQ0BASF0oW0NIMl1bQ0gyXUMoPU8pW09IXSlDKD1PKVtOSF1bQ0BASF0oW0NIM10pQyg9TylbTkhdW0NIMl1DKD1PKVtOSF1bQ0BASF0oW0NIMl1bQ0gyXUMoPU8pW09IXSlDKD1PKVtOSF1bQ0gyXUMoPU8pW05IXVtDQEBIXShbQ0BASF0oW0NIM10pW0NIMl1bQ0gzXSlDKD1PKVtOSF1bQ0BASF0oW0NIMl1bT0hdKUMoPU8pW05IXVtDQEBIXShbQ0gyXUMoPU8pW09IXSlDKD1PKVtOSF1bQ0BASF0oW0NIMl1bQ0hdKFtDSDNdKVtDSDNdKUMoPU8pW05IXVtDQEhdKEMoPU8pW05IXVtDQEhdKEMoPU8pW09IXSlbQ0gyXUMoPU8pW09IXSlbQ0gyXWM0W2NIXVtjSF1bY0hdW2NIXVtjSF00

> <s_epik_cmdline>
J2VwaWtfYXBwJywgJy1pbWFlJywgJ2xpZ2FuZF9wcm8ubWFlJywgJy1vbWFlJywgJ2xpZ2FuZF9wcmVwLm1hZScsICctbXMnLCAnMScsICctcGgnLCAnNycsICctcGh0JywgJzAuNScsICctbnQn

> <s_epik_pKa_notes>
Molecule size exceeds maximum supported for generating protonation states

$$$$
