1n51_ligand
                    3D
 Schrodinger Suite 2020-3.
 67 69  0  0  1  0            999 V2000
   30.5070   56.4660   44.1810 O   0  0  0  0  0  0
   29.1140   56.2440   43.9060 C   0  0  2  0  0  0
   26.8820   55.6350   44.9100 C   0  0  0  0  0  0
   25.8750   55.9580   46.0010 C   0  0  0  0  0  0
   25.8720   57.2040   46.6320 C   0  0  0  0  0  0
   24.8820   55.0410   46.3410 C   0  0  0  0  0  0
   24.8920   57.5300   47.5780 C   0  0  0  0  0  0
   23.8970   55.3570   47.2850 C   0  0  0  0  0  0
   23.9040   56.6070   47.9030 C   0  0  0  0  0  0
   28.5640   57.3960   43.0800 C   0  0  0  0  0  0
   28.3830   58.5060   43.5830 O   0  0  0  0  0  0
   28.9930   55.1050   46.1170 N   0  3  0  0  0  0
   28.3200   56.0920   45.2160 C   0  0  1  0  0  0
   28.2930   57.1370   41.7900 N   0  0  0  0  0  0
   27.7680   58.1280   40.8520 C   0  0  2  0  0  0
   26.7750   59.1140   41.4470 C   0  0  0  0  0  0
   25.6580   58.7530   41.8120 O   0  0  0  0  0  0
   27.1690   57.2630   39.7590 C   0  0  0  0  0  0
   28.1680   56.1520   39.6790 C   0  0  0  0  0  0
   28.3830   55.8130   41.1430 C   0  0  0  0  0  0
   27.1770   60.3900   41.5290 N   0  0  0  0  0  0
   26.3950   61.5030   42.0650 C   0  0  2  0  0  0
   24.8920   61.3880   41.8010 C   0  0  0  0  0  0
   24.4480   61.4410   40.6590 O   0  0  0  0  0  0
   27.0150   62.7050   41.3670 C   0  0  0  0  0  0
   28.4480   62.3320   41.3110 C   0  0  0  0  0  0
   28.3780   60.9010   40.8430 C   0  0  0  0  0  0
   24.1190   61.2300   42.8700 N   0  0  0  0  0  0
   22.6710   61.1170   42.7670 C   0  0  2  0  0  0
   22.0220   62.4330   43.2010 C   0  0  0  0  0  0
   21.7630   63.3190   42.3760 O   0  0  0  0  0  0
   22.1730   59.9770   43.6270 C   0  0  0  0  0  0
   21.7690   62.5850   44.4940 N   0  0  0  0  0  0
   31.2175   56.5961   43.3514 H   0  0  0  0  0  0
   29.0766   55.3101   43.3260 H   0  0  0  0  0  0
   26.9176   54.5466   44.7545 H   0  0  0  0  0  0
   26.5806   56.1294   43.9747 H   0  0  0  0  0  0
   26.6435   57.9332   46.3847 H   0  0  0  0  0  0
   24.8719   54.0610   45.8639 H   0  0  0  0  0  0
   24.9038   58.5077   48.0597 H   0  0  0  0  0  0
   23.1268   54.6277   47.5360 H   0  0  0  0  0  0
   23.1389   56.8593   48.6372 H   0  0  0  0  0  0
   30.0186   55.4416   46.3285 H   0  0  0  0  0  0
   29.0239   54.1215   45.6254 H   0  0  0  0  0  0
   28.4312   55.0264   47.0594 H   0  0  0  0  0  0
   28.2984   57.0543   45.7485 H   0  0  0  0  0  0
   28.5801   58.7901   40.5171 H   0  0  0  0  0  0
   26.1673   56.9269   40.0651 H   0  0  0  0  0  0
   27.0918   57.8471   38.8301 H   0  0  0  0  0  0
   27.7430   55.3176   39.1018 H   0  0  0  0  0  0
   29.0803   56.5142   39.1824 H   0  0  0  0  0  0
   29.3726   55.3750   41.3403 H   0  0  0  0  0  0
   27.6023   55.1528   41.5488 H   0  0  0  0  0  0
   26.4690   61.5220   43.1623 H   0  0  0  0  0  0
   26.5636   62.8237   40.3710 H   0  0  0  0  0  0
   26.8306   63.6107   41.9634 H   0  0  0  0  0  0
   28.9714   62.9926   40.6041 H   0  0  0  0  0  0
   28.8939   62.4382   42.3110 H   0  0  0  0  0  0
   29.2543   60.3112   41.1498 H   0  0  0  0  0  0
   28.2423   60.8170   39.7546 H   0  0  0  0  0  0
   24.6054   61.1853   43.8556 H   0  0  0  0  0  0
   22.4439   60.8990   41.7130 H   0  0  0  0  0  0
   22.6478   59.0390   43.3034 H   0  0  0  0  0  0
   21.0813   59.8899   43.5241 H   0  0  0  0  0  0
   22.4277   60.1730   44.6790 H   0  0  0  0  0  0
   22.0116   61.7776   45.2005 H   0  0  0  0  0  0
   21.3165   63.5185   44.8599 H   0  0  0  0  0  0
  1  2  1  0  0  0
  1 34  1  0  0  0
  2 10  1  0  0  0
  2 13  1  0  0  0
  2 35  1  0  0  0
  3  4  1  0  0  0
  3 13  1  0  0  0
  3 36  1  0  0  0
  3 37  1  0  0  0
  4  5  2  0  0  0
  4  6  1  0  0  0
  5  7  1  0  0  0
  5 38  1  0  0  0
  6  8  2  0  0  0
  6 39  1  0  0  0
  7  9  2  0  0  0
  7 40  1  0  0  0
  8  9  1  0  0  0
  8 41  1  0  0  0
  9 42  1  0  0  0
 10 11  2  0  0  0
 10 14  1  0  0  0
 12 13  1  0  0  0
 12 43  1  0  0  0
 12 44  1  0  0  0
 12 45  1  0  0  0
 13 46  1  0  0  0
 14 15  1  0  0  0
 14 20  1  0  0  0
 15 16  1  0  0  0
 15 18  1  0  0  0
 15 47  1  0  0  0
 16 17  2  0  0  0
 16 21  1  0  0  0
 18 19  1  0  0  0
 18 48  1  0  0  0
 18 49  1  0  0  0
 19 20  1  0  0  0
 19 50  1  0  0  0
 19 51  1  0  0  0
 20 52  1  0  0  0
 20 53  1  0  0  0
 21 22  1  0  0  0
 21 27  1  0  0  0
 22 23  1  0  0  0
 22 25  1  0  0  0
 22 54  1  0  0  0
 23 24  2  0  0  0
 23 28  1  0  0  0
 25 26  1  0  0  0
 25 55  1  0  0  0
 25 56  1  0  0  0
 26 27  1  0  0  0
 26 57  1  0  0  0
 26 58  1  0  0  0
 27 59  1  0  0  0
 27 60  1  0  0  0
 28 29  1  0  0  0
 28 61  1  0  0  0
 29 30  1  0  0  0
 29 32  1  0  0  0
 29 62  1  0  0  0
 30 31  2  0  0  0
 30 33  1  0  0  0
 32 63  1  0  0  0
 32 64  1  0  0  0
 32 65  1  0  0  0
 33 66  1  0  0  0
 33 67  1  0  0  0
M  CHG  1  12   1
M  END
> <s_m_source_file>
../1n51_ligand.sdf

> <i_m_source_file_index>
1

> <s_epik_input>
W2NIXTFbY0hdW2NIXVtjSF1bY0hdYzFbQ0gyXVtDQEBIXShbTkgzK10pW0NASF0oW09IXSlDKD1PKU4yW0NAQEhdKFtDSDJdW0NIMl1bQ0gyXTIpQyg9TylOM1tDQEBIXShbQ0gyXVtDSDJdW0NIMl0zKUMoPU8pW05IXVtDQEBIXShbQ0gzXSlDKD1PKVtOSDJd

> <s_epik_cmdline>
J2VwaWtfYXBwJywgJy1pbWFlJywgJ2xpZ2FuZF9wcm8ubWFlJywgJy1vbWFlJywgJ2xpZ2FuZF9wcmVwLm1hZScsICctbXMnLCAnMScsICctcGgnLCAnNycsICctcGh0JywgJzAuNScsICctbnQn

> <r_epik_Ionization_Penalty>
  0.0744

> <r_epik_Ionization_Penalty_Charging>
  0.0679

> <r_epik_Ionization_Penalty_Neutral>
  0.0065

> <r_epik_State_Penalty>
  0.0594

> <r_epik_Charging_Adjusted_Penalty>
0.127261856561113

> <i_epik_Tot_Q>
1

> <i_epik_Tot_abs_Q>
1

$$$$
