1n5r_ligand
                    3D
 Schrodinger Suite 2020-3.
 65 68  0  0  1  0            999 V2000
   37.7270   25.7720    9.6930 C   0  0  0  0  0  0
   38.5070   25.9530    8.5220 C   0  0  0  0  0  0
   37.9990   25.3130    7.2970 C   0  0  0  0  0  0
   36.7830   24.5360    7.4160 C   0  0  0  0  0  0
   36.0520   24.3800    8.6280 C   0  0  0  0  0  0
   36.5280   25.0080    9.7760 C   0  0  0  0  0  0
   38.7710   25.4390    6.0780 C   0  0  3  0  0  0
   40.0890   26.0240    6.0380 N   0  0  0  0  0  0
   40.6130   26.4850    7.2640 C   0  0  0  0  0  0
   39.8280   26.4930    8.5180 C   0  0  0  0  0  0
   41.9710   26.9530    7.3720 C   0  0  0  0  0  0
   42.5880   27.3950    8.5610 C   0  0  0  0  0  0
   41.8380   27.3910    9.7500 C   0  0  0  0  0  0
   40.4810   26.9420    9.6960 C   0  0  0  0  0  0
   38.1720   24.9630    4.7860 C   0  0  0  0  0  0
   37.4700   25.9030    3.9520 C   0  0  0  0  0  0
   36.9300   25.4790    2.7010 C   0  0  0  0  0  0
   37.0820   24.1350    2.2830 C   0  0  0  0  0  0
   37.7740   23.2090    3.1140 C   0  0  0  0  0  0
   38.3170   23.6220    4.3630 C   0  0  0  0  0  0
   34.8710   23.6100    8.7040 N   0  0  0  0  0  0
   43.9150   27.8450    8.5850 N   0  0  0  0  0  0
   40.8940   26.1870    4.7410 C   0  0  0  0  0  0
   41.8340   25.0630    4.3160 C   0  0  0  0  0  0
   42.1940   25.1180    2.8320 C   0  0  0  0  0  0
   43.5420   24.6440    2.2500 N   0  3  0  0  0  0
   43.5980   23.1200    2.2720 C   0  0  0  0  0  0
   42.4540   22.1930    1.8450 C   0  0  0  0  0  0
   44.6990   25.1500    3.0760 C   0  0  0  0  0  0
   43.6900   25.1220    0.8100 C   0  0  0  0  0  0
   44.9670   25.0450   -0.0350 C   0  0  0  0  0  0
   38.0741   26.2580   10.6048 H   0  0  0  0  0  0
   36.4037   24.0398    6.5226 H   0  0  0  0  0  0
   35.9926   24.9165   10.7211 H   0  0  0  0  0  0
   42.5702   26.9667    6.4615 H   0  0  0  0  0  0
   42.2797   27.7219   10.6899 H   0  0  0  0  0  0
   39.9085   26.9448   10.6236 H   0  0  0  0  0  0
   37.3511   26.9371    4.2755 H   0  0  0  0  0  0
   36.4003   26.1902    2.0671 H   0  0  0  0  0  0
   36.6703   23.8100    1.3275 H   0  0  0  0  0  0
   37.8890   22.1744    2.7907 H   0  0  0  0  0  0
   38.8440   22.9052    4.9927 H   0  0  0  0  0  0
   34.4829   23.1081    7.8054 H   0  0  0  0  0  0
   34.3390   23.5120    9.6618 H   0  0  0  0  0  0
   44.5102   27.8520    7.6600 H   0  0  0  0  0  0
   44.3614   28.1912    9.5289 H   0  0  0  0  0  0
   40.2033   26.3082    3.8935 H   0  0  0  0  0  0
   41.5385   27.0750    4.8186 H   0  0  0  0  0  0
   42.7697   25.1307    4.8904 H   0  0  0  0  0  0
   41.3549   24.0917    4.5087 H   0  0  0  0  0  0
   41.4774   24.5120    2.2582 H   0  0  0  0  0  0
   42.1543   26.1606    2.4834 H   0  0  0  0  0  0
   44.4113   22.7735    1.6174 H   0  0  0  0  0  0
   43.7823   22.7746    3.3000 H   0  0  0  0  0  0
   42.7676   21.1453    1.9630 H   0  0  0  0  0  0
   42.2013   22.3837    0.7915 H   0  0  0  0  0  0
   41.5723   22.3849    2.4741 H   0  0  0  0  0  0
   44.5881   24.8028    4.1139 H   0  0  0  0  0  0
   44.7102   26.2498    3.0564 H   0  0  0  0  0  0
   45.6421   24.7663    2.6598 H   0  0  0  0  0  0
   42.9850   24.5741    0.1675 H   0  0  0  0  0  0
   43.4732   26.1991    0.7571 H   0  0  0  0  0  0
   44.7724   25.4654   -1.0327 H   0  0  0  0  0  0
   45.2783   23.9946   -0.1341 H   0  0  0  0  0  0
   45.7664   25.6197    0.4555 H   0  0  0  0  0  0
  1  2  2  0  0  0
  1  6  1  0  0  0
  1 32  1  0  0  0
  2  3  1  0  0  0
  2 10  1  0  0  0
  3  4  2  0  0  0
  3  7  1  0  0  0
  4  5  1  0  0  0
  4 33  1  0  0  0
  5  6  2  0  0  0
  5 21  1  0  0  0
  6 34  1  0  0  0
  7  8  1  0  0  0
  7 15  1  0  0  0
  8  9  1  0  0  0
  8 23  1  0  0  0
  9 10  2  0  0  0
  9 11  1  0  0  0
 10 14  1  0  0  0
 11 12  2  0  0  0
 11 35  1  0  0  0
 12 13  1  0  0  0
 12 22  1  0  0  0
 13 14  2  0  0  0
 13 36  1  0  0  0
 14 37  1  0  0  0
 15 16  2  0  0  0
 15 20  1  0  0  0
 16 17  1  0  0  0
 16 38  1  0  0  0
 17 18  2  0  0  0
 17 39  1  0  0  0
 18 19  1  0  0  0
 18 40  1  0  0  0
 19 20  2  0  0  0
 19 41  1  0  0  0
 20 42  1  0  0  0
 21 43  1  0  0  0
 21 44  1  0  0  0
 22 45  1  0  0  0
 22 46  1  0  0  0
 23 24  1  0  0  0
 23 47  1  0  0  0
 23 48  1  0  0  0
 24 25  1  0  0  0
 24 49  1  0  0  0
 24 50  1  0  0  0
 25 26  1  0  0  0
 25 51  1  0  0  0
 25 52  1  0  0  0
 26 27  1  0  0  0
 26 29  1  0  0  0
 26 30  1  0  0  0
 27 28  1  0  0  0
 27 53  1  0  0  0
 27 54  1  0  0  0
 28 55  1  0  0  0
 28 56  1  0  0  0
 28 57  1  0  0  0
 29 58  1  0  0  0
 29 59  1  0  0  0
 29 60  1  0  0  0
 30 31  1  0  0  0
 30 61  1  0  0  0
 30 62  1  0  0  0
 31 63  1  0  0  0
 31 64  1  0  0  0
 31 65  1  0  0  0
M  CHG  1  26   1
M  END
> <s_m_source_file>
../1n5r_ligand.sdf

> <i_m_source_file_index>
1

> <s_epik_input>
W2NIXTFbY0hdW2NIXVtjSF1bY0hdYzFbQ0hdKGMoYzIzKVtjSF1jKFtOSDJdKVtjSF1bY0hdMilOKGM0YzNbY0hdW2NIXWMoW2NIXTQpW05IMl0pW0NIMl1bQ0gyXVtDSDJdW04rXShbQ0gzXSkoW0NIMl1bQ0gzXSlbQ0gyXVtDSDNd

> <s_epik_cmdline>
J2VwaWtfYXBwJywgJy1pbWFlJywgJ2xpZ2FuZF9wcm8ubWFlJywgJy1vbWFlJywgJ2xpZ2FuZF9wcmVwLm1hZScsICctbXMnLCAnMScsICctcGgnLCAnNycsICctcGh0JywgJzAuNScsICctbnQn

> <r_lp_tautomer_probability>
1

> <r_epik_Ionization_Penalty>
  0.0071

> <r_epik_Ionization_Penalty_Charging>
  0.0000

> <r_epik_Ionization_Penalty_Neutral>
  0.0071

> <r_epik_State_Penalty>
 -0.0000

> <r_epik_Charging_Adjusted_Penalty>
0

> <i_epik_Tot_Q>
1

> <i_epik_Tot_abs_Q>
1

$$$$
