1n5z_ligand
                    3D
 Schrodinger Suite 2020-3.
171176  0  0  1  0            999 V2000
   -9.0600   11.5410   36.5130 N   0  3  0  0  0  0
   -7.9980   10.8020   35.7480 C   0  0  2  0  0  0
   -8.0560   11.2050   34.2790 C   0  0  0  0  0  0
   -7.0490   11.0870   33.5330 O   0  0  0  0  0  0
   -8.1480    9.2830   35.9050 C   0  0  0  0  0  0
   -7.5540    8.7420   37.2060 C   0  0  0  0  0  0
   -7.2590    6.9260   37.2420 S   0  0  0  0  0  0
   -8.8190    6.3310   38.2650 C   0  0  0  0  0  0
   -9.2310   11.6630   33.8620 N   0  0  0  0  0  0
   -9.4220   12.2080   32.5150 C   0  0  2  0  0  0
   -9.0540   13.6820   32.4320 C   0  0  0  0  0  0
   -9.5670   14.4880   33.1800 O   0  0  0  0  0  0
  -10.9210   12.0530   32.3060 C   0  0  0  0  0  0
  -11.4740   12.3030   33.6750 C   0  0  0  0  0  0
  -10.4850   11.6540   34.6370 C   0  0  0  0  0  0
   -8.1940   14.0290   31.4980 N   0  0  0  0  0  0
   -7.7600   15.4140   31.3130 C   0  0  2  0  0  0
   -8.9300   16.3950   31.1870 C   0  0  0  0  0  0
  -10.0290   16.0350   30.7640 O   0  0  0  0  0  0
   -7.0110   15.3510   29.9840 C   0  0  0  0  0  0
   -6.5230   13.9100   29.8930 C   0  0  0  0  0  0
   -7.6120   13.1080   30.5110 C   0  0  0  0  0  0
   -8.7130   17.6460   31.5340 N   0  0  0  0  0  0
   -9.7650   18.6390   31.4010 C   0  0  2  0  0  0
   -9.9510   18.9150   29.9710 C   0  0  0  0  0  0
   -9.0140   18.9670   29.2210 O   0  0  0  0  0  0
   -9.3380   19.9400   32.0320 C   0  0  2  0  0  0
   -9.0710   19.7320   33.4390 O   0  0  0  0  0  0
  -10.4810   20.9690   31.9900 C   0  0  0  0  0  0
  -11.1770   19.0990   29.5620 N   0  0  0  0  0  0
  -11.4410   19.3740   28.1600 C   0  0  2  0  0  0
  -11.1400   20.8370   27.8430 C   0  0  0  0  0  0
  -11.4390   21.7260   28.5950 O   0  0  0  0  0  0
  -12.9050   19.0710   27.8560 C   0  0  0  0  0  0
  -13.2750   17.6060   27.9460 C   0  0  0  0  0  0
  -14.7690   17.3630   27.9120 C   0  0  0  0  0  0
  -12.5930   16.8930   26.8210 C   0  0  0  0  0  0
  -10.5480   21.0770   26.7030 N   0  0  0  0  0  0
  -10.2790   22.4510   26.2400 C   0  0  2  0  0  0
  -11.5810   23.1340   25.8970 C   0  0  0  0  0  0
  -12.4810   22.4630   25.4540 O   0  0  0  0  0  0
   -9.5270   22.2260   24.9320 C   0  0  0  0  0  0
   -9.0880   20.7760   25.0000 C   0  0  0  0  0  0
  -10.1210   20.0340   25.7520 C   0  0  0  0  0  0
  -11.6520   24.4450   26.0790 N   0  0  0  0  0  0
  -12.8510   25.2470   25.7990 C   0  0  2  0  0  0
  -13.2450   25.1060   24.3610 C   0  0  0  0  0  0
  -12.4170   25.2530   23.4800 O   0  0  0  0  0  0
  -12.5510   26.7230   26.0790 C   0  0  0  0  0  0
  -13.4660   27.6890   25.3840 C   0  0  0  0  0  0
  -14.7280   27.9930   25.8530 N   0  0  0  0  0  0
  -13.2850   28.4500   24.2770 C   0  0  0  0  0  0
  -15.2900   28.8820   25.0540 C   0  0  0  0  0  0
  -14.4350   29.1840   24.0940 N   0  0  0  0  0  0
  -14.5020   24.8190   24.1070 N   0  0  0  0  0  0
  -14.9110   24.7280   22.7230 C   0  0  2  0  0  0
  -15.8880   25.8650   22.3930 C   0  0  0  0  0  0
  -16.6310   26.3070   23.2660 O   0  0  0  0  0  0
  -15.4980   23.3500   22.4460 C   0  0  0  0  0  0
  -16.7870   23.0780   23.1570 C   0  0  0  0  0  0
  -16.9830   21.5810   23.3950 C   0  0  0  0  0  0
  -16.8300   21.1870   24.7970 N   0  0  0  0  0  0
  -17.0930   19.9600   25.2560 C   0  0  0  0  0  0
  -17.4780   19.0110   24.4140 N   0  0  0  0  0  0
  -16.9480   19.6790   26.5500 N   0  0  0  0  0  0
  -15.8710   26.3440   21.1470 N   0  0  0  0  0  0
  -16.7040   27.4630   20.7270 C   0  0  2  0  0  0
  -18.0360   27.0760   20.1760 C   0  0  0  0  0  0
  -18.5810   27.8270   19.4030 O   0  0  0  0  0  0
  -16.0250   28.2870   19.6340 C   0  0  0  0  0  0
  -14.9140   29.1370   20.1560 C   0  0  0  0  0  0
  -15.1990   30.1690   20.8240 O   0  0  0  0  0  0
  -13.7180   28.8290   19.9430 O   0  0  0  0  0  0
  -18.5790   25.9360   20.5390 N   0  0  0  0  0  0
  -19.8870   25.5930   20.0270 C   0  0  2  0  0  0
  -20.6540   24.9140   21.1300 C   0  0  0  0  0  0
  -20.0200   24.5920   22.1300 O   0  0  0  0  0  0
  -19.7800   24.6790   18.8180 C   0  0  0  0  0  0
  -18.8930   23.5140   19.0830 C   0  0  0  0  0  0
  -19.1370   22.4560   19.9200 C   0  0  0  0  0  0
  -17.5880   23.3150   18.5720 C   0  0  0  0  0  0
  -18.0660   21.6010   19.9340 N   0  0  0  0  0  0
  -17.0970   22.1120   19.1180 C   0  0  0  0  0  0
  -16.7740   24.0370   17.7080 C   0  0  0  0  0  0
  -15.8410   21.6090   18.8060 C   0  0  0  0  0  0
  -15.5490   23.5540   17.3950 C   0  0  0  0  0  0
  -15.0830   22.3400   17.9360 C   0  0  0  0  0  0
  -21.9580   24.6743   21.0255 O   0  0  0  0  0  0
   -9.0179   11.2500   37.5730 H   0  0  0  0  0  0
  -10.0492   11.2898   36.1028 H   0  0  0  0  0  0
   -8.8900   12.6241   36.4231 H   0  0  0  0  0  0
   -7.0233   11.0913   36.1678 H   0  0  0  0  0  0
   -9.2153    9.0170   35.8950 H   0  0  0  0  0  0
   -7.6360    8.7761   35.0738 H   0  0  0  0  0  0
   -6.5805    9.2196   37.3911 H   0  0  0  0  0  0
   -8.2357    8.9636   38.0404 H   0  0  0  0  0  0
   -8.7887    5.2371   38.3767 H   0  0  0  0  0  0
   -9.7378    6.6201   37.7338 H   0  0  0  0  0  0
   -8.8067    6.8016   39.2592 H   0  0  0  0  0  0
   -8.7802   11.6795   31.7947 H   0  0  0  0  0  0
  -11.2665   12.7912   31.5672 H   0  0  0  0  0  0
  -11.1372   11.0386   31.9395 H   0  0  0  0  0  0
  -11.5505   13.3867   33.8472 H   0  0  0  0  0  0
  -12.4720   11.8475   33.7562 H   0  0  0  0  0  0
  -10.7529   10.6173   34.8889 H   0  0  0  0  0  0
  -10.3482   12.2325   35.5625 H   0  0  0  0  0  0
   -7.1724   15.7349   32.1858 H   0  0  0  0  0  0
   -7.6981   15.6052   29.1635 H   0  0  0  0  0  0
   -6.1767   16.0677   29.9990 H   0  0  0  0  0  0
   -6.3648   13.6424   28.8378 H   0  0  0  0  0  0
   -5.5759   13.8082   30.4431 H   0  0  0  0  0  0
   -7.2338   12.2117   31.0243 H   0  0  0  0  0  0
   -8.3830   12.8156   29.7830 H   0  0  0  0  0  0
   -7.7278   17.9377   31.9267 H   0  0  0  0  0  0
  -10.6725   18.2291   31.8684 H   0  0  0  0  0  0
   -8.4255   20.2762   31.5179 H   0  0  0  0  0  0
   -8.2839   19.0300   33.7515 H   0  0  0  0  0  0
  -10.7443   21.1820   30.9434 H   0  0  0  0  0  0
  -10.1568   21.8974   32.4828 H   0  0  0  0  0  0
  -11.3591   20.5632   32.5137 H   0  0  0  0  0  0
  -12.0100   19.0459   30.2784 H   0  0  0  0  0  0
  -10.7745   18.7179   27.5810 H   0  0  0  0  0  0
  -13.5465   19.6072   28.5708 H   0  0  0  0  0  0
  -13.1425   19.3984   26.8331 H   0  0  0  0  0  0
  -12.9324   17.2115   28.9140 H   0  0  0  0  0  0
  -15.2463   17.8965   28.7472 H   0  0  0  0  0  0
  -14.9673   16.2850   28.0044 H   0  0  0  0  0  0
  -15.1787   17.7309   26.9598 H   0  0  0  0  0  0
  -11.5109   17.0849   26.8677 H   0  0  0  0  0  0
  -12.9891   17.2580   25.8619 H   0  0  0  0  0  0
  -12.7777   15.8120   26.9065 H   0  0  0  0  0  0
   -9.7519   23.0405   27.0046 H   0  0  0  0  0  0
  -10.2021   22.4136   24.0840 H   0  0  0  0  0  0
   -8.6707   22.9144   24.8782 H   0  0  0  0  0  0
   -8.9915   20.3739   23.9807 H   0  0  0  0  0  0
   -8.1174   20.7104   25.5134 H   0  0  0  0  0  0
   -9.7325   19.1679   26.3078 H   0  0  0  0  0  0
  -10.9802   19.7216   25.1402 H   0  0  0  0  0  0
  -10.7429   24.9306   26.4632 H   0  0  0  0  0  0
  -13.6567   24.8584   26.4392 H   0  0  0  0  0  0
  -12.6419   26.9174   27.1579 H   0  0  0  0  0  0
  -11.5284   26.9584   25.7489 H   0  0  0  0  0  0
  -12.4453   28.5591   23.5748 H   0  0  0  0  0  0
  -16.2915   29.2968   25.1679 H   0  0  0  0  0  0
  -15.2351   24.6499   24.9094 H   0  0  0  0  0  0
  -14.0036   24.8458   22.1125 H   0  0  0  0  0  0
  -15.6952   23.2452   21.3689 H   0  0  0  0  0  0
  -14.7840   22.5764   22.7650 H   0  0  0  0  0  0
  -16.7839   23.5902   24.1305 H   0  0  0  0  0  0
  -17.6260   23.4492   22.5501 H   0  0  0  0  0  0
  -17.9957   21.2891   23.0798 H   0  0  0  0  0  0
  -16.2405   21.0167   22.8117 H   0  0  0  0  0  0
  -16.4806   21.9198   25.5392 H   0  0  0  0  0  0
  -17.5986   19.2401   23.3449 H   0  0  0  0  0  0
  -16.6287   20.4643   27.2509 H   0  0  0  0  0  0
  -17.1476   18.6616   26.9176 H   0  0  0  0  0  0
  -15.1951   25.8606   20.4263 H   0  0  0  0  0  0
  -16.8442   27.9940   21.6801 H   0  0  0  0  0  0
  -15.6033   27.6121   18.8746 H   0  0  0  0  0  0
  -16.7642   28.9520   19.1635 H   0  0  0  0  0  0
  -14.3954   30.8087   21.2176 H   0  0  0  0  0  0
  -18.0569   25.2474   21.2196 H   0  0  0  0  0  0
  -20.3734   26.5313   19.7222 H   0  0  0  0  0  0
  -20.7787   24.3000   18.5553 H   0  0  0  0  0  0
  -19.3663   25.2419   17.9683 H   0  0  0  0  0  0
  -20.0532   22.3148   20.4933 H   0  0  0  0  0  0
  -17.1180   24.9817   17.2870 H   0  0  0  0  0  0
  -15.4772   20.6753   19.2349 H   0  0  0  0  0  0
  -14.9114   24.1149   16.7117 H   0  0  0  0  0  0
  -14.0952   21.9756   17.6541 H   0  0  0  0  0  0
  -22.4933   24.1763   21.8474 H   0  0  0  0  0  0
  1  2  1  0  0  0
  1 89  1  0  0  0
  1 90  1  0  0  0
  1 91  1  0  0  0
  2  5  1  0  0  0
  2  3  1  0  0  0
  2 92  1  0  0  0
  3  4  2  0  0  0
  3  9  1  0  0  0
  5  6  1  0  0  0
  5 93  1  0  0  0
  5 94  1  0  0  0
  6  7  1  0  0  0
  6 95  1  0  0  0
  6 96  1  0  0  0
  7  8  1  0  0  0
  8 97  1  0  0  0
  8 98  1  0  0  0
  8 99  1  0  0  0
  9 10  1  0  0  0
  9 15  1  0  0  0
 10 11  1  0  0  0
 10 13  1  0  0  0
 10100  1  0  0  0
 11 12  2  0  0  0
 11 16  1  0  0  0
 13 14  1  0  0  0
 13101  1  0  0  0
 13102  1  0  0  0
 14 15  1  0  0  0
 14103  1  0  0  0
 14104  1  0  0  0
 15105  1  0  0  0
 15106  1  0  0  0
 16 17  1  0  0  0
 16 22  1  0  0  0
 17 18  1  0  0  0
 17 20  1  0  0  0
 17107  1  0  0  0
 18 19  2  0  0  0
 18 23  1  0  0  0
 20 21  1  0  0  0
 20108  1  0  0  0
 20109  1  0  0  0
 21 22  1  0  0  0
 21110  1  0  0  0
 21111  1  0  0  0
 22112  1  0  0  0
 22113  1  0  0  0
 23 24  1  0  0  0
 23114  1  0  0  0
 24 27  1  0  0  0
 24 25  1  0  0  0
 24115  1  0  0  0
 25 26  2  0  0  0
 25 30  1  0  0  0
 27 29  1  0  0  0
 27 28  1  0  0  0
 27116  1  0  0  0
 28117  1  0  0  0
 29118  1  0  0  0
 29119  1  0  0  0
 29120  1  0  0  0
 30 31  1  0  0  0
 30121  1  0  0  0
 31 34  1  0  0  0
 31 32  1  0  0  0
 31122  1  0  0  0
 32 33  2  0  0  0
 32 38  1  0  0  0
 34 35  1  0  0  0
 34123  1  0  0  0
 34124  1  0  0  0
 35 36  1  0  0  0
 35 37  1  0  0  0
 35125  1  0  0  0
 36126  1  0  0  0
 36127  1  0  0  0
 36128  1  0  0  0
 37129  1  0  0  0
 37130  1  0  0  0
 37131  1  0  0  0
 38 39  1  0  0  0
 38 44  1  0  0  0
 39 40  1  0  0  0
 39 42  1  0  0  0
 39132  1  0  0  0
 40 41  2  0  0  0
 40 45  1  0  0  0
 42 43  1  0  0  0
 42133  1  0  0  0
 42134  1  0  0  0
 43 44  1  0  0  0
 43135  1  0  0  0
 43136  1  0  0  0
 44137  1  0  0  0
 44138  1  0  0  0
 45 46  1  0  0  0
 45139  1  0  0  0
 46 49  1  0  0  0
 46 47  1  0  0  0
 46140  1  0  0  0
 47 48  2  0  0  0
 47 55  1  0  0  0
 49 50  1  0  0  0
 49141  1  0  0  0
 49142  1  0  0  0
 50 51  2  0  0  0
 50 52  1  0  0  0
 51 53  1  0  0  0
 52 54  2  0  0  0
 52143  1  0  0  0
 53 54  1  0  0  0
 53144  1  0  0  0
 55 56  1  0  0  0
 55145  1  0  0  0
 56 59  1  0  0  0
 56 57  1  0  0  0
 56146  1  0  0  0
 57 58  2  0  0  0
 57 66  1  0  0  0
 59 60  1  0  0  0
 59147  1  0  0  0
 59148  1  0  0  0
 60 61  1  0  0  0
 60149  1  0  0  0
 60150  1  0  0  0
 61 62  1  0  0  0
 61151  1  0  0  0
 61152  1  0  0  0
 62 63  1  0  0  0
 62153  1  0  0  0
 63 65  1  0  0  0
 63 64  2  0  0  0
 64154  1  0  0  0
 65155  1  0  0  0
 65156  1  0  0  0
 66 67  1  0  0  0
 66157  1  0  0  0
 67 70  1  0  0  0
 67 68  1  0  0  0
 67158  1  0  0  0
 68 69  2  0  0  0
 68 74  1  0  0  0
 70 71  1  0  0  0
 70159  1  0  0  0
 70160  1  0  0  0
 71 72  1  0  0  0
 71 73  2  0  0  0
 72161  1  0  0  0
 74 75  1  0  0  0
 74162  1  0  0  0
 75 78  1  0  0  0
 75 76  1  0  0  0
 75163  1  0  0  0
 76 77  2  0  0  0
 76 88  1  0  0  0
 78 79  1  0  0  0
 78164  1  0  0  0
 78165  1  0  0  0
 79 80  2  0  0  0
 79 81  1  0  0  0
 80 82  1  0  0  0
 80166  1  0  0  0
 81 84  2  0  0  0
 81 83  1  0  0  0
 82 83  1  0  0  0
 83 85  2  0  0  0
 84 86  1  0  0  0
 84167  1  0  0  0
 85 87  1  0  0  0
 85168  1  0  0  0
 86 87  2  0  0  0
 86169  1  0  0  0
 87170  1  0  0  0
 88171  1  0  0  0
M  CHG  1   1   1
M  END
> <s_m_source_file>
../1n5z_ligand.sdf

> <i_m_source_file_index>
1

> <s_epik_input>
W0NIM11TW0NIMl1bQ0gyXVtDQEhdKFtOSDMrXSlDKD1PKU4xW0NAQEhdKFtDSDJdW0NIMl1bQ0gyXTEpQyg9TylOMltDQEBIXShbQ0gyXVtDSDJdW0NIMl0yKUMoPU8pW05IXVtDQEBIXShbQ0BIXShbT0hdKVtDSDNdKUMoPU8pW05IXVtDQEBIXShbQ0gyXVtDSF0oW0NIM10pW0NIM10pQyg9TylOM1tDQEBIXShbQ0gyXVtDSDJdW0NIMl0zKUMoPU8pW05IXVtDQEBIXShbQ0gyXUM0PU5bQ0gyXU49W0NIXTQpQyg9TylbTkhdW0NAQEhdKFtDSDJdW0NIMl1bQ0gyXVtOSF0vQyg9TlxbSF0pW05IMl0pQyg9TylbTkhdW0NAQEhdKFtDSDJdQyg9TylbT0hdKUMoPU8pW05IXVtDQEhdKEMoPU8pW09IXSlbQ0gyXWM1W2NIXVtuSF1jKGM1NilbY0hdW2NIXVtjSF1bY0hdNg==

> <s_epik_cmdline>
J2VwaWtfYXBwJywgJy1pbWFlJywgJ2xpZ2FuZF9wcm8ubWFlJywgJy1vbWFlJywgJ2xpZ2FuZF9wcmVwLm1hZScsICctbXMnLCAnMScsICctcGgnLCAnNycsICctcGh0JywgJzAuNScsICctbnQn

> <s_epik_pKa_notes>
Molecule size exceeds maximum supported for generating protonation states

> <s_epik_Chemistry_Notes>
This compound has an imine and may undergo hydrolysis.

$$$$
