1n7i_ligand
                    3D
 Schrodinger Suite 2020-3.
 25 26  0  0  1  0            999 V2000
   28.7410   42.9880   18.6050 C   0  0  0  0  0  0
   30.2040   42.9620   18.9620 N   0  3  0  0  0  0
   30.5990   44.0970   19.8420 C   0  0  0  0  0  0
   30.5780   45.4320   19.1100 C   0  0  0  0  0  0
   29.1820   45.8330   18.6630 C   0  0  0  0  0  0
   28.7280   45.1740   17.3900 C   0  0  0  0  0  0
   28.5330   45.9550   16.2670 C   0  0  0  0  0  0
   28.1150   45.3690   15.0850 C   0  0  0  0  0  0
   27.8760   43.9940   15.0050 C   0  0  0  0  0  0
   28.0670   43.1600   16.1520 C   0  0  0  0  0  0
   28.5030   43.7870   17.3460 C   0  0  0  0  0  0
   27.4610   43.4860   13.6900 Cl  0  0  0  0  0  0
   27.7990   41.6700   16.1480 Cl  0  0  0  0  0  0
   28.3851   41.9600   18.4419 H   0  0  0  0  0  0
   28.1713   43.4473   19.4262 H   0  0  0  0  0  0
   30.4353   42.0267   19.4928 H   0  0  0  0  0  0
   30.8066   43.0211   18.0437 H   0  0  0  0  0  0
   29.9017   44.1632   20.6902 H   0  0  0  0  0  0
   31.6193   43.9314   20.2182 H   0  0  0  0  0  0
   30.9586   46.2210   19.7753 H   0  0  0  0  0  0
   31.2137   45.3692   18.2145 H   0  0  0  0  0  0
   28.4553   45.5620   19.4430 H   0  0  0  0  0  0
   29.1493   46.9193   18.4929 H   0  0  0  0  0  0
   28.7079   47.0299   16.3119 H   0  0  0  0  0  0
   27.9696   45.9903   14.2013 H   0  0  0  0  0  0
  1  2  1  0  0  0
  1 11  1  0  0  0
  1 14  1  0  0  0
  1 15  1  0  0  0
  2  3  1  0  0  0
  2 16  1  0  0  0
  2 17  1  0  0  0
  3  4  1  0  0  0
  3 18  1  0  0  0
  3 19  1  0  0  0
  4  5  1  0  0  0
  4 20  1  0  0  0
  4 21  1  0  0  0
  5  6  1  0  0  0
  5 22  1  0  0  0
  5 23  1  0  0  0
  6  7  2  0  0  0
  6 11  1  0  0  0
  7  8  1  0  0  0
  7 24  1  0  0  0
  8  9  2  0  0  0
  8 25  1  0  0  0
  9 10  1  0  0  0
  9 12  1  0  0  0
 10 11  2  0  0  0
 10 13  1  0  0  0
M  CHG  1   2   1
M  END
> <s_m_source_file>
../1n7i_ligand.sdf

> <i_m_source_file_index>
1

> <s_epik_input>
W0NIMl0xW0NIMl1bQ0gyXVtOSDIrXVtDSDJdYyhjMTIpYyhDbCljKENsKVtjSF1bY0hdMg==

> <s_epik_cmdline>
J2VwaWtfYXBwJywgJy1pbWFlJywgJ2xpZ2FuZF9wcm8ubWFlJywgJy1vbWFlJywgJ2xpZ2FuZF9wcmVwLm1hZScsICctbXMnLCAnMScsICctcGgnLCAnNycsICctcGh0JywgJzAuNScsICctbnQn

> <r_epik_Ionization_Penalty>
  0.0149

> <r_epik_Ionization_Penalty_Charging>
  0.0149

> <r_epik_Ionization_Penalty_Neutral>
  0.0000

> <r_epik_State_Penalty>
  0.0117

> <r_epik_Charging_Adjusted_Penalty>
0.0266430646304085

> <i_epik_Tot_Q>
1

> <i_epik_Tot_abs_Q>
1

$$$$
