1n7m_ligand
                    3D
 Schrodinger Suite 2020-3.
 94 98  0  0  1  0            999 V2000
  -10.3560 -109.9990   10.3250 C   0  0  0  0  0  0
  -11.0950 -109.1940   11.4260 N   0  3  2  0  0  0
  -11.9490 -108.1050   11.0300 C   0  0  3  0  0  0
  -11.6970 -106.9430   11.8850 C   0  0  0  0  0  0
  -10.7060 -107.2990   12.8050 C   0  0  0  0  0  0
  -10.3280 -108.6810   12.5330 C   0  0  1  0  0  0
   -9.3310 -109.4340   13.2790 C   0  0  0  0  0  0
  -12.4300 -105.5560   11.7800 C   0  0  0  0  0  0
  -10.1080 -106.4250   13.9180 C   0  0  0  0  0  0
   -9.4360 -105.3000   13.7030 C   0  0  0  0  0  0
  -10.7220 -111.4910   13.3960 N   0  0  2  0  0  0
   -9.6400 -110.7290   13.8250 C   0  0  3  0  0  0
   -8.9250 -111.4540   14.8710 C   0  0  0  0  0  0
   -9.6030 -112.6670   15.0570 C   0  0  0  0  0  0
  -10.7290 -112.6720   14.1220 C   0  0  3  0  0  0
  -11.6930 -113.7190   13.9610 C   0  0  0  0  0  0
   -7.6550 -110.9700   15.6310 C   0  0  0  0  0  0
   -9.2400 -113.7820   16.0510 C   0  0  0  0  0  0
   -9.8010 -113.8310   17.2700 C   0  0  0  0  0  0
  -13.2030 -112.8140   12.2030 N   0  0  0  0  0  0
  -12.8210 -113.8040   13.0870 C   0  0  0  0  0  0
  -13.7410 -114.9370   12.9820 C   0  0  0  0  0  0
  -14.6860 -114.6070   12.0060 C   0  0  0  0  0  0
  -14.3260 -113.2600   11.5300 C   0  0  3  0  0  0
  -15.0190 -112.5170   10.5220 C   0  0  0  0  0  0
  -13.6760 -116.2630   13.8020 C   0  0  0  0  0  0
  -15.9070 -115.4960   11.5070 C   0  0  0  0  0  0
  -17.2360 -115.1950   12.2830 C   0  0  0  0  0  0
  -18.3850 -114.7790   11.3690 C   0  0  0  0  0  0
  -18.7720 -113.4600   11.3080 O   0  0  0  0  0  0
  -19.0380 -115.7230   10.6120 O   0  0  0  0  0  0
  -13.7820 -110.3610   10.4800 N   0  0  0  0  0  0
  -14.7700 -111.1990   10.0180 C   0  0  0  0  0  0
  -15.5260 -110.5310    8.9390 C   0  0  0  0  0  0
  -14.9390 -109.2600    8.7760 C   0  0  0  0  0  0
  -13.8520 -109.1640    9.7510 C   0  0  1  0  0  0
  -12.9570 -108.0400    9.9810 C   0  0  0  0  0  0
  -15.3740 -108.1570    7.7540 C   0  0  0  0  0  0
  -16.7540 -111.1270    8.1230 C   0  0  0  0  0  0
  -18.1340 -110.9130    8.8410 C   0  0  0  0  0  0
  -19.1900 -110.2830    7.9310 C   0  0  0  0  0  0
  -20.1010 -111.0840    7.2830 O   0  0  0  0  0  0
  -19.2330 -108.9160    7.7660 O   0  0  0  0  0  0
  -11.0768 -110.3176    9.5575 H   0  0  0  0  0  0
   -9.8827 -110.8848   10.7737 H   0  0  0  0  0  0
   -9.5845 -109.3655    9.8630 H   0  0  0  0  0  0
  -11.7464 -109.9902   11.8156 H   0  0  0  0  0  0
  -12.7202 -108.4544   11.7322 H   0  0  0  0  0  0
   -9.5534 -108.3317   11.8344 H   0  0  0  0  0  0
   -8.4604 -109.6277   12.6352 H   0  0  0  0  0  0
   -9.0150 -108.8532   14.1581 H   0  0  0  0  0  0
  -13.1572 -105.5871   10.9552 H   0  0  0  0  0  0
  -11.6909 -104.7643   11.5876 H   0  0  0  0  0  0
  -12.9547 -105.3462   12.7238 H   0  0  0  0  0  0
  -10.2654 -106.7838   14.9459 H   0  0  0  0  0  0
   -9.2786 -104.9412   12.6751 H   0  0  0  0  0  0
   -9.0367 -104.7269   14.5528 H   0  0  0  0  0  0
  -10.6244 -111.7199   12.3245 H   0  0  0  0  0  0
  -10.2757 -110.2557   14.5878 H   0  0  0  0  0  0
  -10.0933 -113.1448   13.3589 H   0  0  0  0  0  0
  -11.4649 -114.5483   14.6468 H   0  0  0  0  0  0
   -7.3619 -109.9768   15.2600 H   0  0  0  0  0  0
   -6.8333 -111.6816   15.4623 H   0  0  0  0  0  0
   -7.8727 -110.9097   16.7076 H   0  0  0  0  0  0
   -8.5088 -114.5470   15.7509 H   0  0  0  0  0  0
  -10.5322 -113.0660   17.5701 H   0  0  0  0  0  0
   -9.5294 -114.6362   17.9685 H   0  0  0  0  0  0
  -12.7855 -111.8213   11.9788 H   0  0  0  0  0  0
  -13.6847 -113.7052   10.7550 H   0  0  0  0  0  0
  -14.9792 -113.0658    9.5695 H   0  0  0  0  0  0
  -16.0682 -112.3807   10.8231 H   0  0  0  0  0  0
  -12.8201 -116.2259   14.4919 H   0  0  0  0  0  0
  -13.5564 -117.1136   13.1148 H   0  0  0  0  0  0
  -14.6057 -116.3843   14.3773 H   0  0  0  0  0  0
  -16.0900 -115.3017   10.4399 H   0  0  0  0  0  0
  -15.6684 -116.5602   11.6502 H   0  0  0  0  0  0
  -17.5545 -116.0959   12.8279 H   0  0  0  0  0  0
  -17.0662 -114.3756   12.9970 H   0  0  0  0  0  0
  -19.0988 -114.9505   12.1882 H   0  0  0  0  0  0
  -18.2495 -112.7049   11.9137 H   0  0  0  0  0  0
  -18.7285 -116.7774   10.6609 H   0  0  0  0  0  0
  -13.1507 -109.5745    9.0096 H   0  0  0  0  0  0
  -13.6377 -107.1987   10.1782 H   0  0  0  0  0  0
  -12.4649 -107.8932    9.0082 H   0  0  0  0  0  0
  -16.2211 -108.5246    7.1563 H   0  0  0  0  0  0
  -14.5307 -107.9208    7.0884 H   0  0  0  0  0  0
  -15.6759 -107.2506    8.2992 H   0  0  0  0  0  0
  -16.8117 -110.6390    7.1389 H   0  0  0  0  0  0
  -16.6136 -112.2096    7.9878 H   0  0  0  0  0  0
  -18.5237 -111.8831    9.1831 H   0  0  0  0  0  0
  -17.9980 -110.2470    9.7058 H   0  0  0  0  0  0
  -18.5045 -110.3702    7.0751 H   0  0  0  0  0  0
  -20.0658 -112.1754    7.4154 H   0  0  0  0  0  0
  -18.5039 -108.2762    8.2847 H   0  0  0  0  0  0
  1  2  1  0  0  0
  1 44  1  0  0  0
  1 45  1  0  0  0
  1 46  1  0  0  0
  2  3  1  0  0  0
  2  6  1  0  0  0
  2 47  1  0  0  0
  3  4  1  0  0  0
  3 37  1  0  0  0
  3 48  1  0  0  0
  4  5  2  0  0  0
  4  8  1  0  0  0
  5  6  1  0  0  0
  5  9  1  0  0  0
  6  7  1  0  0  0
  6 49  1  0  0  0
  7 12  1  0  0  0
  7 50  1  0  0  0
  7 51  1  0  0  0
  8 52  1  0  0  0
  8 53  1  0  0  0
  8 54  1  0  0  0
  9 10  2  0  0  0
  9 55  1  0  0  0
 10 56  1  0  0  0
 10 57  1  0  0  0
 11 15  1  0  0  0
 11 12  1  0  0  0
 11 58  1  0  0  0
 12 13  1  0  0  0
 12 59  1  0  0  0
 13 14  2  0  0  0
 13 17  1  0  0  0
 14 15  1  0  0  0
 14 18  1  0  0  0
 15 16  1  0  0  0
 15 60  1  0  0  0
 16 21  2  0  0  0
 16 61  1  0  0  0
 17 62  1  0  0  0
 17 63  1  0  0  0
 17 64  1  0  0  0
 18 19  2  0  0  0
 18 65  1  0  0  0
 19 66  1  0  0  0
 19 67  1  0  0  0
 20 24  1  0  0  0
 20 21  1  0  0  0
 20 68  1  0  0  0
 21 22  1  0  0  0
 22 23  2  0  0  0
 22 26  1  0  0  0
 23 24  1  0  0  0
 23 27  1  0  0  0
 24 25  1  0  0  0
 24 69  1  0  0  0
 25 33  1  0  0  0
 25 70  1  0  0  0
 25 71  1  0  0  0
 26 72  1  0  0  0
 26 73  1  0  0  0
 26 74  1  0  0  0
 27 28  1  0  0  0
 27 75  1  0  0  0
 27 76  1  0  0  0
 28 29  1  0  0  0
 28 77  1  0  0  0
 28 78  1  0  0  0
 29 30  1  0  0  0
 29 31  1  0  0  0
 29 79  1  0  0  0
 30 80  1  0  0  0
 31 81  1  0  0  0
 32 36  1  0  0  0
 32 33  2  0  0  0
 33 34  1  0  0  0
 34 35  2  0  0  0
 34 39  1  0  0  0
 35 36  1  0  0  0
 35 38  1  0  0  0
 36 37  1  0  0  0
 36 82  1  0  0  0
 37 83  1  0  0  0
 37 84  1  0  0  0
 38 85  1  0  0  0
 38 86  1  0  0  0
 38 87  1  0  0  0
 39 40  1  0  0  0
 39 88  1  0  0  0
 39 89  1  0  0  0
 40 41  1  0  0  0
 40 90  1  0  0  0
 40 91  1  0  0  0
 41 42  1  0  0  0
 41 43  1  0  0  0
 41 92  1  0  0  0
 42 93  1  0  0  0
 43 94  1  0  0  0
M  CHG  1   2   1
M  END
> <s_m_source_file>
../1n7m_ligand.sdf

> <i_m_source_file_index>
1

> <s_epik_input>
W0NIM11DMT1DKFtDSF09W0NIMl0pW0NIXShbTkBIK10oW0NIM10pW0NIXTEyKVtDSDJdW0NIXTNbTkgyK11bQ0hdKEMoPUMzW0NIM10pW0NIXT1bQ0gyXSkvW0NIXT1DNFxbTkhdW0NIXShDKD1DNFtDSDNdKVtDSDJdW0NIMl1bQ0hdKFtPSF0pW09IXSlbQ0gyXUM1PU5bQ0hdKFtDSDJdMilDKFtDSDNdKT1DNVtDSDJdW0NIMl1bQ0hdKFtPSF0pW09IXQ==

> <s_epik_cmdline>
J2VwaWtfYXBwJywgJy1pbWFlJywgJ2xpZ2FuZF9wcm8ubWFlJywgJy1vbWFlJywgJ2xpZ2FuZF9wcmVwLm1hZScsICctbXMnLCAnMScsICctcGgnLCAnNycsICctcGh0JywgJzAuNScsICctbnQn

> <r_lp_tautomer_probability>
1

> <r_epik_Ionization_Penalty>
  0.1791

> <r_epik_Ionization_Penalty_Charging>
  0.0141

> <r_epik_Ionization_Penalty_Neutral>
  0.1650

> <r_epik_State_Penalty>
 -0.0000

> <r_epik_Charging_Adjusted_Penalty>
0.0140607356654647

> <i_epik_Tot_Q>
1

> <i_epik_Tot_abs_Q>
1

> <s_epik_Chemistry_Notes>
This compound has an imine and may undergo hydrolysis. This compound contains an acetal/aminal-like group ( X-CH(R)-Y where X, Y are N, S, or O) that may be acid/base labile, releasing an aldehyde.

$$$$
