1n7t_ligand
                    3D
 Schrodinger Suite 2020-3.
117120  0  0  1  0            999 V2000
   -2.2440   -7.6330    5.3410 N   0  3  0  0  0  0
   -1.0530   -8.2790    4.7300 C   0  0  2  0  0  0
    0.1040   -7.2940    4.6020 C   0  0  0  0  0  0
    1.1520   -7.4670    5.2260 O   0  0  0  0  0  0
   -1.4430   -8.8200    3.3550 C   0  0  2  0  0  0
   -2.7430   -9.3820    3.3880 O   0  0  0  0  0  0
   -0.4970   -9.8860    2.8420 C   0  0  0  0  0  0
   -0.0950   -6.2590    3.7900 N   0  0  0  0  0  0
    0.9370   -5.2570    3.5920 C   0  0  0  0  0  0
    2.0270   -5.7230    2.6460 C   0  0  0  0  0  0
    2.5680   -6.8160    2.8030 O   0  0  0  0  0  0
    2.3510   -4.8880    1.6620 N   0  0  0  0  0  0
    3.3880   -5.2180    0.6880 C   0  0  2  0  0  0
    3.7380   -4.0080   -0.1730 C   0  0  0  0  0  0
    4.9090   -3.7500   -0.4480 O   0  0  0  0  0  0
    2.9530   -6.3890   -0.2050 C   0  0  0  0  0  0
    1.5260   -6.3110   -0.6630 C   0  0  0  0  0  0
    0.4260   -6.7700    0.0030 C   0  0  0  0  0  0
    1.0460   -5.7520   -1.8920 C   0  0  0  0  0  0
   -0.7090   -6.5270   -0.7350 N   0  3  0  0  0  0
   -0.3540   -5.9030   -1.9020 C   0  0  0  0  0  0
    1.6630   -5.1370   -2.9860 C   0  0  0  0  0  0
   -1.1450   -5.4610   -2.9600 C   0  0  0  0  0  0
    0.8770   -4.6990   -4.0350 C   0  0  0  0  0  0
   -0.5130   -4.8620   -4.0150 C   0  0  0  0  0  0
    2.7190   -3.2660   -0.5980 N   0  0  0  0  0  0
    2.9350   -2.0820   -1.4270 C   0  0  2  0  0  0
    3.5430   -0.9480   -0.6070 C   0  0  0  0  0  0
    3.0560   -0.6220    0.4760 O   0  0  0  0  0  0
    1.6190   -1.6180   -2.0530 C   0  0  0  0  0  0
    0.4980   -1.4420   -1.0420 C   0  0  0  0  0  0
   -0.4560   -2.6210   -1.0130 C   0  0  0  0  0  0
   -1.1370   -2.8580   -2.0320 O   0  0  0  0  0  0
   -0.5210   -3.3060    0.0290 O   0  5  0  0  0  0
    4.6070   -0.3490   -1.1340 N   0  0  0  0  0  0
    5.2860    0.7530   -0.4590 C   0  0  2  0  0  0
    5.3230    1.9890   -1.3520 C   0  0  0  0  0  0
    5.8740    1.9550   -2.4520 O   0  0  0  0  0  0
    6.7090    0.3440   -0.0750 C   0  0  2  0  0  0
    6.7200   -0.9510    0.4990 O   0  0  0  0  0  0
    7.3560    1.2890    0.9140 C   0  0  0  0  0  0
    4.7310    3.0780   -0.8740 N   0  0  0  0  0  0
    4.6940    4.3220   -1.6320 C   0  0  2  0  0  0
    5.9650    5.1350   -1.4080 C   0  0  0  0  0  0
    6.2270    5.6040   -0.3000 O   0  0  0  0  0  0
    3.4660    5.1440   -1.2380 C   0  0  0  0  0  0
    2.1760    4.4940   -1.6350 C   0  0  0  0  0  0
    1.4240    3.6370   -0.8850 C   0  0  0  0  0  0
    1.4900    4.6440   -2.8840 C   0  0  0  0  0  0
    0.3120    3.2440   -1.5900 N   0  3  0  0  0  0
    0.3300    3.8490   -2.8200 C   0  0  0  0  0  0
    1.7440    5.3740   -4.0480 C   0  0  0  0  0  0
   -0.5720    3.7640   -3.8770 C   0  0  0  0  0  0
    0.8460    5.2880   -5.0970 C   0  0  0  0  0  0
   -0.3000    4.4890   -5.0050 C   0  0  0  0  0  0
    6.7520    5.2930   -2.4680 N   0  0  0  0  0  0
    7.9980    6.0450   -2.3910 C   0  0  2  0  0  0
    7.7720    7.5200   -2.7100 C   0  0  0  0  0  0
    8.4120    8.3690   -2.0550 O   0  5  0  0  0  0
    9.0530    5.4760   -3.3600 C   0  0  0  0  0  0
    9.4740    4.0780   -2.9300 C   0  0  0  0  0  0
    8.5230    5.4650   -4.7860 C   0  0  0  0  0  0
    6.9580    7.8130   -3.6090 O   0  0  0  0  0  0
   -1.9786   -7.2381    6.3328 H   0  0  0  0  0  0
   -3.0501   -8.3742    5.4452 H   0  0  0  0  0  0
   -2.5847   -6.8087    4.6972 H   0  0  0  0  0  0
   -0.7359   -9.0941    5.3971 H   0  0  0  0  0  0
   -1.4711   -7.9711    2.6560 H   0  0  0  0  0  0
   -3.5950   -8.7774    3.7322 H   0  0  0  0  0  0
    0.5252   -9.4814    2.8037 H   0  0  0  0  0  0
   -0.8066  -10.1962    1.8331 H   0  0  0  0  0  0
   -0.5226  -10.7544    3.5167 H   0  0  0  0  0  0
   -1.0574   -6.1684    3.2651 H   0  0  0  0  0  0
    0.4878   -4.3468    3.1681 H   0  0  0  0  0  0
    1.4066   -5.0185    4.5577 H   0  0  0  0  0  0
    1.8164   -3.9291    1.5927 H   0  0  0  0  0  0
    4.2600   -5.5048    1.2942 H   0  0  0  0  0  0
    3.5821   -6.4156   -1.1070 H   0  0  0  0  0  0
    3.0649   -7.3332    0.3481 H   0  0  0  0  0  0
    0.5391   -7.2513    0.9856 H   0  0  0  0  0  0
    2.7447   -5.0054   -3.0109 H   0  0  0  0  0  0
   -2.2275   -5.5877   -2.9477 H   0  0  0  0  0  0
    1.3477   -4.2184   -4.8927 H   0  0  0  0  0  0
   -1.1043   -4.5041   -4.8578 H   0  0  0  0  0  0
    1.6977   -3.5593   -0.3134 H   0  0  0  0  0  0
    3.6412   -2.3984   -2.2088 H   0  0  0  0  0  0
    1.7710   -0.6482   -2.5495 H   0  0  0  0  0  0
    1.2831   -2.3598   -2.7925 H   0  0  0  0  0  0
    0.9265   -1.3311   -0.0350 H   0  0  0  0  0  0
   -0.0849   -0.5436   -1.2934 H   0  0  0  0  0  0
    4.9731   -0.7068   -2.1076 H   0  0  0  0  0  0
    4.6914    0.9624    0.4424 H   0  0  0  0  0  0
    7.3072    0.2979   -0.9970 H   0  0  0  0  0  0
    6.2945   -1.8014   -0.0540 H   0  0  0  0  0  0
    7.3635    2.3070    0.4974 H   0  0  0  0  0  0
    8.3890    0.9650    1.1088 H   0  0  0  0  0  0
    6.7859    1.2819    1.8547 H   0  0  0  0  0  0
    4.2614    3.0250    0.1193 H   0  0  0  0  0  0
    4.6326    4.0218   -2.6885 H   0  0  0  0  0  0
    3.4503    5.2795   -0.1465 H   0  0  0  0  0  0
    3.5101    6.1274   -1.7289 H   0  0  0  0  0  0
    1.7498    3.3629    0.1293 H   0  0  0  0  0  0
    2.6330    5.9996   -4.1281 H   0  0  0  0  0  0
   -1.4641    3.1414   -3.8083 H   0  0  0  0  0  0
    1.0339    5.8519   -6.0107 H   0  0  0  0  0  0
   -0.9889    4.4436   -5.8484 H   0  0  0  0  0  0
    6.4417    4.8388   -3.4206 H   0  0  0  0  0  0
    8.3175    5.9270   -1.3451 H   0  0  0  0  0  0
    9.9448    6.1196   -3.3393 H   0  0  0  0  0  0
    9.8530    4.1104   -1.8979 H   0  0  0  0  0  0
   10.2655    3.7111   -3.6000 H   0  0  0  0  0  0
    8.6077    3.4021   -2.9814 H   0  0  0  0  0  0
    8.2255    6.4840   -5.0744 H   0  0  0  0  0  0
    7.6512    4.7970   -4.8480 H   0  0  0  0  0  0
    9.3091    5.1060   -5.4666 H   0  0  0  0  0  0
   -1.6926   -6.8308   -0.3474 H   0  0  0  0  0  0
   -0.4099    2.5492   -1.1360 H   0  0  0  0  0  0
  1  2  1  0  0  0
  1 64  1  0  0  0
  1 65  1  0  0  0
  1 66  1  0  0  0
  2  3  1  0  0  0
  2  5  1  0  0  0
  2 67  1  0  0  0
  3  4  2  0  0  0
  3  8  1  0  0  0
  5  6  1  0  0  0
  5  7  1  0  0  0
  5 68  1  0  0  0
  6 69  1  0  0  0
  7 70  1  0  0  0
  7 71  1  0  0  0
  7 72  1  0  0  0
  8  9  1  0  0  0
  8 73  1  0  0  0
  9 10  1  0  0  0
  9 74  1  0  0  0
  9 75  1  0  0  0
 10 11  2  0  0  0
 10 12  1  0  0  0
 12 13  1  0  0  0
 12 76  1  0  0  0
 13 14  1  0  0  0
 13 16  1  0  0  0
 13 77  1  0  0  0
 14 15  2  0  0  0
 14 26  1  0  0  0
 16 17  1  0  0  0
 16 78  1  0  0  0
 16 79  1  0  0  0
 17 18  2  0  0  0
 17 19  1  0  0  0
 18 20  1  0  0  0
 18 80  1  0  0  0
 19 21  2  0  0  0
 19 22  1  0  0  0
 20 21  1  0  0  0
 20116  1  0  0  0
 21 23  1  0  0  0
 22 24  2  0  0  0
 22 81  1  0  0  0
 23 25  2  0  0  0
 23 82  1  0  0  0
 24 25  1  0  0  0
 24 83  1  0  0  0
 25 84  1  0  0  0
 26 27  1  0  0  0
 26 85  1  0  0  0
 27 28  1  0  0  0
 27 30  1  0  0  0
 27 86  1  0  0  0
 28 29  2  0  0  0
 28 35  1  0  0  0
 30 31  1  0  0  0
 30 87  1  0  0  0
 30 88  1  0  0  0
 31 32  1  0  0  0
 31 89  1  0  0  0
 31 90  1  0  0  0
 32 33  2  0  0  0
 32 34  1  0  0  0
 35 36  1  0  0  0
 35 91  1  0  0  0
 36 37  1  0  0  0
 36 39  1  0  0  0
 36 92  1  0  0  0
 37 38  2  0  0  0
 37 42  1  0  0  0
 39 40  1  0  0  0
 39 41  1  0  0  0
 39 93  1  0  0  0
 40 94  1  0  0  0
 41 95  1  0  0  0
 41 96  1  0  0  0
 41 97  1  0  0  0
 42 43  1  0  0  0
 42 98  1  0  0  0
 43 44  1  0  0  0
 43 46  1  0  0  0
 43 99  1  0  0  0
 44 45  2  0  0  0
 44 56  1  0  0  0
 46 47  1  0  0  0
 46100  1  0  0  0
 46101  1  0  0  0
 47 48  2  0  0  0
 47 49  1  0  0  0
 48 50  1  0  0  0
 48102  1  0  0  0
 49 51  2  0  0  0
 49 52  1  0  0  0
 50 51  1  0  0  0
 50117  1  0  0  0
 51 53  1  0  0  0
 52 54  2  0  0  0
 52103  1  0  0  0
 53 55  2  0  0  0
 53104  1  0  0  0
 54 55  1  0  0  0
 54105  1  0  0  0
 55106  1  0  0  0
 56 57  1  0  0  0
 56107  1  0  0  0
 57 58  1  0  0  0
 57 60  1  0  0  0
 57108  1  0  0  0
 58 59  1  0  0  0
 58 63  2  0  0  0
 60 61  1  0  0  0
 60 62  1  0  0  0
 60109  1  0  0  0
 61110  1  0  0  0
 61111  1  0  0  0
 61112  1  0  0  0
 62113  1  0  0  0
 62114  1  0  0  0
 62115  1  0  0  0
M  CHG  5   1   1  20   1  34  -1  50   1  59  -1
M  END
> <s_m_source_file>
../1n7t_ligand.sdf

> <i_m_source_file_index>
1

> <s_epik_input>
W2NIXTFbY0hdW2NIXVtjSF1jKGMxMilbbkhdW2NIXWMyW0NIMl1bQ0BIXShbTkhdQyg9TylbQ0gyXVtOSF1DKD1PKVtDQEBIXShbTkgzK10pW0NASF0oW09IXSlbQ0gzXSlDKD1PKVtOSF1bQ0BASF0oW0NIMl1bQ0gyXUMoPU8pW09IXSlDKD1PKVtOSF1bQ0BASF0oW0NASF0oW09IXSlbQ0gzXSlDKD1PKVtOSF1bQ0BIXShDKD1PKVtOSF1bQ0BIXShDKD1PKVtPSF0pW0NIXShbQ0gzXSlbQ0gzXSlbQ0gyXWMzW2NIXVtuSF1jKGMzNClbY0hdW2NIXVtjSF1bY0hdNA==

> <s_epik_cmdline>
J2VwaWtfYXBwJywgJy1pbWFlJywgJ2xpZ2FuZF9wcm8ubWFlJywgJy1vbWFlJywgJ2xpZ2FuZF9wcmVwLm1hZScsICctbXMnLCAnMScsICctcGgnLCAnNycsICctcGh0JywgJzAuNScsICctbnQn

> <r_epik_Ionization_Penalty>
  0.0828

> <r_epik_Ionization_Penalty_Charging>
  0.0828

> <r_epik_Ionization_Penalty_Neutral>
  0.0000

> <r_epik_State_Penalty>
  0.0717

> <r_epik_Charging_Adjusted_Penalty>
0.154461134672957

> <i_epik_Tot_Q>
1

> <i_epik_Tot_abs_Q>
5

$$$$
