1n8u_ligand
                    3D
 Schrodinger Suite 2020-3.
 39 38  0  0  1  0            999 V2000
   15.5060    0.4920   -7.0240 O   0  0  0  0  0  0
   15.2670    0.3800   -5.6160 C   0  0  0  0  0  0
   16.4650    0.9730   -4.8880 C   0  0  0  0  0  0
   16.7210    0.3200   -3.5410 C   0  0  0  0  0  0
   18.1880    0.0880   -3.3740 C   0  0  0  0  0  0
   18.6120    0.0260   -1.9100 C   0  0  0  0  0  0
   18.1700   -1.2520   -1.2230 C   0  0  0  0  0  0
   18.8790   -1.4130    0.1190 C   0  0  0  0  0  0
   18.1810   -2.3990    1.0450 C   0  0  0  0  0  0
   18.8010   -2.3310    2.4370 C   0  0  0  0  0  0
   18.0880   -1.3300    3.3240 C   0  0  0  0  0  0
   18.2910   -1.5730    4.8090 C   0  0  0  0  0  0
   17.6030   -0.5430    5.6990 C   0  0  0  0  0  0
   18.1010    0.9010    5.3080 Br  0  0  0  0  0  0
   14.7581    0.1207   -7.7401 H   0  0  0  0  0  0
   14.3519    0.9315   -5.3544 H   0  0  0  0  0  0
   15.1456   -0.6799   -5.3478 H   0  0  0  0  0  0
   17.3687    0.8412   -5.5012 H   0  0  0  0  0  0
   16.2938    2.0454   -4.7131 H   0  0  0  0  0  0
   16.3594    0.9802   -2.7389 H   0  0  0  0  0  0
   16.1887   -0.6414   -3.4925 H   0  0  0  0  0  0
   18.4642   -0.8668   -3.8452 H   0  0  0  0  0  0
   18.7455    0.9073   -3.8515 H   0  0  0  0  0  0
   19.7086    0.0811   -1.8432 H   0  0  0  0  0  0
   18.1685    0.8715   -1.3637 H   0  0  0  0  0  0
   17.0841   -1.2190   -1.0507 H   0  0  0  0  0  0
   18.4140   -2.1144   -1.8607 H   0  0  0  0  0  0
   19.9027   -1.7790   -0.0487 H   0  0  0  0  0  0
   18.9167   -0.4411    0.6327 H   0  0  0  0  0  0
   17.1124   -2.1467    1.1108 H   0  0  0  0  0  0
   18.2932   -3.4183    0.6470 H   0  0  0  0  0  0
   18.7394   -3.3200    2.9145 H   0  0  0  0  0  0
   19.8554   -2.0288    2.3544 H   0  0  0  0  0  0
   18.4582   -0.3175    3.1054 H   0  0  0  0  0  0
   17.0060   -1.3744    3.1310 H   0  0  0  0  0  0
   17.8864   -2.5600    5.0777 H   0  0  0  0  0  0
   19.3655   -1.5413    5.0422 H   0  0  0  0  0  0
   16.5138   -0.6068    5.5592 H   0  0  0  0  0  0
   17.8500   -0.7447    6.7518 H   0  0  0  0  0  0
  1  2  1  0  0  0
  1 15  1  0  0  0
  2  3  1  0  0  0
  2 16  1  0  0  0
  2 17  1  0  0  0
  3  4  1  0  0  0
  3 18  1  0  0  0
  3 19  1  0  0  0
  4  5  1  0  0  0
  4 20  1  0  0  0
  4 21  1  0  0  0
  5  6  1  0  0  0
  5 22  1  0  0  0
  5 23  1  0  0  0
  6  7  1  0  0  0
  6 24  1  0  0  0
  6 25  1  0  0  0
  7  8  1  0  0  0
  7 26  1  0  0  0
  7 27  1  0  0  0
  8  9  1  0  0  0
  8 28  1  0  0  0
  8 29  1  0  0  0
  9 10  1  0  0  0
  9 30  1  0  0  0
  9 31  1  0  0  0
 10 11  1  0  0  0
 10 32  1  0  0  0
 10 33  1  0  0  0
 11 12  1  0  0  0
 11 34  1  0  0  0
 11 35  1  0  0  0
 12 13  1  0  0  0
 12 36  1  0  0  0
 12 37  1  0  0  0
 13 14  1  0  0  0
 13 38  1  0  0  0
 13 39  1  0  0  0
M  END
> <s_m_source_file>
../1n8u_ligand.sdf

> <i_m_source_file_index>
1

> <s_epik_input>
W09IXVtDSDJdW0NIMl1bQ0gyXVtDSDJdW0NIMl1bQ0gyXVtDSDJdW0NIMl1bQ0gyXVtDSDJdW0NIMl1bQ0gyXUJy

> <s_epik_cmdline>
J2VwaWtfYXBwJywgJy1pbWFlJywgJ2xpZ2FuZF9wcm8ubWFlJywgJy1vbWFlJywgJ2xpZ2FuZF9wcmVwLm1hZScsICctbXMnLCAnMScsICctcGgnLCAnNycsICctcGh0JywgJzAuNScsICctbnQn

> <r_lp_tautomer_probability>
1

> <r_epik_Ionization_Penalty>
  0.0000

> <r_epik_Ionization_Penalty_Charging>
  0.0000

> <r_epik_Ionization_Penalty_Neutral>
  0.0000

> <r_epik_State_Penalty>
 -0.0000

> <r_epik_Charging_Adjusted_Penalty>
0

> <i_epik_Tot_Q>
0

> <i_epik_Tot_abs_Q>
0

$$$$
