1n8v_ligand
                    3D
 Schrodinger Suite 2020-3.
 39 38  0  0  1  0            999 V2000
   18.7430   23.9450   24.1990 O   0  0  0  0  0  0
   18.8500   24.0610   25.6100 C   0  0  0  0  0  0
   19.0340   25.5260   25.9950 C   0  0  0  0  0  0
   18.1300   25.9000   27.1620 C   0  0  0  0  0  0
   18.7550   25.5480   28.5040 C   0  0  0  0  0  0
   17.7040   25.5940   29.6090 C   0  0  0  0  0  0
   16.9440   24.2710   29.7340 C   0  0  0  0  0  0
   15.6900   24.3910   30.5990 C   0  0  0  0  0  0
   14.6800   23.2810   30.3060 C   0  0  0  0  0  0
   13.5600   23.2720   31.3410 C   0  0  0  0  0  0
   12.4830   24.3030   31.0310 C   0  0  0  0  0  0
   11.3100   24.2240   31.9910 C   0  0  0  0  0  0
   10.1960   25.2010   31.6200 C   0  0  0  0  0  0
   10.5440   26.7090   32.1190 Br  0  0  0  0  0  0
   18.6053   22.9561   23.7373 H   0  0  0  0  0  0
   17.9342   23.6734   26.0802 H   0  0  0  0  0  0
   19.7162   23.4809   25.9610 H   0  0  0  0  0  0
   20.0798   25.6993   26.2887 H   0  0  0  0  0  0
   18.7838   26.1652   25.1355 H   0  0  0  0  0  0
   17.9396   26.9833   27.1458 H   0  0  0  0  0  0
   17.1763   25.3588   27.0752 H   0  0  0  0  0  0
   19.1800   24.5345   28.4560 H   0  0  0  0  0  0
   19.5521   26.2691   28.7377 H   0  0  0  0  0  0
   18.1934   25.8009   30.5721 H   0  0  0  0  0  0
   16.9758   26.3887   29.3896 H   0  0  0  0  0  0
   16.6331   23.9310   28.7351 H   0  0  0  0  0  0
   17.5980   23.5143   30.1918 H   0  0  0  0  0  0
   15.9697   24.3277   31.6610 H   0  0  0  0  0  0
   15.2021   25.3576   30.4053 H   0  0  0  0  0  0
   14.2388   23.4401   29.3110 H   0  0  0  0  0  0
   15.1892   22.3063   30.3297 H   0  0  0  0  0  0
   13.0871   22.2790   31.3609 H   0  0  0  0  0  0
   13.9760   23.5000   32.3335 H   0  0  0  0  0  0
   12.9115   25.3136   31.1021 H   0  0  0  0  0  0
   12.0996   24.1381   30.0133 H   0  0  0  0  0  0
   10.8919   23.2066   31.9762 H   0  0  0  0  0  0
   11.6519   24.4651   33.0083 H   0  0  0  0  0  0
   10.0686   25.2141   30.5275 H   0  0  0  0  0  0
    9.2561   24.8830   32.0949 H   0  0  0  0  0  0
  1  2  1  0  0  0
  1 15  1  0  0  0
  2  3  1  0  0  0
  2 16  1  0  0  0
  2 17  1  0  0  0
  3  4  1  0  0  0
  3 18  1  0  0  0
  3 19  1  0  0  0
  4  5  1  0  0  0
  4 20  1  0  0  0
  4 21  1  0  0  0
  5  6  1  0  0  0
  5 22  1  0  0  0
  5 23  1  0  0  0
  6  7  1  0  0  0
  6 24  1  0  0  0
  6 25  1  0  0  0
  7  8  1  0  0  0
  7 26  1  0  0  0
  7 27  1  0  0  0
  8  9  1  0  0  0
  8 28  1  0  0  0
  8 29  1  0  0  0
  9 10  1  0  0  0
  9 30  1  0  0  0
  9 31  1  0  0  0
 10 11  1  0  0  0
 10 32  1  0  0  0
 10 33  1  0  0  0
 11 12  1  0  0  0
 11 34  1  0  0  0
 11 35  1  0  0  0
 12 13  1  0  0  0
 12 36  1  0  0  0
 12 37  1  0  0  0
 13 14  1  0  0  0
 13 38  1  0  0  0
 13 39  1  0  0  0
M  END
> <s_m_source_file>
../1n8v_ligand.sdf

> <i_m_source_file_index>
1

> <s_epik_input>
W09IXVtDSDJdW0NIMl1bQ0gyXVtDSDJdW0NIMl1bQ0gyXVtDSDJdW0NIMl1bQ0gyXVtDSDJdW0NIMl1bQ0gyXUJy

> <s_epik_cmdline>
J2VwaWtfYXBwJywgJy1pbWFlJywgJ2xpZ2FuZF9wcm8ubWFlJywgJy1vbWFlJywgJ2xpZ2FuZF9wcmVwLm1hZScsICctbXMnLCAnMScsICctcGgnLCAnNycsICctcGh0JywgJzAuNScsICctbnQn

> <r_lp_tautomer_probability>
1

> <r_epik_Ionization_Penalty>
  0.0000

> <r_epik_Ionization_Penalty_Charging>
  0.0000

> <r_epik_Ionization_Penalty_Neutral>
  0.0000

> <r_epik_State_Penalty>
 -0.0000

> <r_epik_Charging_Adjusted_Penalty>
0

> <i_epik_Tot_Q>
0

> <i_epik_Tot_abs_Q>
0

$$$$
