1n94_ligand
                    3D
 Schrodinger Suite 2020-3.
 84 86  0  0  1  0            999 V2000
   47.6960   52.9350   -1.5700 C   0  0  0  0  0  0
   47.9690   51.4130   -1.6920 C   0  0  0  0  0  0
   49.4790   51.0980   -1.5290 C   0  0  0  0  0  0
   50.3400   51.8830   -2.5440 C   0  0  0  0  0  0
   50.0940   53.4070   -2.4240 C   0  0  0  0  0  0
   48.5870   53.7630   -2.5460 C   0  0  0  0  0  0
   49.7340   49.5860   -1.6560 C   0  0  0  0  0  0
   50.4210   48.9800   -0.4140 C   0  0  0  0  0  0
   51.0880   47.6990   -0.7830 N   0  3  2  0  0  0
   50.5450   46.5510    0.0000 C   0  0  0  0  0  0
   49.4630   45.8440   -0.8420 C   0  0  0  0  0  0
   48.8230   44.6440   -0.1410 C   0  0  0  0  0  0
   48.0000   43.7760   -1.1100 C   0  0  0  0  0  0
   52.6160   47.7450   -0.8390 C   0  0  0  0  0  0
   53.3460   48.3930    0.3360 C   0  0  0  0  0  0
   53.8740   47.5700    1.3900 C   0  0  0  0  0  0
   54.5420   48.1890    2.4960 C   0  0  0  0  0  0
   54.6680   49.6220    2.5340 C   0  0  0  0  0  0
   54.1390   50.4430    1.4620 C   0  0  0  0  0  0
   53.4810   49.8040    0.3750 C   0  0  0  0  0  0
   54.2180   51.9260    1.4090 C   0  0  0  0  0  0
   53.0910   52.7250    1.7800 C   0  0  0  0  0  0
   53.1940   54.1440    1.7270 C   0  0  0  0  0  0
   54.4050   54.7820    1.3070 C   0  0  0  0  0  0
   55.5320   53.9920    0.9310 C   0  0  0  0  0  0
   55.4270   52.5750    0.9870 C   0  0  0  0  0  0
   55.3630   50.1820    3.7340 C   0  0  0  0  0  0
   54.3100   51.5240    5.7660 C   0  0  1  0  0  0
   56.5560   50.4810    3.7010 O   0  0  0  0  0  0
   52.9250   51.5820    6.3730 C   0  0  0  0  0  0
   52.0520   50.8970    5.8700 O   0  0  0  0  0  0
   52.7130   52.3130    7.3310 O   0  5  0  0  0  0
   54.6550   50.3620    4.9050 N   0  0  0  0  0  0
   54.6460   52.8460    5.0700 C   0  0  0  0  0  0
   54.7710   54.0290    6.0200 C   0  0  0  0  0  0
   55.1420   55.5470    5.1620 S   0  0  0  0  0  0
   55.0830   56.6070    6.6160 C   0  0  0  0  0  0
   51.7570   52.2490    2.3720 C   0  0  0  0  0  0
   46.6415   53.1386   -1.8080 H   0  0  0  0  0  0
   47.9103   53.2648   -0.5427 H   0  0  0  0  0  0
   47.4126   50.8768   -0.9091 H   0  0  0  0  0  0
   47.6421   51.0600   -2.6812 H   0  0  0  0  0  0
   49.7833   51.4162   -0.5210 H   0  0  0  0  0  0
   51.4048   51.6828   -2.3538 H   0  0  0  0  0  0
   50.0839   51.5650   -3.5654 H   0  0  0  0  0  0
   50.4529   53.7604   -1.4461 H   0  0  0  0  0  0
   50.6370   53.9303   -3.2248 H   0  0  0  0  0  0
   48.2758   53.5665   -3.5826 H   0  0  0  0  0  0
   48.4737   54.8348   -2.3261 H   0  0  0  0  0  0
   48.7763   49.0630   -1.7947 H   0  0  0  0  0  0
   50.3846   49.3953   -2.5222 H   0  0  0  0  0  0
   51.1731   49.6851   -0.0303 H   0  0  0  0  0  0
   49.6679   48.7877    0.3644 H   0  0  0  0  0  0
   50.7852   47.5285   -1.8267 H   0  0  0  0  0  0
   51.3581   45.8468    0.2300 H   0  0  0  0  0  0
   50.1051   46.9220    0.9375 H   0  0  0  0  0  0
   48.6566   46.5551   -1.0745 H   0  0  0  0  0  0
   49.9088   45.4763   -1.7780 H   0  0  0  0  0  0
   49.6100   44.0135    0.2984 H   0  0  0  0  0  0
   48.1512   44.9993    0.6543 H   0  0  0  0  0  0
   47.5615   42.9293   -0.5616 H   0  0  0  0  0  0
   48.6546   43.3963   -1.9083 H   0  0  0  0  0  0
   47.1958   44.3822   -1.5525 H   0  0  0  0  0  0
   53.0118   46.7203   -0.8975 H   0  0  0  0  0  0
   52.9335   48.3119   -1.7266 H   0  0  0  0  0  0
   53.7672   46.4861    1.3481 H   0  0  0  0  0  0
   54.9513   47.5797    3.3018 H   0  0  0  0  0  0
   53.0755   50.4063   -0.4380 H   0  0  0  0  0  0
   52.3369   54.7547    2.0108 H   0  0  0  0  0  0
   54.4658   55.8698    1.2746 H   0  0  0  0  0  0
   56.4579   54.4667    0.6063 H   0  0  0  0  0  0
   56.2855   51.9666    0.7025 H   0  0  0  0  0  0
   54.9541   51.3246    6.6351 H   0  0  0  0  0  0
   54.3107   49.3536    5.1782 H   0  0  0  0  0  0
   55.6065   52.7490    4.5428 H   0  0  0  0  0  0
   53.8541   53.0914    4.3470 H   0  0  0  0  0  0
   53.8234   54.1660    6.5616 H   0  0  0  0  0  0
   55.5804   53.8373    6.7398 H   0  0  0  0  0  0
   55.2916   57.6460    6.3210 H   0  0  0  0  0  0
   55.8377   56.2738    7.3435 H   0  0  0  0  0  0
   54.0836   56.5489    7.0718 H   0  0  0  0  0  0
   51.7345   51.1493    2.3878 H   0  0  0  0  0  0
   50.9273   52.6240    1.7547 H   0  0  0  0  0  0
   51.6534   52.6326    3.3977 H   0  0  0  0  0  0
  1  2  1  0  0  0
  1  6  1  0  0  0
  1 39  1  0  0  0
  1 40  1  0  0  0
  2  3  1  0  0  0
  2 41  1  0  0  0
  2 42  1  0  0  0
  3  4  1  0  0  0
  3  7  1  0  0  0
  3 43  1  0  0  0
  4  5  1  0  0  0
  4 44  1  0  0  0
  4 45  1  0  0  0
  5  6  1  0  0  0
  5 46  1  0  0  0
  5 47  1  0  0  0
  6 48  1  0  0  0
  6 49  1  0  0  0
  7  8  1  0  0  0
  7 50  1  0  0  0
  7 51  1  0  0  0
  8  9  1  0  0  0
  8 52  1  0  0  0
  8 53  1  0  0  0
  9 10  1  0  0  0
  9 14  1  0  0  0
  9 54  1  0  0  0
 10 11  1  0  0  0
 10 55  1  0  0  0
 10 56  1  0  0  0
 11 12  1  0  0  0
 11 57  1  0  0  0
 11 58  1  0  0  0
 12 13  1  0  0  0
 12 59  1  0  0  0
 12 60  1  0  0  0
 13 61  1  0  0  0
 13 62  1  0  0  0
 13 63  1  0  0  0
 14 15  1  0  0  0
 14 64  1  0  0  0
 14 65  1  0  0  0
 15 16  2  0  0  0
 15 20  1  0  0  0
 16 17  1  0  0  0
 16 66  1  0  0  0
 17 18  2  0  0  0
 17 67  1  0  0  0
 18 19  1  0  0  0
 18 27  1  0  0  0
 19 20  2  0  0  0
 19 21  1  0  0  0
 20 68  1  0  0  0
 21 22  2  0  0  0
 21 26  1  0  0  0
 22 23  1  0  0  0
 22 38  1  0  0  0
 23 24  2  0  0  0
 23 69  1  0  0  0
 24 25  1  0  0  0
 24 70  1  0  0  0
 25 26  2  0  0  0
 25 71  1  0  0  0
 26 72  1  0  0  0
 27 29  2  0  0  0
 27 33  1  0  0  0
 28 30  1  0  0  0
 28 33  1  0  0  0
 28 34  1  0  0  0
 28 73  1  0  0  0
 30 31  2  0  0  0
 30 32  1  0  0  0
 33 74  1  0  0  0
 34 35  1  0  0  0
 34 75  1  0  0  0
 34 76  1  0  0  0
 35 36  1  0  0  0
 35 77  1  0  0  0
 35 78  1  0  0  0
 36 37  1  0  0  0
 37 79  1  0  0  0
 37 80  1  0  0  0
 37 81  1  0  0  0
 38 82  1  0  0  0
 38 83  1  0  0  0
 38 84  1  0  0  0
M  CHG  2   9   1  32  -1
M  END
> <s_m_source_file>
../1n94_ligand.sdf

> <i_m_source_file_index>
1

> <s_epik_input>
W0NIMl0xW0NIMl1bQ0gyXVtDSDJdW0NIMl1bQ0hdMVtDSDJdW0NIMl1bTkBIK10oW0NIMl1bQ0gyXVtDSDJdW0NIM10pW0NIMl1jMltjSF1bY0hdYyhjKFtjSF0yKS1jM2MoW0NIM10pW2NIXVtjSF1bY0hdW2NIXTMpQyg9TylbTkhdW0NASF0oQyg9TylbT0hdKVtDSDJdW0NIMl1TW0NIM10=

> <s_epik_cmdline>
J2VwaWtfYXBwJywgJy1pbWFlJywgJ2xpZ2FuZF9wcm8ubWFlJywgJy1vbWFlJywgJ2xpZ2FuZF9wcmVwLm1hZScsICctbXMnLCAnMScsICctcGgnLCAnNycsICctcGh0JywgJzAuNScsICctbnQn

> <r_epik_Ionization_Penalty>
  0.0113

> <r_epik_Ionization_Penalty_Charging>
  0.0113

> <r_epik_Ionization_Penalty_Neutral>
  0.0000

> <r_epik_State_Penalty>
  0.0085

> <r_epik_Charging_Adjusted_Penalty>
0.0197565976822583

> <i_epik_Tot_Q>
0

> <i_epik_Tot_abs_Q>
2

$$$$
