1n95_ligand
                    3D
 Schrodinger Suite 2020-3.
 67 71  0  0  1  0            999 V2000
   46.6010   46.4380   -3.4140 C   0  0  0  0  0  0
   47.9470   46.9410   -3.7430 N   0  0  0  0  0  0
   48.6270   46.7630   -4.8790 C   0  0  0  0  0  0
   49.8220   47.3410   -4.8720 N   0  3  0  0  0  0
   49.9430   47.9170   -3.6950 C   0  0  0  0  0  0
   48.7700   47.6730   -2.9740 C   0  0  0  0  0  0
   48.3470   48.1030   -1.5510 C   0  0  0  0  0  0
   49.4760   48.5780   -0.6050 C   0  0  2  0  0  0
   49.9860   49.8450   -1.0900 N   0  0  1  0  0  0
   49.6010   51.0270   -0.3570 C   0  0  0  0  0  0
   49.6470   52.2480   -1.1790 C   0  0  0  0  0  0
   50.7700   53.1130   -1.0950 C   0  0  0  0  0  0
   50.8120   54.2890   -1.9100 C   0  0  0  0  0  0
   49.7330   54.5720   -2.8010 C   0  0  0  0  0  0
   49.7890   55.7460   -3.6060 C   0  0  0  0  0  0
   49.8030   56.7240   -4.1910 N   0  0  0  0  0  0
   48.6040   53.7130   -2.8850 C   0  0  0  0  0  0
   48.5680   52.5460   -2.0700 C   0  0  0  0  0  0
   50.5820   47.4720   -0.4130 C   0  0  0  0  0  0
   50.4930   46.3350   -0.9000 O   0  0  0  0  0  0
   51.5930   47.7630    0.4060 N   0  0  0  0  0  0
   51.6850   47.0380    1.6000 C   0  0  0  0  0  0
   53.0210   46.9850    2.2380 C   0  0  0  0  0  0
   53.9880   48.0750    1.9450 C   0  0  0  0  0  0
   53.7510   48.9900    0.9650 C   0  0  0  0  0  0
   52.5430   48.8860    0.0740 C   0  0  0  0  0  0
   54.6850   50.0940    0.7650 C   0  0  0  0  0  0
   55.9610   49.8600    0.1510 C   0  0  0  0  0  0
   56.8750   50.9330   -0.0450 C   0  0  0  0  0  0
   56.5650   52.2340    0.3760 C   0  0  0  0  0  0
   55.3120   52.4860    0.9940 C   0  0  0  0  0  0
   55.0010   53.8080    1.4070 C   0  0  0  0  0  0
   53.7430   54.0840    2.0110 C   0  0  0  0  0  0
   52.7880   53.0520    2.2100 C   0  0  0  0  0  0
   53.0760   51.7300    1.8140 C   0  0  0  0  0  0
   54.3570   51.4170    1.2100 C   0  0  0  0  0  0
   55.1330   48.1510    2.8500 C   0  0  0  0  0  0
   56.1400   48.1620    3.4450 N   0  0  0  0  0  0
   46.2020   45.8722   -4.2688 H   0  0  0  0  0  0
   45.9364   47.2863   -3.1933 H   0  0  0  0  0  0
   46.6603   45.7801   -2.5344 H   0  0  0  0  0  0
   48.2391   46.1992   -5.7274 H   0  0  0  0  0  0
   50.8052   48.4841   -3.3441 H   0  0  0  0  0  0
   47.6391   48.9424   -1.6168 H   0  0  0  0  0  0
   47.8652   47.2563   -1.0401 H   0  0  0  0  0  0
   49.0844   48.8305    0.3914 H   0  0  0  0  0  0
   51.0857   49.8291   -1.0709 H   0  0  0  0  0  0
   48.5719   50.9098    0.0134 H   0  0  0  0  0  0
   50.2831   51.1690    0.4942 H   0  0  0  0  0  0
   51.5918   52.8838   -0.4167 H   0  0  0  0  0  0
   51.6644   54.9657   -1.8506 H   0  0  0  0  0  0
   47.7806   53.9433   -3.5610 H   0  0  0  0  0  0
   47.7114   51.8742   -2.1254 H   0  0  0  0  0  0
   51.0107   47.4784    2.3493 H   0  0  0  0  0  0
   51.3969   45.9923    1.4171 H   0  0  0  0  0  0
   52.9057   46.9971    3.3319 H   0  0  0  0  0  0
   53.5362   46.0619    1.9339 H   0  0  0  0  0  0
   52.9210   48.7556   -0.9508 H   0  0  0  0  0  0
   52.0147   49.8478    0.1504 H   0  0  0  0  0  0
   56.2319   48.8534   -0.1674 H   0  0  0  0  0  0
   57.8318   50.7403   -0.5304 H   0  0  0  0  0  0
   57.2793   53.0443    0.2302 H   0  0  0  0  0  0
   55.7247   54.6100    1.2616 H   0  0  0  0  0  0
   53.5090   55.1011    2.3253 H   0  0  0  0  0  0
   51.8278   53.2831    2.6711 H   0  0  0  0  0  0
   52.3362   50.9433    1.9617 H   0  0  0  0  0  0
   50.4742   47.2665   -5.7547 H   0  0  0  0  0  0
  1  2  1  0  0  0
  1 39  1  0  0  0
  1 40  1  0  0  0
  1 41  1  0  0  0
  2  3  1  0  0  0
  2  6  1  0  0  0
  3  4  2  0  0  0
  3 42  1  0  0  0
  4  5  1  0  0  0
  4 67  1  0  0  0
  5  6  2  0  0  0
  5 43  1  0  0  0
  6  7  1  0  0  0
  7  8  1  0  0  0
  7 44  1  0  0  0
  7 45  1  0  0  0
  8  9  1  0  0  0
  8 19  1  0  0  0
  8 46  1  0  0  0
  9 10  1  0  0  0
  9 47  1  0  0  0
 10 11  1  0  0  0
 10 48  1  0  0  0
 10 49  1  0  0  0
 11 12  2  0  0  0
 11 18  1  0  0  0
 12 13  1  0  0  0
 12 50  1  0  0  0
 13 14  2  0  0  0
 13 51  1  0  0  0
 14 15  1  0  0  0
 14 17  1  0  0  0
 15 16  3  0  0  0
 17 18  2  0  0  0
 17 52  1  0  0  0
 18 53  1  0  0  0
 19 20  2  0  0  0
 19 21  1  0  0  0
 21 22  1  0  0  0
 21 26  1  0  0  0
 22 23  1  0  0  0
 22 54  1  0  0  0
 22 55  1  0  0  0
 23 24  1  0  0  0
 23 56  1  0  0  0
 23 57  1  0  0  0
 24 25  2  0  0  0
 24 37  1  0  0  0
 25 26  1  0  0  0
 25 27  1  0  0  0
 26 58  1  0  0  0
 26 59  1  0  0  0
 27 28  2  0  0  0
 27 36  1  0  0  0
 28 29  1  0  0  0
 28 60  1  0  0  0
 29 30  2  0  0  0
 29 61  1  0  0  0
 30 31  1  0  0  0
 30 62  1  0  0  0
 31 32  1  0  0  0
 31 36  2  0  0  0
 32 33  2  0  0  0
 32 63  1  0  0  0
 33 34  1  0  0  0
 33 64  1  0  0  0
 34 35  2  0  0  0
 34 65  1  0  0  0
 35 36  1  0  0  0
 35 66  1  0  0  0
 37 38  3  0  0  0
M  CHG  1   4   1
M  END
> <s_m_source_file>
../1n95_ligand.sdf

> <i_m_source_file_index>
1

> <s_epik_input>
TiNDYyhbY0hdW2NIXTEpW2NIXVtjSF1jMVtDSDJdW05IMitdW0NAQEhdKFtDSDJdYzJbY0hdbltjSF1uMltDSDNdKUMoPU8pTjNbQ0gyXVtDSDJdQyhDI04pPUMoW0NIMl0zKWMoW2NIXVtjSF1bY0hdNCljKGM0NSlbY0hdW2NIXVtjSF1bY0hdNQ==

> <s_epik_cmdline>
J2VwaWtfYXBwJywgJy1pbWFlJywgJ2xpZ2FuZF9wcm8ubWFlJywgJy1vbWFlJywgJ2xpZ2FuZF9wcmVwLm1hZScsICctbXMnLCAnMScsICctcGgnLCAnNycsICctcGh0JywgJzAuNScsICctbnQn

> <r_lp_tautomer_probability>
1

> <r_epik_Ionization_Penalty>
  0.1935

> <r_epik_Ionization_Penalty_Charging>
  0.0000

> <r_epik_Ionization_Penalty_Neutral>
  0.1935

> <r_epik_State_Penalty>
 -0.0000

> <r_epik_Charging_Adjusted_Penalty>
0

> <i_epik_Tot_Q>
1

> <i_epik_Tot_abs_Q>
1

$$$$
