1n9m_ligand
                    3D
 Schrodinger Suite 2020-3.
 31 32  0  0  1  0            999 V2000
   17.5910   19.2890   32.1550 C   0  0  0  0  0  0
   18.3220   20.2080   31.6920 O   0  0  0  0  0  0
   16.3490   19.2480   31.9060 O   0  5  0  0  0  0
   18.2070   18.2580   33.0180 C   0  0  0  0  0  0
   19.7000   18.0010   32.7400 C   0  0  0  0  0  0
   19.8460   17.1860   31.4540 C   0  0  0  0  0  0
   21.2610   16.5720   31.2820 C   0  0  0  0  0  0
   21.3960   15.6170   30.0880 C   0  0  2  0  0  0
   20.7650   13.9110   30.3710 S   0  0  0  0  0  0
   21.4720   13.4010   28.7790 C   0  0  0  0  0  0
   22.8320   14.0730   28.6830 C   0  0  2  0  0  0
   23.9080   13.3210   29.3080 N   0  0  0  0  0  0
   24.4610   14.0040   30.3260 C   0  0  0  0  0  0
   25.3840   13.5830   31.0710 O   0  0  0  0  0  0
   23.8270   15.1890   30.4850 N   0  0  0  0  0  0
   22.7740   15.3920   29.4990 C   0  0  2  0  0  0
   18.1261   18.5652   34.0711 H   0  0  0  0  0  0
   17.6855   17.3002   32.8744 H   0  0  0  0  0  0
   20.2225   18.9623   32.6263 H   0  0  0  0  0  0
   20.1385   17.4424   33.5800 H   0  0  0  0  0  0
   19.1214   16.3584   31.4602 H   0  0  0  0  0  0
   19.6553   17.8338   30.5857 H   0  0  0  0  0  0
   21.9948   17.3779   31.1332 H   0  0  0  0  0  0
   21.5239   15.9986   32.1831 H   0  0  0  0  0  0
   20.9332   16.3551   29.4164 H   0  0  0  0  0  0
   21.5698   12.3056   28.7553 H   0  0  0  0  0  0
   20.8111   13.7278   27.9627 H   0  0  0  0  0  0
   23.0704   14.1462   27.6116 H   0  0  0  0  0  0
   24.1721   12.3220   28.9308 H   0  0  0  0  0  0
   24.0257   15.9599   31.2441 H   0  0  0  0  0  0
   22.9664   16.3267   28.9520 H   0  0  0  0  0  0
  1  2  2  0  0  0
  1  3  1  0  0  0
  1  4  1  0  0  0
  4  5  1  0  0  0
  4 17  1  0  0  0
  4 18  1  0  0  0
  5  6  1  0  0  0
  5 19  1  0  0  0
  5 20  1  0  0  0
  6  7  1  0  0  0
  6 21  1  0  0  0
  6 22  1  0  0  0
  7  8  1  0  0  0
  7 23  1  0  0  0
  7 24  1  0  0  0
  8  9  1  0  0  0
  8 16  1  0  0  0
  8 25  1  0  0  0
  9 10  1  0  0  0
 10 11  1  0  0  0
 10 26  1  0  0  0
 10 27  1  0  0  0
 11 12  1  0  0  0
 11 16  1  0  0  0
 11 28  1  0  0  0
 12 13  1  0  0  0
 12 29  1  0  0  0
 13 14  2  0  0  0
 13 15  1  0  0  0
 15 16  1  0  0  0
 15 30  1  0  0  0
 16 31  1  0  0  0
M  CHG  1   3  -1
M  END
> <s_m_source_file>
../1n9m_ligand.sdf

> <i_m_source_file_index>
1

> <s_epik_input>
Tz1DKFtPSF0pW0NIMl1bQ0gyXVtDSDJdW0NIMl1bQ0BIXShTW0NIMl0xKVtDQEhdKFtDQEhdMTIpW05IXUMoPU8pW05IXTI=

> <s_epik_cmdline>
J2VwaWtfYXBwJywgJy1pbWFlJywgJ2xpZ2FuZF9wcm8ubWFlJywgJy1vbWFlJywgJ2xpZ2FuZF9wcmVwLm1hZScsICctbXMnLCAnMScsICctcGgnLCAnNycsICctcGh0JywgJzAuNScsICctbnQn

> <r_lp_tautomer_probability>
1

> <r_epik_Ionization_Penalty>
  0.0045

> <r_epik_Ionization_Penalty_Charging>
  0.0044

> <r_epik_Ionization_Penalty_Neutral>
  0.0000

> <r_epik_State_Penalty>
 -0.0000

> <r_epik_Charging_Adjusted_Penalty>
0.00443833021372702

> <i_epik_Tot_Q>
-1

> <i_epik_Tot_abs_Q>
1

$$$$
