1nax_ligand
                    3D
 Schrodinger Suite 2020-3.
 38 39  0  0  1  0            999 V2000
    8.2580   16.3210   33.8390 O   0  5  0  0  0  0
    8.9500   17.3480   33.2920 C   0  0  0  0  0  0
   10.0930   17.6900   33.6300 O   0  0  0  0  0  0
    8.2520   18.0970   32.1980 C   0  0  0  0  0  0
    6.8560   18.7450   32.3280 C   0  0  0  0  0  0
    5.9550   18.4020   31.2500 C   0  0  0  0  0  0
    4.6380   18.9230   31.2540 C   0  0  0  0  0  0
    4.1690   19.8260   32.3280 C   0  0  0  0  0  0
    2.8870   20.2670   32.2250 O   0  0  0  0  0  0
    2.5960   21.5540   31.5360 C   0  0  0  0  0  0
    3.3160   22.0000   30.3140 C   0  0  0  0  0  0
    3.0070   23.2200   29.6950 C   0  0  0  0  0  0
    1.9860   24.0590   30.2110 C   0  0  0  0  0  0
    1.7370   25.2190   29.5600 O   0  0  0  0  0  0
    1.2170   23.6990   31.4260 C   0  0  0  0  0  0
    1.5420   22.4120   32.0850 C   0  0  0  0  0  0
    0.1000   24.6810   31.9310 C   0  0  0  0  0  0
    0.7080   25.4970   33.0900 C   0  0  0  0  0  0
   -1.1790   23.9030   32.4340 C   0  0  0  0  0  0
    5.0540   20.1650   33.3680 C   0  0  0  0  0  0
    6.3950   19.6370   33.3930 C   0  0  0  0  0  0
    4.5760   21.2190   34.6190 Cl  0  0  0  0  0  0
    3.5950   18.4660   29.9590 Cl  0  0  0  0  0  0
    8.8646   18.9589   31.8951 H   0  0  0  0  0  0
    8.1034   17.4314   31.3349 H   0  0  0  0  0  0
    6.2862   17.7490   30.4425 H   0  0  0  0  0  0
    4.0974   21.3680   29.8920 H   0  0  0  0  0  0
    3.5582   23.5274   28.8063 H   0  0  0  0  0  0
    2.3123   25.4785   28.6591 H   0  0  0  0  0  0
    0.9975   22.1036   32.9775 H   0  0  0  0  0  0
   -0.2148   25.3473   31.1143 H   0  0  0  0  0  0
    1.5978   26.0356   32.7319 H   0  0  0  0  0  0
    0.9945   24.8174   33.9061 H   0  0  0  0  0  0
   -0.0347   26.2199   33.4585 H   0  0  0  0  0  0
   -1.6065   23.3239   31.6023 H   0  0  0  0  0  0
   -1.9252   24.6229   32.8012 H   0  0  0  0  0  0
   -0.8960   23.2204   33.2488 H   0  0  0  0  0  0
    7.0682   19.9030   34.2080 H   0  0  0  0  0  0
  1  2  1  0  0  0
  2  3  2  0  0  0
  2  4  1  0  0  0
  4  5  1  0  0  0
  4 24  1  0  0  0
  4 25  1  0  0  0
  5  6  2  0  0  0
  5 21  1  0  0  0
  6  7  1  0  0  0
  6 26  1  0  0  0
  7  8  2  0  0  0
  7 23  1  0  0  0
  8  9  1  0  0  0
  8 20  1  0  0  0
  9 10  1  0  0  0
 10 11  2  0  0  0
 10 16  1  0  0  0
 11 12  1  0  0  0
 11 27  1  0  0  0
 12 13  2  0  0  0
 12 28  1  0  0  0
 13 14  1  0  0  0
 13 15  1  0  0  0
 14 29  1  0  0  0
 15 16  2  0  0  0
 15 17  1  0  0  0
 16 30  1  0  0  0
 17 18  1  0  0  0
 17 19  1  0  0  0
 17 31  1  0  0  0
 18 32  1  0  0  0
 18 33  1  0  0  0
 18 34  1  0  0  0
 19 35  1  0  0  0
 19 36  1  0  0  0
 19 37  1  0  0  0
 20 21  2  0  0  0
 20 22  1  0  0  0
 21 38  1  0  0  0
M  CHG  1   1  -1
M  END
> <s_m_source_file>
../1nax_ligand.sdf

> <i_m_source_file_index>
1

> <s_epik_input>
W09IXUMoPU8pW0NIMl1jMVtjSF1jKENsKWMoYyhDbClbY0hdMSlPYzJbY0hdW2NIXWMoW09IXSljKFtjSF0yKVtDSF0oW0NIM10pW0NIM10=

> <s_epik_cmdline>
J2VwaWtfYXBwJywgJy1pbWFlJywgJ2xpZ2FuZF9wcm8ubWFlJywgJy1vbWFlJywgJ2xpZ2FuZF9wcmVwLm1hZScsICctbXMnLCAnMScsICctcGgnLCAnNycsICctcGh0JywgJzAuNScsICctbnQn

> <r_lp_tautomer_probability>
1

> <r_epik_Ionization_Penalty>
  0.0023

> <r_epik_Ionization_Penalty_Charging>
  0.0003

> <r_epik_Ionization_Penalty_Neutral>
  0.0020

> <r_epik_State_Penalty>
 -0.0000

> <r_epik_Charging_Adjusted_Penalty>
0.000328207066840138

> <i_epik_Tot_Q>
-1

> <i_epik_Tot_abs_Q>
1

$$$$
