1nc6_ligand
                    3D
 Schrodinger Suite 2020-3.
 62 64  0  0  1  0            999 V2000
   42.9260   24.9830   51.9510 N   0  0  0  0  0  0
   42.1130   26.1700   51.9010 C   0  0  0  0  0  0
   42.6050   24.2470   50.7510 C   0  0  1  0  0  0
   41.6090   24.9950   49.8970 C   0  0  0  0  0  0
   41.2700   26.1940   50.6340 C   0  0  1  0  0  0
   43.8730   23.9470   49.9320 C   0  0  1  0  0  0
   44.9350   24.3180   50.3610 O   0  5  0  0  0  0
   43.8700   22.4760   49.5650 N   0  3  0  0  0  0
   44.9500   21.7580   48.7840 C   0  0  1  0  0  0
   44.9510   20.2810   49.3230 C   0  0  0  0  0  0
   45.2090   20.3250   50.8320 C   0  0  0  0  0  0
   45.2130   18.9730   51.4780 C   0  0  0  0  0  0
   45.4730   19.1640   52.9210 N   0  0  0  0  0  0
   45.6300   17.9970   53.8330 C   0  0  0  0  0  0
   46.2850   18.2900   55.1370 N   0  0  0  0  0  0
   45.4720   16.8200   53.0350 N   0  3  0  0  0  0
   45.7980   21.0240   46.6110 O   0  0  0  0  0  0
   43.5470   24.0540   46.8260 N   0  0  0  0  0  0
   44.6650   23.2600   46.8320 C   0  0  0  0  0  0
   46.0500   24.1250   46.2890 S   0  0  0  0  0  0
   43.7950   25.3430   46.3970 C   0  0  0  0  0  0
   45.1580   25.5940   46.0400 C   0  0  0  0  0  0
   45.5590   26.8770   45.5820 C   0  0  0  0  0  0
   44.5980   27.9330   45.4730 C   0  0  0  0  0  0
   43.2220   27.7050   45.8250 C   0  0  0  0  0  0
   42.8180   26.3890   46.2920 C   0  0  0  0  0  0
   39.8930   26.1590   50.9890 O   0  0  0  0  0  0
   42.8600   24.1170   53.0760 C   0  0  0  0  0  0
   42.4450   24.6250   54.4730 C   0  0  0  0  0  0
   43.1830   22.9060   53.0060 O   0  0  0  0  0  0
   44.6940   21.7730   47.2670 C   0  0  2  0  0  0
   41.4432   26.1926   52.7733 H   0  0  0  0  0  0
   42.7608   27.0589   51.9130 H   0  0  0  0  0  0
   42.1411   23.3208   51.1210 H   0  0  0  0  0  0
   42.0685   25.2412   48.9284 H   0  0  0  0  0  0
   40.7216   24.3661   49.7326 H   0  0  0  0  0  0
   41.4083   27.0865   50.0061 H   0  0  0  0  0  0
   44.0633   24.6753   49.1299 H   0  0  0  0  0  0
   43.8396   21.8694   50.4821 H   0  0  0  0  0  0
   42.9863   22.2536   48.9489 H   0  0  0  0  0  0
   45.9030   22.2891   48.9246 H   0  0  0  0  0  0
   43.9755   19.8155   49.1188 H   0  0  0  0  0  0
   45.7434   19.7075   48.8197 H   0  0  0  0  0  0
   46.1904   20.7838   51.0230 H   0  0  0  0  0  0
   44.4243   20.9209   51.3210 H   0  0  0  0  0  0
   44.2358   18.4912   51.3262 H   0  0  0  0  0  0
   46.0015   18.3531   51.0263 H   0  0  0  0  0  0
   45.5532   20.1797   53.3357 H   0  0  0  0  0  0
   46.2642   19.3110   55.5458 H   0  0  0  0  0  0
   46.7899   17.4855   55.6919 H   0  0  0  0  0  0
   44.9278   16.8716   52.0805 H   0  0  0  0  0  0
   45.9408   19.9547   46.8258 H   0  0  0  0  0  0
   46.5996   27.0582   45.3131 H   0  0  0  0  0  0
   44.9112   28.9159   45.1210 H   0  0  0  0  0  0
   42.4910   28.5094   45.7425 H   0  0  0  0  0  0
   41.7791   26.1978   46.5608 H   0  0  0  0  0  0
   39.4500   26.9906   51.5566 H   0  0  0  0  0  0
   42.1853   25.6922   54.4128 H   0  0  0  0  0  0
   43.2807   24.4901   55.1754 H   0  0  0  0  0  0
   41.5732   24.0548   54.8264 H   0  0  0  0  0  0
   43.7635   21.2676   46.9692 H   0  0  0  0  0  0
   45.8948   15.8635   53.3760 H   0  0  0  0  0  0
  1  2  1  0  0  0
  1  3  1  0  0  0
  1 28  1  0  0  0
  2  5  1  0  0  0
  2 32  1  0  0  0
  2 33  1  0  0  0
  3  4  1  0  0  0
  3  6  1  0  0  0
  3 34  1  0  0  0
  4  5  1  0  0  0
  4 35  1  0  0  0
  4 36  1  0  0  0
  5 27  1  0  0  0
  5 37  1  0  0  0
  6  7  1  0  0  0
  6  8  1  0  0  0
  6 38  1  0  0  0
  8  9  1  0  0  0
  8 39  1  0  0  0
  8 40  1  0  0  0
  9 10  1  0  0  0
  9 31  1  0  0  0
  9 41  1  0  0  0
 10 11  1  0  0  0
 10 42  1  0  0  0
 10 43  1  0  0  0
 11 12  1  0  0  0
 11 44  1  0  0  0
 11 45  1  0  0  0
 12 13  1  0  0  0
 12 46  1  0  0  0
 12 47  1  0  0  0
 13 14  1  0  0  0
 13 48  1  0  0  0
 14 15  1  0  0  0
 14 16  2  0  0  0
 15 49  1  0  0  0
 15 50  1  0  0  0
 16 51  1  0  0  0
 16 62  1  0  0  0
 17 31  1  0  0  0
 17 52  1  0  0  0
 18 19  2  0  0  0
 18 21  1  0  0  0
 19 20  1  0  0  0
 19 31  1  0  0  0
 20 22  1  0  0  0
 21 22  2  0  0  0
 21 26  1  0  0  0
 22 23  1  0  0  0
 23 24  2  0  0  0
 23 53  1  0  0  0
 24 25  1  0  0  0
 24 54  1  0  0  0
 25 26  2  0  0  0
 25 55  1  0  0  0
 26 56  1  0  0  0
 27 57  1  0  0  0
 28 29  1  0  0  0
 28 30  2  0  0  0
 29 58  1  0  0  0
 29 59  1  0  0  0
 29 60  1  0  0  0
 31 61  1  0  0  0
M  CHG  3   7  -1   8   1  16   1
M  END
> <s_m_source_file>
../1nc6_ligand.sdf

> <i_m_source_file_index>
1

> <s_epik_input>
W0NIM11DKD1PKU4xW0NIMl1bQ0BIXShbT0hdKVtDSDJdW0NASF0xW0NAQEhdKFtPSF0pW05IMitdW0NAQEhdKFtDSDJdW0NIMl1bQ0gyXVtOSF0vQyhbTkgyXSk9TlxbSF0pW0NASF0oW09IXSljKG4yKXNjKGMyMylbY0hdW2NIXVtjSF1bY0hdMw==

> <s_epik_cmdline>
J2VwaWtfYXBwJywgJy1pbWFlJywgJ2xpZ2FuZF9wcm8ubWFlJywgJy1vbWFlJywgJ2xpZ2FuZF9wcmVwLm1hZScsICctbXMnLCAnMScsICctcGgnLCAnNycsICctcGh0JywgJzAuNScsICctbnQn

> <r_epik_Ionization_Penalty>
  0.3638

> <r_epik_Ionization_Penalty_Charging>
  0.3638

> <r_epik_Ionization_Penalty_Neutral>
  0.0000

> <r_epik_State_Penalty>
  0.5439

> <r_epik_Charging_Adjusted_Penalty>
0.907665757505045

> <i_epik_Tot_Q>
1

> <i_epik_Tot_abs_Q>
3

> <s_epik_Chemistry_Notes>
This compound has an imine and may undergo hydrolysis. This compound contains an acetal/aminal-like group ( X-CH(R)-Y where X, Y are N, S, or O) that may be acid/base labile, releasing an aldehyde.

$$$$
