1nde_ligand
                    3D
 Schrodinger Suite 2020-3.
 63 66  0  0  1  0            999 V2000
  110.7370    5.5320 -105.3590 C   0  0  0  0  0  0
  110.9210    4.5570 -104.4530 N   0  0  0  0  0  0
  109.6060    6.2620 -105.4990 N   0  0  0  0  0  0
  111.6410    5.9560 -106.2990 N   0  0  0  0  0  0
  112.1510    3.7920 -104.3130 C   0  0  0  0  0  0
  109.9180    4.1440 -103.4700 C   0  0  0  0  0  0
  109.3710    7.2530 -106.3860 C   0  0  0  0  0  0
  111.4330    6.9410 -107.2020 C   0  0  0  0  0  0
  112.1770    2.3680 -103.6560 C   0  0  0  0  0  0
  109.8560    2.6970 -102.9320 C   0  0  0  0  0  0
  110.3030    7.5170 -107.1710 N   0  0  0  0  0  0
  108.3340    8.0500 -106.6270 N   0  0  0  0  0  0
  112.2390    7.7050 -108.4440 S   0  0  0  0  0  0
  111.1930    2.2550 -102.5700 N   0  3  0  0  0  0
  107.0840    8.1290 -106.0060 C   0  0  0  0  0  0
  113.6520    7.9070 -109.4800 C   0  0  0  0  0  0
  106.3950    9.3140 -106.7320 C   0  0  0  0  0  0
  112.5460    8.6530 -110.2420 C   0  0  0  0  0  0
  105.0900    9.5030 -106.1080 C   0  0  0  0  0  0
  112.5190    9.4020 -111.5480 C   0  0  0  0  0  0
  103.9240    9.4400 -106.8730 C   0  0  0  0  0  0
  105.0330    9.7310 -104.7160 C   0  0  0  0  0  0
  110.9910    9.8030 -111.5100 C   0  0  0  0  0  0
  102.6810    9.6030 -106.2350 C   0  0  0  0  0  0
  103.8050    9.8910 -104.0920 C   0  0  0  0  0  0
  110.5360   11.1320 -111.7190 C   0  0  0  0  0  0
  109.9960    8.7960 -111.2300 C   0  0  0  0  0  0
  102.6240    9.8210 -104.8370 C   0  0  0  0  0  0
  109.1400   11.4420 -111.6570 C   0  0  0  0  0  0
  108.6200    9.1160 -111.1700 C   0  0  0  0  0  0
  101.4320    9.9610 -104.2060 O   0  0  0  0  0  0
  108.1900   10.4320 -111.3820 C   0  0  0  0  0  0
  106.5190   10.8070 -111.3060 Cl  0  0  0  0  0  0
  112.5849    3.6103 -105.3073 H   0  0  0  0  0  0
  112.8667    4.3577 -103.6984 H   0  0  0  0  0  0
  110.0320    4.7445 -102.5554 H   0  0  0  0  0  0
  108.9115    4.2976 -103.8864 H   0  0  0  0  0  0
  111.9430    1.6088 -104.4169 H   0  0  0  0  0  0
  113.1768    2.1742 -103.2401 H   0  0  0  0  0  0
  109.2066    2.6632 -102.0448 H   0  0  0  0  0  0
  109.4492    2.0338 -103.7096 H   0  0  0  0  0  0
  108.5774    8.7245 -107.4611 H   0  0  0  0  0  0
  111.1125    1.2038 -102.2561 H   0  0  0  0  0  0
  111.5168    2.8687 -101.7165 H   0  0  0  0  0  0
  106.5444    7.1808 -106.1462 H   0  0  0  0  0  0
  107.2199    8.3181 -104.9309 H   0  0  0  0  0  0
  114.4420    8.4332 -108.9241 H   0  0  0  0  0  0
  114.0205    6.9193 -109.7943 H   0  0  0  0  0  0
  107.0107   10.2190 -106.6226 H   0  0  0  0  0  0
  106.2821    9.0743 -107.7996 H   0  0  0  0  0  0
  111.7293    7.9553 -110.4789 H   0  0  0  0  0  0
  112.1591    9.4720 -109.6179 H   0  0  0  0  0  0
  113.2265   10.2431 -111.5030 H   0  0  0  0  0  0
  112.8065    8.7243 -112.3654 H   0  0  0  0  0  0
  103.9759    9.2672 -107.9480 H   0  0  0  0  0  0
  105.9525    9.7812 -104.1328 H   0  0  0  0  0  0
  101.7606    9.5615 -106.8174 H   0  0  0  0  0  0
  103.7604   10.0718 -103.0180 H   0  0  0  0  0  0
  111.2562   11.9229 -111.9285 H   0  0  0  0  0  0
  110.3120    7.7666 -111.0611 H   0  0  0  0  0  0
  108.8064   12.4663 -111.8234 H   0  0  0  0  0  0
  107.8903    8.3346 -110.9577 H   0  0  0  0  0  0
  100.4957    9.9079 -104.7810 H   0  0  0  0  0  0
  1  2  1  0  0  0
  1  3  2  0  0  0
  1  4  1  0  0  0
  2  5  1  0  0  0
  2  6  1  0  0  0
  3  7  1  0  0  0
  4  8  2  0  0  0
  5  9  1  0  0  0
  5 34  1  0  0  0
  5 35  1  0  0  0
  6 10  1  0  0  0
  6 36  1  0  0  0
  6 37  1  0  0  0
  7 11  2  0  0  0
  7 12  1  0  0  0
  8 11  1  0  0  0
  8 13  1  0  0  0
  9 14  1  0  0  0
  9 38  1  0  0  0
  9 39  1  0  0  0
 10 14  1  0  0  0
 10 40  1  0  0  0
 10 41  1  0  0  0
 12 15  1  0  0  0
 12 42  1  0  0  0
 13 16  1  0  0  0
 14 43  1  0  0  0
 14 44  1  0  0  0
 15 17  1  0  0  0
 15 45  1  0  0  0
 15 46  1  0  0  0
 16 18  1  0  0  0
 16 47  1  0  0  0
 16 48  1  0  0  0
 17 19  1  0  0  0
 17 49  1  0  0  0
 17 50  1  0  0  0
 18 20  1  0  0  0
 18 51  1  0  0  0
 18 52  1  0  0  0
 19 21  2  0  0  0
 19 22  1  0  0  0
 20 23  1  0  0  0
 20 53  1  0  0  0
 20 54  1  0  0  0
 21 24  1  0  0  0
 21 55  1  0  0  0
 22 25  2  0  0  0
 22 56  1  0  0  0
 23 26  2  0  0  0
 23 27  1  0  0  0
 24 28  2  0  0  0
 24 57  1  0  0  0
 25 28  1  0  0  0
 25 58  1  0  0  0
 26 29  1  0  0  0
 26 59  1  0  0  0
 27 30  2  0  0  0
 27 60  1  0  0  0
 28 31  1  0  0  0
 29 32  2  0  0  0
 29 61  1  0  0  0
 30 32  1  0  0  0
 30 62  1  0  0  0
 31 63  1  0  0  0
 32 33  1  0  0  0
M  CHG  1  14   1
M  END
> <s_m_source_file>
../1nde_ligand.sdf

> <i_m_source_file_index>
1

> <s_epik_input>
W2NIXTFbY0hdYyhbT0hdKVtjSF1bY0hdYzFbQ0gyXVtDSDJdW05IXWMobmMyTjNbQ0gyXVtDSDJdW05IMitdW0NIMl1bQ0gyXTMpbmMobjIpU1tDSDJdW0NIMl1bQ0gyXWM0W2NIXVtjSF1jKENsKVtjSF1bY0hdNA==

> <s_epik_cmdline>
J2VwaWtfYXBwJywgJy1pbWFlJywgJ2xpZ2FuZF9wcm8ubWFlJywgJy1vbWFlJywgJ2xpZ2FuZF9wcmVwLm1hZScsICctbXMnLCAnMScsICctcGgnLCAnNycsICctcGh0JywgJzAuNScsICctbnQn

> <r_lp_tautomer_probability>
1

> <r_epik_Ionization_Penalty>
  0.0093

> <r_epik_Ionization_Penalty_Charging>
  0.0086

> <r_epik_Ionization_Penalty_Neutral>
  0.0007

> <r_epik_State_Penalty>
 -0.0000

> <r_epik_Charging_Adjusted_Penalty>
0.00857161421072162

> <i_epik_Tot_Q>
1

> <i_epik_Tot_abs_Q>
1

$$$$
