1ndj_ligand
                    3D
 Schrodinger Suite 2020-3.
 31 32  0  0  1  0            999 V2000
    4.8740  -16.4020   23.9080 C   0  0  0  0  0  0
    4.5210  -15.1980   23.8090 O   0  0  0  0  0  0
    4.3800  -17.3080   23.1850 O   0  5  0  0  0  0
    5.8760  -16.6900   24.9620 C   0  0  0  0  0  0
    6.7710  -15.4720   25.2500 C   0  0  0  0  0  0
    7.6500  -15.1560   24.0450 C   0  0  0  0  0  0
    8.7530  -14.1100   24.3050 C   0  0  0  0  0  0
    9.3260  -13.3910   23.1020 C   0  0  2  0  0  0
   10.5710  -14.3270   22.1360 S   0  0  0  0  0  0
   10.9080  -12.8280   21.1610 C   0  0  0  0  0  0
   10.9240  -11.6750   22.1420 C   0  0  2  0  0  0
   12.2060  -11.4600   22.7970 N   0  0  0  0  0  0
   12.1270  -11.6340   24.1220 C   0  0  0  0  0  0
   13.0460  -11.4910   24.9600 O   0  0  0  0  0  0
   10.8620  -11.9760   24.4610 N   0  0  0  0  0  0
    9.9770  -12.0340   23.3110 C   0  0  2  0  0  0
    5.3596  -16.9662   25.8932 H   0  0  0  0  0  0
    6.5193  -17.5218   24.6389 H   0  0  0  0  0  0
    6.1407  -14.5979   25.4707 H   0  0  0  0  0  0
    7.4156  -15.6870   26.1150 H   0  0  0  0  0  0
    8.1560  -16.0733   23.7097 H   0  0  0  0  0  0
    7.0260  -14.7623   23.2291 H   0  0  0  0  0  0
    8.3602  -13.3179   24.9595 H   0  0  0  0  0  0
    9.6115  -14.5957   24.7918 H   0  0  0  0  0  0
    8.3066  -13.1614   22.7583 H   0  0  0  0  0  0
   11.8802  -12.9296   20.6565 H   0  0  0  0  0  0
   10.1167  -12.6943   20.4087 H   0  0  0  0  0  0
   10.7018  -10.7717   21.5549 H   0  0  0  0  0  0
   13.0896  -11.1885   22.2007 H   0  0  0  0  0  0
   10.4735  -12.1987   25.4657 H   0  0  0  0  0  0
    9.1260  -11.3567   23.4753 H   0  0  0  0  0  0
  1  2  2  0  0  0
  1  3  1  0  0  0
  1  4  1  0  0  0
  4  5  1  0  0  0
  4 17  1  0  0  0
  4 18  1  0  0  0
  5  6  1  0  0  0
  5 19  1  0  0  0
  5 20  1  0  0  0
  6  7  1  0  0  0
  6 21  1  0  0  0
  6 22  1  0  0  0
  7  8  1  0  0  0
  7 23  1  0  0  0
  7 24  1  0  0  0
  8  9  1  0  0  0
  8 16  1  0  0  0
  8 25  1  0  0  0
  9 10  1  0  0  0
 10 11  1  0  0  0
 10 26  1  0  0  0
 10 27  1  0  0  0
 11 12  1  0  0  0
 11 16  1  0  0  0
 11 28  1  0  0  0
 12 13  1  0  0  0
 12 29  1  0  0  0
 13 14  2  0  0  0
 13 15  1  0  0  0
 15 16  1  0  0  0
 15 30  1  0  0  0
 16 31  1  0  0  0
M  CHG  1   3  -1
M  END
> <s_m_source_file>
../1ndj_ligand.sdf

> <i_m_source_file_index>
1

> <s_epik_input>
Tz1DKFtPSF0pW0NIMl1bQ0gyXVtDSDJdW0NIMl1bQ0BIXShTW0NIMl0xKVtDQEhdKFtDQEhdMTIpW05IXUMoPU8pW05IXTI=

> <s_epik_cmdline>
J2VwaWtfYXBwJywgJy1pbWFlJywgJ2xpZ2FuZF9wcm8ubWFlJywgJy1vbWFlJywgJ2xpZ2FuZF9wcmVwLm1hZScsICctbXMnLCAnMScsICctcGgnLCAnNycsICctcGh0JywgJzAuNScsICctbnQn

> <r_lp_tautomer_probability>
1

> <r_epik_Ionization_Penalty>
  0.0045

> <r_epik_Ionization_Penalty_Charging>
  0.0044

> <r_epik_Ionization_Penalty_Neutral>
  0.0000

> <r_epik_State_Penalty>
 -0.0000

> <r_epik_Charging_Adjusted_Penalty>
0.00443833021372702

> <i_epik_Tot_Q>
-1

> <i_epik_Tot_abs_Q>
1

$$$$
