1ndv_ligand
                    3D
 Schrodinger Suite 2020-3.
 40 43  0  0  1  0            999 V2000
   45.8910   47.9120   17.0220 N   0  0  0  0  0  0
   45.3540   47.5620   18.2420 C   0  0  0  0  0  0
   46.2410   48.0930   19.2240 C   0  0  0  0  0  0
   47.2490   48.7360   18.5330 N   0  0  0  0  0  0
   47.0230   48.5890   17.2490 C   0  0  0  0  0  0
   44.2280   46.8170   18.6340 C   0  0  0  0  0  0
   44.0150   46.6370   20.0250 C   0  0  0  0  0  0
   44.9070   47.1630   21.0030 C   0  0  0  0  0  0
   46.0220   47.8960   20.6040 C   0  0  0  0  0  0
   48.0120   48.9800   16.2160 N   0  0  0  0  0  0
   49.2730   49.6300   16.5560 C   0  0  0  0  0  0
   48.9460   50.9970   17.0030 C   0  0  0  0  0  0
   49.6110   51.8090   18.3630 S   0  0  0  0  0  0
   48.7250   53.3350   17.9660 C   0  0  0  0  0  0
   47.8580   53.1270   16.8110 C   0  0  0  0  0  0
   47.9940   51.7910   16.2720 C   0  0  0  0  0  0
   48.6830   54.5530   18.5670 C   0  0  0  0  0  0
   49.7550   54.4920   19.6080 N   0  0  0  0  0  0
   50.1180   55.5990   20.3060 C   0  0  0  0  0  0
   48.9360   56.8070   19.8700 S   0  0  0  0  0  0
   48.1940   55.7730   18.7610 C   0  0  0  0  0  0
   50.9400   55.7150   21.3940 N   0  0  0  0  0  0
   51.1020   54.7290   22.3200 C   0  0  0  0  0  0
   51.1160   53.4800   21.9470 N   0  3  0  0  0  0
   51.2040   54.9610   23.6260 N   0  0  0  0  0  0
   43.5251   46.3807   17.9090 H   0  0  0  0  0  0
   43.1377   46.0756   20.3790 H   0  0  0  0  0  0
   44.7172   46.9920   22.0626 H   0  0  0  0  0  0
   46.7244   48.3176   21.3381 H   0  0  0  0  0  0
   49.7709   49.0669   17.3591 H   0  0  0  0  0  0
   49.9230   49.6559   15.6690 H   0  0  0  0  0  0
   47.1894   53.8855   16.4038 H   0  0  0  0  0  0
   47.4374   51.4266   15.4085 H   0  0  0  0  0  0
   47.3167   56.1051   18.2059 H   0  0  0  0  0  0
   51.5119   56.6407   21.5550 H   0  0  0  0  0  0
   51.0351   53.2236   20.8804 H   0  0  0  0  0  0
   51.1982   55.9943   24.0032 H   0  0  0  0  0  0
   51.2941   54.1195   24.3287 H   0  0  0  0  0  0
   48.0514   49.2500   19.0826 H   0  0  0  0  0  0
   51.2087   52.6825   22.6989 H   0  0  0  0  0  0
  1  2  2  0  0  0
  1  5  1  0  0  0
  2  3  1  0  0  0
  2  6  1  0  0  0
  3  4  1  0  0  0
  3  9  2  0  0  0
  4  5  1  0  0  0
  4 39  1  0  0  0
  5 10  2  0  0  0
  6  7  2  0  0  0
  6 26  1  0  0  0
  7  8  1  0  0  0
  7 27  1  0  0  0
  8  9  1  0  0  0
  8 28  1  0  0  0
  9 29  1  0  0  0
 10 11  1  0  0  0
 11 12  1  0  0  0
 11 30  1  0  0  0
 11 31  1  0  0  0
 12 13  1  0  0  0
 12 16  2  0  0  0
 13 14  1  0  0  0
 14 15  2  0  0  0
 14 17  1  0  0  0
 15 16  1  0  0  0
 15 32  1  0  0  0
 16 33  1  0  0  0
 17 18  1  0  0  0
 17 21  2  0  0  0
 18 19  2  0  0  0
 19 20  1  0  0  0
 19 22  1  0  0  0
 20 21  1  0  0  0
 21 34  1  0  0  0
 22 23  1  0  0  0
 22 35  1  0  0  0
 23 24  2  0  0  0
 23 25  1  0  0  0
 24 36  1  0  0  0
 24 40  1  0  0  0
 25 37  1  0  0  0
 25 38  1  0  0  0
M  CHG  1  24   1
M  END
> <s_m_source_file>
../1ndv_ligand.sdf

> <i_m_source_file_index>
1

> <s_epik_input>
W0NIXTE9W0NIXVtDSDJdW0NIXT1DKEMxMilOPUMoTj0yKVtOSF1bQ0gyXWMzc2MoW2NIXVtjSF0zKS1jNG5jKHNbY0hdNClbTkhdL0MoPU5cW0hdKVtOSDJd

> <s_epik_cmdline>
J2VwaWtfYXBwJywgJy1pbWFlJywgJ2xpZ2FuZF9wcm8ubWFlJywgJy1vbWFlJywgJ2xpZ2FuZF9wcmVwLm1hZScsICctbXMnLCAnMScsICctcGgnLCAnNycsICctcGh0JywgJzAuNScsICctbnQn

> <r_epik_Ionization_Penalty>
  0.2925

> <r_epik_Ionization_Penalty_Charging>
  0.2908

> <r_epik_Ionization_Penalty_Neutral>
  0.0017

> <r_epik_State_Penalty>
  0.2814

> <r_epik_Charging_Adjusted_Penalty>
0.572225525301092

> <i_epik_Tot_Q>
1

> <i_epik_Tot_abs_Q>
1

> <s_epik_Chemistry_Notes>
This compound has an imine and may undergo hydrolysis.

$$$$
