1ndw_ligand
                    3D
 Schrodinger Suite 2020-3.
 36 37  0  0  1  0            999 V2000
   50.4340   54.0830   20.9940 C   0  0  0  0  0  0
   50.6030   55.0790   22.0270 N   0  0  0  0  0  0
   50.6220   54.4610   23.1890 C   0  0  0  0  0  0
   50.4690   53.1940   23.0560 N   0  0  0  0  0  0
   50.3370   52.9290   21.6470 C   0  0  0  0  0  0
   50.2100   51.6160   21.0130 C   0  0  0  0  0  0
   50.0870   51.4860   19.7810 O   0  0  0  0  0  0
   50.1230   50.5410   21.7810 N   0  0  0  0  0  0
   50.5660   56.5430   21.8290 C   0  0  1  0  0  0
   51.9810   57.0740   21.4570 C   0  0  0  0  0  0
   52.7530   56.4190   22.5180 O   0  0  0  0  0  0
   49.5410   57.0630   20.8240 C   0  0  0  0  0  0
   48.1120   56.5170   21.1270 C   0  0  0  0  0  0
   47.0200   57.1540   20.2770 C   0  0  0  0  0  0
   45.7190   56.7140   20.4330 C   0  0  0  0  0  0
   44.6770   57.2580   19.6930 C   0  0  0  0  0  0
   44.9510   58.2310   18.7200 C   0  0  0  0  0  0
   46.2640   58.6890   18.5160 C   0  0  0  0  0  0
   47.2690   58.1390   19.3390 C   0  0  0  0  0  0
   50.3947   54.2426   19.9165 H   0  0  0  0  0  0
   50.7518   54.9641   24.1472 H   0  0  0  0  0  0
   50.2288   50.6344   22.8719 H   0  0  0  0  0  0
   49.9449   49.5545   21.3282 H   0  0  0  0  0  0
   50.2102   56.8871   22.8113 H   0  0  0  0  0  0
   52.2385   56.7487   20.4382 H   0  0  0  0  0  0
   51.9839   58.1730   21.5027 H   0  0  0  0  0  0
   53.8411   56.5682   22.5786 H   0  0  0  0  0  0
   49.5094   58.1617   20.8677 H   0  0  0  0  0  0
   49.8268   56.7444   19.8107 H   0  0  0  0  0  0
   48.0853   55.4340   20.9364 H   0  0  0  0  0  0
   47.8614   56.7102   22.1805 H   0  0  0  0  0  0
   45.5062   55.9231   21.1522 H   0  0  0  0  0  0
   43.6520   56.9308   19.8673 H   0  0  0  0  0  0
   44.1382   58.6354   18.1168 H   0  0  0  0  0  0
   46.4953   59.4355   17.7562 H   0  0  0  0  0  0
   48.2891   58.5075   19.2305 H   0  0  0  0  0  0
  1  2  1  0  0  0
  1  5  2  0  0  0
  1 20  1  0  0  0
  2  3  1  0  0  0
  2  9  1  0  0  0
  3  4  2  0  0  0
  3 21  1  0  0  0
  4  5  1  0  0  0
  5  6  1  0  0  0
  6  7  2  0  0  0
  6  8  1  0  0  0
  8 22  1  0  0  0
  8 23  1  0  0  0
  9 10  1  0  0  0
  9 12  1  0  0  0
  9 24  1  0  0  0
 10 11  1  0  0  0
 10 25  1  0  0  0
 10 26  1  0  0  0
 11 27  1  0  0  0
 12 13  1  0  0  0
 12 28  1  0  0  0
 12 29  1  0  0  0
 13 14  1  0  0  0
 13 30  1  0  0  0
 13 31  1  0  0  0
 14 15  2  0  0  0
 14 19  1  0  0  0
 15 16  1  0  0  0
 15 32  1  0  0  0
 16 17  2  0  0  0
 16 33  1  0  0  0
 17 18  1  0  0  0
 17 34  1  0  0  0
 18 19  2  0  0  0
 18 35  1  0  0  0
 19 36  1  0  0  0
M  END
> <s_m_source_file>
../1ndw_ligand.sdf

> <i_m_source_file_index>
1

> <s_epik_input>
W2NIXTFuYyhDKD1PKVtOSDJdKVtjSF1uMVtDQEBIXShbQ0gyXVtPSF0pW0NIMl1bQ0gyXWMyW2NIXVtjSF1bY0hdW2NIXVtjSF0y

> <s_epik_cmdline>
J2VwaWtfYXBwJywgJy1pbWFlJywgJ2xpZ2FuZF9wcm8ubWFlJywgJy1vbWFlJywgJ2xpZ2FuZF9wcmVwLm1hZScsICctbXMnLCAnMScsICctcGgnLCAnNycsICctcGh0JywgJzAuNScsICctbnQn

> <r_lp_tautomer_probability>
1

> <r_epik_Ionization_Penalty>
  0.0025

> <r_epik_Ionization_Penalty_Charging>
  0.0025

> <r_epik_Ionization_Penalty_Neutral>
  0.0000

> <r_epik_State_Penalty>
 -0.0000

> <r_epik_Charging_Adjusted_Penalty>
0.00254018190686767

> <i_epik_Tot_Q>
0

> <i_epik_Tot_abs_Q>
0

$$$$
