1ndy_ligand
                    3D
 Schrodinger Suite 2020-3.
 42 44  0  0  1  0            999 V2000
   50.9530   53.9590   20.7880 C   0  0  0  0  0  0
   51.0310   54.9480   21.7970 N   0  0  0  0  0  0
   50.8750   54.2580   22.9380 C   0  0  0  0  0  0
   50.6810   52.9280   22.7430 N   0  0  0  0  0  0
   50.7320   52.7880   21.3580 C   0  0  0  0  0  0
   50.5960   51.4430   20.7830 C   0  0  0  0  0  0
   50.3550   51.3630   19.6040 O   0  0  0  0  0  0
   50.5600   50.3070   21.5210 N   0  0  0  0  0  0
   50.9440   56.4700   21.6690 C   0  0  1  0  0  0
   52.4470   57.1350   21.6080 C   0  0  0  0  0  0
   53.3600   56.5060   22.6140 O   0  0  0  0  0  0
   50.2560   56.8790   20.3720 C   0  0  0  0  0  0
   48.7150   56.5170   20.5210 C   0  0  0  0  0  0
   47.9560   56.7980   19.2230 C   0  0  0  0  0  0
   47.5760   58.0960   18.8840 C   0  0  0  0  0  0
   46.9220   58.3730   17.6490 C   0  0  0  0  0  0
   46.7240   57.3030   16.7260 C   0  0  0  0  0  0
   47.0980   55.9950   17.0760 C   0  0  0  0  0  0
   47.7980   55.7420   18.2740 C   0  0  0  0  0  0
   46.9520   54.9460   16.1170 C   0  0  0  0  0  0
   48.1790   54.4260   18.6170 C   0  0  0  0  0  0
   47.3560   53.6240   16.4480 C   0  0  0  0  0  0
   48.0110   53.3960   17.7090 C   0  0  0  0  0  0
   51.0579   54.1344   19.7173 H   0  0  0  0  0  0
   50.9015   54.7202   23.9248 H   0  0  0  0  0  0
   50.7748   50.3445   22.5992 H   0  0  0  0  0  0
   50.3160   49.3474   21.0419 H   0  0  0  0  0  0
   50.3199   56.7800   22.5201 H   0  0  0  0  0  0
   52.8739   56.9850   20.6054 H   0  0  0  0  0  0
   52.3803   58.2122   21.8207 H   0  0  0  0  0  0
   54.4035   56.8439   22.6967 H   0  0  0  0  0  0
   50.3855   57.9598   20.2133 H   0  0  0  0  0  0
   50.7026   56.3288   19.5307 H   0  0  0  0  0  0
   48.6111   55.4496   20.7655 H   0  0  0  0  0  0
   48.2723   57.1223   21.3258 H   0  0  0  0  0  0
   47.7828   58.9127   19.5756 H   0  0  0  0  0  0
   46.5801   59.3810   17.4142 H   0  0  0  0  0  0
   46.2825   57.5006   15.7492 H   0  0  0  0  0  0
   46.5319   55.1589   15.1340 H   0  0  0  0  0  0
   48.6061   54.2216   19.5988 H   0  0  0  0  0  0
   47.1732   52.7987   15.7599 H   0  0  0  0  0  0
   48.3793   52.3992   17.9517 H   0  0  0  0  0  0
  1  2  1  0  0  0
  1  5  2  0  0  0
  1 24  1  0  0  0
  2  3  1  0  0  0
  2  9  1  0  0  0
  3  4  2  0  0  0
  3 25  1  0  0  0
  4  5  1  0  0  0
  5  6  1  0  0  0
  6  7  2  0  0  0
  6  8  1  0  0  0
  8 26  1  0  0  0
  8 27  1  0  0  0
  9 10  1  0  0  0
  9 12  1  0  0  0
  9 28  1  0  0  0
 10 11  1  0  0  0
 10 29  1  0  0  0
 10 30  1  0  0  0
 11 31  1  0  0  0
 12 13  1  0  0  0
 12 32  1  0  0  0
 12 33  1  0  0  0
 13 14  1  0  0  0
 13 34  1  0  0  0
 13 35  1  0  0  0
 14 15  2  0  0  0
 14 19  1  0  0  0
 15 16  1  0  0  0
 15 36  1  0  0  0
 16 17  2  0  0  0
 16 37  1  0  0  0
 17 18  1  0  0  0
 17 38  1  0  0  0
 18 19  2  0  0  0
 18 20  1  0  0  0
 19 21  1  0  0  0
 20 22  2  0  0  0
 20 39  1  0  0  0
 21 23  2  0  0  0
 21 40  1  0  0  0
 22 23  1  0  0  0
 22 41  1  0  0  0
 23 42  1  0  0  0
M  END
> <s_m_source_file>
../1ndy_ligand.sdf

> <i_m_source_file_index>
1

> <s_epik_input>
W2NIXTFuYyhDKD1PKVtOSDJdKVtjSF1uMVtDQEBIXShbQ0gyXVtPSF0pW0NIMl1bQ0gyXWMoW2NIXVtjSF1bY0hdMiljKGMyMylbY0hdW2NIXVtjSF1bY0hdMw==

> <s_epik_cmdline>
J2VwaWtfYXBwJywgJy1pbWFlJywgJ2xpZ2FuZF9wcm8ubWFlJywgJy1vbWFlJywgJ2xpZ2FuZF9wcmVwLm1hZScsICctbXMnLCAnMScsICctcGgnLCAnNycsICctcGh0JywgJzAuNScsICctbnQn

> <r_lp_tautomer_probability>
1

> <r_epik_Ionization_Penalty>
  0.0025

> <r_epik_Ionization_Penalty_Charging>
  0.0025

> <r_epik_Ionization_Penalty_Neutral>
  0.0000

> <r_epik_State_Penalty>
 -0.0000

> <r_epik_Charging_Adjusted_Penalty>
0.00254018190686767

> <i_epik_Tot_Q>
0

> <i_epik_Tot_abs_Q>
0

$$$$
