1ndz_ligand
                    3D
 Schrodinger Suite 2020-3.
 66 70  0  0  1  0            999 V2000
   51.2620   54.3940   21.0460 C   0  0  0  0  0  0
   51.2380   55.3230   22.0730 N   0  0  0  0  0  0
   51.1550   54.5960   23.2290 C   0  0  0  0  0  0
   51.0260   53.3560   23.0160 N   0  0  0  0  0  0
   51.0190   53.2330   21.6000 C   0  0  0  0  0  0
   50.8310   51.9830   20.8660 C   0  0  0  0  0  0
   50.5770   51.9510   19.6320 O   0  0  0  0  0  0
   50.8470   50.9090   21.6410 N   0  0  0  0  0  0
   51.1410   56.8020   21.8880 C   0  0  1  0  0  0
   52.5180   57.6040   21.7930 C   0  0  0  0  0  0
   53.6000   57.3210   22.6900 O   0  0  0  0  0  0
   50.3710   57.1940   20.6290 C   0  0  0  0  0  0
   48.8920   56.6160   20.6120 C   0  0  0  0  0  0
   48.2320   56.7680   19.2010 N   0  0  0  0  0  0
   47.7640   57.9340   18.6950 C   0  0  0  0  0  0
   47.2130   57.6920   17.5170 C   0  0  0  0  0  0
   47.3370   56.2520   17.3280 C   0  0  0  0  0  0
   48.0670   55.7380   18.3780 C   0  0  0  0  0  0
   47.1210   55.4740   16.2610 C   0  0  0  0  0  0
   47.4630   54.2100   16.3080 C   0  0  0  0  0  0
   48.1200   53.7120   17.3910 C   0  0  0  0  0  0
   48.3740   54.4780   18.4590 C   0  0  0  0  0  0
   48.4400   52.4840   17.5570 N   0  0  0  0  0  0
   48.2950   51.5180   16.7830 C   0  0  0  0  0  0
   47.6070   51.5150   15.7840 O   0  0  0  0  0  0
   49.1440   50.2820   17.1240 C   0  0  0  0  0  0
   48.5860   48.9020   16.6980 C   0  0  0  0  0  0
   44.6010   47.6190   21.1320 C   0  0  0  0  0  0
   45.8280   48.2110   20.7930 C   0  0  0  0  0  0
   46.2660   48.3270   19.4890 C   0  0  0  0  0  0
   45.6270   47.6310   18.4380 C   0  0  0  0  0  0
   44.4090   47.0580   18.7170 C   0  0  0  0  0  0
   43.9350   46.9960   20.0780 C   0  0  0  0  0  0
   47.4050   48.8850   18.9480 N   0  0  0  0  0  0
   47.4170   48.5800   17.6420 C   0  0  0  0  0  0
   46.3460   47.8930   17.2600 N   0  0  0  0  0  0
   46.0040   47.4390   15.9250 C   0  0  0  0  0  0
   51.4461   54.5900   19.9897 H   0  0  0  0  0  0
   51.1956   55.0373   24.2249 H   0  0  0  0  0  0
   51.0767   51.0071   22.7123 H   0  0  0  0  0  0
   50.6306   49.9189   21.2134 H   0  0  0  0  0  0
   50.5855   57.0269   22.8104 H   0  0  0  0  0  0
   52.9632   57.4516   20.7988 H   0  0  0  0  0  0
   52.3294   58.6763   21.9498 H   0  0  0  0  0  0
   54.5420   57.8835   22.6103 H   0  0  0  0  0  0
   50.3056   58.2902   20.5656 H   0  0  0  0  0  0
   50.8950   56.8062   19.7430 H   0  0  0  0  0  0
   48.9129   55.5476   20.8729 H   0  0  0  0  0  0
   48.2772   57.1602   21.3440 H   0  0  0  0  0  0
   47.8303   58.9090   19.1779 H   0  0  0  0  0  0
   46.7633   58.4136   16.8349 H   0  0  0  0  0  0
   46.6650   55.8877   15.3615 H   0  0  0  0  0  0
   47.2195   53.5524   15.4735 H   0  0  0  0  0  0
   48.8210   54.0610   19.3615 H   0  0  0  0  0  0
   48.9162   52.1616   18.4947 H   0  0  0  0  0  0
   50.1260   50.3656   16.6355 H   0  0  0  0  0  0
   49.2806   50.2203   18.2137 H   0  0  0  0  0  0
   48.2410   48.9522   15.6547 H   0  0  0  0  0  0
   49.3775   48.1433   16.7863 H   0  0  0  0  0  0
   44.1989   47.6447   22.1448 H   0  0  0  0  0  0
   46.4612   48.5951   21.5928 H   0  0  0  0  0  0
   43.8011   46.6503   17.9094 H   0  0  0  0  0  0
   43.0213   46.4408   20.2902 H   0  0  0  0  0  0
   45.0472   46.8972   15.9559 H   0  0  0  0  0  0
   46.7928   46.7691   15.5522 H   0  0  0  0  0  0
   45.9127   48.3065   15.2549 H   0  0  0  0  0  0
  1  2  1  0  0  0
  1  5  2  0  0  0
  1 38  1  0  0  0
  2  3  1  0  0  0
  2  9  1  0  0  0
  3  4  2  0  0  0
  3 39  1  0  0  0
  4  5  1  0  0  0
  5  6  1  0  0  0
  6  7  2  0  0  0
  6  8  1  0  0  0
  8 40  1  0  0  0
  8 41  1  0  0  0
  9 10  1  0  0  0
  9 12  1  0  0  0
  9 42  1  0  0  0
 10 11  1  0  0  0
 10 43  1  0  0  0
 10 44  1  0  0  0
 11 45  1  0  0  0
 12 13  1  0  0  0
 12 46  1  0  0  0
 12 47  1  0  0  0
 13 14  1  0  0  0
 13 48  1  0  0  0
 13 49  1  0  0  0
 14 15  1  0  0  0
 14 18  1  0  0  0
 15 16  2  0  0  0
 15 50  1  0  0  0
 16 17  1  0  0  0
 16 51  1  0  0  0
 17 18  2  0  0  0
 17 19  1  0  0  0
 18 22  1  0  0  0
 19 20  2  0  0  0
 19 52  1  0  0  0
 20 21  1  0  0  0
 20 53  1  0  0  0
 21 22  2  0  0  0
 21 23  1  0  0  0
 22 54  1  0  0  0
 23 24  1  0  0  0
 23 55  1  0  0  0
 24 25  2  0  0  0
 24 26  1  0  0  0
 26 27  1  0  0  0
 26 56  1  0  0  0
 26 57  1  0  0  0
 27 35  1  0  0  0
 27 58  1  0  0  0
 27 59  1  0  0  0
 28 29  1  0  0  0
 28 33  2  0  0  0
 28 60  1  0  0  0
 29 30  2  0  0  0
 29 61  1  0  0  0
 30 31  1  0  0  0
 30 34  1  0  0  0
 31 32  2  0  0  0
 31 36  1  0  0  0
 32 33  1  0  0  0
 32 62  1  0  0  0
 33 63  1  0  0  0
 34 35  2  0  0  0
 35 36  1  0  0  0
 36 37  1  0  0  0
 37 64  1  0  0  0
 37 65  1  0  0  0
 37 66  1  0  0  0
M  END
> <s_m_source_file>
../1ndz_ligand.sdf

> <i_m_source_file_index>
1

> <s_epik_input>
W2NIXTFuYyhDKD1PKVtOSDJdKVtjSF1uMVtDQEBIXShbQ0gyXVtPSF0pW0NIMl1bQ0gyXW4oW2NIXVtjSF0yKWMoYzIzKVtjSF1jKFtjSF1bY0hdMylbTkhdQyg9TylbQ0gyXVtDSDJdYyhuNCluKFtDSDNdKWMoYzQ1KVtjSF1bY0hdW2NIXVtjSF01

> <s_epik_cmdline>
J2VwaWtfYXBwJywgJy1pbWFlJywgJ2xpZ2FuZF9wcm8ubWFlJywgJy1vbWFlJywgJ2xpZ2FuZF9wcmVwLm1hZScsICctbXMnLCAnMScsICctcGgnLCAnNycsICctcGh0JywgJzAuNScsICctbnQn

> <r_lp_tautomer_probability>
1

> <r_epik_Ionization_Penalty>
  0.0761

> <r_epik_Ionization_Penalty_Charging>
  0.0011

> <r_epik_Ionization_Penalty_Neutral>
  0.0750

> <r_epik_State_Penalty>
  0.0661

> <r_epik_Charging_Adjusted_Penalty>
0.0671514130307764

> <i_epik_Tot_Q>
0

> <i_epik_Tot_abs_Q>
0

$$$$
