1nfs_ligand
                    3D
 Schrodinger Suite 2020-3.
 25 24  0  0  1  0            999 V2000
   11.0840    2.4940   10.3280 O   0  0  0  0  0  0
   10.7230    2.2890   12.6210 O   0  5  0  0  0  0
    8.8570    2.0930   11.1060 O   0  5  0  0  0  0
   10.1960    2.7640   11.2820 P   0  0  0  0  0  0
    9.9230    4.2670   11.4440 O   0  0  0  0  0  0
   11.6080    5.9160   11.8150 O   0  0  0  0  0  0
   11.5470    3.8890   13.1840 O   0  5  0  0  0  0
   10.8440    4.9960   12.4350 P   0  0  2  0  0  0
    9.9300    5.6960   13.4220 O   0  0  0  0  0  0
    9.7930    7.0970   13.1880 C   0  0  0  0  0  0
    8.6410    7.6540   14.0590 C   0  0  0  0  0  0
    8.8850    9.0930   14.2480 N   0  3  0  0  0  0
    9.1490    9.3880   15.6600 C   0  0  0  0  0  0
   10.0470    9.4560   13.4130 C   0  0  0  0  0  0
   10.7318    7.6063   13.4515 H   0  0  0  0  0  0
    9.5672    7.2710   12.1256 H   0  0  0  0  0  0
    7.6817    7.4910   13.5460 H   0  0  0  0  0  0
    8.6309    7.1353   15.0290 H   0  0  0  0  0  0
    7.9998    9.6779   13.9574 H   0  0  0  0  0  0
    8.2718    9.1103   16.2628 H   0  0  0  0  0  0
    9.3500   10.4629   15.7786 H   0  0  0  0  0  0
   10.0232    8.8120   15.9977 H   0  0  0  0  0  0
    9.8276    9.2268   12.3598 H   0  0  0  0  0  0
   10.9262    8.8804   13.7381 H   0  0  0  0  0  0
   10.2530   10.5313   13.5190 H   0  0  0  0  0  0
  1  4  2  0  0  0
  2  4  1  0  0  0
  3  4  1  0  0  0
  4  5  1  0  0  0
  5  8  1  0  0  0
  6  8  2  0  0  0
  7  8  1  0  0  0
  8  9  1  0  0  0
  9 10  1  0  0  0
 10 11  1  0  0  0
 10 15  1  0  0  0
 10 16  1  0  0  0
 11 12  1  0  0  0
 11 17  1  0  0  0
 11 18  1  0  0  0
 12 13  1  0  0  0
 12 14  1  0  0  0
 12 19  1  0  0  0
 13 20  1  0  0  0
 13 21  1  0  0  0
 13 22  1  0  0  0
 14 23  1  0  0  0
 14 24  1  0  0  0
 14 25  1  0  0  0
M  CHG  4   2  -1   3  -1   7  -1  12   1
M  END
> <s_m_source_file>
../1nfs_ligand.sdf

> <i_m_source_file_index>
1

> <s_epik_input>
Tz1QKFtPSF0pKFtPSF0pT1tQQF0oPU8pKFtPSF0pT1tDSDJdW0NIMl1bTkgrXShbQ0gzXSlbQ0gzXQ==

> <s_epik_cmdline>
J2VwaWtfYXBwJywgJy1pbWFlJywgJ2xpZ2FuZF9wcm8ubWFlJywgJy1vbWFlJywgJ2xpZ2FuZF9wcmVwLm1hZScsICctbXMnLCAnMScsICctcGgnLCAnNycsICctcGh0JywgJzAuNScsICctbnQn

> <r_epik_Ionization_Penalty>
  0.0810

> <r_epik_Ionization_Penalty_Charging>
  0.0810

> <r_epik_Ionization_Penalty_Neutral>
  0.0000

> <r_epik_State_Penalty>
  0.0708

> <r_epik_Charging_Adjusted_Penalty>
0.151812055076881

> <i_epik_Tot_Q>
-2

> <i_epik_Tot_abs_Q>
4

$$$$
