1ngw_ligand
                    3D
 Schrodinger Suite 2020-3.
 80 84  0  0  1  0            999 V2000
  114.0570   87.1620   59.2440 N   0  0  0  0  0  0
  114.5750   85.8730   59.1770 C   0  0  0  0  0  0
  114.9390   85.5560   57.7920 C   0  0  3  0  0  0
  114.6190   86.6980   57.0170 C   0  0  0  0  0  0
  114.0760   87.6800   57.9600 C   0  0  0  0  0  0
  113.6140   88.9960   57.6350 C   0  0  0  0  0  0
  115.5420   84.2100   57.3110 C   0  0  0  0  0  0
  114.7830   86.9260   55.4550 C   0  0  0  0  0  0
  116.0470   86.2640   54.8600 C   0  0  0  0  0  0
  111.6460   89.1150   59.1450 N   0  0  0  0  0  0
  112.3420   89.5380   58.0140 C   0  0  0  0  0  0
  111.4250   90.3010   57.1470 C   0  0  3  0  0  0
  110.1830   90.3240   57.7740 C   0  0  0  0  0  0
  110.3340   89.5780   59.0210 C   0  0  0  0  0  0
  109.3100   89.3320   60.0000 C   0  0  0  0  0  0
  111.7640   90.9460   55.8050 C   0  0  0  0  0  0
  108.8820   91.0090   57.2390 C   0  0  0  0  0  0
  108.7370   92.4010   57.8570 C   0  0  0  0  0  0
  110.7670   88.0310   61.4710 N   0  0  0  0  0  0
  109.5320   88.5820   61.1890 C   0  0  0  0  0  0
  108.7540   88.6710   62.4360 C   0  0  3  0  0  0
  109.5600   88.1630   63.4630 C   0  0  0  0  0  0
  110.8240   87.7660   62.8180 C   0  0  0  0  0  0
  112.0330   87.4330   63.4590 C   0  0  0  0  0  0
  107.3050   89.2260   62.5910 C   0  0  0  0  0  0
  109.1800   88.0370   65.0080 C   0  0  0  0  0  0
  109.4120   89.3490   65.8540 C   0  0  0  0  0  0
  109.4020   89.0870   67.3840 C   0  0  0  0  0  0
  108.5930   88.1090   67.9230 O   0  5  0  0  0  0
  110.2010   89.8370   68.2180 O   0  0  0  0  0  0
  113.7150   86.5700   61.9020 N   0  0  0  0  0  0
  112.8280   86.3940   62.9470 C   0  0  0  0  0  0
  112.8400   85.0020   63.4050 C   0  0  3  0  0  0
  113.7730   84.3460   62.5870 C   0  0  0  0  0  0
  114.3070   85.3440   61.6410 C   0  0  0  0  0  0
  114.7130   85.0050   60.3170 C   0  0  0  0  0  0
  114.1610   82.8350   62.6570 C   0  0  0  0  0  0
  111.9670   84.3580   64.5860 C   0  0  0  0  0  0
  112.3640   84.7580   66.0710 C   0  0  0  0  0  0
  111.4630   84.0970   67.1680 C   0  0  0  0  0  0
  110.6400   83.0320   66.8550 O   0  0  0  0  0  0
  111.4770   84.5750   68.4650 O   0  5  0  0  0  0
  114.3007   89.7416   58.0623 H   0  0  0  0  0  0
  113.5798   89.1131   56.5418 H   0  0  0  0  0  0
  115.6658   83.5355   58.1711 H   0  0  0  0  0  0
  116.5212   84.3928   56.8444 H   0  0  0  0  0  0
  114.8665   83.7473   56.5764 H   0  0  0  0  0  0
  113.9138   86.5036   54.9296 H   0  0  0  0  0  0
  114.8490   88.0041   55.2467 H   0  0  0  0  0  0
  116.0918   86.4645   53.7794 H   0  0  0  0  0  0
  116.0067   85.1780   55.0300 H   0  0  0  0  0  0
  116.9419   86.6785   55.3473 H   0  0  0  0  0  0
  108.9421   90.2906   60.3946 H   0  0  0  0  0  0
  108.4785   88.7851   59.5315 H   0  0  0  0  0  0
  112.8220   90.7619   55.5666 H   0  0  0  0  0  0
  111.5844   92.0297   55.8633 H   0  0  0  0  0  0
  111.1298   90.5110   55.0185 H   0  0  0  0  0  0
  108.9398   91.1014   56.1444 H   0  0  0  0  0  0
  108.0081   90.3982   57.5097 H   0  0  0  0  0  0
  107.8210   92.8772   57.4772 H   0  0  0  0  0  0
  109.6087   93.0149   57.5864 H   0  0  0  0  0  0
  108.6770   92.3117   58.9517 H   0  0  0  0  0  0
  112.7005   88.3073   63.4598 H   0  0  0  0  0  0
  111.8266   87.1283   64.4956 H   0  0  0  0  0  0
  106.9304   89.5523   61.6096 H   0  0  0  0  0  0
  107.3118   90.0806   63.2835 H   0  0  0  0  0  0
  106.6506   88.4365   62.9892 H   0  0  0  0  0  0
  108.1144   87.7815   65.1038 H   0  0  0  0  0  0
  109.7894   87.2477   65.4723 H   0  0  0  0  0  0
  110.3878   89.7852   65.5940 H   0  0  0  0  0  0
  108.6153   90.0742   65.6319 H   0  0  0  0  0  0
  114.1467   84.0782   60.1428 H   0  0  0  0  0  0
  115.7755   84.7628   60.4670 H   0  0  0  0  0  0
  113.5957   82.3484   63.4655 H   0  0  0  0  0  0
  115.2389   82.7421   62.8559 H   0  0  0  0  0  0
  113.9217   82.3503   61.6990 H   0  0  0  0  0  0
  110.9148   84.6566   64.4689 H   0  0  0  0  0  0
  112.0439   83.2615   64.5429 H   0  0  0  0  0  0
  113.4003   84.4472   66.2699 H   0  0  0  0  0  0
  112.2784   85.8479   66.1925 H   0  0  0  0  0  0
  1  2  2  0  0  0
  1  5  1  0  0  0
  2  3  1  0  0  0
  2 36  1  0  0  0
  3  4  1  0  0  0
  3  7  1  0  0  0
  4  5  2  0  0  0
  4  8  1  0  0  0
  5  6  1  0  0  0
  6 11  1  0  0  0
  6 43  1  0  0  0
  6 44  1  0  0  0
  7 45  1  0  0  0
  7 46  1  0  0  0
  7 47  1  0  0  0
  8  9  1  0  0  0
  8 48  1  0  0  0
  8 49  1  0  0  0
  9 50  1  0  0  0
  9 51  1  0  0  0
  9 52  1  0  0  0
 10 11  2  0  0  0
 10 14  1  0  0  0
 11 12  1  0  0  0
 12 13  1  0  0  0
 12 16  1  0  0  0
 13 14  2  0  0  0
 13 17  1  0  0  0
 14 15  1  0  0  0
 15 20  1  0  0  0
 15 53  1  0  0  0
 15 54  1  0  0  0
 16 55  1  0  0  0
 16 56  1  0  0  0
 16 57  1  0  0  0
 17 18  1  0  0  0
 17 58  1  0  0  0
 17 59  1  0  0  0
 18 60  1  0  0  0
 18 61  1  0  0  0
 18 62  1  0  0  0
 19 20  2  0  0  0
 19 23  1  0  0  0
 20 21  1  0  0  0
 21 22  1  0  0  0
 21 25  1  0  0  0
 22 23  2  0  0  0
 22 26  1  0  0  0
 23 24  1  0  0  0
 24 32  1  0  0  0
 24 63  1  0  0  0
 24 64  1  0  0  0
 25 65  1  0  0  0
 25 66  1  0  0  0
 25 67  1  0  0  0
 26 27  1  0  0  0
 26 68  1  0  0  0
 26 69  1  0  0  0
 27 28  1  0  0  0
 27 70  1  0  0  0
 27 71  1  0  0  0
 28 29  1  0  0  0
 28 30  2  0  0  0
 31 32  2  0  0  0
 31 35  1  0  0  0
 32 33  1  0  0  0
 33 34  1  0  0  0
 33 38  1  0  0  0
 34 35  2  0  0  0
 34 37  1  0  0  0
 35 36  1  0  0  0
 36 72  1  0  0  0
 36 73  1  0  0  0
 37 74  1  0  0  0
 37 75  1  0  0  0
 37 76  1  0  0  0
 38 39  1  0  0  0
 38 77  1  0  0  0
 38 78  1  0  0  0
 39 40  1  0  0  0
 39 79  1  0  0  0
 39 80  1  0  0  0
 40 41  2  0  0  0
 40 42  1  0  0  0
M  CHG  2  29  -1  42  -1
M  END
> <s_m_source_file>
../1ngw_ligand.sdf

> <i_m_source_file_index>
1

> <s_epik_input>
W0NIM11bQ0hdMUMoW0NIMl1bQ0gzXSk9QyhOPUMxMilbQ0gyXUMzPU5DKD1DKFtDSF0zW0NIM10pW0NIMl1bQ0gzXSlbQ0gyXUM0PU5DKD1DKFtDSF00W0NIM10pW0NIMl1bQ0gyXUMoPU8pW09IXSlbQ0gyXUM1PU5DKFtDSDJdMik9QyhbQ0gzXSlbQ0hdNVtDSDJdW0NIMl1DKD1PKVtPSF0=

> <s_epik_cmdline>
J2VwaWtfYXBwJywgJy1pbWFlJywgJ2xpZ2FuZF9wcm8ubWFlJywgJy1vbWFlJywgJ2xpZ2FuZF9wcmVwLm1hZScsICctbXMnLCAnMScsICctcGgnLCAnNycsICctcGh0JywgJzAuNScsICctbnQn

> <r_lp_tautomer_probability>
1

> <r_epik_Ionization_Penalty>
  0.0013

> <r_epik_Ionization_Penalty_Charging>
  0.0013

> <r_epik_Ionization_Penalty_Neutral>
  0.0000

> <r_epik_State_Penalty>
 -0.0000

> <r_epik_Charging_Adjusted_Penalty>
0.00130124613947564

> <i_epik_Tot_Q>
-2

> <i_epik_Tot_abs_Q>
2

> <s_epik_Chemistry_Notes>
This compound has an imine and may undergo hydrolysis.

$$$$
