1nhg_ligand
                    3D
 Schrodinger Suite 2020-3.
 23 24  0  0  1  0            999 V2000
   49.2360   95.7350   33.8340 C   0  0  0  0  0  0
   49.9030   96.7370   34.6340 C   0  0  0  0  0  0
   49.5870   94.3320   34.0470 C   0  0  0  0  0  0
   50.6080   93.9410   35.0670 C   0  0  0  0  0  0
   51.2540   94.9660   35.8440 C   0  0  0  0  0  0
   50.9030   96.3660   35.6290 C   0  0  0  0  0  0
   54.1920   90.4650   33.3180 C   0  0  0  0  0  0
   53.4150   89.7560   34.4050 C   0  0  0  0  0  0
   52.3510   90.4890   35.0520 C   0  0  0  0  0  0
   52.0580   91.9470   34.6130 C   0  0  0  0  0  0
   53.8750   91.7870   32.9620 C   0  0  0  0  0  0
   52.8920   92.5320   33.5280 C   0  0  0  0  0  0
   50.9930   92.6050   35.3200 O   0  0  0  0  0  0
   49.5510   98.3340   34.4540 Cl  0  0  0  0  0  0
   55.4230   89.5830   32.6000 Cl  0  0  0  0  0  0
   51.4760   89.7450   36.2620 Cl  0  0  0  0  0  0
   48.9430   93.3860   33.2740 O   0  5  0  0  0  0
   48.4905   96.0182   33.0910 H   0  0  0  0  0  0
   52.0022   94.6976   36.5898 H   0  0  0  0  0  0
   51.3927   97.1418   36.2175 H   0  0  0  0  0  0
   53.6490   88.7302   34.6897 H   0  0  0  0  0  0
   54.4641   92.2497   32.1702 H   0  0  0  0  0  0
   52.7143   93.5529   33.1899 H   0  0  0  0  0  0
  1  2  2  0  0  0
  1  3  1  0  0  0
  1 18  1  0  0  0
  2  6  1  0  0  0
  2 14  1  0  0  0
  3  4  2  0  0  0
  3 17  1  0  0  0
  4  5  1  0  0  0
  4 13  1  0  0  0
  5  6  2  0  0  0
  5 19  1  0  0  0
  6 20  1  0  0  0
  7  8  2  0  0  0
  7 11  1  0  0  0
  7 15  1  0  0  0
  8  9  1  0  0  0
  8 21  1  0  0  0
  9 10  2  0  0  0
  9 16  1  0  0  0
 10 12  1  0  0  0
 10 13  1  0  0  0
 11 12  2  0  0  0
 11 22  1  0  0  0
 12 23  1  0  0  0
M  CHG  1  17  -1
M  END
> <s_m_source_file>
../1nhg_ligand.sdf

> <i_m_source_file_index>
1

> <s_epik_input>
Q2xjMVtjSF1jKFtPSF0pYyhbY0hdW2NIXTEpT2MoW2NIXVtjSF0yKWMoQ2wpW2NIXWMyQ2w=

> <s_epik_cmdline>
J2VwaWtfYXBwJywgJy1pbWFlJywgJ2xpZ2FuZF9wcm8ubWFlJywgJy1vbWFlJywgJ2xpZ2FuZF9wcmVwLm1hZScsICctbXMnLCAnMScsICctcGgnLCAnNycsICctcGh0JywgJzAuNScsICctbnQn

> <r_lp_tautomer_probability>
1

> <r_epik_Ionization_Penalty>
  0.2989

> <r_epik_Ionization_Penalty_Charging>
  0.2989

> <r_epik_Ionization_Penalty_Neutral>
  0.0000

> <r_epik_State_Penalty>
  0.2924

> <r_epik_Charging_Adjusted_Penalty>
0.591291205956467

> <i_epik_Tot_Q>
-1

> <i_epik_Tot_abs_Q>
1

$$$$
