1nhw_ligand
                    3D
 Schrodinger Suite 2020-3.
 25 26  0  0  1  0            999 V2000
   54.5330   92.0550   33.1910 C   0  0  0  0  0  0
   54.7280   90.6930   33.5940 C   0  0  0  0  0  0
   56.0600   89.7790   32.9200 Cl  0  0  0  0  0  0
   53.8250   90.0800   34.5610 C   0  0  0  0  0  0
   52.7290   90.8460   35.1150 C   0  0  0  0  0  0
   51.6670   90.0500   36.2880 Cl  0  0  0  0  0  0
   52.5160   92.2390   34.7170 C   0  0  0  0  0  0
   51.3610   92.9420   35.3550 N   0  0  0  0  0  0
   51.0110   94.3500   35.0750 C   0  0  0  0  0  0
   51.6630   95.4480   35.7830 C   0  0  0  0  0  0
   51.3060   96.8270   35.4960 C   0  0  0  0  0  0
   50.2960   97.1250   34.5060 C   0  0  0  0  0  0
   49.6440   96.0450   33.8010 C   0  0  0  0  0  0
   50.0000   94.6590   34.0830 C   0  0  0  0  0  0
   49.3470   93.6610   33.3810 O   0  0  0  0  0  0
   53.4450   92.8320   33.7360 C   0  0  0  0  0  0
   55.2114   92.5074   32.4676 H   0  0  0  0  0  0
   53.9754   89.0446   34.8667 H   0  0  0  0  0  0
   50.7215   92.4087   36.0737 H   0  0  0  0  0  0
   52.4238   95.2315   36.5330 H   0  0  0  0  0  0
   51.8012   97.6388   36.0287 H   0  0  0  0  0  0
   50.0273   98.1595   34.2921 H   0  0  0  0  0  0
   48.8818   96.2675   33.0542 H   0  0  0  0  0  0
   49.5919   92.6053   33.5697 H   0  0  0  0  0  0
   53.3086   93.8662   33.4198 H   0  0  0  0  0  0
  1  2  2  0  0  0
  1 16  1  0  0  0
  1 17  1  0  0  0
  2  3  1  0  0  0
  2  4  1  0  0  0
  4  5  2  0  0  0
  4 18  1  0  0  0
  5  6  1  0  0  0
  5  7  1  0  0  0
  7  8  1  0  0  0
  7 16  2  0  0  0
  8  9  1  0  0  0
  8 19  1  0  0  0
  9 10  2  0  0  0
  9 14  1  0  0  0
 10 11  1  0  0  0
 10 20  1  0  0  0
 11 12  2  0  0  0
 11 21  1  0  0  0
 12 13  1  0  0  0
 12 22  1  0  0  0
 13 14  2  0  0  0
 13 23  1  0  0  0
 14 15  1  0  0  0
 15 24  1  0  0  0
 16 25  1  0  0  0
M  END
> <s_m_source_file>
../1nhw_ligand.sdf

> <i_m_source_file_index>
1

> <s_epik_input>
Q2xjMVtjSF1bY0hdYyhjKENsKVtjSF0xKVtOSF1jMltjSF1bY0hdW2NIXVtjSF1jMltPSF0=

> <s_epik_cmdline>
J2VwaWtfYXBwJywgJy1pbWFlJywgJ2xpZ2FuZF9wcm8ubWFlJywgJy1vbWFlJywgJ2xpZ2FuZF9wcmVwLm1hZScsICctbXMnLCAnMScsICctcGgnLCAnNycsICctcGh0JywgJzAuNScsICctbnQn

> <r_lp_tautomer_probability>
1

> <r_epik_Ionization_Penalty>
  0.0001

> <r_epik_Ionization_Penalty_Charging>
  0.0000

> <r_epik_Ionization_Penalty_Neutral>
  0.0001

> <r_epik_State_Penalty>
 -0.0000

> <r_epik_Charging_Adjusted_Penalty>
0

> <i_epik_Tot_Q>
0

> <i_epik_Tot_abs_Q>
0

$$$$
