1nhx_ligand
                    3D
 Schrodinger Suite 2020-3.
 59 62  0  0  1  0            999 V2000
   35.8010   51.4460   34.0580 O   0  0  0  0  0  0
   36.0990   51.3690   35.2450 C   0  0  0  0  0  0
   35.5200   52.3910   36.1800 C   0  0  0  0  0  0
   36.9390   50.3870   35.7390 N   0  0  0  0  0  0
   37.6020   49.3190   35.0080 C   0  0  0  0  0  0
   38.5010   48.4660   35.6750 C   0  0  0  0  0  0
   39.1520   47.4290   34.9770 C   0  0  0  0  0  0
   37.3760   49.1210   33.6300 C   0  0  0  0  0  0
   38.0280   48.0880   32.9320 C   0  0  0  0  0  0
   38.9090   47.2310   33.6060 C   0  0  0  0  0  0
   39.6080   46.1290   32.8350 C   0  0  0  0  0  0
   38.8310   44.8400   32.8870 C   0  0  0  0  0  0
   39.1550   43.9000   33.8030 N   0  0  0  0  0  0
   38.2640   42.9240   33.5450 C   0  0  3  0  0  0
   38.2170   41.7490   34.2440 N   0  0  0  0  0  0
   39.1590   41.4440   35.3460 C   0  0  0  0  0  0
   40.2020   40.3990   34.8780 C   0  0  0  0  0  0
   41.1370   39.9680   36.0180 C   0  0  0  0  0  0
   41.9520   38.7370   35.6300 C   0  0  0  0  0  0
   37.4460   43.2730   32.5150 C   0  0  0  0  0  0
   37.7890   44.5060   32.0810 N   0  0  0  0  0  0
   36.4470   42.4000   32.0870 C   0  0  0  0  0  0
   35.6740   42.6810   31.1660 O   0  0  0  0  0  0
   36.3800   41.1860   32.7780 N   0  0  0  0  0  0
   37.2450   40.8590   33.8370 C   0  0  0  0  0  0
   37.1310   39.7930   34.4150 O   0  0  0  0  0  0
   35.6750   40.0310   32.1730 C   0  0  0  0  0  0
   34.2810   40.0170   32.7520 C   0  0  0  0  0  0
   34.0250   40.3500   34.1000 C   0  0  0  0  0  0
   32.7130   40.3340   34.6040 C   0  0  0  0  0  0
   31.6510   39.9680   33.7640 C   0  0  0  0  0  0
   31.8990   39.6340   32.4210 C   0  0  0  0  0  0
   33.2120   39.6650   31.9230 C   0  0  0  0  0  0
   33.4370   39.3320   30.6350 F   0  0  0  0  0  0
   34.8817   53.0856   35.6142 H   0  0  0  0  0  0
   36.3352   52.9513   36.6611 H   0  0  0  0  0  0
   34.9188   51.8849   36.9497 H   0  0  0  0  0  0
   37.1756   50.3547   36.8128 H   0  0  0  0  0  0
   38.6950   48.6083   36.7381 H   0  0  0  0  0  0
   39.8484   46.7762   35.5032 H   0  0  0  0  0  0
   36.6868   49.7772   33.0985 H   0  0  0  0  0  0
   37.8478   47.9539   31.8654 H   0  0  0  0  0  0
   39.7144   46.4289   31.7820 H   0  0  0  0  0  0
   40.6035   45.9529   33.2684 H   0  0  0  0  0  0
   39.6798   42.3645   35.6485 H   0  0  0  0  0  0
   38.6014   41.0395   36.2036 H   0  0  0  0  0  0
   39.6824   39.5047   34.5035 H   0  0  0  0  0  0
   40.8169   40.8294   34.0739 H   0  0  0  0  0  0
   41.8314   40.7882   36.2526 H   0  0  0  0  0  0
   40.5404   39.7263   36.9100 H   0  0  0  0  0  0
   42.6097   38.4545   36.4653 H   0  0  0  0  0  0
   42.5623   38.9657   34.7439 H   0  0  0  0  0  0
   41.2713   37.9038   35.4013 H   0  0  0  0  0  0
   35.6422   40.1529   31.0803 H   0  0  0  0  0  0
   36.2103   39.1030   32.4225 H   0  0  0  0  0  0
   34.8522   40.6219   34.7557 H   0  0  0  0  0  0
   32.5218   40.6047   35.6424 H   0  0  0  0  0  0
   30.6329   39.9425   34.1526 H   0  0  0  0  0  0
   31.0737   39.3515   31.7674 H   0  0  0  0  0  0
  1  2  2  0  0  0
  2  3  1  0  0  0
  2  4  1  0  0  0
  3 35  1  0  0  0
  3 36  1  0  0  0
  3 37  1  0  0  0
  4  5  1  0  0  0
  4 38  1  0  0  0
  5  6  2  0  0  0
  5  8  1  0  0  0
  6  7  1  0  0  0
  6 39  1  0  0  0
  7 10  2  0  0  0
  7 40  1  0  0  0
  8  9  2  0  0  0
  8 41  1  0  0  0
  9 10  1  0  0  0
  9 42  1  0  0  0
 10 11  1  0  0  0
 11 12  1  0  0  0
 11 43  1  0  0  0
 11 44  1  0  0  0
 12 13  2  0  0  0
 12 21  1  0  0  0
 13 14  1  0  0  0
 14 15  1  0  0  0
 14 20  1  0  0  0
 15 16  1  0  0  0
 15 25  1  0  0  0
 16 17  1  0  0  0
 16 45  1  0  0  0
 16 46  1  0  0  0
 17 18  1  0  0  0
 17 47  1  0  0  0
 17 48  1  0  0  0
 18 19  1  0  0  0
 18 49  1  0  0  0
 18 50  1  0  0  0
 19 51  1  0  0  0
 19 52  1  0  0  0
 19 53  1  0  0  0
 20 21  2  0  0  0
 20 22  1  0  0  0
 22 23  2  0  0  0
 22 24  1  0  0  0
 24 25  1  0  0  0
 24 27  1  0  0  0
 25 26  2  0  0  0
 27 28  1  0  0  0
 27 54  1  0  0  0
 27 55  1  0  0  0
 28 29  2  0  0  0
 28 33  1  0  0  0
 29 30  1  0  0  0
 29 56  1  0  0  0
 30 31  2  0  0  0
 30 57  1  0  0  0
 31 32  1  0  0  0
 31 58  1  0  0  0
 32 33  2  0  0  0
 32 59  1  0  0  0
 33 34  1  0  0  0
M  END
> <s_m_source_file>
../1nhx_ligand.sdf

> <i_m_source_file_index>
1

> <s_epik_input>
Tz1DKFtDSDNdKVtOSF1jMVtjSF1bY0hdYyhbY0hdW2NIXTEpW0NIMl1DKD1OMilOPUMoW0NIXTIzKUMoPU8pTihDKD1PKU4zW0NIMl1bQ0gyXVtDSDJdW0NIM10pW0NIMl1jNFtjSF1bY0hdW2NIXVtjSF1jNEY=

> <s_epik_cmdline>
J2VwaWtfYXBwJywgJy1pbWFlJywgJ2xpZ2FuZF9wcm8ubWFlJywgJy1vbWFlJywgJ2xpZ2FuZF9wcmVwLm1hZScsICctbXMnLCAnMScsICctcGgnLCAnNycsICctcGh0JywgJzAuNScsICctbnQn

> <r_lp_tautomer_probability>
1

> <r_epik_Ionization_Penalty>
  0.0004

> <r_epik_Ionization_Penalty_Charging>
  0.0000

> <r_epik_Ionization_Penalty_Neutral>
  0.0004

> <r_epik_State_Penalty>
 -0.0000

> <r_epik_Charging_Adjusted_Penalty>
0

> <i_epik_Tot_Q>
0

> <i_epik_Tot_abs_Q>
0

> <s_epik_Chemistry_Notes>
This compound has an imine and may undergo hydrolysis.

$$$$
