1nhz_ligand
                    3D
 Schrodinger Suite 2020-3.
 67 71  0  0  1  0            999 V2000
   -4.5830   18.2170    3.5200 O   0  0  0  0  0  0
   -3.9930   17.1990    3.7130 C   0  0  0  0  0  0
   -4.7010   15.8380    4.0870 C   0  0  0  0  0  0
   -2.5020   17.0820    3.5340 C   0  0  0  0  0  0
   -1.9970   15.8560    3.2290 C   0  0  0  0  0  0
   -0.4390   15.7460    3.1050 C   0  0  0  0  0  0
   -2.9360   14.7010    3.1750 C   0  0  0  0  0  0
   -4.4750   15.0660    2.8400 C   0  0  0  0  0  0
   -2.4120   13.4380    3.4880 C   0  0  0  0  0  0
   -3.2390   12.0070    3.5310 C   0  0  1  0  0  0
   -3.1910   11.4060    2.0710 C   0  0  0  0  0  0
   -2.3340   12.0250    1.0580 C   0  0  0  0  0  0
   -2.1730   11.5110   -0.2110 C   0  0  0  0  0  0
   -2.8350   10.2880   -0.5950 C   0  0  0  0  0  0
   -2.7790    9.7150   -1.9260 N   0  0  0  0  0  0
   -3.5420    8.4900   -2.1770 C   0  0  0  0  0  0
   -2.3710   10.5100   -3.1140 C   0  0  0  0  0  0
   -3.7120    9.6570    0.4180 C   0  0  0  0  0  0
   -3.8620   10.1890    1.7210 C   0  0  0  0  0  0
   -2.6460   11.0540    4.5960 C   0  0  0  0  0  0
   -1.1360   11.0380    5.0070 C   0  0  2  0  0  0
   -0.4170   10.1100    3.8580 C   0  0  0  0  0  0
   -0.8530   10.3480    6.3800 C   0  0  1  0  0  0
   -1.5870   10.8820    7.5980 C   0  0  0  0  0  0
   -2.4850   11.0420    8.3910 C   0  0  0  0  0  0
   -3.1640   11.4480    9.6560 C   0  0  0  0  0  0
   -0.9200    8.8980    6.3080 O   0  0  0  0  0  0
    0.6230   10.8610    6.4670 C   0  0  0  0  0  0
    0.6840   12.2590    5.7760 C   0  0  0  0  0  0
   -0.7620   12.5550    5.1970 C   0  0  1  0  0  0
   -0.8190   13.3590    3.8950 C   0  0  2  0  0  0
   -0.0450   14.7230    4.1340 C   0  0  0  0  0  0
   -4.2145   15.4029    4.9724 H   0  0  0  0  0  0
   -5.7625   16.0251    4.3067 H   0  0  0  0  0  0
   -1.8268   17.9438    3.6414 H   0  0  0  0  0  0
   -0.1740   15.4242    2.0870 H   0  0  0  0  0  0
    0.0153   16.7267    3.3094 H   0  0  0  0  0  0
   -5.1760   14.2192    2.8009 H   0  0  0  0  0  0
   -4.6395   15.7185    1.9699 H   0  0  0  0  0  0
   -4.2897   12.0950    3.8445 H   0  0  0  0  0  0
   -1.7971   12.9367    1.3200 H   0  0  0  0  0  0
   -1.5408   12.0325   -0.9296 H   0  0  0  0  0  0
   -3.7776    8.0022   -1.2197 H   0  0  0  0  0  0
   -2.9449    7.8072   -2.7993 H   0  0  0  0  0  0
   -4.4764    8.7408   -2.7005 H   0  0  0  0  0  0
   -1.8091   11.3970   -2.7862 H   0  0  0  0  0  0
   -3.2667   10.8274   -3.6680 H   0  0  0  0  0  0
   -1.7353    9.8938   -3.7668 H   0  0  0  0  0  0
   -4.2599    8.7532    0.1513 H   0  0  0  0  0  0
   -4.4844    9.6759    2.4541 H   0  0  0  0  0  0
   -3.1419   11.2297    5.5620 H   0  0  0  0  0  0
   -2.8073   10.0112    4.2854 H   0  0  0  0  0  0
   -0.8260    9.0898    3.9018 H   0  0  0  0  0  0
    0.6677   10.0783    4.0382 H   0  0  0  0  0  0
   -0.6112   10.5405    2.8646 H   0  0  0  0  0  0
   -4.2351   11.2059    9.5912 H   0  0  0  0  0  0
   -3.0412   12.5307    9.8069 H   0  0  0  0  0  0
   -2.7163   10.9067   10.5025 H   0  0  0  0  0  0
   -1.8961    8.3951    6.2427 H   0  0  0  0  0  0
    0.9207   10.9439    7.5227 H   0  0  0  0  0  0
    1.2886   10.1519    5.9529 H   0  0  0  0  0  0
    0.9696   13.0214    6.5157 H   0  0  0  0  0  0
    1.4289   12.2359    4.9669 H   0  0  0  0  0  0
   -1.4197   13.2088    5.7886 H   0  0  0  0  0  0
   -0.2633   12.8930    3.0680 H   0  0  0  0  0  0
    1.0366   14.5339    4.0676 H   0  0  0  0  0  0
   -0.2905   15.0994    5.1380 H   0  0  0  0  0  0
  1  2  2  0  0  0
  2  3  1  0  0  0
  2  4  1  0  0  0
  3  8  1  0  0  0
  3 33  1  0  0  0
  3 34  1  0  0  0
  4  5  2  0  0  0
  4 35  1  0  0  0
  5  6  1  0  0  0
  5  7  1  0  0  0
  6 32  1  0  0  0
  6 36  1  0  0  0
  6 37  1  0  0  0
  7  8  1  0  0  0
  7  9  2  0  0  0
  8 38  1  0  0  0
  8 39  1  0  0  0
  9 10  1  0  0  0
  9 31  1  0  0  0
 10 11  1  0  0  0
 10 20  1  0  0  0
 10 40  1  0  0  0
 11 12  2  0  0  0
 11 19  1  0  0  0
 12 13  1  0  0  0
 12 41  1  0  0  0
 13 14  2  0  0  0
 13 42  1  0  0  0
 14 15  1  0  0  0
 14 18  1  0  0  0
 15 16  1  0  0  0
 15 17  1  0  0  0
 16 43  1  0  0  0
 16 44  1  0  0  0
 16 45  1  0  0  0
 17 46  1  0  0  0
 17 47  1  0  0  0
 17 48  1  0  0  0
 18 19  2  0  0  0
 18 49  1  0  0  0
 19 50  1  0  0  0
 20 21  1  0  0  0
 20 51  1  0  0  0
 20 52  1  0  0  0
 21 22  1  0  0  0
 21 23  1  0  0  0
 21 30  1  0  0  0
 22 53  1  0  0  0
 22 54  1  0  0  0
 22 55  1  0  0  0
 23 24  1  0  0  0
 23 27  1  0  0  0
 23 28  1  0  0  0
 24 25  3  0  0  0
 25 26  1  0  0  0
 26 56  1  0  0  0
 26 57  1  0  0  0
 26 58  1  0  0  0
 27 59  1  0  0  0
 28 29  1  0  0  0
 28 60  1  0  0  0
 28 61  1  0  0  0
 29 30  1  0  0  0
 29 62  1  0  0  0
 29 63  1  0  0  0
 30 31  1  0  0  0
 30 64  1  0  0  0
 31 32  1  0  0  0
 31 65  1  0  0  0
 32 66  1  0  0  0
 32 67  1  0  0  0
M  END
> <s_m_source_file>
../1nhz_ligand.sdf

> <i_m_source_file_index>
1

> <s_epik_input>
W0NIM11OKFtDSDNdKWMoW2NIXVtjSF0xKVtjSF1bY0hdYzFbQ0BASF0oW0NIMl0yKUMoPUMzQyhbQ0gyXVtDSDJdNCk9W0NIXUMoPU8pW0NIMl1bQ0gyXTMpW0NAQEhdNFtDQEBIXShbQ0BdMjVbQ0gzXSlbQ0gyXVtDSDJdW0NAQF01KFtPSF0pQyNDW0NIM10=

> <s_epik_cmdline>
J2VwaWtfYXBwJywgJy1pbWFlJywgJ2xpZ2FuZF9wcm8ubWFlJywgJy1vbWFlJywgJ2xpZ2FuZF9wcmVwLm1hZScsICctbXMnLCAnMScsICctcGgnLCAnNycsICctcGh0JywgJzAuNScsICctbnQn

> <r_epik_Ionization_Penalty>
  0.0203

> <r_epik_Ionization_Penalty_Charging>
  0.0000

> <r_epik_Ionization_Penalty_Neutral>
  0.0203

> <r_epik_State_Penalty>
  0.0163

> <r_epik_Charging_Adjusted_Penalty>
0.0162529325996608

> <i_epik_Tot_Q>
0

> <i_epik_Tot_abs_Q>
0

$$$$
