1ni1_ligand
                    3D
 Schrodinger Suite 2020-3.
 51 54  0  0  1  0            999 V2000
   50.3780   48.9040   -1.2380 O   0  0  0  0  0  0
   50.8460   47.6040   -0.8410 C   0  0  2  0  0  0
   52.1080   47.7610    0.0520 C   0  0  0  0  0  0
   52.0700   47.4920    1.4600 C   0  0  0  0  0  0
   53.2300   47.6620    2.2760 C   0  0  0  0  0  0
   54.4340   48.1010    1.6830 C   0  0  0  0  0  0
   54.4870   48.3620    0.3070 C   0  0  0  0  0  0
   53.3440   48.1980   -0.4920 C   0  0  0  0  0  0
   54.6030   52.0260    1.7970 C   0  0  0  0  0  0
   54.7530   51.7970    0.4120 C   0  0  0  0  0  0
   56.3190   51.4400   -0.2150 Cl  0  0  0  0  0  0
   55.6090   48.3000    2.4660 C   0  0  0  0  0  0
   53.6440   51.8490   -0.4710 C   0  0  0  0  0  0
   56.5540   48.5140    3.0970 N   0  0  0  0  0  0
   53.3150   52.3150    2.2960 C   0  0  0  0  0  0
   52.3520   52.1410    0.0300 C   0  0  0  0  0  0
   52.2020   52.3700    1.4150 C   0  0  0  0  0  0
   50.1050   49.9440   -0.2770 C   0  0  0  0  0  0
   51.7230   45.4050   -3.9430 N   0  3  0  0  0  0
   52.0480   46.0740   -2.6820 C   0  0  0  0  0  0
   50.9830   46.7490   -2.1600 C   0  0  0  0  0  0
   49.9210   46.4700   -3.1740 N   0  0  0  0  0  0
   50.4440   45.6930   -4.1330 C   0  0  0  0  0  0
   48.5250   46.9280   -3.1520 C   0  0  0  0  0  0
   49.1190   51.4100   -1.8960 N   0  0  0  0  0  0
   50.1570   51.2340   -1.0370 C   0  0  0  0  0  0
   51.1780   52.2130   -0.9020 C   0  0  0  0  0  0
   51.0640   53.3740   -1.7000 C   0  0  0  0  0  0
   49.9880   53.5410   -2.6060 C   0  0  0  0  0  0
   49.0090   52.5210   -2.6670 C   0  0  0  0  0  0
   49.9060   54.7340   -3.4130 C   0  0  0  0  0  0
   49.8260   55.6580   -4.0990 N   0  0  0  0  0  0
   47.6380   52.6460   -3.7290 Cl  0  0  0  0  0  0
   50.1043   47.1244   -0.1853 H   0  0  0  0  0  0
   51.1399   47.1519    1.9154 H   0  0  0  0  0  0
   53.1863   47.4550    3.3453 H   0  0  0  0  0  0
   55.4212   48.6943   -0.1457 H   0  0  0  0  0  0
   53.4077   48.4121   -1.5589 H   0  0  0  0  0  0
   55.4626   51.9806    2.4657 H   0  0  0  0  0  0
   53.7864   51.6641   -1.5357 H   0  0  0  0  0  0
   53.1736   52.4967    3.3614 H   0  0  0  0  0  0
   51.2133   52.5933    1.8160 H   0  0  0  0  0  0
   49.1105   49.7832    0.1647 H   0  0  0  0  0  0
   50.8668   49.9195    0.5162 H   0  0  0  0  0  0
   53.0310   46.0371   -2.2124 H   0  0  0  0  0  0
   49.8715   45.3325   -4.9876 H   0  0  0  0  0  0
   48.3570   47.5494   -2.2600 H   0  0  0  0  0  0
   47.8538   46.0570   -3.1238 H   0  0  0  0  0  0
   48.3192   47.5204   -4.0557 H   0  0  0  0  0  0
   51.8187   54.1560   -1.6166 H   0  0  0  0  0  0
   52.4960   44.8335   -4.4776 H   0  0  0  0  0  0
  1  2  1  0  0  0
  1 18  1  0  0  0
  2  3  1  0  0  0
  2 21  1  0  0  0
  2 34  1  0  0  0
  3  4  2  0  0  0
  3  8  1  0  0  0
  4  5  1  0  0  0
  4 35  1  0  0  0
  5  6  2  0  0  0
  5 36  1  0  0  0
  6  7  1  0  0  0
  6 12  1  0  0  0
  7  8  2  0  0  0
  7 37  1  0  0  0
  8 38  1  0  0  0
  9 10  2  0  0  0
  9 15  1  0  0  0
  9 39  1  0  0  0
 10 11  1  0  0  0
 10 13  1  0  0  0
 12 14  3  0  0  0
 13 16  2  0  0  0
 13 40  1  0  0  0
 15 17  2  0  0  0
 15 41  1  0  0  0
 16 17  1  0  0  0
 16 27  1  0  0  0
 17 42  1  0  0  0
 18 26  1  0  0  0
 18 43  1  0  0  0
 18 44  1  0  0  0
 19 20  1  0  0  0
 19 23  2  0  0  0
 19 51  1  0  0  0
 20 21  2  0  0  0
 20 45  1  0  0  0
 21 22  1  0  0  0
 22 23  1  0  0  0
 22 24  1  0  0  0
 23 46  1  0  0  0
 24 47  1  0  0  0
 24 48  1  0  0  0
 24 49  1  0  0  0
 25 26  2  0  0  0
 25 30  1  0  0  0
 26 27  1  0  0  0
 27 28  2  0  0  0
 28 29  1  0  0  0
 28 50  1  0  0  0
 29 30  2  0  0  0
 29 31  1  0  0  0
 30 33  1  0  0  0
 31 32  3  0  0  0
M  CHG  1  19   1
M  END
> <s_m_source_file>
../1ni1_ligand.sdf

> <i_m_source_file_index>
1

> <s_epik_input>
W2NIXTFbY0hdYyhDI04pW2NIXVtjSF1jMVtDQEhdKGMyW2NIXW5bY0hdbjJbQ0gzXSlPW0NIMl1jM25jKENsKWMoQyNOKVtjSF1jMy1jKFtjSF00KVtjSF1bY0hdW2NIXWM0Q2w=

> <s_epik_cmdline>
J2VwaWtfYXBwJywgJy1pbWFlJywgJ2xpZ2FuZF9wcm8ubWFlJywgJy1vbWFlJywgJ2xpZ2FuZF9wcmVwLm1hZScsICctbXMnLCAnMScsICctcGgnLCAnNycsICctcGh0JywgJzAuNScsICctbnQn

> <r_lp_tautomer_probability>
1

> <r_epik_Ionization_Penalty>
  0.2101

> <r_epik_Ionization_Penalty_Charging>
  0.0000

> <r_epik_Ionization_Penalty_Neutral>
  0.2101

> <r_epik_State_Penalty>
  0.2002

> <r_epik_Charging_Adjusted_Penalty>
0.200207577431854

> <i_epik_Tot_Q>
1

> <i_epik_Tot_abs_Q>
1

$$$$
