1nj1_ligand
                    3D
 Schrodinger Suite 2020-3.
 48 50  0  0  1  0            999 V2000
  -35.9760  -79.8260  -41.0890 N   0  3  0  0  0  0
  -34.5200  -79.9190  -41.0260 C   0  0  1  0  0  0
  -33.8810  -78.5490  -40.9800 C   0  0  0  0  0  0
  -34.8610  -77.4050  -40.0070 S   0  0  0  0  0  0
  -34.1460  -80.6510  -39.7710 C   0  0  0  0  0  0
  -34.9160  -81.1100  -38.9640 O   0  5  0  0  0  0
  -32.9120  -81.2250  -39.8930 N   0  0  0  0  0  0
  -32.2610  -82.2960  -38.8900 S   0  0  0  0  0  0
  -33.1810  -83.4350  -38.7140 O   0  0  0  0  0  0
  -30.9160  -82.5760  -39.4920 O   0  0  0  0  0  0
  -32.0400  -81.5710  -37.4770 O   0  0  0  0  0  0
  -31.4750  -80.2500  -37.3870 C   0  0  0  0  0  0
  -30.3270  -80.1980  -36.4020 C   0  0  1  0  0  0
  -30.7980  -80.4420  -35.0510 O   0  0  0  0  0  0
  -29.2370  -81.2230  -36.6300 C   0  0  1  0  0  0
  -28.2750  -80.6930  -37.5440 O   0  0  0  0  0  0
  -28.6750  -81.4880  -35.2420 C   0  0  1  0  0  0
  -27.5650  -80.6710  -34.9240 O   0  0  0  0  0  0
  -29.8410  -81.1920  -34.3160 C   0  0  2  0  0  0
  -30.5320  -82.3740  -33.7320 N   0  0  0  0  0  0
  -31.1910  -83.4110  -34.3680 C   0  0  0  0  0  0
  -31.7090  -84.3000  -33.5380 N   0  0  0  0  0  0
  -31.3760  -83.8280  -32.2790 C   0  0  0  0  0  0
  -31.6320  -84.3100  -30.9510 C   0  0  0  0  0  0
  -32.3150  -85.4240  -30.6890 N   0  0  0  0  0  0
  -31.1510  -83.5890  -29.8880 N   0  0  0  0  0  0
  -30.4530  -82.4460  -30.1300 C   0  0  0  0  0  0
  -30.1550  -81.8980  -31.3360 N   0  0  0  0  0  0
  -30.6460  -82.6400  -32.3750 C   0  0  0  0  0  0
  -36.2700  -79.2913  -42.0043 H   0  0  0  0  0  0
  -36.3468  -79.2790  -40.2096 H   0  0  0  0  0  0
  -36.4079  -80.8376  -41.1005 H   0  0  0  0  0  0
  -34.1961  -80.4535  -41.9312 H   0  0  0  0  0  0
  -32.8813  -78.6257  -40.5276 H   0  0  0  0  0  0
  -33.7915  -78.1516  -42.0018 H   0  0  0  0  0  0
  -34.5264  -76.3650  -39.8791 H   0  0  0  0  0  0
  -31.0982  -79.9444  -38.3742 H   0  0  0  0  0  0
  -32.2486  -79.5422  -37.0546 H   0  0  0  0  0  0
  -29.9200  -79.1816  -36.5082 H   0  0  0  0  0  0
  -29.5487  -82.1496  -37.1342 H   0  0  0  0  0  0
  -28.5684  -80.4620  -38.5787 H   0  0  0  0  0  0
  -28.2269  -82.4872  -35.1376 H   0  0  0  0  0  0
  -26.6334  -80.7594  -35.5022 H   0  0  0  0  0  0
  -29.4586  -80.6144  -33.4615 H   0  0  0  0  0  0
  -31.2752  -83.4878  -35.4520 H   0  0  0  0  0  0
  -32.7170  -86.0297  -31.5146 H   0  0  0  0  0  0
  -32.4768  -85.7378  -29.6472 H   0  0  0  0  0  0
  -30.0911  -81.9080  -29.2538 H   0  0  0  0  0  0
  1  2  1  0  0  0
  1 30  1  0  0  0
  1 31  1  0  0  0
  1 32  1  0  0  0
  2  3  1  0  0  0
  2  5  1  0  0  0
  2 33  1  0  0  0
  3  4  1  0  0  0
  3 34  1  0  0  0
  3 35  1  0  0  0
  4 36  1  0  0  0
  5  6  1  0  0  0
  5  7  2  0  0  0
  7  8  1  0  0  0
  8  9  2  0  0  0
  8 10  2  0  0  0
  8 11  1  0  0  0
 11 12  1  0  0  0
 12 13  1  0  0  0
 12 37  1  0  0  0
 12 38  1  0  0  0
 13 14  1  0  0  0
 13 15  1  0  0  0
 13 39  1  0  0  0
 14 19  1  0  0  0
 15 16  1  0  0  0
 15 17  1  0  0  0
 15 40  1  0  0  0
 16 41  1  0  0  0
 17 18  1  0  0  0
 17 19  1  0  0  0
 17 42  1  0  0  0
 18 43  1  0  0  0
 19 20  1  0  0  0
 19 44  1  0  0  0
 20 21  1  0  0  0
 20 29  1  0  0  0
 21 22  2  0  0  0
 21 45  1  0  0  0
 22 23  1  0  0  0
 23 24  2  0  0  0
 23 29  1  0  0  0
 24 25  1  0  0  0
 24 26  1  0  0  0
 25 46  1  0  0  0
 25 47  1  0  0  0
 26 27  2  0  0  0
 27 28  1  0  0  0
 27 48  1  0  0  0
 28 29  2  0  0  0
M  CHG  2   1   1   6  -1
M  END
> <s_m_source_file>
../1nj1_ligand.sdf

> <i_m_source_file_index>
1

> <s_epik_input>
W1NIXVtDSDJdW0NASF0oW05IMytdKUMoPU8pW05IXVMoPU8pKD1PKU9bQ0gyXVtDQEhdMU9bQ0BIXShbQ0BIXShbT0hdKVtDQEBIXTFbT0hdKW4oW2NIXW4yKWMoYzIzKW5bY0hdbmMzW05IMl0=

> <s_epik_cmdline>
J2VwaWtfYXBwJywgJy1pbWFlJywgJ2xpZ2FuZF9wcm8ubWFlJywgJy1vbWFlJywgJ2xpZ2FuZF9wcmVwLm1hZScsICctbXMnLCAnMScsICctcGgnLCAnNycsICctcGh0JywgJzAuNScsICctbnQn

> <r_lp_tautomer_probability>
1

> <r_epik_Ionization_Penalty>
  0.0924

> <r_epik_Ionization_Penalty_Charging>
  0.0732

> <r_epik_Ionization_Penalty_Neutral>
  0.0192

> <r_epik_State_Penalty>
 -0.0000

> <r_epik_Charging_Adjusted_Penalty>
0.0732378528584141

> <i_epik_Tot_Q>
0

> <i_epik_Tot_abs_Q>
2

> <s_epik_Chemistry_Notes>
This compound contains an acetal/aminal-like group ( X-CH(R)-Y where X, Y are N, S, or O) that may be acid/base labile, releasing an aldehyde.

$$$$
