1nj5_ligand
                    3D
 Schrodinger Suite 2020-3.
 51 54  0  0  1  0            999 V2000
  -33.8120  -78.6330  -41.0350 C   0  0  0  0  0  0
  -34.6990  -77.7560  -40.1660 C   0  0  0  0  0  0
  -34.2250  -80.8960  -39.9730 C   0  0  0  0  0  0
  -35.0350  -81.1790  -39.0820 O   0  5  0  0  0  0
  -36.0370  -79.5520  -40.9990 N   0  3  0  0  0  0
  -36.1590  -78.1620  -40.5100 C   0  0  0  0  0  0
  -34.6190  -79.9300  -41.1030 C   0  0  1  0  0  0
  -32.9820  -81.3910  -40.0110 N   0  0  0  0  0  0
  -32.3650  -82.3860  -38.9380 S   0  0  0  0  0  0
  -33.2810  -83.5300  -38.7480 O   0  0  0  0  0  0
  -30.9780  -82.6450  -39.4540 O   0  0  0  0  0  0
  -32.2310  -81.5750  -37.5700 O   0  0  0  0  0  0
  -31.4920  -80.3370  -37.5110 C   0  0  0  0  0  0
  -30.3650  -80.3880  -36.4960 C   0  0  1  0  0  0
  -30.9010  -80.6470  -35.1770 O   0  0  0  0  0  0
  -29.9890  -81.4020  -34.4060 C   0  0  1  0  0  0
  -30.6730  -82.5670  -33.8150 N   0  0  0  0  0  0
  -30.7710  -82.8100  -32.4510 C   0  0  0  0  0  0
  -30.2670  -82.0510  -31.4230 N   0  0  0  0  0  0
  -30.5510  -82.5820  -30.2240 C   0  0  0  0  0  0
  -31.2470  -83.7160  -29.9550 N   0  0  0  0  0  0
  -31.7410  -84.4570  -30.9940 C   0  0  0  0  0  0
  -32.4220  -85.5610  -30.7000 N   0  0  0  0  0  0
  -31.5060  -83.9940  -32.3310 C   0  0  0  0  0  0
  -31.8500  -84.4870  -33.5800 N   0  0  0  0  0  0
  -31.3400  -83.6100  -34.4210 C   0  0  0  0  0  0
  -28.7710  -81.6700  -35.2950 C   0  0  2  0  0  0
  -27.7780  -80.7320  -34.9190 O   0  0  0  0  0  0
  -29.3420  -81.4940  -36.6970 C   0  0  2  0  0  0
  -28.3540  -81.0540  -37.6250 O   0  0  0  0  0  0
  -33.6760  -78.1574  -42.0175 H   0  0  0  0  0  0
  -32.8328  -78.7590  -40.5499 H   0  0  0  0  0  0
  -34.4718  -77.9412  -39.1058 H   0  0  0  0  0  0
  -34.5122  -76.6979  -40.4016 H   0  0  0  0  0  0
  -36.5411  -80.2330  -40.2975 H   0  0  0  0  0  0
  -36.5057  -79.6343  -41.9907 H   0  0  0  0  0  0
  -36.7814  -78.0936  -39.6056 H   0  0  0  0  0  0
  -36.5561  -77.4847  -41.2804 H   0  0  0  0  0  0
  -34.4597  -80.4505  -42.0589 H   0  0  0  0  0  0
  -31.0534  -80.1245  -38.4971 H   0  0  0  0  0  0
  -32.1698  -79.5185  -37.2271 H   0  0  0  0  0  0
  -29.8845  -79.4015  -36.5733 H   0  0  0  0  0  0
  -29.6743  -80.8375  -33.5159 H   0  0  0  0  0  0
  -30.1765  -82.0351  -29.3587 H   0  0  0  0  0  0
  -32.5638  -85.8565  -29.6500 H   0  0  0  0  0  0
  -32.8434  -86.1785  -31.5069 H   0  0  0  0  0  0
  -31.4372  -83.7015  -35.5028 H   0  0  0  0  0  0
  -28.2240  -82.6197  -35.2009 H   0  0  0  0  0  0
  -27.3154  -80.7904  -33.9227 H   0  0  0  0  0  0
  -29.7063  -82.4251  -37.1557 H   0  0  0  0  0  0
  -28.6248  -80.8845  -38.6776 H   0  0  0  0  0  0
  1  2  1  0  0  0
  1  7  1  0  0  0
  1 31  1  0  0  0
  1 32  1  0  0  0
  2  6  1  0  0  0
  2 33  1  0  0  0
  2 34  1  0  0  0
  3  4  1  0  0  0
  3  7  1  0  0  0
  3  8  2  0  0  0
  5  6  1  0  0  0
  5  7  1  0  0  0
  5 35  1  0  0  0
  5 36  1  0  0  0
  6 37  1  0  0  0
  6 38  1  0  0  0
  7 39  1  0  0  0
  8  9  1  0  0  0
  9 10  2  0  0  0
  9 11  2  0  0  0
  9 12  1  0  0  0
 12 13  1  0  0  0
 13 14  1  0  0  0
 13 40  1  0  0  0
 13 41  1  0  0  0
 14 15  1  0  0  0
 14 29  1  0  0  0
 14 42  1  0  0  0
 15 16  1  0  0  0
 16 17  1  0  0  0
 16 27  1  0  0  0
 16 43  1  0  0  0
 17 18  1  0  0  0
 17 26  1  0  0  0
 18 19  1  0  0  0
 18 24  2  0  0  0
 19 20  2  0  0  0
 20 21  1  0  0  0
 20 44  1  0  0  0
 21 22  2  0  0  0
 22 23  1  0  0  0
 22 24  1  0  0  0
 23 45  1  0  0  0
 23 46  1  0  0  0
 24 25  1  0  0  0
 25 26  2  0  0  0
 26 47  1  0  0  0
 27 28  1  0  0  0
 27 29  1  0  0  0
 27 48  1  0  0  0
 28 49  1  0  0  0
 29 30  1  0  0  0
 29 50  1  0  0  0
 30 51  1  0  0  0
M  CHG  2   4  -1   5   1
M  END
> <s_m_source_file>
../1nj5_ligand.sdf

> <i_m_source_file_index>
1

> <s_epik_input>
W05IMitdMVtDSDJdW0NIMl1bQ0gyXVtDQEhdMUMoPU8pW05IXVMoPU8pKD1PKU9bQ0gyXVtDQEhdMk9bQ0BIXShbQ0BIXShbT0hdKVtDQEBIXTJbT0hdKW4zW2NIXW5jKGMzNCljKFtOSDJdKW5bY0hdbjQ=

> <s_epik_cmdline>
J2VwaWtfYXBwJywgJy1pbWFlJywgJ2xpZ2FuZF9wcm8ubWFlJywgJy1vbWFlJywgJ2xpZ2FuZF9wcmVwLm1hZScsICctbXMnLCAnMScsICctcGgnLCAnNycsICctcGh0JywgJzAuNScsICctbnQn

> <r_lp_tautomer_probability>
1

> <r_epik_Ionization_Penalty>
  0.0078

> <r_epik_Ionization_Penalty_Charging>
  0.0074

> <r_epik_Ionization_Penalty_Neutral>
  0.0004

> <r_epik_State_Penalty>
 -0.0000

> <r_epik_Charging_Adjusted_Penalty>
0.00735834741676109

> <i_epik_Tot_Q>
0

> <i_epik_Tot_abs_Q>
2

> <s_epik_Chemistry_Notes>
This compound contains an acetal/aminal-like group ( X-CH(R)-Y where X, Y are N, S, or O) that may be acid/base labile, releasing an aldehyde.

$$$$
