1njb_ligand
                    3D
 Schrodinger Suite 2020-3.
 31 32  0  0  1  0            999 V2000
   14.8350   48.6670  -53.7220 N   0  0  0  0  0  0
   14.0010   47.6040  -53.2930 C   0  0  0  0  0  0
   13.1350   47.8370  -52.2100 N   0  0  0  0  0  0
   13.0410   49.0460  -51.5290 C   0  0  0  0  0  0
   13.9550   50.0780  -52.0280 C   0  0  0  0  0  0
   14.8230   49.8340  -53.1130 C   0  0  0  0  0  0
   13.9930   46.4800  -53.7910 O   0  0  0  0  0  0
   12.2150   49.1940  -50.6280 O   0  0  0  0  0  0
   15.7010   48.5970  -54.9600 C   0  0  1  0  0  0
   15.2140   47.8970  -56.2300 C   0  0  0  0  0  0
   16.3680   48.1350  -57.1920 C   0  0  1  0  0  0
   16.7520   49.6130  -57.0540 C   0  0  2  0  0  0
   17.4610   47.3730  -56.7310 O   0  0  0  0  0  0
   16.4770   49.7800  -55.5790 O   0  0  0  0  0  0
   15.7890   50.4960  -57.8560 C   0  0  0  0  0  0
   15.9170   50.2850  -59.3180 O   0  0  0  0  0  0
   15.9820   51.5650  -60.2870 P   0  0  0  0  0  0
   16.2200   51.1250  -61.7030 O   0  5  0  0  0  0
   14.7690   52.3560  -60.0650 O   0  5  0  0  0  0
   17.0260   52.4010  -59.7760 O   0  0  0  0  0  0
   12.4747   47.0338  -51.8511 H   0  0  0  0  0  0
   13.9641   51.0572  -51.5492 H   0  0  0  0  0  0
   15.4937   50.6235  -53.4521 H   0  0  0  0  0  0
   16.3167   48.0069  -54.2653 H   0  0  0  0  0  0
   15.0443   46.8309  -56.0189 H   0  0  0  0  0  0
   14.2736   48.3586  -56.5655 H   0  0  0  0  0  0
   16.1545   47.8191  -58.2238 H   0  0  0  0  0  0
   17.7653   49.8804  -57.3882 H   0  0  0  0  0  0
   17.4075   46.2743  -56.7380 H   0  0  0  0  0  0
   14.7530   50.2643  -57.5679 H   0  0  0  0  0  0
   16.0002   51.5547  -57.6450 H   0  0  0  0  0  0
  1  2  1  0  0  0
  1  6  1  0  0  0
  1  9  1  0  0  0
  2  3  1  0  0  0
  2  7  2  0  0  0
  3  4  1  0  0  0
  3 21  1  0  0  0
  4  5  1  0  0  0
  4  8  2  0  0  0
  5  6  2  0  0  0
  5 22  1  0  0  0
  6 23  1  0  0  0
  9 10  1  0  0  0
  9 14  1  0  0  0
  9 24  1  0  0  0
 10 11  1  0  0  0
 10 25  1  0  0  0
 10 26  1  0  0  0
 11 12  1  0  0  0
 11 13  1  0  0  0
 11 27  1  0  0  0
 12 14  1  0  0  0
 12 15  1  0  0  0
 12 28  1  0  0  0
 13 29  1  0  0  0
 15 16  1  0  0  0
 15 30  1  0  0  0
 15 31  1  0  0  0
 16 17  1  0  0  0
 17 18  1  0  0  0
 17 19  1  0  0  0
 17 20  2  0  0  0
M  CHG  2  18  -1  19  -1
M  END
> <s_m_source_file>
../1njb_ligand.sdf

> <i_m_source_file_index>
1

> <s_epik_input>
W2NIXTFbY0hdYyg9TylbbkhdYyg9TyluMVtDQEhdMltDSDJdW0NASF0oW09IXSlbQ0BIXShPMilbQ0gyXU9QKD1PKShbT0hdKVtPSF0=

> <s_epik_cmdline>
J2VwaWtfYXBwJywgJy1pbWFlJywgJ2xpZ2FuZF9wcm8ubWFlJywgJy1vbWFlJywgJ2xpZ2FuZF9wcmVwLm1hZScsICctbXMnLCAnMScsICctcGgnLCAnNycsICctcGh0JywgJzAuNScsICctbnQn

> <r_lp_tautomer_probability>
0.999537046341301

> <r_epik_Ionization_Penalty>
  0.1102

> <r_epik_Ionization_Penalty_Charging>
  0.1102

> <r_epik_Ionization_Penalty_Neutral>
  0.0000

> <r_epik_State_Penalty>
  0.0980

> <r_epik_Charging_Adjusted_Penalty>
0.208182664404309

> <i_epik_Tot_Q>
-2

> <i_epik_Tot_abs_Q>
2

> <s_epik_Chemistry_Notes>
This compound contains an acetal/aminal-like group ( X-CH(R)-Y where X, Y are N, S, or O) that may be acid/base labile, releasing an aldehyde.

$$$$
