1njc_ligand
                    3D
 Schrodinger Suite 2020-3.
 32 33  0  0  1  0            999 V2000
   14.9020   46.4380  -51.7190 N   0  0  0  0  0  0
   14.1850   45.3580  -51.2250 C   0  0  0  0  0  0
   13.7110   45.4090  -49.9240 N   0  0  0  0  0  0
   13.9520   46.4790  -49.1260 C   0  0  0  0  0  0
   14.6640   47.6150  -49.6750 C   0  0  0  0  0  0
   15.1110   47.5240  -51.0020 C   0  0  0  0  0  0
   13.9430   44.3460  -51.8670 O   0  0  0  0  0  0
   13.6750   46.4080  -47.8210 N   0  0  0  0  0  0
   15.7210   46.3370  -52.9350 C   0  0  1  0  0  0
   15.0440   46.1050  -54.2880 C   0  0  0  0  0  0
   16.2320   46.2250  -55.2340 C   0  0  1  0  0  0
   16.9860   47.4800  -54.8130 C   0  0  2  0  0  0
   16.6240   47.4730  -53.3390 O   0  0  0  0  0  0
   17.1240   45.1520  -54.9100 O   0  0  0  0  0  0
   16.4080   48.7120  -55.5100 C   0  0  0  0  0  0
   16.8400   48.7060  -56.9070 O   0  0  0  0  0  0
   15.9630   49.4190  -58.0000 P   0  0  0  0  0  0
   16.6410   49.6050  -59.3080 O   0  5  0  0  0  0
   14.9040   48.4060  -58.0760 O   0  5  0  0  0  0
   15.4330   50.7220  -57.5860 O   0  0  0  0  0  0
   14.8460   48.5088  -49.0783 H   0  0  0  0  0  0
   15.6403   48.3662  -51.4476 H   0  0  0  0  0  0
   13.1335   45.5384  -47.4202 H   0  0  0  0  0  0
   13.9884   47.2191  -47.1473 H   0  0  0  0  0  0
   16.2281   45.4775  -52.4723 H   0  0  0  0  0  0
   14.5748   45.1102  -54.2974 H   0  0  0  0  0  0
   14.2750   46.8747  -54.4500 H   0  0  0  0  0  0
   15.9446   46.1861  -56.2951 H   0  0  0  0  0  0
   18.0623   47.4991  -55.0392 H   0  0  0  0  0  0
   16.8292   44.1117  -55.1120 H   0  0  0  0  0  0
   15.3097   48.6809  -55.4584 H   0  0  0  0  0  0
   16.7730   49.6212  -55.0099 H   0  0  0  0  0  0
  1  9  1  0  0  0
  1  6  1  0  0  0
  1  2  1  0  0  0
  2  7  2  0  0  0
  2  3  1  0  0  0
  3  4  2  0  0  0
  4  8  1  0  0  0
  4  5  1  0  0  0
  5  6  2  0  0  0
  5 21  1  0  0  0
  6 22  1  0  0  0
  8 23  1  0  0  0
  8 24  1  0  0  0
  9 13  1  0  0  0
  9 10  1  0  0  0
  9 25  1  0  0  0
 10 11  1  0  0  0
 10 26  1  0  0  0
 10 27  1  0  0  0
 11 14  1  0  0  0
 11 12  1  0  0  0
 11 28  1  0  0  0
 12 15  1  0  0  0
 12 13  1  0  0  0
 12 29  1  0  0  0
 14 30  1  0  0  0
 15 16  1  0  0  0
 15 31  1  0  0  0
 15 32  1  0  0  0
 16 17  1  0  0  0
 17 20  2  0  0  0
 17 19  1  0  0  0
 17 18  1  0  0  0
M  CHG  2  18  -1  19  -1
M  END
> <s_m_source_file>
../1njc_ligand.sdf

> <i_m_source_file_index>
1

> <s_epik_input>
W2NIXTFbY0hdYyhbTkgyXSluYyg9TyluMVtDQEhdMltDSDJdW0NASF0oW09IXSlbQ0BIXShPMilbQ0gyXU9QKD1PKShbT0hdKVtPSF0=

> <s_epik_cmdline>
J2VwaWtfYXBwJywgJy1pbWFlJywgJ2xpZ2FuZF9wcm8ubWFlJywgJy1vbWFlJywgJ2xpZ2FuZF9wcmVwLm1hZScsICctbXMnLCAnMScsICctcGgnLCAnNycsICctcGh0JywgJzAuNScsICctbnQn

> <r_lp_tautomer_probability>
0.999959729267721

> <r_epik_Ionization_Penalty>
  0.1054

> <r_epik_Ionization_Penalty_Charging>
  0.1042

> <r_epik_Ionization_Penalty_Neutral>
  0.0013

> <r_epik_State_Penalty>
  0.0941

> <r_epik_Charging_Adjusted_Penalty>
0.198292043725241

> <i_epik_Tot_Q>
-2

> <i_epik_Tot_abs_Q>
2

> <s_epik_Chemistry_Notes>
This compound contains an acetal/aminal-like group ( X-CH(R)-Y where X, Y are N, S, or O) that may be acid/base labile, releasing an aldehyde.

$$$$
