1njd_ligand
                    3D
 Schrodinger Suite 2020-3.
 31 32  0  0  1  0            999 V2000
   14.3370   48.9220  -53.7510 N   0  0  0  0  0  0
   13.7210   47.7480  -53.2950 C   0  0  0  0  0  0
   13.1870   47.7900  -52.0450 N   0  0  0  0  0  0
   13.1950   48.8840  -51.2070 C   0  0  0  0  0  0
   13.8270   50.0850  -51.7730 C   0  0  0  0  0  0
   14.3800   50.0490  -53.0580 C   0  0  0  0  0  0
   13.5560   46.7160  -53.9220 O   0  0  0  0  0  0
   12.7370   48.7600  -50.0710 O   0  0  0  0  0  0
   15.2860   48.8570  -54.8720 C   0  0  1  0  0  0
   14.9090   48.3410  -56.2530 C   0  0  0  0  0  0
   16.2430   48.4610  -56.9730 C   0  0  1  0  0  0
   16.8010   49.8430  -56.6170 C   0  0  2  0  0  0
   17.0720   47.4190  -56.4130 O   0  0  0  0  0  0
   16.2780   49.9550  -55.1960 O   0  0  0  0  0  0
   16.1420   50.9350  -57.4670 C   0  0  0  0  0  0
   16.5150   50.8640  -58.8880 O   0  0  0  0  0  0
   15.7870   51.8270  -59.9230 P   0  0  0  0  0  0
   14.7100   51.0060  -60.4670 O   0  0  0  0  0  0
   15.1840   53.0580  -59.4170 O   0  5  0  0  0  0
   16.7390   52.1750  -60.9980 O   0  5  0  0  0  0
   12.6971   46.8987  -51.6260 H   0  0  0  0  0  0
   13.8648   51.0054  -51.1903 H   0  0  0  0  0  0
   14.8415   50.9399  -53.4839 H   0  0  0  0  0  0
   15.6796   48.0945  -54.1838 H   0  0  0  0  0  0
   14.5432   47.3069  -56.1707 H   0  0  0  0  0  0
   14.1187   48.9767  -56.6788 H   0  0  0  0  0  0
   16.2077   48.3145  -58.0626 H   0  0  0  0  0  0
   17.8871   49.9541  -56.7512 H   0  0  0  0  0  0
   16.8118   46.3625  -56.5749 H   0  0  0  0  0  0
   15.0481   50.8381  -57.4045 H   0  0  0  0  0  0
   16.4445   51.9240  -57.0922 H   0  0  0  0  0  0
  1  2  1  0  0  0
  1  6  1  0  0  0
  1  9  1  0  0  0
  2  3  1  0  0  0
  2  7  2  0  0  0
  3  4  1  0  0  0
  3 21  1  0  0  0
  4  5  1  0  0  0
  4  8  2  0  0  0
  5  6  2  0  0  0
  5 22  1  0  0  0
  6 23  1  0  0  0
  9 10  1  0  0  0
  9 14  1  0  0  0
  9 24  1  0  0  0
 10 11  1  0  0  0
 10 25  1  0  0  0
 10 26  1  0  0  0
 11 12  1  0  0  0
 11 13  1  0  0  0
 11 27  1  0  0  0
 12 14  1  0  0  0
 12 15  1  0  0  0
 12 28  1  0  0  0
 13 29  1  0  0  0
 15 16  1  0  0  0
 15 30  1  0  0  0
 15 31  1  0  0  0
 16 17  1  0  0  0
 17 18  2  0  0  0
 17 19  1  0  0  0
 17 20  1  0  0  0
M  CHG  2  19  -1  20  -1
M  END
> <s_m_source_file>
../1njd_ligand.sdf

> <i_m_source_file_index>
1

> <s_epik_input>
W2NIXTFbY0hdYyg9TylbbkhdYyg9TyluMVtDQEhdMltDSDJdW0NASF0oW09IXSlbQ0BIXShPMilbQ0gyXU9QKD1PKShbT0hdKVtPSF0=

> <s_epik_cmdline>
J2VwaWtfYXBwJywgJy1pbWFlJywgJ2xpZ2FuZF9wcm8ubWFlJywgJy1vbWFlJywgJ2xpZ2FuZF9wcmVwLm1hZScsICctbXMnLCAnMScsICctcGgnLCAnNycsICctcGh0JywgJzAuNScsICctbnQn

> <r_lp_tautomer_probability>
0.999537046341301

> <r_epik_Ionization_Penalty>
  0.1102

> <r_epik_Ionization_Penalty_Charging>
  0.1102

> <r_epik_Ionization_Penalty_Neutral>
  0.0000

> <r_epik_State_Penalty>
  0.0980

> <r_epik_Charging_Adjusted_Penalty>
0.208182664404309

> <i_epik_Tot_Q>
-2

> <i_epik_Tot_abs_Q>
2

> <s_epik_Chemistry_Notes>
This compound contains an acetal/aminal-like group ( X-CH(R)-Y where X, Y are N, S, or O) that may be acid/base labile, releasing an aldehyde.

$$$$
