1nje_ligand
                    3D
 Schrodinger Suite 2020-3.
 32 33  0  0  1  0            999 V2000
   14.9720   48.6210  -53.6410 N   0  0  0  0  0  0
   13.9580   47.6620  -53.3390 C   0  0  0  0  0  0
   13.4530   47.6980  -52.0380 N   0  0  0  0  0  0
   13.8990   48.5830  -51.1030 C   0  0  0  0  0  0
   14.9300   49.5440  -51.4400 C   0  0  0  0  0  0
   15.4140   49.5060  -52.7440 C   0  0  0  0  0  0
   13.4740   46.8020  -54.0790 O   0  0  0  0  0  0
   13.3350   48.5740  -49.8930 N   0  0  0  0  0  0
   15.7710   48.7160  -54.8950 C   0  0  1  0  0  0
   15.2940   48.0030  -56.1650 C   0  0  0  0  0  0
   16.2370   48.5670  -57.2150 C   0  0  1  0  0  0
   16.2670   50.0920  -56.9730 C   0  0  2  0  0  0
   16.0570   50.0850  -55.4720 O   0  0  0  0  0  0
   17.5420   47.9390  -56.9360 O   0  0  0  0  0  0
   15.0230   50.7860  -57.5420 C   0  0  0  0  0  0
   14.9310   50.8660  -58.9920 O   0  0  0  0  0  0
   15.6650   52.0000  -59.8200 P   0  0  0  0  0  0
   17.0980   51.7610  -59.7950 O   0  5  0  0  0  0
   15.2470   51.8460  -61.2140 O   0  5  0  0  0  0
   15.2910   53.2800  -59.2480 O   0  0  0  0  0  0
   15.3070   50.2598  -50.7095 H   0  0  0  0  0  0
   16.1792   50.2223  -53.0432 H   0  0  0  0  0  0
   12.5538   47.8368  -49.6558 H   0  0  0  0  0  0
   13.6514   49.3038  -49.1332 H   0  0  0  0  0  0
   16.6197   48.2351  -54.3866 H   0  0  0  0  0  0
   15.3943   46.9154  -56.0345 H   0  0  0  0  0  0
   14.2396   48.2541  -56.3524 H   0  0  0  0  0  0
   15.9762   48.3454  -58.2604 H   0  0  0  0  0  0
   17.1548   50.5933  -57.3858 H   0  0  0  0  0  0
   17.6692   46.8541  -57.0655 H   0  0  0  0  0  0
   14.1210   50.2495  -57.2126 H   0  0  0  0  0  0
   14.9847   51.8242  -57.1805 H   0  0  0  0  0  0
  1  9  1  0  0  0
  1  6  1  0  0  0
  1  2  1  0  0  0
  2  7  2  0  0  0
  2  3  1  0  0  0
  3  4  2  0  0  0
  4  8  1  0  0  0
  4  5  1  0  0  0
  5  6  2  0  0  0
  5 21  1  0  0  0
  6 22  1  0  0  0
  8 23  1  0  0  0
  8 24  1  0  0  0
  9 13  1  0  0  0
  9 10  1  0  0  0
  9 25  1  0  0  0
 10 11  1  0  0  0
 10 26  1  0  0  0
 10 27  1  0  0  0
 11 14  1  0  0  0
 11 12  1  0  0  0
 11 28  1  0  0  0
 12 15  1  0  0  0
 12 13  1  0  0  0
 12 29  1  0  0  0
 14 30  1  0  0  0
 15 16  1  0  0  0
 15 31  1  0  0  0
 15 32  1  0  0  0
 16 17  1  0  0  0
 17 20  2  0  0  0
 17 19  1  0  0  0
 17 18  1  0  0  0
M  CHG  2  18  -1  19  -1
M  END
> <s_m_source_file>
../1nje_ligand.sdf

> <i_m_source_file_index>
1

> <s_epik_input>
W2NIXTFbY0hdYyhbTkgyXSluYyg9TyluMVtDQEhdMltDSDJdW0NASF0oW09IXSlbQ0BIXShPMilbQ0gyXU9QKD1PKShbT0hdKVtPSF0=

> <s_epik_cmdline>
J2VwaWtfYXBwJywgJy1pbWFlJywgJ2xpZ2FuZF9wcm8ubWFlJywgJy1vbWFlJywgJ2xpZ2FuZF9wcmVwLm1hZScsICctbXMnLCAnMScsICctcGgnLCAnNycsICctcGh0JywgJzAuNScsICctbnQn

> <r_lp_tautomer_probability>
0.999959729267721

> <r_epik_Ionization_Penalty>
  0.1054

> <r_epik_Ionization_Penalty_Charging>
  0.1042

> <r_epik_Ionization_Penalty_Neutral>
  0.0013

> <r_epik_State_Penalty>
  0.0941

> <r_epik_Charging_Adjusted_Penalty>
0.198292043725241

> <i_epik_Tot_Q>
-2

> <i_epik_Tot_abs_Q>
2

> <s_epik_Chemistry_Notes>
This compound contains an acetal/aminal-like group ( X-CH(R)-Y where X, Y are N, S, or O) that may be acid/base labile, releasing an aldehyde.

$$$$
