1njf_ligand
                    3D
 Schrodinger Suite 2020-3.
 44 46  0  0  1  0            999 V2000
    1.0390   21.9600   38.7370 P   0  0  1  0  0  0
    1.9400   23.1630   38.3100 O   0  5  0  0  0  0
   -0.3240   22.1490   38.1560 O   0  0  0  0  0  0
    1.7880   20.4990   38.2240 S   0  0  0  0  0  0
    1.7840   21.6820   41.6690 P   0  0  2  0  0  0
    3.1270   22.2640   41.3270 O   0  0  0  0  0  0
    1.7010   20.2760   42.2050 O   0  5  0  0  0  0
    0.8480   21.8650   40.3860 O   0  0  0  0  0  0
    1.5460   24.0440   43.3900 P   0  0  1  0  0  0
    2.5630   23.6910   44.4450 O   0  0  0  0  0  0
    2.0240   25.0130   42.3310 O   0  5  0  0  0  0
    1.0870   22.6620   42.7070 O   0  0  0  0  0  0
    0.1500   24.4710   44.0970 O   0  0  0  0  0  0
   -0.5860   25.5850   43.5060 C   0  0  0  0  0  0
   -1.4120   26.3110   44.5700 C   0  0  1  0  0  0
   -2.2640   25.2860   45.2020 O   0  0  0  0  0  0
   -0.5780   26.8970   45.7420 C   0  0  1  0  0  0
   -0.2200   28.2590   45.5640 O   0  0  0  0  0  0
   -1.4330   26.6200   46.9800 C   0  0  1  0  0  0
   -2.2570   27.6920   47.3820 O   0  0  0  0  0  0
   -2.2480   25.4200   46.6390 C   0  0  2  0  0  0
   -1.6890   24.1220   47.2120 N   0  0  0  0  0  0
   -1.3380   23.0640   46.3910 C   0  0  0  0  0  0
   -0.8690   21.9920   47.0020 N   0  0  0  0  0  0
   -0.8990   22.3370   48.3250 C   0  0  0  0  0  0
   -0.5260   21.6320   49.5220 C   0  0  0  0  0  0
   -0.0390   20.3710   49.5190 N   0  0  0  0  0  0
   -0.6870   22.2910   50.7240 N   0  0  0  0  0  0
   -1.1840   23.5730   50.7410 C   0  0  0  0  0  0
   -1.5670   24.3320   49.6710 N   0  0  0  0  0  0
   -1.4010   23.6630   48.4830 C   0  0  0  0  0  0
    2.0130   20.3408   37.1589 H   0  0  0  0  0  0
    0.1233   26.2970   43.0589 H   0  0  0  0  0  0
   -1.2637   25.2048   42.7274 H   0  0  0  0  0  0
   -1.9678   27.1123   44.0610 H   0  0  0  0  0  0
    0.4488   26.5120   45.8284 H   0  0  0  0  0  0
    0.3943   28.5581   44.7019 H   0  0  0  0  0  0
   -0.8265   26.5047   47.8905 H   0  0  0  0  0  0
   -1.8072   28.6542   47.6682 H   0  0  0  0  0  0
   -3.2617   25.5932   47.0294 H   0  0  0  0  0  0
   -1.4425   23.1132   45.3071 H   0  0  0  0  0  0
    0.0940   19.8350   48.5677 H   0  0  0  0  0  0
    0.2243   19.8808   50.4679 H   0  0  0  0  0  0
   -1.2841   24.0378   51.7218 H   0  0  0  0  0  0
  1  2  1  0  0  0
  1  3  2  0  0  0
  1  4  1  0  0  0
  1  8  1  0  0  0
  4 32  1  0  0  0
  5  6  2  0  0  0
  5  7  1  0  0  0
  5  8  1  0  0  0
  5 12  1  0  0  0
  9 10  2  0  0  0
  9 11  1  0  0  0
  9 12  1  0  0  0
  9 13  1  0  0  0
 13 14  1  0  0  0
 14 15  1  0  0  0
 14 33  1  0  0  0
 14 34  1  0  0  0
 15 16  1  0  0  0
 15 17  1  0  0  0
 15 35  1  0  0  0
 16 21  1  0  0  0
 17 18  1  0  0  0
 17 19  1  0  0  0
 17 36  1  0  0  0
 18 37  1  0  0  0
 19 20  1  0  0  0
 19 21  1  0  0  0
 19 38  1  0  0  0
 20 39  1  0  0  0
 21 22  1  0  0  0
 21 40  1  0  0  0
 22 23  1  0  0  0
 22 31  1  0  0  0
 23 24  2  0  0  0
 23 41  1  0  0  0
 24 25  1  0  0  0
 25 26  2  0  0  0
 25 31  1  0  0  0
 26 27  1  0  0  0
 26 28  1  0  0  0
 27 42  1  0  0  0
 27 43  1  0  0  0
 28 29  2  0  0  0
 29 30  1  0  0  0
 29 44  1  0  0  0
 30 31  2  0  0  0
M  CHG  3   2  -1   7  -1  11  -1
M  END
> <s_m_source_file>
../1njf_ligand.sdf

> <i_m_source_file_index>
1

> <s_epik_input>
W09IXVtQQEBdKD1PKShbU0hdKU9bUEBdKD1PKShbT0hdKU9bUEBAXSg9TykoW09IXSlPW0NIMl1bQ0BIXTFPW0NASF0oW0NASF0oW09IXSlbQ0BASF0xW09IXSluKFtjSF1uMiljKGMyMyluW2NIXW5jM1tOSDJd

> <s_epik_cmdline>
J2VwaWtfYXBwJywgJy1pbWFlJywgJ2xpZ2FuZF9wcm8ubWFlJywgJy1vbWFlJywgJ2xpZ2FuZF9wcmVwLm1hZScsICctbXMnLCAnMScsICctcGgnLCAnNycsICctcGh0JywgJzAuNScsICctbnQn

> <r_lp_tautomer_probability>
0.999997216410988

> <r_epik_Ionization_Penalty>
  0.0807

> <r_epik_Ionization_Penalty_Charging>
  0.0005

> <r_epik_Ionization_Penalty_Neutral>
  0.0802

> <r_epik_State_Penalty>
  0.0706

> <r_epik_Charging_Adjusted_Penalty>
0.0710841366671861

> <i_epik_Tot_Q>
-3

> <i_epik_Tot_abs_Q>
3

> <s_epik_Chemistry_Notes>
This compound contains an acetal/aminal-like group ( X-CH(R)-Y where X, Y are N, S, or O) that may be acid/base labile, releasing an aldehyde.

$$$$
