1njj_ligand
                    3D
 Schrodinger Suite 2020-3.
 78 80  0  0  1  0            999 V2000
   76.6540   85.3650  121.5890 C   0  0  2  0  0  0
   77.3340   84.0990  121.4000 O   0  0  0  0  0  0
   76.3600   85.9900  120.2060 C   0  0  2  0  0  0
   77.6220   86.1750  119.4660 N   0  3  0  0  0  0
   75.6440   87.3360  120.3650 C   0  0  1  0  0  0
   74.3610   87.1160  120.9630 O   0  0  0  0  0  0
   76.4420   88.3170  121.2370 C   0  0  2  0  0  0
   77.5060   88.8350  120.4610 O   0  0  0  0  0  0
   77.0310   87.6670  122.5360 C   0  0  2  0  0  0
   77.4600   86.2540  122.4280 O   0  0  0  0  0  0
   76.0270   87.8530  123.7010 C   0  0  1  0  0  0
   76.4320   87.0270  124.8460 O   0  0  0  0  0  0
   75.9890   89.3340  124.1430 C   0  0  0  0  0  0
   75.7750   80.0440  120.8100 C   0  0  2  0  0  0
   74.6740   79.0710  120.9310 N   0  3  0  0  0  0
   76.1510   80.5580  122.2340 C   0  0  0  0  0  0
   77.0880   81.7900  122.1970 C   0  0  2  0  0  0
   77.3590   82.2350  123.5720 N   0  3  0  0  0  0
   76.4500   82.9440  121.3810 C   0  0  2  0  0  0
   76.1880   82.4780  119.9110 C   0  0  2  0  0  0
   75.4840   83.4840  119.1890 O   0  0  0  0  0  0
   75.3420   81.1800  119.8140 C   0  0  1  0  0  0
   75.4570   80.7000  118.4680 O   0  0  0  0  0  0
   74.1600   80.5820  117.8770 C   0  0  2  0  0  0
   73.8880   79.1610  117.3140 C   0  0  2  0  0  0
   75.0330   78.7390  116.5670 O   0  0  0  0  0  0
   72.6320   79.0880  116.3720 C   0  0  1  0  0  0
   71.5990   78.2740  117.0700 N   0  3  0  0  0  0
   71.8590   76.8330  116.8420 C   0  0  0  0  0  0
   71.9670   80.4490  115.8590 C   0  0  2  0  0  0
   70.6630   80.5350  116.3930 O   0  0  0  0  0  0
   71.8540   80.3780  114.3230 C   0  0  0  0  0  0
   72.7420   81.7670  116.2350 C   0  0  0  0  0  0
   74.0710   81.5320  116.7900 O   0  0  0  0  0  0
   75.7314   85.1730  122.1564 H   0  0  0  0  0  0
   75.7327   85.3134  119.6071 H   0  0  0  0  0  0
   78.1286   85.2047  119.3567 H   0  0  0  0  0  0
   78.2729   86.8683  120.0188 H   0  0  0  0  0  0
   77.4058   86.5900  118.4705 H   0  0  0  0  0  0
   75.4692   87.7786  119.3732 H   0  0  0  0  0  0
   73.6394   86.4384  120.4832 H   0  0  0  0  0  0
   75.7917   89.1635  121.5024 H   0  0  0  0  0  0
   77.2961   89.3346  119.5037 H   0  0  0  0  0  0
   77.9999   88.1473  122.7374 H   0  0  0  0  0  0
   75.0277   87.5112  123.3934 H   0  0  0  0  0  0
   76.5189   85.9362  124.7339 H   0  0  0  0  0  0
   75.6866   89.9628  123.2926 H   0  0  0  0  0  0
   76.9879   89.6394  124.4879 H   0  0  0  0  0  0
   75.2655   89.4535  124.9630 H   0  0  0  0  0  0
   76.6539   79.5302  120.3933 H   0  0  0  0  0  0
   74.9667   78.2707  121.6266 H   0  0  0  0  0  0
   74.4576   78.6375  119.9434 H   0  0  0  0  0  0
   73.7762   79.5788  121.3133 H   0  0  0  0  0  0
   75.2365   80.8466  122.7729 H   0  0  0  0  0  0
   76.6664   79.7595  122.7878 H   0  0  0  0  0  0
   78.0572   81.5172  121.7540 H   0  0  0  0  0  0
   77.8110   81.4099  124.1420 H   0  0  0  0  0  0
   76.4168   82.5389  124.0514 H   0  0  0  0  0  0
   78.0519   83.0891  123.5511 H   0  0  0  0  0  0
   75.5171   83.2883  121.8512 H   0  0  0  0  0  0
   77.1627   82.3463  119.4184 H   0  0  0  0  0  0
   75.8969   84.5011  119.1185 H   0  0  0  0  0  0
   74.2860   81.4209  120.0057 H   0  0  0  0  0  0
   73.4532   80.8485  118.6766 H   0  0  0  0  0  0
   73.7673   78.4665  118.1585 H   0  0  0  0  0  0
   76.0235   78.7159  117.0448 H   0  0  0  0  0  0
   72.9895   78.5866  115.4605 H   0  0  0  0  0  0
   71.6341   78.4842  118.1492 H   0  0  0  0  0  0
   70.6036   78.5309  116.6786 H   0  0  0  0  0  0
   71.0936   76.2360  117.3594 H   0  0  0  0  0  0
   72.8535   76.5734  117.2340 H   0  0  0  0  0  0
   71.8229   76.6201  115.7634 H   0  0  0  0  0  0
   69.9515   79.7096  116.2426 H   0  0  0  0  0  0
   71.3147   79.4629  114.0369 H   0  0  0  0  0  0
   72.8614   80.3631  113.8815 H   0  0  0  0  0  0
   71.3052   81.2573  113.9547 H   0  0  0  0  0  0
   72.8693   82.3868  115.3352 H   0  0  0  0  0  0
   72.1686   82.3274  116.9881 H   0  0  0  0  0  0
  1  2  1  0  0  0
  1  3  1  0  0  0
  1 10  1  0  0  0
  1 35  1  0  0  0
  2 19  1  0  0  0
  3  4  1  0  0  0
  3  5  1  0  0  0
  3 36  1  0  0  0
  4 37  1  0  0  0
  4 38  1  0  0  0
  4 39  1  0  0  0
  5  6  1  0  0  0
  5  7  1  0  0  0
  5 40  1  0  0  0
  6 41  1  0  0  0
  7  8  1  0  0  0
  7  9  1  0  0  0
  7 42  1  0  0  0
  8 43  1  0  0  0
  9 10  1  0  0  0
  9 11  1  0  0  0
  9 44  1  0  0  0
 11 12  1  0  0  0
 11 13  1  0  0  0
 11 45  1  0  0  0
 12 46  1  0  0  0
 13 47  1  0  0  0
 13 48  1  0  0  0
 13 49  1  0  0  0
 14 15  1  0  0  0
 14 16  1  0  0  0
 14 22  1  0  0  0
 14 50  1  0  0  0
 15 51  1  0  0  0
 15 52  1  0  0  0
 15 53  1  0  0  0
 16 17  1  0  0  0
 16 54  1  0  0  0
 16 55  1  0  0  0
 17 18  1  0  0  0
 17 19  1  0  0  0
 17 56  1  0  0  0
 18 57  1  0  0  0
 18 58  1  0  0  0
 18 59  1  0  0  0
 19 20  1  0  0  0
 19 60  1  0  0  0
 20 21  1  0  0  0
 20 22  1  0  0  0
 20 61  1  0  0  0
 21 62  1  0  0  0
 22 23  1  0  0  0
 22 63  1  0  0  0
 23 24  1  0  0  0
 24 25  1  0  0  0
 24 34  1  0  0  0
 24 64  1  0  0  0
 25 26  1  0  0  0
 25 27  1  0  0  0
 25 65  1  0  0  0
 26 66  1  0  0  0
 27 28  1  0  0  0
 27 30  1  0  0  0
 27 67  1  0  0  0
 28 29  1  0  0  0
 28 68  1  0  0  0
 28 69  1  0  0  0
 29 70  1  0  0  0
 29 71  1  0  0  0
 29 72  1  0  0  0
 30 31  1  0  0  0
 30 32  1  0  0  0
 30 33  1  0  0  0
 31 73  1  0  0  0
 32 74  1  0  0  0
 32 75  1  0  0  0
 32 76  1  0  0  0
 33 34  1  0  0  0
 33 77  1  0  0  0
 33 78  1  0  0  0
M  CHG  4   4   1  15   1  18   1  28   1
M  END
> <s_m_source_file>
../1njj_ligand.sdf

> <i_m_source_file_index>
1

> <s_epik_input>
W09IXVtDQEBIXShbQ0gzXSlbQ0BASF0oTzEpW0NAQEhdKFtPSF0pW0NASF0oW09IXSlbQ0BASF0oW05IMytdKVtDQEhdMU9bQ0BIXShbQ0BASF0oW05IMytdKVtDSDJdW0NASF0yW05IMytdKVtDQEhdKFtPSF0pW0NASF0yT1tDQEBIXShPW0NIMl0zKVtDQEhdKFtPSF0pW0NAQEhdKFtOSDIrXVtDSDNdKVtDQF0zKFtPSF0pW0NIM10=

> <s_epik_cmdline>
J2VwaWtfYXBwJywgJy1pbWFlJywgJ2xpZ2FuZF9wcm8ubWFlJywgJy1vbWFlJywgJ2xpZ2FuZF9wcmVwLm1hZScsICctbXMnLCAnMScsICctcGgnLCAnNycsICctcGh0JywgJzAuNScsICctbnQn

> <r_lp_tautomer_probability>
1

> <r_epik_Ionization_Penalty>
  0.3892

> <r_epik_Ionization_Penalty_Charging>
  0.3889

> <r_epik_Ionization_Penalty_Neutral>
  0.0003

> <r_epik_State_Penalty>
 -0.0000

> <r_epik_Charging_Adjusted_Penalty>
0.388854374259229

> <i_epik_Tot_Q>
4

> <i_epik_Tot_abs_Q>
4

> <s_epik_Chemistry_Notes>
This compound contains an acetal/aminal-like group ( X-CH(R)-Y where X, Y are N, S, or O) that may be acid/base labile, releasing an aldehyde.

$$$$
