1njs_ligand
                    3D
 Schrodinger Suite 2020-3.
 62 63  0  0  1  0            999 V2000
   72.8400   19.0450   38.0060 O   0  5  0  0  0  0
   74.1420   19.1610   37.8330 C   0  0  0  0  0  0
   74.9970   18.3170   38.1130 O   0  0  0  0  0  0
   74.4610   20.4780   37.2500 C   0  0  0  0  0  0
   75.9560   20.7030   37.0350 C   0  0  0  0  0  0
   76.2790   22.0330   36.4470 C   0  0  2  0  0  0
   75.5580   22.0070   35.1200 N   0  0  0  0  0  0
   74.6150   22.9670   34.7900 C   0  0  0  0  0  0
   74.3110   23.8530   35.5570 O   0  0  0  0  0  0
   74.0250   22.9100   33.4760 C   0  0  0  0  0  0
   73.0940   24.0280   33.1320 C   0  0  0  0  0  0
   72.5060   24.0940   31.8190 C   0  0  0  0  0  0
   72.8640   22.9760   30.8200 C   0  0  0  0  0  0
   73.7620   21.8770   31.2140 C   0  0  0  0  0  0
   74.3460   21.8270   32.5030 C   0  0  0  0  0  0
   72.3640   22.9160   29.2740 C   0  0  1  0  0  0
   73.4310   22.2360   28.3980 C   0  0  0  0  0  0
   74.4790   23.5450   28.1090 C   0  0  0  0  0  0
   75.2560   23.5310   26.7410 C   0  0  0  0  0  0
   76.5150   24.2100   27.1830 C   0  0  0  0  0  0
   76.4070   25.5120   26.8780 C   0  0  0  0  0  0
   75.4060   26.2830   26.2700 O   0  0  0  0  0  0
   77.5190   26.6430   27.1670 N   0  0  0  0  0  0
   78.6530   26.2130   27.7690 C   0  0  0  0  0  0
   79.6460   27.0650   28.0610 N   0  0  0  0  0  0
   78.7960   24.9900   28.0380 N   0  0  0  0  0  0
   77.8090   23.9140   27.8210 C   0  0  0  0  0  0
   78.1340   22.6330   28.2050 N   0  0  0  0  0  0
   70.9590   22.3460   28.8430 C   0  0  0  0  0  0
   70.4950   22.7470   27.8530 O   0  0  0  0  0  0
   70.0730   23.1390   29.9110 O   0  0  0  0  0  0
   70.5640   20.9330   29.3290 C   0  0  0  0  0  0
   70.6650   20.6050   30.6730 F   0  0  0  0  0  0
   71.5150   20.2140   28.7430 F   0  0  0  0  0  0
   69.3330   20.6340   28.8810 F   0  0  0  0  0  0
   77.8240   22.3670   36.2490 C   0  0  0  0  0  0
   78.4540   22.7900   37.2050 O   0  0  0  0  0  0
   78.4420   22.1830   35.0300 O   0  5  0  0  0  0
   73.9694   20.5743   36.2707 H   0  0  0  0  0  0
   74.1015   21.2726   37.9204 H   0  0  0  0  0  0
   76.4797   20.6340   37.9999 H   0  0  0  0  0  0
   76.3474   19.9366   36.3498 H   0  0  0  0  0  0
   75.9052   22.7955   37.1461 H   0  0  0  0  0  0
   75.7773   21.2135   34.3904 H   0  0  0  0  0  0
   72.8606   24.7919   33.8737 H   0  0  0  0  0  0
   71.8324   24.9049   31.5418 H   0  0  0  0  0  0
   73.9817   21.0851   30.4979 H   0  0  0  0  0  0
   75.0167   21.0131   32.7783 H   0  0  0  0  0  0
   72.2185   23.9850   29.0593 H   0  0  0  0  0  0
   73.8962   21.4126   28.9597 H   0  0  0  0  0  0
   72.9589   21.8380   27.4877 H   0  0  0  0  0  0
   73.9052   24.4834   28.1199 H   0  0  0  0  0  0
   75.2499   23.5775   28.8930 H   0  0  0  0  0  0
   75.3919   22.4917   26.4071 H   0  0  0  0  0  0
   74.6797   24.0862   25.9863 H   0  0  0  0  0  0
   77.3295   27.6872   26.8777 H   0  0  0  0  0  0
   79.5371   28.1355   27.8327 H   0  0  0  0  0  0
   80.5696   26.6936   28.5289 H   0  0  0  0  0  0
   77.4151   21.8143   28.0536 H   0  0  0  0  0  0
   79.1127   22.4278   28.6633 H   0  0  0  0  0  0
   70.7613   23.7497   27.4874 H   0  0  0  0  0  0
   70.0669   24.2390   29.9123 H   0  0  0  0  0  0
  1  2  1  0  0  0
  2  3  2  0  0  0
  2  4  1  0  0  0
  4  5  1  0  0  0
  4 39  1  0  0  0
  4 40  1  0  0  0
  5  6  1  0  0  0
  5 41  1  0  0  0
  5 42  1  0  0  0
  6  7  1  0  0  0
  6 36  1  0  0  0
  6 43  1  0  0  0
  7  8  1  0  0  0
  7 44  1  0  0  0
  8  9  2  0  0  0
  8 10  1  0  0  0
 10 11  2  0  0  0
 10 15  1  0  0  0
 11 12  1  0  0  0
 11 45  1  0  0  0
 12 13  2  0  0  0
 12 46  1  0  0  0
 13 14  1  0  0  0
 13 16  1  0  0  0
 14 15  2  0  0  0
 14 47  1  0  0  0
 15 48  1  0  0  0
 16 17  1  0  0  0
 16 29  1  0  0  0
 16 49  1  0  0  0
 17 18  1  0  0  0
 17 50  1  0  0  0
 17 51  1  0  0  0
 18 19  1  0  0  0
 18 52  1  0  0  0
 18 53  1  0  0  0
 19 20  1  0  0  0
 19 54  1  0  0  0
 19 55  1  0  0  0
 20 21  1  0  0  0
 20 27  2  0  0  0
 21 22  2  0  0  0
 21 23  1  0  0  0
 23 24  1  0  0  0
 23 56  1  0  0  0
 24 25  1  0  0  0
 24 26  2  0  0  0
 25 57  1  0  0  0
 25 58  1  0  0  0
 26 27  1  0  0  0
 27 28  1  0  0  0
 28 59  1  0  0  0
 28 60  1  0  0  0
 29 30  1  0  0  0
 29 31  1  0  0  0
 29 32  1  0  0  0
 30 61  1  0  0  0
 31 62  1  0  0  0
 32 33  1  0  0  0
 32 34  1  0  0  0
 32 35  1  0  0  0
 36 37  2  0  0  0
 36 38  1  0  0  0
M  CHG  2   1  -1  38  -1
M  END
> <s_m_source_file>
../1njs_ligand.sdf

> <i_m_source_file_index>
1

> <s_epik_input>
W09IXUMoPU8pW0NIMl1bQ0gyXVtDQEBIXShDKD1PKVtPSF0pW05IXUMoPU8pYzFbY0hdW2NIXWMoW2NIXVtjSF0xKVtDQEhdKEMoW09IXSkoW09IXSlDKEYpKEYpRilbQ0gyXVtDSDJdW0NIMl1jMmMoPU8pW25IXWMoW05IMl0pbmMyW05IMl0=

> <s_epik_cmdline>
J2VwaWtfYXBwJywgJy1pbWFlJywgJ2xpZ2FuZF9wcm8ubWFlJywgJy1vbWFlJywgJ2xpZ2FuZF9wcmVwLm1hZScsICctbXMnLCAnMScsICctcGgnLCAnNycsICctcGh0JywgJzAuNScsICctbnQn

> <r_lp_tautomer_probability>
1

> <r_epik_Ionization_Penalty>
  0.0063

> <r_epik_Ionization_Penalty_Charging>
  0.0047

> <r_epik_Ionization_Penalty_Neutral>
  0.0016

> <r_epik_State_Penalty>
 -0.0000

> <r_epik_Charging_Adjusted_Penalty>
0.00470402780295101

> <i_epik_Tot_Q>
-2

> <i_epik_Tot_abs_Q>
2

$$$$
