1njt_ligand
                    3D
 Schrodinger Suite 2020-3.
 73 72  0  0  1  0            999 V2000
   50.9190   71.9880   19.1320 C   0  0  0  0  0  0
   51.5140   70.9900   19.5470 O   0  0  0  0  0  0
   51.2530   73.3940   19.6890 C   0  0  0  0  0  0
   49.9740   71.9280   18.2000 N   0  0  0  0  0  0
   49.5760   70.6600   17.6020 C   0  0  2  0  0  0
   49.3470   70.7950   16.1000 C   0  0  0  0  0  0
   48.8880   71.8320   15.6190 O   0  0  0  0  0  0
   48.2860   70.1280   18.2570 C   0  0  0  0  0  0
   47.8600   68.8310   17.5970 C   0  0  0  0  0  0
   48.5250   69.9020   19.7440 C   0  0  0  0  0  0
   49.6870   69.7470   15.3600 N   0  0  0  0  0  0
   49.4880   69.7500   13.9170 C   0  0  1  0  0  0
   50.8290   69.5930   13.1890 C   0  0  0  0  0  0
   51.5620   70.9630   13.1760 C   0  0  0  0  0  0
   51.7110   68.5430   13.9140 C   0  0  0  0  0  0
   50.5890   69.1480   11.7230 C   0  0  0  0  0  0
   51.7770   71.6180   12.1520 O   0  0  0  0  0  0
   51.9500   71.5770   14.1750 O   0  5  0  0  0  0
   48.5240   68.6220   13.5510 C   0  0  0  0  0  0
   48.7010   67.4660   13.9620 O   0  0  0  0  0  0
   47.4910   68.9780   12.7960 N   0  0  0  0  0  0
   46.4850   68.0170   12.3750 C   0  0  1  0  0  0
   45.0890   68.5620   12.6740 C   0  0  0  0  0  0
   44.8400   68.7470   14.1680 C   0  0  0  0  0  0
   45.5280   68.1480   14.9980 O   0  0  0  0  0  0
   43.8460   69.5710   14.5150 N   0  0  0  0  0  0
   43.0640   70.2920   13.5420 C   0  0  0  0  0  0
   43.4970   69.7540   15.9020 C   0  0  0  0  0  0
   46.6060   67.7000   10.8890 C   0  0  0  0  0  0
   46.6000   68.6050   10.0520 O   0  0  0  0  0  0
   46.7160   66.4120   10.5650 N   0  0  0  0  0  0
   46.8340   65.9830    9.1730 C   0  0  2  0  0  0
   45.5320   65.3090    8.6740 C   0  0  0  0  0  0
   45.8470   64.4900    7.5970 O   0  0  0  0  0  0
   47.9920   65.0300    9.0210 C   0  0  0  0  0  0
   52.0449   73.3092   20.4478 H   0  0  0  0  0  0
   50.3527   73.8308   20.1458 H   0  0  0  0  0  0
   51.5986   74.0406   18.8690 H   0  0  0  0  0  0
   49.4891   72.8626   17.8814 H   0  0  0  0  0  0
   50.4316   69.9952   17.7920 H   0  0  0  0  0  0
   47.4732   70.8583   18.1303 H   0  0  0  0  0  0
   47.6899   69.0042   16.5241 H   0  0  0  0  0  0
   46.9305   68.4709   18.0622 H   0  0  0  0  0  0
   48.6506   68.0771   17.7259 H   0  0  0  0  0  0
   48.8334   70.8477   20.2137 H   0  0  0  0  0  0
   49.3171   69.1506   19.8780 H   0  0  0  0  0  0
   47.5971   69.5444   20.2143 H   0  0  0  0  0  0
   50.1253   68.8667   15.8529 H   0  0  0  0  0  0
   49.0521   70.7248   13.6529 H   0  0  0  0  0  0
   51.8798   68.8609   14.9535 H   0  0  0  0  0  0
   52.6774   68.4553   13.3959 H   0  0  0  0  0  0
   51.2013   67.5682   13.9068 H   0  0  0  0  0  0
   49.9634   69.8941   11.2111 H   0  0  0  0  0  0
   50.0786   68.1736   11.7145 H   0  0  0  0  0  0
   51.5547   69.0607   11.2036 H   0  0  0  0  0  0
   47.4081   70.0311   12.4892 H   0  0  0  0  0  0
   46.6905   67.1086   12.9602 H   0  0  0  0  0  0
   44.9653   69.5405   12.1869 H   0  0  0  0  0  0
   44.3321   67.8626   12.2892 H   0  0  0  0  0  0
   43.4340   70.0630   12.5317 H   0  0  0  0  0  0
   43.1522   71.3725   13.7286 H   0  0  0  0  0  0
   42.0092   69.9907   13.6233 H   0  0  0  0  0  0
   44.1679   69.1510   16.5315 H   0  0  0  0  0  0
   42.4569   69.4344   16.0636 H   0  0  0  0  0  0
   43.5999   70.8162   16.1689 H   0  0  0  0  0  0
   46.7167   65.6652   11.3726 H   0  0  0  0  0  0
   47.0351   66.9027    8.6041 H   0  0  0  0  0  0
   45.0943   64.7104    9.4865 H   0  0  0  0  0  0
   44.8152   66.0826    8.3614 H   0  0  0  0  0  0
   45.0558   63.9157    7.0929 H   0  0  0  0  0  0
   48.9138   65.5134    9.3767 H   0  0  0  0  0  0
   48.1061   64.7577    7.9614 H   0  0  0  0  0  0
   47.8010   64.1234    9.6140 H   0  0  0  0  0  0
  1  2  2  0  0  0
  1  3  1  0  0  0
  1  4  1  0  0  0
  3 36  1  0  0  0
  3 37  1  0  0  0
  3 38  1  0  0  0
  4  5  1  0  0  0
  4 39  1  0  0  0
  5  6  1  0  0  0
  5  8  1  0  0  0
  5 40  1  0  0  0
  6  7  2  0  0  0
  6 11  1  0  0  0
  8  9  1  0  0  0
  8 10  1  0  0  0
  8 41  1  0  0  0
  9 42  1  0  0  0
  9 43  1  0  0  0
  9 44  1  0  0  0
 10 45  1  0  0  0
 10 46  1  0  0  0
 10 47  1  0  0  0
 11 12  1  0  0  0
 11 48  1  0  0  0
 12 13  1  0  0  0
 12 19  1  0  0  0
 12 49  1  0  0  0
 13 14  1  0  0  0
 13 15  1  0  0  0
 13 16  1  0  0  0
 14 17  2  0  0  0
 14 18  1  0  0  0
 15 50  1  0  0  0
 15 51  1  0  0  0
 15 52  1  0  0  0
 16 53  1  0  0  0
 16 54  1  0  0  0
 16 55  1  0  0  0
 19 20  2  0  0  0
 19 21  1  0  0  0
 21 22  1  0  0  0
 21 56  1  0  0  0
 22 23  1  0  0  0
 22 29  1  0  0  0
 22 57  1  0  0  0
 23 24  1  0  0  0
 23 58  1  0  0  0
 23 59  1  0  0  0
 24 25  2  0  0  0
 24 26  1  0  0  0
 26 27  1  0  0  0
 26 28  1  0  0  0
 27 60  1  0  0  0
 27 61  1  0  0  0
 27 62  1  0  0  0
 28 63  1  0  0  0
 28 64  1  0  0  0
 28 65  1  0  0  0
 29 30  2  0  0  0
 29 31  1  0  0  0
 31 32  1  0  0  0
 31 66  1  0  0  0
 32 33  1  0  0  0
 32 35  1  0  0  0
 32 67  1  0  0  0
 33 34  1  0  0  0
 33 68  1  0  0  0
 33 69  1  0  0  0
 34 70  1  0  0  0
 35 71  1  0  0  0
 35 72  1  0  0  0
 35 73  1  0  0  0
M  CHG  1  18  -1
M  END
> <s_m_source_file>
../1njt_ligand.sdf

> <i_m_source_file_index>
1

> <s_epik_input>
Tz1DKFtDSDNdKVtOSF1bQ0BASF0oW0NIXShbQ0gzXSlbQ0gzXSlDKD1PKVtOSF1bQ0BASF0oQyhbQ0gzXSkoW0NIM10pQyg9TylbT0hdKUMoPU8pW05IXVtDQEBIXShbQ0gyXUMoPU8pTihbQ0gzXSlbQ0gzXSlDKD1PKVtOSF1bQ0BASF0oW0NIM10pW0NIMl1bT0hd

> <s_epik_cmdline>
J2VwaWtfYXBwJywgJy1pbWFlJywgJ2xpZ2FuZF9wcm8ubWFlJywgJy1vbWFlJywgJ2xpZ2FuZF9wcmVwLm1hZScsICctbXMnLCAnMScsICctcGgnLCAnNycsICctcGh0JywgJzAuNScsICctbnQn

> <r_lp_tautomer_probability>
1

> <r_epik_Ionization_Penalty>
  0.0014

> <r_epik_Ionization_Penalty_Charging>
  0.0014

> <r_epik_Ionization_Penalty_Neutral>
  0.0000

> <r_epik_State_Penalty>
 -0.0000

> <r_epik_Charging_Adjusted_Penalty>
0.00136004645191254

> <i_epik_Tot_Q>
-1

> <i_epik_Tot_abs_Q>
1

$$$$
