1nju_ligand
                    3D
 Schrodinger Suite 2020-3.
115115  0  0  1  0            999 V2000
    1.2370   73.4000  -19.1380 C   0  0  0  0  0  0
    1.6510   72.0560  -18.5520 C   0  0  0  0  0  0
    0.9670   71.0460  -18.7510 O   0  0  0  0  0  0
    1.1250   74.4870  -18.0710 C   0  0  0  0  0  0
    0.4540   75.7490  -18.6370 C   0  0  0  0  0  0
    0.8570   75.9540  -20.1050 C   0  0  0  0  0  0
    0.0440   77.0340  -20.8000 C   0  0  0  0  0  0
    0.4510   77.1570  -22.2410 N   0  3  0  0  0  0
    2.7690   72.0350  -17.8360 N   0  0  0  0  0  0
    3.2580   70.7930  -17.2520 C   0  0  1  0  0  0
    4.6110   70.3770  -17.9060 C   0  0  0  0  0  0
    5.5850   71.5450  -17.8740 C   0  0  0  0  0  0
    5.2120   69.1930  -17.1490 C   0  0  0  0  0  0
    4.3760   69.9760  -19.3560 C   0  0  0  0  0  0
    3.4220   70.8860  -15.7380 C   0  0  0  0  0  0
    3.8260   71.9220  -15.2120 O   0  0  0  0  0  0
    3.0960   69.7990  -15.0410 N   0  0  0  0  0  0
    3.2200   69.7550  -13.5860 C   0  0  1  0  0  0
    1.8620   69.5130  -12.9130 C   0  0  0  0  0  0
    1.3570   68.1280  -13.2520 C   0  0  0  0  0  0
    2.0110   69.6510  -11.4170 C   0  0  0  0  0  0
    0.8700   70.5340  -13.3960 C   0  0  0  0  0  0
    4.1760   68.6450  -13.1680 C   0  0  0  0  0  0
    3.9930   67.4810  -13.5270 O   0  0  0  0  0  0
    5.2000   69.0120  -12.4070 N   0  0  0  0  0  0
    6.1940   68.0530  -11.9460 C   0  0  1  0  0  0
    7.6000   68.5530  -12.2880 C   0  0  0  0  0  0
    7.8160   68.6890  -13.7810 C   0  0  0  0  0  0
    7.0190   68.1770  -14.5760 O   0  0  0  0  0  0
    8.9060   69.3670  -14.1780 N   0  0  0  0  0  0
    9.8790   69.9720  -13.3120 C   0  0  0  0  0  0
    9.1790   69.5370  -15.5620 C   0  0  0  0  0  0
    6.1100   67.7820  -10.4500 C   0  0  0  0  0  0
    6.0010   68.7070   -9.6420 O   0  0  0  0  0  0
    6.1640   66.5010  -10.0890 N   0  0  0  0  0  0
    6.1170   66.0860   -8.6910 C   0  0  2  0  0  0
    7.4160   65.3310   -8.3070 C   0  0  2  0  0  0
    7.1330   64.5170   -7.2120 O   0  0  0  0  0  0
    4.9120   65.1930   -8.4650 C   0  0  0  0  0  0
    8.5720   66.3300   -7.9560 C   0  0  0  0  0  0
    8.8610   67.2680   -8.7220 O   0  0  0  0  0  0
    9.2300   66.1200   -6.8090 N   0  0  0  0  0  0
   10.3340   66.9550   -6.3150 C   0  0  2  0  0  0
   11.5550   66.1040   -5.9210 C   0  0  0  0  0  0
   12.4800   66.8450   -4.9460 C   0  0  0  0  0  0
    9.8920   67.7530   -5.1100 C   0  0  0  0  0  0
    9.8860   69.1390   -5.1450 C   0  0  0  0  0  0
    9.5000   69.8830   -4.0270 C   0  0  0  0  0  0
    9.1140   69.2340   -2.8600 C   0  0  0  0  0  0
    9.1150   67.8530   -2.8130 C   0  0  0  0  0  0
    9.5020   67.1180   -3.9350 C   0  0  0  0  0  0
    1.9846   73.7236  -19.8771 H   0  0  0  0  0  0
    0.2569   73.3004  -19.6273 H   0  0  0  0  0  0
    0.5219   74.1144  -17.2299 H   0  0  0  0  0  0
    2.1301   74.7533  -17.7119 H   0  0  0  0  0  0
   -0.6391   75.6417  -18.5763 H   0  0  0  0  0  0
    0.7694   76.6257  -18.0522 H   0  0  0  0  0  0
    1.9157   76.2480  -20.1569 H   0  0  0  0  0  0
    0.7093   75.0160  -20.6602 H   0  0  0  0  0  0
   -1.0244   76.7766  -20.7521 H   0  0  0  0  0  0
    0.2115   77.9987  -20.2988 H   0  0  0  0  0  0
   -0.1479   77.9423  -22.7254 H   0  0  0  0  0  0
    0.2815   76.1983  -22.7530 H   0  0  0  0  0  0
    1.5174   77.4204  -22.2996 H   0  0  0  0  0  0
    3.3277   72.9706  -17.6861 H   0  0  0  0  0  0
    2.4539   70.0741  -17.4679 H   0  0  0  0  0  0
    5.7636   71.8450  -16.8309 H   0  0  0  0  0  0
    5.1596   72.3925  -18.4315 H   0  0  0  0  0  0
    6.5360   71.2421  -18.3365 H   0  0  0  0  0  0
    5.3839   69.4774  -16.1004 H   0  0  0  0  0  0
    6.1678   68.9081  -17.6131 H   0  0  0  0  0  0
    4.5169   68.3414  -17.1888 H   0  0  0  0  0  0
    3.9433   70.8249  -19.9057 H   0  0  0  0  0  0
    3.6820   69.1233  -19.3927 H   0  0  0  0  0  0
    5.3329   69.6901  -19.8170 H   0  0  0  0  0  0
    2.7254   68.9197  -15.5883 H   0  0  0  0  0  0
    3.6174   70.7432  -13.3110 H   0  0  0  0  0  0
    2.0803   67.3777  -12.9001 H   0  0  0  0  0  0
    1.2364   68.0383  -14.3417 H   0  0  0  0  0  0
    0.3871   67.9610  -12.7607 H   0  0  0  0  0  0
    2.7352   68.9085  -11.0506 H   0  0  0  0  0  0
    1.0370   69.4824  -10.9344 H   0  0  0  0  0  0
    2.3694   70.6627  -11.1760 H   0  0  0  0  0  0
    0.7523   70.4438  -14.4860 H   0  0  0  0  0  0
    1.2321   71.5428  -13.1485 H   0  0  0  0  0  0
   -0.1003   70.3625  -12.9069 H   0  0  0  0  0  0
    5.2863   70.0719  -12.1256 H   0  0  0  0  0  0
    5.9388   67.1288  -12.4851 H   0  0  0  0  0  0
    7.7595   69.5403  -11.8300 H   0  0  0  0  0  0
    8.3459   67.8439  -11.8997 H   0  0  0  0  0  0
    9.5964   69.7961  -12.2636 H   0  0  0  0  0  0
    9.9185   71.0543  -13.5045 H   0  0  0  0  0  0
   10.8672   69.5289  -13.5047 H   0  0  0  0  0  0
    8.3916   69.0474  -16.1539 H   0  0  0  0  0  0
   10.1527   69.0849  -15.8019 H   0  0  0  0  0  0
    9.2040   70.6103  -15.8016 H   0  0  0  0  0  0
    6.2466   65.7457  -10.8844 H   0  0  0  0  0  0
    6.0115   67.0086   -8.1014 H   0  0  0  0  0  0
    7.7324   64.6328   -9.0959 H   0  0  0  0  0  0
    6.3439   63.7539   -7.2833 H   0  0  0  0  0  0
    3.9961   65.7366   -8.7399 H   0  0  0  0  0  0
    4.8630   64.9047   -7.4046 H   0  0  0  0  0  0
    5.0030   64.2901   -9.0866 H   0  0  0  0  0  0
    8.8919   65.2525   -6.2233 H   0  0  0  0  0  0
   10.5798   67.6266   -7.1508 H   0  0  0  0  0  0
   11.2148   65.1774   -5.4355 H   0  0  0  0  0  0
   12.1342   65.8544   -6.8222 H   0  0  0  0  0  0
   13.3359   66.2022   -4.6924 H   0  0  0  0  0  0
   11.9238   67.0934   -4.0300 H   0  0  0  0  0  0
   12.8432   67.7704   -5.4168 H   0  0  0  0  0  0
   10.1864   69.6552   -6.0568 H   0  0  0  0  0  0
    9.5016   70.9722   -4.0700 H   0  0  0  0  0  0
    8.8120   69.8116   -1.9863 H   0  0  0  0  0  0
    8.8139   67.3380   -1.9007 H   0  0  0  0  0  0
    9.4986   66.0289   -3.8898 H   0  0  0  0  0  0
  1  2  1  0  0  0
  1  4  1  0  0  0
  1 52  1  0  0  0
  1 53  1  0  0  0
  2  3  2  0  0  0
  2  9  1  0  0  0
  4  5  1  0  0  0
  4 54  1  0  0  0
  4 55  1  0  0  0
  5  6  1  0  0  0
  5 56  1  0  0  0
  5 57  1  0  0  0
  6  7  1  0  0  0
  6 58  1  0  0  0
  6 59  1  0  0  0
  7  8  1  0  0  0
  7 60  1  0  0  0
  7 61  1  0  0  0
  8 62  1  0  0  0
  8 63  1  0  0  0
  8 64  1  0  0  0
  9 10  1  0  0  0
  9 65  1  0  0  0
 10 11  1  0  0  0
 10 15  1  0  0  0
 10 66  1  0  0  0
 11 12  1  0  0  0
 11 13  1  0  0  0
 11 14  1  0  0  0
 12 67  1  0  0  0
 12 68  1  0  0  0
 12 69  1  0  0  0
 13 70  1  0  0  0
 13 71  1  0  0  0
 13 72  1  0  0  0
 14 73  1  0  0  0
 14 74  1  0  0  0
 14 75  1  0  0  0
 15 16  2  0  0  0
 15 17  1  0  0  0
 17 18  1  0  0  0
 17 76  1  0  0  0
 18 19  1  0  0  0
 18 23  1  0  0  0
 18 77  1  0  0  0
 19 20  1  0  0  0
 19 21  1  0  0  0
 19 22  1  0  0  0
 20 78  1  0  0  0
 20 79  1  0  0  0
 20 80  1  0  0  0
 21 81  1  0  0  0
 21 82  1  0  0  0
 21 83  1  0  0  0
 22 84  1  0  0  0
 22 85  1  0  0  0
 22 86  1  0  0  0
 23 24  2  0  0  0
 23 25  1  0  0  0
 25 26  1  0  0  0
 25 87  1  0  0  0
 26 27  1  0  0  0
 26 33  1  0  0  0
 26 88  1  0  0  0
 27 28  1  0  0  0
 27 89  1  0  0  0
 27 90  1  0  0  0
 28 29  2  0  0  0
 28 30  1  0  0  0
 30 31  1  0  0  0
 30 32  1  0  0  0
 31 91  1  0  0  0
 31 92  1  0  0  0
 31 93  1  0  0  0
 32 94  1  0  0  0
 32 95  1  0  0  0
 32 96  1  0  0  0
 33 34  2  0  0  0
 33 35  1  0  0  0
 35 36  1  0  0  0
 35 97  1  0  0  0
 36 37  1  0  0  0
 36 39  1  0  0  0
 36 98  1  0  0  0
 37 38  1  0  0  0
 37 40  1  0  0  0
 37 99  1  0  0  0
 38100  1  0  0  0
 39101  1  0  0  0
 39102  1  0  0  0
 39103  1  0  0  0
 40 41  2  0  0  0
 40 42  1  0  0  0
 42 43  1  0  0  0
 42104  1  0  0  0
 43 44  1  0  0  0
 43 46  1  0  0  0
 43105  1  0  0  0
 44 45  1  0  0  0
 44106  1  0  0  0
 44107  1  0  0  0
 45108  1  0  0  0
 45109  1  0  0  0
 45110  1  0  0  0
 46 47  2  0  0  0
 46 51  1  0  0  0
 47 48  1  0  0  0
 47111  1  0  0  0
 48 49  2  0  0  0
 48112  1  0  0  0
 49 50  1  0  0  0
 49113  1  0  0  0
 50 51  2  0  0  0
 50114  1  0  0  0
 51115  1  0  0  0
M  CHG  1   8   1
M  END
> <s_m_source_file>
../1nju_ligand.sdf

> <i_m_source_file_index>
1

> <s_epik_input>
W05IMytdW0NIMl1bQ0gyXVtDSDJdW0NIMl1bQ0gyXUMoPU8pW05IXVtDQEBIXShDKFtDSDNdKShbQ0gzXSlbQ0gzXSlDKD1PKVtOSF1bQ0BASF0oQyhbQ0gzXSkoW0NIM10pW0NIM10pQyg9TylbTkhdW0NAQEhdKFtDSDJdQyg9TylOKFtDSDNdKVtDSDNdKUMoPU8pW05IXVtDQEBIXShbQ0gzXSlbQ0BIXShbT0hdKUMoPU8pW05IXVtDQEhdKFtDSDJdW0NIM10pYzFbY0hdW2NIXVtjSF1bY0hdW2NIXTE=

> <s_epik_cmdline>
J2VwaWtfYXBwJywgJy1pbWFlJywgJ2xpZ2FuZF9wcm8ubWFlJywgJy1vbWFlJywgJ2xpZ2FuZF9wcmVwLm1hZScsICctbXMnLCAnMScsICctcGgnLCAnNycsICctcGh0JywgJzAuNScsICctbnQn

> <r_lp_tautomer_probability>
1

> <r_epik_Ionization_Penalty>
  0.0004

> <r_epik_Ionization_Penalty_Charging>
  0.0004

> <r_epik_Ionization_Penalty_Neutral>
  0.0000

> <r_epik_State_Penalty>
 -0.0000

> <r_epik_Charging_Adjusted_Penalty>
0.000383940114231611

> <i_epik_Tot_Q>
1

> <i_epik_Tot_abs_Q>
1

$$$$
