1nkm_ligand
                    3D
 Schrodinger Suite 2020-3.
115115  0  0  1  0            999 V2000
   64.8230    5.5390   33.1510 C   0  0  0  0  0  0
   64.0580    5.2070   31.8720 C   0  0  0  0  0  0
   64.6360    5.1070   30.7830 O   0  0  0  0  0  0
   63.9980    5.1450   34.3880 C   0  0  0  0  0  0
   64.7130    5.4330   35.7160 C   0  0  0  0  0  0
   63.9690    4.8890   36.9300 C   0  0  0  0  0  0
   64.8550    4.9550   38.1730 C   0  0  0  0  0  0
   66.1580    4.2420   37.9760 N   0  3  0  0  0  0
   62.7520    5.0340   32.0150 N   0  0  0  0  0  0
   61.9040    4.7180   30.8790 C   0  0  1  0  0  0
   61.4610    3.2270   30.8970 C   0  0  0  0  0  0
   60.4490    2.9930   32.0260 C   0  0  0  0  0  0
   60.8300    2.8640   29.5480 C   0  0  0  0  0  0
   62.6790    2.3380   31.1440 C   0  0  0  0  0  0
   60.6690    5.5960   30.9390 C   0  0  0  0  0  0
   60.2490    6.0170   32.0200 O   0  0  0  0  0  0
   60.0980    5.8790   29.7750 N   0  0  0  0  0  0
   58.8940    6.6990   29.7040 C   0  0  1  0  0  0
   59.2280    8.1720   29.2760 C   0  0  0  0  0  0
   60.1060    8.1660   28.0130 C   0  0  0  0  0  0
   57.9310    8.9380   28.9930 C   0  0  0  0  0  0
   59.9670    8.8790   30.4130 C   0  0  0  0  0  0
   57.8760    6.0730   28.7430 C   0  0  0  0  0  0
   58.2030    5.7360   27.5980 O   0  0  0  0  0  0
   56.6490    5.9080   29.2300 N   0  0  0  0  0  0
   55.5820    5.3220   28.4320 C   0  0  1  0  0  0
   54.9760    4.1060   29.1410 C   0  0  0  0  0  0
   55.9550    2.9570   29.3030 C   0  0  0  0  0  0
   56.9390    2.8410   28.5620 O   0  0  0  0  0  0
   55.6690    2.0740   30.2660 N   0  0  0  0  0  0
   54.5050    2.1910   31.1220 C   0  0  0  0  0  0
   56.5360    0.9310   30.4580 C   0  0  0  0  0  0
   54.4480    6.2960   28.1270 C   0  0  0  0  0  0
   53.8580    6.8880   29.0310 O   0  0  0  0  0  0
   54.1410    6.4470   26.8440 N   0  0  0  0  0  0
   53.0490    7.3140   26.4100 C   0  0  2  0  0  0
   51.9510    6.4650   25.8000 C   0  0  2  0  0  0
   51.1620    7.2770   25.0060 O   0  0  0  0  0  0
   53.5430    8.3070   25.3760 C   0  0  0  0  0  0
   51.1160    5.8180   26.9300 C   0  0  0  0  0  0
   51.6630    5.4090   27.9640 O   0  0  0  0  0  0
   49.8010    5.7320   26.7420 N   0  0  0  0  0  0
   48.8760    5.1400   27.7160 C   0  0  2  0  0  0
   47.8410    4.2320   27.0490 C   0  0  0  0  0  0
   47.0540    3.4500   28.1000 C   0  0  0  0  0  0
   48.1400    6.2090   28.4860 C   0  0  0  0  0  0
   48.5200    6.5280   29.7930 C   0  0  0  0  0  0
   47.8100    7.4790   30.5430 C   0  0  0  0  0  0
   46.7090    8.1200   29.9780 C   0  0  0  0  0  0
   46.3220    7.8100   28.6680 C   0  0  0  0  0  0
   47.0390    6.8600   27.9320 C   0  0  0  0  0  0
   65.7736    4.9857   33.1638 H   0  0  0  0  0  0
   65.0271    6.6193   33.1862 H   0  0  0  0  0  0
   63.0531    5.7082   34.3931 H   0  0  0  0  0  0
   63.7821    4.0669   34.3566 H   0  0  0  0  0  0
   65.7106    4.9698   35.7033 H   0  0  0  0  0  0
   64.8152    6.5201   35.8492 H   0  0  0  0  0  0
   63.0634    5.4886   37.1040 H   0  0  0  0  0  0
   63.6860    3.8418   36.7477 H   0  0  0  0  0  0
   65.0730    6.0063   38.4125 H   0  0  0  0  0  0
   64.3333    4.4865   39.0205 H   0  0  0  0  0  0
   66.7593    4.3166   38.8941 H   0  0  0  0  0  0
   66.7055    4.7029   37.1406 H   0  0  0  0  0  0
   65.9658    3.1831   37.7486 H   0  0  0  0  0  0
   62.3125    5.1341   33.0184 H   0  0  0  0  0  0
   62.5125    4.9358   29.9889 H   0  0  0  0  0  0
   59.5647    3.6266   31.8629 H   0  0  0  0  0  0
   60.9106    3.2491   32.9911 H   0  0  0  0  0  0
   60.1461    1.9356   32.0335 H   0  0  0  0  0  0
   59.9531    3.5036   29.3695 H   0  0  0  0  0  0
   60.5180    1.8093   29.5611 H   0  0  0  0  0  0
   61.5662    3.0187   28.7454 H   0  0  0  0  0  0
   63.1324    2.5979   32.1119 H   0  0  0  0  0  0
   63.4148    2.4928   30.3411 H   0  0  0  0  0  0
   62.3666    1.2834   31.1568 H   0  0  0  0  0  0
   60.5489    5.4830   28.8531 H   0  0  0  0  0  0
   58.4904    6.6780   30.7271 H   0  0  0  0  0  0
   59.5716    7.6569   27.1974 H   0  0  0  0  0  0
   61.0464    7.6352   28.2227 H   0  0  0  0  0  0
   60.3278    9.2016   27.7158 H   0  0  0  0  0  0
   57.3841    8.4439   28.1764 H   0  0  0  0  0  0
   58.1715    9.9709   28.7009 H   0  0  0  0  0  0
   57.3066    8.9489   29.8985 H   0  0  0  0  0  0
   60.9025    8.3431   30.6313 H   0  0  0  0  0  0
   59.3326    8.8902   31.3115 H   0  0  0  0  0  0
   60.1974    9.9122   30.1139 H   0  0  0  0  0  0
   56.4507    6.2273   30.2638 H   0  0  0  0  0  0
   56.1034    5.0555   27.5008 H   0  0  0  0  0  0
   54.6384    4.3983   30.1463 H   0  0  0  0  0  0
   54.1194    3.7325   28.5608 H   0  0  0  0  0  0
   53.9474    3.1023   30.8601 H   0  0  0  0  0  0
   54.8265    2.2470   32.1725 H   0  0  0  0  0  0
   53.8578    1.3124   30.9830 H   0  0  0  0  0  0
   57.3695    0.9786   29.7418 H   0  0  0  0  0  0
   55.9643    0.0056   30.2943 H   0  0  0  0  0  0
   56.9330    0.9402   31.4838 H   0  0  0  0  0  0
   54.7354    5.8967   26.0998 H   0  0  0  0  0  0
   52.6891    7.8472   27.3023 H   0  0  0  0  0  0
   52.3411    5.7130   25.0984 H   0  0  0  0  0  0
   51.6065    7.8127   24.1543 H   0  0  0  0  0  0
   54.3402    8.9259   25.8135 H   0  0  0  0  0  0
   52.7099    8.9519   25.0597 H   0  0  0  0  0  0
   53.9372    7.7635   24.5047 H   0  0  0  0  0  0
   49.4168    6.1361   25.7938 H   0  0  0  0  0  0
   49.5273    4.5603   28.3866 H   0  0  0  0  0  0
   47.1405    4.8440   26.4619 H   0  0  0  0  0  0
   48.3520    3.5201   26.3841 H   0  0  0  0  0  0
   46.3165    2.8044   27.6006 H   0  0  0  0  0  0
   46.5337    4.1533   28.7668 H   0  0  0  0  0  0
   47.7453    2.8294   28.6890 H   0  0  0  0  0  0
   49.3819    6.0301   30.2372 H   0  0  0  0  0  0
   48.1182    7.7147   31.5616 H   0  0  0  0  0  0
   46.1515    8.8593   30.5530 H   0  0  0  0  0  0
   45.4619    8.3090   28.2216 H   0  0  0  0  0  0
   46.7326    6.6261   26.9124 H   0  0  0  0  0  0
  1  2  1  0  0  0
  1  4  1  0  0  0
  1 52  1  0  0  0
  1 53  1  0  0  0
  2  3  2  0  0  0
  2  9  1  0  0  0
  4  5  1  0  0  0
  4 54  1  0  0  0
  4 55  1  0  0  0
  5  6  1  0  0  0
  5 56  1  0  0  0
  5 57  1  0  0  0
  6  7  1  0  0  0
  6 58  1  0  0  0
  6 59  1  0  0  0
  7  8  1  0  0  0
  7 60  1  0  0  0
  7 61  1  0  0  0
  8 62  1  0  0  0
  8 63  1  0  0  0
  8 64  1  0  0  0
  9 10  1  0  0  0
  9 65  1  0  0  0
 10 11  1  0  0  0
 10 15  1  0  0  0
 10 66  1  0  0  0
 11 12  1  0  0  0
 11 13  1  0  0  0
 11 14  1  0  0  0
 12 67  1  0  0  0
 12 68  1  0  0  0
 12 69  1  0  0  0
 13 70  1  0  0  0
 13 71  1  0  0  0
 13 72  1  0  0  0
 14 73  1  0  0  0
 14 74  1  0  0  0
 14 75  1  0  0  0
 15 16  2  0  0  0
 15 17  1  0  0  0
 17 18  1  0  0  0
 17 76  1  0  0  0
 18 19  1  0  0  0
 18 23  1  0  0  0
 18 77  1  0  0  0
 19 20  1  0  0  0
 19 21  1  0  0  0
 19 22  1  0  0  0
 20 78  1  0  0  0
 20 79  1  0  0  0
 20 80  1  0  0  0
 21 81  1  0  0  0
 21 82  1  0  0  0
 21 83  1  0  0  0
 22 84  1  0  0  0
 22 85  1  0  0  0
 22 86  1  0  0  0
 23 24  2  0  0  0
 23 25  1  0  0  0
 25 26  1  0  0  0
 25 87  1  0  0  0
 26 27  1  0  0  0
 26 33  1  0  0  0
 26 88  1  0  0  0
 27 28  1  0  0  0
 27 89  1  0  0  0
 27 90  1  0  0  0
 28 29  2  0  0  0
 28 30  1  0  0  0
 30 31  1  0  0  0
 30 32  1  0  0  0
 31 91  1  0  0  0
 31 92  1  0  0  0
 31 93  1  0  0  0
 32 94  1  0  0  0
 32 95  1  0  0  0
 32 96  1  0  0  0
 33 34  2  0  0  0
 33 35  1  0  0  0
 35 36  1  0  0  0
 35 97  1  0  0  0
 36 37  1  0  0  0
 36 39  1  0  0  0
 36 98  1  0  0  0
 37 38  1  0  0  0
 37 40  1  0  0  0
 37 99  1  0  0  0
 38100  1  0  0  0
 39101  1  0  0  0
 39102  1  0  0  0
 39103  1  0  0  0
 40 41  2  0  0  0
 40 42  1  0  0  0
 42 43  1  0  0  0
 42104  1  0  0  0
 43 44  1  0  0  0
 43 46  1  0  0  0
 43105  1  0  0  0
 44 45  1  0  0  0
 44106  1  0  0  0
 44107  1  0  0  0
 45108  1  0  0  0
 45109  1  0  0  0
 45110  1  0  0  0
 46 47  2  0  0  0
 46 51  1  0  0  0
 47 48  1  0  0  0
 47111  1  0  0  0
 48 49  2  0  0  0
 48112  1  0  0  0
 49 50  1  0  0  0
 49113  1  0  0  0
 50 51  2  0  0  0
 50114  1  0  0  0
 51115  1  0  0  0
M  CHG  1   8   1
M  END
> <s_m_source_file>
../1nkm_ligand.sdf

> <i_m_source_file_index>
1

> <s_epik_input>
W05IMytdW0NIMl1bQ0gyXVtDSDJdW0NIMl1bQ0gyXUMoPU8pW05IXVtDQEBIXShDKFtDSDNdKShbQ0gzXSlbQ0gzXSlDKD1PKVtOSF1bQ0BASF0oQyhbQ0gzXSkoW0NIM10pW0NIM10pQyg9TylbTkhdW0NAQEhdKFtDSDJdQyg9TylOKFtDSDNdKVtDSDNdKUMoPU8pW05IXVtDQEBIXShbQ0gzXSlbQ0BIXShbT0hdKUMoPU8pW05IXVtDQEhdKFtDSDJdW0NIM10pYzFbY0hdW2NIXVtjSF1bY0hdW2NIXTE=

> <s_epik_cmdline>
J2VwaWtfYXBwJywgJy1pbWFlJywgJ2xpZ2FuZF9wcm8ubWFlJywgJy1vbWFlJywgJ2xpZ2FuZF9wcmVwLm1hZScsICctbXMnLCAnMScsICctcGgnLCAnNycsICctcGh0JywgJzAuNScsICctbnQn

> <r_lp_tautomer_probability>
1

> <r_epik_Ionization_Penalty>
  0.0004

> <r_epik_Ionization_Penalty_Charging>
  0.0004

> <r_epik_Ionization_Penalty_Neutral>
  0.0000

> <r_epik_State_Penalty>
 -0.0000

> <r_epik_Charging_Adjusted_Penalty>
0.000383940114231611

> <i_epik_Tot_Q>
1

> <i_epik_Tot_abs_Q>
1

$$$$
