1nl4_ligand
                    3D
 Schrodinger Suite 2020-3.
 59 63  0  0  1  0            999 V2000
   49.6320   49.5050   -2.5050 C   0  0  0  0  0  0
   49.6550   48.2880   -1.6520 N   0  0  0  0  0  0
   50.6980   48.0230   -0.7740 C   0  0  0  0  0  0
   50.7690   46.8010   -0.0580 C   0  0  0  0  0  0
   51.8680   46.5220    0.7790 C   0  0  0  0  0  0
   52.9020   47.4740    0.9090 C   0  0  0  0  0  0
   52.8510   48.6900    0.2130 C   0  0  0  0  0  0
   51.7450   48.9560   -0.6250 C   0  0  0  0  0  0
   53.9080   49.7510    0.3000 C   0  0  0  0  0  0
   53.6170   51.0630    0.7680 C   0  0  0  0  0  0
   54.6710   52.0690    0.7680 C   0  0  0  0  0  0
   55.9610   51.7330    0.3140 C   0  0  0  0  0  0
   56.2320   50.4260   -0.1370 C   0  0  0  0  0  0
   55.2170   49.4480   -0.1430 C   0  0  0  0  0  0
   53.9970   47.1620    1.8020 C   0  0  0  0  0  0
   54.4000   53.3770    1.2200 C   0  0  0  0  0  0
   54.8760   46.9230    2.5210 N   0  0  0  0  0  0
   52.3300   51.4260    1.2380 C   0  0  0  0  0  0
   53.1060   53.7050    1.6770 C   0  0  0  0  0  0
   52.0800   52.7370    1.6900 C   0  0  0  0  0  0
   49.6990   45.4880   -4.9580 N   0  3  0  0  0  0
   49.9990   46.3810   -3.9610 C   0  0  0  0  0  0
   48.8240   46.4160   -3.1570 C   0  0  0  0  0  0
   47.9120   45.5770   -3.6790 N   0  0  0  0  0  0
   48.4210   44.9850   -4.7990 C   0  0  0  0  0  0
   46.5750   45.3170   -3.1280 C   0  0  0  0  0  0
   48.6750   51.2110   -0.7770 C   0  0  0  0  0  0
   49.2750   50.9120   -2.0210 C   0  0  0  0  0  0
   49.5560   51.9580   -2.9250 C   0  0  0  0  0  0
   49.2330   53.2860   -2.5910 C   0  0  0  0  0  0
   48.6380   53.5750   -1.3490 C   0  0  0  0  0  0
   48.3540   52.5430   -0.4330 C   0  0  0  0  0  0
   49.4860   54.3490   -3.5290 C   0  0  0  0  0  0
   49.6810   55.2040   -4.2890 N   0  0  0  0  0  0
   48.6080   47.2770   -1.9090 C   0  0  0  0  0  0
   50.6322   49.6732   -2.9309 H   0  0  0  0  0  0
   48.9050   49.3685   -3.3191 H   0  0  0  0  0  0
   49.9659   46.0705   -0.1559 H   0  0  0  0  0  0
   51.9191   45.5782    1.3219 H   0  0  0  0  0  0
   51.7001   49.9007   -1.1669 H   0  0  0  0  0  0
   56.7504   52.4846    0.3115 H   0  0  0  0  0  0
   57.2331   50.1695   -0.4835 H   0  0  0  0  0  0
   55.4444   48.4417   -0.4947 H   0  0  0  0  0  0
   55.1868   54.1314    1.2164 H   0  0  0  0  0  0
   51.5291   50.6868    1.2499 H   0  0  0  0  0  0
   52.8970   54.7170    2.0237 H   0  0  0  0  0  0
   51.0874   53.0049    2.0520 H   0  0  0  0  0  0
   50.9254   46.9370   -3.8169 H   0  0  0  0  0  0
   47.9196   44.2601   -5.4402 H   0  0  0  0  0  0
   46.4257   45.9269   -2.2248 H   0  0  0  0  0  0
   46.4857   44.2515   -2.8698 H   0  0  0  0  0  0
   45.8127   45.5780   -3.8769 H   0  0  0  0  0  0
   48.4576   50.4055   -0.0756 H   0  0  0  0  0  0
   50.0243   51.7369   -3.8841 H   0  0  0  0  0  0
   48.3947   54.6063   -1.0934 H   0  0  0  0  0  0
   47.8927   52.7693    0.5283 H   0  0  0  0  0  0
   48.5507   46.5838   -1.0569 H   0  0  0  0  0  0
   47.6378   47.7788   -2.0393 H   0  0  0  0  0  0
   50.4416   45.2649   -5.7383 H   0  0  0  0  0  0
  1  2  1  0  0  0
  1 28  1  0  0  0
  1 36  1  0  0  0
  1 37  1  0  0  0
  2  3  1  0  0  0
  2 35  1  0  0  0
  3  4  2  0  0  0
  3  8  1  0  0  0
  4  5  1  0  0  0
  4 38  1  0  0  0
  5  6  2  0  0  0
  5 39  1  0  0  0
  6  7  1  0  0  0
  6 15  1  0  0  0
  7  8  2  0  0  0
  7  9  1  0  0  0
  8 40  1  0  0  0
  9 10  2  0  0  0
  9 14  1  0  0  0
 10 11  1  0  0  0
 10 18  1  0  0  0
 11 12  2  0  0  0
 11 16  1  0  0  0
 12 13  1  0  0  0
 12 41  1  0  0  0
 13 14  2  0  0  0
 13 42  1  0  0  0
 14 43  1  0  0  0
 15 17  3  0  0  0
 16 19  2  0  0  0
 16 44  1  0  0  0
 18 20  2  0  0  0
 18 45  1  0  0  0
 19 20  1  0  0  0
 19 46  1  0  0  0
 20 47  1  0  0  0
 21 22  1  0  0  0
 21 25  2  0  0  0
 21 59  1  0  0  0
 22 23  2  0  0  0
 22 48  1  0  0  0
 23 24  1  0  0  0
 23 35  1  0  0  0
 24 25  1  0  0  0
 24 26  1  0  0  0
 25 49  1  0  0  0
 26 50  1  0  0  0
 26 51  1  0  0  0
 26 52  1  0  0  0
 27 28  2  0  0  0
 27 32  1  0  0  0
 27 53  1  0  0  0
 28 29  1  0  0  0
 29 30  2  0  0  0
 29 54  1  0  0  0
 30 31  1  0  0  0
 30 33  1  0  0  0
 31 32  2  0  0  0
 31 55  1  0  0  0
 32 56  1  0  0  0
 33 34  3  0  0  0
 35 57  1  0  0  0
 35 58  1  0  0  0
M  CHG  1  21   1
M  END
> <s_m_source_file>
../1nl4_ligand.sdf

> <i_m_source_file_index>
1

> <s_epik_input>
TiNDYyhbY0hdMSlbY0hdW2NIXVtjSF1jMVtDSDJdTihbQ0gyXWMyW2NIXW5bY0hdbjJbQ0gzXSljM1tjSF1bY0hdYyhDI04pYyhbY0hdMyktYzRbY0hdW2NIXVtjSF1jKGM0NSlbY0hdW2NIXVtjSF1bY0hdNQ==

> <s_epik_cmdline>
J2VwaWtfYXBwJywgJy1pbWFlJywgJ2xpZ2FuZF9wcm8ubWFlJywgJy1vbWFlJywgJ2xpZ2FuZF9wcmVwLm1hZScsICctbXMnLCAnMScsICctcGgnLCAnNycsICctcGh0JywgJzAuNScsICctbnQn

> <r_lp_tautomer_probability>
1

> <r_epik_Ionization_Penalty>
  0.0854

> <r_epik_Ionization_Penalty_Charging>
  0.0000

> <r_epik_Ionization_Penalty_Neutral>
  0.0854

> <r_epik_State_Penalty>
  0.0760

> <r_epik_Charging_Adjusted_Penalty>
0.0759746871603663

> <i_epik_Tot_Q>
1

> <i_epik_Tot_abs_Q>
1

$$$$
