1nl9_ligand
                    3D
 Schrodinger Suite 2020-3.
 68 70  0  0  1  0            999 V2000
   36.6580   29.5000   24.0190 O   0  5  0  0  0  0
   35.6080   28.7400   24.4130 C   0  0  0  0  0  0
   34.7470   29.1720   25.1210 O   0  0  0  0  0  0
   35.5430   27.2770   23.8800 C   0  0  0  0  0  0
   35.8780   26.4060   24.6770 O   0  0  0  0  0  0
   35.1250   26.9770   22.5520 N   0  0  0  0  0  0
   35.0770   25.6090   22.0500 C   0  0  0  0  0  0
   33.8320   25.1790   21.4580 C   0  0  0  0  0  0
   33.6470   23.8880   20.9270 C   0  0  0  0  0  0
   34.6920   22.9580   20.9560 C   0  0  0  0  0  0
   35.9260   23.3190   21.5200 C   0  0  0  0  0  0
   36.1640   24.6160   22.0720 C   0  0  0  0  0  0
   37.5320   24.8230   22.6270 C   0  0  0  0  0  0
   38.1510   25.8280   22.4800 O   0  0  0  0  0  0
   38.0450   23.7900   23.3310 O   0  5  0  0  0  0
   34.6920   28.0320   21.7050 C   0  0  0  0  0  0
   33.3820   28.5810   21.9580 C   0  0  0  0  0  0
   32.8500   29.6210   21.1820 C   0  0  0  0  0  0
   33.5800   30.1890   20.0990 C   0  0  0  0  0  0
   34.9180   29.6720   19.7980 C   0  0  0  0  0  0
   35.4720   28.5890   20.6090 C   0  0  0  0  0  0
   36.7870   28.0840   20.3050 C   0  0  0  0  0  0
   37.5460   28.6280   19.2330 C   0  0  0  0  0  0
   37.0150   29.6830   18.4400 C   0  0  0  0  0  0
   35.7220   30.1980   18.7140 C   0  0  0  0  0  0
   32.9120   31.3080   19.3060 C   0  0  0  0  0  0
   32.3120   30.7900   17.9580 C   0  0  2  0  0  0
   31.7070   31.9260   17.2520 N   0  0  0  0  0  0
   32.2190   32.3740   16.0860 C   0  0  0  0  0  0
   33.1960   31.9010   15.5140 O   0  0  0  0  0  0
   31.4680   33.5610   15.5050 C   0  0  0  0  0  0
   31.2950   29.6300   18.1280 C   0  0  0  0  0  0
   31.7310   28.4810   18.1910 O   0  0  0  0  0  0
   29.9660   29.9050   18.2080 N   0  0  0  0  0  0
   28.8920   28.9250   18.3750 C   0  0  0  0  0  0
   27.6830   29.5000   19.1330 C   0  0  0  0  0  0
   27.9330   29.6020   20.6510 C   0  0  0  0  0  0
   26.7150   30.1700   21.4020 C   0  0  0  0  0  0
   27.0890   30.8300   22.7320 C   0  0  0  0  0  0
   33.0008   25.8831   21.4206 H   0  0  0  0  0  0
   32.6864   23.6122   20.4919 H   0  0  0  0  0  0
   34.5489   21.9594   20.5433 H   0  0  0  0  0  0
   36.7310   22.5843   21.5376 H   0  0  0  0  0  0
   32.7879   28.1753   22.7769 H   0  0  0  0  0  0
   31.8556   30.0031   21.4129 H   0  0  0  0  0  0
   37.2048   27.2751   20.9043 H   0  0  0  0  0  0
   38.5396   28.2349   19.0177 H   0  0  0  0  0  0
   37.6028   30.0963   17.6204 H   0  0  0  0  0  0
   35.3260   31.0048   18.0972 H   0  0  0  0  0  0
   32.0958   31.7427   19.9017 H   0  0  0  0  0  0
   33.6533   32.0874   19.0759 H   0  0  0  0  0  0
   33.1175   30.4006   17.3180 H   0  0  0  0  0  0
   30.8221   32.4265   17.6721 H   0  0  0  0  0  0
   30.6315   33.8259   16.1683 H   0  0  0  0  0  0
   31.0782   33.2973   14.5108 H   0  0  0  0  0  0
   32.1509   34.4187   15.4155 H   0  0  0  0  0  0
   29.7267   30.9762   18.1354 H   0  0  0  0  0  0
   28.5442   28.5902   17.3866 H   0  0  0  0  0  0
   29.2686   28.0615   18.9430 H   0  0  0  0  0  0
   27.4612   30.5098   18.7574 H   0  0  0  0  0  0
   26.8092   28.8504   18.9763 H   0  0  0  0  0  0
   28.1486   28.6019   21.0551 H   0  0  0  0  0  0
   28.7903   30.2655   20.8377 H   0  0  0  0  0  0
   26.2214   30.9298   20.7783 H   0  0  0  0  0  0
   26.0064   29.3572   21.6192 H   0  0  0  0  0  0
   26.1806   31.2144   23.2188 H   0  0  0  0  0  0
   27.7850   31.6612   22.5459 H   0  0  0  0  0  0
   27.5701   30.0885   23.3868 H   0  0  0  0  0  0
  1  2  1  0  0  0
  2  3  2  0  0  0
  2  4  1  0  0  0
  4  5  2  0  0  0
  4  6  1  0  0  0
  6  7  1  0  0  0
  6 16  1  0  0  0
  7  8  2  0  0  0
  7 12  1  0  0  0
  8  9  1  0  0  0
  8 40  1  0  0  0
  9 10  2  0  0  0
  9 41  1  0  0  0
 10 11  1  0  0  0
 10 42  1  0  0  0
 11 12  2  0  0  0
 11 43  1  0  0  0
 12 13  1  0  0  0
 13 14  2  0  0  0
 13 15  1  0  0  0
 16 17  2  0  0  0
 16 21  1  0  0  0
 17 18  1  0  0  0
 17 44  1  0  0  0
 18 19  2  0  0  0
 18 45  1  0  0  0
 19 20  1  0  0  0
 19 26  1  0  0  0
 20 21  2  0  0  0
 20 25  1  0  0  0
 21 22  1  0  0  0
 22 23  2  0  0  0
 22 46  1  0  0  0
 23 24  1  0  0  0
 23 47  1  0  0  0
 24 25  2  0  0  0
 24 48  1  0  0  0
 25 49  1  0  0  0
 26 27  1  0  0  0
 26 50  1  0  0  0
 26 51  1  0  0  0
 27 28  1  0  0  0
 27 32  1  0  0  0
 27 52  1  0  0  0
 28 29  1  0  0  0
 28 53  1  0  0  0
 29 30  2  0  0  0
 29 31  1  0  0  0
 31 54  1  0  0  0
 31 55  1  0  0  0
 31 56  1  0  0  0
 32 33  2  0  0  0
 32 34  1  0  0  0
 34 35  1  0  0  0
 34 57  1  0  0  0
 35 36  1  0  0  0
 35 58  1  0  0  0
 35 59  1  0  0  0
 36 37  1  0  0  0
 36 60  1  0  0  0
 36 61  1  0  0  0
 37 38  1  0  0  0
 37 62  1  0  0  0
 37 63  1  0  0  0
 38 39  1  0  0  0
 38 64  1  0  0  0
 38 65  1  0  0  0
 39 66  1  0  0  0
 39 67  1  0  0  0
 39 68  1  0  0  0
M  CHG  2   1  -1  15  -1
M  END
> <s_m_source_file>
../1nl9_ligand.sdf

> <i_m_source_file_index>
1

> <s_epik_input>
Tz1DKFtPSF0pYzFbY0hdW2NIXVtjSF1bY0hdYzFOKEMoPU8pQyg9TylbT0hdKWMoYyhjMjMpW2NIXVtjSF1bY0hdW2NIXTMpW2NIXVtjSF1jMltDSDJdW0NASF0oW05IXUMoPU8pW0NIM10pQyg9TylbTkhdW0NIMl1bQ0gyXVtDSDJdW0NIMl1bQ0gzXQ==

> <s_epik_cmdline>
J2VwaWtfYXBwJywgJy1pbWFlJywgJ2xpZ2FuZF9wcm8ubWFlJywgJy1vbWFlJywgJ2xpZ2FuZF9wcmVwLm1hZScsICctbXMnLCAnMScsICctcGgnLCAnNycsICctcGh0JywgJzAuNScsICctbnQn

> <r_epik_Ionization_Penalty>
  0.8289

> <r_epik_Ionization_Penalty_Charging>
  0.0005

> <r_epik_Ionization_Penalty_Neutral>
  0.8284

> <r_epik_State_Penalty>
  0.0000

> <r_epik_Charging_Adjusted_Penalty>
0.00046458614981894

> <i_epik_Tot_Q>
-2

> <i_epik_Tot_abs_Q>
2

$$$$
