1nlo_ligand
                    3D
 Schrodinger Suite 2020-3.
178184  0  0  1  0            999 V2000
   66.8050   -3.2890   -3.6890 C   0  0  0  0  0  0
   67.1800   -3.6330   -2.5860 O   0  0  0  0  0  0
   67.3830   -3.9560   -4.9420 C   0  0  0  0  0  0
   61.7850   -3.7760   -1.4090 C   0  0  0  0  0  0
   60.6390   -4.4570   -0.9740 C   0  0  0  0  0  0
   59.9520   -4.9310   -1.8560 O   0  0  0  0  0  0
   62.9660   -4.4800   -1.6690 C   0  0  0  0  0  0
   64.1110   -3.7940   -2.0950 C   0  0  0  0  0  0
   64.0720   -2.4040   -2.2600 C   0  0  0  0  0  0
   62.8910   -1.7000   -2.0010 C   0  0  0  0  0  0
   61.7480   -2.3860   -1.5750 C   0  0  0  0  0  0
   65.3060   -1.6590   -2.7130 C   0  0  0  0  0  0
   65.9060   -2.3490   -3.8880 N   0  0  0  0  0  0
   65.4770   -1.9590   -5.2700 C   0  0  0  0  0  0
   66.0660   -0.5900   -5.6470 C   0  0  0  0  0  0
   64.9350    0.4340   -5.7560 C   0  0  0  0  0  0
   67.0630   -0.1240   -4.5790 C   0  0  0  0  0  0
   59.5250   -6.5880    1.3630 C   0  0  0  0  0  0
   59.8510   -7.6690    0.5380 C   0  0  0  0  0  0
   60.2030   -8.8990    1.1040 C   0  0  0  0  0  0
   60.2280   -9.0480    2.4950 C   0  0  0  0  0  0
   59.9010   -7.9660    3.3210 C   0  0  0  0  0  0
   59.5500   -6.7350    2.7540 C   0  0  0  0  0  0
   59.1420   -5.2640    0.7510 C   0  0  0  0  0  0
   60.3670   -4.5460    0.3040 N   0  0  0  0  0  0
   61.2830   -3.9390    1.3120 C   0  0  0  0  0  0
   62.4240   -4.9150    1.6110 C   0  0  0  0  0  0
   63.1400   -4.4920    2.8970 C   0  0  0  0  0  0
   62.9320   -5.0870    3.9350 O   0  0  0  0  0  0
   60.6100  -10.3750    3.1060 C   0  0  0  0  0  0
   59.3930  -11.0400    3.6510 N   0  3  0  0  0  0
   63.9670   -3.4750    2.8000 N   0  0  0  0  0  0
   64.1990   -2.7650    1.5040 C   0  0  0  0  0  0
   63.9800   -1.2680    1.7300 C   0  0  0  0  0  0
   64.8950   -0.8010    2.8660 C   0  0  0  0  0  0
   64.7700    0.7160    3.0410 C   0  0  0  0  0  0
   64.0240    1.1820    3.8790 O   0  0  0  0  0  0
   64.4660   -1.5000    4.1580 C   0  0  0  0  0  0
   64.7000   -3.0040    4.0060 C   0  0  0  0  0  0
   65.5130    1.4400    2.2410 N   0  0  0  0  0  0
   65.5220    2.9130    2.2820 C   0  0  2  0  0  0
   64.2640    3.4800    1.6160 C   0  0  0  0  0  0
   64.1900    3.6030    0.4100 O   0  0  0  0  0  0
   66.7790    3.2860    1.4900 C   0  0  0  0  0  0
   67.0970    2.0750    0.5810 C   0  0  0  0  0  0
   66.4080    0.8550    1.2200 C   0  0  0  0  0  0
   63.2790    3.8340    2.3960 N   0  0  0  0  0  0
   62.0310    4.4000    1.8120 C   0  0  2  0  0  0
   62.3990    5.4640    0.7750 C   0  0  0  0  0  0
   63.5010    5.9750    0.7820 O   0  0  0  0  0  0
   61.1950    5.0370    2.9260 C   0  0  0  0  0  0
   60.8610    3.9820    3.9820 C   0  0  0  0  0  0
   60.8560    4.6270    5.3690 C   0  0  0  0  0  0
   59.4810    3.3910    3.6910 C   0  0  0  0  0  0
   61.4640    5.7670   -0.0880 N   0  0  0  0  0  0
   61.6620    6.7700   -1.1460 C   0  0  2  0  0  0
   61.5280    8.1820   -0.5680 C   0  0  0  0  0  0
   61.1670    8.3470    0.5810 O   0  0  0  0  0  0
   60.5350    6.4700   -2.1400 C   0  0  0  0  0  0
   59.4420    5.7160   -1.3470 C   0  0  0  0  0  0
   60.1240    5.1410   -0.0910 C   0  0  0  0  0  0
   61.8210    9.1570   -1.3860 N   0  0  0  0  0  0
   61.7420   10.5740   -0.9900 C   0  0  2  0  0  0
   60.2810   11.0210   -0.9380 C   0  0  0  0  0  0
   59.5970   11.0550   -1.9410 O   0  0  0  0  0  0
   62.5060   11.3000   -2.1010 C   0  0  0  0  0  0
   62.4910   10.3570   -3.3270 C   0  0  0  0  0  0
   62.2520    8.9380   -2.7810 C   0  0  0  0  0  0
   59.7910   11.3520    0.2260 N   0  0  0  0  0  0
   58.3690   11.7790    0.3320 C   0  0  2  0  0  0
   58.1260   13.0090   -0.5460 C   0  0  0  0  0  0
   59.0310   13.7730   -0.8180 O   0  0  0  0  0  0
   58.0230   12.1320    1.7870 C   0  0  0  0  0  0
   57.8570   10.8690    2.6510 C   0  0  0  0  0  0
   56.9110   11.1730    3.8040 C   0  0  0  0  0  0
   57.2620    9.7200    1.8390 C   0  0  0  0  0  0
   56.8910   13.1580   -0.9500 N   0  0  0  0  0  0
   56.4480   14.2810   -1.7930 C   0  0  2  0  0  0
   56.2720   15.5460   -0.9480 C   0  0  0  0  0  0
   55.5990   15.5310    0.0640 O   0  0  0  0  0  0
   55.1020   13.8000   -2.3450 C   0  0  0  0  0  0
   54.5970   12.7130   -1.3820 C   0  0  0  0  0  0
   55.8170   12.2070   -0.6010 C   0  0  0  0  0  0
   56.8540   16.6520   -1.3240 N   0  0  0  0  0  0
   68.1182   -4.7186   -4.6454 H   0  0  0  0  0  0
   67.8746   -3.1967   -5.5679 H   0  0  0  0  0  0
   66.5711   -4.4314   -5.5119 H   0  0  0  0  0  0
   62.9952   -5.5620   -1.5401 H   0  0  0  0  0  0
   65.0313   -4.3418   -2.2978 H   0  0  0  0  0  0
   62.8612   -0.6182   -2.1309 H   0  0  0  0  0  0
   60.8280   -1.8378   -1.3722 H   0  0  0  0  0  0
   65.0314   -0.6317   -2.9946 H   0  0  0  0  0  0
   66.0390   -1.6310   -1.8933 H   0  0  0  0  0  0
   65.8306   -2.7119   -5.9898 H   0  0  0  0  0  0
   64.3793   -1.9003   -5.3103 H   0  0  0  0  0  0
   66.5879   -0.6773   -6.6114 H   0  0  0  0  0  0
   64.2157    0.1058   -6.5208 H   0  0  0  0  0  0
   65.3517    1.4116   -6.0400 H   0  0  0  0  0  0
   64.4243    0.5209   -4.7856 H   0  0  0  0  0  0
   67.8796   -0.8563   -4.4953 H   0  0  0  0  0  0
   66.5486   -0.0361   -3.6107 H   0  0  0  0  0  0
   67.4759    0.8546   -4.8650 H   0  0  0  0  0  0
   59.8309   -7.5533   -0.5457 H   0  0  0  0  0  0
   60.4579   -9.7415    0.4611 H   0  0  0  0  0  0
   59.9197   -8.0819    4.4047 H   0  0  0  0  0  0
   59.2963   -5.8915    3.3961 H   0  0  0  0  0  0
   58.4840   -5.4363   -0.1135 H   0  0  0  0  0  0
   58.6135   -4.6538    1.4982 H   0  0  0  0  0  0
   61.6960   -3.0004    0.9139 H   0  0  0  0  0  0
   60.7246   -3.7308    2.2366 H   0  0  0  0  0  0
   62.0159   -5.9287    1.7370 H   0  0  0  0  0  0
   63.1399   -4.9092    0.7758 H   0  0  0  0  0  0
   61.0642  -11.0160    2.3360 H   0  0  0  0  0  0
   61.3326  -10.2100    3.9188 H   0  0  0  0  0  0
   59.6716  -12.0066    4.0960 H   0  0  0  0  0  0
   58.6704  -11.2051    2.8383 H   0  0  0  0  0  0
   58.9387  -10.3991    4.4210 H   0  0  0  0  0  0
   65.2292   -2.9484    1.1648 H   0  0  0  0  0  0
   63.4922   -3.1397    0.7490 H   0  0  0  0  0  0
   64.2209   -0.7189    0.8078 H   0  0  0  0  0  0
   62.9290   -1.0878    2.0001 H   0  0  0  0  0  0
   65.9401   -1.0507    2.6305 H   0  0  0  0  0  0
   65.0606   -1.1134    4.9989 H   0  0  0  0  0  0
   63.3993   -1.3056    4.3433 H   0  0  0  0  0  0
   64.3247   -3.5344    4.8936 H   0  0  0  0  0  0
   65.7743   -3.2069    3.8847 H   0  0  0  0  0  0
   65.5289    3.2815    3.3184 H   0  0  0  0  0  0
   66.5810    4.1872    0.8911 H   0  0  0  0  0  0
   67.6065    3.4836    2.1872 H   0  0  0  0  0  0
   66.7057    2.2625   -0.4298 H   0  0  0  0  0  0
   68.1862    1.9298    0.5314 H   0  0  0  0  0  0
   67.1285    0.1812    1.7067 H   0  0  0  0  0  0
   65.8110    0.2882    0.4904 H   0  0  0  0  0  0
   63.3712    3.7140    3.4855 H   0  0  0  0  0  0
   61.4693    3.5827    1.3360 H   0  0  0  0  0  0
   61.7663    5.8533    3.3920 H   0  0  0  0  0  0
   60.2628    5.4378    2.5014 H   0  0  0  0  0  0
   61.6174    3.1839    3.9532 H   0  0  0  0  0  0
   61.8484    5.0524    5.5791 H   0  0  0  0  0  0
   60.6153    3.8663    6.1262 H   0  0  0  0  0  0
   60.1007    5.4261    5.3990 H   0  0  0  0  0  0
   59.4838    2.9269    2.6937 H   0  0  0  0  0  0
   58.7260    4.1904    3.7214 H   0  0  0  0  0  0
   59.2406    2.6306    4.4486 H   0  0  0  0  0  0
   62.6665    6.6950   -1.5880 H   0  0  0  0  0  0
   60.1449    7.4142   -2.5479 H   0  0  0  0  0  0
   60.9251    5.8496   -2.9603 H   0  0  0  0  0  0
   58.6401    6.4166   -1.0710 H   0  0  0  0  0  0
   59.0266    4.9105   -1.9703 H   0  0  0  0  0  0
   60.2303    4.0474   -0.1428 H   0  0  0  0  0  0
   59.5896    5.4142    0.8308 H   0  0  0  0  0  0
   62.1670   10.7418    0.0106 H   0  0  0  0  0  0
   62.0043   12.2519   -2.3293 H   0  0  0  0  0  0
   63.5356   11.4986   -1.7686 H   0  0  0  0  0  0
   61.6832   10.6572   -4.0106 H   0  0  0  0  0  0
   63.4566   10.4203   -3.8501 H   0  0  0  0  0  0
   63.1695    8.3313   -2.7903 H   0  0  0  0  0  0
   61.4586    8.4113   -3.3315 H   0  0  0  0  0  0
   60.4231   11.3166    1.1255 H   0  0  0  0  0  0
   57.7584   10.9317   -0.0132 H   0  0  0  0  0  0
   58.8292   12.7442    2.2174 H   0  0  0  0  0  0
   57.0797   12.6973    1.8128 H   0  0  0  0  0  0
   58.8460   10.5683    3.0272 H   0  0  0  0  0  0
   57.3189   11.9992    4.4048 H   0  0  0  0  0  0
   56.8033   10.2787    4.4354 H   0  0  0  0  0  0
   55.9272   11.4607    3.4049 H   0  0  0  0  0  0
   57.9294    9.4814    0.9978 H   0  0  0  0  0  0
   56.2760   10.0166    1.4520 H   0  0  0  0  0  0
   57.1522    8.8347    2.4825 H   0  0  0  0  0  0
   57.1884   14.5136   -2.5725 H   0  0  0  0  0  0
   54.3994   14.6454   -2.3861 H   0  0  0  0  0  0
   55.2451   13.3926   -3.3567 H   0  0  0  0  0  0
   53.8500   13.1455   -0.7002 H   0  0  0  0  0  0
   54.1378   11.8967   -1.9588 H   0  0  0  0  0  0
   56.1116   11.1926   -0.9078 H   0  0  0  0  0  0
   55.6484   12.2269    0.4858 H   0  0  0  0  0  0
   57.4638   16.6690   -2.2394 H   0  0  0  0  0  0
   56.7348   17.5672   -0.7255 H   0  0  0  0  0  0
  1  2  2  0  0  0
  1  3  1  0  0  0
  1 13  1  0  0  0
  3 85  1  0  0  0
  3 86  1  0  0  0
  3 87  1  0  0  0
  4  5  1  0  0  0
  4  7  2  0  0  0
  4 11  1  0  0  0
  5  6  2  0  0  0
  5 25  1  0  0  0
  7  8  1  0  0  0
  7 88  1  0  0  0
  8  9  2  0  0  0
  8 89  1  0  0  0
  9 10  1  0  0  0
  9 12  1  0  0  0
 10 11  2  0  0  0
 10 90  1  0  0  0
 11 91  1  0  0  0
 12 13  1  0  0  0
 12 92  1  0  0  0
 12 93  1  0  0  0
 13 14  1  0  0  0
 14 15  1  0  0  0
 14 94  1  0  0  0
 14 95  1  0  0  0
 15 16  1  0  0  0
 15 17  1  0  0  0
 15 96  1  0  0  0
 16 97  1  0  0  0
 16 98  1  0  0  0
 16 99  1  0  0  0
 17100  1  0  0  0
 17101  1  0  0  0
 17102  1  0  0  0
 18 19  2  0  0  0
 18 23  1  0  0  0
 18 24  1  0  0  0
 19 20  1  0  0  0
 19103  1  0  0  0
 20 21  2  0  0  0
 20104  1  0  0  0
 21 22  1  0  0  0
 21 30  1  0  0  0
 22 23  2  0  0  0
 22105  1  0  0  0
 23106  1  0  0  0
 24 25  1  0  0  0
 24107  1  0  0  0
 24108  1  0  0  0
 25 26  1  0  0  0
 26 27  1  0  0  0
 26109  1  0  0  0
 26110  1  0  0  0
 27 28  1  0  0  0
 27111  1  0  0  0
 27112  1  0  0  0
 28 29  2  0  0  0
 28 32  1  0  0  0
 30 31  1  0  0  0
 30113  1  0  0  0
 30114  1  0  0  0
 31115  1  0  0  0
 31116  1  0  0  0
 31117  1  0  0  0
 32 33  1  0  0  0
 32 39  1  0  0  0
 33 34  1  0  0  0
 33118  1  0  0  0
 33119  1  0  0  0
 34 35  1  0  0  0
 34120  1  0  0  0
 34121  1  0  0  0
 35 36  1  0  0  0
 35 38  1  0  0  0
 35122  1  0  0  0
 36 37  2  0  0  0
 36 40  1  0  0  0
 38 39  1  0  0  0
 38123  1  0  0  0
 38124  1  0  0  0
 39125  1  0  0  0
 39126  1  0  0  0
 40 41  1  0  0  0
 40 46  1  0  0  0
 41 42  1  0  0  0
 41 44  1  0  0  0
 41127  1  0  0  0
 42 43  2  0  0  0
 42 47  1  0  0  0
 44 45  1  0  0  0
 44128  1  0  0  0
 44129  1  0  0  0
 45 46  1  0  0  0
 45130  1  0  0  0
 45131  1  0  0  0
 46132  1  0  0  0
 46133  1  0  0  0
 47 48  1  0  0  0
 47134  1  0  0  0
 48 49  1  0  0  0
 48 51  1  0  0  0
 48135  1  0  0  0
 49 50  2  0  0  0
 49 55  1  0  0  0
 51 52  1  0  0  0
 51136  1  0  0  0
 51137  1  0  0  0
 52 53  1  0  0  0
 52 54  1  0  0  0
 52138  1  0  0  0
 53139  1  0  0  0
 53140  1  0  0  0
 53141  1  0  0  0
 54142  1  0  0  0
 54143  1  0  0  0
 54144  1  0  0  0
 55 56  1  0  0  0
 55 61  1  0  0  0
 56 57  1  0  0  0
 56 59  1  0  0  0
 56145  1  0  0  0
 57 58  2  0  0  0
 57 62  1  0  0  0
 59 60  1  0  0  0
 59146  1  0  0  0
 59147  1  0  0  0
 60 61  1  0  0  0
 60148  1  0  0  0
 60149  1  0  0  0
 61150  1  0  0  0
 61151  1  0  0  0
 62 63  1  0  0  0
 62 68  1  0  0  0
 63 64  1  0  0  0
 63 66  1  0  0  0
 63152  1  0  0  0
 64 65  2  0  0  0
 64 69  1  0  0  0
 66 67  1  0  0  0
 66153  1  0  0  0
 66154  1  0  0  0
 67 68  1  0  0  0
 67155  1  0  0  0
 67156  1  0  0  0
 68157  1  0  0  0
 68158  1  0  0  0
 69 70  1  0  0  0
 69159  1  0  0  0
 70 71  1  0  0  0
 70 73  1  0  0  0
 70160  1  0  0  0
 71 72  2  0  0  0
 71 77  1  0  0  0
 73 74  1  0  0  0
 73161  1  0  0  0
 73162  1  0  0  0
 74 75  1  0  0  0
 74 76  1  0  0  0
 74163  1  0  0  0
 75164  1  0  0  0
 75165  1  0  0  0
 75166  1  0  0  0
 76167  1  0  0  0
 76168  1  0  0  0
 76169  1  0  0  0
 77 78  1  0  0  0
 77 83  1  0  0  0
 78 79  1  0  0  0
 78 81  1  0  0  0
 78170  1  0  0  0
 79 80  2  0  0  0
 79 84  1  0  0  0
 81 82  1  0  0  0
 81171  1  0  0  0
 81172  1  0  0  0
 82 83  1  0  0  0
 82173  1  0  0  0
 82174  1  0  0  0
 83175  1  0  0  0
 83176  1  0  0  0
 84177  1  0  0  0
 84178  1  0  0  0
M  CHG  1  31   1
M  END
> <s_m_source_file>
../1nlo_ligand.sdf

> <i_m_source_file_index>
1

> <s_epik_input>
W0NIM11bQ0hdKFtDSDNdKVtDSDJdTihDKD1PKVtDSDNdKVtDSDJdYyhbY0hdW2NIXTEpW2NIXVtjSF1jMUMoPU8pTihbQ0gyXWMyW2NIXVtjSF1jKFtjSF1bY0hdMilbQ0gyXVtOSDMrXSlbQ0gyXVtDSDJdQyg9TylOM1tDSDJdW0NIMl1bQ0hdKFtDSDJdW0NIMl0zKUMoPU8pTjRbQ0BASF0oW0NIMl1bQ0gyXVtDSDJdNClDKD1PKVtOSF1bQ0BASF0oW0NIMl1bQ0hdKFtDSDNdKVtDSDNdKUMoPU8pTjVbQ0BASF0oW0NIMl1bQ0gyXVtDSDJdNSlDKD1PKU42W0NAQEhdKFtDSDJdW0NIMl1bQ0gyXTYpQyg9TylbTkhdW0NAQEhdKFtDSDJdW0NIXShbQ0gzXSlbQ0gzXSlDKD1PKU43W0NASF0oQyg9TylbTkgyXSlbQ0gyXVtDSDJdW0NIMl03

> <s_epik_cmdline>
J2VwaWtfYXBwJywgJy1pbWFlJywgJ2xpZ2FuZF9wcm8ubWFlJywgJy1vbWFlJywgJ2xpZ2FuZF9wcmVwLm1hZScsICctbXMnLCAnMScsICctcGgnLCAnNycsICctcGh0JywgJzAuNScsICctbnQn

> <s_epik_pKa_notes>
Molecule size exceeds maximum supported for generating protonation states

$$$$
