1nlp_ligand
                    3D
 Schrodinger Suite 2020-3.
156163  0  0  1  0            999 V2000
   57.9850    3.9240   11.5370 C   0  0  0  0  0  0
   58.6320    4.3260   12.4830 O   0  0  0  0  0  0
   57.7920    4.8070   10.2970 C   0  0  0  0  0  0
   59.6970   -2.5220   12.6760 C   0  0  0  0  0  0
   60.4630   -2.8260   13.5680 O   0  0  0  0  0  0
   59.5810   -1.1810   12.2750 C   0  0  0  0  0  0
   60.4160   -0.5190   11.4350 C   0  0  0  0  0  0
   61.6430   -1.0110   10.7260 C   0  0  0  0  0  0
   61.3480   -1.1520    9.2320 C   0  0  0  0  0  0
   62.7830   -0.0110   10.9290 C   0  0  0  0  0  0
   59.8640    1.1120   11.2510 S   0  0  0  0  0  0
   58.5490    0.7490   12.3310 C   0  0  0  0  0  0
   58.5210   -0.4850   12.7930 N   0  0  0  0  0  0
   57.5640    1.8310   12.6630 C   0  0  1  0  0  0
   57.4160    2.7410   11.4960 N   0  0  0  0  0  0
   56.6340    2.3220   10.2850 C   0  0  0  0  0  0
   55.9110    1.0030   10.5000 C   0  0  0  0  0  0
   55.7020    0.4840   11.7890 C   0  0  0  0  0  0
   56.2110    1.2190   12.9950 C   0  0  0  0  0  0
   55.0200   -0.7280   11.9540 C   0  0  0  0  0  0
   54.5460   -1.4240   10.8390 C   0  0  0  0  0  0
   54.7530   -0.9110    9.5550 C   0  0  0  0  0  0
   55.4330    0.3000    9.3860 C   0  0  0  0  0  0
   58.9490   -3.3990   12.0360 N   0  0  0  0  0  0
   58.0100   -2.9970   10.9400 C   0  0  0  0  0  0
   58.2970   -3.8680    9.7150 C   0  0  0  0  0  0
   58.1900   -5.3420   10.1170 C   0  0  0  0  0  0
   58.3730   -6.2240    8.8760 C   0  0  0  0  0  0
   58.9100   -5.7830    7.8790 O   0  0  0  0  0  0
   59.2930   -5.6480   11.1340 C   0  0  0  0  0  0
   59.0290   -4.8380   12.4050 C   0  0  0  0  0  0
   57.9170   -7.4480    8.9760 N   0  0  0  0  0  0
   58.0140   -8.4230    7.8770 C   0  0  2  0  0  0
   56.9310   -8.1550    6.8280 C   0  0  0  0  0  0
   55.8060   -7.8320    7.1530 O   0  0  0  0  0  0
   57.7800   -9.7680    8.5690 C   0  0  0  0  0  0
   57.0100   -9.4580    9.8750 C   0  0  0  0  0  0
   57.2610   -7.9720   10.1920 C   0  0  0  0  0  0
   57.2610   -8.2860    5.5730 N   0  0  0  0  0  0
   56.2490   -8.0390    4.5080 C   0  0  2  0  0  0
   55.2450   -9.1960    4.4790 C   0  0  0  0  0  0
   55.5260  -10.2690    4.9750 O   0  0  0  0  0  0
   56.9490   -7.9390    3.1510 C   0  0  0  0  0  0
   57.7480   -6.6370    3.0830 C   0  0  0  0  0  0
   59.0580   -6.8810    2.3330 C   0  0  0  0  0  0
   56.9290   -5.5750    2.3460 C   0  0  0  0  0  0
   54.1020   -8.9380    3.8970 N   0  0  0  0  0  0
   53.0270   -9.9390    3.7820 C   0  0  2  0  0  0
   53.3440  -10.9380    2.6630 C   0  0  0  0  0  0
   54.2340  -10.7130    1.8670 O   0  0  0  0  0  0
   51.7920   -9.1020    3.4390 C   0  0  0  0  0  0
   52.3170   -7.7810    2.8280 C   0  0  0  0  0  0
   53.7760   -7.6270    3.2980 C   0  0  0  0  0  0
   52.6020  -12.0150    2.6420 N   0  0  0  0  0  0
   52.7750  -13.0780    1.6370 C   0  0  2  0  0  0
   52.1400  -12.6700    0.3030 C   0  0  0  0  0  0
   50.9510  -12.8160    0.1010 O   0  0  0  0  0  0
   52.0360  -14.2720    2.2500 C   0  0  0  0  0  0
   51.0230  -13.6860    3.2630 C   0  0  0  0  0  0
   51.5240  -12.2740    3.6180 C   0  0  0  0  0  0
   52.9270  -12.1650   -0.6110 N   0  0  0  0  0  0
   52.3730  -11.7560   -1.9330 C   0  0  2  0  0  0
   51.3910  -12.8260   -2.4260 C   0  0  0  0  0  0
   51.5230  -13.9860   -2.0920 O   0  0  0  0  0  0
   53.5200  -11.5900   -2.9310 C   0  0  0  0  0  0
   53.9560  -10.1200   -2.9550 C   0  0  0  0  0  0
   55.1530   -9.9520   -3.8840 C   0  0  0  0  0  0
   52.8160   -9.2600   -3.4820 C   0  0  0  0  0  0
   50.4250  -12.3930   -3.1950 N   0  0  0  0  0  0
   49.3830  -13.2790   -3.7440 C   0  0  2  0  0  0
   49.9340  -14.0910   -4.9200 C   0  0  0  0  0  0
   49.7290  -15.2860   -5.0030 O   0  0  0  0  0  0
   48.2970  -12.3020   -4.2110 C   0  0  0  0  0  0
   49.0000  -10.9480   -4.4320 C   0  0  0  0  0  0
   50.2870  -10.9810   -3.5950 C   0  0  0  0  0  0
   50.6320  -13.4870   -5.8420 N   0  0  0  0  0  0
   58.3095    5.7662   10.4458 H   0  0  0  0  0  0
   56.7186    4.9899   10.1406 H   0  0  0  0  0  0
   58.2095    4.2979    9.4158 H   0  0  0  0  0  0
   61.9195   -1.9888   11.1472 H   0  0  0  0  0  0
   60.5284   -1.8710    9.0864 H   0  0  0  0  0  0
   62.2484   -1.5123    8.7129 H   0  0  0  0  0  0
   61.0551   -0.1741    8.8222 H   0  0  0  0  0  0
   62.9949    0.0902   12.0036 H   0  0  0  0  0  0
   62.4902    0.9670   10.5193 H   0  0  0  0  0  0
   63.6835   -0.3712   10.4100 H   0  0  0  0  0  0
   57.9430    2.4069   13.5202 H   0  0  0  0  0  0
   55.8826    3.0902   10.0499 H   0  0  0  0  0  0
   57.3167    2.2032    9.4307 H   0  0  0  0  0  0
   56.3214    0.5205   13.8375 H   0  0  0  0  0  0
   55.5053    2.0167   13.2701 H   0  0  0  0  0  0
   54.8586   -1.1293   12.9545 H   0  0  0  0  0  0
   54.0149   -2.3668   10.9702 H   0  0  0  0  0  0
   54.3844   -1.4548    8.6852 H   0  0  0  0  0  0
   55.5916    0.6982    8.3838 H   0  0  0  0  0  0
   56.9723   -3.1461   11.2732 H   0  0  0  0  0  0
   58.1671   -1.9366   10.6931 H   0  0  0  0  0  0
   57.5640   -3.6440    8.9260 H   0  0  0  0  0  0
   59.3109   -3.6567    9.3443 H   0  0  0  0  0  0
   57.2038   -5.5445   10.5602 H   0  0  0  0  0  0
   59.2875   -6.7227   11.3686 H   0  0  0  0  0  0
   60.2695   -5.3701   10.7106 H   0  0  0  0  0  0
   59.8484   -4.9872   13.1236 H   0  0  0  0  0  0
   58.0790   -5.1528   12.8616 H   0  0  0  0  0  0
   58.9861   -8.3529    7.3669 H   0  0  0  0  0  0
   57.1906  -10.4220    7.9095 H   0  0  0  0  0  0
   58.7485  -10.2424    8.7854 H   0  0  0  0  0  0
   55.9377   -9.6508    9.7230 H   0  0  0  0  0  0
   57.3870  -10.1006   10.6843 H   0  0  0  0  0  0
   57.9304   -7.8413   11.0550 H   0  0  0  0  0  0
   56.3240   -7.4235   10.3685 H   0  0  0  0  0  0
   58.2858   -8.5787    5.3007 H   0  0  0  0  0  0
   55.7360   -7.0942    4.7406 H   0  0  0  0  0  0
   57.6301   -8.7937    3.0259 H   0  0  0  0  0  0
   56.1966   -7.9493    2.3486 H   0  0  0  0  0  0
   57.9694   -6.2892    4.1028 H   0  0  0  0  0  0
   59.6470   -7.6444    2.8625 H   0  0  0  0  0  0
   59.6321   -5.9440    2.2835 H   0  0  0  0  0  0
   58.8373   -7.2301    1.3135 H   0  0  0  0  0  0
   55.9865   -5.3992    2.8853 H   0  0  0  0  0  0
   56.7085   -5.9243    1.3265 H   0  0  0  0  0  0
   57.5033   -4.6382    2.2965 H   0  0  0  0  0  0
   52.9187  -10.5177    4.7112 H   0  0  0  0  0  0
   51.1671   -9.6491    2.7178 H   0  0  0  0  0  0
   51.2131   -8.9104    4.3545 H   0  0  0  0  0  0
   52.2626   -7.8374    1.7308 H   0  0  0  0  0  0
   51.7003   -6.9422    3.1830 H   0  0  0  0  0  0
   53.8846   -6.8394    4.0582 H   0  0  0  0  0  0
   54.4609   -7.4257    2.4611 H   0  0  0  0  0  0
   53.8405  -13.2688    1.4414 H   0  0  0  0  0  0
   51.5199  -14.8310    1.4555 H   0  0  0  0  0  0
   52.7586  -14.9318    2.7525 H   0  0  0  0  0  0
   50.0254  -13.6440    2.8013 H   0  0  0  0  0  0
   50.9866  -14.3258    4.1570 H   0  0  0  0  0  0
   51.9334  -12.2259    4.6378 H   0  0  0  0  0  0
   50.7355  -11.5156    3.5033 H   0  0  0  0  0  0
   54.0001  -12.0423   -0.4026 H   0  0  0  0  0  0
   51.8480  -10.7973   -1.8096 H   0  0  0  0  0  0
   54.3667  -12.2220   -2.6249 H   0  0  0  0  0  0
   53.1808  -11.8916   -3.9330 H   0  0  0  0  0  0
   54.2257   -9.8055   -1.9360 H   0  0  0  0  0  0
   55.9891  -10.5668   -3.5195 H   0  0  0  0  0  0
   55.4564   -8.8949   -3.9035 H   0  0  0  0  0  0
   54.8771  -10.2731   -4.8993 H   0  0  0  0  0  0
   51.9411   -9.3676   -2.8240 H   0  0  0  0  0  0
   52.5519   -9.5846   -4.4993 H   0  0  0  0  0  0
   53.1313   -8.2064   -3.5035 H   0  0  0  0  0  0
   49.0343  -14.0018   -2.9917 H   0  0  0  0  0  0
   47.8486  -12.6714   -5.1451 H   0  0  0  0  0  0
   47.5190  -12.2215   -3.4376 H   0  0  0  0  0  0
   49.2299  -10.8243   -5.5006 H   0  0  0  0  0  0
   48.3384  -10.1333   -4.1026 H   0  0  0  0  0  0
   50.2103  -10.3512   -2.6964 H   0  0  0  0  0  0
   51.1673  -10.6781   -4.1809 H   0  0  0  0  0  0
   50.8194  -12.4055   -5.7699 H   0  0  0  0  0  0
   51.0331  -14.0593   -6.6915 H   0  0  0  0  0  0
  1  2  2  0  0  0
  1  3  1  0  0  0
  1 15  1  0  0  0
  3 77  1  0  0  0
  3 78  1  0  0  0
  3 79  1  0  0  0
  4  5  2  0  0  0
  4  6  1  0  0  0
  4 24  1  0  0  0
  6  7  2  0  0  0
  6 13  1  0  0  0
  7  8  1  0  0  0
  7 11  1  0  0  0
  8  9  1  0  0  0
  8 10  1  0  0  0
  8 80  1  0  0  0
  9 81  1  0  0  0
  9 82  1  0  0  0
  9 83  1  0  0  0
 10 84  1  0  0  0
 10 85  1  0  0  0
 10 86  1  0  0  0
 11 12  1  0  0  0
 12 13  2  0  0  0
 12 14  1  0  0  0
 14 15  1  0  0  0
 14 19  1  0  0  0
 14 87  1  0  0  0
 15 16  1  0  0  0
 16 17  1  0  0  0
 16 88  1  0  0  0
 16 89  1  0  0  0
 17 18  2  0  0  0
 17 23  1  0  0  0
 18 19  1  0  0  0
 18 20  1  0  0  0
 19 90  1  0  0  0
 19 91  1  0  0  0
 20 21  2  0  0  0
 20 92  1  0  0  0
 21 22  1  0  0  0
 21 93  1  0  0  0
 22 23  2  0  0  0
 22 94  1  0  0  0
 23 95  1  0  0  0
 24 25  1  0  0  0
 24 31  1  0  0  0
 25 26  1  0  0  0
 25 96  1  0  0  0
 25 97  1  0  0  0
 26 27  1  0  0  0
 26 98  1  0  0  0
 26 99  1  0  0  0
 27 28  1  0  0  0
 27 30  1  0  0  0
 27100  1  0  0  0
 28 29  2  0  0  0
 28 32  1  0  0  0
 30 31  1  0  0  0
 30101  1  0  0  0
 30102  1  0  0  0
 31103  1  0  0  0
 31104  1  0  0  0
 32 33  1  0  0  0
 32 38  1  0  0  0
 33 34  1  0  0  0
 33 36  1  0  0  0
 33105  1  0  0  0
 34 35  2  0  0  0
 34 39  1  0  0  0
 36 37  1  0  0  0
 36106  1  0  0  0
 36107  1  0  0  0
 37 38  1  0  0  0
 37108  1  0  0  0
 37109  1  0  0  0
 38110  1  0  0  0
 38111  1  0  0  0
 39 40  1  0  0  0
 39112  1  0  0  0
 40 41  1  0  0  0
 40 43  1  0  0  0
 40113  1  0  0  0
 41 42  2  0  0  0
 41 47  1  0  0  0
 43 44  1  0  0  0
 43114  1  0  0  0
 43115  1  0  0  0
 44 45  1  0  0  0
 44 46  1  0  0  0
 44116  1  0  0  0
 45117  1  0  0  0
 45118  1  0  0  0
 45119  1  0  0  0
 46120  1  0  0  0
 46121  1  0  0  0
 46122  1  0  0  0
 47 48  1  0  0  0
 47 53  1  0  0  0
 48 49  1  0  0  0
 48 51  1  0  0  0
 48123  1  0  0  0
 49 50  2  0  0  0
 49 54  1  0  0  0
 51 52  1  0  0  0
 51124  1  0  0  0
 51125  1  0  0  0
 52 53  1  0  0  0
 52126  1  0  0  0
 52127  1  0  0  0
 53128  1  0  0  0
 53129  1  0  0  0
 54 55  1  0  0  0
 54 60  1  0  0  0
 55 56  1  0  0  0
 55 58  1  0  0  0
 55130  1  0  0  0
 56 57  2  0  0  0
 56 61  1  0  0  0
 58 59  1  0  0  0
 58131  1  0  0  0
 58132  1  0  0  0
 59 60  1  0  0  0
 59133  1  0  0  0
 59134  1  0  0  0
 60135  1  0  0  0
 60136  1  0  0  0
 61 62  1  0  0  0
 61137  1  0  0  0
 62 63  1  0  0  0
 62 65  1  0  0  0
 62138  1  0  0  0
 63 64  2  0  0  0
 63 69  1  0  0  0
 65 66  1  0  0  0
 65139  1  0  0  0
 65140  1  0  0  0
 66 67  1  0  0  0
 66 68  1  0  0  0
 66141  1  0  0  0
 67142  1  0  0  0
 67143  1  0  0  0
 67144  1  0  0  0
 68145  1  0  0  0
 68146  1  0  0  0
 68147  1  0  0  0
 69 70  1  0  0  0
 69 75  1  0  0  0
 70 71  1  0  0  0
 70 73  1  0  0  0
 70148  1  0  0  0
 71 72  2  0  0  0
 71 76  1  0  0  0
 73 74  1  0  0  0
 73149  1  0  0  0
 73150  1  0  0  0
 74 75  1  0  0  0
 74151  1  0  0  0
 74152  1  0  0  0
 75153  1  0  0  0
 75154  1  0  0  0
 76155  1  0  0  0
 76156  1  0  0  0
M  END
> <s_m_source_file>
../1nlp_ligand.sdf

> <i_m_source_file_index>
1

> <s_epik_input>
W2NIXTFbY0hdW2NIXVtjSF1jKGMxMilbQ0gyXVtDQEhdKE4oW0NIMl0yKUMoPU8pW0NIM10pYyhuMylzYyhbQ0hdKFtDSDNdKVtDSDNdKWMzQyg9TylONFtDSDJdW0NIMl1bQ0hdKFtDSDJdW0NIMl00KUMoPU8pTjVbQ0BASF0oW0NIMl1bQ0gyXVtDSDJdNSlDKD1PKVtOSF1bQ0BASF0oW0NIMl1bQ0hdKFtDSDNdKVtDSDNdKUMoPU8pTjZbQ0BASF0oW0NIMl1bQ0gyXVtDSDJdNilDKD1PKU43W0NAQEhdKFtDSDJdW0NIMl1bQ0gyXTcpQyg9TylbTkhdW0NAQEhdKFtDSDJdW0NIXShbQ0gzXSlbQ0gzXSlDKD1PKU44W0NASF0oQyg9TylbTkgyXSlbQ0gyXVtDSDJdW0NIMl04

> <s_epik_cmdline>
J2VwaWtfYXBwJywgJy1pbWFlJywgJ2xpZ2FuZF9wcm8ubWFlJywgJy1vbWFlJywgJ2xpZ2FuZF9wcmVwLm1hZScsICctbXMnLCAnMScsICctcGgnLCAnNycsICctcGh0JywgJzAuNScsICctbnQn

> <s_epik_pKa_notes>
Molecule size exceeds maximum supported for generating protonation states

$$$$
