1nlt_ligand
                    3D
 Schrodinger Suite 2020-3.
119121  0  0  1  0            999 V2000
   10.1800   37.1920   76.4600 N   0  3  0  0  0  0
   10.2410   36.1990   75.4070 C   0  0  0  0  0  0
   11.5820   36.1310   74.6980 C   0  0  0  0  0  0
   12.1500   37.1550   74.3550 O   0  0  0  0  0  0
   12.0720   34.9180   74.4430 N   0  0  0  0  0  0
   13.3400   34.7290   73.7460 C   0  0  2  0  0  0
   13.3240   33.4810   72.8830 C   0  0  0  0  0  0
   12.5270   32.5660   73.1230 O   0  0  0  0  0  0
   14.4750   34.6230   74.7360 C   0  0  0  0  0  0
   14.3600   33.4780   75.6610 C   0  0  0  0  0  0
   13.4970   33.3570   76.7050 C   0  0  0  0  0  0
   15.1540   32.2830   75.6430 C   0  0  0  0  0  0
   13.7040   32.1560   77.3430 N   0  3  0  0  0  0
   14.7090   31.4740   76.7060 C   0  0  0  0  0  0
   16.1910   31.8130   74.8200 C   0  0  0  0  0  0
   15.2690   30.2170   76.9830 C   0  0  0  0  0  0
   16.7500   30.5620   75.0940 C   0  0  0  0  0  0
   16.2800   29.7780   76.1660 C   0  0  0  0  0  0
   14.2170   33.4250   71.8930 N   0  0  0  0  0  0
   14.2290   32.2810   70.9930 C   0  0  2  0  0  0
   15.5890   31.6930   70.6580 C   0  0  0  0  0  0
   16.6230   32.2780   70.9530 O   0  0  0  0  0  0
   13.5430   32.6630   69.6770 C   0  0  0  0  0  0
   12.2750   33.5050   69.7530 C   0  0  0  0  0  0
   12.5550   34.8840   69.2180 C   0  0  0  0  0  0
   11.1760   32.8480   68.9150 C   0  0  0  0  0  0
   15.5590   30.5320   70.0100 N   0  0  0  0  0  0
   16.7550   29.8380   69.5540 C   0  0  2  0  0  0
   16.3360   28.8950   68.4210 C   0  0  0  0  0  0
   15.1780   28.4710   68.3600 O   0  0  0  0  0  0
   17.4140   29.0680   70.7050 C   0  0  0  0  0  0
   16.6250   27.9170   71.2750 C   0  0  0  0  0  0
   16.6470   26.6590   70.6710 C   0  0  0  0  0  0
   15.8820   28.0740   72.4490 C   0  0  0  0  0  0
   15.9530   25.5790   71.2300 C   0  0  0  0  0  0
   15.1800   27.0040   73.0120 C   0  0  0  0  0  0
   15.2240   25.7610   72.4010 C   0  0  0  0  0  0
   14.5650   24.7010   72.9820 O   0  0  0  0  0  0
   17.2690   28.5810   67.5260 N   0  0  0  0  0  0
   16.9910   27.6930   66.3960 C   0  0  2  0  0  0
   17.0620   26.2110   66.7370 C   0  0  0  0  0  0
   17.9330   25.7650   67.4830 O   0  0  0  0  0  0
   17.9580   27.9730   65.2530 C   0  0  0  0  0  0
   17.7910   29.3370   64.6350 C   0  0  0  0  0  0
   18.6800   29.5420   63.4350 C   0  0  0  0  0  0
   18.7070   28.6480   62.5560 O   0  5  0  0  0  0
   19.3390   30.6010   63.3700 O   0  0  0  0  0  0
   16.1520   25.4400   66.1660 N   0  0  0  0  0  0
   16.1280   24.0100   66.4320 C   0  0  2  0  0  0
   17.0480   23.2350   65.5010 C   0  0  0  0  0  0
   16.9890   23.3870   64.2770 O   0  0  0  0  0  0
   14.7060   23.4490   66.2960 C   0  0  2  0  0  0
   13.8380   23.9450   67.4510 C   0  0  0  0  0  0
   14.7430   21.9280   66.2480 C   0  0  0  0  0  0
   14.3030   23.4680   68.8010 C   0  0  0  0  0  0
   17.9040   22.4090   66.0950 N   0  0  0  0  0  0
   18.8430   21.5940   65.3380 C   0  0  2  0  0  0
   20.0880   22.3600   64.9440 C   0  0  0  0  0  0
   20.1120   22.8950   63.8180 O   0  0  0  0  0  0
   18.1710   21.0080   64.0860 C   0  0  0  0  0  0
   19.1020   20.2590   63.3230 O   0  0  0  0  0  0
    9.1812   37.1771   76.9206 H   0  0  0  0  0  0
   10.3735   38.1884   76.0360 H   0  0  0  0  0  0
   10.9390   36.9644   77.2230 H   0  0  0  0  0  0
   10.0475   35.2026   75.8310 H   0  0  0  0  0  0
    9.4820   36.4265   74.6440 H   0  0  0  0  0  0
   11.4911   34.0447   74.7744 H   0  0  0  0  0  0
   13.4542   35.6222   73.1142 H   0  0  0  0  0  0
   15.4251   34.5080   74.1936 H   0  0  0  0  0  0
   14.5117   35.5345   75.3507 H   0  0  0  0  0  0
   12.7783   34.1614   76.9206 H   0  0  0  0  0  0
   16.5524   32.4123   73.9843 H   0  0  0  0  0  0
   14.9136   29.6117   77.8169 H   0  0  0  0  0  0
   17.5611   30.1875   74.4695 H   0  0  0  0  0  0
   16.7291   28.8020   76.3502 H   0  0  0  0  0  0
   14.9427   34.2402   71.7560 H   0  0  0  0  0  0
   13.6982   31.5289   71.5952 H   0  0  0  0  0  0
   14.2388   33.2472   69.0569 H   0  0  0  0  0  0
   13.2495   31.7501   69.1380 H   0  0  0  0  0  0
   11.9504   33.5917   70.8004 H   0  0  0  0  0  0
   13.3449   35.3573   69.8197 H   0  0  0  0  0  0
   11.6394   35.4912   69.2721 H   0  0  0  0  0  0
   12.8853   34.8111   68.1713 H   0  0  0  0  0  0
   10.9705   31.8402   69.3050 H   0  0  0  0  0  0
   11.5067   32.7757   67.8684 H   0  0  0  0  0  0
   10.2608   33.4558   68.9692 H   0  0  0  0  0  0
   14.5659   30.0974   69.8230 H   0  0  0  0  0  0
   17.4677   30.5977   69.2006 H   0  0  0  0  0  0
   18.3678   28.6409   70.3617 H   0  0  0  0  0  0
   17.6003   29.7531   71.5452 H   0  0  0  0  0  0
   17.2128   26.5151   69.7505 H   0  0  0  0  0  0
   15.8495   29.0493   72.9346 H   0  0  0  0  0  0
   15.9837   24.6007   70.7503 H   0  0  0  0  0  0
   14.6021   27.1465   73.9252 H   0  0  0  0  0  0
   14.5923   23.7093   72.5069 H   0  0  0  0  0  0
   18.2737   29.0102   67.6540 H   0  0  0  0  0  0
   15.9512   27.9411   66.1368 H   0  0  0  0  0  0
   18.9918   27.9067   65.6228 H   0  0  0  0  0  0
   17.8061   27.2321   64.4543 H   0  0  0  0  0  0
   16.7484   29.4667   64.3092 H   0  0  0  0  0  0
   18.0420   30.1091   65.3772 H   0  0  0  0  0  0
   15.4105   25.8856   65.4866 H   0  0  0  0  0  0
   16.4985   23.9371   67.4652 H   0  0  0  0  0  0
   14.2584   23.8004   65.3546 H   0  0  0  0  0  0
   13.8465   25.0448   67.4700 H   0  0  0  0  0  0
   12.8064   23.5886   67.3138 H   0  0  0  0  0  0
   15.3743   21.6029   65.4079 H   0  0  0  0  0  0
   13.7226   21.5406   66.1112 H   0  0  0  0  0  0
   15.1588   21.5414   67.1902 H   0  0  0  0  0  0
   13.6337   23.8625   69.5798 H   0  0  0  0  0  0
   15.3276   23.8246   68.9830 H   0  0  0  0  0  0
   14.2875   22.3684   68.8267 H   0  0  0  0  0  0
   17.8880   22.3527   67.1934 H   0  0  0  0  0  0
   19.1340   20.8029   66.0448 H   0  0  0  0  0  0
   20.9541   22.4530   65.6157 H   0  0  0  0  0  0
   17.3452   20.3472   64.3884 H   0  0  0  0  0  0
   17.7774   21.8257   63.4644 H   0  0  0  0  0  0
   18.7823   19.7700   62.3910 H   0  0  0  0  0  0
   13.0975   31.8877   78.2206 H   0  0  0  0  0  0
  1  2  1  0  0  0
  1 62  1  0  0  0
  1 63  1  0  0  0
  1 64  1  0  0  0
  2  3  1  0  0  0
  2 65  1  0  0  0
  2 66  1  0  0  0
  3  4  2  0  0  0
  3  5  1  0  0  0
  5  6  1  0  0  0
  5 67  1  0  0  0
  6  7  1  0  0  0
  6  9  1  0  0  0
  6 68  1  0  0  0
  7  8  2  0  0  0
  7 19  1  0  0  0
  9 10  1  0  0  0
  9 69  1  0  0  0
  9 70  1  0  0  0
 10 11  2  0  0  0
 10 12  1  0  0  0
 11 13  1  0  0  0
 11 71  1  0  0  0
 12 14  2  0  0  0
 12 15  1  0  0  0
 13 14  1  0  0  0
 13119  1  0  0  0
 14 16  1  0  0  0
 15 17  2  0  0  0
 15 72  1  0  0  0
 16 18  2  0  0  0
 16 73  1  0  0  0
 17 18  1  0  0  0
 17 74  1  0  0  0
 18 75  1  0  0  0
 19 20  1  0  0  0
 19 76  1  0  0  0
 20 21  1  0  0  0
 20 23  1  0  0  0
 20 77  1  0  0  0
 21 22  2  0  0  0
 21 27  1  0  0  0
 23 24  1  0  0  0
 23 78  1  0  0  0
 23 79  1  0  0  0
 24 25  1  0  0  0
 24 26  1  0  0  0
 24 80  1  0  0  0
 25 81  1  0  0  0
 25 82  1  0  0  0
 25 83  1  0  0  0
 26 84  1  0  0  0
 26 85  1  0  0  0
 26 86  1  0  0  0
 27 28  1  0  0  0
 27 87  1  0  0  0
 28 29  1  0  0  0
 28 31  1  0  0  0
 28 88  1  0  0  0
 29 30  2  0  0  0
 29 39  1  0  0  0
 31 32  1  0  0  0
 31 89  1  0  0  0
 31 90  1  0  0  0
 32 33  2  0  0  0
 32 34  1  0  0  0
 33 35  1  0  0  0
 33 91  1  0  0  0
 34 36  2  0  0  0
 34 92  1  0  0  0
 35 37  2  0  0  0
 35 93  1  0  0  0
 36 37  1  0  0  0
 36 94  1  0  0  0
 37 38  1  0  0  0
 38 95  1  0  0  0
 39 40  1  0  0  0
 39 96  1  0  0  0
 40 41  1  0  0  0
 40 43  1  0  0  0
 40 97  1  0  0  0
 41 42  2  0  0  0
 41 48  1  0  0  0
 43 44  1  0  0  0
 43 98  1  0  0  0
 43 99  1  0  0  0
 44 45  1  0  0  0
 44100  1  0  0  0
 44101  1  0  0  0
 45 46  1  0  0  0
 45 47  2  0  0  0
 48 49  1  0  0  0
 48102  1  0  0  0
 49 50  1  0  0  0
 49 52  1  0  0  0
 49103  1  0  0  0
 50 51  2  0  0  0
 50 56  1  0  0  0
 52 53  1  0  0  0
 52 54  1  0  0  0
 52104  1  0  0  0
 53 55  1  0  0  0
 53105  1  0  0  0
 53106  1  0  0  0
 54107  1  0  0  0
 54108  1  0  0  0
 54109  1  0  0  0
 55110  1  0  0  0
 55111  1  0  0  0
 55112  1  0  0  0
 56 57  1  0  0  0
 56113  1  0  0  0
 57 58  1  0  0  0
 57 60  1  0  0  0
 57114  1  0  0  0
 58 59  2  0  0  0
 58115  1  0  0  0
 60 61  1  0  0  0
 60116  1  0  0  0
 60117  1  0  0  0
 61118  1  0  0  0
M  CHG  3   1   1  13   1  46  -1
M  END
> <s_m_source_file>
../1nlt_ligand.sdf

> <i_m_source_file_index>
1

> <s_epik_input>
W2NIXTFbY0hdW2NIXVtjSF1jKGMxMilbbkhdW2NIXWMyW0NIMl1bQ0BIXShbTkhdQyg9TylbQ0gyXVtOSDMrXSlDKD1PKVtOSF1bQ0BASF0oW0NIMl1bQ0hdKFtDSDNdKVtDSDNdKUMoPU8pW05IXVtDQEBIXShbQ0gyXWMzW2NIXVtjSF1jKFtPSF0pW2NIXVtjSF0zKUMoPU8pW05IXVtDQEBIXShbQ0gyXVtDSDJdQyg9TylbT0hdKUMoPU8pW05IXVtDQEBIXShbQ0BASF0oW0NIM10pW0NIMl1bQ0gzXSlDKD1PKVtOSF1bQ0BIXShbQ0hdPU8pW0NIMl1bT0hd

> <s_epik_cmdline>
J2VwaWtfYXBwJywgJy1pbWFlJywgJ2xpZ2FuZF9wcm8ubWFlJywgJy1vbWFlJywgJ2xpZ2FuZF9wcmVwLm1hZScsICctbXMnLCAnMScsICctcGgnLCAnNycsICctcGh0JywgJzAuNScsICctbnQn

> <r_lp_tautomer_probability>
0.999900004997115

> <r_epik_Ionization_Penalty>
  0.1351

> <r_epik_Ionization_Penalty_Charging>
  0.1316

> <r_epik_Ionization_Penalty_Neutral>
  0.0035

> <r_epik_State_Penalty>
  0.1193

> <r_epik_Charging_Adjusted_Penalty>
0.250864885862

> <i_epik_Tot_Q>
1

> <i_epik_Tot_abs_Q>
3

$$$$
