1nm6_ligand
                    3D
 Schrodinger Suite 2020-3.
 71 74  0  0  1  0            999 V2000
   19.7500  -14.6900   25.8430 C   0  0  0  0  0  0
   19.8720  -16.0970   25.4690 C   0  0  0  0  0  0
   21.1040  -16.6450   24.8970 C   0  0  0  0  0  0
   22.2150  -15.7450   24.6160 C   0  0  0  0  0  0
   22.0730  -14.3280   24.9530 C   0  0  0  0  0  0
   20.8640  -13.7860   25.5750 C   0  0  0  0  0  0
   18.6660  -17.0280   25.5720 C   0  0  0  0  0  0
   18.1190  -17.3620   24.1480 C   0  0  2  0  0  0
   17.4830  -16.1590   23.5540 N   0  0  0  0  0  0
   18.1680  -15.4220   22.5500 C   0  0  0  0  0  0
   17.6550  -14.1290   22.0720 C   0  0  0  0  0  0
   18.4010  -13.4040   21.1440 N   0  0  0  0  0  0
   19.7030  -13.7840   20.6150 C   0  0  0  0  0  0
   20.1550  -15.0150   21.1180 C   0  0  0  0  0  0
   19.4310  -15.7840   22.0220 N   0  0  0  0  0  0
   16.5820  -13.7110   22.5080 O   0  0  0  0  0  0
   20.5490  -12.9380   19.4210 Cl  0  0  0  0  0  0
   17.8220  -12.1540   20.6190 C   0  0  0  0  0  0
   16.4000  -12.3880   20.1360 C   0  0  0  0  0  0
   15.5600  -11.3670   20.3840 N   0  0  0  0  0  0
   16.1010  -13.4250   19.5430 O   0  0  0  0  0  0
   14.1190  -11.5080   20.0730 C   0  0  0  0  0  0
   13.2220  -11.4900   21.3090 C   0  0  0  0  0  0
   12.3980  -12.6360   21.6430 C   0  0  0  0  0  0
   11.5260  -12.6240   22.7980 C   0  0  0  0  0  0
   11.4830  -11.4190   23.6050 C   0  0  0  0  0  0
   13.1860  -10.2860   22.1300 C   0  0  0  0  0  0
   12.4100  -13.8930   20.7730 C   0  0  0  0  0  0
   12.3020  -10.2670   23.2760 C   0  0  0  0  0  0
   13.6320  -14.7580   21.1300 C   0  0  0  0  0  0
   17.0410  -18.4520   24.2150 C   0  0  0  0  0  0
   16.6590  -19.0130   22.8870 N   0  3  0  0  0  0
   13.6570  -15.9310   20.2380 N   0  3  0  0  0  0
   14.9430  -16.6860   20.2790 C   0  0  0  0  0  0
   15.1150  -17.4590   21.6010 C   0  0  0  0  0  0
   16.4310  -18.2960   21.6030 C   0  0  0  0  0  0
   18.8398  -14.3206   26.3155 H   0  0  0  0  0  0
   21.1886  -17.7108   24.6846 H   0  0  0  0  0  0
   23.1333  -16.1196   24.1639 H   0  0  0  0  0  0
   22.8983  -13.6510   24.7326 H   0  0  0  0  0  0
   20.7970  -12.7290   25.8327 H   0  0  0  0  0  0
   18.9651  -17.9617   26.0708 H   0  0  0  0  0  0
   17.8733  -16.5379   26.1563 H   0  0  0  0  0  0
   18.9535  -17.6816   23.5066 H   0  0  0  0  0  0
   16.4854  -15.8411   23.8912 H   0  0  0  0  0  0
   21.1232  -15.3865   20.7823 H   0  0  0  0  0  0
   17.8089  -11.3938   21.4139 H   0  0  0  0  0  0
   18.4307  -11.7933   19.7768 H   0  0  0  0  0  0
   15.9402  -10.4297   20.8163 H   0  0  0  0  0  0
   13.8010  -10.6784   19.4244 H   0  0  0  0  0  0
   13.9472  -12.4639   19.5565 H   0  0  0  0  0  0
   10.9203  -13.4934   23.0537 H   0  0  0  0  0  0
   10.8246  -11.3783   24.4728 H   0  0  0  0  0  0
   13.8075   -9.4240   21.8876 H   0  0  0  0  0  0
   11.4902  -14.4699   20.9496 H   0  0  0  0  0  0
   12.4640  -13.6047   19.7128 H   0  0  0  0  0  0
   12.2507   -9.3751   23.9005 H   0  0  0  0  0  0
   14.5506  -14.1676   20.9969 H   0  0  0  0  0  0
   13.5556  -15.0863   22.1771 H   0  0  0  0  0  0
   17.4045  -19.2900   24.8279 H   0  0  0  0  0  0
   16.1275  -18.0371   24.6660 H   0  0  0  0  0  0
   17.4284  -19.7255   22.5549 H   0  0  0  0  0  0
   15.6922  -19.5307   22.9720 H   0  0  0  0  0  0
   12.8574  -16.6288   20.5274 H   0  0  0  0  0  0
   13.5009  -15.6050   19.1991 H   0  0  0  0  0  0
   14.9697  -17.4099   19.4512 H   0  0  0  0  0  0
   15.7838  -15.9838   20.1792 H   0  0  0  0  0  0
   15.1521  -16.7479   22.4394 H   0  0  0  0  0  0
   14.2653  -18.1439   21.7385 H   0  0  0  0  0  0
   17.2670  -17.6064   21.4147 H   0  0  0  0  0  0
   16.3654  -19.0255   20.7823 H   0  0  0  0  0  0
  1  2  2  0  0  0
  1  6  1  0  0  0
  1 37  1  0  0  0
  2  3  1  0  0  0
  2  7  1  0  0  0
  3  4  2  0  0  0
  3 38  1  0  0  0
  4  5  1  0  0  0
  4 39  1  0  0  0
  5  6  2  0  0  0
  5 40  1  0  0  0
  6 41  1  0  0  0
  7  8  1  0  0  0
  7 42  1  0  0  0
  7 43  1  0  0  0
  8  9  1  0  0  0
  8 31  1  0  0  0
  8 44  1  0  0  0
  9 10  1  0  0  0
  9 45  1  0  0  0
 10 11  1  0  0  0
 10 15  2  0  0  0
 11 12  1  0  0  0
 11 16  2  0  0  0
 12 13  1  0  0  0
 12 18  1  0  0  0
 13 14  2  0  0  0
 13 17  1  0  0  0
 14 15  1  0  0  0
 14 46  1  0  0  0
 18 19  1  0  0  0
 18 47  1  0  0  0
 18 48  1  0  0  0
 19 20  1  0  0  0
 19 21  2  0  0  0
 20 22  1  0  0  0
 20 49  1  0  0  0
 22 23  1  0  0  0
 22 50  1  0  0  0
 22 51  1  0  0  0
 23 24  2  0  0  0
 23 27  1  0  0  0
 24 25  1  0  0  0
 24 28  1  0  0  0
 25 26  2  0  0  0
 25 52  1  0  0  0
 26 29  1  0  0  0
 26 53  1  0  0  0
 27 29  2  0  0  0
 27 54  1  0  0  0
 28 30  1  0  0  0
 28 55  1  0  0  0
 28 56  1  0  0  0
 29 57  1  0  0  0
 30 33  1  0  0  0
 30 58  1  0  0  0
 30 59  1  0  0  0
 31 32  1  0  0  0
 31 60  1  0  0  0
 31 61  1  0  0  0
 32 36  1  0  0  0
 32 62  1  0  0  0
 32 63  1  0  0  0
 33 34  1  0  0  0
 33 64  1  0  0  0
 33 65  1  0  0  0
 34 35  1  0  0  0
 34 66  1  0  0  0
 34 67  1  0  0  0
 35 36  1  0  0  0
 35 68  1  0  0  0
 35 69  1  0  0  0
 36 70  1  0  0  0
 36 71  1  0  0  0
M  CHG  2  32   1  33   1
M  END
> <s_m_source_file>
../1nm6_ligand.sdf

> <i_m_source_file_index>
1

> <s_epik_input>
W2NIXTFbY0hdW2NIXVtjSF1bY0hdYzFbQ0gyXVtDQEhdKFtOSF0yKVtDSDJdW05IMitdW0NIMl1bQ0gyXVtDSDJdW05IMitdW0NIMl1bQ0gyXWMoW2NIXVtjSF1bY0hdW2NIXTMpYzNbQ0gyXVtOSF1DKD1PKVtDSDJdbihjKGMyNCk9TyljKENsKVtjSF1uNA==

> <s_epik_cmdline>
J2VwaWtfYXBwJywgJy1pbWFlJywgJ2xpZ2FuZF9wcm8ubWFlJywgJy1vbWFlJywgJ2xpZ2FuZF9wcmVwLm1hZScsICctbXMnLCAnMScsICctcGgnLCAnNycsICctcGh0JywgJzAuNScsICctbnQn

> <r_lp_tautomer_probability>
1

> <r_epik_Ionization_Penalty>
  0.0159

> <r_epik_Ionization_Penalty_Charging>
  0.0159

> <r_epik_Ionization_Penalty_Neutral>
  0.0000

> <r_epik_State_Penalty>
  0.0084

> <r_epik_Charging_Adjusted_Penalty>
0.0242876767759423

> <i_epik_Tot_Q>
2

> <i_epik_Tot_abs_Q>
2

$$$$
