1nmk_ligand
                    3D
 Schrodinger Suite 2020-3.
109111  0  0  1  0            999 V2000
   27.8380    5.6340   32.7020 C   0  0  0  0  0  0
   27.5010    6.4410   33.9600 C   0  0  0  0  0  0
   27.1550    7.5980   33.7390 O   0  0  0  0  0  0
   27.6110    5.8630   35.3420 C   0  0  0  0  0  0
   28.1550    6.8620   36.3530 C   0  0  0  0  0  0
   28.1170    6.2850   37.7750 C   0  0  1  0  0  0
   29.0640    5.0850   37.7090 C   0  0  0  0  0  0
   28.5830    3.9800   37.6250 O   0  0  0  0  0  0
   30.3780    5.2470   37.7380 N   0  0  0  0  0  0
   31.2170    4.0640   37.7240 C   0  0  1  0  0  0
   32.3310    4.1370   36.6350 C   0  0  0  0  0  0
   31.7200    3.9290   35.2230 C   0  0  0  0  0  0
   33.3100    2.9780   36.8280 C   0  0  0  0  0  0
   31.8460    4.1150   39.1090 C   0  0  0  0  0  0
   31.5600    3.1610   39.9820 N   0  0  0  0  0  0
   31.9630    3.2470   41.3930 C   0  0  1  0  0  0
   30.7430    2.6800   42.1440 C   0  0  0  0  0  0
   30.8610    2.5490   43.6250 C   0  0  0  0  0  0
   30.4170    3.5690   44.4520 C   0  0  0  0  0  0
   30.5330    3.4920   45.8270 C   0  0  0  0  0  0
   31.0570    2.3450   46.4130 C   0  0  0  0  0  0
   31.4660    1.3070   45.5810 C   0  0  0  0  0  0
   31.9700    0.1660   46.1170 O   0  0  0  0  0  0
   31.3840    1.4030   44.2120 C   0  0  0  0  0  0
   33.2660    2.4810   41.7130 C   0  0  0  0  0  0
   33.4490    1.3730   41.2290 O   0  0  0  0  0  0
   34.1880    3.0900   42.5230 N   0  0  0  0  0  0
   35.3090    2.3480   43.1220 C   0  0  0  0  0  0
   35.2830    2.2460   44.6610 C   0  0  0  0  0  0
   34.9370    3.5910   45.2810 C   0  0  0  0  0  0
   33.7100    4.2440   44.6230 C   0  0  2  0  0  0
   33.8650    4.3080   43.1460 N   0  0  1  0  0  0
   33.5610    5.6340   45.1930 C   0  0  0  0  0  0
   34.0120    6.6090   44.6210 O   0  0  0  0  0  0
   32.9140    5.6220   46.3470 O   0  0  0  0  0  0
   32.6740    6.8870   46.9970 C   0  0  1  0  0  0
   31.2590    7.4410   46.6930 C   0  0  0  0  0  0
   31.0630    7.8560   45.2470 C   0  0  0  0  0  0
   29.9400    7.6140   44.6150 C   0  0  0  0  0  0
   29.7820    7.9770   43.3570 C   0  0  0  0  0  0
   28.6440    7.7250   42.7490 C   0  0  0  0  0  0
   28.5040    8.1460   41.2680 C   0  0  2  0  0  0
   27.4510    9.0860   41.0550 O   0  0  0  0  0  0
   28.3590    6.9060   40.3600 C   0  0  2  0  0  0
   29.4970    5.9620   40.7650 C   0  0  0  0  0  0
   28.5660    7.3500   38.8600 C   0  0  1  0  0  0
   29.9420    7.6940   38.6310 O   0  0  0  0  0  0
   32.8100    6.6060   48.4680 C   0  0  0  0  0  0
   32.3610    5.2380   48.9290 C   0  0  0  0  0  0
   33.2320    7.4770   49.3040 C   0  0  0  0  0  0
   33.2950    7.0770   50.7500 C   0  0  0  0  0  0
   33.8500    8.1390   51.4440 O   0  0  0  0  0  0
   32.6290    5.0190   39.4130 O   0  0  0  0  0  0
   27.6835    6.2613   31.8117 H   0  0  0  0  0  0
   27.1840    4.7513   32.6465 H   0  0  0  0  0  0
   28.8884    5.3101   32.7446 H   0  0  0  0  0  0
   26.6164    5.5426   35.6857 H   0  0  0  0  0  0
   28.2893    4.9972   35.3244 H   0  0  0  0  0  0
   29.1970    7.1083   36.1009 H   0  0  0  0  0  0
   27.5456    7.7774   36.3283 H   0  0  0  0  0  0
   27.1018    5.9721   38.0603 H   0  0  0  0  0  0
   30.8367    6.2462   37.7720 H   0  0  0  0  0  0
   30.6028    3.1761   37.5134 H   0  0  0  0  0  0
   32.8354    5.1106   36.7229 H   0  0  0  0  0  0
   30.9994    4.7332   35.0132 H   0  0  0  0  0  0
   31.2061    2.9572   35.1854 H   0  0  0  0  0  0
   32.5216    3.9493   34.4700 H   0  0  0  0  0  0
   33.7854    3.0604   37.8165 H   0  0  0  0  0  0
   34.0821    3.0161   36.0454 H   0  0  0  0  0  0
   32.7666    2.0240   36.7608 H   0  0  0  0  0  0
   31.0025    2.2838   39.6217 H   0  0  0  0  0  0
   32.1986    4.2919   41.6434 H   0  0  0  0  0  0
   29.8725    3.3303   41.9730 H   0  0  0  0  0  0
   30.5227    1.6677   41.7742 H   0  0  0  0  0  0
   29.9646    4.4549   44.0062 H   0  0  0  0  0  0
   30.2147    4.3278   46.4502 H   0  0  0  0  0  0
   31.1452    2.2610   47.4962 H   0  0  0  0  0  0
   32.0484    0.0592   47.2090 H   0  0  0  0  0  0
   31.7294    0.5798   43.5866 H   0  0  0  0  0  0
   35.3114    1.3163   42.7403 H   0  0  0  0  0  0
   36.2570    2.8391   42.8572 H   0  0  0  0  0  0
   34.5271    1.5077   44.9668 H   0  0  0  0  0  0
   36.2720    1.9301   45.0243 H   0  0  0  0  0  0
   34.7164    3.4560   46.3502 H   0  0  0  0  0  0
   35.7887    4.2777   45.1662 H   0  0  0  0  0  0
   32.8005    3.6532   44.8067 H   0  0  0  0  0  0
   34.6395    4.9454   42.9608 H   0  0  0  0  0  0
   33.4226    7.6017   46.6245 H   0  0  0  0  0  0
   30.5074    6.6696   46.9165 H   0  0  0  0  0  0
   31.0707    8.3278   47.3161 H   0  0  0  0  0  0
   31.8862    8.3694   44.7286 H   0  0  0  0  0  0
   29.1159    7.1026   45.1341 H   0  0  0  0  0  0
   30.5932    8.4869   42.8166 H   0  0  0  0  0  0
   27.8274    7.2288   43.2939 H   0  0  0  0  0  0
   29.3791    8.7423   40.9702 H   0  0  0  0  0  0
   27.4232   10.0212   41.6335 H   0  0  0  0  0  0
   27.3800    6.4198   40.4829 H   0  0  0  0  0  0
   29.3588    5.6484   41.8103 H   0  0  0  0  0  0
   30.4600    6.4837   40.6629 H   0  0  0  0  0  0
   29.4887    5.0766   40.1124 H   0  0  0  0  0  0
   27.9930    8.2772   38.7120 H   0  0  0  0  0  0
   30.2670    8.0275   37.6344 H   0  0  0  0  0  0
   32.0379    4.6460   48.0600 H   0  0  0  0  0  0
   31.5219    5.3452   49.6321 H   0  0  0  0  0  0
   33.1965    4.7275   49.4303 H   0  0  0  0  0  0
   33.5321    8.4756   48.9535 H   0  0  0  0  0  0
   32.2799    6.8635   51.1159 H   0  0  0  0  0  0
   33.9193    6.1774   50.8547 H   0  0  0  0  0  0
   33.9943    8.0695   52.5323 H   0  0  0  0  0  0
  1  2  1  0  0  0
  1 54  1  0  0  0
  1 55  1  0  0  0
  1 56  1  0  0  0
  2  3  2  0  0  0
  2  4  1  0  0  0
  4  5  1  0  0  0
  4 57  1  0  0  0
  4 58  1  0  0  0
  5  6  1  0  0  0
  5 59  1  0  0  0
  5 60  1  0  0  0
  6  7  1  0  0  0
  6 46  1  0  0  0
  6 61  1  0  0  0
  7  8  2  0  0  0
  7  9  1  0  0  0
  9 10  1  0  0  0
  9 62  1  0  0  0
 10 11  1  0  0  0
 10 14  1  0  0  0
 10 63  1  0  0  0
 11 12  1  0  0  0
 11 13  1  0  0  0
 11 64  1  0  0  0
 12 65  1  0  0  0
 12 66  1  0  0  0
 12 67  1  0  0  0
 13 68  1  0  0  0
 13 69  1  0  0  0
 13 70  1  0  0  0
 14 15  1  0  0  0
 14 53  2  0  0  0
 15 16  1  0  0  0
 15 71  1  0  0  0
 16 17  1  0  0  0
 16 25  1  0  0  0
 16 72  1  0  0  0
 17 18  1  0  0  0
 17 73  1  0  0  0
 17 74  1  0  0  0
 18 19  2  0  0  0
 18 24  1  0  0  0
 19 20  1  0  0  0
 19 75  1  0  0  0
 20 21  2  0  0  0
 20 76  1  0  0  0
 21 22  1  0  0  0
 21 77  1  0  0  0
 22 23  1  0  0  0
 22 24  2  0  0  0
 23 78  1  0  0  0
 24 79  1  0  0  0
 25 26  2  0  0  0
 25 27  1  0  0  0
 27 28  1  0  0  0
 27 32  1  0  0  0
 28 29  1  0  0  0
 28 80  1  0  0  0
 28 81  1  0  0  0
 29 30  1  0  0  0
 29 82  1  0  0  0
 29 83  1  0  0  0
 30 31  1  0  0  0
 30 84  1  0  0  0
 30 85  1  0  0  0
 31 32  1  0  0  0
 31 33  1  0  0  0
 31 86  1  0  0  0
 32 87  1  0  0  0
 33 34  2  0  0  0
 33 35  1  0  0  0
 35 36  1  0  0  0
 36 37  1  0  0  0
 36 48  1  0  0  0
 36 88  1  0  0  0
 37 38  1  0  0  0
 37 89  1  0  0  0
 37 90  1  0  0  0
 38 39  2  0  0  0
 38 91  1  0  0  0
 39 40  1  0  0  0
 39 92  1  0  0  0
 40 41  2  0  0  0
 40 93  1  0  0  0
 41 42  1  0  0  0
 41 94  1  0  0  0
 42 43  1  0  0  0
 42 44  1  0  0  0
 42 95  1  0  0  0
 43 96  1  0  0  0
 44 45  1  0  0  0
 44 46  1  0  0  0
 44 97  1  0  0  0
 45 98  1  0  0  0
 45 99  1  0  0  0
 45100  1  0  0  0
 46 47  1  0  0  0
 46101  1  0  0  0
 47102  1  0  0  0
 48 49  1  0  0  0
 48 50  2  0  0  0
 49103  1  0  0  0
 49104  1  0  0  0
 49105  1  0  0  0
 50 51  1  0  0  0
 50106  1  0  0  0
 51 52  1  0  0  0
 51107  1  0  0  0
 51108  1  0  0  0
 52109  1  0  0  0
M  END
> <s_m_source_file>
../1nmk_ligand.sdf

> <i_m_source_file_index>
1

> <s_epik_input>
W09IXWMoW2NIXTEpW2NIXVtjSF1bY0hdYzFbQ0gyXVtDQEBIXShDKD1PKU4yMylbTkhdQyg9TylbQ0BIXShbQ0hdKFtDSDNdKVtDSDNdKVtOSF1DKD1PKVtDQEhdKFtDSDJdW0NIMl1DKD1PKVtDSDNdKVtDQEhdKFtPSF0pW0NAQEhdKFtDSDNdKVtDQEBIXShbT0hdKVxbQ0hdPVtDSF1cW0NIXT1bQ0hdXFtDSDJdW0NAQEhdKC9DKFtDSDNdKT1bQ0hdL1tDSDJdW09IXSlPQyg9TylbQ0BASF0oW05IMitdMylbQ0gyXVtDSDJdW0NIMl0y

> <s_epik_cmdline>
J2VwaWtfYXBwJywgJy1pbWFlJywgJ2xpZ2FuZF9wcm8ubWFlJywgJy1vbWFlJywgJ2xpZ2FuZF9wcmVwLm1hZScsICctbXMnLCAnMScsICctcGgnLCAnNycsICctcGh0JywgJzAuNScsICctbnQn

> <r_lp_tautomer_probability>
1

> <r_epik_Ionization_Penalty>
  0.0009

> <r_epik_Ionization_Penalty_Charging>
  0.0000

> <r_epik_Ionization_Penalty_Neutral>
  0.0009

> <r_epik_State_Penalty>
 -0.0000

> <r_epik_Charging_Adjusted_Penalty>
0

> <i_epik_Tot_Q>
0

> <i_epik_Tot_abs_Q>
0

> <s_epik_Chemistry_Notes>
This compound has an ester and may undergo hydrolysis at high or low pH.

$$$$
