1nms_ligand
                    3D
 Schrodinger Suite 2020-3.
 50 51  0  0  1  0            999 V2000
   15.8990    1.4240   -5.0040 C   0  0  0  0  0  0
   16.6210    0.2410   -4.4300 C   0  0  0  0  0  0
   15.9540   -0.6790   -3.9490 O   0  0  0  0  0  0
   18.1420    0.1000   -4.5250 C   0  0  2  0  0  0
   18.7740   -0.5190   -3.2880 C   0  0  0  0  0  0
   20.0070   -1.0820   -3.5270 C   0  0  0  0  0  0
   20.3350   -1.3870   -4.6740 O   0  5  0  0  0  0
   20.8120   -1.2960   -2.6270 O   0  0  0  0  0  0
   18.8690    1.3220   -4.8220 N   0  0  0  0  0  0
   19.3470    1.5690   -6.0440 C   0  0  0  0  0  0
   18.9460    0.9180   -6.9980 O   0  0  0  0  0  0
   20.4110    2.6070   -6.2630 C   0  0  0  0  0  0
   20.8290    3.4620   -5.2400 C   0  0  0  0  0  0
   21.8280    4.4210   -5.4230 C   0  0  0  0  0  0
   20.9990    2.6830   -7.5120 C   0  0  0  0  0  0
   22.0020    3.6300   -7.7050 C   0  0  0  0  0  0
   22.4410    4.4780   -6.6840 C   0  0  0  0  0  0
   23.5300    5.5040   -6.9490 C   0  0  0  0  0  0
   24.7410    4.7340   -7.1350 N   0  0  3  0  0  0
   26.0720    5.5480   -7.8290 S   0  0  0  0  0  0
   27.2470    4.6980   -7.6270 O   0  0  0  0  0  0
   25.6010    5.9320   -9.1810 O   0  0  0  0  0  0
   26.2950    6.9660   -6.8550 C   0  0  0  0  0  0
   26.7060    6.7690   -5.5440 C   0  0  0  0  0  0
   26.0520    8.2360   -7.3570 C   0  0  0  0  0  0
   26.2520    9.3520   -6.5400 C   0  0  0  0  0  0
   26.6830    9.2130   -5.2230 C   0  0  0  0  0  0
   26.8980   10.1860   -4.4680 O   0  0  0  0  0  0
   26.9010    7.8670   -4.6960 C   0  0  0  0  0  0
   27.3720    7.7080   -3.2900 C   0  0  0  0  0  0
   27.5830    6.5640   -2.8590 O   0  5  0  0  0  0
   27.5860    8.7250   -2.6130 O   0  0  0  0  0  0
   14.8193    1.3181   -4.8223 H   0  0  0  0  0  0
   16.0851    1.4771   -6.0868 H   0  0  0  0  0  0
   16.2632    2.3442   -4.5237 H   0  0  0  0  0  0
   18.2807   -0.5369   -5.4111 H   0  0  0  0  0  0
   18.9083    0.2554   -2.5184 H   0  0  0  0  0  0
   18.1186   -1.3124   -2.8994 H   0  0  0  0  0  0
   19.0362    2.0684   -4.0315 H   0  0  0  0  0  0
   20.3572    3.3774   -4.2611 H   0  0  0  0  0  0
   22.1194    5.0973   -4.6193 H   0  0  0  0  0  0
   20.6872    2.0221   -8.3208 H   0  0  0  0  0  0
   22.4621    3.7131   -8.6896 H   0  0  0  0  0  0
   23.2771    6.0828   -7.8495 H   0  0  0  0  0  0
   23.6115    6.1831   -6.0875 H   0  0  0  0  0  0
   24.8300    3.7326   -6.6886 H   0  0  0  0  0  0
   26.8773    5.7583   -5.1736 H   0  0  0  0  0  0
   25.7069    8.3629   -8.3831 H   0  0  0  0  0  0
   26.0674   10.3488   -6.9406 H   0  0  0  0  0  0
   26.7433   11.2115   -4.8348 H   0  0  0  0  0  0
  1  2  1  0  0  0
  1 33  1  0  0  0
  1 34  1  0  0  0
  1 35  1  0  0  0
  2  3  2  0  0  0
  2  4  1  0  0  0
  4  5  1  0  0  0
  4  9  1  0  0  0
  4 36  1  0  0  0
  5  6  1  0  0  0
  5 37  1  0  0  0
  5 38  1  0  0  0
  6  7  1  0  0  0
  6  8  2  0  0  0
  9 10  1  0  0  0
  9 39  1  0  0  0
 10 11  2  0  0  0
 10 12  1  0  0  0
 12 13  2  0  0  0
 12 15  1  0  0  0
 13 14  1  0  0  0
 13 40  1  0  0  0
 14 17  2  0  0  0
 14 41  1  0  0  0
 15 16  2  0  0  0
 15 42  1  0  0  0
 16 17  1  0  0  0
 16 43  1  0  0  0
 17 18  1  0  0  0
 18 19  1  0  0  0
 18 44  1  0  0  0
 18 45  1  0  0  0
 19 20  1  0  0  0
 19 46  1  0  0  0
 20 21  2  0  0  0
 20 22  2  0  0  0
 20 23  1  0  0  0
 23 24  2  0  0  0
 23 25  1  0  0  0
 24 29  1  0  0  0
 24 47  1  0  0  0
 25 26  2  0  0  0
 25 48  1  0  0  0
 26 27  1  0  0  0
 26 49  1  0  0  0
 27 28  1  0  0  0
 27 29  2  0  0  0
 28 50  1  0  0  0
 29 30  1  0  0  0
 30 31  1  0  0  0
 30 32  2  0  0  0
M  CHG  2   7  -1  31  -1
M  END
> <s_m_source_file>
../1nms_ligand.sdf

> <i_m_source_file_index>
1

> <s_epik_input>
W09IXUMoPU8pW0NIMl1bQ0BASF0oQyg9TylbQ0gzXSlbTkhdQyg9TyljMVtjSF1bY0hdYyhbY0hdW2NIXTEpW0NIMl1bTkhdUyg9TykoPU8pYzJbY0hdYyhDKD1PKVtPSF0pYyhbT0hdKVtjSF1bY0hdMg==

> <s_epik_cmdline>
J2VwaWtfYXBwJywgJy1pbWFlJywgJ2xpZ2FuZF9wcm8ubWFlJywgJy1vbWFlJywgJ2xpZ2FuZF9wcmVwLm1hZScsICctbXMnLCAnMScsICctcGgnLCAnNycsICctcGh0JywgJzAuNScsICctbnQn

> <r_lp_tautomer_probability>
1

> <r_epik_Ionization_Penalty>
  0.0011

> <r_epik_Ionization_Penalty_Charging>
  0.0010

> <r_epik_Ionization_Penalty_Neutral>
  0.0001

> <r_epik_State_Penalty>
 -0.0000

> <r_epik_Charging_Adjusted_Penalty>
0.00103868327999896

> <i_epik_Tot_Q>
-2

> <i_epik_Tot_abs_Q>
2

$$$$
