1nnk_ligand
                    3D
 Schrodinger Suite 2020-3.
 31 31  0  0  1  0            999 V2000
   46.7080   12.6030   23.0670 C   0  0  0  0  0  0
   46.9580   13.8820   22.2800 C   0  0  0  0  0  0
   48.2890   14.5440   22.5000 C   0  0  0  0  0  0
   48.9800   14.9760   23.5960 C   0  0  0  0  0  0
   50.1910   15.6020   23.0880 C   0  0  0  0  0  0
   51.0840   16.1690   23.8090 O   0  5  0  0  0  0
   50.2520   15.5050   21.7490 N   0  0  0  0  0  0
   49.0160   14.8080   21.3580 O   0  0  0  0  0  0
   48.7770   14.9510   25.0720 C   0  0  0  0  0  0
   49.6540   13.8480   25.7050 C   0  0  1  0  0  0
   49.7480   14.1220   27.2180 C   0  0  0  0  0  0
   50.2260   15.2470   27.5410 O   0  5  0  0  0  0
   49.3940   13.2180   28.0080 O   0  0  0  0  0  0
   49.1210   12.4700   25.4670 N   0  3  0  0  0  0
   46.7330   13.5740   20.7940 C   0  0  0  0  0  0
   45.9030   14.9200   22.6680 C   0  0  0  0  0  0
   47.4628   11.8509   22.7937 H   0  0  0  0  0  0
   45.7048   12.2180   22.8318 H   0  0  0  0  0  0
   46.7758   12.8161   24.1440 H   0  0  0  0  0  0
   49.0574   15.9260   25.4972 H   0  0  0  0  0  0
   47.7193   14.7450   25.2932 H   0  0  0  0  0  0
   50.6426   13.8488   25.2227 H   0  0  0  0  0  0
   49.0574   12.2833   24.3848 H   0  0  0  0  0  0
   48.1197   12.3820   25.9138 H   0  0  0  0  0  0
   49.7942   11.7319   25.9275 H   0  0  0  0  0  0
   47.4688   12.8282   20.4586 H   0  0  0  0  0  0
   46.8517   14.4963   20.2063 H   0  0  0  0  0  0
   45.7172   13.1767   20.6516 H   0  0  0  0  0  0
   46.0178   15.1799   23.7307 H   0  0  0  0  0  0
   44.8991   14.5034   22.4988 H   0  0  0  0  0  0
   46.0337   15.8229   22.0535 H   0  0  0  0  0  0
  1  2  1  0  0  0
  1 17  1  0  0  0
  1 18  1  0  0  0
  1 19  1  0  0  0
  2  3  1  0  0  0
  2 15  1  0  0  0
  2 16  1  0  0  0
  3  4  2  0  0  0
  3  8  1  0  0  0
  4  5  1  0  0  0
  4  9  1  0  0  0
  5  6  1  0  0  0
  5  7  2  0  0  0
  7  8  1  0  0  0
  9 10  1  0  0  0
  9 20  1  0  0  0
  9 21  1  0  0  0
 10 11  1  0  0  0
 10 14  1  0  0  0
 10 22  1  0  0  0
 11 12  1  0  0  0
 11 13  2  0  0  0
 14 23  1  0  0  0
 14 24  1  0  0  0
 14 25  1  0  0  0
 15 26  1  0  0  0
 15 27  1  0  0  0
 15 28  1  0  0  0
 16 29  1  0  0  0
 16 30  1  0  0  0
 16 31  1  0  0  0
M  CHG  3   6  -1  12  -1  14   1
M  END
> <s_m_source_file>
../1nnk_ligand.sdf

> <i_m_source_file_index>
1

> <s_epik_input>
W0NIM11DKFtDSDNdKShbQ0gzXSljMWMoYyg9TylbbkhdbzEpW0NIMl1bQ0BIXShbTkgzK10pQyg9TylbT0hd

> <s_epik_cmdline>
J2VwaWtfYXBwJywgJy1pbWFlJywgJ2xpZ2FuZF9wcm8ubWFlJywgJy1vbWFlJywgJ2xpZ2FuZF9wcmVwLm1hZScsICctbXMnLCAnMScsICctcGgnLCAnNycsICctcGh0JywgJzAuNScsICctbnQn

> <r_lp_tautomer_probability>
1

> <r_epik_Ionization_Penalty>
  0.0116

> <r_epik_Ionization_Penalty_Charging>
  0.0116

> <r_epik_Ionization_Penalty_Neutral>
  0.0000

> <r_epik_State_Penalty>
 -0.0000

> <r_epik_Charging_Adjusted_Penalty>
0.0116238674613927

> <i_epik_Tot_Q>
-1

> <i_epik_Tot_abs_Q>
3

$$$$
