1nny_ligand
                    3D
 Schrodinger Suite 2020-3.
 87 91  0  0  1  0            999 V2000
   35.8290   28.7060   20.6170 C   0  0  0  0  0  0
   35.0780   28.1540   21.7250 C   0  0  0  0  0  0
   33.7560   28.6920   21.9980 C   0  0  0  0  0  0
   33.1890   29.7160   21.2280 C   0  0  0  0  0  0
   33.8940   30.2790   20.1290 C   0  0  0  0  0  0
   35.2420   29.7730   19.8100 C   0  0  0  0  0  0
   35.5230   27.1150   22.5750 N   0  0  0  0  0  0
   32.6040   30.8500   17.9680 C   0  0  2  0  0  0
   31.9840   31.9720   17.2520 N   0  0  0  0  0  0
   32.4630   32.3610   16.0380 C   0  0  0  0  0  0
   31.6270   29.6600   18.1900 C   0  0  0  0  0  0
   30.3010   29.9700   18.3220 N   0  0  0  0  0  0
   29.2820   28.9250   18.5490 C   0  0  0  0  0  0
   28.1650   29.2630   19.5950 C   0  0  0  0  0  0
   26.7080   30.6830   22.6340 C   0  0  0  0  0  0
   28.5960   29.4180   21.0680 C   0  0  0  0  0  0
   26.0100   29.4170   22.6970 O   0  0  0  0  0  0
   33.4110   31.8460   15.4450 O   0  0  0  0  0  0
   31.7040   33.5410   15.4330 C   0  0  0  0  0  0
   35.9230   27.4280   23.9130 C   0  0  0  0  0  0
   32.0770   28.5200   18.2470 O   0  0  0  0  0  0
   33.1950   31.3810   19.3220 C   0  0  0  0  0  0
   36.2070   26.5760   24.7490 O   0  0  0  0  0  0
   36.0340   28.8800   24.4110 C   0  0  0  0  0  0
   36.9470   29.6070   24.1070 O   0  0  0  0  0  0
   36.4960   24.7230   22.1330 C   0  0  0  0  0  0
   35.4460   25.7480   22.0880 C   0  0  0  0  0  0
   34.2040   25.3370   21.4860 C   0  0  0  0  0  0
   33.9860   24.0540   20.9710 C   0  0  0  0  0  0
   35.0010   23.0970   21.0220 C   0  0  0  0  0  0
   36.2310   23.4300   21.5940 C   0  0  0  0  0  0
   38.3950   23.9170   23.2220 O   0  0  0  0  0  0
   38.5090   26.0420   22.6250 O   0  5  0  0  0  0
   37.8690   24.8590   22.6960 C   0  0  0  0  0  0
   24.6760   29.3590   23.2360 C   0  0  0  0  0  0
   23.9370   30.5470   23.5910 C   0  0  0  0  0  0
   22.6210   30.4790   24.1220 C   0  0  0  0  0  0
   21.9760   29.1950   24.3210 C   0  0  0  0  0  0
   22.6860   28.0020   23.9780 C   0  0  0  0  0  0
   24.0170   28.0800   23.4460 C   0  0  0  0  0  0
   24.6810   26.8240   23.1260 C   0  0  0  0  0  0
   25.0080   26.0510   24.1660 O   0  5  0  0  0  0
   24.9170   26.5020   22.0000 O   0  0  0  0  0  0
   37.1450   28.2110   20.2980 C   0  0  0  0  0  0
   37.8780   28.7590   19.2030 C   0  0  0  0  0  0
   37.3130   29.7990   18.4120 C   0  0  0  0  0  0
   36.0110   30.3010   18.7100 C   0  0  0  0  0  0
   28.0870   30.6390   21.9180 C   0  0  0  0  0  0
   35.0250   29.2820   25.2020 O   0  5  0  0  0  0
   21.9420   31.6940   24.4620 C   0  0  0  0  0  0
   20.6210   31.6380   25.0000 C   0  0  0  0  0  0
   19.9740   30.3790   25.1970 C   0  0  0  0  0  0
   20.6380   29.1550   24.8620 C   0  0  0  0  0  0
   33.1848   28.2841   22.8320 H   0  0  0  0  0  0
   32.1939   30.0861   21.4748 H   0  0  0  0  0  0
   33.3932   30.4868   17.2933 H   0  0  0  0  0  0
   31.1287   32.5024   17.6959 H   0  0  0  0  0  0
   30.0005   31.0261   18.2555 H   0  0  0  0  0  0
   28.7590   28.7116   17.6051 H   0  0  0  0  0  0
   29.7708   28.0090   18.9125 H   0  0  0  0  0  0
   27.6896   30.2183   19.3279 H   0  0  0  0  0  0
   27.4086   28.4643   19.5947 H   0  0  0  0  0  0
   26.8446   31.0190   23.6725 H   0  0  0  0  0  0
   26.0432   31.3829   22.1066 H   0  0  0  0  0  0
   28.2628   28.5407   21.6418 H   0  0  0  0  0  0
   29.6917   29.4975   21.1230 H   0  0  0  0  0  0
   30.8997   33.8492   16.1172 H   0  0  0  0  0  0
   31.2697   33.2415   14.4678 H   0  0  0  0  0  0
   32.3962   34.3818   15.2785 H   0  0  0  0  0  0
   32.3665   31.7987   19.9129 H   0  0  0  0  0  0
   33.9164   32.1777   19.0878 H   0  0  0  0  0  0
   33.3923   26.0622   21.4285 H   0  0  0  0  0  0
   33.0220   23.8016   20.5293 H   0  0  0  0  0  0
   34.8350   22.0980   20.6187 H   0  0  0  0  0  0
   37.0160   22.6746   21.6295 H   0  0  0  0  0  0
   24.4012   31.5228   23.4478 H   0  0  0  0  0  0
   22.2147   27.0296   24.1211 H   0  0  0  0  0  0
   37.5830   27.4128   20.8972 H   0  0  0  0  0  0
   38.8735   28.3801   18.9716 H   0  0  0  0  0  0
   37.8768   30.2131   17.5761 H   0  0  0  0  0  0
   35.5904   31.0972   18.0958 H   0  0  0  0  0  0
   28.1488   31.4618   21.1905 H   0  0  0  0  0  0
   28.8901   30.7464   22.6620 H   0  0  0  0  0  0
   22.4316   32.6560   24.3106 H   0  0  0  0  0  0
   20.1029   32.5605   25.2620 H   0  0  0  0  0  0
   18.9643   30.3500   25.6066 H   0  0  0  0  0  0
   20.1364   28.1994   25.0145 H   0  0  0  0  0  0
  1  2  2  0  0  0
  1  6  1  0  0  0
  1 44  1  0  0  0
  2  3  1  0  0  0
  2  7  1  0  0  0
  3  4  2  0  0  0
  3 54  1  0  0  0
  4  5  1  0  0  0
  4 55  1  0  0  0
  5  6  2  0  0  0
  5 22  1  0  0  0
  6 47  1  0  0  0
  7 20  1  0  0  0
  7 27  1  0  0  0
  8  9  1  0  0  0
  8 11  1  0  0  0
  8 22  1  0  0  0
  8 56  1  0  0  0
  9 10  1  0  0  0
  9 57  1  0  0  0
 10 18  2  0  0  0
 10 19  1  0  0  0
 11 12  1  0  0  0
 11 21  2  0  0  0
 12 13  1  0  0  0
 12 58  1  0  0  0
 13 14  1  0  0  0
 13 59  1  0  0  0
 13 60  1  0  0  0
 14 16  1  0  0  0
 14 61  1  0  0  0
 14 62  1  0  0  0
 15 48  1  0  0  0
 15 17  1  0  0  0
 15 63  1  0  0  0
 15 64  1  0  0  0
 16 48  1  0  0  0
 16 65  1  0  0  0
 16 66  1  0  0  0
 17 35  1  0  0  0
 19 67  1  0  0  0
 19 68  1  0  0  0
 19 69  1  0  0  0
 20 23  2  0  0  0
 20 24  1  0  0  0
 22 70  1  0  0  0
 22 71  1  0  0  0
 24 25  2  0  0  0
 24 49  1  0  0  0
 26 34  1  0  0  0
 26 31  2  0  0  0
 26 27  1  0  0  0
 27 28  2  0  0  0
 28 29  1  0  0  0
 28 72  1  0  0  0
 29 30  2  0  0  0
 29 73  1  0  0  0
 30 31  1  0  0  0
 30 74  1  0  0  0
 31 75  1  0  0  0
 32 34  2  0  0  0
 33 34  1  0  0  0
 35 36  2  0  0  0
 35 40  1  0  0  0
 36 37  1  0  0  0
 36 76  1  0  0  0
 37 38  2  0  0  0
 37 50  1  0  0  0
 38 39  1  0  0  0
 38 53  1  0  0  0
 39 40  2  0  0  0
 39 77  1  0  0  0
 40 41  1  0  0  0
 41 42  1  0  0  0
 41 43  2  0  0  0
 44 45  2  0  0  0
 44 78  1  0  0  0
 45 46  1  0  0  0
 45 79  1  0  0  0
 46 47  2  0  0  0
 46 80  1  0  0  0
 47 81  1  0  0  0
 48 82  1  0  0  0
 48 83  1  0  0  0
 50 51  2  0  0  0
 50 84  1  0  0  0
 51 52  1  0  0  0
 51 85  1  0  0  0
 52 53  2  0  0  0
 52 86  1  0  0  0
 53 87  1  0  0  0
M  CHG  3  33  -1  42  -1  49  -1
M  END
> <s_m_source_file>
../1nny_ligand.sdf

> <i_m_source_file_index>
1

> <s_epik_input>
W2NIXTFbY0hdW2NIXVtjSF1jKGMxQyg9TylbT0hdKU4oQyg9TylDKD1PKVtPSF0pYzJbY0hdW2NIXWMoYyhjMjMpW2NIXVtjSF1bY0hdW2NIXTMpW0NIMl1bQ0BIXShbTkhdQyg9TylbQ0gzXSlDKD1PKVtOSF1bQ0gyXVtDSDJdW0NIMl1bQ0gyXVtDSDJdT2MoW2NIXTQpYyhDKD1PKVtPSF0pW2NIXWMoYzQ1KVtjSF1bY0hdW2NIXVtjSF01

> <s_epik_cmdline>
J2VwaWtfYXBwJywgJy1pbWFlJywgJ2xpZ2FuZF9wcm8ubWFlJywgJy1vbWFlJywgJ2xpZ2FuZF9wcmVwLm1hZScsICctbXMnLCAnMScsICctcGgnLCAnNycsICctcGh0JywgJzAuNScsICctbnQn

> <r_epik_Ionization_Penalty>
  0.8295

> <r_epik_Ionization_Penalty_Charging>
  0.0011

> <r_epik_Ionization_Penalty_Neutral>
  0.8284

> <r_epik_State_Penalty>
  0.0000

> <r_epik_Charging_Adjusted_Penalty>
0.00113553176026121

> <i_epik_Tot_Q>
-3

> <i_epik_Tot_abs_Q>
3

$$$$
