1no6_ligand
                    3D
 Schrodinger Suite 2020-3.
 36 38  0  0  1  0            999 V2000
   36.0610   29.8300   23.5530 O   0  5  0  0  0  0
   35.0690   29.0480   23.7960 C   0  0  0  0  0  0
   34.1270   29.4050   24.5360 O   0  0  0  0  0  0
   34.9430   27.6620   23.1430 C   0  0  0  0  0  0
   34.8680   26.7390   23.9790 O   0  0  0  0  0  0
   34.9010   27.4660   21.6720 N   0  0  0  0  0  0
   34.7480   26.1330   21.1450 C   0  0  0  0  0  0
   33.5110   25.8340   20.4360 C   0  0  0  0  0  0
   33.2550   24.5360   19.8840 C   0  0  0  0  0  0
   34.2080   23.5020   20.0240 C   0  0  0  0  0  0
   35.4290   23.7300   20.7110 C   0  0  0  0  0  0
   35.7520   25.0250   21.2870 C   0  0  0  0  0  0
   37.0730   25.1610   21.9860 C   0  0  0  0  0  0
   37.8340   24.1850   22.0880 O   0  5  0  0  0  0
   37.3770   26.2280   22.4400 O   0  0  0  0  0  0
   34.9980   28.5630   20.7850 C   0  0  0  0  0  0
   36.2490   28.7810   20.1090 C   0  0  0  0  0  0
   36.4270   29.8690   19.1930 C   0  0  0  0  0  0
   35.3500   30.7620   18.9380 C   0  0  0  0  0  0
   34.0830   30.5890   19.5900 C   0  0  0  0  0  0
   33.8850   29.4780   20.5300 C   0  0  0  0  0  0
   32.5940   29.3260   21.1720 C   0  0  0  0  0  0
   31.5530   30.2510   20.8830 C   0  0  0  0  0  0
   31.7660   31.3360   19.9570 C   0  0  0  0  0  0
   33.0210   31.4940   19.3240 C   0  0  0  0  0  0
   32.7612   26.6169   20.3224 H   0  0  0  0  0  0
   32.3216   24.3459   19.3542 H   0  0  0  0  0  0
   34.0033   22.5190   19.5999 H   0  0  0  0  0  0
   36.1432   22.9125   20.8092 H   0  0  0  0  0  0
   37.0812   28.1028   20.2978 H   0  0  0  0  0  0
   37.3852   30.0115   18.6933 H   0  0  0  0  0  0
   35.4882   31.5872   18.2395 H   0  0  0  0  0  0
   32.4223   28.5080   21.8717 H   0  0  0  0  0  0
   30.5829   30.1386   21.3670 H   0  0  0  0  0  0
   30.9579   32.0359   19.7444 H   0  0  0  0  0  0
   33.1745   32.3172   18.6262 H   0  0  0  0  0  0
  1  2  1  0  0  0
  2  3  2  0  0  0
  2  4  1  0  0  0
  4  5  2  0  0  0
  4  6  1  0  0  0
  6  7  1  0  0  0
  6 16  1  0  0  0
  7  8  2  0  0  0
  7 12  1  0  0  0
  8  9  1  0  0  0
  8 26  1  0  0  0
  9 10  2  0  0  0
  9 27  1  0  0  0
 10 11  1  0  0  0
 10 28  1  0  0  0
 11 12  2  0  0  0
 11 29  1  0  0  0
 12 13  1  0  0  0
 13 14  1  0  0  0
 13 15  2  0  0  0
 16 17  2  0  0  0
 16 21  1  0  0  0
 17 18  1  0  0  0
 17 30  1  0  0  0
 18 19  2  0  0  0
 18 31  1  0  0  0
 19 20  1  0  0  0
 19 32  1  0  0  0
 20 21  2  0  0  0
 20 25  1  0  0  0
 21 22  1  0  0  0
 22 23  2  0  0  0
 22 33  1  0  0  0
 23 24  1  0  0  0
 23 34  1  0  0  0
 24 25  2  0  0  0
 24 35  1  0  0  0
 25 36  1  0  0  0
M  CHG  2   1  -1  14  -1
M  END
> <s_m_source_file>
../1no6_ligand.sdf

> <i_m_source_file_index>
1

> <s_epik_input>
W2NIXTFbY0hdW2NIXVtjSF1jKGMxMiljKFtjSF1bY0hdW2NIXTIpTihDKD1PKUMoPU8pW09IXSljM1tjSF1bY0hdW2NIXVtjSF1jM0MoPU8pW09IXQ==

> <s_epik_cmdline>
J2VwaWtfYXBwJywgJy1pbWFlJywgJ2xpZ2FuZF9wcm8ubWFlJywgJy1vbWFlJywgJ2xpZ2FuZF9wcmVwLm1hZScsICctbXMnLCAnMScsICctcGgnLCAnNycsICctcGh0JywgJzAuNScsICctbnQn

> <r_lp_tautomer_probability>
1

> <r_epik_Ionization_Penalty>
  0.5079

> <r_epik_Ionization_Penalty_Charging>
  0.0004

> <r_epik_Ionization_Penalty_Neutral>
  0.5075

> <r_epik_State_Penalty>
 -0.0000

> <r_epik_Charging_Adjusted_Penalty>
0.000409375692091705

> <i_epik_Tot_Q>
-2

> <i_epik_Tot_abs_Q>
2

$$$$
