1no9_ligand
                    3D
 Schrodinger Suite 2020-3.
 26 27  0  0  1  0            999 V2000
   15.2080  -10.4800   19.5460 C   0  0  0  0  0  0
   16.2040  -10.6340   18.8130 O   0  0  0  0  0  0
   14.8240  -11.4450   20.4230 N   0  0  0  0  0  0
   13.6480  -11.2690   21.3530 C   0  0  0  0  0  0
   13.6720  -10.2510   22.3510 C   0  0  0  0  0  0
   12.5840  -10.0910   23.2530 C   0  0  0  0  0  0
   11.4610  -10.9450   23.1650 C   0  0  0  0  0  0
   11.4230  -11.9600   22.1700 C   0  0  0  0  0  0
   12.5050  -12.1260   21.2680 C   0  0  0  0  0  0
   15.6140  -12.7130   20.4950 C   0  0  0  0  0  0
   15.2590  -13.8130   19.6580 C   0  0  0  0  0  0
   16.0110  -15.0260   19.7170 C   0  0  0  0  0  0
   17.1140  -15.1400   20.6080 C   0  0  0  0  0  0
   17.4730  -14.0430   21.4470 C   0  0  0  0  0  0
   16.7190  -12.8260   21.3890 C   0  0  0  0  0  0
   14.6224   -9.5505   19.4901 H   0  0  0  0  0  0
   14.5340   -9.5878   22.4235 H   0  0  0  0  0  0
   12.6161   -9.3097   24.0123 H   0  0  0  0  0  0
   10.6275  -10.8259   23.8572 H   0  0  0  0  0  0
   10.5553  -12.6159   22.0998 H   0  0  0  0  0  0
   12.4659  -12.9074   20.5090 H   0  0  0  0  0  0
   14.4145  -13.7276   18.9741 H   0  0  0  0  0  0
   15.7391  -15.8661   19.0779 H   0  0  0  0  0  0
   17.6860  -16.0669   20.6499 H   0  0  0  0  0  0
   18.3181  -14.1306   22.1298 H   0  0  0  0  0  0
   16.9903  -11.9861   22.0286 H   0  0  0  0  0  0
  1  2  2  0  0  0
  1  3  1  0  0  0
  1 16  1  0  0  0
  3  4  1  0  0  0
  3 10  1  0  0  0
  4  5  2  0  0  0
  4  9  1  0  0  0
  5  6  1  0  0  0
  5 17  1  0  0  0
  6  7  2  0  0  0
  6 18  1  0  0  0
  7  8  1  0  0  0
  7 19  1  0  0  0
  8  9  2  0  0  0
  8 20  1  0  0  0
  9 21  1  0  0  0
 10 11  2  0  0  0
 10 15  1  0  0  0
 11 12  1  0  0  0
 11 22  1  0  0  0
 12 13  2  0  0  0
 12 23  1  0  0  0
 13 14  1  0  0  0
 13 24  1  0  0  0
 14 15  2  0  0  0
 14 25  1  0  0  0
 15 26  1  0  0  0
M  END
> <s_m_source_file>
../1no9_ligand.sdf

> <i_m_source_file_index>
1

> <s_epik_input>
W2NIXTFbY0hdW2NIXVtjSF1bY0hdYzFOKFtDSF09TyljMltjSF1bY0hdW2NIXVtjSF1bY0hdMg==

> <s_epik_cmdline>
J2VwaWtfYXBwJywgJy1pbWFlJywgJ2xpZ2FuZF9wcm8ubWFlJywgJy1vbWFlJywgJ2xpZ2FuZF9wcmVwLm1hZScsICctbXMnLCAnMScsICctcGgnLCAnNycsICctcGh0JywgJzAuNScsICctbnQn

> <r_lp_tautomer_probability>
1

> <r_epik_Ionization_Penalty>
  0.0037

> <r_epik_Ionization_Penalty_Charging>
  0.0000

> <r_epik_Ionization_Penalty_Neutral>
  0.0037

> <r_epik_State_Penalty>
 -0.0000

> <r_epik_Charging_Adjusted_Penalty>
0

> <i_epik_Tot_Q>
0

> <i_epik_Tot_abs_Q>
0

$$$$
