1nox_ligand
                    3D
 Schrodinger Suite 2020-3.
 50 52  0  0  1  0            999 V2000
   15.9670   32.4900   41.8920 N   0  0  0  0  0  0
   16.9610   33.3810   42.3110 C   0  0  0  0  0  0
   17.9440   33.5950   41.7040 O   0  0  0  0  0  0
   16.6700   34.1060   43.5420 N   0  0  0  0  0  0
   15.5680   33.9770   44.3350 C   0  0  0  0  0  0
   15.3460   34.5980   45.3800 O   0  0  0  0  0  0
   14.5540   32.9890   43.9520 C   0  0  0  0  0  0
   13.3770   32.7920   44.4830 N   0  0  0  0  0  0
   12.3470   32.1140   43.9010 C   0  0  0  0  0  0
   11.0040   32.2590   44.4270 C   0  0  0  0  0  0
    9.9130   31.6890   43.7530 C   0  0  0  0  0  0
    8.5120   31.8030   44.3130 C   0  0  0  0  0  0
   10.1070   30.9960   42.4970 C   0  0  0  0  0  0
    9.0060   30.3080   41.7300 C   0  0  0  0  0  0
   11.4060   30.8550   41.9690 C   0  0  0  0  0  0
   12.5840   31.4040   42.6030 C   0  0  0  0  0  0
   13.9070   31.4910   42.0960 N   0  0  0  0  0  0
   14.9240   32.3170   42.6950 C   0  0  0  0  0  0
   14.1790   30.7910   40.7400 C   0  0  0  0  0  0
   14.0410   29.3120   41.0750 C   0  0  2  0  0  0
   15.2640   28.7040   41.6530 O   0  0  0  0  0  0
   13.8690   28.3640   39.7970 C   0  0  2  0  0  0
   12.5520   28.8390   39.2860 O   0  0  0  0  0  0
   13.8690   26.8400   39.6440 C   0  0  2  0  0  0
   15.2400   26.5150   40.1490 O   0  0  0  0  0  0
   13.5970   26.1320   38.2950 C   0  0  0  0  0  0
   14.3950   26.9110   37.3700 O   0  0  0  0  0  0
   13.7540   27.6690   36.1160 P   0  0  0  0  0  0
   12.9050   26.7060   35.3400 O   0  0  0  0  0  0
   14.9960   28.0810   35.3310 O   0  5  0  0  0  0
   12.9100   28.8380   36.6790 O   0  5  0  0  0  0
   17.3826   34.8528   43.9220 H   0  0  0  0  0  0
   10.8407   32.8137   45.3510 H   0  0  0  0  0  0
    8.5412   32.3541   45.2645 H   0  0  0  0  0  0
    8.1027   30.7965   44.4846 H   0  0  0  0  0  0
    7.8736   32.3412   43.5969 H   0  0  0  0  0  0
    8.0433   30.4858   42.2316 H   0  0  0  0  0  0
    9.2057   29.2269   41.6923 H   0  0  0  0  0  0
    8.9659   30.7094   40.7066 H   0  0  0  0  0  0
   11.5289   30.3047   41.0362 H   0  0  0  0  0  0
   13.4373   31.1251   39.9996 H   0  0  0  0  0  0
   15.1891   31.0500   40.3897 H   0  0  0  0  0  0
   13.2123   29.3657   41.7964 H   0  0  0  0  0  0
   15.6963   29.1119   42.5786 H   0  0  0  0  0  0
   14.8355   28.4493   39.2787 H   0  0  0  0  0  0
   12.3142   29.9130   39.2930 H   0  0  0  0  0  0
   12.9980   26.4509   40.1916 H   0  0  0  0  0  0
   15.5908   26.9406   41.1007 H   0  0  0  0  0  0
   13.9197   25.0824   38.3602 H   0  0  0  0  0  0
   12.5209   26.1715   38.0706 H   0  0  0  0  0  0
  1  2  1  0  0  0
  1 18  2  0  0  0
  2  3  2  0  0  0
  2  4  1  0  0  0
  4  5  1  0  0  0
  4 32  1  0  0  0
  5  6  2  0  0  0
  5  7  1  0  0  0
  7  8  2  0  0  0
  7 18  1  0  0  0
  8  9  1  0  0  0
  9 10  2  0  0  0
  9 16  1  0  0  0
 10 11  1  0  0  0
 10 33  1  0  0  0
 11 12  1  0  0  0
 11 13  2  0  0  0
 12 34  1  0  0  0
 12 35  1  0  0  0
 12 36  1  0  0  0
 13 14  1  0  0  0
 13 15  1  0  0  0
 14 37  1  0  0  0
 14 38  1  0  0  0
 14 39  1  0  0  0
 15 16  2  0  0  0
 15 40  1  0  0  0
 16 17  1  0  0  0
 17 18  1  0  0  0
 17 19  1  0  0  0
 19 20  1  0  0  0
 19 41  1  0  0  0
 19 42  1  0  0  0
 20 21  1  0  0  0
 20 22  1  0  0  0
 20 43  1  0  0  0
 21 44  1  0  0  0
 22 23  1  0  0  0
 22 24  1  0  0  0
 22 45  1  0  0  0
 23 46  1  0  0  0
 24 25  1  0  0  0
 24 26  1  0  0  0
 24 47  1  0  0  0
 25 48  1  0  0  0
 26 27  1  0  0  0
 26 49  1  0  0  0
 26 50  1  0  0  0
 27 28  1  0  0  0
 28 29  2  0  0  0
 28 30  1  0  0  0
 28 31  1  0  0  0
M  CHG  2  30  -1  31  -1
M  END
> <s_m_source_file>
../1nox_ligand.sdf

> <i_m_source_file_index>
1

> <s_epik_input>
Tz1jMVtuSF1jKD1PKW5jKGMxMiluKGMzYyhuMilbY0hdYyhbQ0gzXSljKFtDSDNdKVtjSF0zKVtDSDJdW0NASF0oW09IXSlbQ0BIXShbT0hdKVtDQEhdKFtPSF0pW0NIMl1PUCg9TykoW09IXSlbT0hd

> <s_epik_cmdline>
J2VwaWtfYXBwJywgJy1pbWFlJywgJ2xpZ2FuZF9wcm8ubWFlJywgJy1vbWFlJywgJ2xpZ2FuZF9wcmVwLm1hZScsICctbXMnLCAnMScsICctcGgnLCAnNycsICctcGh0JywgJzAuNScsICctbnQn

> <r_epik_Ionization_Penalty>
  0.1164

> <r_epik_Ionization_Penalty_Charging>
  0.1164

> <r_epik_Ionization_Penalty_Neutral>
  0.0000

> <r_epik_State_Penalty>
  0.1054

> <r_epik_Charging_Adjusted_Penalty>
0.2218027979184

> <i_epik_Tot_Q>
-2

> <i_epik_Tot_abs_Q>
2

$$$$
