1npv_ligand
                    3D
 Schrodinger Suite 2020-3.
 81 86  0  0  1  0            999 V2000
   15.9090   20.9070    4.7110 O   0  0  0  0  0  0
   14.8520   21.5950    5.0890 C   0  0  0  0  0  0
   13.7730   21.1160    5.2840 O   0  0  0  0  0  0
   15.1310   22.9010    5.2760 N   0  0  0  0  0  0
   14.2970   23.7400    6.0900 C   0  0  2  0  0  0
   13.7980   24.8410    5.1410 C   0  0  1  0  0  0
   14.7890   25.5340    4.6210 O   0  0  0  0  0  0
   12.9360   24.2940    3.9960 C   0  0  0  0  0  0
   11.4780   24.8040    3.9980 C   0  0  1  0  0  0
   10.7410   24.3750    2.6810 C   0  0  0  0  0  0
    9.3350   24.9370    2.5090 C   0  0  0  0  0  0
    9.1760   26.1690    1.7420 C   0  0  0  0  0  0
    7.9320   26.9030    1.8440 C   0  0  0  0  0  0
    6.8660   26.3470    2.6870 C   0  0  0  0  0  0
    6.9570   25.0230    3.3110 C   0  0  0  0  0  0
    8.2160   24.3000    3.2220 C   0  0  0  0  0  0
   10.7280   24.3830    5.2970 C   0  0  0  0  0  0
   10.4930   23.2800    5.6900 O   0  0  0  0  0  0
   11.5240   26.2810    4.1000 N   0  0  0  0  0  0
   10.8990   26.6280    5.2480 C   0  0  0  0  0  0
   10.4310   25.6090    6.0020 C   0  0  0  0  0  0
   15.1830   24.2280    7.2390 C   0  0  0  0  0  0
   15.6950   23.1100    8.1230 C   0  0  0  0  0  0
   14.7630   22.3010    8.9180 C   0  0  0  0  0  0
   15.2840   21.1860    9.6830 C   0  0  0  0  0  0
   16.7190   20.9320    9.6390 C   0  0  0  0  0  0
   17.6600   21.7480    8.8870 C   0  0  0  0  0  0
   17.1320   22.8610    8.1290 C   0  0  0  0  0  0
   15.9810   19.4130    4.5540 C   0  0  2  0  0  0
   17.4180   18.9090    4.3920 C   0  0  0  0  0  0
   17.8460   19.3150    3.1010 O   0  0  0  0  0  0
   16.6730   19.5170    2.3240 C   0  0  0  0  0  0
   15.5590   18.9260    3.1670 C   0  0  0  0  0  0
    8.4530   24.8610    7.4740 C   0  0  0  0  0  0
    9.7950   25.6010    7.4060 C   0  0  2  0  0  0
    9.5830   26.9620    7.9530 C   0  0  0  0  0  0
    8.3890   27.6650    7.5280 C   0  0  0  0  0  0
    7.3770   26.8810    6.7750 C   0  0  0  0  0  0
    7.4450   25.6050    6.7910 N   0  0  0  0  0  0
   10.5440   27.5400    8.8800 C   0  0  0  0  0  0
   10.2320   28.8580    9.3500 C   0  0  0  0  0  0
    9.0300   29.5690    8.9500 C   0  0  0  0  0  0
    8.0980   28.9930    8.0100 C   0  0  0  0  0  0
    6.4930   27.4570    6.1600 O   0  0  0  0  0  0
   16.0225   23.3204    4.7869 H   0  0  0  0  0  0
   13.4355   23.2108    6.5232 H   0  0  0  0  0  0
   13.2858   25.6199    5.7250 H   0  0  0  0  0  0
   15.5285   26.0146    5.2784 H   0  0  0  0  0  0
   13.3779   24.5869    3.0322 H   0  0  0  0  0  0
   12.8930   23.1968    4.0613 H   0  0  0  0  0  0
   11.3210   24.7129    1.8096 H   0  0  0  0  0  0
   10.6447   23.2795    2.6549 H   0  0  0  0  0  0
    9.9812   26.5307    1.1025 H   0  0  0  0  0  0
    7.7907   27.8425    1.3097 H   0  0  0  0  0  0
    5.9694   26.9434    2.8561 H   0  0  0  0  0  0
    6.1011   24.5908    3.8294 H   0  0  0  0  0  0
    8.3277   23.3132    3.6712 H   0  0  0  0  0  0
   10.7964   27.6891    5.5194 H   0  0  0  0  0  0
   16.0593   24.7517    6.8293 H   0  0  0  0  0  0
   14.6097   24.9164    7.8772 H   0  0  0  0  0  0
   13.6985   22.5348    8.9326 H   0  0  0  0  0  0
   14.6214   20.5546   10.2750 H   0  0  0  0  0  0
   17.1087   20.0832   10.2010 H   0  0  0  0  0  0
   18.7275   21.5279    8.8946 H   0  0  0  0  0  0
   17.8035   23.5093    7.5661 H   0  0  0  0  0  0
   15.3899   19.0977    5.4265 H   0  0  0  0  0  0
   18.0524   19.3527    5.1734 H   0  0  0  0  0  0
   17.4348   17.8130    4.4845 H   0  0  0  0  0  0
   16.5302   20.5935    2.1487 H   0  0  0  0  0  0
   16.7786   18.9993    1.3592 H   0  0  0  0  0  0
   15.5291   17.8264    3.1579 H   0  0  0  0  0  0
   14.5611   19.3219    2.9273 H   0  0  0  0  0  0
    8.1645   24.7345    8.5279 H   0  0  0  0  0  0
    8.5623   23.8731    7.0027 H   0  0  0  0  0  0
   10.5352   25.0938    8.0422 H   0  0  0  0  0  0
    6.6580   25.0791    6.2306 H   0  0  0  0  0  0
   11.4407   27.0069    9.1958 H   0  0  0  0  0  0
   10.9248   29.3464   10.0353 H   0  0  0  0  0  0
    8.8281   30.5555    9.3673 H   0  0  0  0  0  0
    7.2136   29.5375    7.6791 H   0  0  0  0  0  0
   10.7600   22.4083    5.0745 H   0  0  0  0  0  0
  1  2  1  0  0  0
  1 29  1  0  0  0
  2  3  2  0  0  0
  2  4  1  0  0  0
  4  5  1  0  0  0
  4 45  1  0  0  0
  5  6  1  0  0  0
  5 22  1  0  0  0
  5 46  1  0  0  0
  6  7  1  0  0  0
  6  8  1  0  0  0
  6 47  1  0  0  0
  7 48  1  0  0  0
  8  9  1  0  0  0
  8 49  1  0  0  0
  8 50  1  0  0  0
  9 10  1  0  0  0
  9 17  1  0  0  0
  9 19  1  0  0  0
 10 11  1  0  0  0
 10 51  1  0  0  0
 10 52  1  0  0  0
 11 12  2  0  0  0
 11 16  1  0  0  0
 12 13  1  0  0  0
 12 53  1  0  0  0
 13 14  2  0  0  0
 13 54  1  0  0  0
 14 15  1  0  0  0
 14 55  1  0  0  0
 15 16  2  0  0  0
 15 56  1  0  0  0
 16 57  1  0  0  0
 17 18  1  0  0  0
 17 21  2  0  0  0
 18 81  1  0  0  0
 19 20  2  0  0  0
 20 21  1  0  0  0
 20 58  1  0  0  0
 21 35  1  0  0  0
 22 23  1  0  0  0
 22 59  1  0  0  0
 22 60  1  0  0  0
 23 24  2  0  0  0
 23 28  1  0  0  0
 24 25  1  0  0  0
 24 61  1  0  0  0
 25 26  2  0  0  0
 25 62  1  0  0  0
 26 27  1  0  0  0
 26 63  1  0  0  0
 27 28  2  0  0  0
 27 64  1  0  0  0
 28 65  1  0  0  0
 29 30  1  0  0  0
 29 33  1  0  0  0
 29 66  1  0  0  0
 30 31  1  0  0  0
 30 67  1  0  0  0
 30 68  1  0  0  0
 31 32  1  0  0  0
 32 33  1  0  0  0
 32 69  1  0  0  0
 32 70  1  0  0  0
 33 71  1  0  0  0
 33 72  1  0  0  0
 34 39  1  0  0  0
 34 35  1  0  0  0
 34 73  1  0  0  0
 34 74  1  0  0  0
 35 36  1  0  0  0
 35 75  1  0  0  0
 36 37  2  0  0  0
 36 40  1  0  0  0
 37 38  1  0  0  0
 37 43  1  0  0  0
 38 39  1  0  0  0
 38 44  2  0  0  0
 39 76  1  0  0  0
 40 41  2  0  0  0
 40 77  1  0  0  0
 41 42  1  0  0  0
 41 78  1  0  0  0
 42 43  2  0  0  0
 42 79  1  0  0  0
 43 80  1  0  0  0
M  END
> <s_m_source_file>
../1npv_ligand.sdf

> <i_m_source_file_index>
1

> <s_epik_input>
W0NIMl0xW0NIMl1PW0NIMl1bQ0BIXTFPQyg9TylbTkhdW0NAQEhdKFtDSDJdYzJbY0hdW2NIXVtjSF1bY0hdW2NIXTIpW0NAQEhdKFtPSF0pW0NIMl1bQ0BAXTMoW0NIMl1jNFtjSF1bY0hdW2NIXVtjSF1bY0hdNClDKD1PKUMoPVtDSF1bTkhdMylbQ0BASF01W0NIMl1bTkhdQyg9TyljKGM1NilbY0hdW2NIXVtjSF1bY0hdNg==

> <s_epik_cmdline>
J2VwaWtfYXBwJywgJy1pbWFlJywgJ2xpZ2FuZF9wcm8ubWFlJywgJy1vbWFlJywgJ2xpZ2FuZF9wcmVwLm1hZScsICctbXMnLCAnMScsICctcGgnLCAnNycsICctcGh0JywgJzAuNScsICctbnQn

> <r_lp_tautomer_probability>
1

> <r_epik_Ionization_Penalty>
  3.6896

> <r_epik_Ionization_Penalty_Charging>
  0.0000

> <r_epik_Ionization_Penalty_Neutral>
  3.6896

> <r_epik_State_Penalty>
 -0.0000

> <r_epik_Charging_Adjusted_Penalty>
0

> <i_epik_Tot_Q>
0

> <i_epik_Tot_abs_Q>
0

> <s_epik_Chemistry_Notes>
This compound has an ester and may undergo hydrolysis at high or low pH. This compound has an imine and may undergo hydrolysis.

$$$$
