1nq0_ligand
                    3D
 Schrodinger Suite 2020-3.
 29 30  0  0  1  0            999 V2000
   53.9720   16.3470  114.4140 C   0  0  0  0  0  0
   54.5320   12.1600  117.3080 C   0  0  0  0  0  0
   54.3770   16.4890  115.8110 C   0  0  0  0  0  0
   55.0680   11.5400  118.4120 C   0  0  0  0  0  0
   54.8850   15.3690  116.5070 C   0  0  0  0  0  0
   54.3140   10.6790  119.1910 C   0  0  0  0  0  0
   55.0050   14.1230  115.8820 C   0  0  0  0  0  0
   52.9540   10.4180  118.8470 C   0  0  0  0  0  0
   54.6250   13.9980  114.5120 C   0  0  0  0  0  0
   52.3800   11.0570  117.7190 C   0  0  0  0  0  0
   54.0980   15.1420  113.7770 C   0  0  0  0  0  0
   53.1710   11.9330  116.9460 C   0  0  0  0  0  0
   53.3320   17.5050  113.7010 C   0  0  0  0  0  0
   54.2890   18.4950  112.9510 C   0  0  0  0  0  0
   55.5530   15.5570  118.5290 I   0  0  0  0  0  0
   55.1600    9.8120  120.8890 I   0  0  0  0  0  0
   54.9110   12.1250  113.5780 I   0  0  0  0  0  0
   55.4420   18.0910  112.6690 O   0  0  0  0  0  0
   55.4110   12.9740  116.5570 O   0  0  0  0  0  0
   52.2230    9.4940  119.6040 O   0  0  0  0  0  0
   53.8180   19.6280  112.6840 O   0  5  0  0  0  0
   54.2878   17.4525  116.3128 H   0  0  0  0  0  0
   56.1075   11.7302  118.6793 H   0  0  0  0  0  0
   51.3393   10.8735  117.4520 H   0  0  0  0  0  0
   53.8075   15.0386  112.7315 H   0  0  0  0  0  0
   52.7444   12.4337  116.0768 H   0  0  0  0  0  0
   52.6389   17.1264  112.9354 H   0  0  0  0  0  0
   52.7779   18.1205  114.4250 H   0  0  0  0  0  0
   52.6858    9.0086  120.4759 H   0  0  0  0  0  0
  1  3  2  0  0  0
  1 11  1  0  0  0
  1 13  1  0  0  0
  2  4  2  0  0  0
  2 12  1  0  0  0
  2 19  1  0  0  0
  3  5  1  0  0  0
  3 22  1  0  0  0
  4  6  1  0  0  0
  4 23  1  0  0  0
  5  7  2  0  0  0
  5 15  1  0  0  0
  6  8  2  0  0  0
  6 16  1  0  0  0
  7  9  1  0  0  0
  7 19  1  0  0  0
  8 10  1  0  0  0
  8 20  1  0  0  0
  9 11  2  0  0  0
  9 17  1  0  0  0
 10 12  2  0  0  0
 10 24  1  0  0  0
 11 25  1  0  0  0
 12 26  1  0  0  0
 13 14  1  0  0  0
 13 27  1  0  0  0
 13 28  1  0  0  0
 14 18  2  0  0  0
 14 21  1  0  0  0
 20 29  1  0  0  0
M  CHG  1  21  -1
M  END
> <s_m_source_file>
../1nq0_ligand.sdf

> <i_m_source_file_index>
1

> <s_epik_input>
Tz1DKFtPSF0pW0NIMl1jMVtjSF1jKEkpYyhjKEkpW2NIXTEpT2MyW2NIXWMoSSljKFtPSF0pW2NIXVtjSF0y

> <s_epik_cmdline>
J2VwaWtfYXBwJywgJy1pbWFlJywgJ2xpZ2FuZF9wcm8ubWFlJywgJy1vbWFlJywgJ2xpZ2FuZF9wcmVwLm1hZScsICctbXMnLCAnMScsICctcGgnLCAnNycsICctcGh0JywgJzAuNScsICctbnQn

> <r_lp_tautomer_probability>
1

> <r_epik_Ionization_Penalty>
  0.1130

> <r_epik_Ionization_Penalty_Charging>
  0.0003

> <r_epik_Ionization_Penalty_Neutral>
  0.1127

> <r_epik_State_Penalty>
  0.1024

> <r_epik_Charging_Adjusted_Penalty>
0.102726817600857

> <i_epik_Tot_Q>
-1

> <i_epik_Tot_abs_Q>
1

$$$$
