1nq7_ligand
                    3D
 Schrodinger Suite 2020-3.
 56 56  0  0  1  0            999 V2000
   29.4730   25.8200   10.5960 C   0  0  0  0  0  0
   28.2120   25.0270   10.1460 C   0  0  0  0  0  0
   27.1010   25.8300    9.5470 C   0  0  0  0  0  0
   27.0650   27.1570    9.3530 C   0  0  0  0  0  0
   25.9720   27.9480    8.7790 C   0  0  0  0  0  0
   26.0390   29.1630    8.1030 C   0  0  0  0  0  0
   27.4130   29.8680    7.8650 C   0  0  0  0  0  0
   24.7640   29.8650    7.5910 C   0  0  0  0  0  0
   23.4430   29.2410    7.6550 C   0  0  0  0  0  0
   22.2030   29.8970    7.1850 C   0  0  0  0  0  0
   22.3610   31.2370    6.6270 C   0  0  0  0  0  0
   23.6410   31.9390    6.5230 C   0  0  0  0  0  0
   24.8180   31.2110    7.0160 C   0  0  0  0  0  0
   23.7890   33.4010    5.9150 C   0  0  0  0  0  0
   22.4540   34.1230    5.5530 C   0  0  0  0  0  0
   24.6250   33.3620    4.6300 C   0  0  0  0  0  0
   24.4790   34.3340    6.9430 C   0  0  0  0  0  0
   20.7870   29.1800    7.2770 C   0  0  0  0  0  0
   20.0370   29.0210    5.9380 C   0  0  0  0  0  0
   19.8360   29.9690    8.1910 C   0  0  0  0  0  0
   20.9070   27.7900    7.8860 C   0  0  0  0  0  0
   28.0320   23.6710   10.2480 C   0  0  0  0  0  0
   28.9430   22.6070   10.8000 C   0  0  0  0  0  0
   30.0230   22.8100   11.2630 O   0  0  0  0  0  0
   28.5350   21.4670   10.7540 O   0  5  0  0  0  0
   29.3265   26.8902   10.3883 H   0  0  0  0  0  0
   30.3516   25.4560   10.0432 H   0  0  0  0  0  0
   29.6322   25.6743   11.6746 H   0  0  0  0  0  0
   26.2436   25.2075    9.2514 H   0  0  0  0  0  0
   27.9269   27.7781    9.6381 H   0  0  0  0  0  0
   24.9990   27.4604    8.9388 H   0  0  0  0  0  0
   28.2201   29.2489    8.2835 H   0  0  0  0  0  0
   27.4112   30.8509    8.3588 H   0  0  0  0  0  0
   27.5749   30.0005    6.7851 H   0  0  0  0  0  0
   23.3678   28.2368    8.0721 H   0  0  0  0  0  0
   21.4685   31.7472    6.2647 H   0  0  0  0  0  0
   25.7891   31.7017    6.9499 H   0  0  0  0  0  0
   21.8979   33.5198    4.8203 H   0  0  0  0  0  0
   22.6763   35.1103    5.1220 H   0  0  0  0  0  0
   21.8466   34.2479    6.4616 H   0  0  0  0  0  0
   24.1397   32.7011    3.8968 H   0  0  0  0  0  0
   25.6310   32.9801    4.8585 H   0  0  0  0  0  0
   24.7040   34.3768    4.2130 H   0  0  0  0  0  0
   23.8832   34.3656    7.8671 H   0  0  0  0  0  0
   24.5582   35.3475    6.5229 H   0  0  0  0  0  0
   25.4852   33.9508    7.1684 H   0  0  0  0  0  0
   19.9269   30.0057    5.4603 H   0  0  0  0  0  0
   19.0420   28.5903    6.1239 H   0  0  0  0  0  0
   20.6074   28.3536    5.2753 H   0  0  0  0  0  0
   19.7109   30.9885    7.7973 H   0  0  0  0  0  0
   20.2583   30.0170    9.2056 H   0  0  0  0  0  0
   18.8582   29.4662    8.2242 H   0  0  0  0  0  0
   21.5804   27.1765    7.2695 H   0  0  0  0  0  0
   19.9136   27.3192    7.9236 H   0  0  0  0  0  0
   21.3137   27.8700    8.9049 H   0  0  0  0  0  0
   27.0983   23.2117    9.8911 H   0  0  0  0  0  0
  1  2  1  0  0  0
  1 26  1  0  0  0
  1 27  1  0  0  0
  1 28  1  0  0  0
  2  3  1  0  0  0
  2 22  2  0  0  0
  3  4  2  0  0  0
  3 29  1  0  0  0
  4  5  1  0  0  0
  4 30  1  0  0  0
  5  6  2  0  0  0
  5 31  1  0  0  0
  6  7  1  0  0  0
  6  8  1  0  0  0
  7 32  1  0  0  0
  7 33  1  0  0  0
  7 34  1  0  0  0
  8  9  2  0  0  0
  8 13  1  0  0  0
  9 10  1  0  0  0
  9 35  1  0  0  0
 10 11  2  0  0  0
 10 18  1  0  0  0
 11 12  1  0  0  0
 11 36  1  0  0  0
 12 13  2  0  0  0
 12 14  1  0  0  0
 13 37  1  0  0  0
 14 15  1  0  0  0
 14 16  1  0  0  0
 14 17  1  0  0  0
 15 38  1  0  0  0
 15 39  1  0  0  0
 15 40  1  0  0  0
 16 41  1  0  0  0
 16 42  1  0  0  0
 16 43  1  0  0  0
 17 44  1  0  0  0
 17 45  1  0  0  0
 17 46  1  0  0  0
 18 19  1  0  0  0
 18 20  1  0  0  0
 18 21  1  0  0  0
 19 47  1  0  0  0
 19 48  1  0  0  0
 19 49  1  0  0  0
 20 50  1  0  0  0
 20 51  1  0  0  0
 20 52  1  0  0  0
 21 53  1  0  0  0
 21 54  1  0  0  0
 21 55  1  0  0  0
 22 23  1  0  0  0
 22 56  1  0  0  0
 23 24  2  0  0  0
 23 25  1  0  0  0
M  CHG  1  25  -1
M  END
> <s_m_source_file>
../1nq7_ligand.sdf

> <i_m_source_file_index>
1

> <s_epik_input>
Tz1DKFtPSF0pL1tDSF09QyhcW0NIM10pL1tDSF09W0NIXS9bQ0hdPUMoXFtDSDNdKWMxW2NIXWMoQyhbQ0gzXSkoW0NIM10pW0NIM10pW2NIXWMoW2NIXTEpQyhbQ0gzXSkoW0NIM10pW0NIM10=

> <s_epik_cmdline>
J2VwaWtfYXBwJywgJy1pbWFlJywgJ2xpZ2FuZF9wcm8ubWFlJywgJy1vbWFlJywgJ2xpZ2FuZF9wcmVwLm1hZScsICctbXMnLCAnMScsICctcGgnLCAnNycsICctcGh0JywgJzAuNScsICctbnQn

> <r_lp_tautomer_probability>
1

> <r_epik_Ionization_Penalty>
  0.0077

> <r_epik_Ionization_Penalty_Charging>
  0.0077

> <r_epik_Ionization_Penalty_Neutral>
  0.0000

> <r_epik_State_Penalty>
 -0.0000

> <r_epik_Charging_Adjusted_Penalty>
0.00769476138357678

> <i_epik_Tot_Q>
-1

> <i_epik_Tot_abs_Q>
1

$$$$
