1ntk_ligand
                    3D
 Schrodinger Suite 2020-3.
 76 77  0  0  1  0            999 V2000
   56.7790   67.7760  141.0210 C   0  0  0  0  0  0
   59.1030   68.6200  141.0450 C   0  0  0  0  0  0
   59.6250   67.9830  139.9210 C   0  0  0  0  0  0
   61.8200   69.0310  140.2770 C   0  0  0  0  0  0
   66.3670   73.8050  143.0130 O   0  0  0  0  0  0
   61.3330   69.6870  141.3860 C   0  0  0  0  0  0
   59.9560   69.4780  141.7840 C   0  0  0  0  0  0
   62.0890   70.6050  142.2640 C   0  0  0  0  0  0
   64.1650   71.9330  142.7510 C   0  0  1  0  0  0
   68.6450   73.2180  146.6380 O   0  0  0  0  0  0
   62.0560   73.5710  142.6060 C   0  0  0  0  0  0
   65.4880   74.1040  143.7880 C   0  0  0  0  0  0
   65.5800   74.3110  145.2600 C   0  0  1  0  0  0
   66.2800   73.0770  145.9100 C   0  0  2  0  0  0
   60.9660   68.1820  139.5580 C   0  0  0  0  0  0
   57.8480   68.5510  141.5600 N   0  0  0  0  0  0
   63.3630   70.9060  142.0660 N   0  0  0  0  0  0
   56.9790   67.1230  140.0400 O   0  0  0  0  0  0
   59.4680   70.0210  142.7640 O   0  0  0  0  0  0
   61.4510   71.0620  143.1960 O   0  0  0  0  0  0
   63.5600   73.3640  142.4150 C   0  0  1  0  0  0
   64.1790   74.3210  143.3750 O   0  0  0  0  0  0
   65.1080   71.4050  144.8300 O   0  0  0  0  0  0
   65.1890   71.9250  146.2560 C   0  0  1  0  0  0
   65.7860   70.8390  147.1440 C   0  0  0  0  0  0
   63.9270   71.6550  144.2260 C   0  0  0  0  0  0
   66.5370   75.5310  145.5050 C   0  0  0  0  0  0
   66.0660   76.7850  144.7520 C   0  0  0  0  0  0
   64.6430   77.1810  145.2010 C   0  0  0  0  0  0
   62.8850   71.7440  144.8350 O   0  0  0  0  0  0
   66.4950   73.5990  147.2880 O   0  0  0  0  0  0
   64.5680   78.5550  145.8830 C   0  0  0  0  0  0
   64.2750   78.4350  147.3830 C   0  0  0  0  0  0
   65.4420   78.9440  148.2390 C   0  0  0  0  0  0
   67.9040   73.5640  147.5470 C   0  0  0  0  0  0
   68.4230   73.9620  148.8870 C   0  0  0  0  0  0
   69.8960   73.5670  148.9350 C   0  0  0  0  0  0
   68.1940   75.4740  149.0480 C   0  0  0  0  0  0
   55.7846   67.7718  141.4912 H   0  0  0  0  0  0
   58.9858   67.3228  139.3164 H   0  0  0  0  0  0
   62.8652   69.1767  139.9667 H   0  0  0  0  0  0
   65.2225   71.8520  142.4591 H   0  0  0  0  0  0
   61.5049   72.8995  141.9312 H   0  0  0  0  0  0
   61.7975   74.6151  142.3759 H   0  0  0  0  0  0
   61.7845   73.3472  143.6482 H   0  0  0  0  0  0
   64.5569   74.4555  145.6372 H   0  0  0  0  0  0
   67.1466   72.7449  145.3195 H   0  0  0  0  0  0
   61.5001   67.2208  139.5867 H   0  0  0  0  0  0
   61.0127   68.5972  138.5404 H   0  0  0  0  0  0
   57.6870   69.1562  142.4643 H   0  0  0  0  0  0
   63.8210   70.2805  141.2856 H   0  0  0  0  0  0
   63.7605   73.5551  141.3504 H   0  0  0  0  0  0
   64.2534   72.1893  146.7706 H   0  0  0  0  0  0
   65.8491   71.2055  148.1792 H   0  0  0  0  0  0
   66.7933   70.5833  146.7835 H   0  0  0  0  0  0
   65.1463   69.9448  147.1099 H   0  0  0  0  0  0
   66.5664   75.7639  146.5797 H   0  0  0  0  0  0
   67.5494   75.2786  145.1567 H   0  0  0  0  0  0
   66.7525   77.6184  144.9623 H   0  0  0  0  0  0
   66.0565   76.5817  143.6710 H   0  0  0  0  0  0
   63.9782   77.2145  144.3252 H   0  0  0  0  0  0
   64.2654   76.4388  145.9197 H   0  0  0  0  0  0
   65.5281   79.0778  145.7609 H   0  0  0  0  0  0
   63.7654   79.1497  145.4223 H   0  0  0  0  0  0
   63.3827   79.0286  147.6309 H   0  0  0  0  0  0
   64.0962   77.3801  147.6385 H   0  0  0  0  0  0
   65.1884   78.8391  149.3042 H   0  0  0  0  0  0
   65.6304   80.0032  148.0095 H   0  0  0  0  0  0
   66.3439   78.3547  148.0170 H   0  0  0  0  0  0
   67.8996   73.4429  149.7035 H   0  0  0  0  0  0
   69.9876   72.4775  148.8143 H   0  0  0  0  0  0
   70.3244   73.8660  149.9030 H   0  0  0  0  0  0
   70.4379   74.0728  148.1223 H   0  0  0  0  0  0
   67.1160   75.6883  149.0042 H   0  0  0  0  0  0
   68.7079   76.0110  148.2371 H   0  0  0  0  0  0
   68.5944   75.8042  150.0179 H   0  0  0  0  0  0
  1 16  1  0  0  0
  1 18  2  0  0  0
  1 39  1  0  0  0
  2  3  2  0  0  0
  2  7  1  0  0  0
  2 16  1  0  0  0
  3 15  1  0  0  0
  3 40  1  0  0  0
  4  6  2  0  0  0
  4 15  1  0  0  0
  4 41  1  0  0  0
  5 12  2  0  0  0
  6  7  1  0  0  0
  6  8  1  0  0  0
  7 19  2  0  0  0
  8 17  1  0  0  0
  8 20  2  0  0  0
  9 17  1  0  0  0
  9 21  1  0  0  0
  9 26  1  0  0  0
  9 42  1  0  0  0
 10 35  2  0  0  0
 11 21  1  0  0  0
 11 43  1  0  0  0
 11 44  1  0  0  0
 11 45  1  0  0  0
 12 13  1  0  0  0
 12 22  1  0  0  0
 13 14  1  0  0  0
 13 27  1  0  0  0
 13 46  1  0  0  0
 14 24  1  0  0  0
 14 31  1  0  0  0
 14 47  1  0  0  0
 15 48  1  0  0  0
 15 49  1  0  0  0
 16 50  1  0  0  0
 17 51  1  0  0  0
 21 22  1  0  0  0
 21 52  1  0  0  0
 23 24  1  0  0  0
 23 26  1  0  0  0
 24 25  1  0  0  0
 24 53  1  0  0  0
 25 54  1  0  0  0
 25 55  1  0  0  0
 25 56  1  0  0  0
 26 30  2  0  0  0
 27 28  1  0  0  0
 27 57  1  0  0  0
 27 58  1  0  0  0
 28 29  1  0  0  0
 28 59  1  0  0  0
 28 60  1  0  0  0
 29 32  1  0  0  0
 29 61  1  0  0  0
 29 62  1  0  0  0
 31 35  1  0  0  0
 32 33  1  0  0  0
 32 63  1  0  0  0
 32 64  1  0  0  0
 33 34  1  0  0  0
 33 65  1  0  0  0
 33 66  1  0  0  0
 34 67  1  0  0  0
 34 68  1  0  0  0
 34 69  1  0  0  0
 35 36  1  0  0  0
 36 37  1  0  0  0
 36 38  1  0  0  0
 36 70  1  0  0  0
 37 71  1  0  0  0
 37 72  1  0  0  0
 37 73  1  0  0  0
 38 74  1  0  0  0
 38 75  1  0  0  0
 38 76  1  0  0  0
M  END
> <s_m_source_file>
../1ntk_ligand.sdf

> <i_m_source_file_index>
1

> <s_epik_input>
Tz1bQ0hdW05IXUMxPVtDSF1bQ0gyXVtDSF09QyhDMT1PKUMoPU8pW05IXVtDQEhdMltDQEBIXShbQ0gzXSlPQyg9TylbQ0BASF0oW0NASF0oW0NASF0oW0NIM10pT0MyPU8pT0MoPU8pW0NIXShbQ0gzXSlbQ0gzXSlbQ0gyXVtDSDJdW0NIMl1bQ0gyXVtDSDJdW0NIM10=

> <s_epik_cmdline>
J2VwaWtfYXBwJywgJy1pbWFlJywgJ2xpZ2FuZF9wcm8ubWFlJywgJy1vbWFlJywgJ2xpZ2FuZF9wcmVwLm1hZScsICctbXMnLCAnMScsICctcGgnLCAnNycsICctcGh0JywgJzAuNScsICctbnQn

> <r_lp_tautomer_probability>
2.55999999999325e-12

> <r_epik_Ionization_Penalty>
  0.0137

> <r_epik_Ionization_Penalty_Charging>
  0.0000

> <r_epik_Ionization_Penalty_Neutral>
  0.0137

> <r_epik_State_Penalty>
  0.0106

> <r_epik_Charging_Adjusted_Penalty>
0.0106156633545088

> <i_epik_Tot_Q>
0

> <i_epik_Tot_abs_Q>
0

> <s_epik_Chemistry_Notes>
This compound has an ester and may undergo hydrolysis at high or low pH.

$$$$
