1ntv_ligand
                    3D
 Schrodinger Suite 2020-3.
175177  0  0  1  0            999 V2000
   -1.5320    1.3350   22.2420 N   0  3  0  0  0  0
   -0.2780    0.5540   22.0210 C   0  0  2  0  0  0
   -0.5870   -0.9300   21.8950 C   0  0  0  0  0  0
   -1.4280   -1.4650   22.6210 O   0  0  0  0  0  0
    0.6900    0.7760   23.1850 C   0  0  0  0  0  0
    1.2180    2.1990   23.2430 C   0  0  0  0  0  0
    0.5140    3.1500   22.9040 O   0  0  0  0  0  0
    2.4580    2.3510   23.6930 N   0  0  0  0  0  0
    0.0990   -1.6000   20.9760 N   0  0  0  0  0  0
   -0.1300   -3.0200   20.7760 C   0  0  2  0  0  0
    0.9770   -3.7230   20.0010 C   0  0  0  0  0  0
    1.7570   -3.0900   19.2770 O   0  0  0  0  0  0
   -1.4740   -3.2270   20.0740 C   0  0  0  0  0  0
   -1.5960   -2.4940   18.7670 C   0  0  0  0  0  0
   -1.1160   -3.0560   17.5910 C   0  0  0  0  0  0
   -2.1850   -1.2360   18.7180 C   0  0  0  0  0  0
   -1.2220   -2.3740   16.3790 C   0  0  0  0  0  0
   -2.2950   -0.5440   17.5120 C   0  0  0  0  0  0
   -1.8130   -1.1170   16.3410 C   0  0  0  0  0  0
    1.0370   -5.0390   20.1850 N   0  0  0  0  0  0
    2.0090   -5.8970   19.5260 C   0  0  2  0  0  0
    1.4170   -6.3780   18.2040 C   0  0  0  0  0  0
    0.2080   -6.5920   18.0930 O   0  0  0  0  0  0
    2.3180   -7.1100   20.4110 C   0  0  0  0  0  0
    2.9670   -6.7260   21.7300 C   0  0  0  0  0  0
    4.1830   -6.4550   21.7410 O   0  0  0  0  0  0
    2.2620   -6.6900   22.7600 O   0  0  0  0  0  0
    2.2650   -6.5350   17.1960 N   0  0  0  0  0  0
    1.8030   -7.0130   15.9030 C   0  0  2  0  0  0
    1.8010   -8.5360   15.9330 C   0  0  0  0  0  0
    2.8530   -9.1580   16.0520 O   0  0  0  0  0  0
    2.7300   -6.5190   14.7910 C   0  0  0  0  0  0
    2.3840   -7.1140   13.4420 C   0  0  0  0  0  0
    1.3700   -7.7930   13.2900 O   0  0  0  0  0  0
    3.2290   -6.8590   12.4490 N   0  0  0  0  0  0
    0.6140   -9.1550   15.8260 N   0  0  0  0  0  0
    0.4990  -10.6160   15.8440 C   0  0  2  0  0  0
    1.2400  -11.3350   14.7180 C   0  0  0  0  0  0
    1.5220  -12.5300   14.8180 O   0  0  0  0  0  0
   -1.0140  -10.8420   15.7780 C   0  0  0  0  0  0
   -1.4960   -9.6540   15.0040 C   0  0  0  0  0  0
   -0.7070   -8.5320   15.6300 C   0  0  0  0  0  0
    1.5690  -10.6050   13.6560 N   0  0  0  0  0  0
    2.2470  -11.2000   12.5110 C   0  0  2  0  0  0
    3.7480  -10.9110   12.4570 C   0  0  0  0  0  0
    4.4230  -11.2780   11.4920 O   0  0  0  0  0  0
    1.5950  -10.7220   11.1910 C   0  0  0  0  0  0
    1.9750  -11.6490   10.0540 C   0  0  0  0  0  0
    0.0840  -10.6700   11.3480 C   0  0  0  0  0  0
    4.2710  -10.2630   13.4920 N   0  0  0  0  0  0
    5.6950   -9.9420   13.5480 C   0  0  2  0  0  0
    6.5380  -11.2120   13.5770 C   0  0  0  0  0  0
    6.1750  -12.1880   14.2360 O   0  0  0  0  0  0
    6.0060   -9.1020   14.7910 C   0  0  0  0  0  0
    7.4860   -8.8400   14.9930 C   0  0  0  0  0  0
    8.2190   -8.1030   14.0610 C   0  0  0  0  0  0
    8.1550   -9.3400   16.1100 C   0  0  0  0  0  0
    9.5800   -7.8720   14.2370 C   0  0  0  0  0  0
    9.5160   -9.1160   16.2950 C   0  0  0  0  0  0
   10.2220   -8.3810   15.3560 C   0  0  0  0  0  0
   11.5650   -8.1460   15.5390 O   0  0  0  0  0  0
    7.6550  -11.1880   12.8540 N   0  0  0  0  0  0
    8.5920  -12.3120   12.7830 C   0  0  2  0  0  0
    9.9350  -11.8210   13.3260 C   0  0  0  0  0  0
   10.5620  -10.9490   12.7300 O   0  0  0  0  0  0
    8.7720  -12.7620   11.3290 C   0  0  0  0  0  0
    7.5050  -13.2570   10.6450 C   0  0  0  0  0  0
    7.2250  -14.7200   10.9550 C   0  0  0  0  0  0
    7.0260  -14.9690   12.3800 N   0  0  0  0  0  0
    6.8110  -16.1720   12.9020 C   0  0  0  0  0  0
    6.7670  -17.2410   12.1170 N   0  0  0  0  0  0
    6.6390  -16.3090   14.2110 N   0  0  0  0  0  0
   10.3760  -12.3830   14.4480 N   0  0  0  0  0  0
   11.6390  -11.9810   15.0690 C   0  0  2  0  0  0
   12.8740  -12.2920   14.2250 C   0  0  0  0  0  0
   13.8580  -11.5520   14.2580 O   0  0  0  0  0  0
   11.7880  -12.6520   16.4390 C   0  0  0  0  0  0
   10.6900  -12.3050   17.4300 C   0  0  0  0  0  0
   10.9160  -13.0060   18.7620 C   0  0  0  0  0  0
    9.8190  -12.6670   19.7610 C   0  0  0  0  0  0
   10.0330  -13.3430   21.0730 N   0  3  0  0  0  0
   12.8240  -13.3880   13.4750 N   0  0  0  0  0  0
   13.9510  -13.7880   12.6380 C   0  0  2  0  0  0
   13.6140  -13.7380   11.1500 C   0  0  0  0  0  0
   12.4640  -13.3830   10.8140 O   0  0  0  0  0  0
   14.4180  -15.2150   12.9860 C   0  0  2  0  0  0
   13.3480  -16.1400   12.7540 O   0  0  0  0  0  0
   14.8400  -15.2940   14.4460 C   0  0  0  0  0  0
   14.5080  -14.0560   10.3370 O   0  0  0  0  0  0
   -2.2206    1.1687   21.4005 H   0  0  0  0  0  0
   -1.2897    2.4057   22.3115 H   0  0  0  0  0  0
   -2.0091    1.0056   23.1768 H   0  0  0  0  0  0
    0.1663    0.9131   21.0810 H   0  0  0  0  0  0
    0.1753    0.5680   24.1347 H   0  0  0  0  0  0
    1.5516    0.1004   23.0793 H   0  0  0  0  0  0
    3.0492    1.4703   23.9843 H   0  0  0  0  0  0
    2.8940    3.3576   23.7745 H   0  0  0  0  0  0
    0.8450   -1.0717   20.3642 H   0  0  0  0  0  0
   -0.1236   -3.4280   21.7975 H   0  0  0  0  0  0
   -1.6161   -4.2970   19.8624 H   0  0  0  0  0  0
   -2.2863   -2.8709   20.7247 H   0  0  0  0  0  0
   -0.6510   -4.0415   17.6156 H   0  0  0  0  0  0
   -2.5659   -0.7844   19.6340 H   0  0  0  0  0  0
   -0.8418   -2.8263   15.4631 H   0  0  0  0  0  0
   -2.7574    0.4428   17.4879 H   0  0  0  0  0  0
   -1.8984   -0.5817   15.3953 H   0  0  0  0  0  0
    0.3004   -5.4729   20.8772 H   0  0  0  0  0  0
    2.9147   -5.2937   19.3658 H   0  0  0  0  0  0
    1.3842   -7.6449   20.6390 H   0  0  0  0  0  0
    3.0069   -7.7844   19.8813 H   0  0  0  0  0  0
    2.7120   -6.4144   23.7252 H   0  0  0  0  0  0
    3.3287   -6.2989   17.3471 H   0  0  0  0  0  0
    0.7908   -6.6109   15.7490 H   0  0  0  0  0  0
    2.6532   -5.4248   14.7087 H   0  0  0  0  0  0
    3.7676   -6.7969   15.0281 H   0  0  0  0  0  0
    4.1239   -6.2462   12.6321 H   0  0  0  0  0  0
    3.0337   -7.2607   11.4438 H   0  0  0  0  0  0
    0.9905  -11.0020   16.7492 H   0  0  0  0  0  0
   -1.2206  -11.7934   15.2660 H   0  0  0  0  0  0
   -1.4242  -10.8779   16.7980 H   0  0  0  0  0  0
   -1.2713   -9.7960   13.9366 H   0  0  0  0  0  0
   -2.5823   -9.5448   15.1386 H   0  0  0  0  0  0
   -1.1100   -8.2133   16.6026 H   0  0  0  0  0  0
   -0.6057   -7.6573   14.9707 H   0  0  0  0  0  0
    1.3202   -9.5335   13.6521 H   0  0  0  0  0  0
    2.1118  -12.2766   12.6920 H   0  0  0  0  0  0
    1.9522   -9.7130   10.9374 H   0  0  0  0  0  0
    3.0700  -11.6759    9.9532 H   0  0  0  0  0  0
    1.5294  -11.2824    9.1175 H   0  0  0  0  0  0
    1.6013  -12.6616   10.2660 H   0  0  0  0  0  0
   -0.1755   -9.9940   12.1760 H   0  0  0  0  0  0
   -0.2970  -11.6788   11.5651 H   0  0  0  0  0  0
   -0.3689  -10.2996   10.4165 H   0  0  0  0  0  0
    3.6076   -9.9672   14.3181 H   0  0  0  0  0  0
    5.8992   -9.3740   12.6284 H   0  0  0  0  0  0
    5.5083   -8.1247   14.7070 H   0  0  0  0  0  0
    5.6399   -9.6240   15.6874 H   0  0  0  0  0  0
    7.7168   -7.7018   13.1807 H   0  0  0  0  0  0
    7.6019   -9.9166   16.8514 H   0  0  0  0  0  0
   10.1380   -7.2946   13.4999 H   0  0  0  0  0  0
   10.0234   -9.5161   17.1728 H   0  0  0  0  0  0
   12.1277   -7.5629   14.7951 H   0  0  0  0  0  0
    7.8596  -10.2650   12.2916 H   0  0  0  0  0  0
    8.1765  -13.1381   13.3787 H   0  0  0  0  0  0
    9.1450  -11.9196   10.7280 H   0  0  0  0  0  0
    9.4951  -13.5899   11.2882 H   0  0  0  0  0  0
    6.6461  -12.6623   10.9894 H   0  0  0  0  0  0
    7.6112  -13.1508    9.5553 H   0  0  0  0  0  0
    6.3135  -15.0385   10.4280 H   0  0  0  0  0  0
    8.0745  -15.3344   10.6222 H   0  0  0  0  0  0
    7.0493  -14.1318   13.0931 H   0  0  0  0  0  0
    6.9090  -17.1325   11.0316 H   0  0  0  0  0  0
    6.6746  -15.4259   14.8658 H   0  0  0  0  0  0
    6.4609  -17.3057   14.6410 H   0  0  0  0  0  0
    9.7623  -13.1706   14.9096 H   0  0  0  0  0  0
   11.5434  -10.8877   15.1440 H   0  0  0  0  0  0
   11.7751  -13.7449   16.3153 H   0  0  0  0  0  0
   12.7408  -12.3459   16.8955 H   0  0  0  0  0  0
   10.6800  -11.2183   17.6005 H   0  0  0  0  0  0
    9.7174  -12.6216   17.0253 H   0  0  0  0  0  0
   10.9224  -14.0950   18.6068 H   0  0  0  0  0  0
   11.8817  -12.6900   19.1834 H   0  0  0  0  0  0
    9.8020  -11.5805   19.9322 H   0  0  0  0  0  0
    8.8465  -12.9905   19.3615 H   0  0  0  0  0  0
    9.2201  -13.0712   21.7624 H   0  0  0  0  0  0
   10.9961  -13.0232   21.4975 H   0  0  0  0  0  0
   10.0407  -14.4332   20.9268 H   0  0  0  0  0  0
   11.9090  -13.9982   13.4938 H   0  0  0  0  0  0
   14.7188  -13.0356   12.8713 H   0  0  0  0  0  0
   12.1916  -13.3372    9.7492 H   0  0  0  0  0  0
   15.2456  -15.5290   12.3329 H   0  0  0  0  0  0
   12.9053  -16.2285   11.7509 H   0  0  0  0  0  0
   15.6614  -14.5856   14.6291 H   0  0  0  0  0  0
   15.1787  -16.3152   14.6750 H   0  0  0  0  0  0
   13.9850  -15.0383   15.0891 H   0  0  0  0  0  0
  1  2  1  0  0  0
  1 90  1  0  0  0
  1 91  1  0  0  0
  1 92  1  0  0  0
  2  3  1  0  0  0
  2  5  1  0  0  0
  2 93  1  0  0  0
  3  4  2  0  0  0
  3  9  1  0  0  0
  5  6  1  0  0  0
  5 94  1  0  0  0
  5 95  1  0  0  0
  6  7  2  0  0  0
  6  8  1  0  0  0
  8 96  1  0  0  0
  8 97  1  0  0  0
  9 10  1  0  0  0
  9 98  1  0  0  0
 10 11  1  0  0  0
 10 13  1  0  0  0
 10 99  1  0  0  0
 11 12  2  0  0  0
 11 20  1  0  0  0
 13 14  1  0  0  0
 13100  1  0  0  0
 13101  1  0  0  0
 14 15  2  0  0  0
 14 16  1  0  0  0
 15 17  1  0  0  0
 15102  1  0  0  0
 16 18  2  0  0  0
 16103  1  0  0  0
 17 19  2  0  0  0
 17104  1  0  0  0
 18 19  1  0  0  0
 18105  1  0  0  0
 19106  1  0  0  0
 20 21  1  0  0  0
 20107  1  0  0  0
 21 22  1  0  0  0
 21 24  1  0  0  0
 21108  1  0  0  0
 22 23  2  0  0  0
 22 28  1  0  0  0
 24 25  1  0  0  0
 24109  1  0  0  0
 24110  1  0  0  0
 25 26  2  0  0  0
 25 27  1  0  0  0
 27111  1  0  0  0
 28 29  1  0  0  0
 28112  1  0  0  0
 29 30  1  0  0  0
 29 32  1  0  0  0
 29113  1  0  0  0
 30 31  2  0  0  0
 30 36  1  0  0  0
 32 33  1  0  0  0
 32114  1  0  0  0
 32115  1  0  0  0
 33 34  2  0  0  0
 33 35  1  0  0  0
 35116  1  0  0  0
 35117  1  0  0  0
 36 37  1  0  0  0
 36 42  1  0  0  0
 37 38  1  0  0  0
 37 40  1  0  0  0
 37118  1  0  0  0
 38 39  2  0  0  0
 38 43  1  0  0  0
 40 41  1  0  0  0
 40119  1  0  0  0
 40120  1  0  0  0
 41 42  1  0  0  0
 41121  1  0  0  0
 41122  1  0  0  0
 42123  1  0  0  0
 42124  1  0  0  0
 43 44  1  0  0  0
 43125  1  0  0  0
 44 45  1  0  0  0
 44 47  1  0  0  0
 44126  1  0  0  0
 45 46  2  0  0  0
 45 50  1  0  0  0
 47 48  1  0  0  0
 47 49  1  0  0  0
 47127  1  0  0  0
 48128  1  0  0  0
 48129  1  0  0  0
 48130  1  0  0  0
 49131  1  0  0  0
 49132  1  0  0  0
 49133  1  0  0  0
 50 51  1  0  0  0
 50134  1  0  0  0
 51 52  1  0  0  0
 51 54  1  0  0  0
 51135  1  0  0  0
 52 53  2  0  0  0
 52 62  1  0  0  0
 54 55  1  0  0  0
 54136  1  0  0  0
 54137  1  0  0  0
 55 56  2  0  0  0
 55 57  1  0  0  0
 56 58  1  0  0  0
 56138  1  0  0  0
 57 59  2  0  0  0
 57139  1  0  0  0
 58 60  2  0  0  0
 58140  1  0  0  0
 59 60  1  0  0  0
 59141  1  0  0  0
 60 61  1  0  0  0
 61142  1  0  0  0
 62 63  1  0  0  0
 62143  1  0  0  0
 63 64  1  0  0  0
 63 66  1  0  0  0
 63144  1  0  0  0
 64 65  2  0  0  0
 64 73  1  0  0  0
 66 67  1  0  0  0
 66145  1  0  0  0
 66146  1  0  0  0
 67 68  1  0  0  0
 67147  1  0  0  0
 67148  1  0  0  0
 68 69  1  0  0  0
 68149  1  0  0  0
 68150  1  0  0  0
 69 70  1  0  0  0
 69151  1  0  0  0
 70 71  2  0  0  0
 70 72  1  0  0  0
 71152  1  0  0  0
 72153  1  0  0  0
 72154  1  0  0  0
 73 74  1  0  0  0
 73155  1  0  0  0
 74 75  1  0  0  0
 74 77  1  0  0  0
 74156  1  0  0  0
 75 76  2  0  0  0
 75 82  1  0  0  0
 77 78  1  0  0  0
 77157  1  0  0  0
 77158  1  0  0  0
 78 79  1  0  0  0
 78159  1  0  0  0
 78160  1  0  0  0
 79 80  1  0  0  0
 79161  1  0  0  0
 79162  1  0  0  0
 80 81  1  0  0  0
 80163  1  0  0  0
 80164  1  0  0  0
 81165  1  0  0  0
 81166  1  0  0  0
 81167  1  0  0  0
 82 83  1  0  0  0
 82168  1  0  0  0
 83 84  1  0  0  0
 83 86  1  0  0  0
 83169  1  0  0  0
 84 85  1  0  0  0
 84 89  2  0  0  0
 85170  1  0  0  0
 86 87  1  0  0  0
 86 88  1  0  0  0
 86171  1  0  0  0
 87172  1  0  0  0
 88173  1  0  0  0
 88174  1  0  0  0
 88175  1  0  0  0
M  CHG  2   1   1  81   1
M  END
> <s_m_source_file>
../1ntv_ligand.sdf

> <i_m_source_file_index>
1

> <s_epik_input>
W2NIXTFbY0hdW2NIXVtjSF1bY0hdYzFbQ0gyXVtDQEhdKFtOSF1DKD1PKVtDQEBIXShbTkgzK10pW0NIMl1DKD1PKVtOSDJdKUMoPU8pW05IXVtDQEBIXShbQ0gyXUMoPU8pW09IXSlDKD1PKVtOSF1bQ0BASF0oW0NIMl1DKD1PKVtOSDJdKUMoPU8pTjJbQ0BASF0oW0NIMl1bQ0gyXVtDSDJdMilDKD1PKVtOSF1bQ0BASF0oW0NIXShbQ0gzXSlbQ0gzXSlDKD1PKVtOSF1bQ0BASF0oW0NIMl1jM1tjSF1bY0hdYyhbT0hdKVtjSF1bY0hdMylDKD1PKVtOSF1bQ0BASF0oW0NIMl1bQ0gyXVtDSDJdW05IXS9DKD1OXFtIXSlbTkgyXSlDKD1PKVtOSF1bQ0BIXShDKD1PKVtOSF1bQ0BIXShDKD1PKVtPSF0pW0NASF0oW09IXSlbQ0gzXSlbQ0gyXVtDSDJdW0NIMl1bQ0gyXVtOSDMrXQ==

> <s_epik_cmdline>
J2VwaWtfYXBwJywgJy1pbWFlJywgJ2xpZ2FuZF9wcm8ubWFlJywgJy1vbWFlJywgJ2xpZ2FuZF9wcmVwLm1hZScsICctbXMnLCAnMScsICctcGgnLCAnNycsICctcGh0JywgJzAuNScsICctbnQn

> <s_epik_pKa_notes>
Molecule size exceeds maximum supported for generating protonation states

> <s_epik_Chemistry_Notes>
This compound has an imine and may undergo hydrolysis.

$$$$
