1nu1_ligand
                    3D
 Schrodinger Suite 2020-3.
 45 46  0  0  1  0            999 V2000
   59.3110   76.4610  147.5170 C   0  0  0  0  0  0
   60.7620   75.9820  147.4500 C   0  0  0  0  0  0
   60.9560   75.0150  146.2820 C   0  0  0  0  0  0
   61.7620   73.7850  146.7150 C   0  0  0  0  0  0
   62.6170   73.1830  145.5940 C   0  0  0  0  0  0
   62.4270   73.9180  144.2630 C   0  0  0  0  0  0
   61.9460   72.9500  143.1910 C   0  0  0  0  0  0
   63.0900   72.4960  142.2890 C   0  0  0  0  0  0
   63.3510   70.9970  142.3460 C   0  0  0  0  0  0
   62.6930   70.2290  141.2150 C   0  0  0  0  0  0
   63.4970   69.5480  140.3230 C   0  0  0  0  0  0
   62.9570   68.8460  139.2760 C   0  0  0  0  0  0
   63.6820   68.2710  138.4360 O   0  0  0  0  0  0
   61.5070   68.7850  139.1730 C   0  0  0  0  0  0
   60.8770   68.0780  138.1700 C   0  0  0  0  0  0
   59.5000   68.0810  138.1220 C   0  0  0  0  0  0
   58.7590   68.7380  139.0880 C   0  0  0  0  0  0
   59.3650   69.4230  140.1260 C   0  0  0  0  0  0
   60.7380   69.4790  140.1900 C   0  0  0  0  0  0
   61.3560   70.1790  141.1370 N   0  0  0  0  0  0
   60.6740   70.7700  141.9890 O   0  5  0  0  0  0
   59.1925   77.1546  148.3625 H   0  0  0  0  0  0
   58.6455   75.5963  147.6560 H   0  0  0  0  0  0
   59.0515   76.9766  146.5806 H   0  0  0  0  0  0
   61.4275   76.8467  147.3110 H   0  0  0  0  0  0
   61.0215   75.4664  148.3864 H   0  0  0  0  0  0
   59.9741   74.6818  145.9149 H   0  0  0  0  0  0
   61.4974   75.5237  145.4708 H   0  0  0  0  0  0
   62.4428   74.0622  147.5333 H   0  0  0  0  0  0
   61.0744   72.9990  147.0605 H   0  0  0  0  0  0
   63.6800   73.2452  145.8700 H   0  0  0  0  0  0
   62.3378   72.1294  145.4454 H   0  0  0  0  0  0
   61.6804   74.7161  144.3882 H   0  0  0  0  0  0
   63.3845   74.3579  143.9471 H   0  0  0  0  0  0
   61.5077   72.0616  143.6692 H   0  0  0  0  0  0
   61.1862   73.4426  142.5664 H   0  0  0  0  0  0
   62.8562   72.7498  141.2445 H   0  0  0  0  0  0
   64.0183   73.0033  142.5906 H   0  0  0  0  0  0
   64.4335   70.8108  142.2866 H   0  0  0  0  0  0
   62.9608   70.5925  143.2916 H   0  0  0  0  0  0
   64.5790   69.5686  140.4531 H   0  0  0  0  0  0
   61.4574   67.5275  137.4296 H   0  0  0  0  0  0
   58.9883   67.5594  137.3132 H   0  0  0  0  0  0
   57.6708   68.7154  139.0298 H   0  0  0  0  0  0
   58.7592   69.9145  140.8873 H   0  0  0  0  0  0
  1  2  1  0  0  0
  1 22  1  0  0  0
  1 23  1  0  0  0
  1 24  1  0  0  0
  2  3  1  0  0  0
  2 25  1  0  0  0
  2 26  1  0  0  0
  3  4  1  0  0  0
  3 27  1  0  0  0
  3 28  1  0  0  0
  4  5  1  0  0  0
  4 29  1  0  0  0
  4 30  1  0  0  0
  5  6  1  0  0  0
  5 31  1  0  0  0
  5 32  1  0  0  0
  6  7  1  0  0  0
  6 33  1  0  0  0
  6 34  1  0  0  0
  7  8  1  0  0  0
  7 35  1  0  0  0
  7 36  1  0  0  0
  8  9  1  0  0  0
  8 37  1  0  0  0
  8 38  1  0  0  0
  9 10  1  0  0  0
  9 39  1  0  0  0
  9 40  1  0  0  0
 10 11  2  0  0  0
 10 20  1  0  0  0
 11 12  1  0  0  0
 11 41  1  0  0  0
 12 13  2  0  0  0
 12 14  1  0  0  0
 14 15  2  0  0  0
 14 19  1  0  0  0
 15 16  1  0  0  0
 15 42  1  0  0  0
 16 17  2  0  0  0
 16 43  1  0  0  0
 17 18  1  0  0  0
 17 44  1  0  0  0
 18 19  2  0  0  0
 18 45  1  0  0  0
 19 20  1  0  0  0
 20 21  1  0  0  0
M  CHG  1  21  -1
M  END
> <s_m_source_file>
../1nu1_ligand.sdf

> <i_m_source_file_index>
1

> <s_epik_input>
W0NIM11bQ0gyXVtDSDJdW0NIMl1bQ0gyXVtDSDJdW0NIMl1bQ0gyXVtDSDJdYyhbY0hdYzFbT0hdKVtuK10oW08tXSljKGMxMilbY0hdW2NIXVtjSF1bY0hdMg==

> <s_epik_cmdline>
J2VwaWtfYXBwJywgJy1pbWFlJywgJ2xpZ2FuZF9wcm8ubWFlJywgJy1vbWFlJywgJ2xpZ2FuZF9wcmVwLm1hZScsICctbXMnLCAnMScsICctcGgnLCAnNycsICctcGh0JywgJzAuNScsICctbnQn

> <r_lp_tautomer_probability>
1

> <r_epik_Ionization_Penalty>
  0.0000

> <r_epik_Ionization_Penalty_Charging>
  0.0000

> <r_epik_Ionization_Penalty_Neutral>
  0.0000

> <r_epik_State_Penalty>
 -0.0000

> <r_epik_Charging_Adjusted_Penalty>
1.73036902953711e-06

> <i_epik_Tot_Q>
-1

> <i_epik_Tot_abs_Q>
1

$$$$
