1nu3_ligand
                    3D
 Schrodinger Suite 2020-3.
 27 26  0  0  1  0            999 V2000
   15.7670   21.0810    5.8720 C   0  0  0  0  0  0
   16.5030   21.7220    6.9990 C   0  0  0  0  0  0
   15.7100   21.9580    8.2650 C   0  0  0  0  0  0
   16.0740   23.2290    9.0290 C   0  0  0  0  0  0
   17.5730   23.4160    9.1660 C   0  0  0  0  0  0
   17.8810   24.6710    9.9690 C   0  0  0  0  0  0
   19.2900   25.2080    9.8090 C   0  0  0  0  0  0
   15.3560   23.3260   10.3780 C   0  0  0  0  0  0
   15.7980   22.7500   11.5260 N   0  0  0  0  0  0
   14.3600   24.0210   10.4190 O   0  0  0  0  0  0
   16.4435   20.9622    5.0128 H   0  0  0  0  0  0
   14.9151   21.7142    5.5832 H   0  0  0  0  0  0
   15.3994   20.0938    6.1886 H   0  0  0  0  0  0
   17.3549   21.0888    7.2878 H   0  0  0  0  0  0
   16.8707   22.7092    6.6825 H   0  0  0  0  0  0
   14.6406   22.0345    8.0189 H   0  0  0  0  0  0
   15.8675   21.1186    8.9582 H   0  0  0  0  0  0
   15.7190   24.0693    8.4143 H   0  0  0  0  0  0
   18.0054   22.5461    9.6820 H   0  0  0  0  0  0
   18.0235   23.5110    8.1670 H   0  0  0  0  0  0
   17.2005   25.4789    9.6620 H   0  0  0  0  0  0
   17.7440   24.4635   11.0405 H   0  0  0  0  0  0
   19.4107   26.1105   10.4262 H   0  0  0  0  0  0
   19.4689   25.4592    8.7531 H   0  0  0  0  0  0
   20.0125   24.4438   10.1316 H   0  0  0  0  0  0
   16.6975   22.1169   11.5128 H   0  0  0  0  0  0
   15.2565   22.9166   12.4689 H   0  0  0  0  0  0
  1  2  1  0  0  0
  1 11  1  0  0  0
  1 12  1  0  0  0
  1 13  1  0  0  0
  2  3  1  0  0  0
  2 14  1  0  0  0
  2 15  1  0  0  0
  3  4  1  0  0  0
  3 16  1  0  0  0
  3 17  1  0  0  0
  4  5  1  0  0  0
  4  8  1  0  0  0
  4 18  1  0  0  0
  5  6  1  0  0  0
  5 19  1  0  0  0
  5 20  1  0  0  0
  6  7  1  0  0  0
  6 21  1  0  0  0
  6 22  1  0  0  0
  7 23  1  0  0  0
  7 24  1  0  0  0
  7 25  1  0  0  0
  8  9  1  0  0  0
  8 10  2  0  0  0
  9 26  1  0  0  0
  9 27  1  0  0  0
M  END
> <s_m_source_file>
../1nu3_ligand.sdf

> <i_m_source_file_index>
1

> <s_epik_input>
W0NIM11bQ0gyXVtDSDJdW0NIXShDKD1PKVtOSDJdKVtDSDJdW0NIMl1bQ0gzXQ==

> <s_epik_cmdline>
J2VwaWtfYXBwJywgJy1pbWFlJywgJ2xpZ2FuZF9wcm8ubWFlJywgJy1vbWFlJywgJ2xpZ2FuZF9wcmVwLm1hZScsICctbXMnLCAnMScsICctcGgnLCAnNycsICctcGh0JywgJzAuNScsICctbnQn

> <r_lp_tautomer_probability>
1

> <r_epik_Ionization_Penalty>
  0.0000

> <r_epik_Ionization_Penalty_Charging>
  0.0000

> <r_epik_Ionization_Penalty_Neutral>
  0.0000

> <r_epik_State_Penalty>
 -0.0000

> <r_epik_Charging_Adjusted_Penalty>
0

> <i_epik_Tot_Q>
0

> <i_epik_Tot_abs_Q>
0

$$$$
