1nu8_ligand
                    3D
 Schrodinger Suite 2020-3.
 58 58  0  0  1  0            999 V2000
   64.3840   73.9810   69.2100 N   0  3  0  0  0  0
   65.7640   73.4560   69.1910 C   0  0  2  0  0  0
   65.7780   72.0970   68.4740 C   0  0  0  0  0  0
   65.0510   71.1730   68.8830 O   0  0  0  0  0  0
   66.3130   73.2970   70.6330 C   0  0  2  0  0  0
   66.1200   74.5790   71.4490 C   0  0  0  0  0  0
   67.7790   72.8950   70.6060 C   0  0  0  0  0  0
   66.4390   74.4340   72.9500 C   0  0  0  0  0  0
   66.6090   71.9670   67.4380 N   0  0  0  0  0  0
   66.6670   70.7270   66.6340 C   0  0  2  0  0  0
   67.4330   69.4950   67.1130 C   0  0  1  0  0  0
   68.7420   69.5610   67.4480 O   0  0  0  0  0  0
   67.4580   71.1530   65.4180 C   0  0  0  0  0  0
   68.3930   72.2210   65.9390 C   0  0  0  0  0  0
   67.6510   72.9290   67.0220 C   0  0  0  0  0  0
   66.4960   69.0400   68.1510 N   0  3  0  0  0  0
   66.9020   67.9490   69.0320 C   0  0  2  0  0  0
   65.7190   67.0690   69.4870 C   0  0  0  0  0  0
   64.7620   67.5710   70.0860 O   0  0  0  0  0  0
   67.7540   68.4200   70.3030 C   0  0  2  0  0  0
   67.6310   67.4220   71.4840 C   0  0  0  0  0  0
   67.3350   69.7690   70.7880 C   0  0  0  0  0  0
   68.9270   67.2260   72.2750 C   0  0  0  0  0  0
   65.7170   65.8420   69.2880 O   0  5  0  0  0  0
   64.0170   74.0849   68.1782 H   0  0  0  0  0  0
   64.3723   74.9637   69.7041 H   0  0  0  0  0  0
   63.7347   73.2854   69.7618 H   0  0  0  0  0  0
   66.3689   74.1912   68.6401 H   0  0  0  0  0  0
   65.7541   72.4949   71.1371 H   0  0  0  0  0  0
   66.7797   75.3666   71.0560 H   0  0  0  0  0  0
   65.0727   74.9070   71.3744 H   0  0  0  0  0  0
   67.8958   71.9739   70.0161 H   0  0  0  0  0  0
   68.1300   72.7194   71.6336 H   0  0  0  0  0  0
   68.3718   73.7009   70.1487 H   0  0  0  0  0  0
   66.2737   75.3973   73.4547 H   0  0  0  0  0  0
   67.4890   74.1304   73.0740 H   0  0  0  0  0  0
   65.7819   73.6708   73.3924 H   0  0  0  0  0  0
   65.6114   70.4214   66.5868 H   0  0  0  0  0  0
   67.7689   68.7764   66.3509 H   0  0  0  0  0  0
   69.4832   69.8953   66.7071 H   0  0  0  0  0  0
   68.0040   70.2877   65.0142 H   0  0  0  0  0  0
   66.7715   71.5433   64.6522 H   0  0  0  0  0  0
   69.3076   71.7496   66.3280 H   0  0  0  0  0  0
   68.6545   72.9097   65.1221 H   0  0  0  0  0  0
   67.1744   73.8520   66.6600 H   0  0  0  0  0  0
   68.2980   73.1628   67.8804 H   0  0  0  0  0  0
   66.2661   69.8752   68.8290 H   0  0  0  0  0  0
   65.5683   68.6859   67.6778 H   0  0  0  0  0  0
   67.5197   67.3774   68.3237 H   0  0  0  0  0  0
   68.8087   68.5108   70.0041 H   0  0  0  0  0  0
   66.8713   67.7841   72.1924 H   0  0  0  0  0  0
   67.3337   66.4348   71.1004 H   0  0  0  0  0  0
   67.4141   70.4952   69.9656 H   0  0  0  0  0  0
   67.9887   70.0802   71.6161 H   0  0  0  0  0  0
   66.2936   69.7251   71.1395 H   0  0  0  0  0  0
   68.7542   66.5074   73.0897 H   0  0  0  0  0  0
   69.2478   68.1895   72.6978 H   0  0  0  0  0  0
   69.7102   66.8403   71.6058 H   0  0  0  0  0  0
  1  2  1  0  0  0
  1 25  1  0  0  0
  1 26  1  0  0  0
  1 27  1  0  0  0
  2  3  1  0  0  0
  2  5  1  0  0  0
  2 28  1  0  0  0
  3  4  2  0  0  0
  3  9  1  0  0  0
  5  6  1  0  0  0
  5  7  1  0  0  0
  5 29  1  0  0  0
  6  8  1  0  0  0
  6 30  1  0  0  0
  6 31  1  0  0  0
  7 32  1  0  0  0
  7 33  1  0  0  0
  7 34  1  0  0  0
  8 35  1  0  0  0
  8 36  1  0  0  0
  8 37  1  0  0  0
  9 10  1  0  0  0
  9 15  1  0  0  0
 10 11  1  0  0  0
 10 13  1  0  0  0
 10 38  1  0  0  0
 11 12  1  0  0  0
 11 16  1  0  0  0
 11 39  1  0  0  0
 12 40  1  0  0  0
 13 14  1  0  0  0
 13 41  1  0  0  0
 13 42  1  0  0  0
 14 15  1  0  0  0
 14 43  1  0  0  0
 14 44  1  0  0  0
 15 45  1  0  0  0
 15 46  1  0  0  0
 16 17  1  0  0  0
 16 47  1  0  0  0
 16 48  1  0  0  0
 17 18  1  0  0  0
 17 20  1  0  0  0
 17 49  1  0  0  0
 18 19  2  0  0  0
 18 24  1  0  0  0
 20 21  1  0  0  0
 20 22  1  0  0  0
 20 50  1  0  0  0
 21 23  1  0  0  0
 21 51  1  0  0  0
 21 52  1  0  0  0
 22 53  1  0  0  0
 22 54  1  0  0  0
 22 55  1  0  0  0
 23 56  1  0  0  0
 23 57  1  0  0  0
 23 58  1  0  0  0
M  CHG  3   1   1  16   1  24  -1
M  END
> <s_m_source_file>
../1nu8_ligand.sdf

> <i_m_source_file_index>
1

> <s_epik_input>
W0NIM11bQ0gyXVtDQEhdKFtDSDNdKVtDQEhdKFtOSDMrXSlDKD1PKU4xW0NAQEhdKFtDSDJdW0NIMl1bQ0gyXTEpW0NAQEhdKFtPSF0pW05IMitdW0NASF0oQyg9TylbT0hdKVtDQEBIXShbQ0gzXSlbQ0gyXVtDSDNd

> <s_epik_cmdline>
J2VwaWtfYXBwJywgJy1pbWFlJywgJ2xpZ2FuZF9wcm8ubWFlJywgJy1vbWFlJywgJ2xpZ2FuZF9wcmVwLm1hZScsICctbXMnLCAnMScsICctcGgnLCAnNycsICctcGh0JywgJzAuNScsICctbnQn

> <r_lp_tautomer_probability>
1

> <r_epik_Ionization_Penalty>
  0.3235

> <r_epik_Ionization_Penalty_Charging>
  0.1694

> <r_epik_Ionization_Penalty_Neutral>
  0.1541

> <r_epik_State_Penalty>
 -0.0000

> <r_epik_Charging_Adjusted_Penalty>
0.169360823933711

> <i_epik_Tot_Q>
1

> <i_epik_Tot_abs_Q>
3

> <s_epik_Chemistry_Notes>
This compound contains an acetal/aminal-like group ( X-CH(R)-Y where X, Y are N, S, or O) that may be acid/base labile, releasing an aldehyde.

$$$$
