1nw5_ligand
                    3D
 Schrodinger Suite 2020-3.
 50 52  0  0  1  0            999 V2000
   26.5530   16.9510    0.1820 N   0  3  0  0  0  0
   26.6910   16.9820   -1.2790 C   0  0  2  0  0  0
   26.7070   15.5780   -1.9060 C   0  0  0  0  0  0
   26.8530   15.4790   -3.1280 O   0  0  0  0  0  0
   26.5610   14.6140   -1.1460 O   0  5  0  0  0  0
   27.9940   17.6990   -1.7220 C   0  0  0  0  0  0
   27.9200   19.2490   -1.5940 C   0  0  0  0  0  0
   29.4590   20.1320   -2.0780 S   0  0  2  0  0  0
   30.5550   19.9410   -0.6360 C   0  0  0  0  0  0
   29.0000   21.8750   -2.1740 C   0  0  0  0  0  0
   28.1210   22.2410   -3.3800 C   0  0  1  0  0  0
   27.7670   23.6090   -3.3560 O   0  0  0  0  0  0
   28.7410   21.9740   -4.7670 C   0  0  1  0  0  0
   28.0630   20.9470   -5.4800 O   0  0  0  0  0  0
   28.8200   23.3610   -5.4010 C   0  0  1  0  0  0
   28.4440   23.3480   -6.7790 O   0  0  0  0  0  0
   27.7070   24.1130   -4.6670 C   0  0  2  0  0  0
   27.8700   25.5720   -4.5350 N   0  0  0  0  0  0
   28.9550   26.3660   -4.3770 C   0  0  0  0  0  0
   28.6560   27.6680   -4.2810 N   0  0  0  0  0  0
   27.2640   27.7470   -4.3810 C   0  0  0  0  0  0
   26.2800   28.7290   -4.3590 C   0  0  0  0  0  0
   26.5870   30.0440   -4.2040 N   0  0  0  0  0  0
   24.9470   28.4030   -4.4920 N   0  0  0  0  0  0
   24.5890   27.1090   -4.6490 C   0  0  0  0  0  0
   25.4790   26.0980   -4.6800 N   0  0  0  0  0  0
   26.7890   26.4310   -4.5440 C   0  0  0  0  0  0
   25.6192   16.4356    0.4512 H   0  0  0  0  0  0
   26.5289   17.9800    0.5699 H   0  0  0  0  0  0
   27.4075   16.4141    0.6197 H   0  0  0  0  0  0
   25.7866   17.5319   -1.5784 H   0  0  0  0  0  0
   28.8320   17.3553   -1.0978 H   0  0  0  0  0  0
   28.2017   17.4639   -2.7763 H   0  0  0  0  0  0
   27.1162   19.6323   -2.2397 H   0  0  0  0  0  0
   27.7118   19.5211   -0.5487 H   0  0  0  0  0  0
   30.8581   18.8877   -0.5428 H   0  0  0  0  0  0
   30.0207   20.2507    0.2742 H   0  0  0  0  0  0
   31.4482   20.5692   -0.7686 H   0  0  0  0  0  0
   28.4361   22.1559   -1.2723 H   0  0  0  0  0  0
   29.9091   22.4903   -2.2444 H   0  0  0  0  0  0
   27.2014   21.6507   -3.2539 H   0  0  0  0  0  0
   29.7188   21.4711   -4.7991 H   0  0  0  0  0  0
   27.9883   19.9368   -5.0510 H   0  0  0  0  0  0
   29.8366   23.7811   -5.3945 H   0  0  0  0  0  0
   29.0917   22.8586   -7.5213 H   0  0  0  0  0  0
   26.7440   23.9667   -5.1781 H   0  0  0  0  0  0
   29.9743   25.9824   -4.3322 H   0  0  0  0  0  0
   27.6365   30.3545   -4.0939 H   0  0  0  0  0  0
   25.7859   30.7977   -4.1887 H   0  0  0  0  0  0
   23.5303   26.8723   -4.7555 H   0  0  0  0  0  0
  1  2  1  0  0  0
  1 28  1  0  0  0
  1 29  1  0  0  0
  1 30  1  0  0  0
  2  3  1  0  0  0
  2  6  1  0  0  0
  2 31  1  0  0  0
  3  4  2  0  0  0
  3  5  1  0  0  0
  6  7  1  0  0  0
  6 32  1  0  0  0
  6 33  1  0  0  0
  7  8  1  0  0  0
  7 34  1  0  0  0
  7 35  1  0  0  0
  8  9  1  0  0  0
  8 10  1  0  0  0
  9 36  1  0  0  0
  9 37  1  0  0  0
  9 38  1  0  0  0
 10 11  1  0  0  0
 10 39  1  0  0  0
 10 40  1  0  0  0
 11 12  1  0  0  0
 11 13  1  0  0  0
 11 41  1  0  0  0
 12 17  1  0  0  0
 13 14  1  0  0  0
 13 15  1  0  0  0
 13 42  1  0  0  0
 14 43  1  0  0  0
 15 16  1  0  0  0
 15 17  1  0  0  0
 15 44  1  0  0  0
 16 45  1  0  0  0
 17 18  1  0  0  0
 17 46  1  0  0  0
 18 19  1  0  0  0
 18 27  1  0  0  0
 19 20  2  0  0  0
 19 47  1  0  0  0
 20 21  1  0  0  0
 21 22  2  0  0  0
 21 27  1  0  0  0
 22 23  1  0  0  0
 22 24  1  0  0  0
 23 48  1  0  0  0
 23 49  1  0  0  0
 24 25  2  0  0  0
 25 26  1  0  0  0
 25 50  1  0  0  0
 26 27  2  0  0  0
M  CHG  2   1   1   5  -1
M  END
> <s_m_source_file>
../1nw5_ligand.sdf

> <i_m_source_file_index>
1

> <s_epik_input>
Tz1DKFtPSF0pW0NAQEhdKFtOSDMrXSlbQ0gyXVtDSDJdW1NASF0oW0NIM10pW0NIMl1bQ0BIXTFPW0NASF0oW0NASF0oW09IXSlbQ0BASF0xW09IXSluKFtjSF1uMiljKGMyMyluW2NIXW5jM1tOSDJd

> <s_epik_cmdline>
J2VwaWtfYXBwJywgJy1pbWFlJywgJ2xpZ2FuZF9wcm8ubWFlJywgJy1vbWFlJywgJ2xpZ2FuZF9wcmVwLm1hZScsICctbXMnLCAnMScsICctcGgnLCAnNycsICctcGh0JywgJzAuNScsICctbnQn

> <r_lp_tautomer_probability>
1

> <r_epik_Ionization_Penalty>
  0.0015

> <r_epik_Ionization_Penalty_Charging>
  0.0011

> <r_epik_Ionization_Penalty_Neutral>
  0.0004

> <r_epik_State_Penalty>
 -0.0000

> <r_epik_Charging_Adjusted_Penalty>
0.00106610994672706

> <i_epik_Tot_Q>
0

> <i_epik_Tot_abs_Q>
2

> <s_epik_Chemistry_Notes>
This compound contains an acetal/aminal-like group ( X-CH(R)-Y where X, Y are N, S, or O) that may be acid/base labile, releasing an aldehyde.

$$$$
