1nw7_ligand
                    3D
 Schrodinger Suite 2020-3.
 46 48  0  0  1  0            999 V2000
   32.1050   21.0830    2.2810 N   0  3  0  0  0  0
   32.7850   20.0740    1.4480 C   0  0  1  0  0  0
   31.9580   19.8100    0.1710 C   0  0  0  0  0  0
   31.6500   21.0980   -0.6090 C   0  0  0  0  0  0
   30.6180   20.8150   -2.1010 S   0  0  0  0  0  0
   34.2000   20.5660    1.0980 C   0  0  0  0  0  0
   34.4940   21.7350    1.4270 O   0  0  0  0  0  0
   34.9560   19.7570    0.5160 O   0  5  0  0  0  0
   29.9130   22.4910   -2.2940 C   0  0  0  0  0  0
   28.7790   22.5530   -3.3240 C   0  0  1  0  0  0
   28.1780   23.8750   -3.2700 O   0  0  0  0  0  0
   29.2820   22.3550   -4.7600 C   0  0  1  0  0  0
   28.4320   21.4190   -5.4340 O   0  0  0  0  0  0
   29.1710   23.7270   -5.4020 C   0  0  1  0  0  0
   28.7690   23.5900   -6.7710 O   0  0  0  0  0  0
   28.0440   24.3860   -4.6220 C   0  0  2  0  0  0
   28.0850   25.8850   -4.6170 N   0  0  0  0  0  0
   29.1840   26.6590   -4.5410 C   0  0  0  0  0  0
   28.8160   27.9420   -4.4650 N   0  0  0  0  0  0
   27.4860   27.9840   -4.4980 C   0  0  0  0  0  0
   26.5480   29.0200   -4.4490 C   0  0  0  0  0  0
   26.9470   30.2940   -4.3680 N   0  0  0  0  0  0
   25.2240   28.7190   -4.5010 N   0  0  0  0  0  0
   24.8080   27.4470   -4.6010 C   0  0  0  0  0  0
   25.6890   26.4410   -4.6500 N   0  0  0  0  0  0
   27.0230   26.6820   -4.5990 C   0  0  0  0  0  0
   31.0934   20.7307    2.5309 H   0  0  0  0  0  0
   32.0367   22.0306    1.7265 H   0  0  0  0  0  0
   32.6777   21.2404    3.2069 H   0  0  0  0  0  0
   32.8537   19.1501    2.0410 H   0  0  0  0  0  0
   32.5172   19.1367   -0.4953 H   0  0  0  0  0  0
   31.0003   19.3430    0.4444 H   0  0  0  0  0  0
   31.1066   21.7993    0.0412 H   0  0  0  0  0  0
   32.5916   21.5600   -0.9406 H   0  0  0  0  0  0
   29.5059   22.8307   -1.3302 H   0  0  0  0  0  0
   30.7006   23.1843   -2.6242 H   0  0  0  0  0  0
   28.0316   21.7869   -3.0701 H   0  0  0  0  0  0
   30.2886   21.9191   -4.8425 H   0  0  0  0  0  0
   28.3897   20.3728   -5.0969 H   0  0  0  0  0  0
   30.1140   24.2923   -5.4372 H   0  0  0  0  0  0
   29.4521   23.1323   -7.5017 H   0  0  0  0  0  0
   27.0641   24.1384   -5.0562 H   0  0  0  0  0  0
   30.2120   26.2966   -4.5414 H   0  0  0  0  0  0
   28.0200   30.5327   -4.3261 H   0  0  0  0  0  0
   26.2022   31.1031   -4.3432 H   0  0  0  0  0  0
   23.7405   27.2309   -4.6428 H   0  0  0  0  0  0
  1  2  1  0  0  0
  1 27  1  0  0  0
  1 28  1  0  0  0
  1 29  1  0  0  0
  2  3  1  0  0  0
  2  6  1  0  0  0
  2 30  1  0  0  0
  3  4  1  0  0  0
  3 31  1  0  0  0
  3 32  1  0  0  0
  4  5  1  0  0  0
  4 33  1  0  0  0
  4 34  1  0  0  0
  5  9  1  0  0  0
  6  7  2  0  0  0
  6  8  1  0  0  0
  9 10  1  0  0  0
  9 35  1  0  0  0
  9 36  1  0  0  0
 10 11  1  0  0  0
 10 12  1  0  0  0
 10 37  1  0  0  0
 11 16  1  0  0  0
 12 13  1  0  0  0
 12 14  1  0  0  0
 12 38  1  0  0  0
 13 39  1  0  0  0
 14 15  1  0  0  0
 14 16  1  0  0  0
 14 40  1  0  0  0
 15 41  1  0  0  0
 16 17  1  0  0  0
 16 42  1  0  0  0
 17 18  1  0  0  0
 17 26  1  0  0  0
 18 19  2  0  0  0
 18 43  1  0  0  0
 19 20  1  0  0  0
 20 21  2  0  0  0
 20 26  1  0  0  0
 21 22  1  0  0  0
 21 23  1  0  0  0
 22 44  1  0  0  0
 22 45  1  0  0  0
 23 24  2  0  0  0
 24 25  1  0  0  0
 24 46  1  0  0  0
 25 26  2  0  0  0
M  CHG  2   1   1   8  -1
M  END
> <s_m_source_file>
../1nw7_ligand.sdf

> <i_m_source_file_index>
1

> <s_epik_input>
Tz1DKFtPSF0pW0NAQEhdKFtOSDMrXSlbQ0gyXVtDSDJdU1tDSDJdW0NASF0xT1tDQEhdKFtDQEhdKFtPSF0pW0NAQEhdMVtPSF0pbihbY0hdbjIpYyhjMjMpbltjSF1uYzNbTkgyXQ==

> <s_epik_cmdline>
J2VwaWtfYXBwJywgJy1pbWFlJywgJ2xpZ2FuZF9wcm8ubWFlJywgJy1vbWFlJywgJ2xpZ2FuZF9wcmVwLm1hZScsICctbXMnLCAnMScsICctcGgnLCAnNycsICctcGh0JywgJzAuNScsICctbnQn

> <r_lp_tautomer_probability>
1

> <r_epik_Ionization_Penalty>
  0.0026

> <r_epik_Ionization_Penalty_Charging>
  0.0022

> <r_epik_Ionization_Penalty_Neutral>
  0.0004

> <r_epik_State_Penalty>
 -0.0000

> <r_epik_Charging_Adjusted_Penalty>
0.00216156469931729

> <i_epik_Tot_Q>
0

> <i_epik_Tot_abs_Q>
2

> <s_epik_Chemistry_Notes>
This compound contains an acetal/aminal-like group ( X-CH(R)-Y where X, Y are N, S, or O) that may be acid/base labile, releasing an aldehyde.

$$$$
