1nwl_ligand
                    3D
 Schrodinger Suite 2020-3.
 57 58  0  0  1  0            999 V2000
   49.0630   34.6970   40.0850 O   0  5  0  0  0  0
   64.6830   31.1400   31.4810 C   0  0  0  0  0  0
   64.0760   30.2340   32.5470 C   0  0  0  0  0  0
   62.7840   30.3600   32.8530 N   0  0  0  0  0  0
   64.7920   29.4170   33.1020 O   0  0  0  0  0  0
   49.3350   33.4820   40.1650 C   0  0  0  0  0  0
   49.5920   32.9380   41.2570 O   0  0  0  0  0  0
   49.6870   32.7420   38.9110 C   0  0  0  0  0  0
   48.8090   31.8350   38.4190 N   0  0  0  0  0  0
   49.0880   31.1520   37.2990 C   0  0  0  0  0  0
   50.2930   31.3780   36.6360 C   0  0  0  0  0  0
   51.1660   32.2750   37.1210 N   0  0  0  0  0  0
   50.8940   32.9710   38.2530 C   0  0  0  0  0  0
   51.9830   33.8610   38.8560 C   0  0  0  0  0  0
   52.1610   33.8640   40.0630 O   0  0  0  0  0  0
   52.9390   34.4840   37.9610 N   0  0  0  0  0  0
   54.3650   34.1790   38.0290 C   0  0  2  0  0  0
   55.1120   35.4000   37.4790 C   0  0  0  0  0  0
   54.9140   35.6230   35.9770 C   0  0  0  0  0  0
   54.6070   32.9360   37.1670 C   0  0  0  0  0  0
   54.4090   33.1840   35.6690 C   0  0  0  0  0  0
   55.2330   34.3690   35.1610 C   0  0  1  0  0  0
   54.9470   34.6260   33.6830 C   0  0  0  0  0  0
   53.8030   34.6500   33.2500 O   0  0  0  0  0  0
   56.1040   34.8420   32.8380 N   0  0  0  0  0  0
   56.5060   33.8630   31.8480 C   0  0  0  0  0  0
   57.6630   33.0370   32.3930 C   0  0  0  0  0  0
   60.5830   32.4370   32.7560 S   0  0  0  0  0  0
   61.7380   30.1680   31.8640 C   0  0  0  0  0  0
   60.4070   30.7290   32.3560 C   0  0  0  0  0  0
   59.1630   33.5190   31.8580 S   0  0  0  0  0  0
   63.9068   31.8115   31.0852 H   0  0  0  0  0  0
   65.0871   30.5247   30.6636 H   0  0  0  0  0  0
   65.4929   31.7373   31.9253 H   0  0  0  0  0  0
   62.5204   30.6173   33.8895 H   0  0  0  0  0  0
   48.3763   30.4242   36.9094 H   0  0  0  0  0  0
   50.5262   30.8271   35.7248 H   0  0  0  0  0  0
   52.5652   35.2028   37.2170 H   0  0  0  0  0  0
   54.6714   33.9806   39.0667 H   0  0  0  0  0  0
   54.7599   36.3070   37.9922 H   0  0  0  0  0  0
   56.1916   35.2773   37.6506 H   0  0  0  0  0  0
   53.8676   35.9008   35.7824 H   0  0  0  0  0  0
   55.5775   36.4313   35.6357 H   0  0  0  0  0  0
   55.6403   32.5866   37.3093 H   0  0  0  0  0  0
   53.9070   32.1414   37.4647 H   0  0  0  0  0  0
   54.7156   32.2903   35.1057 H   0  0  0  0  0  0
   53.3484   33.3970   35.4696 H   0  0  0  0  0  0
   56.2996   34.1257   35.2759 H   0  0  0  0  0  0
   56.6810   35.7707   32.9590 H   0  0  0  0  0  0
   55.6573   33.2010   31.6213 H   0  0  0  0  0  0
   56.8239   34.3790   30.9300 H   0  0  0  0  0  0
   57.6768   33.1048   33.4908 H   0  0  0  0  0  0
   57.5373   31.9865   32.0921 H   0  0  0  0  0  0
   62.0146   30.6842   30.9328 H   0  0  0  0  0  0
   61.6146   29.0933   31.6647 H   0  0  0  0  0  0
   60.0890   30.1738   33.2508 H   0  0  0  0  0  0
   59.6513   30.6136   31.5651 H   0  0  0  0  0  0
  1  6  1  0  0  0
  2  3  1  0  0  0
  2 32  1  0  0  0
  2 33  1  0  0  0
  2 34  1  0  0  0
  3  4  1  0  0  0
  3  5  2  0  0  0
  4 29  1  0  0  0
  4 35  1  0  0  0
  6  7  2  0  0  0
  6  8  1  0  0  0
  8  9  2  0  0  0
  8 13  1  0  0  0
  9 10  1  0  0  0
 10 11  2  0  0  0
 10 36  1  0  0  0
 11 12  1  0  0  0
 11 37  1  0  0  0
 12 13  2  0  0  0
 13 14  1  0  0  0
 14 15  2  0  0  0
 14 16  1  0  0  0
 16 17  1  0  0  0
 16 38  1  0  0  0
 17 18  1  0  0  0
 17 20  1  0  0  0
 17 39  1  0  0  0
 18 19  1  0  0  0
 18 40  1  0  0  0
 18 41  1  0  0  0
 19 22  1  0  0  0
 19 42  1  0  0  0
 19 43  1  0  0  0
 20 21  1  0  0  0
 20 44  1  0  0  0
 20 45  1  0  0  0
 21 22  1  0  0  0
 21 46  1  0  0  0
 21 47  1  0  0  0
 22 23  1  0  0  0
 22 48  1  0  0  0
 23 24  2  0  0  0
 23 25  1  0  0  0
 25 26  1  0  0  0
 25 49  1  0  0  0
 26 27  1  0  0  0
 26 50  1  0  0  0
 26 51  1  0  0  0
 27 31  1  0  0  0
 27 52  1  0  0  0
 27 53  1  0  0  0
 28 30  1  0  0  0
 28 31  1  0  0  0
 29 30  1  0  0  0
 29 54  1  0  0  0
 29 55  1  0  0  0
 30 56  1  0  0  0
 30 57  1  0  0  0
M  CHG  1   1  -1
M  END
> <s_m_source_file>
../1nwl_ligand.sdf

> <i_m_source_file_index>
1

> <s_epik_input>
W09IXUMoPU8pYzFuW2NIXVtjSF1uYzFDKD1PKVtOSF1bQ0BASF0yW0NIMl1bQ0gyXVtDQEBIXShbQ0gyXVtDSDJdMilDKD1PKVtOSF1bQ0gyXVtDSDJdU1NbQ0gyXVtDSDJdW05IXUMoPU8pW0NIM10=

> <s_epik_cmdline>
J2VwaWtfYXBwJywgJy1pbWFlJywgJ2xpZ2FuZF9wcm8ubWFlJywgJy1vbWFlJywgJ2xpZ2FuZF9wcmVwLm1hZScsICctbXMnLCAnMScsICctcGgnLCAnNycsICctcGh0JywgJzAuNScsICctbnQn

> <r_lp_tautomer_probability>
1

> <r_epik_Ionization_Penalty>
  0.0000

> <r_epik_Ionization_Penalty_Charging>
  0.0000

> <r_epik_Ionization_Penalty_Neutral>
  0.0000

> <r_epik_State_Penalty>
 -0.0000

> <r_epik_Charging_Adjusted_Penalty>
3.27364283484255e-05

> <i_epik_Tot_Q>
-1

> <i_epik_Tot_abs_Q>
1

$$$$
