1nxy_ligand
                    3D
 Schrodinger Suite 2020-3.
 35 36  0  0  1  0            999 V2000
   32.7700    6.1980   22.2480 C   0  0  0  0  0  0
   31.3800    6.4350   22.0450 C   0  0  0  0  0  0
   30.9840    7.6690   22.5300 C   0  0  0  0  0  0
   32.2980    8.5170   23.2260 S   0  0  0  0  0  0
   33.3780    7.2410   22.8710 C   0  0  0  0  0  0
   34.8700    7.2730   23.2140 C   0  0  0  0  0  0
   35.5380    8.5890   22.7550 C   0  0  0  0  0  0
   36.6010    8.9870   23.2150 O   0  0  0  0  0  0
   34.8470    9.2790   21.7930 N   0  0  0  0  0  0
   35.3570   10.5530   21.2690 C   0  0  2  0  0  0
   34.4390   11.7050   21.8790 B   0  0  0  0  0  0
   35.0520   12.8950   22.4930 O   0  0  0  0  0  0
   32.9660   11.5690   21.8750 O   0  0  0  0  0  0
   35.3020   10.5200   19.7470 C   0  0  0  0  0  0
   35.7760    9.3810   19.0330 C   0  0  0  0  0  0
   34.7640   11.6340   19.0350 C   0  0  0  0  0  0
   34.6980   11.6040   17.6090 C   0  0  0  0  0  0
   35.1720   10.4560   16.8930 C   0  0  0  0  0  0
   35.7150    9.3400   17.6080 C   0  0  0  0  0  0
   36.2230    8.1130   16.8640 C   0  0  0  0  0  0
   36.5550    7.0980   17.5260 O   0  5  0  0  0  0
   36.2880    8.1380   15.6100 O   0  0  0  0  0  0
   33.2846    5.2878   21.9400 H   0  0  0  0  0  0
   30.7063    5.7263   21.5634 H   0  0  0  0  0  0
   29.9650    8.0523   22.4758 H   0  0  0  0  0  0
   34.9979    7.1830   24.3028 H   0  0  0  0  0  0
   35.3791    6.4355   22.7146 H   0  0  0  0  0  0
   33.8999    8.8679   21.4135 H   0  0  0  0  0  0
   36.4158   10.6637   21.5460 H   0  0  0  0  0  0
   36.1462   13.0073   22.5021 H   0  0  0  0  0  0
   32.4965   10.6847   21.4194 H   0  0  0  0  0  0
   36.1888    8.5337   19.5805 H   0  0  0  0  0  0
   34.4038   12.5069   19.5794 H   0  0  0  0  0  0
   34.2871   12.4542   17.0646 H   0  0  0  0  0  0
   35.1192   10.4324   15.8045 H   0  0  0  0  0  0
  1  2  1  0  0  0
  1  5  2  0  0  0
  1 23  1  0  0  0
  2  3  2  0  0  0
  2 24  1  0  0  0
  3  4  1  0  0  0
  3 25  1  0  0  0
  4  5  1  0  0  0
  5  6  1  0  0  0
  6  7  1  0  0  0
  6 26  1  0  0  0
  6 27  1  0  0  0
  7  8  2  0  0  0
  7  9  1  0  0  0
  9 10  1  0  0  0
  9 28  1  0  0  0
 10 11  1  0  0  0
 10 14  1  0  0  0
 10 29  1  0  0  0
 11 12  1  0  0  0
 11 13  1  0  0  0
 12 30  1  0  0  0
 13 31  1  0  0  0
 14 15  2  0  0  0
 14 16  1  0  0  0
 15 19  1  0  0  0
 15 32  1  0  0  0
 16 17  2  0  0  0
 16 33  1  0  0  0
 17 18  1  0  0  0
 17 34  1  0  0  0
 18 19  2  0  0  0
 18 35  1  0  0  0
 19 20  1  0  0  0
 20 21  1  0  0  0
 20 22  2  0  0  0
M  CHG  1  21  -1
M  END
> <s_m_source_file>
../1nxy_ligand.sdf

> <i_m_source_file_index>
1

> <s_epik_input>
czFbY0hdW2NIXVtjSF1jMVtDSDJdQyg9TylbTkhdW0NASF0oQihbT0hdKVtPSF0pYzJbY0hdYyhDKD1PKVtPSF0pW2NIXVtjSF1bY0hdMg==

> <s_epik_cmdline>
J2VwaWtfYXBwJywgJy1pbWFlJywgJ2xpZ2FuZF9wcm8ubWFlJywgJy1vbWFlJywgJ2xpZ2FuZF9wcmVwLm1hZScsICctbXMnLCAnMScsICctcGgnLCAnNycsICctcGh0JywgJzAuNScsICctbnQn

> <r_lp_tautomer_probability>
1

> <r_epik_Ionization_Penalty>
  0.0009

> <r_epik_Ionization_Penalty_Charging>
  0.0009

> <r_epik_Ionization_Penalty_Neutral>
  0.0000

> <r_epik_State_Penalty>
 -0.0000

> <r_epik_Charging_Adjusted_Penalty>
0.000872034526607298

> <i_epik_Tot_Q>
-1

> <i_epik_Tot_abs_Q>
1

> <s_epik_Chemistry_Notes>
This compound contains a Lewis acid (boronic acid) which adds nucleophiles to form tetrahedral complexes, lowering the experimental pKa

$$$$
