1ny2_ligand
                    3D
 Schrodinger Suite 2020-3.
 62 63  0  0  1  0            999 V2000
   36.1170   36.3640    4.8030 N   0  3  0  0  0  0
   35.8490   37.7380    5.2290 C   0  0  2  0  0  0
   35.7220   38.7130    4.0620 C   0  0  0  0  0  0
   36.4200   39.8060    4.1540 O   0  0  0  0  0  0
   36.9400   38.2470    6.2070 C   0  0  0  0  0  0
   36.5200   38.5600    7.6140 C   0  0  0  0  0  0
   35.3070   39.3540    7.8150 C   0  0  0  0  0  0
   35.3310   40.7580    8.0730 N   0  0  0  0  0  0
   35.3360   41.6330    9.0630 C   0  0  0  0  0  0
   35.3160   41.3610   10.3820 N   0  3  0  0  0  0
   35.3690   42.9590    8.7740 N   0  0  0  0  0  0
   34.7900   38.4870    3.1250 N   0  0  0  0  0  0
   34.6230   39.3280    1.9390 C   0  0  2  0  0  0
   33.9030   40.6240    2.1560 C   0  0  0  0  0  0
   32.8600   40.6840    2.7630 O   0  0  0  0  0  0
   33.9550   38.4520    0.8680 C   0  0  0  0  0  0
   34.1710   37.0540    1.3990 C   0  0  0  0  0  0
   34.0210   37.2510    2.9350 C   0  0  0  0  0  0
   34.5050   41.6800    1.6430 N   0  0  0  0  0  0
   33.9040   43.0220    1.5980 C   0  0  2  0  0  0
   32.8600   43.0590    0.4340 C   0  0  0  0  0  0
   32.9680   42.4120   -0.6460 O   0  0  0  0  0  0
   35.1210   43.9260    1.3020 C   0  0  0  0  0  0
   35.8030   43.0820    0.2180 C   0  0  0  0  0  0
   35.8080   41.6790    0.8970 C   0  0  0  0  0  0
   31.8680   43.9370    0.6770 N   0  0  0  0  0  0
   30.7580   44.2180   -0.2360 C   0  0  0  0  0  0
   31.1530   45.4580   -1.0650 C   0  0  0  0  0  0
   32.1810   45.3900   -1.8350 O   0  5  0  0  0  0
   30.4793   46.5201   -0.9889 O   0  0  0  0  0  0
   35.3273   36.0337    4.1121 H   0  0  0  0  0  0
   36.1340   35.7040    5.6829 H   0  0  0  0  0  0
   37.0911   36.3214    4.2938 H   0  0  0  0  0  0
   34.8679   37.6504    5.7187 H   0  0  0  0  0  0
   37.7302   37.4877    6.3022 H   0  0  0  0  0  0
   37.3735   39.1806    5.8191 H   0  0  0  0  0  0
   36.3381   37.6223    8.1595 H   0  0  0  0  0  0
   37.3166   39.1280    8.1167 H   0  0  0  0  0  0
   34.6742   39.2904    6.9175 H   0  0  0  0  0  0
   34.7535   38.9647    8.6822 H   0  0  0  0  0  0
   35.3548   41.4708    7.2355 H   0  0  0  0  0  0
   35.2888   40.3172   10.7280 H   0  0  0  0  0  0
   35.3876   43.2932    7.7262 H   0  0  0  0  0  0
   35.3772   43.6992    9.5876 H   0  0  0  0  0  0
   35.6302   39.6753    1.6651 H   0  0  0  0  0  0
   32.8903   38.7170    0.7894 H   0  0  0  0  0  0
   34.4470   38.6191   -0.1016 H   0  0  0  0  0  0
   33.4098   36.3804    0.9784 H   0  0  0  0  0  0
   35.1722   36.7023    1.1093 H   0  0  0  0  0  0
   34.4718   36.4435    3.5306 H   0  0  0  0  0  0
   32.9827   37.4113    3.2611 H   0  0  0  0  0  0
   33.3917   43.2874    2.5345 H   0  0  0  0  0  0
   34.7714   44.9096    0.9551 H   0  0  0  0  0  0
   35.7165   44.0509    2.2184 H   0  0  0  0  0  0
   35.2076   43.1214   -0.7061 H   0  0  0  0  0  0
   36.8098   43.4799    0.0228 H   0  0  0  0  0  0
   36.6374   41.5499    1.6079 H   0  0  0  0  0  0
   35.8147   40.8520    0.1718 H   0  0  0  0  0  0
   31.9323   44.4607    1.6422 H   0  0  0  0  0  0
   30.5938   43.3501   -0.8916 H   0  0  0  0  0  0
   29.8457   44.4157    0.3459 H   0  0  0  0  0  0
   35.3269   42.1827   11.1132 H   0  0  0  0  0  0
  1  2  1  0  0  0
  1 31  1  0  0  0
  1 32  1  0  0  0
  1 33  1  0  0  0
  2  3  1  0  0  0
  2  5  1  0  0  0
  2 34  1  0  0  0
  3  4  2  0  0  0
  3 12  1  0  0  0
  5  6  1  0  0  0
  5 35  1  0  0  0
  5 36  1  0  0  0
  6  7  1  0  0  0
  6 37  1  0  0  0
  6 38  1  0  0  0
  7  8  1  0  0  0
  7 39  1  0  0  0
  7 40  1  0  0  0
  8  9  1  0  0  0
  8 41  1  0  0  0
  9 10  2  0  0  0
  9 11  1  0  0  0
 10 42  1  0  0  0
 10 62  1  0  0  0
 11 43  1  0  0  0
 11 44  1  0  0  0
 12 13  1  0  0  0
 12 18  1  0  0  0
 13 14  1  0  0  0
 13 16  1  0  0  0
 13 45  1  0  0  0
 14 15  2  0  0  0
 14 19  1  0  0  0
 16 17  1  0  0  0
 16 46  1  0  0  0
 16 47  1  0  0  0
 17 18  1  0  0  0
 17 48  1  0  0  0
 17 49  1  0  0  0
 18 50  1  0  0  0
 18 51  1  0  0  0
 19 20  1  0  0  0
 19 25  1  0  0  0
 20 21  1  0  0  0
 20 23  1  0  0  0
 20 52  1  0  0  0
 21 22  2  0  0  0
 21 26  1  0  0  0
 23 24  1  0  0  0
 23 53  1  0  0  0
 23 54  1  0  0  0
 24 25  1  0  0  0
 24 55  1  0  0  0
 24 56  1  0  0  0
 25 57  1  0  0  0
 25 58  1  0  0  0
 26 27  1  0  0  0
 26 59  1  0  0  0
 27 28  1  0  0  0
 27 60  1  0  0  0
 27 61  1  0  0  0
 28 29  1  0  0  0
 28 30  2  0  0  0
M  CHG  3   1   1  10   1  29  -1
M  END
> <s_m_source_file>
../1ny2_ligand.sdf

> <i_m_source_file_index>
1

> <s_epik_input>
W0hdL049QyhbTkgyXSlcW05IXVtDSDJdW0NIMl1bQ0gyXVtDQEhdKFtOSDMrXSlDKD1PKU4xW0NAQEhdKFtDSDJdW0NIMl1bQ0gyXTEpQyg9TylOMltDQEBIXShbQ0gyXVtDSDJdW0NIMl0yKUMoPU8pW05IXVtDSDJdQyg9TylbT0hd

> <s_epik_cmdline>
J2VwaWtfYXBwJywgJy1pbWFlJywgJ2xpZ2FuZF9wcm8ubWFlJywgJy1vbWFlJywgJ2xpZ2FuZF9wcmVwLm1hZScsICctbXMnLCAnMScsICctcGgnLCAnNycsICctcGh0JywgJzAuNScsICctbnQn

> <r_epik_Ionization_Penalty>
  0.1268

> <r_epik_Ionization_Penalty_Charging>
  0.1268

> <r_epik_Ionization_Penalty_Neutral>
  0.0000

> <r_epik_State_Penalty>
  0.1161

> <r_epik_Charging_Adjusted_Penalty>
0.242860657817522

> <i_epik_Tot_Q>
1

> <i_epik_Tot_abs_Q>
3

> <s_epik_Chemistry_Notes>
This compound has an imine and may undergo hydrolysis.

$$$$
