1nyx_ligand
                    3D
 Schrodinger Suite 2020-3.
 55 58  0  0  1  0            999 V2000
   18.1290   63.1530   21.2310 O   0  0  0  0  0  0
   18.9010   63.0530   20.2510 C   0  0  0  0  0  0
   19.9750   62.7220   20.8990 O   0  5  0  0  0  0
   18.7300   63.2370   18.9670 C   0  0  1  0  0  0
   20.0370   63.7800   18.3210 O   0  0  0  0  0  0
   19.8480   65.0350   17.7230 C   0  0  0  0  0  0
   21.1320   65.5140   17.1070 C   0  0  0  0  0  0
   18.2960   62.1510   18.1620 C   0  0  0  0  0  0
   17.8290   61.8270   16.8800 C   0  0  0  0  0  0
   18.8240   61.5670   15.9080 C   0  0  0  0  0  0
   18.4500   61.2540   14.5860 C   0  0  0  0  0  0
   17.0820   61.2000   14.2370 C   0  0  0  0  0  0
   16.7120   60.9010   12.9320 O   0  0  0  0  0  0
   16.2430   62.0960   12.3240 C   0  0  0  0  0  0
   16.0920   61.9160   10.8160 C   0  0  0  0  0  0
   15.8650   63.2260   10.1840 N   0  0  0  0  0  0
   14.5870   63.7110    9.9910 C   0  0  0  0  0  0
   14.4060   65.1380    9.8510 C   0  0  0  0  0  0
   15.4990   65.9450    9.9100 O   0  0  0  0  0  0
   16.7290   65.4170    9.6440 C   0  0  0  0  0  0
   16.9260   63.9950    9.7850 C   0  0  0  0  0  0
   18.2120   63.4480    9.5100 C   0  0  0  0  0  0
   19.2720   64.2820    9.1050 C   0  0  0  0  0  0
   19.0680   65.6740    8.9700 C   0  0  0  0  0  0
   17.8020   66.2370    9.2380 C   0  0  0  0  0  0
   13.1140   65.6760    9.6600 C   0  0  0  0  0  0
   11.9920   64.8180    9.6070 C   0  0  0  0  0  0
   12.1550   63.4170    9.7410 C   0  0  0  0  0  0
   13.4400   62.8660    9.9320 C   0  0  0  0  0  0
   16.0900   61.4570   15.2210 C   0  0  0  0  0  0
   16.4690   61.7680   16.5330 C   0  0  0  0  0  0
   17.8350   63.8603   19.1102 H   0  0  0  0  0  0
   19.0800   64.9559   16.9395 H   0  0  0  0  0  0
   19.5217   65.7586   18.4845 H   0  0  0  0  0  0
   20.9709   66.4978   16.6419 H   0  0  0  0  0  0
   21.4616   64.7961   16.3415 H   0  0  0  0  0  0
   21.9034   65.5988   17.8866 H   0  0  0  0  0  0
   19.1054   61.4110   18.0773 H   0  0  0  0  0  0
   17.4159   61.6804   18.6246 H   0  0  0  0  0  0
   19.8783   61.6088   16.1815 H   0  0  0  0  0  0
   19.2140   61.0541   13.8347 H   0  0  0  0  0  0
   15.2640   62.3634   12.7482 H   0  0  0  0  0  0
   16.9591   62.9092   12.5133 H   0  0  0  0  0  0
   17.0086   61.4661   10.4068 H   0  0  0  0  0  0
   15.2361   61.2566   10.6093 H   0  0  0  0  0  0
   18.3770   62.3756    9.6138 H   0  0  0  0  0  0
   20.2518   63.8531    8.8952 H   0  0  0  0  0  0
   19.8920   66.3154    8.6575 H   0  0  0  0  0  0
   17.6528   67.3114    9.1306 H   0  0  0  0  0  0
   12.9822   66.7528    9.5535 H   0  0  0  0  0  0
   10.9960   65.2364    9.4623 H   0  0  0  0  0  0
   11.2846   62.7624    9.6964 H   0  0  0  0  0  0
   13.5565   61.7872   10.0351 H   0  0  0  0  0  0
   15.0339   61.4121   14.9549 H   0  0  0  0  0  0
   15.7067   61.9648   17.2868 H   0  0  0  0  0  0
  1  2  2  0  0  0
  2  3  1  0  0  0
  2  4  1  0  0  0
  4  5  1  0  0  0
  4  8  1  0  0  0
  4 32  1  0  0  0
  5  6  1  0  0  0
  6  7  1  0  0  0
  6 33  1  0  0  0
  6 34  1  0  0  0
  7 35  1  0  0  0
  7 36  1  0  0  0
  7 37  1  0  0  0
  8  9  1  0  0  0
  8 38  1  0  0  0
  8 39  1  0  0  0
  9 10  2  0  0  0
  9 31  1  0  0  0
 10 11  1  0  0  0
 10 40  1  0  0  0
 11 12  2  0  0  0
 11 41  1  0  0  0
 12 13  1  0  0  0
 12 30  1  0  0  0
 13 14  1  0  0  0
 14 15  1  0  0  0
 14 42  1  0  0  0
 14 43  1  0  0  0
 15 16  1  0  0  0
 15 44  1  0  0  0
 15 45  1  0  0  0
 16 17  1  0  0  0
 16 21  1  0  0  0
 17 18  2  0  0  0
 17 29  1  0  0  0
 18 19  1  0  0  0
 18 26  1  0  0  0
 19 20  1  0  0  0
 20 21  2  0  0  0
 20 25  1  0  0  0
 21 22  1  0  0  0
 22 23  2  0  0  0
 22 46  1  0  0  0
 23 24  1  0  0  0
 23 47  1  0  0  0
 24 25  2  0  0  0
 24 48  1  0  0  0
 25 49  1  0  0  0
 26 27  2  0  0  0
 26 50  1  0  0  0
 27 28  1  0  0  0
 27 51  1  0  0  0
 28 29  2  0  0  0
 28 52  1  0  0  0
 29 53  1  0  0  0
 30 31  2  0  0  0
 30 54  1  0  0  0
 31 55  1  0  0  0
M  CHG  1   3  -1
M  END
> <s_m_source_file>
../1nyx_ligand.sdf

> <i_m_source_file_index>
1

> <s_epik_input>
W0NIM11bQ0gyXU9bQ0BIXShDKD1PKVtPSF0pW0NIMl1jMVtjSF1bY0hdYyhbY0hdW2NIXTEpT1tDSDJdW0NIMl1OMmMoW2NIXVtjSF1bY0hdW2NIXTMpYzNPYyhjMjQpW2NIXVtjSF1bY0hdW2NIXTQ=

> <s_epik_cmdline>
J2VwaWtfYXBwJywgJy1pbWFlJywgJ2xpZ2FuZF9wcm8ubWFlJywgJy1vbWFlJywgJ2xpZ2FuZF9wcmVwLm1hZScsICctbXMnLCAnMScsICctcGgnLCAnNycsICctcGh0JywgJzAuNScsICctbnQn

> <r_lp_tautomer_probability>
1

> <r_epik_Ionization_Penalty>
  0.0003

> <r_epik_Ionization_Penalty_Charging>
  0.0003

> <r_epik_Ionization_Penalty_Neutral>
  0.0000

> <r_epik_State_Penalty>
 -0.0000

> <r_epik_Charging_Adjusted_Penalty>
0.000345995223862365

> <i_epik_Tot_Q>
-1

> <i_epik_Tot_abs_Q>
1

$$$$
