1nz7_ligand
                    3D
 Schrodinger Suite 2020-3.
 84 85  0  0  1  0            999 V2000
   35.7960   30.0420   23.4430 O   0  5  0  0  0  0
   34.8560   29.2950   23.7270 C   0  0  0  0  0  0
   33.9830   29.6860   24.4570 O   0  0  0  0  0  0
   34.7810   27.8570   23.1240 C   0  0  0  0  0  0
   35.0950   26.9380   23.9000 O   0  0  0  0  0  0
   34.3740   27.6280   21.7530 N   0  0  0  0  0  0
   34.3520   26.3200   21.1990 C   0  0  0  0  0  0
   33.1090   25.9260   20.5740 C   0  0  0  0  0  0
   32.9290   24.6680   19.9780 C   0  0  0  0  0  0
   33.9690   23.7240   19.9810 C   0  0  0  0  0  0
   35.2050   24.0410   20.5750 C   0  0  0  0  0  0
   35.4480   25.3150   21.2040 C   0  0  0  0  0  0
   36.8440   25.4580   21.7700 C   0  0  0  0  0  0
   37.6800   24.5540   21.7180 O   0  5  0  0  0  0
   37.2040   26.4580   22.3010 O   0  0  0  0  0  0
   33.8780   28.7270   20.9920 C   0  0  0  0  0  0
   32.5840   29.2390   21.3870 C   0  0  0  0  0  0
   31.9140   30.3380   20.7780 C   0  0  0  0  0  0
   32.5260   31.0410   19.7040 C   0  0  0  0  0  0
   33.8780   30.4990   19.3010 C   0  0  0  0  0  0
   34.5700   29.3730   19.9080 C   0  0  0  0  0  0
   35.9420   28.8750   19.4460 C   0  0  0  0  0  0
   37.0400   29.9520   19.3760 C   0  0  0  0  0  0
   31.9740   32.2570   18.7980 C   0  0  0  0  0  0
   31.1950   31.4670   17.6480 C   0  0  2  0  0  0
   31.2010   32.2800   16.4480 N   0  0  0  0  0  0
   31.1170   33.3250   15.6150 C   0  0  0  0  0  0
   31.5570   32.9620   14.4230 O   0  0  0  0  0  0
   30.8810   34.7290   15.9670 C   0  0  0  0  0  0
   29.9780   30.5910   17.9600 C   0  0  0  0  0  0
   30.3820   29.4080   17.8860 O   0  0  0  0  0  0
   28.7940   31.0600   18.1140 N   0  0  0  0  0  0
   27.6640   30.2030   18.2510 C   0  0  0  0  0  0
   26.7540   30.7360   19.3630 C   0  0  0  0  0  0
   27.4040   30.6850   20.7750 C   0  0  0  0  0  0
   26.4990   31.2100   21.9140 C   0  0  0  0  0  0
   25.3580   30.2310   22.2820 C   0  0  0  0  0  0
   25.3270   29.0480   22.6160 O   0  0  0  0  0  0
   24.2710   31.0360   22.1280 N   0  0  0  0  0  0
   22.8930   30.5330   22.2650 C   0  0  2  0  0  0
   22.6240   29.4330   21.2090 C   0  0  0  0  0  0
   22.1050   28.3740   21.5520 O   0  5  0  0  0  0
   22.9420   29.6080   20.0560 O   0  0  0  0  0  0
   21.9070   31.7010   22.0810 C   0  0  0  0  0  0
   21.9880   32.7600   23.1930 C   0  0  0  0  0  0
   21.0650   32.2890   24.6740 S   0  0  0  0  0  0
   19.6410   31.7210   25.0580 C   0  0  0  0  0  0
   32.2797   26.6333   20.5654 H   0  0  0  0  0  0
   31.9759   24.4221   19.5098 H   0  0  0  0  0  0
   33.8189   22.7461   19.5234 H   0  0  0  0  0  0
   36.0038   23.2996   20.5589 H   0  0  0  0  0  0
   32.0814   28.7436   22.2177 H   0  0  0  0  0  0
   30.9300   30.6410   21.1358 H   0  0  0  0  0  0
   34.3833   31.0005   18.4756 H   0  0  0  0  0  0
   36.3045   28.1025   20.1402 H   0  0  0  0  0  0
   35.8562   28.4488   18.4356 H   0  0  0  0  0  0
   37.9808   29.4948   19.0357 H   0  0  0  0  0  0
   37.1860   30.3922   20.3735 H   0  0  0  0  0  0
   36.7376   30.7384   18.6688 H   0  0  0  0  0  0
   31.3194   32.8991   19.4056 H   0  0  0  0  0  0
   32.8219   32.8487   18.4224 H   0  0  0  0  0  0
   31.7318   30.5637   17.3225 H   0  0  0  0  0  0
   31.4118   31.8185   15.4720 H   0  0  0  0  0  0
   30.5190   34.7912   17.0039 H   0  0  0  0  0  0
   30.1268   35.1552   15.2891 H   0  0  0  0  0  0
   31.8202   35.2937   15.8720 H   0  0  0  0  0  0
   28.6625   32.1518   18.1391 H   0  0  0  0  0  0
   27.1078   30.1752   17.3024 H   0  0  0  0  0  0
   28.0023   29.1882   18.5075 H   0  0  0  0  0  0
   26.4985   31.7857   19.1561 H   0  0  0  0  0  0
   25.8332   30.1355   19.4027 H   0  0  0  0  0  0
   27.6609   29.6446   21.0230 H   0  0  0  0  0  0
   28.3164   31.2994   20.7811 H   0  0  0  0  0  0
   27.1042   31.3717   22.8182 H   0  0  0  0  0  0
   26.0372   32.1600   21.6071 H   0  0  0  0  0  0
   24.4488   32.0959   21.8934 H   0  0  0  0  0  0
   22.8025   30.1131   23.2777 H   0  0  0  0  0  0
   22.1154   32.2101   21.1284 H   0  0  0  0  0  0
   20.8774   31.3138   22.0722 H   0  0  0  0  0  0
   23.0387   32.9069   23.4836 H   0  0  0  0  0  0
   21.5729   33.7101   22.8255 H   0  0  0  0  0  0
   19.5748   31.6049   26.1499 H   0  0  0  0  0  0
   19.4940   30.7433   24.5757 H   0  0  0  0  0  0
   18.8632   32.4194   24.7156 H   0  0  0  0  0  0
  1  2  1  0  0  0
  2  3  2  0  0  0
  2  4  1  0  0  0
  4  5  2  0  0  0
  4  6  1  0  0  0
  6  7  1  0  0  0
  6 16  1  0  0  0
  7  8  2  0  0  0
  7 12  1  0  0  0
  8  9  1  0  0  0
  8 48  1  0  0  0
  9 10  2  0  0  0
  9 49  1  0  0  0
 10 11  1  0  0  0
 10 50  1  0  0  0
 11 12  2  0  0  0
 11 51  1  0  0  0
 12 13  1  0  0  0
 13 14  1  0  0  0
 13 15  2  0  0  0
 16 17  2  0  0  0
 16 21  1  0  0  0
 17 18  1  0  0  0
 17 52  1  0  0  0
 18 19  2  0  0  0
 18 53  1  0  0  0
 19 20  1  0  0  0
 19 24  1  0  0  0
 20 21  2  0  0  0
 20 54  1  0  0  0
 21 22  1  0  0  0
 22 23  1  0  0  0
 22 55  1  0  0  0
 22 56  1  0  0  0
 23 57  1  0  0  0
 23 58  1  0  0  0
 23 59  1  0  0  0
 24 25  1  0  0  0
 24 60  1  0  0  0
 24 61  1  0  0  0
 25 26  1  0  0  0
 25 30  1  0  0  0
 25 62  1  0  0  0
 26 27  1  0  0  0
 26 63  1  0  0  0
 27 28  2  0  0  0
 27 29  1  0  0  0
 29 64  1  0  0  0
 29 65  1  0  0  0
 29 66  1  0  0  0
 30 31  2  0  0  0
 30 32  1  0  0  0
 32 33  1  0  0  0
 32 67  1  0  0  0
 33 34  1  0  0  0
 33 68  1  0  0  0
 33 69  1  0  0  0
 34 35  1  0  0  0
 34 70  1  0  0  0
 34 71  1  0  0  0
 35 36  1  0  0  0
 35 72  1  0  0  0
 35 73  1  0  0  0
 36 37  1  0  0  0
 36 74  1  0  0  0
 36 75  1  0  0  0
 37 38  2  0  0  0
 37 39  1  0  0  0
 39 40  1  0  0  0
 39 76  1  0  0  0
 40 41  1  0  0  0
 40 44  1  0  0  0
 40 77  1  0  0  0
 41 42  1  0  0  0
 41 43  2  0  0  0
 44 45  1  0  0  0
 44 78  1  0  0  0
 44 79  1  0  0  0
 45 46  1  0  0  0
 45 80  1  0  0  0
 45 81  1  0  0  0
 46 47  1  0  0  0
 47 82  1  0  0  0
 47 83  1  0  0  0
 47 84  1  0  0  0
M  CHG  3   1  -1  14  -1  42  -1
M  END
> <s_m_source_file>
../1nz7_ligand.sdf

> <i_m_source_file_index>
1

> <s_epik_input>
W09IXUMoPU8pYzFbY0hdW2NIXVtjSF1bY0hdYzFOKEMoPU8pQyg9TylbT0hdKWMyW2NIXVtjSF1jKFtjSF1jMltDSDJdW0NIM10pW0NIMl1bQ0BIXShbTkhdQyg9TylbQ0gzXSlDKD1PKVtOSF1bQ0gyXVtDSDJdW0NIMl1bQ0gyXUMoPU8pW05IXVtDQEhdKEMoPU8pW09IXSlbQ0gyXVtDSDJdU1tDSDNd

> <s_epik_cmdline>
J2VwaWtfYXBwJywgJy1pbWFlJywgJ2xpZ2FuZF9wcm8ubWFlJywgJy1vbWFlJywgJ2xpZ2FuZF9wcmVwLm1hZScsICctbXMnLCAnMScsICctcGgnLCAnNycsICctcGh0JywgJzAuNScsICctbnQn

> <r_epik_Ionization_Penalty>
  0.8290

> <r_epik_Ionization_Penalty_Charging>
  0.0006

> <r_epik_Ionization_Penalty_Neutral>
  0.8284

> <r_epik_State_Penalty>
  0.0000

> <r_epik_Charging_Adjusted_Penalty>
0.000621137703175312

> <i_epik_Tot_Q>
-3

> <i_epik_Tot_abs_Q>
3

$$$$
