1nzl_ligand
                    3D
 Schrodinger Suite 2020-3.
140143  0  0  1  0            999 V2000
   18.0160   28.8240    4.4760 N   0  3  0  0  0  0
   19.4500   29.0670    4.5460 C   0  0  2  0  0  0
   19.5880   30.4660    5.1370 C   0  0  0  0  0  0
   20.5790   31.1610    4.8890 O   0  0  0  0  0  0
   19.9230   29.0220    3.1200 C   0  0  0  0  0  0
   18.7640   29.7390    2.4310 C   0  0  0  0  0  0
   17.5380   29.0680    3.1020 C   0  0  0  0  0  0
   18.5640   30.8880    5.8850 N   0  0  0  0  0  0
   18.5750   32.2160    6.5130 C   0  0  2  0  0  0
   18.6760   32.2640    8.0310 C   0  0  0  0  0  0
   18.3910   31.2900    8.7360 O   0  0  0  0  0  0
   17.3400   33.0030    6.1110 C   0  0  0  0  0  0
   17.1300   33.0260    4.6650 C   0  0  0  0  0  0
   15.8080   33.6020    4.2930 C   0  0  0  0  0  0
   15.0400   34.0330    5.1430 O   0  0  0  0  0  0
   15.5190   33.6140    3.0100 N   0  0  0  0  0  0
   19.0910   33.4320    8.5150 N   0  0  0  0  0  0
   19.2310   33.6950    9.9440 C   0  0  2  0  0  0
   18.1160   34.6470   10.3610 C   0  0  0  0  0  0
   17.7090   35.5150    9.5880 O   0  0  0  0  0  0
   20.5940   34.3250   10.2480 C   0  0  0  0  0  0
   21.7180   33.3220   10.3040 C   0  0  0  0  0  0
   21.9860   32.6140   11.4710 C   0  0  0  0  0  0
   22.4880   33.0540    9.1820 C   0  0  0  0  0  0
   22.9910   31.6670   11.5160 C   0  0  0  0  0  0
   23.4940   32.1070    9.2150 C   0  0  0  0  0  0
   23.7420   31.4180   10.3830 C   0  0  0  0  0  0
   24.7500   30.4850   10.4130 O   0  0  0  0  0  0
   24.5510   28.9480   10.0810 P   0  0  0  0  0  0
   24.7330   28.7000    8.6300 O   0  5  0  0  0  0
   23.1920   28.5020   10.4480 O   0  0  0  0  0  0
   25.5830   28.2260   10.8570 O   0  5  0  0  0  0
   17.6200   34.4760   11.5820 N   0  0  0  0  0  0
   16.5420   35.3050   12.0960 C   0  0  2  0  0  0
   17.1030   36.6210   12.6110 C   0  0  0  0  0  0
   18.1500   36.6500   13.2580 O   0  0  0  0  0  0
   15.8120   34.5650   13.2240 C   0  0  0  0  0  0
   14.5170   35.2120   13.7200 C   0  0  0  0  0  0
   13.3600   35.0730   12.7410 C   0  0  0  0  0  0
   13.4260   34.1970   11.8530 O   0  0  0  0  0  0
   12.3760   35.8320   12.8750 O   0  5  0  0  0  0
   16.4090   37.7090   12.3050 N   0  0  0  0  0  0
   16.8330   39.0240   12.7530 C   0  0  2  0  0  0
   15.9030   39.5020   13.8480 C   0  0  0  0  0  0
   14.7010   39.2320   13.8150 O   0  0  0  0  0  0
   16.7730   40.0350   11.6100 C   0  0  0  0  0  0
   17.8630   39.8900   10.5830 C   0  0  0  0  0  0
   19.0800   40.5390   10.7390 C   0  0  0  0  0  0
   17.6770   39.1050    9.4580 C   0  0  0  0  0  0
   20.0790   40.4090    9.8000 C   0  0  0  0  0  0
   18.6700   38.9680    8.5140 C   0  0  0  0  0  0
   19.8690   39.6200    8.6880 C   0  0  0  0  0  0
   20.8530   39.4630    7.7400 O   0  0  0  0  0  0
   22.3560   40.0310    7.7420 P   0  0  0  0  0  0
   22.9970   39.6100    6.4850 O   0  0  0  0  0  0
   23.1030   39.5170    8.9080 O   0  5  0  0  0  0
   22.3350   41.5140    7.8130 O   0  5  0  0  0  0
   16.4590   40.2070   14.8280 N   0  0  0  0  0  0
   15.6420   40.7720   15.8890 C   0  0  2  0  0  0
   15.0900   42.0480   15.2520 C   0  0  0  0  0  0
   15.8420   42.8420   14.6850 O   0  0  0  0  0  0
   16.4890   41.1090   17.1420 C   0  0  2  0  0  0
   16.9910   39.8120   17.7850 C   0  0  0  0  0  0
   15.6680   41.9160   18.1500 C   0  0  0  0  0  0
   17.7910   40.0220   19.0660 C   0  0  0  0  0  0
   13.7630   42.2360   15.2980 N   0  0  0  0  0  0
   13.1210   43.4200   14.7160 C   0  0  2  0  0  0
   13.5530   44.7430   15.3490 C   0  0  0  0  0  0
   13.7910   44.8160   16.5540 O   0  0  0  0  0  0
   11.6320   43.1290   14.9020 C   0  0  0  0  0  0
   11.6050   42.2850   16.1520 C   0  0  0  0  0  0
   12.7660   41.3460   15.9200 C   0  0  0  0  0  0
   13.6590   45.7720   14.5080 N   0  0  0  0  0  0
   14.0700   47.1260   14.8870 C   0  0  2  0  0  0
   15.5800   47.3090   14.7480 C   0  0  0  0  0  0
   15.9750   48.1900   13.9580 O   0  0  0  0  0  0
   13.6210   47.4680   16.3190 C   0  0  0  0  0  0
   16.3550   46.5760   15.4110 O   0  5  0  0  0  0
   17.8068   27.7808    4.7554 H   0  0  0  0  0  0
   17.4951   29.5008    5.1693 H   0  0  0  0  0  0
   19.9978   28.3274    5.1484 H   0  0  0  0  0  0
   20.8858   29.5473    3.0363 H   0  0  0  0  0  0
   20.0485   27.9746    2.8082 H   0  0  0  0  0  0
   18.8306   30.8188    2.6299 H   0  0  0  0  0  0
   18.8161   29.5621    1.3466 H   0  0  0  0  0  0
   17.2665   28.1108    2.6328 H   0  0  0  0  0  0
   16.6562   29.7249    3.1318 H   0  0  0  0  0  0
   17.7017   30.2199    6.0264 H   0  0  0  0  0  0
   19.5158   32.6211    6.1120 H   0  0  0  0  0  0
   16.4503   32.5502    6.5729 H   0  0  0  0  0  0
   17.4410   34.0437    6.4527 H   0  0  0  0  0  0
   17.9124   33.6366    4.1906 H   0  0  0  0  0  0
   17.1765   31.9999    4.2713 H   0  0  0  0  0  0
   16.2394   33.2160    2.2802 H   0  0  0  0  0  0
   14.5569   34.0220    2.6667 H   0  0  0  0  0  0
   19.3331   34.2182    7.7848 H   0  0  0  0  0  0
   19.1518   32.7283   10.4629 H   0  0  0  0  0  0
   20.8427   35.0564    9.4649 H   0  0  0  0  0  0
   20.5544   34.8316   11.2236 H   0  0  0  0  0  0
   21.3934   32.8096   12.3647 H   0  0  0  0  0  0
   22.2964   33.5998    8.2581 H   0  0  0  0  0  0
   23.1900   31.1206   12.4379 H   0  0  0  0  0  0
   24.0876   31.9061    8.3232 H   0  0  0  0  0  0
   18.0485   33.6801   12.2088 H   0  0  0  0  0  0
   15.8624   35.4941   11.2520 H   0  0  0  0  0  0
   15.5388   33.5553   12.8834 H   0  0  0  0  0  0
   16.4721   34.4901   14.1007 H   0  0  0  0  0  0
   14.2096   34.7397   14.6647 H   0  0  0  0  0  0
   14.6837   36.2867   13.8847 H   0  0  0  0  0  0
   15.4966   37.6018   11.7000 H   0  0  0  0  0  0
   17.8641   38.8971   13.1147 H   0  0  0  0  0  0
   15.8173   39.9282   11.0759 H   0  0  0  0  0  0
   16.8538   41.0538   12.0169 H   0  0  0  0  0  0
   19.2476   41.1611   11.6182 H   0  0  0  0  0  0
   16.7285   38.5867    9.3171 H   0  0  0  0  0  0
   21.0291   40.9260    9.9345 H   0  0  0  0  0  0
   18.5071   38.3464    7.6336 H   0  0  0  0  0  0
   17.5481   40.3612   14.8311 H   0  0  0  0  0  0
   14.8734   40.0477   16.1966 H   0  0  0  0  0  0
   17.3534   41.7221   16.8470 H   0  0  0  0  0  0
   16.1327   39.1732   18.0402 H   0  0  0  0  0  0
   17.6454   39.2815   17.0777 H   0  0  0  0  0  0
   15.3142   42.8434   17.6759 H   0  0  0  0  0  0
   16.2954   42.1645   19.0187 H   0  0  0  0  0  0
   14.8042   41.3202   18.4800 H   0  0  0  0  0  0
   18.1124   39.0472   19.4615 H   0  0  0  0  0  0
   17.1624   40.5310   19.8115 H   0  0  0  0  0  0
   18.6752   40.6393   18.8490 H   0  0  0  0  0  0
   13.4317   43.5338   13.6670 H   0  0  0  0  0  0
   11.0852   44.0762   15.0194 H   0  0  0  0  0  0
   11.2504   42.5922   14.0210 H   0  0  0  0  0  0
   11.7408   42.9298   17.0328 H   0  0  0  0  0  0
   10.6378   41.7660   16.2232 H   0  0  0  0  0  0
   12.5244   40.5257   15.2280 H   0  0  0  0  0  0
   13.1763   40.9305   16.8522 H   0  0  0  0  0  0
   13.4104   45.5456   13.4606 H   0  0  0  0  0  0
   13.5573   47.7798   14.1661 H   0  0  0  0  0  0
   12.5328   47.3319   16.4044 H   0  0  0  0  0  0
   13.8786   48.5134   16.5442 H   0  0  0  0  0  0
   14.1308   46.8031   17.0317 H   0  0  0  0  0  0
  1  2  1  0  0  0
  1  7  1  0  0  0
  1 79  1  0  0  0
  1 80  1  0  0  0
  2  3  1  0  0  0
  2  5  1  0  0  0
  2 81  1  0  0  0
  3  4  2  0  0  0
  3  8  1  0  0  0
  5  6  1  0  0  0
  5 82  1  0  0  0
  5 83  1  0  0  0
  6  7  1  0  0  0
  6 84  1  0  0  0
  6 85  1  0  0  0
  7 86  1  0  0  0
  7 87  1  0  0  0
  8  9  1  0  0  0
  8 88  1  0  0  0
  9 10  1  0  0  0
  9 12  1  0  0  0
  9 89  1  0  0  0
 10 11  2  0  0  0
 10 17  1  0  0  0
 12 13  1  0  0  0
 12 90  1  0  0  0
 12 91  1  0  0  0
 13 14  1  0  0  0
 13 92  1  0  0  0
 13 93  1  0  0  0
 14 15  2  0  0  0
 14 16  1  0  0  0
 16 94  1  0  0  0
 16 95  1  0  0  0
 17 18  1  0  0  0
 17 96  1  0  0  0
 18 19  1  0  0  0
 18 21  1  0  0  0
 18 97  1  0  0  0
 19 20  2  0  0  0
 19 33  1  0  0  0
 21 22  1  0  0  0
 21 98  1  0  0  0
 21 99  1  0  0  0
 22 23  2  0  0  0
 22 24  1  0  0  0
 23 25  1  0  0  0
 23100  1  0  0  0
 24 26  2  0  0  0
 24101  1  0  0  0
 25 27  2  0  0  0
 25102  1  0  0  0
 26 27  1  0  0  0
 26103  1  0  0  0
 27 28  1  0  0  0
 28 29  1  0  0  0
 29 30  1  0  0  0
 29 31  2  0  0  0
 29 32  1  0  0  0
 33 34  1  0  0  0
 33104  1  0  0  0
 34 35  1  0  0  0
 34 37  1  0  0  0
 34105  1  0  0  0
 35 36  2  0  0  0
 35 42  1  0  0  0
 37 38  1  0  0  0
 37106  1  0  0  0
 37107  1  0  0  0
 38 39  1  0  0  0
 38108  1  0  0  0
 38109  1  0  0  0
 39 40  2  0  0  0
 39 41  1  0  0  0
 42 43  1  0  0  0
 42110  1  0  0  0
 43 44  1  0  0  0
 43 46  1  0  0  0
 43111  1  0  0  0
 44 45  2  0  0  0
 44 58  1  0  0  0
 46 47  1  0  0  0
 46112  1  0  0  0
 46113  1  0  0  0
 47 48  2  0  0  0
 47 49  1  0  0  0
 48 50  1  0  0  0
 48114  1  0  0  0
 49 51  2  0  0  0
 49115  1  0  0  0
 50 52  2  0  0  0
 50116  1  0  0  0
 51 52  1  0  0  0
 51117  1  0  0  0
 52 53  1  0  0  0
 53 54  1  0  0  0
 54 55  2  0  0  0
 54 56  1  0  0  0
 54 57  1  0  0  0
 58 59  1  0  0  0
 58118  1  0  0  0
 59 60  1  0  0  0
 59 62  1  0  0  0
 59119  1  0  0  0
 60 61  2  0  0  0
 60 66  1  0  0  0
 62 63  1  0  0  0
 62 64  1  0  0  0
 62120  1  0  0  0
 63 65  1  0  0  0
 63121  1  0  0  0
 63122  1  0  0  0
 64123  1  0  0  0
 64124  1  0  0  0
 64125  1  0  0  0
 65126  1  0  0  0
 65127  1  0  0  0
 65128  1  0  0  0
 66 67  1  0  0  0
 66 72  1  0  0  0
 67 68  1  0  0  0
 67 70  1  0  0  0
 67129  1  0  0  0
 68 69  2  0  0  0
 68 73  1  0  0  0
 70 71  1  0  0  0
 70130  1  0  0  0
 70131  1  0  0  0
 71 72  1  0  0  0
 71132  1  0  0  0
 71133  1  0  0  0
 72134  1  0  0  0
 72135  1  0  0  0
 73 74  1  0  0  0
 73136  1  0  0  0
 74 75  1  0  0  0
 74 77  1  0  0  0
 74137  1  0  0  0
 75 76  2  0  0  0
 75 78  1  0  0  0
 77138  1  0  0  0
 77139  1  0  0  0
 77140  1  0  0  0
M  CHG  7   1   1  30  -1  32  -1  41  -1  56  -1  57  -1  78  -1
M  END
> <s_m_source_file>
../1nzl_ligand.sdf

> <i_m_source_file_index>
1

> <s_epik_input>
W0NIMl0xW0NIMl1bQ0gyXVtOSDIrXVtDQEBIXTFDKD1PKVtOSF1bQ0BASF0oW0NIMl1bQ0gyXUMoPU8pW05IMl0pQyg9TylbTkhdW0NAQEhdKFtDSDJdYzJbY0hdW2NIXWMoW2NIXVtjSF0yKU9QKD1PKShbT0hdKVtPSF0pQyg9TylbTkhdW0NAQEhdKFtDSDJdW0NIMl1DKD1PKVtPSF0pQyg9TylbTkhdW0NAQEhdKFtDSDJdYzNbY0hdW2NIXWMoW2NIXVtjSF0zKU9QKD1PKShbT0hdKVtPSF0pQyg9TylbTkhdW0NAQEhdKFtDQEBIXShbQ0gzXSlbQ0gyXVtDSDNdKUMoPU8pTjRbQ0BASF0oW0NIMl1bQ0gyXVtDSDJdNClDKD1PKVtOSF1bQ0BASF0oW0NIM10pQyg9TylbT0hd

> <s_epik_cmdline>
J2VwaWtfYXBwJywgJy1pbWFlJywgJ2xpZ2FuZF9wcm8ubWFlJywgJy1vbWFlJywgJ2xpZ2FuZF9wcmVwLm1hZScsICctbXMnLCAnMScsICctcGgnLCAnNycsICctcGh0JywgJzAuNScsICctbnQn

> <r_epik_Ionization_Penalty>
  0.2125

> <r_epik_Ionization_Penalty_Charging>
  0.2125

> <r_epik_Ionization_Penalty_Neutral>
  0.0000

> <r_epik_State_Penalty>
  0.1413

> <r_epik_Charging_Adjusted_Penalty>
0.353836980236391

> <i_epik_Tot_Q>
-5

> <i_epik_Tot_abs_Q>
7

$$$$
