1nzq_ligand
                    3D
 Schrodinger Suite 2020-3.
 68 70  0  0  1  0            999 V2000
   10.1960   21.2160   24.3680 N   0  0  0  0  0  0
   11.0810   22.1810   24.0600 C   0  0  0  0  0  0
   11.0320   23.3550   24.7010 N   0  3  0  0  0  0
   12.0940   21.9700   23.0090 C   0  0  0  0  0  0
   12.5350   20.7590   22.4820 N   0  0  0  0  0  0
   12.0890   19.4010   22.8550 C   0  0  0  0  0  0
   13.4670   21.0240   21.5430 C   0  0  0  0  0  0
   12.7820   22.9660   22.3700 C   0  0  0  0  0  0
   13.6410   22.3610   21.4520 C   0  0  0  0  0  0
   14.6040   23.0750   20.5230 C   0  0  0  0  0  0
   16.0090   22.8310   20.9630 N   0  0  0  0  0  0
   16.6940   21.7070   20.5950 C   0  0  0  0  0  0
   16.1710   20.8500   19.8900 O   0  0  0  0  0  0
   18.1070   21.4900   21.0880 C   0  0  2  0  0  0
   19.0890   21.5310   19.9410 C   0  0  0  0  0  0
   19.7600   20.4080   19.8760 C   0  0  0  0  0  0
   19.3130   19.4720   20.9700 C   0  0  0  0  0  0
   18.1970   20.1370   21.6970 N   0  0  0  0  0  0
   17.4130   19.6270   22.7030 C   0  0  0  0  0  0
   16.5320   20.3120   23.1870 O   0  0  0  0  0  0
   17.6080   18.2190   23.2290 C   0  0  1  0  0  0
   18.2220   18.2510   24.6530 C   0  0  0  0  0  0
   19.6100   18.9040   24.6510 C   0  0  0  0  0  0
   19.8920   19.5320   26.0300 C   0  0  0  0  0  0
   21.2730   20.2400   26.0150 C   0  0  0  0  0  0
   22.3940   19.2370   25.6420 C   0  0  0  0  0  0
   22.0830   18.5470   24.2870 C   0  0  0  0  0  0
   20.6970   17.8530   24.3330 C   0  0  0  0  0  0
   16.2780   17.5780   23.2610 N   0  3  0  0  0  0
   16.3760   16.1250   23.4350 C   0  0  0  0  0  0
   14.9790   15.5680   23.5110 C   0  0  0  0  0  0
   14.8070   14.3900   23.7850 O   0  0  0  0  0  0
   14.0160   16.2950   23.2970 O   0  5  0  0  0  0
    9.4462   21.3879   25.1543 H   0  0  0  0  0  0
   10.2221   20.2549   23.8336 H   0  0  0  0  0  0
   10.2801   23.5219   25.4863 H   0  0  0  0  0  0
   11.3245   19.4697   23.6430 H   0  0  0  0  0  0
   12.9475   18.8222   23.2265 H   0  0  0  0  0  0
   11.6629   18.8999   21.9733 H   0  0  0  0  0  0
   13.9962   20.2772   20.9511 H   0  0  0  0  0  0
   12.6778   24.0366   22.5462 H   0  0  0  0  0  0
   14.4737   22.6965   19.4984 H   0  0  0  0  0  0
   14.3999   24.1557   20.5433 H   0  0  0  0  0  0
   16.5211   23.5663   21.6011 H   0  0  0  0  0  0
   18.3502   22.2710   21.8234 H   0  0  0  0  0  0
   19.2869   22.3328   19.2144 H   0  0  0  0  0  0
   20.5217   20.2668   19.0950 H   0  0  0  0  0  0
   18.9729   18.5248   20.5259 H   0  0  0  0  0  0
   20.1540   19.2763   21.6515 H   0  0  0  0  0  0
   18.2640   17.6436   22.5593 H   0  0  0  0  0  0
   17.5665   18.8278   25.3220 H   0  0  0  0  0  0
   18.3208   17.2234   25.0329 H   0  0  0  0  0  0
   19.6238   19.6865   23.8780 H   0  0  0  0  0  0
   19.1092   20.2683   26.2646 H   0  0  0  0  0  0
   19.8963   18.7442   26.7977 H   0  0  0  0  0  0
   21.2602   21.0529   25.2741 H   0  0  0  0  0  0
   21.4829   20.6556   27.0116 H   0  0  0  0  0  0
   23.3514   19.7720   25.5574 H   0  0  0  0  0  0
   22.4721   18.4670   26.4237 H   0  0  0  0  0  0
   22.0780   19.2997   23.4849 H   0  0  0  0  0  0
   22.8532   17.7907   24.0753 H   0  0  0  0  0  0
   20.6985   17.0790   25.1146 H   0  0  0  0  0  0
   20.4848   17.3894   23.3583 H   0  0  0  0  0  0
   15.6940   17.9869   24.0987 H   0  0  0  0  0  0
   15.7521   17.7773   22.3156 H   0  0  0  0  0  0
   16.9121   15.6886   22.5793 H   0  0  0  0  0  0
   16.9237   15.9029   24.3628 H   0  0  0  0  0  0
   11.7437   24.1529   24.4424 H   0  0  0  0  0  0
  1  2  1  0  0  0
  1 34  1  0  0  0
  1 35  1  0  0  0
  2  3  2  0  0  0
  2  4  1  0  0  0
  3 36  1  0  0  0
  3 68  1  0  0  0
  4  5  1  0  0  0
  4  8  2  0  0  0
  5  6  1  0  0  0
  5  7  1  0  0  0
  6 37  1  0  0  0
  6 38  1  0  0  0
  6 39  1  0  0  0
  7  9  2  0  0  0
  7 40  1  0  0  0
  8  9  1  0  0  0
  8 41  1  0  0  0
  9 10  1  0  0  0
 10 11  1  0  0  0
 10 42  1  0  0  0
 10 43  1  0  0  0
 11 12  1  0  0  0
 11 44  1  0  0  0
 12 13  2  0  0  0
 12 14  1  0  0  0
 14 15  1  0  0  0
 14 18  1  0  0  0
 14 45  1  0  0  0
 15 16  2  0  0  0
 15 46  1  0  0  0
 16 17  1  0  0  0
 16 47  1  0  0  0
 17 18  1  0  0  0
 17 48  1  0  0  0
 17 49  1  0  0  0
 18 19  1  0  0  0
 19 20  2  0  0  0
 19 21  1  0  0  0
 21 22  1  0  0  0
 21 29  1  0  0  0
 21 50  1  0  0  0
 22 23  1  0  0  0
 22 51  1  0  0  0
 22 52  1  0  0  0
 23 24  1  0  0  0
 23 28  1  0  0  0
 23 53  1  0  0  0
 24 25  1  0  0  0
 24 54  1  0  0  0
 24 55  1  0  0  0
 25 26  1  0  0  0
 25 56  1  0  0  0
 25 57  1  0  0  0
 26 27  1  0  0  0
 26 58  1  0  0  0
 26 59  1  0  0  0
 27 28  1  0  0  0
 27 60  1  0  0  0
 27 61  1  0  0  0
 28 62  1  0  0  0
 28 63  1  0  0  0
 29 30  1  0  0  0
 29 64  1  0  0  0
 29 65  1  0  0  0
 30 31  1  0  0  0
 30 66  1  0  0  0
 30 67  1  0  0  0
 31 32  2  0  0  0
 31 33  1  0  0  0
M  CHG  3   3   1  29   1  33  -1
M  END
> <s_m_source_file>
../1nzq_ligand.sdf

> <i_m_source_file_index>
1

> <s_epik_input>
W0hdXE49QyhcW05IMl0pYzFuKFtDSDNdKVtjSF1jKFtjSF0xKVtDSDJdW05IXUMoPU8pW0NAQEhdMltDSF09W0NIXVtDSDJdTjJDKD1PKVtDQEhdKFtOSDIrXVtDSDJdQyg9TylbT0hdKVtDSDJdW0NIXTNbQ0gyXVtDSDJdW0NIMl1bQ0gyXVtDSDJdMw==

> <s_epik_cmdline>
J2VwaWtfYXBwJywgJy1pbWFlJywgJ2xpZ2FuZF9wcm8ubWFlJywgJy1vbWFlJywgJ2xpZ2FuZF9wcmVwLm1hZScsICctbXMnLCAnMScsICctcGgnLCAnNycsICctcGh0JywgJzAuNScsICctbnQn

> <r_lp_tautomer_probability>
1

> <r_epik_Ionization_Penalty>
  0.2095

> <r_epik_Ionization_Penalty_Charging>
  0.2095

> <r_epik_Ionization_Penalty_Neutral>
  0.0000

> <r_epik_State_Penalty>
 -0.0000

> <r_epik_Charging_Adjusted_Penalty>
0.20952527561942

> <i_epik_Tot_Q>
1

> <i_epik_Tot_abs_Q>
3

> <s_epik_Chemistry_Notes>
This compound has an imine and may undergo hydrolysis.

$$$$
