1o0d_ligand
                    3D
 Schrodinger Suite 2020-3.
 68 70  0  0  1  0            999 V2000
   10.2890   23.3880   24.1280 N   0  0  0  0  0  0
   10.9060   22.2110   24.0120 C   0  0  0  0  0  0
   10.7810   21.2900   24.9610 N   0  3  0  0  0  0
   11.7380   21.9180   22.8080 C   0  0  0  0  0  0
   12.6610   22.7550   22.1970 N   0  0  0  0  0  0
   13.0120   24.1320   22.6350 C   0  0  0  0  0  0
   11.7240   20.7530   22.0930 C   0  0  0  0  0  0
   12.6380   20.8830   21.0480 C   0  0  0  0  0  0
   13.1940   22.1020   21.1310 C   0  0  0  0  0  0
   14.2400   22.6440   20.1860 C   0  0  0  0  0  0
   15.5650   22.4780   20.8110 N   0  0  0  0  0  0
   16.4810   21.5910   20.3380 C   0  0  0  0  0  0
   16.2410   20.8910   19.3670 O   0  0  0  0  0  0
   17.8170   21.4760   21.0540 C   0  0  2  0  0  0
   18.9750   21.6320   20.0990 C   0  0  0  0  0  0
   19.6660   20.5270   20.0440 C   0  0  0  0  0  0
   19.0570   19.4920   20.9520 C   0  0  0  0  0  0
   17.9560   20.1500   21.6980 N   0  0  0  0  0  0
   17.2280   19.6440   22.7510 C   0  0  0  0  0  0
   16.3490   20.3130   23.2630 O   0  0  0  0  0  0
   17.5060   18.2500   23.2910 C   0  0  1  0  0  0
   18.1890   18.3340   24.6740 C   0  0  0  0  0  0
   19.6680   18.7370   24.5350 C   0  0  0  0  0  0
   20.1410   19.4300   25.8330 C   0  0  0  0  0  0
   21.6290   19.8410   25.7070 C   0  0  0  0  0  0
   22.5080   18.6000   25.4120 C   0  0  0  0  0  0
   22.0220   17.8880   24.1260 C   0  0  0  0  0  0
   20.5360   17.4820   24.2680 C   0  0  0  0  0  0
   16.2410   17.5120   23.4180 N   0  3  0  0  0  0
   15.7640   16.6570   22.3240 C   0  0  0  0  0  0
   14.7640   15.6560   22.8530 C   0  0  0  0  0  0
   14.7490   15.3700   24.0400 O   0  5  0  0  0  0
   13.9700   15.1290   22.0920 O   0  0  0  0  0  0
    9.6761   23.6026   25.0159 H   0  0  0  0  0  0
   10.3931   24.1440   23.3358 H   0  0  0  0  0  0
   10.1698   21.4975   25.8517 H   0  0  0  0  0  0
   12.4219   24.3952   23.5252 H   0  0  0  0  0  0
   12.7901   24.8422   21.8248 H   0  0  0  0  0  0
   14.0837   24.1772   22.8790 H   0  0  0  0  0  0
   11.1082   19.8784   22.3024 H   0  0  0  0  0  0
   12.8619   20.1270   20.2954 H   0  0  0  0  0  0
   14.1999   22.0888   19.2372 H   0  0  0  0  0  0
   14.0452   23.7098   19.9957 H   0  0  0  0  0  0
   15.8388   23.0822   21.6885 H   0  0  0  0  0  0
   17.8461   22.2639   21.8210 H   0  0  0  0  0  0
   19.2768   22.5001   19.4945 H   0  0  0  0  0  0
   20.5516   20.4639   19.3946 H   0  0  0  0  0  0
   18.6693   18.6577   20.3489 H   0  0  0  0  0  0
   19.8232   19.1172   21.6466 H   0  0  0  0  0  0
   18.1398   17.7047   22.5762 H   0  0  0  0  0  0
   17.6752   19.0853   25.2916 H   0  0  0  0  0  0
   18.1356   17.3534   25.1695 H   0  0  0  0  0  0
   19.7677   19.4340   23.6899 H   0  0  0  0  0  0
   19.5327   20.3290   26.0113 H   0  0  0  0  0  0
   20.0289   18.7374   26.6802 H   0  0  0  0  0  0
   21.7415   20.5635   24.8852 H   0  0  0  0  0  0
   21.9632   20.3015   26.6484 H   0  0  0  0  0  0
   23.5528   18.9152   25.2740 H   0  0  0  0  0  0
   22.4454   17.8973   26.2560 H   0  0  0  0  0  0
   22.1287   18.5679   23.2679 H   0  0  0  0  0  0
   22.6269   16.9851   23.9558 H   0  0  0  0  0  0
   20.4313   16.7785   25.1071 H   0  0  0  0  0  0
   20.2028   16.9966   23.3388 H   0  0  0  0  0  0
   16.3006   16.8274   24.2769 H   0  0  0  0  0  0
   15.4157   18.2227   23.5722 H   0  0  0  0  0  0
   15.2826   17.2795   21.5554 H   0  0  0  0  0  0
   16.6153   16.1199   21.8805 H   0  0  0  0  0  0
   11.2887   20.3198   24.8562 H   0  0  0  0  0  0
  1  2  1  0  0  0
  1 34  1  0  0  0
  1 35  1  0  0  0
  2  3  2  0  0  0
  2  4  1  0  0  0
  3 36  1  0  0  0
  3 68  1  0  0  0
  4  5  1  0  0  0
  4  7  2  0  0  0
  5  6  1  0  0  0
  5  9  1  0  0  0
  6 37  1  0  0  0
  6 38  1  0  0  0
  6 39  1  0  0  0
  7  8  1  0  0  0
  7 40  1  0  0  0
  8  9  2  0  0  0
  8 41  1  0  0  0
  9 10  1  0  0  0
 10 11  1  0  0  0
 10 42  1  0  0  0
 10 43  1  0  0  0
 11 12  1  0  0  0
 11 44  1  0  0  0
 12 13  2  0  0  0
 12 14  1  0  0  0
 14 15  1  0  0  0
 14 18  1  0  0  0
 14 45  1  0  0  0
 15 16  2  0  0  0
 15 46  1  0  0  0
 16 17  1  0  0  0
 16 47  1  0  0  0
 17 18  1  0  0  0
 17 48  1  0  0  0
 17 49  1  0  0  0
 18 19  1  0  0  0
 19 20  2  0  0  0
 19 21  1  0  0  0
 21 22  1  0  0  0
 21 29  1  0  0  0
 21 50  1  0  0  0
 22 23  1  0  0  0
 22 51  1  0  0  0
 22 52  1  0  0  0
 23 24  1  0  0  0
 23 28  1  0  0  0
 23 53  1  0  0  0
 24 25  1  0  0  0
 24 54  1  0  0  0
 24 55  1  0  0  0
 25 26  1  0  0  0
 25 56  1  0  0  0
 25 57  1  0  0  0
 26 27  1  0  0  0
 26 58  1  0  0  0
 26 59  1  0  0  0
 27 28  1  0  0  0
 27 60  1  0  0  0
 27 61  1  0  0  0
 28 62  1  0  0  0
 28 63  1  0  0  0
 29 30  1  0  0  0
 29 64  1  0  0  0
 29 65  1  0  0  0
 30 31  1  0  0  0
 30 66  1  0  0  0
 30 67  1  0  0  0
 31 32  1  0  0  0
 31 33  2  0  0  0
M  CHG  3   3   1  29   1  32  -1
M  END
> <s_m_source_file>
../1o0d_ligand.sdf

> <i_m_source_file_index>
1

> <s_epik_input>
W0hdXE49QyhcW05IMl0pYzFuKFtDSDNdKWMoW2NIXVtjSF0xKVtDSDJdW05IXUMoPU8pW0NAQEhdMltDSF09W0NIXVtDSDJdTjJDKD1PKVtDQEhdKFtOSDIrXVtDSDJdQyg9TylbT0hdKVtDSDJdW0NIXTNbQ0gyXVtDSDJdW0NIMl1bQ0gyXVtDSDJdMw==

> <s_epik_cmdline>
J2VwaWtfYXBwJywgJy1pbWFlJywgJ2xpZ2FuZF9wcm8ubWFlJywgJy1vbWFlJywgJ2xpZ2FuZF9wcmVwLm1hZScsICctbXMnLCAnMScsICctcGgnLCAnNycsICctcGh0JywgJzAuNScsICctbnQn

> <r_lp_tautomer_probability>
1

> <r_epik_Ionization_Penalty>
  0.2095

> <r_epik_Ionization_Penalty_Charging>
  0.2095

> <r_epik_Ionization_Penalty_Neutral>
  0.0000

> <r_epik_State_Penalty>
 -0.0000

> <r_epik_Charging_Adjusted_Penalty>
0.20952527561942

> <i_epik_Tot_Q>
1

> <i_epik_Tot_abs_Q>
3

> <s_epik_Chemistry_Notes>
This compound has an imine and may undergo hydrolysis.

$$$$
