1o0f_ligand
                    3D
 Schrodinger Suite 2020-3.
 38 40  0  0  1  0            999 V2000
   41.2350    6.2550   14.4910 P   0  0  0  0  0  0
   40.2730    6.5200   13.3460 O   0  0  0  0  0  0
   42.0870    5.0150   14.2710 O   0  5  0  0  0  0
   42.0660    7.4750   14.8500 O   0  5  0  0  0  0
   36.3990    3.1920   13.2220 P   0  0  0  0  0  0
   34.9040    3.4250   13.3170 O   0  5  0  0  0  0
   37.0620    3.9030   12.0590 O   0  0  0  0  0  0
   36.7820    1.7250   13.3210 O   0  5  0  0  0  0
   37.0120    3.8560   14.5760 O   0  0  0  0  0  0
   36.8490    5.2540   14.8460 C   0  0  0  0  0  0
   37.9140    5.7230   15.8040 C   0  0  1  0  0  0
   37.4580    5.5380   17.1740 O   0  0  0  0  0  0
   39.2600    5.0060   15.6940 C   0  0  1  0  0  0
   40.3250    5.9480   15.7870 O   0  0  0  0  0  0
   39.2520    4.0720   16.9040 C   0  0  1  0  0  0
   40.5480    3.7810   17.3870 O   0  0  0  0  0  0
   38.4750    4.9070   17.9190 C   0  0  2  0  0  0
   37.8650    4.1610   19.0230 N   0  0  0  0  0  0
   38.1130    2.8680   19.4250 C   0  0  0  0  0  0
   37.4410    2.5070   20.4910 N   0  0  0  0  0  0
   36.6900    3.6320   20.8080 C   0  0  0  0  0  0
   35.7800    3.9010   21.8480 C   0  0  0  0  0  0
   35.4630    3.0220   22.8050 N   0  0  0  0  0  0
   35.2020    5.1240   21.8760 N   0  0  0  0  0  0
   35.5270    6.0070   20.9220 C   0  0  0  0  0  0
   36.3730    5.8730   19.9000 N   0  0  0  0  0  0
   36.9290    4.6510   19.9020 C   0  0  0  0  0  0
   36.9325    5.8209   13.9071 H   0  0  0  0  0  0
   35.8590    5.4282   15.2927 H   0  0  0  0  0  0
   38.0501    6.7890   15.5692 H   0  0  0  0  0  0
   39.4569    4.5120   14.7311 H   0  0  0  0  0  0
   38.8886    3.0529   16.7054 H   0  0  0  0  0  0
   41.2417    3.1849   16.7759 H   0  0  0  0  0  0
   39.1272    5.6359   18.4223 H   0  0  0  0  0  0
   38.8046    2.2053   18.9047 H   0  0  0  0  0  0
   35.9188    2.0209   22.8052 H   0  0  0  0  0  0
   34.7465    3.3002   23.5919 H   0  0  0  0  0  0
   35.0282    6.9737   20.9913 H   0  0  0  0  0  0
  1  2  2  0  0  0
  1  3  1  0  0  0
  1  4  1  0  0  0
  1 14  1  0  0  0
  5  6  1  0  0  0
  5  7  2  0  0  0
  5  8  1  0  0  0
  5  9  1  0  0  0
  9 10  1  0  0  0
 10 11  1  0  0  0
 10 28  1  0  0  0
 10 29  1  0  0  0
 11 12  1  0  0  0
 11 13  1  0  0  0
 11 30  1  0  0  0
 12 17  1  0  0  0
 13 14  1  0  0  0
 13 15  1  0  0  0
 13 31  1  0  0  0
 15 16  1  0  0  0
 15 17  1  0  0  0
 15 32  1  0  0  0
 16 33  1  0  0  0
 17 18  1  0  0  0
 17 34  1  0  0  0
 18 19  1  0  0  0
 18 27  1  0  0  0
 19 20  2  0  0  0
 19 35  1  0  0  0
 20 21  1  0  0  0
 21 22  2  0  0  0
 21 27  1  0  0  0
 22 23  1  0  0  0
 22 24  1  0  0  0
 23 36  1  0  0  0
 23 37  1  0  0  0
 24 25  2  0  0  0
 25 26  1  0  0  0
 25 38  1  0  0  0
 26 27  2  0  0  0
M  CHG  4   3  -1   4  -1   6  -1   8  -1
M  END
> <s_m_source_file>
../1o0f_ligand.sdf

> <i_m_source_file_index>
1

> <s_epik_input>
W09IXVAoPU8pKFtPSF0pT1tDSDJdW0NASF0xT1tDQEhdKFtDQEhdKFtPSF0pW0NAQEhdMU9QKD1PKShbT0hdKVtPSF0pbihbY0hdbjIpYyhjMjMpbltjSF1uYzNbTkgyXQ==

> <s_epik_cmdline>
J2VwaWtfYXBwJywgJy1pbWFlJywgJ2xpZ2FuZF9wcm8ubWFlJywgJy1vbWFlJywgJ2xpZ2FuZF9wcmVwLm1hZScsICctbXMnLCAnMScsICctcGgnLCAnNycsICctcGh0JywgJzAuNScsICctbnQn

> <r_lp_tautomer_probability>
1

> <r_epik_Ionization_Penalty>
  0.1805

> <r_epik_Ionization_Penalty_Charging>
  0.1800

> <r_epik_Ionization_Penalty_Neutral>
  0.0005

> <r_epik_State_Penalty>
 -0.0000

> <r_epik_Charging_Adjusted_Penalty>
0.180046212178254

> <i_epik_Tot_Q>
-4

> <i_epik_Tot_abs_Q>
4

> <s_epik_Chemistry_Notes>
This compound contains an acetal/aminal-like group ( X-CH(R)-Y where X, Y are N, S, or O) that may be acid/base labile, releasing an aldehyde.

$$$$
