1o0o_ligand
                    3D
 Schrodinger Suite 2020-3.
 38 40  0  0  1  0            999 V2000
   36.3590    3.6090   13.4420 P   0  0  0  0  0  0
   36.7270    4.9590   13.9770 O   0  5  0  0  0  0
   37.2060    3.2140   12.3040 O   0  0  0  0  0  0
   34.8800    3.5010   13.3260 O   0  5  0  0  0  0
   42.1440    2.3050   13.3320 P   0  0  0  0  0  0
   41.8440    3.6500   12.7310 O   0  5  0  0  0  0
   43.3870    2.3670   14.1840 O   0  5  0  0  0  0
   42.1020    1.2890   12.2260 O   0  0  0  0  0  0
   40.8970    1.9240   14.2700 O   0  0  0  0  0  0
   40.8420    0.6930   14.9690 C   0  0  0  0  0  0
   39.5610    0.6680   15.8020 C   0  0  1  0  0  0
   39.5110    1.7240   16.7830 O   0  0  0  0  0  0
   38.3000    0.8680   14.9600 C   0  0  1  0  0  0
   37.1980    0.1680   15.5180 O   0  0  0  0  0  0
   38.0890    2.3690   15.0240 C   0  0  1  0  0  0
   36.7370    2.7100   14.7360 O   0  0  0  0  0  0
   38.4660    2.6570   16.4630 C   0  0  2  0  0  0
   39.0210    3.9980   16.7420 N   0  0  0  0  0  0
   39.6650    4.8070   15.8500 C   0  0  0  0  0  0
   40.1090    5.9510   16.4230 N   0  0  0  0  0  0
   39.7320    5.8430   17.7030 C   0  0  0  0  0  0
   39.8900    6.6780   18.8920 C   0  0  0  0  0  0
   40.5050    7.8750   18.7950 N   0  0  0  0  0  0
   39.3930    6.2390   20.0420 N   0  0  0  0  0  0
   38.7510    5.0650   20.1330 C   0  0  0  0  0  0
   38.5370    4.2240   19.1150 N   0  0  0  0  0  0
   39.0490    4.5690   17.9340 C   0  0  0  0  0  0
   40.8385   -0.1380   14.2483 H   0  0  0  0  0  0
   41.7198    0.6048   15.6260 H   0  0  0  0  0  0
   39.5836   -0.2990   16.3259 H   0  0  0  0  0  0
   38.3361    0.4505   13.9430 H   0  0  0  0  0  0
   37.2016   -0.9317   15.5450 H   0  0  0  0  0  0
   38.6178    2.9726   14.2716 H   0  0  0  0  0  0
   37.5622    2.5683   17.0837 H   0  0  0  0  0  0
   39.8056    4.5603   14.7976 H   0  0  0  0  0  0
   40.9064    8.2103   17.8273 H   0  0  0  0  0  0
   40.6050    8.5156   19.6836 H   0  0  0  0  0  0
   38.3741    4.7733   21.1133 H   0  0  0  0  0  0
  1  2  1  0  0  0
  1  3  2  0  0  0
  1  4  1  0  0  0
  1 16  1  0  0  0
  5  6  1  0  0  0
  5  7  1  0  0  0
  5  8  2  0  0  0
  5  9  1  0  0  0
  9 10  1  0  0  0
 10 11  1  0  0  0
 10 28  1  0  0  0
 10 29  1  0  0  0
 11 12  1  0  0  0
 11 13  1  0  0  0
 11 30  1  0  0  0
 12 17  1  0  0  0
 13 14  1  0  0  0
 13 15  1  0  0  0
 13 31  1  0  0  0
 14 32  1  0  0  0
 15 16  1  0  0  0
 15 17  1  0  0  0
 15 33  1  0  0  0
 17 18  1  0  0  0
 17 34  1  0  0  0
 18 19  1  0  0  0
 18 27  1  0  0  0
 19 20  2  0  0  0
 19 35  1  0  0  0
 20 21  1  0  0  0
 21 22  2  0  0  0
 21 27  1  0  0  0
 22 23  1  0  0  0
 22 24  1  0  0  0
 23 36  1  0  0  0
 23 37  1  0  0  0
 24 25  2  0  0  0
 25 26  1  0  0  0
 25 38  1  0  0  0
 26 27  2  0  0  0
M  CHG  4   2  -1   4  -1   6  -1   7  -1
M  END
> <s_m_source_file>
../1o0o_ligand.sdf

> <i_m_source_file_index>
1

> <s_epik_input>
W09IXVAoPU8pKFtPSF0pT1tDSDJdW0NASF0xT1tDQEhdKFtDQEBIXShbQ0BASF0xW09IXSlPUCg9TykoW09IXSlbT0hdKW4oW2NIXW4yKWMoYzIzKW5bY0hdbmMzW05IMl0=

> <s_epik_cmdline>
J2VwaWtfYXBwJywgJy1pbWFlJywgJ2xpZ2FuZF9wcm8ubWFlJywgJy1vbWFlJywgJ2xpZ2FuZF9wcmVwLm1hZScsICctbXMnLCAnMScsICctcGgnLCAnNycsICctcGh0JywgJzAuNScsICctbnQn

> <r_lp_tautomer_probability>
1

> <r_epik_Ionization_Penalty>
  0.1673

> <r_epik_Ionization_Penalty_Charging>
  0.1667

> <r_epik_Ionization_Penalty_Neutral>
  0.0006

> <r_epik_State_Penalty>
 -0.0000

> <r_epik_Charging_Adjusted_Penalty>
0.166734079087257

> <i_epik_Tot_Q>
-4

> <i_epik_Tot_abs_Q>
4

> <s_epik_Chemistry_Notes>
This compound contains an acetal/aminal-like group ( X-CH(R)-Y where X, Y are N, S, or O) that may be acid/base labile, releasing an aldehyde.

$$$$
