1o1s_ligand
                    3D
 Schrodinger Suite 2020-3.
 62 63  0  0  1  0            999 V2000
  193.6470  123.4910   29.0520 C   0  0  0  0  0  0
  193.1760  122.9000   30.3810 C   0  0  0  0  0  0
  191.8450  122.1070   30.3570 C   0  0  0  0  0  0
  191.0540  122.1600   31.6910 C   0  0  0  0  0  0
  189.7860  121.3160   31.5510 C   0  0  0  0  0  0
  188.7920  121.3270   32.4690 C   0  0  0  0  0  0
  188.8850  122.1830   33.7040 C   0  0  0  0  0  0
  187.5480  120.4760   32.2900 C   0  0  0  0  0  0
  186.4070  121.1140   32.8820 O   0  0  0  0  0  0
  185.1590  120.4650   32.5340 C   0  0  0  0  0  0
  184.4970  121.1980   31.3860 C   0  0  0  0  0  0
  183.3470  120.6930   30.7560 C   0  0  0  0  0  0
  182.7810  121.4170   29.6930 C   0  0  0  0  0  0
  183.3590  122.6390   29.2640 C   0  0  0  0  0  0
  184.5100  123.1410   29.9030 C   0  0  0  0  0  0
  185.0540  122.4070   30.9590 C   0  0  0  0  0  0
  185.2070  124.4140   29.5550 C   0  0  0  0  0  0
  186.1140  124.8310   30.2820 O   0  0  0  0  0  0
  184.8340  125.1750   28.3450 C   0  0  0  0  0  0
  184.0360  124.6380   27.3230 C   0  0  0  0  0  0
  183.8300  125.3600   26.1380 C   0  0  0  0  0  0
  184.4050  126.6270   25.9730 C   0  0  0  0  0  0
  185.1500  127.1970   27.0140 C   0  0  0  0  0  0
  185.3560  126.4750   28.1970 C   0  0  0  0  0  0
  193.9180  123.0780   31.5040 C   0  0  0  0  0  0
  195.2300  123.8540   31.5140 C   0  0  0  0  0  0
  195.1140  125.0980   32.2780 O   0  0  0  0  0  0
  196.3480  125.5950   33.1190 P   0  0  2  0  0  0
  196.1040  127.1000   33.3530 O   0  5  0  0  0  0
  197.6720  125.3390   32.4640 O   0  0  0  0  0  0
  196.2410  124.9470   34.5310 O   0  0  0  0  0  0
  197.0750  123.8600   35.2780 P   0  0  0  0  0  0
  196.2780  123.6140   36.5860 O   0  5  0  0  0  0
  196.9840  122.6040   34.3840 O   0  5  0  0  0  0
  198.4780  124.2910   35.5320 O   0  0  0  0  0  0
  192.9211  123.2443   28.2632 H   0  0  0  0  0  0
  194.6292  123.0700   28.7911 H   0  0  0  0  0  0
  193.7296  124.5839   29.1455 H   0  0  0  0  0  0
  191.1889  122.5156   29.5743 H   0  0  0  0  0  0
  192.0530  121.0478   30.1450 H   0  0  0  0  0  0
  191.6783  121.7601   32.5036 H   0  0  0  0  0  0
  190.7833  123.2022   31.9156 H   0  0  0  0  0  0
  189.7019  120.6809   30.6568 H   0  0  0  0  0  0
  189.8347  122.7380   33.6948 H   0  0  0  0  0  0
  188.8430  121.5430   34.5977 H   0  0  0  0  0  0
  188.0453  122.8933   33.7218 H   0  0  0  0  0  0
  187.3558  120.3287   31.2170 H   0  0  0  0  0  0
  187.6993  119.4993   32.7728 H   0  0  0  0  0  0
  185.3576  119.4257   32.2334 H   0  0  0  0  0  0
  184.4864  120.4728   33.4044 H   0  0  0  0  0  0
  182.9012  119.7549   31.0865 H   0  0  0  0  0  0
  181.8900  121.0361   29.1938 H   0  0  0  0  0  0
  182.9116  123.1913   28.4377 H   0  0  0  0  0  0
  185.9403  122.7885   31.4660 H   0  0  0  0  0  0
  183.5755  123.6583   27.4502 H   0  0  0  0  0  0
  183.2198  124.9334   25.3419 H   0  0  0  0  0  0
  184.2730  127.1685   25.0363 H   0  0  0  0  0  0
  185.5675  128.1978   26.9039 H   0  0  0  0  0  0
  185.9258  126.9236   29.0108 H   0  0  0  0  0  0
  193.5788  122.6535   32.4604 H   0  0  0  0  0  0
  196.0173  123.2372   31.9719 H   0  0  0  0  0  0
  195.5151  124.1055   30.4818 H   0  0  0  0  0  0
  1  2  1  0  0  0
  1 36  1  0  0  0
  1 37  1  0  0  0
  1 38  1  0  0  0
  2  3  1  0  0  0
  2 25  2  0  0  0
  3  4  1  0  0  0
  3 39  1  0  0  0
  3 40  1  0  0  0
  4  5  1  0  0  0
  4 41  1  0  0  0
  4 42  1  0  0  0
  5  6  2  0  0  0
  5 43  1  0  0  0
  6  7  1  0  0  0
  6  8  1  0  0  0
  7 44  1  0  0  0
  7 45  1  0  0  0
  7 46  1  0  0  0
  8  9  1  0  0  0
  8 47  1  0  0  0
  8 48  1  0  0  0
  9 10  1  0  0  0
 10 11  1  0  0  0
 10 49  1  0  0  0
 10 50  1  0  0  0
 11 12  2  0  0  0
 11 16  1  0  0  0
 12 13  1  0  0  0
 12 51  1  0  0  0
 13 14  2  0  0  0
 13 52  1  0  0  0
 14 15  1  0  0  0
 14 53  1  0  0  0
 15 16  2  0  0  0
 15 17  1  0  0  0
 16 54  1  0  0  0
 17 18  2  0  0  0
 17 19  1  0  0  0
 19 20  2  0  0  0
 19 24  1  0  0  0
 20 21  1  0  0  0
 20 55  1  0  0  0
 21 22  2  0  0  0
 21 56  1  0  0  0
 22 23  1  0  0  0
 22 57  1  0  0  0
 23 24  2  0  0  0
 23 58  1  0  0  0
 24 59  1  0  0  0
 25 26  1  0  0  0
 25 60  1  0  0  0
 26 27  1  0  0  0
 26 61  1  0  0  0
 26 62  1  0  0  0
 27 28  1  0  0  0
 28 29  1  0  0  0
 28 30  2  0  0  0
 28 31  1  0  0  0
 31 32  1  0  0  0
 32 33  1  0  0  0
 32 34  1  0  0  0
 32 35  2  0  0  0
M  CHG  3  29  -1  33  -1  34  -1
M  END
> <s_m_source_file>
../1o1s_ligand.sdf

> <i_m_source_file_index>
1

> <s_epik_input>
W09IXVAoPU8pKFtPSF0pT1tQQF0oPU8pKFtPSF0pT1tDSDJdL1tDSF09QyhcW0NIM10pW0NIMl1bQ0gyXS9bQ0hdPUMoXFtDSDNdKVtDSDJdT1tDSDJdYzFbY0hdW2NIXVtjSF1jKFtjSF0xKUMoPU8pYzJbY0hdW2NIXVtjSF1bY0hdW2NIXTI=

> <s_epik_cmdline>
J2VwaWtfYXBwJywgJy1pbWFlJywgJ2xpZ2FuZF9wcm8ubWFlJywgJy1vbWFlJywgJ2xpZ2FuZF9wcmVwLm1hZScsICctbXMnLCAnMScsICctcGgnLCAnNycsICctcGh0JywgJzAuNScsICctbnQn

> <r_epik_Ionization_Penalty>
  0.0891

> <r_epik_Ionization_Penalty_Charging>
  0.0891

> <r_epik_Ionization_Penalty_Neutral>
  0.0000

> <r_epik_State_Penalty>
  0.0782

> <r_epik_Charging_Adjusted_Penalty>
0.167367067423023

> <i_epik_Tot_Q>
-3

> <i_epik_Tot_abs_Q>
3

$$$$
