1o2g_ligand
                    3D
 Schrodinger Suite 2020-3.
 42 45  0  0  1  0            999 V2000
   11.5100  -11.6470   22.5770 C   0  0  0  0  0  0
   11.9960  -10.3580   22.1890 C   0  0  0  0  0  0
   12.8590  -10.2060   21.1080 C   0  0  0  0  0  0
   13.2380  -11.3410   20.4050 C   0  0  0  0  0  0
   12.7680  -12.5750   20.7860 C   0  0  0  0  0  0
   11.9060  -12.7540   21.8260 C   0  0  0  0  0  0
   10.6970  -11.7620   23.7050 C   0  0  0  0  0  0
    9.9910  -12.8580   23.9020 N   0  0  0  0  0  0
   10.5960  -10.7460   24.5320 N   0  3  0  0  0  0
   13.9860  -11.4730   19.3660 N   0  0  0  0  0  0
   13.1510  -13.6000   19.8200 C   0  0  0  0  0  0
   13.9760  -12.7630   19.0070 C   0  0  0  0  0  0
   14.8490  -13.3090   18.0820 C   0  0  0  0  0  0
   14.8170  -14.7040   17.8360 C   0  0  0  0  0  0
   15.6500  -15.2640   16.8830 C   0  0  0  0  0  0
   16.5440  -14.4630   16.1910 C   0  0  0  0  0  0
   16.6460  -13.0830   16.4510 C   0  0  0  0  0  0
   15.7820  -12.5170   17.4160 C   0  0  0  0  0  0
   15.7850  -11.1630   17.6660 O   0  0  0  0  0  0
   17.6360  -12.3600   15.7350 C   0  0  0  0  0  0
   17.3410  -11.2050   15.0030 C   0  0  0  0  0  0
   18.3400  -10.5460   14.2720 C   0  0  0  0  0  0
   19.6550  -11.0370   14.2590 C   0  0  0  0  0  0
   19.9650  -12.1780   14.9970 C   0  0  0  0  0  0
   18.9680  -12.8340   15.7260 C   0  0  0  0  0  0
   11.6840   -9.4779   22.7514 H   0  0  0  0  0  0
   13.2277   -9.2212   20.8209 H   0  0  0  0  0  0
   11.5310  -13.7485   22.0679 H   0  0  0  0  0  0
   10.0820  -13.7036   23.2044 H   0  0  0  0  0  0
    9.3110  -12.9267   24.7639 H   0  0  0  0  0  0
   11.1889   -9.8356   24.3598 H   0  0  0  0  0  0
   12.8927  -14.6562   19.7438 H   0  0  0  0  0  0
   14.1334  -15.3389   18.3997 H   0  0  0  0  0  0
   15.6028  -16.3334   16.6772 H   0  0  0  0  0  0
   17.1820  -14.9108   15.4290 H   0  0  0  0  0  0
   15.1050  -10.7416   18.4210 H   0  0  0  0  0  0
   16.3239  -10.8131   15.0008 H   0  0  0  0  0  0
   18.0935   -9.6455   13.7095 H   0  0  0  0  0  0
   20.4258  -10.5311   13.6777 H   0  0  0  0  0  0
   20.9860  -12.5596   15.0060 H   0  0  0  0  0  0
   19.2224  -13.7267   16.2975 H   0  0  0  0  0  0
    9.9186  -10.8058   25.3966 H   0  0  0  0  0  0
  1  2  2  0  0  0
  1  6  1  0  0  0
  1  7  1  0  0  0
  2  3  1  0  0  0
  2 26  1  0  0  0
  3  4  2  0  0  0
  3 27  1  0  0  0
  4  5  1  0  0  0
  4 10  1  0  0  0
  5  6  2  0  0  0
  5 11  1  0  0  0
  6 28  1  0  0  0
  7  8  1  0  0  0
  7  9  2  0  0  0
  8 29  1  0  0  0
  8 30  1  0  0  0
  9 31  1  0  0  0
  9 42  1  0  0  0
 10 12  2  0  0  0
 11 12  1  0  0  0
 11 32  1  0  0  0
 12 13  1  0  0  0
 13 14  2  0  0  0
 13 18  1  0  0  0
 14 15  1  0  0  0
 14 33  1  0  0  0
 15 16  2  0  0  0
 15 34  1  0  0  0
 16 17  1  0  0  0
 16 35  1  0  0  0
 17 18  2  0  0  0
 17 20  1  0  0  0
 18 19  1  0  0  0
 19 36  1  0  0  0
 20 21  2  0  0  0
 20 25  1  0  0  0
 21 22  1  0  0  0
 21 37  1  0  0  0
 22 23  2  0  0  0
 22 38  1  0  0  0
 23 24  1  0  0  0
 23 39  1  0  0  0
 24 25  2  0  0  0
 24 40  1  0  0  0
 25 41  1  0  0  0
M  CHG  1   9   1
M  END
> <s_m_source_file>
../1o2g_ligand.sdf

> <i_m_source_file_index>
1

> <s_epik_input>
W0hdXE49QyhbTkgyXSlcYyhbY0hdW2NIXTEpW2NIXWMoYzEyKVtDSDJdQyg9TjIpYzNbY0hdW2NIXVtjSF1jKGMzW09IXSktYzRbY0hdW2NIXVtjSF1bY0hdW2NIXTQ=

> <s_epik_cmdline>
J2VwaWtfYXBwJywgJy1pbWFlJywgJ2xpZ2FuZF9wcm8ubWFlJywgJy1vbWFlJywgJ2xpZ2FuZF9wcmVwLm1hZScsICctbXMnLCAnMScsICctcGgnLCAnNycsICctcGh0JywgJzAuNScsICctbnQn

> <r_lp_tautomer_probability>
1

> <r_epik_Ionization_Penalty>
  0.0191

> <r_epik_Ionization_Penalty_Charging>
  0.0003

> <r_epik_Ionization_Penalty_Neutral>
  0.0188

> <r_epik_State_Penalty>
 -0.0000

> <r_epik_Charging_Adjusted_Penalty>
0.0003115973184836

> <i_epik_Tot_Q>
1

> <i_epik_Tot_abs_Q>
1

> <s_epik_Chemistry_Notes>
This compound has an imine and may undergo hydrolysis.

$$$$
