1o2h_ligand
                    3D
 Schrodinger Suite 2020-3.
 46 49  0  0  1  0            999 V2000
   44.1400   -3.1040   25.9440 C   0  0  0  0  0  0
   44.5190   -1.7550   25.9650 C   0  0  0  0  0  0
   44.4780   -1.0230   27.1310 C   0  0  0  0  0  0
   44.0620   -1.6440   28.2700 C   0  0  0  0  0  0
   43.6940   -2.9320   28.3020 C   0  0  0  0  0  0
   43.7190   -3.7100   27.1470 C   0  0  0  0  0  0
   44.1870   -3.7960   24.7220 C   0  0  0  0  0  0
   43.7630   -5.0340   24.6370 N   0  3  0  0  0  0
   44.6520   -3.1710   23.6660 N   0  0  0  0  0  0
   43.9310   -1.1950   29.4660 N   0  0  0  0  0  0
   43.3260   -3.2990   29.5100 C   0  0  0  0  0  0
   43.4970   -2.1720   30.2060 C   0  0  0  0  0  0
   43.2730   -2.0230   31.5870 C   0  0  0  0  0  0
   42.9380   -3.1330   32.3600 C   0  0  0  0  0  0
   42.7530   -3.0090   33.7340 C   0  0  0  0  0  0
   42.9010   -1.7850   34.3510 C   0  0  0  0  0  0
   43.2380   -0.6650   33.6030 C   0  0  0  0  0  0
   43.4200    0.5850   34.1790 O   0  0  0  0  0  0
   43.4190   -0.7770   32.2330 C   0  0  0  0  0  0
   43.7230    0.3890   31.5520 O   0  0  0  0  0  0
   43.2820    2.3340   35.7960 C   0  0  0  0  0  0
   43.6090    0.8510   35.5750 C   0  0  0  0  0  0
   45.1250    0.7100   35.8680 C   0  0  0  0  0  0
   45.5920    2.0560   36.4380 C   0  0  0  0  0  0
   44.3290    2.8400   36.7720 C   0  0  0  0  0  0
   44.8517   -1.2772   25.0435 H   0  0  0  0  0  0
   44.7710    0.0268   27.1422 H   0  0  0  0  0  0
   43.4215   -4.7583   27.1716 H   0  0  0  0  0  0
   43.3758   -5.5453   25.5306 H   0  0  0  0  0  0
   45.0042   -2.1325   23.7523 H   0  0  0  0  0  0
   44.6895   -3.6856   22.6945 H   0  0  0  0  0  0
   42.9729   -4.2711   29.8541 H   0  0  0  0  0  0
   42.8198   -4.1067   31.8846 H   0  0  0  0  0  0
   42.4894   -3.8854   34.3261 H   0  0  0  0  0  0
   42.7533   -1.6965   35.4273 H   0  0  0  0  0  0
   43.8783    0.3655   30.4633 H   0  0  0  0  0  0
   42.2807    2.4636   36.2326 H   0  0  0  0  0  0
   43.3494    2.9041   34.8577 H   0  0  0  0  0  0
   42.9670    0.1602   36.1412 H   0  0  0  0  0  0
   45.2840   -0.0992   36.5960 H   0  0  0  0  0  0
   45.6584    0.4742   34.9353 H   0  0  0  0  0  0
   46.1986    1.8820   37.3390 H   0  0  0  0  0  0
   46.1965    2.5831   35.6852 H   0  0  0  0  0  0
   44.4725    3.9210   36.6279 H   0  0  0  0  0  0
   43.9931    2.6487   37.8019 H   0  0  0  0  0  0
   43.7945   -5.5611   23.6721 H   0  0  0  0  0  0
  1  2  2  0  0  0
  1  6  1  0  0  0
  1  7  1  0  0  0
  2  3  1  0  0  0
  2 26  1  0  0  0
  3  4  2  0  0  0
  3 27  1  0  0  0
  4  5  1  0  0  0
  4 10  1  0  0  0
  5  6  2  0  0  0
  5 11  1  0  0  0
  6 28  1  0  0  0
  7  8  2  0  0  0
  7  9  1  0  0  0
  8 29  1  0  0  0
  8 46  1  0  0  0
  9 30  1  0  0  0
  9 31  1  0  0  0
 10 12  2  0  0  0
 11 12  1  0  0  0
 11 32  1  0  0  0
 12 13  1  0  0  0
 13 14  2  0  0  0
 13 19  1  0  0  0
 14 15  1  0  0  0
 14 33  1  0  0  0
 15 16  2  0  0  0
 15 34  1  0  0  0
 16 17  1  0  0  0
 16 35  1  0  0  0
 17 18  1  0  0  0
 17 19  2  0  0  0
 18 22  1  0  0  0
 19 20  1  0  0  0
 20 36  1  0  0  0
 21 25  1  0  0  0
 21 22  1  0  0  0
 21 37  1  0  0  0
 21 38  1  0  0  0
 22 23  1  0  0  0
 22 39  1  0  0  0
 23 24  1  0  0  0
 23 40  1  0  0  0
 23 41  1  0  0  0
 24 25  1  0  0  0
 24 42  1  0  0  0
 24 43  1  0  0  0
 25 44  1  0  0  0
 25 45  1  0  0  0
M  CHG  1   8   1
M  END
> <s_m_source_file>
../1o2h_ligand.sdf

> <i_m_source_file_index>
1

> <s_epik_input>
W0hdXE49QyhbTkgyXSlcYyhbY0hdW2NIXTEpW2NIXWMoYzEyKVtDSDJdQyg9TjIpYzNbY0hdW2NIXVtjSF1jKGMzW09IXSlPW0NIXTRbQ0gyXVtDSDJdW0NIMl1bQ0gyXTQ=

> <s_epik_cmdline>
J2VwaWtfYXBwJywgJy1pbWFlJywgJ2xpZ2FuZF9wcm8ubWFlJywgJy1vbWFlJywgJ2xpZ2FuZF9wcmVwLm1hZScsICctbXMnLCAnMScsICctcGgnLCAnNycsICctcGh0JywgJzAuNScsICctbnQn

> <r_lp_tautomer_probability>
1

> <r_epik_Ionization_Penalty>
  0.0161

> <r_epik_Ionization_Penalty_Charging>
  0.0003

> <r_epik_Ionization_Penalty_Neutral>
  0.0158

> <r_epik_State_Penalty>
 -0.0000

> <r_epik_Charging_Adjusted_Penalty>
0.0003115973184836

> <i_epik_Tot_Q>
1

> <i_epik_Tot_abs_Q>
1

> <s_epik_Chemistry_Notes>
This compound has an imine and may undergo hydrolysis.

$$$$
