1o2j_ligand
                    3D
 Schrodinger Suite 2020-3.
 45 47  0  0  1  0            999 V2000
   44.4610   -3.0870   26.2460 C   0  0  0  0  0  0
   44.8400   -1.7260   26.2880 C   0  0  0  0  0  0
   44.8030   -0.9970   27.4770 C   0  0  0  0  0  0
   44.3900   -1.6430   28.6030 C   0  0  0  0  0  0
   44.0230   -2.9290   28.6190 C   0  0  0  0  0  0
   44.0470   -3.6950   27.4480 C   0  0  0  0  0  0
   44.5060   -3.7930   25.0180 C   0  0  0  0  0  0
   44.2940   -5.0920   24.9750 N   0  3  0  0  0  0
   44.7510   -3.1160   23.9130 N   0  0  0  0  0  0
   44.2630   -1.2310   29.8090 N   0  0  0  0  0  0
   43.6650   -3.3360   29.8220 N   0  3  0  0  0  0
   43.8390   -2.2260   30.5160 C   0  0  0  0  0  0
   43.6170   -2.1050   31.8900 C   0  0  0  0  0  0
   43.2830   -3.2260   32.6440 C   0  0  0  0  0  0
   43.0740   -3.1190   34.0150 C   0  0  0  0  0  0
   43.1990   -1.8980   34.6380 C   0  0  0  0  0  0
   43.5340   -0.7690   33.9010 C   0  0  0  0  0  0
   43.7390   -0.8670   32.5360 C   0  0  0  0  0  0
   44.0500    0.2870   31.8360 O   0  0  0  0  0  0
   43.6980    0.4700   34.4900 O   0  0  0  0  0  0
   43.5500    0.7790   35.8620 C   0  0  0  0  0  0
   44.0610    2.2330   36.0550 C   0  0  0  0  0  0
   42.8710    3.0850   36.4270 C   0  0  0  0  0  0
   45.0200    2.2750   37.2680 C   0  0  0  0  0  0
   45.1683   -1.2354   25.3717 H   0  0  0  0  0  0
   45.0944    0.0530   27.5040 H   0  0  0  0  0  0
   43.7506   -4.7438   27.4654 H   0  0  0  0  0  0
   44.0905   -5.6471   25.9026 H   0  0  0  0  0  0
   44.9267   -2.0311   23.9602 H   0  0  0  0  0  0
   44.7796   -3.6362   22.9442 H   0  0  0  0  0  0
   43.1844   -4.1958   32.1562 H   0  0  0  0  0  0
   42.8110   -4.0027   34.5964 H   0  0  0  0  0  0
   43.0347   -1.8167   35.7125 H   0  0  0  0  0  0
   44.2189    0.2428   30.7499 H   0  0  0  0  0  0
   42.4898    0.6980   36.1438 H   0  0  0  0  0  0
   44.1439    0.0744   36.4627 H   0  0  0  0  0  0
   44.5486    2.6010   35.1402 H   0  0  0  0  0  0
   42.1507    3.0918   35.5956 H   0  0  0  0  0  0
   43.2054    4.1129   36.6309 H   0  0  0  0  0  0
   42.3901    2.6709   37.3254 H   0  0  0  0  0  0
   45.9111    1.6672   37.0521 H   0  0  0  0  0  0
   44.5078    1.8728   38.1545 H   0  0  0  0  0  0
   45.3231    3.3149   37.4599 H   0  0  0  0  0  0
   43.3397   -4.3753   29.9768 H   0  0  0  0  0  0
   44.3204   -5.6220   24.0115 H   0  0  0  0  0  0
  1  2  2  0  0  0
  1  6  1  0  0  0
  1  7  1  0  0  0
  2  3  1  0  0  0
  2 25  1  0  0  0
  3  4  2  0  0  0
  3 26  1  0  0  0
  4  5  1  0  0  0
  4 10  1  0  0  0
  5  6  2  0  0  0
  5 11  1  0  0  0
  6 27  1  0  0  0
  7  8  2  0  0  0
  7  9  1  0  0  0
  8 28  1  0  0  0
  8 45  1  0  0  0
  9 29  1  0  0  0
  9 30  1  0  0  0
 10 12  2  0  0  0
 11 12  1  0  0  0
 11 44  1  0  0  0
 12 13  1  0  0  0
 13 14  2  0  0  0
 13 18  1  0  0  0
 14 15  1  0  0  0
 14 31  1  0  0  0
 15 16  2  0  0  0
 15 32  1  0  0  0
 16 17  1  0  0  0
 16 33  1  0  0  0
 17 18  2  0  0  0
 17 20  1  0  0  0
 18 19  1  0  0  0
 19 34  1  0  0  0
 20 21  1  0  0  0
 21 22  1  0  0  0
 21 35  1  0  0  0
 21 36  1  0  0  0
 22 23  1  0  0  0
 22 24  1  0  0  0
 22 37  1  0  0  0
 23 38  1  0  0  0
 23 39  1  0  0  0
 23 40  1  0  0  0
 24 41  1  0  0  0
 24 42  1  0  0  0
 24 43  1  0  0  0
M  CHG  2   8   1  11   1
M  END
> <s_m_source_file>
../1o2j_ligand.sdf

> <i_m_source_file_index>
1

> <s_epik_input>
W0hdXE49QyhbTkgyXSlcYyhbY0hdW2NIXTEpW2NIXWMoYzEyKVtuSF1jKG4yKS1jM1tjSF1bY0hdW2NIXWMoYzNbT0hdKU9bQ0gyXVtDSF0oW0NIM10pW0NIM10=

> <s_epik_cmdline>
J2VwaWtfYXBwJywgJy1pbWFlJywgJ2xpZ2FuZF9wcm8ubWFlJywgJy1vbWFlJywgJ2xpZ2FuZF9wcmVwLm1hZScsICctbXMnLCAnMScsICctcGgnLCAnNycsICctcGh0JywgJzAuNScsICctbnQn

> <r_epik_Ionization_Penalty>
  0.0013

> <r_epik_Ionization_Penalty_Charging>
  0.0003

> <r_epik_Ionization_Penalty_Neutral>
  0.0010

> <r_epik_State_Penalty>
  0.1712

> <r_epik_Charging_Adjusted_Penalty>
0.17148687607584

> <i_epik_Tot_Q>
2

> <i_epik_Tot_abs_Q>
2

> <s_epik_Chemistry_Notes>
This compound has an imine and may undergo hydrolysis.

$$$$
