1o2k_ligand
                    3D
 Schrodinger Suite 2020-3.
 45 47  0  0  1  0            999 V2000
   44.5180   -3.0730   26.1580 C   0  0  0  0  0  0
   44.8650   -1.7100   26.2080 C   0  0  0  0  0  0
   44.8360   -0.9990   27.4010 C   0  0  0  0  0  0
   44.4600   -1.6630   28.5280 C   0  0  0  0  0  0
   44.1210   -2.9600   28.5480 C   0  0  0  0  0  0
   44.1370   -3.7100   27.3730 C   0  0  0  0  0  0
   44.5550   -3.7540   24.9100 C   0  0  0  0  0  0
   44.3240   -5.0440   24.8420 N   0  0  0  0  0  0
   44.8120   -3.0870   23.8100 N   0  3  0  0  0  0
   44.3480   -1.2540   29.7330 N   0  0  0  0  0  0
   43.7970   -3.3830   29.7540 N   0  3  0  0  0  0
   43.9590   -2.2640   30.4520 C   0  0  0  0  0  0
   43.7580   -2.1470   31.8270 C   0  0  0  0  0  0
   43.3570   -3.2480   32.5640 C   0  0  0  0  0  0
   43.1810   -3.1470   33.9330 C   0  0  0  0  0  0
   43.4040   -1.9520   34.5810 C   0  0  0  0  0  0
   43.8050   -0.8440   33.8640 C   0  0  0  0  0  0
   43.9770   -0.9380   32.4870 C   0  0  0  0  0  0
   44.3500    0.1970   31.7890 O   0  0  0  0  0  0
   44.0840    0.3560   34.5000 O   0  0  0  0  0  0
   43.7120    0.7010   35.8270 C   0  0  0  0  0  0
   44.1390    2.1850   36.1070 C   0  0  0  0  0  0
   42.8870    2.9810   36.5420 C   0  0  0  0  0  0
   45.0470    2.2250   37.3350 C   0  0  0  0  0  0
   45.1628   -1.2014   25.2911 H   0  0  0  0  0  0
   45.1057    0.0566   27.4335 H   0  0  0  0  0  0
   43.8628   -4.7649   27.3842 H   0  0  0  0  0  0
   44.1075   -5.6130   25.7581 H   0  0  0  0  0  0
   44.3469   -5.5563   23.8689 H   0  0  0  0  0  0
   45.0071   -2.0054   23.8555 H   0  0  0  0  0  0
   43.1789   -4.1997   32.0634 H   0  0  0  0  0  0
   42.8634   -4.0200   34.5031 H   0  0  0  0  0  0
   43.2637   -1.8821   35.6597 H   0  0  0  0  0  0
   44.4928    0.1504   30.6993 H   0  0  0  0  0  0
   42.6225    0.6006   35.9402 H   0  0  0  0  0  0
   44.2178    0.0291   36.5360 H   0  0  0  0  0  0
   44.6347    2.6016   35.2178 H   0  0  0  0  0  0
   42.1640    3.0088   35.7134 H   0  0  0  0  0  0
   43.1793    4.0075   36.8082 H   0  0  0  0  0  0
   42.4269    2.4930   37.4139 H   0  0  0  0  0  0
   45.9769    1.6776   37.1214 H   0  0  0  0  0  0
   44.5327    1.7559   38.1867 H   0  0  0  0  0  0
   45.2851    3.2704   37.5810 H   0  0  0  0  0  0
   43.5008   -4.4311   29.9081 H   0  0  0  0  0  0
   44.8324   -3.6093   22.8421 H   0  0  0  0  0  0
  1  2  2  0  0  0
  1  6  1  0  0  0
  1  7  1  0  0  0
  2  3  1  0  0  0
  2 25  1  0  0  0
  3  4  2  0  0  0
  3 26  1  0  0  0
  4  5  1  0  0  0
  4 10  1  0  0  0
  5  6  2  0  0  0
  5 11  1  0  0  0
  6 27  1  0  0  0
  7  8  1  0  0  0
  7  9  2  0  0  0
  8 28  1  0  0  0
  8 29  1  0  0  0
  9 30  1  0  0  0
  9 45  1  0  0  0
 10 12  2  0  0  0
 11 12  1  0  0  0
 11 44  1  0  0  0
 12 13  1  0  0  0
 13 14  2  0  0  0
 13 18  1  0  0  0
 14 15  1  0  0  0
 14 31  1  0  0  0
 15 16  2  0  0  0
 15 32  1  0  0  0
 16 17  1  0  0  0
 16 33  1  0  0  0
 17 18  2  0  0  0
 17 20  1  0  0  0
 18 19  1  0  0  0
 19 34  1  0  0  0
 20 21  1  0  0  0
 21 22  1  0  0  0
 21 35  1  0  0  0
 21 36  1  0  0  0
 22 23  1  0  0  0
 22 24  1  0  0  0
 22 37  1  0  0  0
 23 38  1  0  0  0
 23 39  1  0  0  0
 23 40  1  0  0  0
 24 41  1  0  0  0
 24 42  1  0  0  0
 24 43  1  0  0  0
M  CHG  2   9   1  11   1
M  END
> <s_m_source_file>
../1o2k_ligand.sdf

> <i_m_source_file_index>
1

> <s_epik_input>
W0hdXE49QyhbTkgyXSlcYyhbY0hdW2NIXTEpW2NIXWMoYzEyKVtuSF1jKG4yKS1jM1tjSF1bY0hdW2NIXWMoYzNbT0hdKU9bQ0gyXVtDSF0oW0NIM10pW0NIM10=

> <s_epik_cmdline>
J2VwaWtfYXBwJywgJy1pbWFlJywgJ2xpZ2FuZF9wcm8ubWFlJywgJy1vbWFlJywgJ2xpZ2FuZF9wcmVwLm1hZScsICctbXMnLCAnMScsICctcGgnLCAnNycsICctcGh0JywgJzAuNScsICctbnQn

> <r_epik_Ionization_Penalty>
  0.0013

> <r_epik_Ionization_Penalty_Charging>
  0.0003

> <r_epik_Ionization_Penalty_Neutral>
  0.0010

> <r_epik_State_Penalty>
  0.1712

> <r_epik_Charging_Adjusted_Penalty>
0.171486876075843

> <i_epik_Tot_Q>
2

> <i_epik_Tot_abs_Q>
2

> <s_epik_Chemistry_Notes>
This compound has an imine and may undergo hydrolysis.

$$$$
