1o2p_ligand
                    3D
 Schrodinger Suite 2020-3.
 45 47  0  0  1  0            999 V2000
   43.9720   -2.9830   25.7790 C   0  0  0  0  0  0
   43.8090   -1.5640   25.6740 C   0  0  0  0  0  0
   43.7880   -0.6990   24.1030 Cl  0  0  0  0  0  0
   43.6090   -0.8180   26.8510 C   0  0  0  0  0  0
   43.5700   -1.4800   28.0670 C   0  0  0  0  0  0
   43.7160   -2.8090   28.1770 C   0  0  0  0  0  0
   43.9210   -3.5970   27.0460 C   0  0  0  0  0  0
   44.1940   -3.7910   24.6490 C   0  0  0  0  0  0
   43.7870   -5.0460   24.6360 N   0  0  0  0  0  0
   44.8350   -3.2670   23.6250 N   0  3  0  0  0  0
   43.4090   -1.0610   29.2760 N   0  0  0  0  0  0
   43.6480   -3.2330   29.4210 N   0  3  0  0  0  0
   43.4560   -2.0950   30.0680 C   0  0  0  0  0  0
   43.2590   -1.9810   31.4600 C   0  0  0  0  0  0
   43.1470   -3.1270   32.2600 C   0  0  0  0  0  0
   42.9480   -3.0230   33.6360 C   0  0  0  0  0  0
   42.8570   -1.7860   34.2280 C   0  0  0  0  0  0
   42.9620   -0.6110   33.4590 C   0  0  0  0  0  0
   43.1610   -0.7020   32.0710 C   0  0  0  0  0  0
   43.2610    0.4630   31.3070 O   0  0  0  0  0  0
   42.8720    0.6490   34.0470 O   0  0  0  0  0  0
   42.8820    0.8410   35.4740 C   0  0  0  0  0  0
   43.1960    2.3330   35.8900 C   0  0  0  0  0  0
   44.2420    2.3670   37.0430 C   0  0  0  0  0  0
   43.7830    3.1280   34.7500 C   0  0  0  0  0  0
   43.4867    0.2642   26.8060 H   0  0  0  0  0  0
   44.0405   -4.6763   27.1406 H   0  0  0  0  0  0
   43.2534   -5.4602   25.5042 H   0  0  0  0  0  0
   43.9813   -5.6781   23.7570 H   0  0  0  0  0  0
   45.1640   -2.2179   23.6605 H   0  0  0  0  0  0
   43.2165   -4.1127   31.7999 H   0  0  0  0  0  0
   42.8644   -3.9243   34.2433 H   0  0  0  0  0  0
   42.7019   -1.7137   35.3045 H   0  0  0  0  0  0
   43.4168    0.3963   30.2201 H   0  0  0  0  0  0
   41.8967    0.5779   35.8863 H   0  0  0  0  0  0
   43.6518    0.1977   35.9252 H   0  0  0  0  0  0
   42.2479    2.8096   36.1797 H   0  0  0  0  0  0
   43.8587    1.7978   37.9027 H   0  0  0  0  0  0
   44.4218    3.4095   37.3443 H   0  0  0  0  0  0
   45.1844    1.9177   36.6965 H   0  0  0  0  0  0
   43.0777    3.1341   33.9059 H   0  0  0  0  0  0
   44.7309    2.6688   34.4326 H   0  0  0  0  0  0
   43.9683    4.1607   35.0804 H   0  0  0  0  0  0
   43.7508   -4.3055   29.6429 H   0  0  0  0  0  0
   45.0415   -3.8783   22.7341 H   0  0  0  0  0  0
  1  2  2  0  0  0
  1  7  1  0  0  0
  1  8  1  0  0  0
  2  3  1  0  0  0
  2  4  1  0  0  0
  4  5  2  0  0  0
  4 26  1  0  0  0
  5  6  1  0  0  0
  5 11  1  0  0  0
  6  7  2  0  0  0
  6 12  1  0  0  0
  7 27  1  0  0  0
  8  9  1  0  0  0
  8 10  2  0  0  0
  9 28  1  0  0  0
  9 29  1  0  0  0
 10 30  1  0  0  0
 10 45  1  0  0  0
 11 13  2  0  0  0
 12 13  1  0  0  0
 12 44  1  0  0  0
 13 14  1  0  0  0
 14 15  2  0  0  0
 14 19  1  0  0  0
 15 16  1  0  0  0
 15 31  1  0  0  0
 16 17  2  0  0  0
 16 32  1  0  0  0
 17 18  1  0  0  0
 17 33  1  0  0  0
 18 19  2  0  0  0
 18 21  1  0  0  0
 19 20  1  0  0  0
 20 34  1  0  0  0
 21 22  1  0  0  0
 22 23  1  0  0  0
 22 35  1  0  0  0
 22 36  1  0  0  0
 23 24  1  0  0  0
 23 25  1  0  0  0
 23 37  1  0  0  0
 24 38  1  0  0  0
 24 39  1  0  0  0
 24 40  1  0  0  0
 25 41  1  0  0  0
 25 42  1  0  0  0
 25 43  1  0  0  0
M  CHG  2  10   1  12   1
M  END
> <s_m_source_file>
../1o2p_ligand.sdf

> <i_m_source_file_index>
1

> <s_epik_input>
W0hdXE49QyhbTkgyXSlcYyhjKENsKVtjSF0xKVtjSF1jKGMxMilbbkhdYyhuMiktYzNbY0hdW2NIXVtjSF1jKGMzW09IXSlPW0NIMl1bQ0hdKFtDSDNdKVtDSDNd

> <s_epik_cmdline>
J2VwaWtfYXBwJywgJy1pbWFlJywgJ2xpZ2FuZF9wcm8ubWFlJywgJy1vbWFlJywgJ2xpZ2FuZF9wcmVwLm1hZScsICctbXMnLCAnMScsICctcGgnLCAnNycsICctcGh0JywgJzAuNScsICctbnQn

> <r_epik_Ionization_Penalty>
  0.0021

> <r_epik_Ionization_Penalty_Charging>
  0.0011

> <r_epik_Ionization_Penalty_Neutral>
  0.0011

> <r_epik_State_Penalty>
  0.1341

> <r_epik_Charging_Adjusted_Penalty>
0.135103641185045

> <i_epik_Tot_Q>
2

> <i_epik_Tot_abs_Q>
2

> <s_epik_Chemistry_Notes>
This compound has an imine and may undergo hydrolysis.

$$$$
