1o2q_ligand
                    3D
 Schrodinger Suite 2020-3.
 46 49  0  0  1  0            999 V2000
   43.9640   -3.0750   25.5290 C   0  0  0  0  0  0
   43.8000   -1.6630   25.4310 C   0  0  0  0  0  0
   43.7680   -0.6590   23.9520 Cl  0  0  0  0  0  0
   43.5860   -0.8950   26.5910 C   0  0  0  0  0  0
   43.5190   -1.5400   27.8050 C   0  0  0  0  0  0
   43.7030   -2.8790   27.9000 C   0  0  0  0  0  0
   43.9140   -3.6880   26.7890 C   0  0  0  0  0  0
   44.2150   -3.8470   24.3760 C   0  0  0  0  0  0
   43.7330   -5.0680   24.2340 N   0  0  0  0  0  0
   44.9630   -3.2720   23.4650 N   0  3  0  0  0  0
   43.3540   -1.0440   29.0030 N   0  0  0  0  0  0
   43.5970   -3.2060   29.2180 C   0  0  0  0  0  0
   43.3790   -2.0170   29.8920 C   0  0  0  0  0  0
   43.1930   -1.8760   31.2810 C   0  0  0  0  0  0
   43.0120   -3.0130   32.0980 C   0  0  0  0  0  0
   42.8350   -2.8620   33.4840 C   0  0  0  0  0  0
   42.8390   -1.6020   34.0650 C   0  0  0  0  0  0
   43.0170   -0.4610   33.2800 C   0  0  0  0  0  0
   43.0550    0.8110   33.8230 O   0  0  0  0  0  0
   43.1920   -0.5890   31.8840 C   0  0  0  0  0  0
   43.3530    0.5560   31.1180 O   0  0  0  0  0  0
   42.5230    2.4500   35.3400 C   0  0  0  0  0  0
   43.1280    1.0880   35.2210 C   0  0  0  0  0  0
   44.5850    1.1810   35.6840 C   0  0  0  0  0  0
   44.8640    2.6230   35.9920 C   0  0  0  0  0  0
   43.5380    3.3190   36.0270 C   0  0  0  0  0  0
   43.4757    0.1876   26.5292 H   0  0  0  0  0  0
   44.0368   -4.7659   26.8944 H   0  0  0  0  0  0
   43.1097   -5.5088   25.0260 H   0  0  0  0  0  0
   43.9547   -5.6444   23.3237 H   0  0  0  0  0  0
   45.3419   -2.2523   23.6280 H   0  0  0  0  0  0
   43.6692   -4.2025   29.6538 H   0  0  0  0  0  0
   43.0095   -4.0083   31.6537 H   0  0  0  0  0  0
   42.6931   -3.7437   34.1089 H   0  0  0  0  0  0
   42.7022   -1.5021   35.1418 H   0  0  0  0  0  0
   43.4904    0.4748   30.0296 H   0  0  0  0  0  0
   41.6022    2.4166   35.9409 H   0  0  0  0  0  0
   42.2976    2.8648   34.3464 H   0  0  0  0  0  0
   42.6026    0.2936   35.7713 H   0  0  0  0  0  0
   44.7249    0.5604   36.5814 H   0  0  0  0  0  0
   45.2479    0.8220   34.8830 H   0  0  0  0  0  0
   45.3718    2.6985   36.9649 H   0  0  0  0  0  0
   45.5085    3.0473   35.2081 H   0  0  0  0  0  0
   43.6077    4.2845   35.5046 H   0  0  0  0  0  0
   43.2307    3.4876   37.0697 H   0  0  0  0  0  0
   45.2115   -3.8095   22.5380 H   0  0  0  0  0  0
  1  2  2  0  0  0
  1  7  1  0  0  0
  1  8  1  0  0  0
  2  3  1  0  0  0
  2  4  1  0  0  0
  4  5  2  0  0  0
  4 27  1  0  0  0
  5  6  1  0  0  0
  5 11  1  0  0  0
  6  7  2  0  0  0
  6 12  1  0  0  0
  7 28  1  0  0  0
  8  9  1  0  0  0
  8 10  2  0  0  0
  9 29  1  0  0  0
  9 30  1  0  0  0
 10 31  1  0  0  0
 10 46  1  0  0  0
 11 13  2  0  0  0
 12 13  1  0  0  0
 12 32  1  0  0  0
 13 14  1  0  0  0
 14 15  2  0  0  0
 14 20  1  0  0  0
 15 16  1  0  0  0
 15 33  1  0  0  0
 16 17  2  0  0  0
 16 34  1  0  0  0
 17 18  1  0  0  0
 17 35  1  0  0  0
 18 19  1  0  0  0
 18 20  2  0  0  0
 19 23  1  0  0  0
 20 21  1  0  0  0
 21 36  1  0  0  0
 22 26  1  0  0  0
 22 23  1  0  0  0
 22 37  1  0  0  0
 22 38  1  0  0  0
 23 24  1  0  0  0
 23 39  1  0  0  0
 24 25  1  0  0  0
 24 40  1  0  0  0
 24 41  1  0  0  0
 25 26  1  0  0  0
 25 42  1  0  0  0
 25 43  1  0  0  0
 26 44  1  0  0  0
 26 45  1  0  0  0
M  CHG  1  10   1
M  END
> <s_m_source_file>
../1o2q_ligand.sdf

> <i_m_source_file_index>
1

> <s_epik_input>
W0hdXE49QyhbTkgyXSlcYyhjKENsKVtjSF0xKVtjSF1jKGMxMilbQ0gyXUMoPU4yKWMzW2NIXVtjSF1bY0hdYyhjM1tPSF0pT1tDSF00W0NIMl1bQ0gyXVtDSDJdW0NIMl00

> <s_epik_cmdline>
J2VwaWtfYXBwJywgJy1pbWFlJywgJ2xpZ2FuZF9wcm8ubWFlJywgJy1vbWFlJywgJ2xpZ2FuZF9wcmVwLm1hZScsICctbXMnLCAnMScsICctcGgnLCAnNycsICctcGh0JywgJzAuNScsICctbnQn

> <r_lp_tautomer_probability>
1

> <r_epik_Ionization_Penalty>
  0.0149

> <r_epik_Ionization_Penalty_Charging>
  0.0011

> <r_epik_Ionization_Penalty_Neutral>
  0.0138

> <r_epik_State_Penalty>
 -0.0000

> <r_epik_Charging_Adjusted_Penalty>
0.00105032309542854

> <i_epik_Tot_Q>
1

> <i_epik_Tot_abs_Q>
1

> <s_epik_Chemistry_Notes>
This compound has an imine and may undergo hydrolysis.

$$$$
