1o2r_ligand
                    3D
 Schrodinger Suite 2020-3.
 52 55  0  0  1  0            999 V2000
   43.9030   -3.1690   25.8140 C   0  0  0  0  0  0
   43.8390   -1.7620   25.6620 C   0  0  0  0  0  0
   43.9350   -1.1800   24.4200 F   0  0  0  0  0  0
   43.6490   -0.9390   26.7680 C   0  0  0  0  0  0
   43.5140   -1.5320   28.0060 C   0  0  0  0  0  0
   43.5690   -2.8630   28.1860 C   0  0  0  0  0  0
   43.7670   -3.7180   27.0950 C   0  0  0  0  0  0
   44.1070   -4.0070   24.7080 C   0  0  0  0  0  0
   43.6870   -5.2550   24.7110 N   0  0  0  0  0  0
   44.7420   -3.5080   23.6680 N   0  3  0  0  0  0
   43.3370   -1.0430   29.1810 N   0  0  0  0  0  0
   43.4280   -3.2250   29.4500 N   0  3  0  0  0  0
   43.2890   -2.0360   30.0170 C   0  0  0  0  0  0
   43.0420   -1.8400   31.3980 C   0  0  0  0  0  0
   42.8880   -2.9470   32.2420 C   0  0  0  0  0  0
   42.6410   -2.7790   33.6070 C   0  0  0  0  0  0
   42.5490   -1.5140   34.1420 C   0  0  0  0  0  0
   42.6950   -0.3750   33.3480 C   0  0  0  0  0  0
   42.9470   -0.5400   31.9590 C   0  0  0  0  0  0
   43.0960    0.5590   31.1230 O   0  0  0  0  0  0
   42.5770    0.8770   33.9600 O   0  0  0  0  0  0
   42.4880    2.5050   35.8220 C   0  0  1  0  0  0
   43.1530    2.9440   37.1920 C   0  0  0  0  0  0
   44.6580    3.1240   37.0360 C   0  0  0  0  0  0
   45.2580    1.8440   36.3800 C   0  0  0  0  0  0
   44.6320    1.5950   34.9730 C   0  0  0  0  0  0
   43.1610    1.2360   35.2300 C   0  0  2  0  0  0
   41.0500    2.1800   36.1360 C   0  0  0  0  0  0
   43.6080    0.1448   26.6589 H   0  0  0  0  0  0
   43.8147   -4.7971   27.2410 H   0  0  0  0  0  0
   43.1582   -5.6552   25.5886 H   0  0  0  0  0  0
   43.8650   -5.8973   23.8359 H   0  0  0  0  0  0
   45.0858   -2.4632   23.6829 H   0  0  0  0  0  0
   42.9618   -3.9529   31.8286 H   0  0  0  0  0  0
   42.5209   -3.6513   34.2494 H   0  0  0  0  0  0
   42.3580   -1.3991   35.2090 H   0  0  0  0  0  0
   43.2906    0.4118   30.0504 H   0  0  0  0  0  0
   42.5571    3.3027   35.0678 H   0  0  0  0  0  0
   42.7162    3.8979   37.5225 H   0  0  0  0  0  0
   42.9673    2.1723   37.9536 H   0  0  0  0  0  0
   44.8586    3.9966   36.3970 H   0  0  0  0  0  0
   45.1129    3.2815   38.0251 H   0  0  0  0  0  0
   46.3455    1.9652   36.2671 H   0  0  0  0  0  0
   45.0505    0.9729   37.0188 H   0  0  0  0  0  0
   44.7207    2.5077   34.3655 H   0  0  0  0  0  0
   45.1639    0.7705   34.4757 H   0  0  0  0  0  0
   43.0130    0.3585   35.8766 H   0  0  0  0  0  0
   40.5568    3.0686   36.5569 H   0  0  0  0  0  0
   41.0108    1.3584   36.8664 H   0  0  0  0  0  0
   40.5331    1.8759   35.2139 H   0  0  0  0  0  0
   43.4529   -4.2903   29.7231 H   0  0  0  0  0  0
   44.9287   -4.1359   22.7843 H   0  0  0  0  0  0
  1  2  2  0  0  0
  1  7  1  0  0  0
  1  8  1  0  0  0
  2  3  1  0  0  0
  2  4  1  0  0  0
  4  5  2  0  0  0
  4 29  1  0  0  0
  5  6  1  0  0  0
  5 11  1  0  0  0
  6  7  2  0  0  0
  6 12  1  0  0  0
  7 30  1  0  0  0
  8  9  1  0  0  0
  8 10  2  0  0  0
  9 31  1  0  0  0
  9 32  1  0  0  0
 10 33  1  0  0  0
 10 52  1  0  0  0
 11 13  2  0  0  0
 12 13  1  0  0  0
 12 51  1  0  0  0
 13 14  1  0  0  0
 14 15  2  0  0  0
 14 19  1  0  0  0
 15 16  1  0  0  0
 15 34  1  0  0  0
 16 17  2  0  0  0
 16 35  1  0  0  0
 17 18  1  0  0  0
 17 36  1  0  0  0
 18 19  2  0  0  0
 18 21  1  0  0  0
 19 20  1  0  0  0
 20 37  1  0  0  0
 21 27  1  0  0  0
 22 23  1  0  0  0
 22 27  1  0  0  0
 22 28  1  0  0  0
 22 38  1  0  0  0
 23 24  1  0  0  0
 23 39  1  0  0  0
 23 40  1  0  0  0
 24 25  1  0  0  0
 24 41  1  0  0  0
 24 42  1  0  0  0
 25 26  1  0  0  0
 25 43  1  0  0  0
 25 44  1  0  0  0
 26 27  1  0  0  0
 26 45  1  0  0  0
 26 46  1  0  0  0
 27 47  1  0  0  0
 28 48  1  0  0  0
 28 49  1  0  0  0
 28 50  1  0  0  0
M  CHG  2  10   1  12   1
M  END
> <s_m_source_file>
../1o2r_ligand.sdf

> <i_m_source_file_index>
1

> <s_epik_input>
W0hdXE49QyhbTkgyXSlcYyhjKEYpW2NIXTEpW2NIXWMoYzEyKVtuSF1jKG4yKS1jM1tjSF1bY0hdW2NIXWMoYzNbT0hdKU9bQ0BIXTRbQ0gyXVtDSDJdW0NIMl1bQ0gyXVtDQEBIXTRbQ0gzXQ==

> <s_epik_cmdline>
J2VwaWtfYXBwJywgJy1pbWFlJywgJ2xpZ2FuZF9wcm8ubWFlJywgJy1vbWFlJywgJ2xpZ2FuZF9wcmVwLm1hZScsICctbXMnLCAnMScsICctcGgnLCAnNycsICctcGh0JywgJzAuNScsICctbnQn

> <r_epik_Ionization_Penalty>
  0.0012

> <r_epik_Ionization_Penalty_Charging>
  0.0003

> <r_epik_Ionization_Penalty_Neutral>
  0.0009

> <r_epik_State_Penalty>
  0.3843

> <r_epik_Charging_Adjusted_Penalty>
0.38457049096213

> <i_epik_Tot_Q>
2

> <i_epik_Tot_abs_Q>
2

> <s_epik_Chemistry_Notes>
This compound has an imine and may undergo hydrolysis.

$$$$
