1o2u_ligand
                    3D
 Schrodinger Suite 2020-3.
 42 44  0  0  1  0            999 V2000
   44.1980   -3.1170   26.0000 C   0  0  0  0  0  0
   44.5440   -1.7560   26.2980 C   0  0  0  0  0  0
   44.4350   -1.2030   27.5900 C   0  0  0  0  0  0
   43.9780   -2.0460   28.5660 C   0  0  0  0  0  0
   43.6420   -3.3250   28.3290 C   0  0  0  0  0  0
   43.7280   -3.9110   27.0820 C   0  0  0  0  0  0
   44.3220   -3.6520   24.6930 C   0  0  0  0  0  0
   44.0060   -4.9080   24.4640 N   0  0  0  0  0  0
   44.7540   -2.8890   23.7140 N   0  3  0  0  0  0
   43.7760   -1.8470   29.8240 N   0  0  0  0  0  0
   43.2270   -3.9550   29.4070 N   0  3  0  0  0  0
   43.3390   -2.9820   30.2910 C   0  0  0  0  0  0
   43.0340   -3.2050   31.6530 C   0  0  0  0  0  0
   42.4410   -4.4100   32.1240 C   0  0  0  0  0  0
   42.1390   -4.6260   33.4900 C   0  0  0  0  0  0
   41.4620   -5.9100   34.0240 C   0  0  2  0  0  0
   39.9570   -5.5950   33.7240 C   0  0  0  0  0  0
   39.4120   -6.2490   32.8500 O   0  0  0  0  0  0
   39.4180   -4.7020   34.3700 O   0  5  0  0  0  0
   41.6700   -6.2130   35.6230 C   0  0  0  0  0  0
   43.0320   -6.8500   36.1510 C   0  0  0  0  0  0
   43.2740   -8.0180   35.9280 O   0  0  0  0  0  0
   43.8160   -6.1730   36.8010 O   0  5  0  0  0  0
   42.4440   -3.6370   34.3760 C   0  0  0  0  0  0
   43.0160   -2.4870   33.9490 C   0  0  0  0  0  0
   43.3190   -2.2260   32.6260 C   0  0  0  0  0  0
   43.8690   -0.9990   32.3010 O   0  0  0  0  0  0
   43.4920   -1.3440   35.4140 Br  0  0  0  0  0  0
   44.9072   -1.1220   25.4892 H   0  0  0  0  0  0
   44.6989   -0.1663   27.7990 H   0  0  0  0  0  0
   43.4438   -4.9524   26.9311 H   0  0  0  0  0  0
   43.6448   -5.5430   25.2864 H   0  0  0  0  0  0
   44.1029   -5.3235   23.4501 H   0  0  0  0  0  0
   45.0172   -1.8391   23.9100 H   0  0  0  0  0  0
   42.2106   -5.1966   31.4055 H   0  0  0  0  0  0
   41.8810   -6.7859   33.5070 H   0  0  0  0  0  0
   41.5832   -5.2735   36.1885 H   0  0  0  0  0  0
   40.8997   -6.9197   35.9655 H   0  0  0  0  0  0
   42.2260   -3.7727   35.4353 H   0  0  0  0  0  0
   44.1187   -0.7679   31.2549 H   0  0  0  0  0  0
   42.9199   -5.0094   29.3439 H   0  0  0  0  0  0
   44.8524   -3.3003   22.6985 H   0  0  0  0  0  0
  1  2  2  0  0  0
  1  6  1  0  0  0
  1  7  1  0  0  0
  2  3  1  0  0  0
  2 29  1  0  0  0
  3  4  2  0  0  0
  3 30  1  0  0  0
  4  5  1  0  0  0
  4 10  1  0  0  0
  5  6  2  0  0  0
  5 11  1  0  0  0
  6 31  1  0  0  0
  7  8  1  0  0  0
  7  9  2  0  0  0
  8 32  1  0  0  0
  8 33  1  0  0  0
  9 34  1  0  0  0
  9 42  1  0  0  0
 10 12  2  0  0  0
 11 12  1  0  0  0
 11 41  1  0  0  0
 12 13  1  0  0  0
 13 14  2  0  0  0
 13 26  1  0  0  0
 14 15  1  0  0  0
 14 35  1  0  0  0
 15 16  1  0  0  0
 15 24  2  0  0  0
 16 17  1  0  0  0
 16 20  1  0  0  0
 16 36  1  0  0  0
 17 18  2  0  0  0
 17 19  1  0  0  0
 20 21  1  0  0  0
 20 37  1  0  0  0
 20 38  1  0  0  0
 21 22  2  0  0  0
 21 23  1  0  0  0
 24 25  1  0  0  0
 24 39  1  0  0  0
 25 26  2  0  0  0
 25 28  1  0  0  0
 26 27  1  0  0  0
 27 40  1  0  0  0
M  CHG  4   9   1  11   1  19  -1  23  -1
M  END
> <s_m_source_file>
../1o2u_ligand.sdf

> <i_m_source_file_index>
1

> <s_epik_input>
W0hdXE49QyhbTkgyXSlcYyhbY0hdW2NIXTEpW2NIXWMoYzEyKVtuSF1jKG4yKS1jM1tjSF1jKFtDQEhdKEMoPU8pW09IXSlbQ0gyXUMoPU8pW09IXSlbY0hdYyhCciljM1tPSF0=

> <s_epik_cmdline>
J2VwaWtfYXBwJywgJy1pbWFlJywgJ2xpZ2FuZF9wcm8ubWFlJywgJy1vbWFlJywgJ2xpZ2FuZF9wcmVwLm1hZScsICctbXMnLCAnMScsICctcGgnLCAnNycsICctcGh0JywgJzAuNScsICctbnQn

> <r_epik_Ionization_Penalty>
  0.0197

> <r_epik_Ionization_Penalty_Charging>
  0.0053

> <r_epik_Ionization_Penalty_Neutral>
  0.0145

> <r_epik_State_Penalty>
  0.1525

> <r_epik_Charging_Adjusted_Penalty>
0.157797555739925

> <i_epik_Tot_Q>
0

> <i_epik_Tot_abs_Q>
4

> <s_epik_Chemistry_Notes>
This compound has an imine and may undergo hydrolysis.

$$$$
