1o2v_ligand
                    3D
 Schrodinger Suite 2020-3.
 42 44  0  0  1  0            999 V2000
   44.0890   -2.9160   26.5630 C   0  0  0  0  0  0
   44.4540   -1.5420   26.5400 C   0  0  0  0  0  0
   44.4070   -0.7280   27.6810 C   0  0  0  0  0  0
   43.9890   -1.3190   28.8370 C   0  0  0  0  0  0
   43.6290   -2.6030   28.9240 C   0  0  0  0  0  0
   43.6620   -3.4560   27.8120 C   0  0  0  0  0  0
   44.1610   -3.6760   25.3890 C   0  0  0  0  0  0
   44.0410   -4.9790   25.4560 N   0  3  0  0  0  0
   44.3470   -3.0680   24.2280 N   0  0  0  0  0  0
   43.8540   -0.8140   30.0080 N   0  0  0  0  0  0
   43.2670   -2.9360   30.1540 N   0  3  0  0  0  0
   43.4290   -1.7700   30.7650 C   0  0  0  0  0  0
   43.1630   -1.5650   32.1360 C   0  0  0  0  0  0
   42.7830   -2.6280   32.9540 C   0  0  0  0  0  0
   42.4920   -2.5030   34.3220 C   0  0  0  0  0  0
   42.0100   -3.8340   35.0120 C   0  0  2  0  0  0
   40.5720   -4.1410   34.4250 C   0  0  0  0  0  0
   40.4140   -5.1680   33.7870 O   0  5  0  0  0  0
   39.6640   -3.3510   34.6050 O   0  0  0  0  0  0
   42.0610   -3.8530   36.6210 C   0  0  0  0  0  0
   43.0160   -4.9420   37.2840 C   0  0  0  0  0  0
   43.3430   -5.9550   36.6890 O   0  0  0  0  0  0
   43.4300   -4.7540   38.4170 O   0  5  0  0  0  0
   42.5960   -1.2290   34.9070 C   0  0  0  0  0  0
   42.9770   -0.0830   34.1370 C   0  0  0  0  0  0
   43.2520   -0.2960   32.7520 C   0  0  0  0  0  0
   43.6030    0.8010   32.0050 O   0  0  0  0  0  0
   43.0840    1.7460   34.9270 Br  0  0  0  0  0  0
   44.7835   -1.1039   25.5979 H   0  0  0  0  0  0
   44.6902    0.3240   27.6458 H   0  0  0  0  0  0
   43.3696   -4.5024   27.8995 H   0  0  0  0  0  0
   43.8869   -5.4678   26.4293 H   0  0  0  0  0  0
   44.4457   -1.9731   24.1901 H   0  0  0  0  0  0
   44.4029   -3.6577   23.3011 H   0  0  0  0  0  0
   42.7071   -3.6177   32.5037 H   0  0  0  0  0  0
   42.7249   -4.6279   34.7498 H   0  0  0  0  0  0
   42.4135   -2.8779   36.9882 H   0  0  0  0  0  0
   41.0544   -4.0520   37.0175 H   0  0  0  0  0  0
   42.3821   -1.1108   35.9693 H   0  0  0  0  0  0
   43.8246    0.6887   30.9334 H   0  0  0  0  0  0
   42.9527   -3.9668   30.3748 H   0  0  0  0  0  0
   44.0944   -5.5841   24.5390 H   0  0  0  0  0  0
  1  2  2  0  0  0
  1  6  1  0  0  0
  1  7  1  0  0  0
  2  3  1  0  0  0
  2 29  1  0  0  0
  3  4  2  0  0  0
  3 30  1  0  0  0
  4  5  1  0  0  0
  4 10  1  0  0  0
  5  6  2  0  0  0
  5 11  1  0  0  0
  6 31  1  0  0  0
  7  8  2  0  0  0
  7  9  1  0  0  0
  8 32  1  0  0  0
  8 42  1  0  0  0
  9 33  1  0  0  0
  9 34  1  0  0  0
 10 12  2  0  0  0
 11 12  1  0  0  0
 11 41  1  0  0  0
 12 13  1  0  0  0
 13 14  2  0  0  0
 13 26  1  0  0  0
 14 15  1  0  0  0
 14 35  1  0  0  0
 15 16  1  0  0  0
 15 24  2  0  0  0
 16 17  1  0  0  0
 16 20  1  0  0  0
 16 36  1  0  0  0
 17 18  1  0  0  0
 17 19  2  0  0  0
 20 21  1  0  0  0
 20 37  1  0  0  0
 20 38  1  0  0  0
 21 22  2  0  0  0
 21 23  1  0  0  0
 24 25  1  0  0  0
 24 39  1  0  0  0
 25 26  2  0  0  0
 25 28  1  0  0  0
 26 27  1  0  0  0
 27 40  1  0  0  0
M  CHG  4   8   1  11   1  18  -1  23  -1
M  END
> <s_m_source_file>
../1o2v_ligand.sdf

> <i_m_source_file_index>
1

> <s_epik_input>
W0hdXE49QyhbTkgyXSlcYyhbY0hdW2NIXTEpW2NIXWMoYzEyKVtuSF1jKG4yKS1jM1tjSF1jKFtDQEhdKEMoPU8pW09IXSlbQ0gyXUMoPU8pW09IXSlbY0hdYyhCciljM1tPSF0=

> <s_epik_cmdline>
J2VwaWtfYXBwJywgJy1pbWFlJywgJ2xpZ2FuZF9wcm8ubWFlJywgJy1vbWFlJywgJ2xpZ2FuZF9wcmVwLm1hZScsICctbXMnLCAnMScsICctcGgnLCAnNycsICctcGh0JywgJzAuNScsICctbnQn

> <r_epik_Ionization_Penalty>
  0.0197

> <r_epik_Ionization_Penalty_Charging>
  0.0053

> <r_epik_Ionization_Penalty_Neutral>
  0.0145

> <r_epik_State_Penalty>
  0.1525

> <r_epik_Charging_Adjusted_Penalty>
0.157797555739921

> <i_epik_Tot_Q>
0

> <i_epik_Tot_abs_Q>
4

> <s_epik_Chemistry_Notes>
This compound has an imine and may undergo hydrolysis.

$$$$
