1o2y_ligand
                    3D
 Schrodinger Suite 2020-3.
 42 44  0  0  1  0            999 V2000
   44.2040   -2.9070   26.2020 C   0  0  0  0  0  0
   44.7670   -1.5910   26.2920 C   0  0  0  0  0  0
   44.7580   -0.8460   27.4750 C   0  0  0  0  0  0
   44.1860   -1.4390   28.5700 C   0  0  0  0  0  0
   43.6440   -2.6580   28.5510 C   0  0  0  0  0  0
   43.6260   -3.4410   27.3980 C   0  0  0  0  0  0
   44.2290   -3.6140   24.9810 C   0  0  0  0  0  0
   43.7850   -4.8480   24.9260 N   0  3  0  0  0  0
   44.7170   -3.0400   23.9000 N   0  0  0  0  0  0
   44.0500   -0.9990   29.7740 N   0  0  0  0  0  0
   43.1440   -3.0230   29.7270 N   0  3  0  0  0  0
   43.4400   -1.9360   30.4440 C   0  0  0  0  0  0
   43.1280   -1.7920   31.8210 C   0  0  0  0  0  0
   42.5550   -2.8280   32.5990 C   0  0  0  0  0  0
   42.2570   -2.6820   33.9820 C   0  0  0  0  0  0
   41.5920   -3.8650   34.7840 C   0  0  2  0  0  0
   40.0900   -3.8620   34.2780 C   0  0  0  0  0  0
   39.7600   -4.7550   33.5160 O   0  5  0  0  0  0
   39.3240   -2.9870   34.6320 O   0  0  0  0  0  0
   41.7900   -3.7710   36.4410 C   0  0  0  0  0  0
   42.7860   -4.8030   37.1620 C   0  0  0  0  0  0
   43.0870   -5.8650   36.6520 O   0  0  0  0  0  0
   43.2600   -4.5190   38.2540 O   0  5  0  0  0  0
   42.5530   -1.4510   34.5870 C   0  0  0  0  0  0
   43.1240   -0.3930   33.8710 C   0  0  0  0  0  0
   43.3970   -0.5700   32.5100 C   0  0  0  0  0  0
   43.9460    0.5010   31.8500 O   0  0  0  0  0  0
   43.5940    1.3110   34.7460 Br  0  0  0  0  0  0
   45.2202   -1.1540   25.4022 H   0  0  0  0  0  0
   45.1844    0.1559   27.5239 H   0  0  0  0  0  0
   43.1823   -4.4365   27.4067 H   0  0  0  0  0  0
   43.3777   -5.3267   25.8287 H   0  0  0  0  0  0
   45.0890   -2.0058   23.9466 H   0  0  0  0  0  0
   44.7524   -3.5950   22.9509 H   0  0  0  0  0  0
   42.3326   -3.7795   32.1161 H   0  0  0  0  0  0
   42.0693   -4.8211   34.5233 H   0  0  0  0  0  0
   42.1794   -2.7775   36.7079 H   0  0  0  0  0  0
   40.8205   -3.9299   36.9357 H   0  0  0  0  0  0
   42.3317   -1.3149   35.6456 H   0  0  0  0  0  0
   44.1833    0.4240   30.7787 H   0  0  0  0  0  0
   42.6617   -4.0053   29.8386 H   0  0  0  0  0  0
   43.8202   -5.4034   23.9772 H   0  0  0  0  0  0
  1  2  2  0  0  0
  1  6  1  0  0  0
  1  7  1  0  0  0
  2  3  1  0  0  0
  2 29  1  0  0  0
  3  4  2  0  0  0
  3 30  1  0  0  0
  4  5  1  0  0  0
  4 10  1  0  0  0
  5  6  2  0  0  0
  5 11  1  0  0  0
  6 31  1  0  0  0
  7  8  2  0  0  0
  7  9  1  0  0  0
  8 32  1  0  0  0
  8 42  1  0  0  0
  9 33  1  0  0  0
  9 34  1  0  0  0
 10 12  2  0  0  0
 11 12  1  0  0  0
 11 41  1  0  0  0
 12 13  1  0  0  0
 13 14  2  0  0  0
 13 26  1  0  0  0
 14 15  1  0  0  0
 14 35  1  0  0  0
 15 16  1  0  0  0
 15 24  2  0  0  0
 16 17  1  0  0  0
 16 20  1  0  0  0
 16 36  1  0  0  0
 17 18  1  0  0  0
 17 19  2  0  0  0
 20 21  1  0  0  0
 20 37  1  0  0  0
 20 38  1  0  0  0
 21 22  2  0  0  0
 21 23  1  0  0  0
 24 25  1  0  0  0
 24 39  1  0  0  0
 25 26  2  0  0  0
 25 28  1  0  0  0
 26 27  1  0  0  0
 27 40  1  0  0  0
M  CHG  4   8   1  11   1  18  -1  23  -1
M  END
> <s_m_source_file>
../1o2y_ligand.sdf

> <i_m_source_file_index>
1

> <s_epik_input>
W0hdXE49QyhbTkgyXSlcYyhbY0hdW2NIXTEpW2NIXWMoYzEyKVtuSF1jKG4yKS1jM1tjSF1jKFtDQEhdKEMoPU8pW09IXSlbQ0gyXUMoPU8pW09IXSlbY0hdYyhCciljM1tPSF0=

> <s_epik_cmdline>
J2VwaWtfYXBwJywgJy1pbWFlJywgJ2xpZ2FuZF9wcm8ubWFlJywgJy1vbWFlJywgJ2xpZ2FuZF9wcmVwLm1hZScsICctbXMnLCAnMScsICctcGgnLCAnNycsICctcGh0JywgJzAuNScsICctbnQn

> <r_epik_Ionization_Penalty>
  0.0197

> <r_epik_Ionization_Penalty_Charging>
  0.0053

> <r_epik_Ionization_Penalty_Neutral>
  0.0145

> <r_epik_State_Penalty>
  0.1525

> <r_epik_Charging_Adjusted_Penalty>
0.157797555739919

> <i_epik_Tot_Q>
0

> <i_epik_Tot_abs_Q>
4

> <s_epik_Chemistry_Notes>
This compound has an imine and may undergo hydrolysis.

$$$$
