1o30_ligand
                    3D
 Schrodinger Suite 2020-3.
 52 55  0  0  1  0            999 V2000
   43.9790   -3.1320   26.0090 C   0  0  0  0  0  0
   44.1660   -1.7150   25.9880 C   0  0  0  0  0  0
   44.0260   -0.9210   27.1250 C   0  0  0  0  0  0
   43.6960   -1.5690   28.2900 C   0  0  0  0  0  0
   43.5080   -2.8930   28.3690 C   0  0  0  0  0  0
   43.6370   -3.7220   27.2600 C   0  0  0  0  0  0
   44.1430   -3.8810   24.8290 C   0  0  0  0  0  0
   43.8290   -5.1620   24.8090 N   0  3  0  0  0  0
   44.6190   -3.2720   23.7540 N   0  0  0  0  0  0
   43.5080   -1.0990   29.4710 N   0  0  0  0  0  0
   43.1930   -3.2870   29.5910 N   0  3  0  0  0  0
   43.2150   -2.1200   30.2090 C   0  0  0  0  0  0
   42.9990   -1.9840   31.6010 C   0  0  0  0  0  0
   42.6790   -3.0930   32.3960 C   0  0  0  0  0  0
   42.4550   -3.0140   33.7780 C   0  0  0  0  0  0
   42.0810   -4.3060   34.5590 C   0  0  2  0  0  0
   40.5760   -4.4840   34.2510 C   0  0  0  0  0  0
   40.2540   -5.3170   33.4190 O   0  5  0  0  0  0
   39.7880   -3.7720   34.8420 O   0  0  0  0  0  0
   42.3820   -4.2100   36.1260 C   0  0  0  0  0  0
   43.1110   -5.4400   36.7760 C   0  0  0  0  0  0
   42.9800   -6.5550   36.2930 O   0  0  0  0  0  0
   43.7970   -5.2220   37.7740 O   0  5  0  0  0  0
   42.5660   -1.7720   34.3740 C   0  0  0  0  0  0
   42.8880   -0.6190   33.6550 C   0  0  0  0  0  0
   43.0930   -0.7290   32.2710 C   0  0  0  0  0  0
   43.3600    0.4410   31.5780 O   0  0  0  0  0  0
   43.0410    0.5860   34.3410 C   0  0  0  0  0  0
   44.2770    1.2600   34.3350 C   0  0  0  0  0  0
   44.4490    2.4280   35.0450 C   0  0  0  0  0  0
   43.3990    2.9670   35.7810 C   0  0  0  0  0  0
   42.1740    2.3320   35.7960 C   0  0  0  0  0  0
   41.9990    1.1560   35.0860 C   0  0  0  0  0  0
   45.3690    0.7730   33.5920 F   0  0  0  0  0  0
   44.4287   -1.2361   25.0448 H   0  0  0  0  0  0
   44.1710    0.1588   27.0912 H   0  0  0  0  0  0
   43.4803   -4.7973   27.3457 H   0  0  0  0  0  0
   43.4352   -5.6460   25.7149 H   0  0  0  0  0  0
   44.8737   -2.2027   23.7952 H   0  0  0  0  0  0
   44.7597   -3.8354   22.8197 H   0  0  0  0  0  0
   42.6001   -4.0679   31.9149 H   0  0  0  0  0  0
   42.6726   -5.1685   34.2183 H   0  0  0  0  0  0
   43.0261   -3.3403   36.3230 H   0  0  0  0  0  0
   41.4355   -4.0971   36.6750 H   0  0  0  0  0  0
   42.3955   -1.6892   35.4474 H   0  0  0  0  0  0
   43.5284    0.4104   30.4914 H   0  0  0  0  0  0
   45.4147    2.9333   35.0299 H   0  0  0  0  0  0
   43.5435    3.8888   36.3446 H   0  0  0  0  0  0
   41.3462    2.7549   36.3652 H   0  0  0  0  0  0
   41.0278    0.6616   35.1068 H   0  0  0  0  0  0
   43.0078   -4.3520   29.7949 H   0  0  0  0  0  0
   43.9610   -5.7463   23.8864 H   0  0  0  0  0  0
  1  2  2  0  0  0
  1  6  1  0  0  0
  1  7  1  0  0  0
  2  3  1  0  0  0
  2 35  1  0  0  0
  3  4  2  0  0  0
  3 36  1  0  0  0
  4  5  1  0  0  0
  4 10  1  0  0  0
  5  6  2  0  0  0
  5 11  1  0  0  0
  6 37  1  0  0  0
  7  8  2  0  0  0
  7  9  1  0  0  0
  8 38  1  0  0  0
  8 52  1  0  0  0
  9 39  1  0  0  0
  9 40  1  0  0  0
 10 12  2  0  0  0
 11 12  1  0  0  0
 11 51  1  0  0  0
 12 13  1  0  0  0
 13 14  2  0  0  0
 13 26  1  0  0  0
 14 15  1  0  0  0
 14 41  1  0  0  0
 15 16  1  0  0  0
 15 24  2  0  0  0
 16 17  1  0  0  0
 16 20  1  0  0  0
 16 42  1  0  0  0
 17 18  1  0  0  0
 17 19  2  0  0  0
 20 21  1  0  0  0
 20 43  1  0  0  0
 20 44  1  0  0  0
 21 22  2  0  0  0
 21 23  1  0  0  0
 24 25  1  0  0  0
 24 45  1  0  0  0
 25 26  2  0  0  0
 25 28  1  0  0  0
 26 27  1  0  0  0
 27 46  1  0  0  0
 28 29  2  0  0  0
 28 33  1  0  0  0
 29 30  1  0  0  0
 29 34  1  0  0  0
 30 31  2  0  0  0
 30 47  1  0  0  0
 31 32  1  0  0  0
 31 48  1  0  0  0
 32 33  2  0  0  0
 32 49  1  0  0  0
 33 50  1  0  0  0
M  CHG  4   8   1  11   1  18  -1  23  -1
M  END
> <s_m_source_file>
../1o30_ligand.sdf

> <i_m_source_file_index>
1

> <s_epik_input>
W0hdXE49QyhbTkgyXSlcYyhbY0hdW2NIXTEpW2NIXWMoYzEyKVtuSF1jKG4yKS1jM1tjSF1jKFtDQEhdKEMoPU8pW09IXSlbQ0gyXUMoPU8pW09IXSlbY0hdYyhjM1tPSF0pLWM0YyhGKVtjSF1bY0hdW2NIXVtjSF00

> <s_epik_cmdline>
J2VwaWtfYXBwJywgJy1pbWFlJywgJ2xpZ2FuZF9wcm8ubWFlJywgJy1vbWFlJywgJ2xpZ2FuZF9wcmVwLm1hZScsICctbXMnLCAnMScsICctcGgnLCAnNycsICctcGh0JywgJzAuNScsICctbnQn

> <r_epik_Ionization_Penalty>
  0.0075

> <r_epik_Ionization_Penalty_Charging>
  0.0069

> <r_epik_Ionization_Penalty_Neutral>
  0.0006

> <r_epik_State_Penalty>
  0.1436

> <r_epik_Charging_Adjusted_Penalty>
0.150551430835934

> <i_epik_Tot_Q>
0

> <i_epik_Tot_abs_Q>
4

> <s_epik_Chemistry_Notes>
This compound has an imine and may undergo hydrolysis.

$$$$
