1o32_ligand
                    3D
 Schrodinger Suite 2020-3.
 31 33  0  0  1  0            999 V2000
   44.2810   -3.1230   26.0620 C   0  0  0  0  0  0
   44.6630   -1.7910   26.3490 C   0  0  0  0  0  0
   44.5530   -1.2790   27.6620 C   0  0  0  0  0  0
   44.0710   -2.1180   28.6360 C   0  0  0  0  0  0
   43.6930   -3.3850   28.3730 C   0  0  0  0  0  0
   43.7820   -3.9160   27.1040 C   0  0  0  0  0  0
   44.3910   -3.6670   24.7720 C   0  0  0  0  0  0
   44.1110   -4.9340   24.5680 N   0  0  0  0  0  0
   44.7790   -2.9010   23.7850 N   0  3  0  0  0  0
   43.8660   -1.9530   29.8870 N   0  0  0  0  0  0
   43.2570   -4.0300   29.4240 N   0  3  0  0  0  0
   43.3970   -3.0840   30.3400 C   0  0  0  0  0  0
   43.1300   -3.2320   31.7120 C   0  0  0  0  0  0
   43.1280   -2.1250   32.4520 N   0  3  0  0  0  0
   42.8990   -2.1360   33.7530 C   0  0  0  0  0  0
   42.6430   -3.3320   34.4180 C   0  0  0  0  0  0
   42.6360   -4.5160   33.6920 C   0  0  0  0  0  0
   42.8780   -4.4920   32.3220 C   0  0  0  0  0  0
   42.8550   -5.7200   31.6610 O   0  5  0  0  0  0
   45.0452   -1.1545   25.5510 H   0  0  0  0  0  0
   44.8409   -0.2535   27.8932 H   0  0  0  0  0  0
   43.4675   -4.9420   26.9131 H   0  0  0  0  0  0
   43.7858   -5.5673   25.4065 H   0  0  0  0  0  0
   44.2017   -5.3617   23.5586 H   0  0  0  0  0  0
   45.0105   -1.8415   23.9692 H   0  0  0  0  0  0
   42.9106   -1.1998   34.3111 H   0  0  0  0  0  0
   42.4512   -3.3391   35.4910 H   0  0  0  0  0  0
   42.4411   -5.4632   34.1950 H   0  0  0  0  0  0
   42.9173   -5.0718   29.3282 H   0  0  0  0  0  0
   44.8738   -3.3164   22.7709 H   0  0  0  0  0  0
   43.3226   -1.1494   31.9827 H   0  0  0  0  0  0
  1  2  2  0  0  0
  1  6  1  0  0  0
  1  7  1  0  0  0
  2  3  1  0  0  0
  2 20  1  0  0  0
  3  4  2  0  0  0
  3 21  1  0  0  0
  4  5  1  0  0  0
  4 10  1  0  0  0
  5  6  2  0  0  0
  5 11  1  0  0  0
  6 22  1  0  0  0
  7  8  1  0  0  0
  7  9  2  0  0  0
  8 23  1  0  0  0
  8 24  1  0  0  0
  9 25  1  0  0  0
  9 30  1  0  0  0
 10 12  2  0  0  0
 11 12  1  0  0  0
 11 29  1  0  0  0
 12 13  1  0  0  0
 13 14  2  0  0  0
 13 18  1  0  0  0
 14 15  1  0  0  0
 14 31  1  0  0  0
 15 16  2  0  0  0
 15 26  1  0  0  0
 16 17  1  0  0  0
 16 27  1  0  0  0
 17 18  2  0  0  0
 17 28  1  0  0  0
 18 19  1  0  0  0
M  CHG  4   9   1  11   1  14   1  19  -1
M  END
> <s_m_source_file>
../1o32_ligand.sdf

> <i_m_source_file_index>
1

> <s_epik_input>
W0hdXE49QyhbTkgyXSlcYyhbY0hdW2NIXTEpW2NIXWMoYzEyKVtuSF1jKG4yKS1jM25bY0hdW2NIXVtjSF1jM1tPSF0=

> <s_epik_cmdline>
J2VwaWtfYXBwJywgJy1pbWFlJywgJ2xpZ2FuZF9wcm8ubWFlJywgJy1vbWFlJywgJ2xpZ2FuZF9wcmVwLm1hZScsICctbXMnLCAnMScsICctcGgnLCAnNycsICctcGh0JywgJzAuNScsICctbnQn

> <r_epik_Ionization_Penalty>
  0.0273

> <r_epik_Ionization_Penalty_Charging>
  0.0163

> <r_epik_Ionization_Penalty_Neutral>
  0.0110

> <r_epik_State_Penalty>
  0.2583

> <r_epik_Charging_Adjusted_Penalty>
0.274624685886985

> <i_epik_Tot_Q>
2

> <i_epik_Tot_abs_Q>
4

> <s_epik_Chemistry_Notes>
This compound has an imine and may undergo hydrolysis.

$$$$
