1o34_ligand
                    3D
 Schrodinger Suite 2020-3.
 31 33  0  0  1  0            999 V2000
   43.9810   -3.0230   26.2160 C   0  0  0  0  0  0
   44.5110   -1.7140   26.2640 C   0  0  0  0  0  0
   44.4860   -0.9620   27.4130 C   0  0  0  0  0  0
   43.9310   -1.5300   28.5240 C   0  0  0  0  0  0
   43.3970   -2.7740   28.5200 C   0  0  0  0  0  0
   43.4050   -3.5600   27.3670 C   0  0  0  0  0  0
   44.0540   -3.7690   25.0350 C   0  0  0  0  0  0
   43.7670   -5.0590   25.0530 N   0  3  0  0  0  0
   44.4230   -3.1350   23.9350 N   0  0  0  0  0  0
   43.7780   -1.0920   29.7220 N   0  0  0  0  0  0
   42.9210   -3.1120   29.7000 N   0  3  0  0  0  0
   43.1860   -2.0210   30.3930 C   0  0  0  0  0  0
   42.9830   -1.8940   31.7530 C   0  0  0  0  0  0
   42.6900   -2.9800   32.4360 N   0  3  0  0  0  0
   42.4890   -2.9900   33.7380 C   0  0  0  0  0  0
   42.5700   -1.7940   34.4430 C   0  0  0  0  0  0
   42.8780   -0.6150   33.7670 C   0  0  0  0  0  0
   43.1010   -0.6600   32.4020 C   0  0  0  0  0  0
   43.4180    0.4850   31.7020 O   0  5  0  0  0  0
   44.9526   -1.2886   25.3628 H   0  0  0  0  0  0
   44.8933    0.0488   27.4372 H   0  0  0  0  0  0
   42.9749   -4.5615   27.3660 H   0  0  0  0  0  0
   43.4644   -5.5420   25.9938 H   0  0  0  0  0  0
   44.6517   -2.0596   23.9704 H   0  0  0  0  0  0
   44.5013   -3.6829   22.9844 H   0  0  0  0  0  0
   42.2625   -3.9223   34.2552 H   0  0  0  0  0  0
   42.3935   -1.7789   35.5185 H   0  0  0  0  0  0
   42.9424    0.3301   34.3062 H   0  0  0  0  0  0
   42.4623   -4.1012   29.8452 H   0  0  0  0  0  0
   43.8307   -5.6496   24.1272 H   0  0  0  0  0  0
   42.6012   -3.9472   31.9197 H   0  0  0  0  0  0
  1  2  2  0  0  0
  1  6  1  0  0  0
  1  7  1  0  0  0
  2  3  1  0  0  0
  2 20  1  0  0  0
  3  4  2  0  0  0
  3 21  1  0  0  0
  4  5  1  0  0  0
  4 10  1  0  0  0
  5  6  2  0  0  0
  5 11  1  0  0  0
  6 22  1  0  0  0
  7  8  2  0  0  0
  7  9  1  0  0  0
  8 23  1  0  0  0
  8 30  1  0  0  0
  9 24  1  0  0  0
  9 25  1  0  0  0
 10 12  2  0  0  0
 11 12  1  0  0  0
 11 29  1  0  0  0
 12 13  1  0  0  0
 13 14  2  0  0  0
 13 18  1  0  0  0
 14 15  1  0  0  0
 14 31  1  0  0  0
 15 16  2  0  0  0
 15 26  1  0  0  0
 16 17  1  0  0  0
 16 27  1  0  0  0
 17 18  2  0  0  0
 17 28  1  0  0  0
 18 19  1  0  0  0
M  CHG  4   8   1  11   1  14   1  19  -1
M  END
> <s_m_source_file>
../1o34_ligand.sdf

> <i_m_source_file_index>
1

> <s_epik_input>
W0hdXE49QyhbTkgyXSlcYyhbY0hdW2NIXTEpW2NIXWMoYzEyKVtuSF1jKG4yKS1jM25bY0hdW2NIXVtjSF1jM1tPSF0=

> <s_epik_cmdline>
J2VwaWtfYXBwJywgJy1pbWFlJywgJ2xpZ2FuZF9wcm8ubWFlJywgJy1vbWFlJywgJ2xpZ2FuZF9wcmVwLm1hZScsICctbXMnLCAnMScsICctcGgnLCAnNycsICctcGh0JywgJzAuNScsICctbnQn

> <r_epik_Ionization_Penalty>
  0.0273

> <r_epik_Ionization_Penalty_Charging>
  0.0163

> <r_epik_Ionization_Penalty_Neutral>
  0.0110

> <r_epik_State_Penalty>
  0.2583

> <r_epik_Charging_Adjusted_Penalty>
0.274624685886986

> <i_epik_Tot_Q>
2

> <i_epik_Tot_abs_Q>
4

> <s_epik_Chemistry_Notes>
This compound has an imine and may undergo hydrolysis.

$$$$
