1o35_ligand
                    3D
 Schrodinger Suite 2020-3.
 32 34  0  0  1  0            999 V2000
   44.3020   -2.8610   26.6630 C   0  0  0  0  0  0
   44.7860   -1.5240   26.6370 C   0  0  0  0  0  0
   44.7880   -0.7410   27.7960 C   0  0  0  0  0  0
   44.3120   -1.2930   28.9670 C   0  0  0  0  0  0
   43.7690   -2.5260   29.0090 C   0  0  0  0  0  0
   43.7580   -3.3510   27.8630 C   0  0  0  0  0  0
   44.3110   -3.6160   25.4790 C   0  0  0  0  0  0
   44.1310   -4.9040   25.5110 N   0  3  0  0  0  0
   44.5530   -3.0780   24.3050 N   0  0  0  0  0  0
   44.1810   -0.7830   30.1530 N   0  0  0  0  0  0
   43.3780   -2.8400   30.2310 N   0  3  0  0  0  0
   43.6250   -1.7090   30.8870 C   0  0  0  0  0  0
   43.3440   -1.5260   32.2390 C   0  0  0  0  0  0
   42.9840   -2.5940   33.0670 C   0  0  0  0  0  0
   42.6920   -2.3630   34.4070 C   0  0  0  0  0  0
   42.3250   -3.3910   35.2510 F   0  0  0  0  0  0
   42.7420   -1.0770   34.9140 C   0  0  0  0  0  0
   43.0700   -0.0010   34.0860 C   0  0  0  0  0  0
   43.3780   -0.2310   32.7640 C   0  0  0  0  0  0
   43.7070    0.8320   31.9570 O   0  0  0  0  0  0
   45.1598   -1.1045   25.7030 H   0  0  0  0  0  0
   45.1580    0.2840   27.7743 H   0  0  0  0  0  0
   43.3335   -4.3539   27.9083 H   0  0  0  0  0  0
   43.9251   -5.4070   26.4673 H   0  0  0  0  0  0
   44.7130   -1.9931   24.2196 H   0  0  0  0  0  0
   44.5956   -3.7125   23.4075 H   0  0  0  0  0  0
   42.9324   -3.6051   32.6631 H   0  0  0  0  0  0
   42.5238   -0.9020   35.9675 H   0  0  0  0  0  0
   43.0820    1.0138   34.4838 H   0  0  0  0  0  0
   43.9553    0.6630   30.8988 H   0  0  0  0  0  0
   42.9775   -3.8430   30.4396 H   0  0  0  0  0  0
   44.1847   -5.4901   24.5817 H   0  0  0  0  0  0
  1  2  2  0  0  0
  1  6  1  0  0  0
  1  7  1  0  0  0
  2  3  1  0  0  0
  2 21  1  0  0  0
  3  4  2  0  0  0
  3 22  1  0  0  0
  4  5  1  0  0  0
  4 10  1  0  0  0
  5  6  2  0  0  0
  5 11  1  0  0  0
  6 23  1  0  0  0
  7  8  2  0  0  0
  7  9  1  0  0  0
  8 24  1  0  0  0
  8 32  1  0  0  0
  9 25  1  0  0  0
  9 26  1  0  0  0
 10 12  2  0  0  0
 11 12  1  0  0  0
 11 31  1  0  0  0
 12 13  1  0  0  0
 13 14  2  0  0  0
 13 19  1  0  0  0
 14 15  1  0  0  0
 14 27  1  0  0  0
 15 16  1  0  0  0
 15 17  2  0  0  0
 17 18  1  0  0  0
 17 28  1  0  0  0
 18 19  2  0  0  0
 18 29  1  0  0  0
 19 20  1  0  0  0
 20 30  1  0  0  0
M  CHG  2   8   1  11   1
M  END
> <s_m_source_file>
../1o35_ligand.sdf

> <i_m_source_file_index>
1

> <s_epik_input>
W0hdXE49QyhbTkgyXSlcYyhbY0hdW2NIXTEpW2NIXWMoYzEyKVtuSF1jKG4yKS1jM1tjSF1jKEYpW2NIXVtjSF1jM1tPSF0=

> <s_epik_cmdline>
J2VwaWtfYXBwJywgJy1pbWFlJywgJ2xpZ2FuZF9wcm8ubWFlJywgJy1vbWFlJywgJ2xpZ2FuZF9wcmVwLm1hZScsICctbXMnLCAnMScsICctcGgnLCAnNycsICctcGh0JywgJzAuNScsICctbnQn

> <r_epik_Ionization_Penalty>
  0.0018

> <r_epik_Ionization_Penalty_Charging>
  0.0003

> <r_epik_Ionization_Penalty_Neutral>
  0.0014

> <r_epik_State_Penalty>
  0.1712

> <r_epik_Charging_Adjusted_Penalty>
0.171486876075841

> <i_epik_Tot_Q>
2

> <i_epik_Tot_abs_Q>
2

> <s_epik_Chemistry_Notes>
This compound has an imine and may undergo hydrolysis.

$$$$
