1o37_ligand
                    3D
 Schrodinger Suite 2020-3.
 51 54  0  0  1  0            999 V2000
   44.4980   -2.9990   26.1780 C   0  0  0  0  0  0
   44.8270   -1.6290   26.2690 C   0  0  0  0  0  0
   44.7470   -0.8890   27.4430 C   0  0  0  0  0  0
   44.3220   -1.5550   28.5580 C   0  0  0  0  0  0
   44.0010   -2.8480   28.5460 C   0  0  0  0  0  0
   44.0660   -3.6350   27.3920 C   0  0  0  0  0  0
   44.5970   -3.6560   24.9010 C   0  0  0  0  0  0
   44.3260   -4.9420   24.7860 N   0  3  0  0  0  0
   44.9420   -2.9510   23.8290 N   0  0  0  0  0  0
   44.1480   -1.1200   29.7620 N   0  0  0  0  0  0
   43.6220   -3.2620   29.7350 N   0  3  0  0  0  0
   43.7430   -2.1340   30.4310 C   0  0  0  0  0  0
   43.4620   -2.0560   31.8270 C   0  0  0  0  0  0
   43.0700   -3.2040   32.5180 C   0  0  0  0  0  0
   42.7820   -3.1860   33.8820 C   0  0  0  0  0  0
   42.3010   -4.1650   34.7970 C   0  0  0  0  0  0
   40.8180   -4.4770   34.5760 C   0  0  0  0  0  0
   40.5260   -5.8350   35.1270 N   0  3  0  0  0  0
   42.8870   -2.0100   34.6010 C   0  0  0  0  0  0
   43.2720   -0.8370   33.9940 C   0  0  0  0  0  0
   43.5500   -0.8710   32.6030 C   0  0  0  0  0  0
   43.8870    0.3130   32.0000 O   0  0  0  0  0  0
   43.4070    0.3040   34.7740 C   0  0  0  0  0  0
   44.6160    1.0330   34.8030 C   0  0  0  0  0  0
   44.7790    2.1860   35.5950 C   0  0  0  0  0  0
   43.7310    2.6460   36.3850 C   0  0  0  0  0  0
   42.5200    1.9470   36.3770 C   0  0  0  0  0  0
   42.3600    0.7880   35.5810 C   0  0  0  0  0  0
   45.1637   -1.1215   25.3650 H   0  0  0  0  0  0
   45.0098    0.1684   27.4727 H   0  0  0  0  0  0
   43.7989   -4.6916   27.4125 H   0  0  0  0  0  0
   44.0404   -5.5254   25.6737 H   0  0  0  0  0  0
   45.1679   -1.8788   23.9252 H   0  0  0  0  0  0
   45.0017   -3.4396   22.8453 H   0  0  0  0  0  0
   42.9864   -4.1446   31.9736 H   0  0  0  0  0  0
   42.8708   -5.0972   34.6696 H   0  0  0  0  0  0
   42.4250   -3.7972   35.8263 H   0  0  0  0  0  0
   40.2041   -3.7246   35.0926 H   0  0  0  0  0  0
   40.5952   -4.4553   33.4990 H   0  0  0  0  0  0
   39.4626   -6.0717   34.9745 H   0  0  0  0  0  0
   40.7546   -5.8511   36.2029 H   0  0  0  0  0  0
   41.1458   -6.5818   34.6092 H   0  0  0  0  0  0
   42.6608   -2.0121   35.6673 H   0  0  0  0  0  0
   44.1114    0.3376   30.9234 H   0  0  0  0  0  0
   45.4514    0.6917   34.1917 H   0  0  0  0  0  0
   45.7295    2.7195   35.5888 H   0  0  0  0  0  0
   43.8517    3.5373   37.0007 H   0  0  0  0  0  0
   41.6904    2.2986   36.9904 H   0  0  0  0  0  0
   41.4068    0.2594   35.5930 H   0  0  0  0  0  0
   43.3252   -4.3108   29.8834 H   0  0  0  0  0  0
   44.3856   -5.4308   23.8024 H   0  0  0  0  0  0
  1  2  2  0  0  0
  1  6  1  0  0  0
  1  7  1  0  0  0
  2  3  1  0  0  0
  2 29  1  0  0  0
  3  4  2  0  0  0
  3 30  1  0  0  0
  4  5  1  0  0  0
  4 10  1  0  0  0
  5  6  2  0  0  0
  5 11  1  0  0  0
  6 31  1  0  0  0
  7  8  2  0  0  0
  7  9  1  0  0  0
  8 32  1  0  0  0
  8 51  1  0  0  0
  9 33  1  0  0  0
  9 34  1  0  0  0
 10 12  2  0  0  0
 11 12  1  0  0  0
 11 50  1  0  0  0
 12 13  1  0  0  0
 13 14  2  0  0  0
 13 21  1  0  0  0
 14 15  1  0  0  0
 14 35  1  0  0  0
 15 16  1  0  0  0
 15 19  2  0  0  0
 16 17  1  0  0  0
 16 36  1  0  0  0
 16 37  1  0  0  0
 17 18  1  0  0  0
 17 38  1  0  0  0
 17 39  1  0  0  0
 18 40  1  0  0  0
 18 41  1  0  0  0
 18 42  1  0  0  0
 19 20  1  0  0  0
 19 43  1  0  0  0
 20 21  2  0  0  0
 20 23  1  0  0  0
 21 22  1  0  0  0
 22 44  1  0  0  0
 23 24  2  0  0  0
 23 28  1  0  0  0
 24 25  1  0  0  0
 24 45  1  0  0  0
 25 26  2  0  0  0
 25 46  1  0  0  0
 26 27  1  0  0  0
 26 47  1  0  0  0
 27 28  2  0  0  0
 27 48  1  0  0  0
 28 49  1  0  0  0
M  CHG  3   8   1  11   1  18   1
M  END
> <s_m_source_file>
../1o37_ligand.sdf

> <i_m_source_file_index>
1

> <s_epik_input>
W0hdXE49QyhbTkgyXSlcYyhbY0hdW2NIXTEpW2NIXWMoYzEyKVtuSF1jKG4yKS1jM1tjSF1jKFtDSDJdW0NIMl1bTkgzK10pW2NIXWMoYzNbT0hdKS1jNFtjSF1bY0hdW2NIXVtjSF1bY0hdNA==

> <s_epik_cmdline>
J2VwaWtfYXBwJywgJy1pbWFlJywgJ2xpZ2FuZF9wcm8ubWFlJywgJy1vbWFlJywgJ2xpZ2FuZF9wcmVwLm1hZScsICctbXMnLCAnMScsICctcGgnLCAnNycsICctcGh0JywgJzAuNScsICctbnQn

> <r_epik_Ionization_Penalty>
  0.0040

> <r_epik_Ionization_Penalty_Charging>
  0.0016

> <r_epik_Ionization_Penalty_Neutral>
  0.0024

> <r_epik_State_Penalty>
  0.1712

> <r_epik_Charging_Adjusted_Penalty>
0.172772393438619

> <i_epik_Tot_Q>
3

> <i_epik_Tot_abs_Q>
3

> <s_epik_Chemistry_Notes>
This compound has an imine and may undergo hydrolysis.

$$$$
