1o39_ligand
                    3D
 Schrodinger Suite 2020-3.
 42 45  0  0  1  0            999 V2000
   44.2740   -3.0250   25.9010 C   0  0  0  0  0  0
   44.7050   -1.6710   25.9980 C   0  0  0  0  0  0
   44.6550   -0.9290   27.1860 C   0  0  0  0  0  0
   44.1650   -1.5680   28.2820 C   0  0  0  0  0  0
   43.7430   -2.8330   28.2540 C   0  0  0  0  0  0
   43.7710   -3.6160   27.0950 C   0  0  0  0  0  0
   44.3490   -3.7300   24.6640 C   0  0  0  0  0  0
   44.0340   -5.0090   24.5820 N   0  0  0  0  0  0
   44.7390   -3.0740   23.5990 N   0  3  0  0  0  0
   43.9950   -1.1360   29.4880 N   0  0  0  0  0  0
   43.2950   -3.2380   29.4330 N   0  3  0  0  0  0
   43.4870   -2.1310   30.1340 C   0  0  0  0  0  0
   43.2510   -2.0680   31.5330 C   0  0  0  0  0  0
   42.8990   -3.2180   32.2420 C   0  0  0  0  0  0
   42.6650   -3.1810   33.6070 C   0  0  0  0  0  0
   42.7710   -2.0060   34.3100 C   0  0  0  0  0  0
   43.1180   -0.8120   33.6870 C   0  0  0  0  0  0
   43.3560   -0.8540   32.2840 C   0  0  0  0  0  0
   43.6960    0.3170   31.6220 O   0  0  0  0  0  0
   43.2170    0.3590   34.4670 C   0  0  0  0  0  0
   44.3940    1.1260   34.5490 C   0  0  0  0  0  0
   44.4710    2.2860   35.3310 C   0  0  0  0  0  0
   43.3650    2.7090   36.0560 C   0  0  0  0  0  0
   42.1910    1.9690   35.9930 C   0  0  0  0  0  0
   42.1230    0.8190   35.2140 C   0  0  0  0  0  0
   45.0938   -1.1869   25.1021 H   0  0  0  0  0  0
   44.9915    0.1069   27.2293 H   0  0  0  0  0  0
   43.4184   -4.6474   27.1056 H   0  0  0  0  0  0
   43.7073   -5.5537   25.4801 H   0  0  0  0  0  0
   44.0981   -5.5304   23.6155 H   0  0  0  0  0  0
   45.0000   -2.0081   23.6745 H   0  0  0  0  0  0
   42.8063   -4.1650   31.7103 H   0  0  0  0  0  0
   42.3929   -4.0975   34.1305 H   0  0  0  0  0  0
   42.5784   -2.0093   35.3828 H   0  0  0  0  0  0
   43.8831    0.3016   30.5381 H   0  0  0  0  0  0
   45.2723    0.8080   33.9872 H   0  0  0  0  0  0
   45.3991    2.8563   35.3702 H   0  0  0  0  0  0
   43.4172    3.6103   36.6668 H   0  0  0  0  0  0
   41.3168    2.2921   36.5582 H   0  0  0  0  0  0
   41.1894    0.2572   35.1831 H   0  0  0  0  0  0
   42.9145   -4.2629   29.5543 H   0  0  0  0  0  0
   44.8054   -3.5892   22.6294 H   0  0  0  0  0  0
  1  2  2  0  0  0
  1  6  1  0  0  0
  1  7  1  0  0  0
  2  3  1  0  0  0
  2 26  1  0  0  0
  3  4  2  0  0  0
  3 27  1  0  0  0
  4  5  1  0  0  0
  4 10  1  0  0  0
  5  6  2  0  0  0
  5 11  1  0  0  0
  6 28  1  0  0  0
  7  8  1  0  0  0
  7  9  2  0  0  0
  8 29  1  0  0  0
  8 30  1  0  0  0
  9 31  1  0  0  0
  9 42  1  0  0  0
 10 12  2  0  0  0
 11 12  1  0  0  0
 11 41  1  0  0  0
 12 13  1  0  0  0
 13 14  2  0  0  0
 13 18  1  0  0  0
 14 15  1  0  0  0
 14 32  1  0  0  0
 15 16  2  0  0  0
 15 33  1  0  0  0
 16 17  1  0  0  0
 16 34  1  0  0  0
 17 18  2  0  0  0
 17 20  1  0  0  0
 18 19  1  0  0  0
 19 35  1  0  0  0
 20 21  2  0  0  0
 20 25  1  0  0  0
 21 22  1  0  0  0
 21 36  1  0  0  0
 22 23  2  0  0  0
 22 37  1  0  0  0
 23 24  1  0  0  0
 23 38  1  0  0  0
 24 25  2  0  0  0
 24 39  1  0  0  0
 25 40  1  0  0  0
M  CHG  2   9   1  11   1
M  END
> <s_m_source_file>
../1o39_ligand.sdf

> <i_m_source_file_index>
1

> <s_epik_input>
W0hdXE49QyhbTkgyXSlcYyhbY0hdW2NIXTEpW2NIXWMoYzEyKVtuSF1jKG4yKS1jM1tjSF1bY0hdW2NIXWMoYzNbT0hdKS1jNFtjSF1bY0hdW2NIXVtjSF1bY0hdNA==

> <s_epik_cmdline>
J2VwaWtfYXBwJywgJy1pbWFlJywgJ2xpZ2FuZF9wcm8ubWFlJywgJy1vbWFlJywgJ2xpZ2FuZF9wcmVwLm1hZScsICctbXMnLCAnMScsICctcGgnLCAnNycsICctcGh0JywgJzAuNScsICctbnQn

> <r_epik_Ionization_Penalty>
  0.0014

> <r_epik_Ionization_Penalty_Charging>
  0.0003

> <r_epik_Ionization_Penalty_Neutral>
  0.0011

> <r_epik_State_Penalty>
  0.1712

> <r_epik_Charging_Adjusted_Penalty>
0.171486876075832

> <i_epik_Tot_Q>
2

> <i_epik_Tot_abs_Q>
2

> <s_epik_Chemistry_Notes>
This compound has an imine and may undergo hydrolysis.

$$$$
