1o3b_ligand
                    3D
 Schrodinger Suite 2020-3.
 42 45  0  0  1  0            999 V2000
   44.3240   -2.9170   26.5310 C   0  0  0  0  0  0
   44.7870   -1.5640   26.5240 C   0  0  0  0  0  0
   44.7780   -0.7470   27.6710 C   0  0  0  0  0  0
   44.3040   -1.3040   28.8230 C   0  0  0  0  0  0
   43.8610   -2.5680   28.8750 C   0  0  0  0  0  0
   43.8470   -3.4190   27.7680 C   0  0  0  0  0  0
   44.3460   -3.6970   25.3680 C   0  0  0  0  0  0
   44.1500   -4.9930   25.4240 N   0  3  0  0  0  0
   44.5590   -3.1040   24.2170 N   0  0  0  0  0  0
   44.1900   -0.8020   30.0110 N   0  0  0  0  0  0
   43.4640   -2.9130   30.0810 N   0  3  0  0  0  0
   43.6990   -1.7780   30.7160 C   0  0  0  0  0  0
   43.3550   -1.6750   32.0630 C   0  0  0  0  0  0
   43.0420   -2.8080   32.8140 C   0  0  0  0  0  0
   42.6950   -2.7250   34.1500 C   0  0  0  0  0  0
   42.6490   -1.4910   34.7670 C   0  0  0  0  0  0
   42.9520   -0.3070   34.0770 C   0  0  0  0  0  0
   43.3020   -0.4460   32.7150 C   0  0  0  0  0  0
   43.6250    0.6460   31.9490 O   0  0  0  0  0  0
   42.8910    0.9280   34.7500 C   0  0  0  0  0  0
   43.9520    1.8180   34.7220 C   0  0  0  0  0  0
   43.9300    3.0260   35.3780 C   0  0  0  0  0  0
   42.8160    3.3890   36.1030 C   0  0  0  0  0  0
   41.7270    2.5380   36.1640 C   0  0  0  0  0  0
   41.7680    1.3200   35.4940 C   0  0  0  0  0  0
   45.1634   -1.1468   25.5900 H   0  0  0  0  0  0
   45.1333    0.2830   27.6400 H   0  0  0  0  0  0
   43.4793   -4.4416   27.8527 H   0  0  0  0  0  0
   43.9723   -5.4810   26.3937 H   0  0  0  0  0  0
   44.7223   -2.0168   24.1803 H   0  0  0  0  0  0
   44.5743   -3.6941   23.2888 H   0  0  0  0  0  0
   43.0718   -3.7863   32.3343 H   0  0  0  0  0  0
   42.4592   -3.6284   34.7125 H   0  0  0  0  0  0
   42.3697   -1.4346   35.8191 H   0  0  0  0  0  0
   43.8945    0.5151   30.8906 H   0  0  0  0  0  0
   44.8433    1.5489   34.1551 H   0  0  0  0  0  0
   44.7900    3.6936   35.3248 H   0  0  0  0  0  0
   42.7928    4.3444   36.6272 H   0  0  0  0  0  0
   40.8419    2.8205   36.7339 H   0  0  0  0  0  0
   40.9069    0.6539   35.5482 H   0  0  0  0  0  0
   43.0793   -3.9271   30.2643 H   0  0  0  0  0  0
   44.1634   -5.5917   24.5013 H   0  0  0  0  0  0
  1  2  2  0  0  0
  1  6  1  0  0  0
  1  7  1  0  0  0
  2  3  1  0  0  0
  2 26  1  0  0  0
  3  4  2  0  0  0
  3 27  1  0  0  0
  4  5  1  0  0  0
  4 10  1  0  0  0
  5  6  2  0  0  0
  5 11  1  0  0  0
  6 28  1  0  0  0
  7  8  2  0  0  0
  7  9  1  0  0  0
  8 29  1  0  0  0
  8 42  1  0  0  0
  9 30  1  0  0  0
  9 31  1  0  0  0
 10 12  2  0  0  0
 11 12  1  0  0  0
 11 41  1  0  0  0
 12 13  1  0  0  0
 13 14  2  0  0  0
 13 18  1  0  0  0
 14 15  1  0  0  0
 14 32  1  0  0  0
 15 16  2  0  0  0
 15 33  1  0  0  0
 16 17  1  0  0  0
 16 34  1  0  0  0
 17 18  2  0  0  0
 17 20  1  0  0  0
 18 19  1  0  0  0
 19 35  1  0  0  0
 20 21  2  0  0  0
 20 25  1  0  0  0
 21 22  1  0  0  0
 21 36  1  0  0  0
 22 23  2  0  0  0
 22 37  1  0  0  0
 23 24  1  0  0  0
 23 38  1  0  0  0
 24 25  2  0  0  0
 24 39  1  0  0  0
 25 40  1  0  0  0
M  CHG  2   8   1  11   1
M  END
> <s_m_source_file>
../1o3b_ligand.sdf

> <i_m_source_file_index>
1

> <s_epik_input>
W0hdXE49QyhbTkgyXSlcYyhbY0hdW2NIXTEpW2NIXWMoYzEyKVtuSF1jKG4yKS1jM1tjSF1bY0hdW2NIXWMoYzNbT0hdKS1jNFtjSF1bY0hdW2NIXVtjSF1bY0hdNA==

> <s_epik_cmdline>
J2VwaWtfYXBwJywgJy1pbWFlJywgJ2xpZ2FuZF9wcm8ubWFlJywgJy1vbWFlJywgJ2xpZ2FuZF9wcmVwLm1hZScsICctbXMnLCAnMScsICctcGgnLCAnNycsICctcGh0JywgJzAuNScsICctbnQn

> <r_epik_Ionization_Penalty>
  0.0014

> <r_epik_Ionization_Penalty_Charging>
  0.0003

> <r_epik_Ionization_Penalty_Neutral>
  0.0011

> <r_epik_State_Penalty>
  0.1712

> <r_epik_Charging_Adjusted_Penalty>
0.171486876075832

> <i_epik_Tot_Q>
2

> <i_epik_Tot_abs_Q>
2

> <s_epik_Chemistry_Notes>
This compound has an imine and may undergo hydrolysis.

$$$$
