1o3h_ligand
                    3D
 Schrodinger Suite 2020-3.
 35 37  0  0  1  0            999 V2000
   43.9920   -3.0850   26.0230 C   0  0  0  0  0  0
   44.3040   -1.7060   26.1130 C   0  0  0  0  0  0
   44.1810   -1.0010   27.3120 C   0  0  0  0  0  0
   43.7530   -1.6780   28.4200 C   0  0  0  0  0  0
   43.4410   -2.9980   28.3750 C   0  0  0  0  0  0
   43.5400   -3.7500   27.1920 C   0  0  0  0  0  0
   44.1550   -3.7530   24.7840 C   0  0  0  0  0  0
   43.8530   -5.0280   24.6700 N   0  3  0  0  0  0
   44.6180   -3.0670   23.7560 N   0  0  0  0  0  0
   43.5800   -1.2370   29.6300 N   0  0  0  0  0  0
   43.0550   -3.3590   29.6590 C   0  0  0  0  0  0
   43.1700   -2.1950   30.4230 C   0  0  0  0  0  0
   42.9440   -2.0180   31.8010 C   0  0  0  0  0  0
   42.5940   -3.1000   32.6100 C   0  0  0  0  0  0
   42.3750   -2.9290   33.9790 C   0  0  0  0  0  0
   41.9910   -4.1270   34.8490 C   0  0  0  0  0  0
   42.5070   -1.6770   34.5530 C   0  0  0  0  0  0
   42.8540   -0.6020   33.7630 C   0  0  0  0  0  0
   43.0760   -0.7450   32.3950 C   0  0  0  0  0  0
   43.3980    0.3720   31.6390 O   0  0  0  0  0  0
   43.0890    1.1080   34.6370 Br  0  0  0  0  0  0
   44.6494   -1.1812   25.2223 H   0  0  0  0  0  0
   44.4200    0.0613   27.3632 H   0  0  0  0  0  0
   43.2785   -4.8080   27.1731 H   0  0  0  0  0  0
   43.4684   -5.5820   25.5390 H   0  0  0  0  0  0
   44.8647   -2.0013   23.8721 H   0  0  0  0  0  0
   44.7572   -3.5609   22.7830 H   0  0  0  0  0  0
   42.7308   -4.3426   29.9990 H   0  0  0  0  0  0
   42.4902   -4.0910   32.1681 H   0  0  0  0  0  0
   41.9340   -5.0306   34.2242 H   0  0  0  0  0  0
   41.0126   -3.9420   35.3164 H   0  0  0  0  0  0
   42.7503   -4.2699   35.6320 H   0  0  0  0  0  0
   42.3380   -1.5418   35.6213 H   0  0  0  0  0  0
   43.5756    0.2720   30.5580 H   0  0  0  0  0  0
   43.9850   -5.5404   23.7056 H   0  0  0  0  0  0
  1  2  2  0  0  0
  1  6  1  0  0  0
  1  7  1  0  0  0
  2  3  1  0  0  0
  2 22  1  0  0  0
  3  4  2  0  0  0
  3 23  1  0  0  0
  4  5  1  0  0  0
  4 10  1  0  0  0
  5  6  2  0  0  0
  5 11  1  0  0  0
  6 24  1  0  0  0
  7  8  2  0  0  0
  7  9  1  0  0  0
  8 25  1  0  0  0
  8 35  1  0  0  0
  9 26  1  0  0  0
  9 27  1  0  0  0
 10 12  2  0  0  0
 11 12  1  0  0  0
 11 28  1  0  0  0
 12 13  1  0  0  0
 13 14  2  0  0  0
 13 19  1  0  0  0
 14 15  1  0  0  0
 14 29  1  0  0  0
 15 16  1  0  0  0
 15 17  2  0  0  0
 16 30  1  0  0  0
 16 31  1  0  0  0
 16 32  1  0  0  0
 17 18  1  0  0  0
 17 33  1  0  0  0
 18 19  2  0  0  0
 18 21  1  0  0  0
 19 20  1  0  0  0
 20 34  1  0  0  0
M  CHG  1   8   1
M  END
> <s_m_source_file>
../1o3h_ligand.sdf

> <i_m_source_file_index>
1

> <s_epik_input>
W0hdXE49QyhbTkgyXSlcYyhbY0hdW2NIXTEpW2NIXWMoYzEyKVtDSDJdQyg9TjIpYzNbY0hdYyhbQ0gzXSlbY0hdYyhCciljM1tPSF0=

> <s_epik_cmdline>
J2VwaWtfYXBwJywgJy1pbWFlJywgJ2xpZ2FuZF9wcm8ubWFlJywgJy1vbWFlJywgJ2xpZ2FuZF9wcmVwLm1hZScsICctbXMnLCAnMScsICctcGgnLCAnNycsICctcGh0JywgJzAuNScsICctbnQn

> <r_lp_tautomer_probability>
1

> <r_epik_Ionization_Penalty>
  0.1634

> <r_epik_Ionization_Penalty_Charging>
  0.0003

> <r_epik_Ionization_Penalty_Neutral>
  0.1631

> <r_epik_State_Penalty>
 -0.0000

> <r_epik_Charging_Adjusted_Penalty>
0.0003115973184836

> <i_epik_Tot_Q>
1

> <i_epik_Tot_abs_Q>
1

> <s_epik_Chemistry_Notes>
This compound has an imine and may undergo hydrolysis.

$$$$
