1o3i_ligand
                    3D
 Schrodinger Suite 2020-3.
 35 37  0  0  1  0            999 V2000
   44.2440   -3.0370   25.8830 C   0  0  0  0  0  0
   44.6460   -1.6870   26.0030 C   0  0  0  0  0  0
   44.5720   -1.0070   27.2140 C   0  0  0  0  0  0
   44.1010   -1.6690   28.3180 C   0  0  0  0  0  0
   43.6970   -2.9570   28.2460 C   0  0  0  0  0  0
   43.7470   -3.6920   27.0540 C   0  0  0  0  0  0
   44.3520   -3.6950   24.6090 C   0  0  0  0  0  0
   43.9890   -4.9600   24.4500 N   0  0  0  0  0  0
   44.8280   -2.9980   23.5970 N   0  3  0  0  0  0
   43.9570   -1.2390   29.5440 N   0  0  0  0  0  0
   43.2920   -3.3100   29.5090 C   0  0  0  0  0  0
   43.4810   -2.1820   30.3070 C   0  0  0  0  0  0
   43.2640   -2.0470   31.7000 C   0  0  0  0  0  0
   42.9160   -3.1610   32.4830 C   0  0  0  0  0  0
   42.7070   -3.0250   33.8780 C   0  0  0  0  0  0
   42.3430   -4.1930   34.7610 C   0  0  0  0  0  0
   42.8370   -1.8170   34.4930 C   0  0  0  0  0  0
   43.1740   -0.7480   33.7360 C   0  0  0  0  0  0
   43.3930   -0.8150   32.3460 C   0  0  0  0  0  0
   43.7220    0.3330   31.6420 O   0  0  0  0  0  0
   43.3620    0.8820   34.7170 Br  0  0  0  0  0  0
   45.0238   -1.1655   25.1236 H   0  0  0  0  0  0
   44.8834    0.0352   27.2840 H   0  0  0  0  0  0
   43.4175   -4.7304   27.0199 H   0  0  0  0  0  0
   43.5932   -5.5301   25.3035 H   0  0  0  0  0  0
   44.0836   -5.4396   23.4646 H   0  0  0  0  0  0
   45.1254   -1.9491   23.7431 H   0  0  0  0  0  0
   42.9013   -4.2773   29.8248 H   0  0  0  0  0  0
   42.8059   -4.1383   32.0131 H   0  0  0  0  0  0
   42.2684   -5.1050   34.1504 H   0  0  0  0  0  0
   41.3761   -3.9974   35.2476 H   0  0  0  0  0  0
   43.1191   -4.3281   35.5287 H   0  0  0  0  0  0
   42.6740   -1.7144   35.5658 H   0  0  0  0  0  0
   43.8933    0.2824   30.5566 H   0  0  0  0  0  0
   44.9279   -3.4651   22.6061 H   0  0  0  0  0  0
  1  2  2  0  0  0
  1  6  1  0  0  0
  1  7  1  0  0  0
  2  3  1  0  0  0
  2 22  1  0  0  0
  3  4  2  0  0  0
  3 23  1  0  0  0
  4  5  1  0  0  0
  4 10  1  0  0  0
  5  6  2  0  0  0
  5 11  1  0  0  0
  6 24  1  0  0  0
  7  8  1  0  0  0
  7  9  2  0  0  0
  8 25  1  0  0  0
  8 26  1  0  0  0
  9 27  1  0  0  0
  9 35  1  0  0  0
 10 12  2  0  0  0
 11 12  1  0  0  0
 11 28  1  0  0  0
 12 13  1  0  0  0
 13 14  2  0  0  0
 13 19  1  0  0  0
 14 15  1  0  0  0
 14 29  1  0  0  0
 15 16  1  0  0  0
 15 17  2  0  0  0
 16 30  1  0  0  0
 16 31  1  0  0  0
 16 32  1  0  0  0
 17 18  1  0  0  0
 17 33  1  0  0  0
 18 19  2  0  0  0
 18 21  1  0  0  0
 19 20  1  0  0  0
 20 34  1  0  0  0
M  CHG  1   9   1
M  END
> <s_m_source_file>
../1o3i_ligand.sdf

> <i_m_source_file_index>
1

> <s_epik_input>
W0hdXE49QyhbTkgyXSlcYyhbY0hdW2NIXTEpW2NIXWMoYzEyKVtDSDJdQyg9TjIpYzNbY0hdYyhbQ0gzXSlbY0hdYyhCciljM1tPSF0=

> <s_epik_cmdline>
J2VwaWtfYXBwJywgJy1pbWFlJywgJ2xpZ2FuZF9wcm8ubWFlJywgJy1vbWFlJywgJ2xpZ2FuZF9wcmVwLm1hZScsICctbXMnLCAnMScsICctcGgnLCAnNycsICctcGh0JywgJzAuNScsICctbnQn

> <r_lp_tautomer_probability>
1

> <r_epik_Ionization_Penalty>
  0.1634

> <r_epik_Ionization_Penalty_Charging>
  0.0003

> <r_epik_Ionization_Penalty_Neutral>
  0.1631

> <r_epik_State_Penalty>
 -0.0000

> <r_epik_Charging_Adjusted_Penalty>
0.0003115973184836

> <i_epik_Tot_Q>
1

> <i_epik_Tot_abs_Q>
1

> <s_epik_Chemistry_Notes>
This compound has an imine and may undergo hydrolysis.

$$$$
