1o3j_ligand
                    3D
 Schrodinger Suite 2020-3.
 35 37  0  0  1  0            999 V2000
   44.1980   -3.0840   26.0990 C   0  0  0  0  0  0
   44.6300   -1.7460   26.1740 C   0  0  0  0  0  0
   44.5890   -1.0420   27.3690 C   0  0  0  0  0  0
   44.1150   -1.6840   28.4810 C   0  0  0  0  0  0
   43.6790   -2.9550   28.4740 C   0  0  0  0  0  0
   43.7050   -3.7020   27.2840 C   0  0  0  0  0  0
   44.2690   -3.7640   24.8580 C   0  0  0  0  0  0
   43.8920   -5.0210   24.7680 N   0  3  0  0  0  0
   44.7160   -3.1280   23.7960 N   0  0  0  0  0  0
   43.9770   -1.2760   29.6820 N   0  0  0  0  0  0
   43.2690   -3.3480   29.6670 N   0  3  0  0  0  0
   43.4790   -2.2480   30.3870 C   0  0  0  0  0  0
   43.2550   -2.0950   31.7790 C   0  0  0  0  0  0
   42.9140   -3.1900   32.5880 C   0  0  0  0  0  0
   42.6990   -3.0160   33.9660 C   0  0  0  0  0  0
   42.3240   -4.1950   34.8770 C   0  0  0  0  0  0
   42.8260   -1.7580   34.5460 C   0  0  0  0  0  0
   43.1690   -0.6520   33.7620 C   0  0  0  0  0  0
   43.3760   -0.8220   32.3860 C   0  0  0  0  0  0
   43.6720    0.2990   31.6290 O   0  0  0  0  0  0
   43.4270    1.1160   34.5720 Br  0  0  0  0  0  0
   45.0038   -1.2538   25.2762 H   0  0  0  0  0  0
   44.9250   -0.0064   27.4207 H   0  0  0  0  0  0
   43.3548   -4.7341   27.2680 H   0  0  0  0  0  0
   43.5191   -5.5485   25.6583 H   0  0  0  0  0  0
   45.0301   -2.0769   23.8761 H   0  0  0  0  0  0
   44.7755   -3.6476   22.8283 H   0  0  0  0  0  0
   42.8153   -4.1810   32.1451 H   0  0  0  0  0  0
   42.2617   -5.1157   34.2782 H   0  0  0  0  0  0
   41.3502   -3.9982   35.3493 H   0  0  0  0  0  0
   43.0916   -4.3152   35.6557 H   0  0  0  0  0  0
   42.6575   -1.6339   35.6157 H   0  0  0  0  0  0
   43.8405    0.2027   30.5463 H   0  0  0  0  0  0
   42.8868   -4.3698   29.8082 H   0  0  0  0  0  0
   43.9497   -5.5447   23.8024 H   0  0  0  0  0  0
  1  2  2  0  0  0
  1  6  1  0  0  0
  1  7  1  0  0  0
  2  3  1  0  0  0
  2 22  1  0  0  0
  3  4  2  0  0  0
  3 23  1  0  0  0
  4  5  1  0  0  0
  4 10  1  0  0  0
  5  6  2  0  0  0
  5 11  1  0  0  0
  6 24  1  0  0  0
  7  8  2  0  0  0
  7  9  1  0  0  0
  8 25  1  0  0  0
  8 35  1  0  0  0
  9 26  1  0  0  0
  9 27  1  0  0  0
 10 12  2  0  0  0
 11 12  1  0  0  0
 11 34  1  0  0  0
 12 13  1  0  0  0
 13 14  2  0  0  0
 13 19  1  0  0  0
 14 15  1  0  0  0
 14 28  1  0  0  0
 15 16  1  0  0  0
 15 17  2  0  0  0
 16 29  1  0  0  0
 16 30  1  0  0  0
 16 31  1  0  0  0
 17 18  1  0  0  0
 17 32  1  0  0  0
 18 19  2  0  0  0
 18 21  1  0  0  0
 19 20  1  0  0  0
 20 33  1  0  0  0
M  CHG  2   8   1  11   1
M  END
> <s_m_source_file>
../1o3j_ligand.sdf

> <i_m_source_file_index>
1

> <s_epik_input>
W0hdXE49QyhbTkgyXSlcYyhbY0hdW2NIXTEpW2NIXWMoYzEyKVtuSF1jKG4yKS1jM1tjSF1jKFtDSDNdKVtjSF1jKEJyKWMzW09IXQ==

> <s_epik_cmdline>
J2VwaWtfYXBwJywgJy1pbWFlJywgJ2xpZ2FuZF9wcm8ubWFlJywgJy1vbWFlJywgJ2xpZ2FuZF9wcmVwLm1hZScsICctbXMnLCAnMScsICctcGgnLCAnNycsICctcGh0JywgJzAuNScsICctbnQn

> <r_epik_Ionization_Penalty>
  0.0149

> <r_epik_Ionization_Penalty_Charging>
  0.0003

> <r_epik_Ionization_Penalty_Neutral>
  0.0146

> <r_epik_State_Penalty>
  0.1797

> <r_epik_Charging_Adjusted_Penalty>
0.180029778604692

> <i_epik_Tot_Q>
2

> <i_epik_Tot_abs_Q>
2

> <s_epik_Chemistry_Notes>
This compound has an imine and may undergo hydrolysis.

$$$$
