1o3p_ligand
                    3D
 Schrodinger Suite 2020-3.
 46 49  0  0  1  0            999 V2000
    8.7880    1.4610   24.6060 C   0  0  0  0  0  0
    9.5720    1.3020   23.4300 C   0  0  0  0  0  0
   10.2020    2.3670   22.8100 C   0  0  0  0  0  0
    9.9720    3.6110   23.3310 C   0  0  0  0  0  0
    9.2090    3.8120   24.4350 C   0  0  0  0  0  0
    8.5920    2.7660   25.0710 C   0  0  0  0  0  0
    8.1880    0.3730   25.2350 C   0  0  0  0  0  0
    7.7520    0.4860   26.4730 N   0  0  0  0  0  0
    8.0910   -0.7720   24.6100 N   0  3  0  0  0  0
   10.3730    4.7820   22.9850 N   0  0  0  0  0  0
    9.1170    5.0700   24.7840 N   0  3  0  0  0  0
    9.8770    5.6220   23.8530 C   0  0  0  0  0  0
   10.1130    6.9650   23.7750 C   0  0  0  0  0  0
    9.7870    7.8200   24.8490 C   0  0  0  0  0  0
   10.0400    9.1930   24.7850 C   0  0  0  0  0  0
   10.6290    9.7250   23.6570 C   0  0  0  0  0  0
   10.9610    8.8870   22.5700 C   0  0  0  0  0  0
   11.5570    9.3300   21.3960 O   0  0  0  0  0  0
   10.7210    7.5300   22.6460 C   0  0  0  0  0  0
   11.1000    6.7680   21.5450 O   0  0  0  0  0  0
   11.8090   11.0280   19.7310 C   0  0  0  0  0  0
   11.8600   10.7160   21.2250 C   0  0  0  0  0  0
   13.2910   10.8790   21.6920 C   0  0  0  0  0  0
   14.1130   11.3710   20.5140 C   0  0  0  0  0  0
   13.2440   11.2120   19.2770 C   0  0  0  0  0  0
    9.6806    0.3056   23.0016 H   0  0  0  0  0  0
   10.8513    2.2214   21.9467 H   0  0  0  0  0  0
    7.9523    2.9499   25.9341 H   0  0  0  0  0  0
    7.8333    1.4486   26.9990 H   0  0  0  0  0  0
    7.3066   -0.3823   26.9807 H   0  0  0  0  0  0
    8.4549   -0.8669   23.5763 H   0  0  0  0  0  0
    9.3292    7.4018   25.7455 H   0  0  0  0  0  0
    9.7735    9.8393   25.6213 H   0  0  0  0  0  0
   10.8384   10.7934   23.6046 H   0  0  0  0  0  0
   10.9347    5.6805   21.5456 H   0  0  0  0  0  0
   11.2435   11.9525   19.5427 H   0  0  0  0  0  0
   11.3513   10.1981   19.1727 H   0  0  0  0  0  0
   11.1420   11.3233   21.7957 H   0  0  0  0  0  0
   13.3276   11.6096   22.5135 H   0  0  0  0  0  0
   13.6740    9.9103   22.0455 H   0  0  0  0  0  0
   14.3820   12.4261   20.6698 H   0  0  0  0  0  0
   15.0289   10.7678   20.4286 H   0  0  0  0  0  0
   13.5621   10.3307   18.7007 H   0  0  0  0  0  0
   13.3164   12.1092   18.6447 H   0  0  0  0  0  0
    8.5107    5.3559   25.6562 H   0  0  0  0  0  0
    7.6455   -1.6400   25.1181 H   0  0  0  0  0  0
  1  2  2  0  0  0
  1  6  1  0  0  0
  1  7  1  0  0  0
  2  3  1  0  0  0
  2 26  1  0  0  0
  3  4  2  0  0  0
  3 27  1  0  0  0
  4  5  1  0  0  0
  4 10  1  0  0  0
  5  6  2  0  0  0
  5 11  1  0  0  0
  6 28  1  0  0  0
  7  8  1  0  0  0
  7  9  2  0  0  0
  8 29  1  0  0  0
  8 30  1  0  0  0
  9 31  1  0  0  0
  9 46  1  0  0  0
 10 12  2  0  0  0
 11 12  1  0  0  0
 11 45  1  0  0  0
 12 13  1  0  0  0
 13 14  2  0  0  0
 13 19  1  0  0  0
 14 15  1  0  0  0
 14 32  1  0  0  0
 15 16  2  0  0  0
 15 33  1  0  0  0
 16 17  1  0  0  0
 16 34  1  0  0  0
 17 18  1  0  0  0
 17 19  2  0  0  0
 18 22  1  0  0  0
 19 20  1  0  0  0
 20 35  1  0  0  0
 21 25  1  0  0  0
 21 22  1  0  0  0
 21 36  1  0  0  0
 21 37  1  0  0  0
 22 23  1  0  0  0
 22 38  1  0  0  0
 23 24  1  0  0  0
 23 39  1  0  0  0
 23 40  1  0  0  0
 24 25  1  0  0  0
 24 41  1  0  0  0
 24 42  1  0  0  0
 25 43  1  0  0  0
 25 44  1  0  0  0
M  CHG  2   9   1  11   1
M  END
> <s_m_source_file>
../1o3p_ligand.sdf

> <i_m_source_file_index>
1

> <s_epik_input>
W0hdXE49QyhbTkgyXSlcYyhbY0hdW2NIXTEpW2NIXWMoYzEyKVtuSF1jKG4yKS1jM1tjSF1bY0hdW2NIXWMoYzNbT0hdKU9bQ0hdNFtDSDJdW0NIMl1bQ0gyXVtDSDJdNA==

> <s_epik_cmdline>
J2VwaWtfYXBwJywgJy1pbWFlJywgJ2xpZ2FuZF9wcm8ubWFlJywgJy1vbWFlJywgJ2xpZ2FuZF9wcmVwLm1hZScsICctbXMnLCAnMScsICctcGgnLCAnNycsICctcGh0JywgJzAuNScsICctbnQn

> <r_epik_Ionization_Penalty>
  0.0014

> <r_epik_Ionization_Penalty_Charging>
  0.0003

> <r_epik_Ionization_Penalty_Neutral>
  0.0011

> <r_epik_State_Penalty>
  0.1712

> <r_epik_Charging_Adjusted_Penalty>
0.171486876075835

> <i_epik_Tot_Q>
2

> <i_epik_Tot_abs_Q>
2

> <s_epik_Chemistry_Notes>
This compound has an imine and may undergo hydrolysis.

$$$$
