1o41_ligand
                    3D
 Schrodinger Suite 2020-3.
 24 24  0  0  1  0            999 V2000
   17.6820   24.5520   19.5270 C   0  0  0  0  0  0
   18.4290   24.9980   20.6370 C   0  0  0  0  0  0
   18.2370   26.3260   21.0830 C   0  0  0  0  0  0
   17.2770   27.1930   20.4760 C   0  0  0  0  0  0
   16.5390   26.7270   19.3340 C   0  0  0  0  0  0
   16.7650   25.4030   18.8060 C   0  0  0  0  0  0
   16.2630   24.7830   17.5220 C   0  0  0  0  0  0
   15.5490   27.6080   18.8030 O   0  0  0  0  0  0
   17.0190   28.4500   21.0590 O   0  0  0  0  0  0
   17.3820   28.6490   22.4330 C   0  0  0  0  0  0
   15.9060   28.5960   17.6640 P   0  0  0  0  0  0
   14.6080   29.0560   17.0320 O   0  5  0  0  0  0
   16.7310   27.7490   16.6580 O   0  5  0  0  0  0
   16.7140   29.7560   18.1590 O   0  0  0  0  0  0
   16.5360   24.9600   16.5970 O   0  0  0  0  0  0
   17.8022   23.5195   19.1990 H   0  0  0  0  0  0
   19.1357   24.3364   21.1379 H   0  0  0  0  0  0
   18.8378   26.6986   21.9126 H   0  0  0  0  0  0
   16.4409   23.6977   17.5448 H   0  0  0  0  0  0
   15.1850   24.9757   17.4187 H   0  0  0  0  0  0
   17.1182   29.6726   22.7374 H   0  0  0  0  0  0
   18.4652   28.4989   22.5515 H   0  0  0  0  0  0
   16.8408   27.9281   23.0633 H   0  0  0  0  0  0
   16.0618   24.4123   15.7692 H   0  0  0  0  0  0
  1  2  2  0  0  0
  1  6  1  0  0  0
  1 16  1  0  0  0
  2  3  1  0  0  0
  2 17  1  0  0  0
  3  4  2  0  0  0
  3 18  1  0  0  0
  4  5  1  0  0  0
  4  9  1  0  0  0
  5  6  2  0  0  0
  5  8  1  0  0  0
  6  7  1  0  0  0
  7 15  1  0  0  0
  7 19  1  0  0  0
  7 20  1  0  0  0
  8 11  1  0  0  0
  9 10  1  0  0  0
 10 21  1  0  0  0
 10 22  1  0  0  0
 10 23  1  0  0  0
 11 12  1  0  0  0
 11 13  1  0  0  0
 11 14  2  0  0  0
 15 24  1  0  0  0
M  CHG  2  12  -1  13  -1
M  END
> <s_m_source_file>
../1o41_ligand.sdf

> <i_m_source_file_index>
1

> <s_epik_input>
W09IXVAoPU8pKFtPSF0pT2MxYyhbQ0gyXVtPSF0pW2NIXVtjSF1bY0hdYzFPW0NIM10=

> <s_epik_cmdline>
J2VwaWtfYXBwJywgJy1pbWFlJywgJ2xpZ2FuZF9wcm8ubWFlJywgJy1vbWFlJywgJ2xpZ2FuZF9wcmVwLm1hZScsICctbXMnLCAnMScsICctcGgnLCAnNycsICctcGh0JywgJzAuNScsICctbnQn

> <r_epik_Ionization_Penalty>
  0.0734

> <r_epik_Ionization_Penalty_Charging>
  0.0734

> <r_epik_Ionization_Penalty_Neutral>
  0.0000

> <r_epik_State_Penalty>
  0.0645

> <r_epik_Charging_Adjusted_Penalty>
0.137901573633237

> <i_epik_Tot_Q>
-2

> <i_epik_Tot_abs_Q>
2

$$$$
