1o43_ligand
                    3D
 Schrodinger Suite 2020-3.
 76 79  0  0  1  0            999 V2000
   19.1090   24.6530   20.9790 C   0  0  0  0  0  0
   19.8740   25.2290   21.9620 C   0  0  0  0  0  0
   20.1990   26.7220   22.1110 N   0  0  0  0  0  0
   19.4530   27.4360   22.9610 C   0  0  0  0  0  0
   19.9140   28.8580   23.2910 C   0  0  0  0  0  0
   18.5050   26.9250   23.5440 O   0  0  0  0  0  0
   20.4890   24.3210   23.0460 C   0  0  0  0  0  0
   21.5830   24.6800   23.5150 O   0  0  0  0  0  0
   19.7980   23.2000   23.4840 N   0  0  0  0  0  0
   20.3760   22.3380   24.4690 C   0  0  1  0  0  0
   19.2390   21.5160   25.0130 C   0  0  0  0  0  0
   19.5400   20.7790   26.2910 C   0  0  0  0  0  0
   20.6600   19.7320   26.1690 C   0  0  0  0  0  0
   22.0260   20.3500   25.8960 C   0  0  0  0  0  0
   21.4710   21.5380   23.6900 C   0  0  0  0  0  0
   22.2770   20.6580   24.4650 N   0  0  0  0  0  0
   21.5960   21.6650   22.4530 O   0  0  0  0  0  0
   23.3410   19.7770   23.8190 C   0  0  0  0  0  0
   22.7890   18.4190   23.5060 C   0  0  0  0  0  0
   23.2840   17.2040   24.0410 C   0  0  0  0  0  0
   22.5730   15.9950   23.7510 C   0  0  0  0  0  0
   21.3920   15.9760   22.9450 C   0  0  0  0  0  0
   20.8810   17.1850   22.4660 C   0  0  0  0  0  0
   21.5890   18.3930   22.7280 C   0  0  0  0  0  0
   20.7010   14.7030   22.5220 C   0  0  0  0  0  0
   21.4360   13.4520   22.4650 C   0  0  0  0  0  0
   20.6970   12.2360   22.2560 C   0  0  0  0  0  0
   19.3090   12.2720   22.1050 C   0  0  0  0  0  0
   18.6080   13.5090   22.0310 C   0  0  0  0  0  0
   19.2910   14.7110   22.2370 C   0  0  0  0  0  0
   18.5120   25.4440   19.8810 C   0  0  0  0  0  0
   19.0000   26.7460   19.5200 C   0  0  0  0  0  0
   18.4380   27.4950   18.4290 C   0  0  0  0  0  0
   17.3560   26.9210   17.6610 C   0  0  0  0  0  0
   16.8850   25.5810   18.0050 C   0  0  0  0  0  0
   17.4500   24.9080   19.1150 C   0  0  0  0  0  0
   16.7060   27.8460   16.6030 C   0  0  0  0  0  0
   15.4030   28.5600   17.2650 C   0  0  0  0  0  0
   14.5650   29.0270   16.5490 O   0  0  0  0  0  0
   15.2240   28.5860   18.6430 O   0  5  0  0  0  0
   16.0550   24.7150   17.1880 C   0  0  0  0  0  0
   16.6150   24.2000   16.0840 O   0  0  0  0  0  0
   18.9227   23.5690   20.9913 H   0  0  0  0  0  0
   21.0201   27.1668   21.5297 H   0  0  0  0  0  0
   20.7739   29.1210   22.6574 H   0  0  0  0  0  0
   20.2085   28.9116   24.3495 H   0  0  0  0  0  0
   19.0909   29.5631   23.1032 H   0  0  0  0  0  0
   18.8033   22.9749   23.0718 H   0  0  0  0  0  0
   20.8117   22.8721   25.3263 H   0  0  0  0  0  0
   18.3803   22.1709   25.2222 H   0  0  0  0  0  0
   18.9487   20.7562   24.2725 H   0  0  0  0  0  0
   19.8534   21.4970   27.0632 H   0  0  0  0  0  0
   18.6381   20.2475   26.6289 H   0  0  0  0  0  0
   20.7328   19.1619   27.1069 H   0  0  0  0  0  0
   20.4320   19.0461   25.3398 H   0  0  0  0  0  0
   22.1186   21.2949   26.4516 H   0  0  0  0  0  0
   22.8144   19.6550   26.2207 H   0  0  0  0  0  0
   23.6856   20.2438   22.8845 H   0  0  0  0  0  0
   24.1913   19.6641   24.5077 H   0  0  0  0  0  0
   24.1828   17.1898   24.6574 H   0  0  0  0  0  0
   22.9455   15.0556   24.1594 H   0  0  0  0  0  0
   19.9508   17.2036   21.8981 H   0  0  0  0  0  0
   21.2036   19.3284   22.3222 H   0  0  0  0  0  0
   22.5200   13.4350   22.5777 H   0  0  0  0  0  0
   21.2226   11.2820   22.2153 H   0  0  0  0  0  0
   18.7527   11.3367   22.0427 H   0  0  0  0  0  0
   17.5399   13.5187   21.8139 H   0  0  0  0  0  0
   18.7534   15.6576   22.1815 H   0  0  0  0  0  0
   19.8214   27.1793   20.0906 H   0  0  0  0  0  0
   18.8234   28.4846   18.1837 H   0  0  0  0  0  0
   17.0488   23.9331   19.3920 H   0  0  0  0  0  0
   17.4319   28.6105   16.2889 H   0  0  0  0  0  0
   16.4021   27.2486   15.7308 H   0  0  0  0  0  0
   15.7285   23.8505   17.7847 H   0  0  0  0  0  0
   15.1739   25.2737   16.8395 H   0  0  0  0  0  0
   16.0307   23.5372   15.4288 H   0  0  0  0  0  0
  1  2  2  0  0  0
  1 31  1  0  0  0
  1 43  1  0  0  0
  2  3  1  0  0  0
  2  7  1  0  0  0
  3  4  1  0  0  0
  3 44  1  0  0  0
  4  5  1  0  0  0
  4  6  2  0  0  0
  5 45  1  0  0  0
  5 46  1  0  0  0
  5 47  1  0  0  0
  7  8  2  0  0  0
  7  9  1  0  0  0
  9 10  1  0  0  0
  9 48  1  0  0  0
 10 11  1  0  0  0
 10 15  1  0  0  0
 10 49  1  0  0  0
 11 12  1  0  0  0
 11 50  1  0  0  0
 11 51  1  0  0  0
 12 13  1  0  0  0
 12 52  1  0  0  0
 12 53  1  0  0  0
 13 14  1  0  0  0
 13 54  1  0  0  0
 13 55  1  0  0  0
 14 16  1  0  0  0
 14 56  1  0  0  0
 14 57  1  0  0  0
 15 16  1  0  0  0
 15 17  2  0  0  0
 16 18  1  0  0  0
 18 19  1  0  0  0
 18 58  1  0  0  0
 18 59  1  0  0  0
 19 20  2  0  0  0
 19 24  1  0  0  0
 20 21  1  0  0  0
 20 60  1  0  0  0
 21 22  2  0  0  0
 21 61  1  0  0  0
 22 23  1  0  0  0
 22 25  1  0  0  0
 23 24  2  0  0  0
 23 62  1  0  0  0
 24 63  1  0  0  0
 25 26  2  0  0  0
 25 30  1  0  0  0
 26 27  1  0  0  0
 26 64  1  0  0  0
 27 28  2  0  0  0
 27 65  1  0  0  0
 28 29  1  0  0  0
 28 66  1  0  0  0
 29 30  2  0  0  0
 29 67  1  0  0  0
 30 68  1  0  0  0
 31 32  2  0  0  0
 31 36  1  0  0  0
 32 33  1  0  0  0
 32 69  1  0  0  0
 33 34  2  0  0  0
 33 70  1  0  0  0
 34 35  1  0  0  0
 34 37  1  0  0  0
 35 36  2  0  0  0
 35 41  1  0  0  0
 36 71  1  0  0  0
 37 38  1  0  0  0
 37 72  1  0  0  0
 37 73  1  0  0  0
 38 39  2  0  0  0
 38 40  1  0  0  0
 41 42  1  0  0  0
 41 74  1  0  0  0
 41 75  1  0  0  0
 42 76  1  0  0  0
M  CHG  1  40  -1
M  END
> <s_m_source_file>
../1o43_ligand.sdf

> <i_m_source_file_index>
1

> <s_epik_input>
Tz1DKFtPSF0pW0NIMl1jKGMoW2NIXTEpW0NIMl1bT0hdKVtjSF1bY0hdYzEvW0NIXT1DKFxbTkhdQyg9TylbQ0gzXSlDKD1PKVtOSF1bQ0BIXTJbQ0gyXVtDSDJdW0NIMl1bQ0gyXU4oQzI9TylbQ0gyXWMzW2NIXVtjSF1jKFtjSF1bY0hdMyktYzRbY0hdW2NIXVtjSF1bY0hdW2NIXTQ=

> <s_epik_cmdline>
J2VwaWtfYXBwJywgJy1pbWFlJywgJ2xpZ2FuZF9wcm8ubWFlJywgJy1vbWFlJywgJ2xpZ2FuZF9wcmVwLm1hZScsICctbXMnLCAnMScsICctcGgnLCAnNycsICctcGh0JywgJzAuNScsICctbnQn

> <r_lp_tautomer_probability>
1

> <r_epik_Ionization_Penalty>
  0.0011

> <r_epik_Ionization_Penalty_Charging>
  0.0011

> <r_epik_Ionization_Penalty_Neutral>
  0.0000

> <r_epik_State_Penalty>
 -0.0000

> <r_epik_Charging_Adjusted_Penalty>
0.00107797134887904

> <i_epik_Tot_Q>
-1

> <i_epik_Tot_abs_Q>
1

$$$$
