1o45_ligand
                    3D
 Schrodinger Suite 2020-3.
 77 80  0  0  1  0            999 V2000
   16.6380   24.5230   15.9760 O   0  0  0  0  0  0
   19.2270   26.7550   19.0960 C   0  0  0  0  0  0
   18.4400   27.5190   18.2270 C   0  0  0  0  0  0
   17.2100   26.9930   17.7080 C   0  0  0  0  0  0
   16.8050   25.6910   18.0680 C   0  0  0  0  0  0
   17.5340   24.9840   19.0590 C   0  0  0  0  0  0
   18.7490   25.4950   19.5500 C   0  0  0  0  0  0
   15.6600   29.0190   17.5870 P   0  0  0  0  0  0
   14.4830   29.2940   16.6450 O   0  5  0  0  0  0
   16.5640   30.3360   17.6190 O   0  5  0  0  0  0
   15.2800   28.6700   18.9720 O   0  0  0  0  0  0
   19.6180   24.7050   20.5160 C   0  0  0  0  0  0
   19.5020   25.2160   21.9180 C   0  0  1  0  0  0
   20.3330   24.3850   22.8800 C   0  0  0  0  0  0
   19.6900   23.2940   23.3820 N   0  0  0  0  0  0
   19.9850   26.5800   21.9190 N   0  0  0  0  0  0
   19.3610   27.4500   22.6950 C   0  0  0  0  0  0
   19.8240   28.9110   22.4010 C   0  0  0  0  0  0
   18.5410   27.1520   23.5610 O   0  0  0  0  0  0
   21.5000   24.7160   23.1540 O   0  0  0  0  0  0
   20.3410   22.4050   24.2910 C   0  0  1  0  0  0
   19.2600   21.5380   24.9290 C   0  0  0  0  0  0
   19.7290   20.6880   26.1170 C   0  0  0  0  0  0
   20.8430   19.6530   26.0280 C   0  0  0  0  0  0
   22.0970   20.4110   25.6400 C   0  0  0  0  0  0
   22.2130   20.7250   24.2020 N   0  0  0  0  0  0
   21.3880   21.5640   23.4570 C   0  0  0  0  0  0
   23.1290   19.8700   23.3880 C   0  0  0  0  0  0
   22.4990   18.5080   23.2160 C   0  0  0  0  0  0
   21.4110   21.6140   22.2030 O   0  0  0  0  0  0
   16.4570   27.8160   16.8140 O   0  0  0  0  0  0
   23.0350   17.3680   23.8840 C   0  0  0  0  0  0
   22.4610   16.0930   23.6570 C   0  0  0  0  0  0
   21.3550   15.9910   22.7770 C   0  0  0  0  0  0
   20.7820   17.1360   22.1920 C   0  0  0  0  0  0
   21.3280   18.4270   22.3950 C   0  0  0  0  0  0
   20.7420   14.6790   22.5050 C   0  0  0  0  0  0
   19.3040   14.5800   22.3610 C   0  0  0  0  0  0
   18.6770   13.3160   22.1050 C   0  0  0  0  0  0
   19.4860   12.1450   22.0200 C   0  0  0  0  0  0
   20.8880   12.2410   22.1580 C   0  0  0  0  0  0
   21.5380   13.5010   22.4090 C   0  0  0  0  0  0
   16.0370   24.8780   17.1560 C   0  0  0  0  0  0
   16.0950   23.9039   15.2467 H   0  0  0  0  0  0
   20.1996   27.1231   19.4226 H   0  0  0  0  0  0
   18.7635   28.5203   17.9425 H   0  0  0  0  0  0
   17.1499   24.0387   19.4423 H   0  0  0  0  0  0
   19.3090   23.6493   20.5078 H   0  0  0  0  0  0
   20.6713   24.7811   20.2080 H   0  0  0  0  0  0
   18.4505   25.1998   22.2408 H   0  0  0  0  0  0
   18.6509   23.1033   23.0754 H   0  0  0  0  0  0
   20.8420   26.8605   21.2889 H   0  0  0  0  0  0
   20.5595   28.9050   21.5830 H   0  0  0  0  0  0
   20.2836   29.3387   23.3042 H   0  0  0  0  0  0
   18.9553   29.5191   22.1085 H   0  0  0  0  0  0
   20.8314   22.9913   25.0821 H   0  0  0  0  0  0
   18.4478   22.1796   25.3015 H   0  0  0  0  0  0
   18.8607   20.8391   24.1793 H   0  0  0  0  0  0
   20.0939   21.3474   26.9183 H   0  0  0  0  0  0
   18.8880   20.0862   26.4919 H   0  0  0  0  0  0
   20.9650   19.1608   27.0041 H   0  0  0  0  0  0
   20.5849   18.9009   25.2679 H   0  0  0  0  0  0
   22.1260   21.3708   26.1766 H   0  0  0  0  0  0
   22.9826   19.8153   25.9060 H   0  0  0  0  0  0
   23.2862   20.3349   22.4036 H   0  0  0  0  0  0
   24.0947   19.7713   23.9053 H   0  0  0  0  0  0
   23.8799   17.4768   24.5640 H   0  0  0  0  0  0
   22.8623   15.2074   24.1497 H   0  0  0  0  0  0
   19.8957   17.0263   21.5670 H   0  0  0  0  0  0
   20.8795   19.3146   21.9488 H   0  0  0  0  0  0
   18.6911   15.4771   22.4483 H   0  0  0  0  0  0
   17.5965   13.2513   21.9771 H   0  0  0  0  0  0
   19.0214   11.1740   21.8482 H   0  0  0  0  0  0
   21.4934   11.3386   22.0724 H   0  0  0  0  0  0
   22.6207   13.5529   22.5236 H   0  0  0  0  0  0
   15.1252   25.4555   16.9438 H   0  0  0  0  0  0
   15.7737   23.9715   17.7207 H   0  0  0  0  0  0
  1 43  1  0  0  0
  1 44  1  0  0  0
  2  3  2  0  0  0
  2  7  1  0  0  0
  2 45  1  0  0  0
  3  4  1  0  0  0
  3 46  1  0  0  0
  4  5  2  0  0  0
  4 31  1  0  0  0
  5  6  1  0  0  0
  5 43  1  0  0  0
  6  7  2  0  0  0
  6 47  1  0  0  0
  7 12  1  0  0  0
  8  9  1  0  0  0
  8 10  1  0  0  0
  8 11  2  0  0  0
  8 31  1  0  0  0
 12 13  1  0  0  0
 12 48  1  0  0  0
 12 49  1  0  0  0
 13 14  1  0  0  0
 13 16  1  0  0  0
 13 50  1  0  0  0
 14 15  1  0  0  0
 14 20  2  0  0  0
 15 21  1  0  0  0
 15 51  1  0  0  0
 16 17  1  0  0  0
 16 52  1  0  0  0
 17 18  1  0  0  0
 17 19  2  0  0  0
 18 53  1  0  0  0
 18 54  1  0  0  0
 18 55  1  0  0  0
 21 22  1  0  0  0
 21 27  1  0  0  0
 21 56  1  0  0  0
 22 23  1  0  0  0
 22 57  1  0  0  0
 22 58  1  0  0  0
 23 24  1  0  0  0
 23 59  1  0  0  0
 23 60  1  0  0  0
 24 25  1  0  0  0
 24 61  1  0  0  0
 24 62  1  0  0  0
 25 26  1  0  0  0
 25 63  1  0  0  0
 25 64  1  0  0  0
 26 27  1  0  0  0
 26 28  1  0  0  0
 27 30  2  0  0  0
 28 29  1  0  0  0
 28 65  1  0  0  0
 28 66  1  0  0  0
 29 32  2  0  0  0
 29 36  1  0  0  0
 32 33  1  0  0  0
 32 67  1  0  0  0
 33 34  2  0  0  0
 33 68  1  0  0  0
 34 35  1  0  0  0
 34 37  1  0  0  0
 35 36  2  0  0  0
 35 69  1  0  0  0
 36 70  1  0  0  0
 37 38  2  0  0  0
 37 42  1  0  0  0
 38 39  1  0  0  0
 38 71  1  0  0  0
 39 40  2  0  0  0
 39 72  1  0  0  0
 40 41  1  0  0  0
 40 73  1  0  0  0
 41 42  2  0  0  0
 41 74  1  0  0  0
 42 75  1  0  0  0
 43 76  1  0  0  0
 43 77  1  0  0  0
M  CHG  2   9  -1  10  -1
M  END
> <s_m_source_file>
../1o45_ligand.sdf

> <i_m_source_file_index>
1

> <s_epik_input>
W09IXVAoPU8pKFtPSF0pT2MxW2NIXVtjSF1jKFtjSF1jMVtDSDJdW09IXSlbQ0gyXVtDQEhdKFtOSF1DKD1PKVtDSDNdKUMoPU8pW05IXVtDQEhdMltDSDJdW0NIMl1bQ0gyXVtDSDJdTihDMj1PKVtDSDJdYzNbY0hdW2NIXWMoW2NIXVtjSF0zKS1jNFtjSF1bY0hdW2NIXVtjSF1bY0hdNA==

> <s_epik_cmdline>
J2VwaWtfYXBwJywgJy1pbWFlJywgJ2xpZ2FuZF9wcm8ubWFlJywgJy1vbWFlJywgJ2xpZ2FuZF9wcmVwLm1hZScsICctbXMnLCAnMScsICctcGgnLCAnNycsICctcGh0JywgJzAuNScsICctbnQn

> <r_epik_Ionization_Penalty>
  0.0842

> <r_epik_Ionization_Penalty_Charging>
  0.0842

> <r_epik_Ionization_Penalty_Neutral>
  0.0000

> <r_epik_State_Penalty>
  0.0749

> <r_epik_Charging_Adjusted_Penalty>
0.159079871568746

> <i_epik_Tot_Q>
-2

> <i_epik_Tot_abs_Q>
2

$$$$
