1o47_ligand
                    3D
 Schrodinger Suite 2020-3.
 75 78  0  0  1  0            999 V2000
   19.4240   24.9570   20.1250 C   0  0  0  0  0  0
   19.9800   25.8960   19.2510 C   0  0  0  0  0  0
   19.1920   26.3790   18.1810 C   0  0  0  0  0  0
   17.8020   26.0000   18.0910 C   0  0  0  0  0  0
   17.2850   25.0700   18.9970 C   0  0  0  0  0  0
   18.0830   24.5020   19.9870 C   0  0  0  0  0  0
   16.9190   26.6460   17.0140 C   0  0  0  0  0  0
   15.8890   25.8170   16.7100 F   0  0  0  0  0  0
   17.6140   26.8760   15.8720 F   0  0  0  0  0  0
   16.3220   28.3460   17.4480 P   0  0  0  0  0  0
   15.1940   28.7000   16.4530 O   0  5  0  0  0  0
   17.3820   29.3300   17.2510 O   0  0  0  0  0  0
   15.6890   28.4760   18.8650 O   0  5  0  0  0  0
   20.3070   24.3950   21.1770 C   0  0  0  0  0  0
   19.9480   25.0170   22.5210 C   0  0  1  0  0  0
   20.6960   24.2990   23.6180 C   0  0  0  0  0  0
   19.9660   23.2750   24.1800 N   0  0  0  0  0  0
   21.8530   24.6550   23.9280 O   0  0  0  0  0  0
   20.2830   26.4220   22.5370 N   0  0  0  0  0  0
   19.5610   27.3450   23.1640 C   0  0  0  0  0  0
   18.6200   27.0650   23.8980 O   0  0  0  0  0  0
   19.9670   28.8210   22.8380 C   0  0  0  0  0  0
   20.5770   22.3410   25.0850 C   0  0  2  0  0  0
   21.6280   21.5460   24.2610 C   0  0  0  0  0  0
   22.4330   20.6070   24.9690 N   0  0  0  0  0  0
   21.7590   21.6650   23.0380 O   0  0  0  0  0  0
   22.2570   20.2680   26.3960 C   0  0  0  0  0  0
   20.9350   19.5430   26.6110 C   0  0  0  0  0  0
   23.3850   19.7250   24.2360 C   0  0  0  0  0  0
   22.7690   18.3660   23.9430 C   0  0  0  0  0  0
   19.7630   20.5430   26.8230 C   0  0  0  0  0  0
   19.4480   21.4420   25.5810 C   0  0  0  0  0  0
   21.6950   18.2980   23.0160 C   0  0  0  0  0  0
   21.0810   17.0480   22.7270 C   0  0  0  0  0  0
   21.6030   15.9300   23.3900 C   0  0  0  0  0  0
   22.6530   16.0030   24.3330 C   0  0  0  0  0  0
   23.2220   17.2200   24.6140 C   0  0  0  0  0  0
   20.9300   14.6240   23.0890 C   0  0  0  0  0  0
   21.6630   13.4050   23.0050 C   0  0  0  0  0  0
   20.9670   12.1930   22.7170 C   0  0  0  0  0  0
   19.5830   12.1750   22.5330 C   0  0  0  0  0  0
   18.8250   13.3490   22.6960 C   0  0  0  0  0  0
   19.5010   14.5720   22.9550 C   0  0  0  0  0  0
   21.0016   26.2490   19.3918 H   0  0  0  0  0  0
   19.6315   27.0337   17.4285 H   0  0  0  0  0  0
   16.2357   24.7833   18.9274 H   0  0  0  0  0  0
   17.6886   23.7253   20.6422 H   0  0  0  0  0  0
   20.1694   23.3048   21.2273 H   0  0  0  0  0  0
   21.3559   24.6214   20.9349 H   0  0  0  0  0  0
   18.8629   24.9681   22.6948 H   0  0  0  0  0  0
   18.9000   23.1783   23.9267 H   0  0  0  0  0  0
   21.1799   26.7796   22.0100 H   0  0  0  0  0  0
   20.8352   28.8218   22.1626 H   0  0  0  0  0  0
   20.2271   29.3441   23.7701 H   0  0  0  0  0  0
   19.1241   29.3344   22.3523 H   0  0  0  0  0  0
   21.0495   22.8622   25.9306 H   0  0  0  0  0  0
   23.0803   19.6154   26.7221 H   0  0  0  0  0  0
   22.2610   21.1904   26.9952 H   0  0  0  0  0  0
   20.7088   18.9240   25.7303 H   0  0  0  0  0  0
   21.0094   18.9009   27.5011 H   0  0  0  0  0  0
   23.6606   20.1965   23.2811 H   0  0  0  0  0  0
   24.2886   19.5746   24.8449 H   0  0  0  0  0  0
   18.8438   19.9862   27.0576 H   0  0  0  0  0  0
   20.0044   21.2196   27.6560 H   0  0  0  0  0  0
   18.5862   22.0614   25.8702 H   0  0  0  0  0  0
   19.1501   20.7510   24.7786 H   0  0  0  0  0  0
   21.3409   19.2048   22.5255 H   0  0  0  0  0  0
   20.2493   16.9646   22.0275 H   0  0  0  0  0  0
   23.0076   15.1014   24.8324 H   0  0  0  0  0  0
   24.0198   17.2957   25.3529 H   0  0  0  0  0  0
   22.7421   13.3984   23.1588 H   0  0  0  0  0  0
   21.5277   11.2615   22.6390 H   0  0  0  0  0  0
   19.0859   11.2439   22.2609 H   0  0  0  0  0  0
   17.7377   13.3210   22.6248 H   0  0  0  0  0  0
   18.9224   15.4904   23.0541 H   0  0  0  0  0  0
  1  2  2  0  0  0
  1  6  1  0  0  0
  1 14  1  0  0  0
  2  3  1  0  0  0
  2 44  1  0  0  0
  3  4  2  0  0  0
  3 45  1  0  0  0
  4  5  1  0  0  0
  4  7  1  0  0  0
  5  6  2  0  0  0
  5 46  1  0  0  0
  6 47  1  0  0  0
  7  8  1  0  0  0
  7  9  1  0  0  0
  7 10  1  0  0  0
 10 11  1  0  0  0
 10 12  2  0  0  0
 10 13  1  0  0  0
 14 15  1  0  0  0
 14 48  1  0  0  0
 14 49  1  0  0  0
 15 16  1  0  0  0
 15 19  1  0  0  0
 15 50  1  0  0  0
 16 17  1  0  0  0
 16 18  2  0  0  0
 17 23  1  0  0  0
 17 51  1  0  0  0
 19 20  1  0  0  0
 19 52  1  0  0  0
 20 21  2  0  0  0
 20 22  1  0  0  0
 22 53  1  0  0  0
 22 54  1  0  0  0
 22 55  1  0  0  0
 23 24  1  0  0  0
 23 32  1  0  0  0
 23 56  1  0  0  0
 24 25  1  0  0  0
 24 26  2  0  0  0
 25 27  1  0  0  0
 25 29  1  0  0  0
 27 28  1  0  0  0
 27 57  1  0  0  0
 27 58  1  0  0  0
 28 31  1  0  0  0
 28 59  1  0  0  0
 28 60  1  0  0  0
 29 30  1  0  0  0
 29 61  1  0  0  0
 29 62  1  0  0  0
 30 33  2  0  0  0
 30 37  1  0  0  0
 31 32  1  0  0  0
 31 63  1  0  0  0
 31 64  1  0  0  0
 32 65  1  0  0  0
 32 66  1  0  0  0
 33 34  1  0  0  0
 33 67  1  0  0  0
 34 35  2  0  0  0
 34 68  1  0  0  0
 35 36  1  0  0  0
 35 38  1  0  0  0
 36 37  2  0  0  0
 36 69  1  0  0  0
 37 70  1  0  0  0
 38 39  2  0  0  0
 38 43  1  0  0  0
 39 40  1  0  0  0
 39 71  1  0  0  0
 40 41  2  0  0  0
 40 72  1  0  0  0
 41 42  1  0  0  0
 41 73  1  0  0  0
 42 43  2  0  0  0
 42 74  1  0  0  0
 43 75  1  0  0  0
M  CHG  2  11  -1  13  -1
M  END
> <s_m_source_file>
../1o47_ligand.sdf

> <i_m_source_file_index>
1

> <s_epik_input>
W09IXVAoPU8pKFtPSF0pQyhGKShGKWMoW2NIXVtjSF0xKVtjSF1bY0hdYzFbQ0gyXVtDQEhdKFtOSF1DKD1PKVtDSDNdKUMoPU8pW05IXVtDQEBIXTJDKD1PKU4oW0NIMl1bQ0gyXVtDSDJdW0NIMl0yKVtDSDJdYzNbY0hdW2NIXWMoW2NIXVtjSF0zKS1jNFtjSF1bY0hdW2NIXVtjSF1bY0hdNA==

> <s_epik_cmdline>
J2VwaWtfYXBwJywgJy1pbWFlJywgJ2xpZ2FuZF9wcm8ubWFlJywgJy1vbWFlJywgJ2xpZ2FuZF9wcmVwLm1hZScsICctbXMnLCAnMScsICctcGgnLCAnNycsICctcGh0JywgJzAuNScsICctbnQn

> <r_epik_Ionization_Penalty>
  0.0143

> <r_epik_Ionization_Penalty_Charging>
  0.0143

> <r_epik_Ionization_Penalty_Neutral>
  0.0000

> <r_epik_State_Penalty>
  0.0112

> <r_epik_Charging_Adjusted_Penalty>
0.0255632782935335

> <i_epik_Tot_Q>
-2

> <i_epik_Tot_abs_Q>
2

$$$$
