1o48_ligand
                    3D
 Schrodinger Suite 2020-3.
 76 79  0  0  1  0            999 V2000
   19.0180   25.2650   19.5650 C   0  0  0  0  0  0
   17.6520   24.9090   19.3890 C   0  0  0  0  0  0
   16.8230   25.6810   18.5460 C   0  0  0  0  0  0
   17.4120   26.7520   17.7840 C   0  0  0  0  0  0
   18.8340   27.0580   17.8510 C   0  0  0  0  0  0
   19.6220   26.3270   18.8080 C   0  0  0  0  0  0
   19.8470   24.4880   20.6190 C   0  0  0  0  0  0
   19.6000   25.0830   22.0150 C   0  0  1  0  0  0
   20.3030   24.2510   23.0760 C   0  0  0  0  0  0
   19.6080   23.2240   23.5300 N   0  0  0  0  0  0
   21.4340   24.5430   23.4610 O   0  0  0  0  0  0
   20.0370   26.4980   22.0200 N   0  0  0  0  0  0
   19.3900   27.3850   22.8110 C   0  0  0  0  0  0
   18.4100   27.0780   23.4990 O   0  0  0  0  0  0
   19.9870   28.8260   22.7870 C   0  0  0  0  0  0
   20.2910   22.2440   24.3590 C   0  0  2  0  0  0
   21.3620   21.4210   23.5300 C   0  0  0  0  0  0
   22.1650   20.5580   24.2570 N   0  0  0  0  0  0
   21.4630   21.5680   22.3020 O   0  0  0  0  0  0
   22.0180   20.2790   25.6930 C   0  0  0  0  0  0
   20.7200   19.5960   26.0560 C   0  0  0  0  0  0
   23.1790   19.6830   23.5820 C   0  0  0  0  0  0
   22.5560   18.3030   23.3220 C   0  0  0  0  0  0
   19.5640   20.5780   26.2040 C   0  0  0  0  0  0
   19.1950   21.3400   24.9190 C   0  0  0  0  0  0
   21.4050   18.2670   22.4350 C   0  0  0  0  0  0
   20.7220   17.0590   22.2680 C   0  0  0  0  0  0
   21.2760   15.8760   22.8910 C   0  0  0  0  0  0
   22.4610   15.8860   23.7320 C   0  0  0  0  0  0
   23.0610   17.1320   23.9890 C   0  0  0  0  0  0
   20.5670   14.5840   22.5790 C   0  0  0  0  0  0
   19.1380   14.5620   22.3830 C   0  0  0  0  0  0
   18.5180   13.3350   22.1240 C   0  0  0  0  0  0
   19.2670   12.1240   22.1060 C   0  0  0  0  0  0
   20.6550   12.1450   22.2830 C   0  0  0  0  0  0
   21.3340   13.3780   22.4640 C   0  0  0  0  0  0
   19.5240   27.9820   16.8640 C   0  0  0  0  0  0
   20.0090   29.1550   17.2750 O   0  5  0  0  0  0
   19.6160   27.6680   15.7090 O   0  0  0  0  0  0
   16.4750   27.4870   16.8220 C   0  0  0  0  0  0
   15.3310   28.2450   17.4900 C   0  0  0  0  0  0
   14.5580   28.8060   16.5620 O   0  5  0  0  0  0
   15.1400   28.3530   18.6620 O   0  0  0  0  0  0
   17.2449   24.0396   19.9053 H   0  0  0  0  0  0
   15.7561   25.4701   18.4732 H   0  0  0  0  0  0
   20.6721   26.5776   18.9580 H   0  0  0  0  0  0
   19.5456   23.4301   20.6153 H   0  0  0  0  0  0
   20.9166   24.5654   20.3740 H   0  0  0  0  0  0
   18.5299   25.0923   22.2696 H   0  0  0  0  0  0
   18.5404   23.0985   23.2966 H   0  0  0  0  0  0
   20.8777   26.8162   21.3860 H   0  0  0  0  0  0
   20.8497   28.8542   22.1051 H   0  0  0  0  0  0
   20.3113   29.1054   23.8003 H   0  0  0  0  0  0
   19.2210   29.5345   22.4387 H   0  0  0  0  0  0
   20.8085   22.7900   25.1616 H   0  0  0  0  0  0
   22.8350   19.6211   26.0242 H   0  0  0  0  0  0
   22.0567   21.2233   26.2559 H   0  0  0  0  0  0
   20.4526   18.8750   25.2695 H   0  0  0  0  0  0
   20.8391   19.0671   27.0131 H   0  0  0  0  0  0
   23.4800   20.1396   22.6276 H   0  0  0  0  0  0
   24.0606   19.5754   24.2311 H   0  0  0  0  0  0
   18.6609   20.0360   26.5212 H   0  0  0  0  0  0
   19.8209   21.3358   26.9588 H   0  0  0  0  0  0
   18.3078   21.9446   25.1584 H   0  0  0  0  0  0
   18.9291   20.5792   24.1704 H   0  0  0  0  0  0
   21.0805   19.1654   21.9098 H   0  0  0  0  0  0
   19.8012   17.0095   21.6869 H   0  0  0  0  0  0
   22.8688   14.9644   24.1473 H   0  0  0  0  0  0
   23.8971   17.2096   24.6839 H   0  0  0  0  0  0
   18.5543   15.4810   22.4355 H   0  0  0  0  0  0
   17.4453   13.3055   21.9331 H   0  0  0  0  0  0
   18.7554   11.1737   21.9532 H   0  0  0  0  0  0
   21.2167   11.2109   22.2818 H   0  0  0  0  0  0
   22.4224   13.4078   22.5148 H   0  0  0  0  0  0
   17.0489   28.2270   16.2449 H   0  0  0  0  0  0
   16.0141   26.7629   16.1341 H   0  0  0  0  0  0
  1  2  2  0  0  0
  1  6  1  0  0  0
  1  7  1  0  0  0
  2  3  1  0  0  0
  2 44  1  0  0  0
  3  4  2  0  0  0
  3 45  1  0  0  0
  4  5  1  0  0  0
  4 40  1  0  0  0
  5  6  2  0  0  0
  5 37  1  0  0  0
  6 46  1  0  0  0
  7  8  1  0  0  0
  7 47  1  0  0  0
  7 48  1  0  0  0
  8  9  1  0  0  0
  8 12  1  0  0  0
  8 49  1  0  0  0
  9 10  1  0  0  0
  9 11  2  0  0  0
 10 16  1  0  0  0
 10 50  1  0  0  0
 12 13  1  0  0  0
 12 51  1  0  0  0
 13 14  2  0  0  0
 13 15  1  0  0  0
 15 52  1  0  0  0
 15 53  1  0  0  0
 15 54  1  0  0  0
 16 17  1  0  0  0
 16 25  1  0  0  0
 16 55  1  0  0  0
 17 18  1  0  0  0
 17 19  2  0  0  0
 18 20  1  0  0  0
 18 22  1  0  0  0
 20 21  1  0  0  0
 20 56  1  0  0  0
 20 57  1  0  0  0
 21 24  1  0  0  0
 21 58  1  0  0  0
 21 59  1  0  0  0
 22 23  1  0  0  0
 22 60  1  0  0  0
 22 61  1  0  0  0
 23 26  2  0  0  0
 23 30  1  0  0  0
 24 25  1  0  0  0
 24 62  1  0  0  0
 24 63  1  0  0  0
 25 64  1  0  0  0
 25 65  1  0  0  0
 26 27  1  0  0  0
 26 66  1  0  0  0
 27 28  2  0  0  0
 27 67  1  0  0  0
 28 29  1  0  0  0
 28 31  1  0  0  0
 29 30  2  0  0  0
 29 68  1  0  0  0
 30 69  1  0  0  0
 31 32  2  0  0  0
 31 36  1  0  0  0
 32 33  1  0  0  0
 32 70  1  0  0  0
 33 34  2  0  0  0
 33 71  1  0  0  0
 34 35  1  0  0  0
 34 72  1  0  0  0
 35 36  2  0  0  0
 35 73  1  0  0  0
 36 74  1  0  0  0
 37 38  1  0  0  0
 37 39  2  0  0  0
 40 41  1  0  0  0
 40 75  1  0  0  0
 40 76  1  0  0  0
 41 42  1  0  0  0
 41 43  2  0  0  0
M  CHG  2  38  -1  42  -1
M  END
> <s_m_source_file>
../1o48_ligand.sdf

> <i_m_source_file_index>
1

> <s_epik_input>
W09IXUMoPU8pYyhbY0hdMSljKFtDSDJdQyg9TylbT0hdKVtjSF1bY0hdYzFbQ0gyXVtDQEhdKFtOSF1DKD1PKVtDSDNdKUMoPU8pW05IXVtDQEBIXTJDKD1PKU4oW0NIMl1bQ0gyXVtDSDJdW0NIMl0yKVtDSDJdYzNbY0hdW2NIXWMoW2NIXVtjSF0zKS1jNFtjSF1bY0hdW2NIXVtjSF1bY0hdNA==

> <s_epik_cmdline>
J2VwaWtfYXBwJywgJy1pbWFlJywgJ2xpZ2FuZF9wcm8ubWFlJywgJy1vbWFlJywgJ2xpZ2FuZF9wcmVwLm1hZScsICctbXMnLCAnMScsICctcGgnLCAnNycsICctcGh0JywgJzAuNScsICctbnQn

> <r_lp_tautomer_probability>
1

> <r_epik_Ionization_Penalty>
  0.0014

> <r_epik_Ionization_Penalty_Charging>
  0.0014

> <r_epik_Ionization_Penalty_Neutral>
  0.0000

> <r_epik_State_Penalty>
 -0.0000

> <r_epik_Charging_Adjusted_Penalty>
0.0014303986050789

> <i_epik_Tot_Q>
-2

> <i_epik_Tot_abs_Q>
2

$$$$
