1o49_ligand
                    3D
 Schrodinger Suite 2020-3.
 79 82  0  0  1  0            999 V2000
   17.9950   24.7810   19.7560 C   0  0  0  0  0  0
   16.9630   25.3480   19.0580 C   0  0  0  0  0  0
   17.2960   26.4740   18.3550 C   0  0  0  0  0  0
   18.6110   27.0000   18.2810 C   0  0  0  0  0  0
   19.6710   26.4390   19.0430 C   0  0  0  0  0  0
   19.2790   25.3190   19.7630 C   0  0  0  0  0  0
   16.0200   28.0840   17.0160 C   0  0  0  0  0  0
   15.1300   29.0820   17.6980 C   0  0  0  0  0  0
   20.1580   24.5360   20.6750 C   0  0  0  0  0  0
   19.7200   25.0560   21.9730 C   0  0  1  0  0  0
   20.3640   24.2650   23.0800 C   0  0  0  0  0  0
   19.6560   23.2710   23.6450 N   0  0  0  0  0  0
   20.2420   26.4830   22.0420 N   0  0  0  0  0  0
   19.5540   27.4340   22.6320 C   0  0  0  0  0  0
   19.9200   28.7660   21.8800 C   0  0  0  0  0  0
   18.6860   27.1840   23.4560 O   0  0  0  0  0  0
   21.4780   24.5410   23.4150 O   0  0  0  0  0  0
   20.3090   22.2960   24.4390 C   0  0  1  0  0  0
   19.1850   21.4990   24.9430 C   0  0  0  0  0  0
   19.4960   20.7240   26.2170 C   0  0  0  0  0  0
   20.7210   19.7890   26.1940 C   0  0  0  0  0  0
   22.1180   20.3880   25.8710 C   0  0  0  0  0  0
   22.3370   20.6630   24.4090 N   0  0  0  0  0  0
   21.3700   21.4480   23.6410 C   0  0  0  0  0  0
   23.3700   19.7860   23.6880 C   0  0  0  0  0  0
   22.7690   18.4000   23.3840 C   0  0  0  0  0  0
   21.4100   21.4690   22.3490 O   0  0  0  0  0  0
   16.1340   26.9460   17.8710 O   0  0  0  0  0  0
   23.2550   17.2490   23.9650 C   0  0  0  0  0  0
   22.6330   16.0070   23.7130 C   0  0  0  0  0  0
   21.4920   15.8870   22.8340 C   0  0  0  0  0  0
   20.9040   17.0700   22.3200 C   0  0  0  0  0  0
   21.5490   18.3500   22.5790 C   0  0  0  0  0  0
   20.8760   14.5980   22.4400 C   0  0  0  0  0  0
   19.4760   14.4650   22.2470 C   0  0  0  0  0  0
   18.7350   13.3050   22.1580 C   0  0  0  0  0  0
   19.4900   12.1570   22.2020 C   0  0  0  0  0  0
   20.8410   12.1450   22.2260 C   0  0  0  0  0  0
   21.5750   13.3940   22.3830 C   0  0  0  0  0  0
   18.9540   28.4970   17.2660 P   0  0  0  0  0  0
   20.4880   28.8870   17.2560 O   0  0  0  0  0  0
   18.0130   29.6500   18.1210 O   0  5  0  0  0  0
   18.1370   28.2590   15.6050 O   0  0  0  0  0  0
   14.3170   29.4790   16.7160 O   0  5  0  0  0  0
   15.1300   29.4220   18.8570 O   0  0  0  0  0  0
   17.8041   23.8733   20.3284 H   0  0  0  0  0  0
   15.9544   24.9348   19.0618 H   0  0  0  0  0  0
   20.6827   26.8444   19.0603 H   0  0  0  0  0  0
   15.5755   27.7947   16.0523 H   0  0  0  0  0  0
   17.0094   28.5327   16.8434 H   0  0  0  0  0  0
   19.9641   23.4619   20.5383 H   0  0  0  0  0  0
   21.2115   24.7509   20.4428 H   0  0  0  0  0  0
   18.6260   24.9769   22.0562 H   0  0  0  0  0  0
   18.5684   23.2156   23.4900 H   0  0  0  0  0  0
   21.2137   26.7355   21.5924 H   0  0  0  0  0  0
   20.7737   28.5861   21.2100 H   0  0  0  0  0  0
   20.1870   29.5402   22.6144 H   0  0  0  0  0  0
   19.0553   29.1032   21.2897 H   0  0  0  0  0  0
   20.8467   22.7992   25.2561 H   0  0  0  0  0  0
   18.3361   22.1621   25.1659 H   0  0  0  0  0  0
   18.8859   20.7640   24.1812 H   0  0  0  0  0  0
   19.6821   21.4302   27.0396 H   0  0  0  0  0  0
   18.6413   20.0805   26.4726 H   0  0  0  0  0  0
   20.8429   19.3201   27.1815 H   0  0  0  0  0  0
   20.5723   19.0085   25.4333 H   0  0  0  0  0  0
   22.2401   21.3421   26.4046 H   0  0  0  0  0  0
   22.9013   19.6856   26.1920 H   0  0  0  0  0  0
   23.6637   20.2669   22.7433 H   0  0  0  0  0  0
   24.2564   19.6624   24.3276 H   0  0  0  0  0  0
   24.1234   17.2976   24.6220 H   0  0  0  0  0  0
   23.0250   15.1118   24.1958 H   0  0  0  0  0  0
   19.9827   17.0225   21.7395 H   0  0  0  0  0  0
   21.1236   19.2682   22.1739 H   0  0  0  0  0  0
   18.9164   15.3962   22.1580 H   0  0  0  0  0  0
   17.6493   13.2991   22.0615 H   0  0  0  0  0  0
   18.9682   11.2002   22.2185 H   0  0  0  0  0  0
   21.3806   11.2030   22.1281 H   0  0  0  0  0  0
   22.6626   13.3865   22.4553 H   0  0  0  0  0  0
   18.5677   27.5571   14.8758 H   0  0  0  0  0  0
  1  2  2  0  0  0
  1  6  1  0  0  0
  1 46  1  0  0  0
  2  3  1  0  0  0
  2 47  1  0  0  0
  3  4  2  0  0  0
  3 28  1  0  0  0
  4  5  1  0  0  0
  4 40  1  0  0  0
  5  6  2  0  0  0
  5 48  1  0  0  0
  6  9  1  0  0  0
  7  8  1  0  0  0
  7 28  1  0  0  0
  7 49  1  0  0  0
  7 50  1  0  0  0
  8 44  1  0  0  0
  8 45  2  0  0  0
  9 10  1  0  0  0
  9 51  1  0  0  0
  9 52  1  0  0  0
 10 11  1  0  0  0
 10 13  1  0  0  0
 10 53  1  0  0  0
 11 12  1  0  0  0
 11 17  2  0  0  0
 12 18  1  0  0  0
 12 54  1  0  0  0
 13 14  1  0  0  0
 13 55  1  0  0  0
 14 15  1  0  0  0
 14 16  2  0  0  0
 15 56  1  0  0  0
 15 57  1  0  0  0
 15 58  1  0  0  0
 18 19  1  0  0  0
 18 24  1  0  0  0
 18 59  1  0  0  0
 19 20  1  0  0  0
 19 60  1  0  0  0
 19 61  1  0  0  0
 20 21  1  0  0  0
 20 62  1  0  0  0
 20 63  1  0  0  0
 21 22  1  0  0  0
 21 64  1  0  0  0
 21 65  1  0  0  0
 22 23  1  0  0  0
 22 66  1  0  0  0
 22 67  1  0  0  0
 23 24  1  0  0  0
 23 25  1  0  0  0
 24 27  2  0  0  0
 25 26  1  0  0  0
 25 68  1  0  0  0
 25 69  1  0  0  0
 26 29  2  0  0  0
 26 33  1  0  0  0
 29 30  1  0  0  0
 29 70  1  0  0  0
 30 31  2  0  0  0
 30 71  1  0  0  0
 31 32  1  0  0  0
 31 34  1  0  0  0
 32 33  2  0  0  0
 32 72  1  0  0  0
 33 73  1  0  0  0
 34 35  2  0  0  0
 34 39  1  0  0  0
 35 36  1  0  0  0
 35 74  1  0  0  0
 36 37  2  0  0  0
 36 75  1  0  0  0
 37 38  1  0  0  0
 37 76  1  0  0  0
 38 39  2  0  0  0
 38 77  1  0  0  0
 39 78  1  0  0  0
 40 41  2  0  0  0
 40 42  1  0  0  0
 40 43  1  0  0  0
 43 79  1  0  0  0
M  CHG  2  42  -1  44  -1
M  END
> <s_m_source_file>
../1o49_ligand.sdf

> <i_m_source_file_index>
1

> <s_epik_input>
W09IXUMoPU8pW0NIMl1PYzFbY0hdW2NIXWMoW2NIXWMxUCg9TykoW09IXSlbT0hdKVtDSDJdW0NASF0oW05IXUMoPU8pW0NIM10pQyg9TylbTkhdW0NASF0yW0NIMl1bQ0gyXVtDSDJdW0NIMl1OKEMyPU8pW0NIMl1jM1tjSF1bY0hdYyhbY0hdW2NIXTMpLWM0W2NIXVtjSF1bY0hdW2NIXVtjSF00

> <s_epik_cmdline>
J2VwaWtfYXBwJywgJy1pbWFlJywgJ2xpZ2FuZF9wcm8ubWFlJywgJy1vbWFlJywgJ2xpZ2FuZF9wcmVwLm1hZScsICctbXMnLCAnMScsICctcGgnLCAnNycsICctcGh0JywgJzAuNScsICctbnQn

> <r_epik_Ionization_Penalty>
  0.2480

> <r_epik_Ionization_Penalty_Charging>
  0.0001

> <r_epik_Ionization_Penalty_Neutral>
  0.2479

> <r_epik_State_Penalty>
  0.2392

> <r_epik_Charging_Adjusted_Penalty>
0.239241426683164

> <i_epik_Tot_Q>
-2

> <i_epik_Tot_abs_Q>
2

$$$$
