1o4a_ligand
                    3D
 Schrodinger Suite 2020-3.
 75 78  0  0  1  0            999 V2000
   19.7650   25.7160   18.0330 C   0  0  0  0  0  0
   19.1120   26.4000   16.9760 C   0  0  0  0  0  0
   17.6760   26.3620   16.8220 C   0  0  0  0  0  0
   16.9490   25.5680   17.7600 C   0  0  0  0  0  0
   17.5950   24.9470   18.8810 C   0  0  0  0  0  0
   18.9910   25.0230   19.0090 C   0  0  0  0  0  0
   19.6770   24.3670   20.1900 C   0  0  0  0  0  0
   19.2970   25.0390   21.5160 C   0  0  1  0  0  0
   20.0570   24.3250   22.5960 C   0  0  0  0  0  0
   19.3480   23.2980   23.1150 N   0  0  0  0  0  0
   19.7280   26.4500   21.5740 N   0  0  0  0  0  0
   18.8770   27.4740   21.6000 C   0  0  0  0  0  0
   19.6670   28.7800   21.4210 C   0  0  0  0  0  0
   17.6420   27.4150   21.6070 O   0  0  0  0  0  0
   21.2110   24.6650   22.9410 O   0  0  0  0  0  0
   20.0040   22.3290   23.9430 C   0  0  1  0  0  0
   18.8880   21.4630   24.5380 C   0  0  0  0  0  0
   19.4240   20.8530   25.8200 C   0  0  0  0  0  0
   20.5950   19.9080   25.8250 C   0  0  0  0  0  0
   21.9420   20.4580   25.3400 C   0  0  0  0  0  0
   22.0390   20.7010   23.8890 N   0  0  0  0  0  0
   21.1540   21.5130   23.1340 C   0  0  0  0  0  0
   23.0340   19.8310   23.2040 C   0  0  0  0  0  0
   22.4410   18.4940   22.9660 C   0  0  0  0  0  0
   21.1830   21.6180   21.8970 O   0  0  0  0  0  0
   22.9840   17.2850   23.5730 C   0  0  0  0  0  0
   22.3530   15.9970   23.3820 C   0  0  0  0  0  0
   21.1690   15.9800   22.5690 C   0  0  0  0  0  0
   20.6360   17.1750   21.9840 C   0  0  0  0  0  0
   21.2650   18.4540   22.1630 C   0  0  0  0  0  0
   20.4270   14.7220   22.2570 C   0  0  0  0  0  0
   21.1720   13.5330   22.0600 C   0  0  0  0  0  0
   20.4940   12.3360   21.7590 C   0  0  0  0  0  0
   19.0670   12.3760   21.6700 C   0  0  0  0  0  0
   18.3110   13.5950   21.9110 C   0  0  0  0  0  0
   19.0090   14.7680   22.1860 C   0  0  0  0  0  0
   17.0580   27.2100   15.7360 C   0  0  0  0  0  0
   17.5840   27.4880   14.7200 O   0  0  0  0  0  0
   15.8570   27.6580   15.8510 O   0  5  0  0  0  0
   15.5320   25.4910   17.7840 C   0  0  0  0  0  0
   14.8670   26.6290   18.2070 O   0  0  0  0  0  0
   20.8530   25.7202   18.0987 H   0  0  0  0  0  0
   19.7083   26.9684   16.2622 H   0  0  0  0  0  0
   17.0045   24.4188   19.6296 H   0  0  0  0  0  0
   19.3831   23.3083   20.2431 H   0  0  0  0  0  0
   20.7677   24.4390   20.0669 H   0  0  0  0  0  0
   18.2049   25.0216   21.6467 H   0  0  0  0  0  0
   18.2724   23.2037   22.9046 H   0  0  0  0  0  0
   20.7996   26.6972   21.5979 H   0  0  0  0  0  0
   20.7451   28.5635   21.4518 H   0  0  0  0  0  0
   19.4099   29.4780   22.2313 H   0  0  0  0  0  0
   19.4115   29.2332   20.4518 H   0  0  0  0  0  0
   20.4901   22.8862   24.7574 H   0  0  0  0  0  0
   18.0091   22.0905   24.7474 H   0  0  0  0  0  0
   18.6136   20.6751   23.8211 H   0  0  0  0  0  0
   19.7526   21.6545   26.4980 H   0  0  0  0  0  0
   18.6316   20.2643   26.3052 H   0  0  0  0  0  0
   20.7750   19.5527   26.8504 H   0  0  0  0  0  0
   20.3764   19.0497   25.1727 H   0  0  0  0  0  0
   22.1431   21.4213   25.8315 H   0  0  0  0  0  0
   22.7410   19.7447   25.5906 H   0  0  0  0  0  0
   23.3158   20.2835   22.2418 H   0  0  0  0  0  0
   23.9280   19.7280   23.8365 H   0  0  0  0  0  0
   23.8844   17.3527   24.1836 H   0  0  0  0  0  0
   22.7545   15.0885   23.8309 H   0  0  0  0  0  0
   19.7270   17.1114   21.3859 H   0  0  0  0  0  0
   20.8597   19.3557   21.7039 H   0  0  0  0  0  0
   22.2590   13.5447   22.1406 H   0  0  0  0  0  0
   21.0404   11.4066   21.5986 H   0  0  0  0  0  0
   18.5288   11.4636   21.4133 H   0  0  0  0  0  0
   17.2215   13.5904   21.8771 H   0  0  0  0  0  0
   18.4763   15.7057   22.3441 H   0  0  0  0  0  0
   15.1591   25.2796   16.7710 H   0  0  0  0  0  0
   15.2200   24.6855   18.4651 H   0  0  0  0  0  0
   13.7679   26.6397   18.2503 H   0  0  0  0  0  0
  1  2  2  0  0  0
  1  6  1  0  0  0
  1 42  1  0  0  0
  2  3  1  0  0  0
  2 43  1  0  0  0
  3  4  2  0  0  0
  3 37  1  0  0  0
  4  5  1  0  0  0
  4 40  1  0  0  0
  5  6  2  0  0  0
  5 44  1  0  0  0
  6  7  1  0  0  0
  7  8  1  0  0  0
  7 45  1  0  0  0
  7 46  1  0  0  0
  8  9  1  0  0  0
  8 11  1  0  0  0
  8 47  1  0  0  0
  9 10  1  0  0  0
  9 15  2  0  0  0
 10 16  1  0  0  0
 10 48  1  0  0  0
 11 12  1  0  0  0
 11 49  1  0  0  0
 12 13  1  0  0  0
 12 14  2  0  0  0
 13 50  1  0  0  0
 13 51  1  0  0  0
 13 52  1  0  0  0
 16 17  1  0  0  0
 16 22  1  0  0  0
 16 53  1  0  0  0
 17 18  1  0  0  0
 17 54  1  0  0  0
 17 55  1  0  0  0
 18 19  1  0  0  0
 18 56  1  0  0  0
 18 57  1  0  0  0
 19 20  1  0  0  0
 19 58  1  0  0  0
 19 59  1  0  0  0
 20 21  1  0  0  0
 20 60  1  0  0  0
 20 61  1  0  0  0
 21 22  1  0  0  0
 21 23  1  0  0  0
 22 25  2  0  0  0
 23 24  1  0  0  0
 23 62  1  0  0  0
 23 63  1  0  0  0
 24 26  2  0  0  0
 24 30  1  0  0  0
 26 27  1  0  0  0
 26 64  1  0  0  0
 27 28  2  0  0  0
 27 65  1  0  0  0
 28 29  1  0  0  0
 28 31  1  0  0  0
 29 30  2  0  0  0
 29 66  1  0  0  0
 30 67  1  0  0  0
 31 32  2  0  0  0
 31 36  1  0  0  0
 32 33  1  0  0  0
 32 68  1  0  0  0
 33 34  2  0  0  0
 33 69  1  0  0  0
 34 35  1  0  0  0
 34 70  1  0  0  0
 35 36  2  0  0  0
 35 71  1  0  0  0
 36 72  1  0  0  0
 37 38  2  0  0  0
 37 39  1  0  0  0
 40 41  1  0  0  0
 40 73  1  0  0  0
 40 74  1  0  0  0
 41 75  1  0  0  0
M  CHG  1  39  -1
M  END
> <s_m_source_file>
../1o4a_ligand.sdf

> <i_m_source_file_index>
1

> <s_epik_input>
Tz1DKFtPSF0pYzFbY0hdW2NIXWMoW2NIXWMxW0NIMl1bT0hdKVtDSDJdW0NASF0oW05IXUMoPU8pW0NIM10pQyg9TylbTkhdW0NASF0yW0NIMl1bQ0gyXVtDSDJdW0NIMl1OKEMyPU8pW0NIMl1jM1tjSF1bY0hdYyhbY0hdW2NIXTMpLWM0W2NIXVtjSF1bY0hdW2NIXVtjSF00

> <s_epik_cmdline>
J2VwaWtfYXBwJywgJy1pbWFlJywgJ2xpZ2FuZF9wcm8ubWFlJywgJy1vbWFlJywgJ2xpZ2FuZF9wcmVwLm1hZScsICctbXMnLCAnMScsICctcGgnLCAnNycsICctcGh0JywgJzAuNScsICctbnQn

> <r_lp_tautomer_probability>
1

> <r_epik_Ionization_Penalty>
  0.0002

> <r_epik_Ionization_Penalty_Charging>
  0.0002

> <r_epik_Ionization_Penalty_Neutral>
  0.0000

> <r_epik_State_Penalty>
 -0.0000

> <r_epik_Charging_Adjusted_Penalty>
0.000229342528506591

> <i_epik_Tot_Q>
-1

> <i_epik_Tot_abs_Q>
1

$$$$
