1o4b_ligand
                    3D
 Schrodinger Suite 2020-3.
 76 79  0  0  1  0            999 V2000
   18.3470   25.1510   18.2600 C   0  0  0  0  0  0
   17.9190   25.7600   17.1210 C   0  0  0  0  0  0
   17.1620   26.8700   17.2590 C   0  0  0  0  0  0
   16.7820   27.3970   18.4740 C   0  0  0  0  0  0
   17.2130   26.8140   19.7180 C   0  0  0  0  0  0
   18.0690   25.6410   19.5110 C   0  0  0  0  0  0
   19.0000   24.7710   20.3300 C   0  0  0  0  0  0
   19.0090   25.3390   21.7540 C   0  0  1  0  0  0
   19.8580   24.4270   22.6270 C   0  0  0  0  0  0
   19.2440   23.4080   23.2650 N   0  0  0  0  0  0
   19.4620   26.7300   21.7960 N   0  0  0  0  0  0
   18.7950   27.7140   22.4040 C   0  0  0  0  0  0
   19.5500   28.9770   22.2110 C   0  0  0  0  0  0
   17.7270   27.6140   23.0200 O   0  0  0  0  0  0
   21.0830   24.7080   22.7490 O   0  0  0  0  0  0
   20.0170   22.4290   24.0370 C   0  0  1  0  0  0
   18.9530   21.4860   24.6210 C   0  0  0  0  0  0
   19.4680   20.3020   25.5440 C   0  0  0  0  0  0
   20.8290   20.5600   26.1470 C   0  0  0  0  0  0
   21.9480   20.2400   25.1590 C   0  0  0  0  0  0
   21.9310   20.7900   23.7660 N   0  0  0  0  0  0
   21.0520   21.7040   23.1560 C   0  0  0  0  0  0
   22.9650   20.0820   22.9730 C   0  0  0  0  0  0
   22.5360   18.6740   22.7880 C   0  0  0  0  0  0
   21.0910   21.9630   21.9470 O   0  0  0  0  0  0
   16.6200   27.5360   15.7270 P   0  0  0  0  0  0
   21.4810   18.4820   21.8760 C   0  0  0  0  0  0
   20.8700   17.2110   21.7940 C   0  0  0  0  0  0
   21.3390   16.1370   22.5960 C   0  0  0  0  0  0
   22.4630   16.3150   23.4560 C   0  0  0  0  0  0
   23.0630   17.5980   23.5580 C   0  0  0  0  0  0
   20.6500   14.8290   22.4470 C   0  0  0  0  0  0
   21.4160   13.6370   22.4180 C   0  0  0  0  0  0
   20.8030   12.4050   22.0650 C   0  0  0  0  0  0
   19.4320   12.3720   21.7540 C   0  0  0  0  0  0
   18.6340   13.5270   21.8690 C   0  0  0  0  0  0
   19.2430   14.7500   22.2130 C   0  0  0  0  0  0
   15.8670   28.8570   18.2340 P   0  0  0  0  0  0
   14.8490   28.8820   17.1700 O   0  5  0  0  0  0
   16.7000   30.0440   18.2930 O   0  5  0  0  0  0
   15.0720   28.6650   19.3920 O   0  0  0  0  0  0
   15.2160   27.2480   15.4970 O   0  0  0  0  0  0
   17.4120   27.1530   14.4100 O   0  5  0  0  0  0
   17.1270   28.9920   15.6280 O   0  0  0  0  0  0
   18.9345   24.2368   18.1751 H   0  0  0  0  0  0
   18.1766   25.3680   16.1371 H   0  0  0  0  0  0
   16.9355   27.1994   20.6991 H   0  0  0  0  0  0
   18.6305   23.7349   20.3275 H   0  0  0  0  0  0
   20.0092   24.8014   19.8934 H   0  0  0  0  0  0
   17.9875   25.4093   22.1561 H   0  0  0  0  0  0
   18.1497   23.3172   23.2005 H   0  0  0  0  0  0
   20.4048   27.0164   21.3071 H   0  0  0  0  0  0
   20.4602   28.7745   21.6275 H   0  0  0  0  0  0
   19.8275   29.3917   23.1913 H   0  0  0  0  0  0
   18.9218   29.7008   21.6712 H   0  0  0  0  0  0
   20.6037   22.9331   24.8191 H   0  0  0  0  0  0
   18.2535   22.0632   25.2435 H   0  0  0  0  0  0
   18.4013   21.0030   23.8010 H   0  0  0  0  0  0
   18.7622   20.1506   26.3740 H   0  0  0  0  0  0
   19.5393   19.3787   24.9503 H   0  0  0  0  0  0
   20.9088   21.6193   26.4324 H   0  0  0  0  0  0
   20.9606   19.9292   27.0385 H   0  0  0  0  0  0
   22.9067   20.5980   25.5624 H   0  0  0  0  0  0
   21.9992   19.1524   25.0027 H   0  0  0  0  0  0
   23.0757   20.5719   21.9944 H   0  0  0  0  0  0
   23.9246   20.1141   23.5098 H   0  0  0  0  0  0
   21.1408   19.3014   21.2429 H   0  0  0  0  0  0
   20.0345   17.0539   21.1118 H   0  0  0  0  0  0
   22.8570   15.4754   24.0286 H   0  0  0  0  0  0
   23.9162   17.7573   24.2174 H   0  0  0  0  0  0
   22.4768   13.6655   22.6669 H   0  0  0  0  0  0
   21.3930   11.4890   22.0353 H   0  0  0  0  0  0
   18.9800   11.4385   21.4189 H   0  0  0  0  0  0
   17.5594   13.4753   21.6941 H   0  0  0  0  0  0
   18.6321   15.6483   22.3018 H   0  0  0  0  0  0
   16.8278   29.7313   16.3856 H   0  0  0  0  0  0
  1  2  2  0  0  0
  1  6  1  0  0  0
  1 45  1  0  0  0
  2  3  1  0  0  0
  2 46  1  0  0  0
  3  4  2  0  0  0
  3 26  1  0  0  0
  4  5  1  0  0  0
  4 38  1  0  0  0
  5  6  2  0  0  0
  5 47  1  0  0  0
  6  7  1  0  0  0
  7  8  1  0  0  0
  7 48  1  0  0  0
  7 49  1  0  0  0
  8  9  1  0  0  0
  8 11  1  0  0  0
  8 50  1  0  0  0
  9 10  1  0  0  0
  9 15  2  0  0  0
 10 16  1  0  0  0
 10 51  1  0  0  0
 11 12  1  0  0  0
 11 52  1  0  0  0
 12 13  1  0  0  0
 12 14  2  0  0  0
 13 53  1  0  0  0
 13 54  1  0  0  0
 13 55  1  0  0  0
 16 17  1  0  0  0
 16 22  1  0  0  0
 16 56  1  0  0  0
 17 18  1  0  0  0
 17 57  1  0  0  0
 17 58  1  0  0  0
 18 19  1  0  0  0
 18 59  1  0  0  0
 18 60  1  0  0  0
 19 20  1  0  0  0
 19 61  1  0  0  0
 19 62  1  0  0  0
 20 21  1  0  0  0
 20 63  1  0  0  0
 20 64  1  0  0  0
 21 22  1  0  0  0
 21 23  1  0  0  0
 22 25  2  0  0  0
 23 24  1  0  0  0
 23 65  1  0  0  0
 23 66  1  0  0  0
 24 27  2  0  0  0
 24 31  1  0  0  0
 26 42  2  0  0  0
 26 43  1  0  0  0
 26 44  1  0  0  0
 27 28  1  0  0  0
 27 67  1  0  0  0
 28 29  2  0  0  0
 28 68  1  0  0  0
 29 30  1  0  0  0
 29 32  1  0  0  0
 30 31  2  0  0  0
 30 69  1  0  0  0
 31 70  1  0  0  0
 32 33  2  0  0  0
 32 37  1  0  0  0
 33 34  1  0  0  0
 33 71  1  0  0  0
 34 35  2  0  0  0
 34 72  1  0  0  0
 35 36  1  0  0  0
 35 73  1  0  0  0
 36 37  2  0  0  0
 36 74  1  0  0  0
 37 75  1  0  0  0
 38 39  1  0  0  0
 38 40  1  0  0  0
 38 41  2  0  0  0
 44 76  1  0  0  0
M  CHG  3  39  -1  40  -1  43  -1
M  END
> <s_m_source_file>
../1o4b_ligand.sdf

> <i_m_source_file_index>
1

> <s_epik_input>
Tz1QKFtPSF0pKFtPSF0pYzFbY0hdW2NIXWMoW2NIXWMxUCg9TykoW09IXSlbT0hdKVtDSDJdW0NASF0oW05IXUMoPU8pW0NIM10pQyg9TylbTkhdW0NASF0yW0NIMl1bQ0gyXVtDSDJdW0NIMl1OKEMyPU8pW0NIMl1jM1tjSF1bY0hdYyhbY0hdW2NIXTMpLWM0W2NIXVtjSF1bY0hdW2NIXVtjSF00

> <s_epik_cmdline>
J2VwaWtfYXBwJywgJy1pbWFlJywgJ2xpZ2FuZF9wcm8ubWFlJywgJy1vbWFlJywgJ2xpZ2FuZF9wcmVwLm1hZScsICctbXMnLCAnMScsICctcGgnLCAnNycsICctcGh0JywgJzAuNScsICctbnQn

> <r_epik_Ionization_Penalty>
  0.5865

> <r_epik_Ionization_Penalty_Charging>
  0.2528

> <r_epik_Ionization_Penalty_Neutral>
  0.3336

> <r_epik_State_Penalty>
  0.4022

> <r_epik_Charging_Adjusted_Penalty>
0.655070827416997

> <i_epik_Tot_Q>
-3

> <i_epik_Tot_abs_Q>
3

$$$$
