1o4d_ligand
                    3D
 Schrodinger Suite 2020-3.
 20 20  0  0  1  0            999 V2000
   17.3440   24.5310   19.4360 C   0  0  0  0  0  0
   18.0020   24.8400   20.6550 C   0  0  0  0  0  0
   17.8620   26.1430   21.1930 C   0  0  0  0  0  0
   17.0680   27.1100   20.4950 C   0  0  0  0  0  0
   16.4050   26.7880   19.2680 C   0  0  0  0  0  0
   16.5180   25.4430   18.7450 C   0  0  0  0  0  0
   15.6710   24.8320   17.7000 C   0  0  0  0  0  0
   15.4660   27.7390   18.7770 O   0  0  0  0  0  0
   15.8570   28.6660   17.5660 P   0  0  0  0  0  0
   14.5170   29.0690   16.9400 O   0  5  0  0  0  0
   16.6830   27.8300   16.5400 O   0  5  0  0  0  0
   16.5710   29.9010   18.0600 O   0  0  0  0  0  0
   15.3390   25.2720   16.5240 O   0  0  0  0  0  0
   17.4840   23.5370   19.0112 H   0  0  0  0  0  0
   18.6035   24.0892   21.1674 H   0  0  0  0  0  0
   18.3537   26.4074   22.1292 H   0  0  0  0  0  0
   16.9665   28.1137   20.9077 H   0  0  0  0  0  0
   16.1057   23.8696   17.3920 H   0  0  0  0  0  0
   14.6592   24.6665   18.0985 H   0  0  0  0  0  0
   14.6888   24.6679   15.8741 H   0  0  0  0  0  0
  1  2  2  0  0  0
  1  6  1  0  0  0
  1 14  1  0  0  0
  2  3  1  0  0  0
  2 15  1  0  0  0
  3  4  2  0  0  0
  3 16  1  0  0  0
  4  5  1  0  0  0
  4 17  1  0  0  0
  5  6  2  0  0  0
  5  8  1  0  0  0
  6  7  1  0  0  0
  7 13  1  0  0  0
  7 18  1  0  0  0
  7 19  1  0  0  0
  8  9  1  0  0  0
  9 10  1  0  0  0
  9 11  1  0  0  0
  9 12  2  0  0  0
 13 20  1  0  0  0
M  CHG  2  10  -1  11  -1
M  END
> <s_m_source_file>
../1o4d_ligand.sdf

> <i_m_source_file_index>
1

> <s_epik_input>
W09IXVtDSDJdYzFbY0hdW2NIXVtjSF1bY0hdYzFPUCg9TykoW09IXSlbT0hd

> <s_epik_cmdline>
J2VwaWtfYXBwJywgJy1pbWFlJywgJ2xpZ2FuZF9wcm8ubWFlJywgJy1vbWFlJywgJ2xpZ2FuZF9wcmVwLm1hZScsICctbXMnLCAnMScsICctcGgnLCAnNycsICctcGh0JywgJzAuNScsICctbnQn

> <r_epik_Ionization_Penalty>
  0.0734

> <r_epik_Ionization_Penalty_Charging>
  0.0734

> <r_epik_Ionization_Penalty_Neutral>
  0.0000

> <r_epik_State_Penalty>
  0.0645

> <r_epik_Charging_Adjusted_Penalty>
0.137901573633237

> <i_epik_Tot_Q>
-2

> <i_epik_Tot_abs_Q>
2

$$$$
