1o4e_ligand
                    3D
 Schrodinger Suite 2020-3.
 27 27  0  0  1  0            999 V2000
   18.0910   26.2990   20.8470 C   0  0  0  0  0  0
   18.1810   24.9590   20.3710 C   0  0  0  0  0  0
   17.3160   24.6000   19.2970 C   0  0  0  0  0  0
   16.4710   25.5390   18.6490 C   0  0  0  0  0  0
   16.4000   26.8770   19.1250 C   0  0  0  0  0  0
   17.1870   27.2590   20.2550 C   0  0  0  0  0  0
   19.1210   24.0220   21.0240 C   0  0  0  0  0  0
   15.6650   25.0640   17.5480 C   0  0  0  0  0  0
   17.0630   28.5660   20.9380 C   0  0  0  0  0  0
   15.4610   27.8200   18.6210 O   0  0  0  0  0  0
   15.7630   28.7100   17.4240 P   0  0  0  0  0  0
   14.4500   29.4170   17.2260 O   0  5  0  0  0  0
   16.0550   27.8960   16.1760 O   0  5  0  0  0  0
   16.7910   29.6950   17.7040 O   0  0  0  0  0  0
   15.8190   25.2190   16.1940 O   0  0  0  0  0  0
   16.7070   28.6830   22.1060 O   0  0  0  0  0  0
   18.7213   26.6087   21.6806 H   0  0  0  0  0  0
   17.3026   23.5636   18.9597 H   0  0  0  0  0  0
   19.6690   24.5476   21.8199 H   0  0  0  0  0  0
   19.8341   23.6393   20.2790 H   0  0  0  0  0  0
   18.5589   23.1823   21.4587 H   0  0  0  0  0  0
   15.6213   23.9652   17.5729 H   0  0  0  0  0  0
   14.6477   25.4735   17.6348 H   0  0  0  0  0  0
   18.0394   29.0726   20.9403 H   0  0  0  0  0  0
   16.3281   29.1889   20.4071 H   0  0  0  0  0  0
   15.0873   24.7752   15.5029 H   0  0  0  0  0  0
   16.6331   29.6817   22.5610 H   0  0  0  0  0  0
  1  2  2  0  0  0
  1  6  1  0  0  0
  1 17  1  0  0  0
  2  3  1  0  0  0
  2  7  1  0  0  0
  3  4  2  0  0  0
  3 18  1  0  0  0
  4  5  1  0  0  0
  4  8  1  0  0  0
  5  6  2  0  0  0
  5 10  1  0  0  0
  6  9  1  0  0  0
  7 19  1  0  0  0
  7 20  1  0  0  0
  7 21  1  0  0  0
  8 15  1  0  0  0
  8 22  1  0  0  0
  8 23  1  0  0  0
  9 16  1  0  0  0
  9 24  1  0  0  0
  9 25  1  0  0  0
 10 11  1  0  0  0
 11 12  1  0  0  0
 11 13  1  0  0  0
 11 14  2  0  0  0
 15 26  1  0  0  0
 16 27  1  0  0  0
M  CHG  2  12  -1  13  -1
M  END
> <s_m_source_file>
../1o4e_ligand.sdf

> <i_m_source_file_index>
1

> <s_epik_input>
W0NIM11jMVtjSF1jKFtDSDJdW09IXSljKGMoW2NIXTEpW0NIMl1bT0hdKU9QKD1PKShbT0hdKVtPSF0=

> <s_epik_cmdline>
J2VwaWtfYXBwJywgJy1pbWFlJywgJ2xpZ2FuZF9wcm8ubWFlJywgJy1vbWFlJywgJ2xpZ2FuZF9wcmVwLm1hZScsICctbXMnLCAnMScsICctcGgnLCAnNycsICctcGh0JywgJzAuNScsICctbnQn

> <r_epik_Ionization_Penalty>
  0.0842

> <r_epik_Ionization_Penalty_Charging>
  0.0842

> <r_epik_Ionization_Penalty_Neutral>
  0.0000

> <r_epik_State_Penalty>
  0.0749

> <r_epik_Charging_Adjusted_Penalty>
0.159079871568746

> <i_epik_Tot_Q>
-2

> <i_epik_Tot_abs_Q>
2

$$$$
