1o4f_ligand
                    3D
 Schrodinger Suite 2020-3.
 25 26  0  0  1  0            999 V2000
   18.8090   26.0860   20.1030 C   0  0  0  0  0  0
   19.0410   25.9330   18.6140 C   0  0  0  0  0  0
   18.6520   27.1380   17.7550 C   0  0  0  0  0  0
   17.9880   28.2580   18.2870 C   0  0  0  0  0  0
   17.8860   28.3760   19.6580 N   0  0  0  0  0  0
   18.7600   27.5640   20.5180 C   0  0  0  0  0  0
   19.0410   27.1710   16.4120 C   0  0  0  0  0  0
   18.8150   28.3140   15.6250 C   0  0  0  0  0  0
   18.1250   29.4100   16.1230 C   0  0  0  0  0  0
   17.6270   29.3220   17.4220 C   0  0  0  0  0  0
   16.7500   30.2890   17.8710 O   0  0  0  0  0  0
   15.2920   29.7010   18.0510 P   0  0  0  0  0  0
   14.7740   31.0290   18.6060 O   0  5  0  0  0  0
   15.0540   28.6250   19.1130 O   0  5  0  0  0  0
   14.6020   29.3020   16.7930 O   0  0  0  0  0  0
   17.8520   25.6168   20.3751 H   0  0  0  0  0  0
   19.6264   25.5975   20.6536 H   0  0  0  0  0  0
   20.1097   25.7524   18.4261 H   0  0  0  0  0  0
   18.4536   25.0829   18.2368 H   0  0  0  0  0  0
   17.1602   29.0687   20.1091 H   0  0  0  0  0  0
   18.3812   27.6433   21.5477 H   0  0  0  0  0  0
   19.7714   27.9934   20.4653 H   0  0  0  0  0  0
   19.5252   26.3001   15.9701 H   0  0  0  0  0  0
   19.1898   28.3397   14.6018 H   0  0  0  0  0  0
   17.9778   30.3065   15.5208 H   0  0  0  0  0  0
  1  2  1  0  0  0
  1  6  1  0  0  0
  1 16  1  0  0  0
  1 17  1  0  0  0
  2  3  1  0  0  0
  2 18  1  0  0  0
  2 19  1  0  0  0
  3  4  2  0  0  0
  3  7  1  0  0  0
  4  5  1  0  0  0
  4 10  1  0  0  0
  5  6  1  0  0  0
  5 20  1  0  0  0
  6 21  1  0  0  0
  6 22  1  0  0  0
  7  8  2  0  0  0
  7 23  1  0  0  0
  8  9  1  0  0  0
  8 24  1  0  0  0
  9 10  2  0  0  0
  9 25  1  0  0  0
 10 11  1  0  0  0
 11 12  1  0  0  0
 12 13  1  0  0  0
 12 14  1  0  0  0
 12 15  2  0  0  0
M  CHG  2  13  -1  14  -1
M  END
> <s_m_source_file>
../1o4f_ligand.sdf

> <i_m_source_file_index>
1

> <s_epik_input>
W0NIMl0xW0NIMl1bQ0gyXVtOSF1jKGMxMiljKFtjSF1bY0hdW2NIXTIpT1AoPU8pKFtPSF0pW09IXQ==

> <s_epik_cmdline>
J2VwaWtfYXBwJywgJy1pbWFlJywgJ2xpZ2FuZF9wcm8ubWFlJywgJy1vbWFlJywgJ2xpZ2FuZF9wcmVwLm1hZScsICctbXMnLCAnMScsICctcGgnLCAnNycsICctcGh0JywgJzAuNScsICctbnQn

> <r_lp_tautomer_probability>
1

> <r_epik_Ionization_Penalty>
  0.1150

> <r_epik_Ionization_Penalty_Charging>
  0.0821

> <r_epik_Ionization_Penalty_Neutral>
  0.0329

> <r_epik_State_Penalty>
 -0.0000

> <r_epik_Charging_Adjusted_Penalty>
0.0820819154184388

> <i_epik_Tot_Q>
-2

> <i_epik_Tot_abs_Q>
2

$$$$
