1o4g_ligand
                    3D
 Schrodinger Suite 2020-3.
 26 27  0  0  1  0            999 V2000
   21.8620   29.4050   15.8120 C   0  0  0  0  0  0
   21.7960   28.7990   17.0960 C   0  0  0  0  0  0
   20.5400   28.3900   17.5910 C   0  0  0  0  0  0
   19.3210   28.5830   16.7830 C   0  0  0  0  0  0
   19.4290   29.2090   15.5000 C   0  0  0  0  0  0
   20.7030   29.6120   15.0280 C   0  0  0  0  0  0
   20.4670   27.7650   18.8530 C   0  0  0  0  0  0
   19.2250   27.3110   19.3150 C   0  0  0  0  0  0
   18.0460   27.4800   18.5260 C   0  0  0  0  0  0
   18.0530   28.1140   17.2640 C   0  0  0  0  0  0
   16.8120   28.2920   16.4450 C   0  0  1  0  0  0
   16.4530   27.1220   15.6900 O   0  0  0  0  0  0
   15.4140   29.0300   17.3630 P   0  0  0  0  0  0
   15.8490   30.5200   17.5180 O   0  5  0  0  0  0
   15.0960   28.3870   18.6210 O   0  0  0  0  0  0
   14.2020   29.0850   16.4470 O   0  0  0  0  0  0
   22.8303   29.7182   15.4216 H   0  0  0  0  0  0
   22.6998   28.6529   17.6876 H   0  0  0  0  0  0
   18.5396   29.3741   14.8919 H   0  0  0  0  0  0
   20.7907   30.0864   14.0506 H   0  0  0  0  0  0
   21.3634   27.6371   19.4598 H   0  0  0  0  0  0
   19.1573   26.8233   20.2874 H   0  0  0  0  0  0
   17.1000   27.1033   18.9149 H   0  0  0  0  0  0
   17.2604   28.8220   15.5917 H   0  0  0  0  0  0
   17.2152   26.5941   15.0980 H   0  0  0  0  0  0
   14.2854   29.5456   15.4516 H   0  0  0  0  0  0
  1  2  2  0  0  0
  1  6  1  0  0  0
  1 17  1  0  0  0
  2  3  1  0  0  0
  2 18  1  0  0  0
  3  4  2  0  0  0
  3  7  1  0  0  0
  4  5  1  0  0  0
  4 10  1  0  0  0
  5  6  2  0  0  0
  5 19  1  0  0  0
  6 20  1  0  0  0
  7  8  2  0  0  0
  7 21  1  0  0  0
  8  9  1  0  0  0
  8 22  1  0  0  0
  9 10  2  0  0  0
  9 23  1  0  0  0
 10 11  1  0  0  0
 11 12  1  0  0  0
 11 13  1  0  0  0
 11 24  1  0  0  0
 12 25  1  0  0  0
 13 14  1  0  0  0
 13 15  2  0  0  0
 13 16  1  0  0  0
 16 26  1  0  0  0
M  CHG  1  14  -1
M  END
> <s_m_source_file>
../1o4g_ligand.sdf

> <i_m_source_file_index>
1

> <s_epik_input>
W2NIXTFbY0hdW2NIXVtjSF1jKGMxMiljKFtjSF1bY0hdW2NIXTIpW0NAQEhdKFtPSF0pUCg9TykoW09IXSlbT0hd

> <s_epik_cmdline>
J2VwaWtfYXBwJywgJy1pbWFlJywgJ2xpZ2FuZF9wcm8ubWFlJywgJy1vbWFlJywgJ2xpZ2FuZF9wcmVwLm1hZScsICctbXMnLCAnMScsICctcGgnLCAnNycsICctcGh0JywgJzAuNScsICctbnQn

> <r_epik_Ionization_Penalty>
  0.2718

> <r_epik_Ionization_Penalty_Charging>
  0.0000

> <r_epik_Ionization_Penalty_Neutral>
  0.2718

> <r_epik_State_Penalty>
  0.2640

> <r_epik_Charging_Adjusted_Penalty>
0.263992070370696

> <i_epik_Tot_Q>
-1

> <i_epik_Tot_abs_Q>
1

$$$$
