1o4i_ligand
                    3D
 Schrodinger Suite 2020-3.
 40 41  0  0  1  0            999 V2000
   18.2360   25.7640   20.7610 C   0  0  0  0  0  0
   18.3140   24.4640   20.1740 C   0  0  0  0  0  0
   17.4920   24.1750   19.0240 C   0  0  0  0  0  0
   16.5600   25.1250   18.4410 C   0  0  0  0  0  0
   16.5010   26.4430   19.0640 C   0  0  0  0  0  0
   17.3650   26.7480   20.1920 C   0  0  0  0  0  0
   15.6100   24.6920   17.3250 C   0  0  0  0  0  0
   15.4030   27.3610   18.7340 O   0  0  0  0  0  0
   15.5880   28.4930   17.5980 P   0  0  2  0  0  0
   16.9780   28.0730   17.1570 O   0  0  0  0  0  0
   15.7930   29.7990   18.3810 O   0  5  0  0  0  0
   17.0910   27.6520   15.8360 C   0  0  0  0  0  0
   15.3800   25.1590   16.0890 O   0  0  0  0  0  0
   14.4700   28.6400   16.5970 O   0  0  0  0  0  0
   17.6610   28.8630   15.1820 C   0  0  0  0  0  0
   19.1270   28.4760   14.8870 C   0  0  0  0  0  0
   20.0270   28.3590   16.1190 C   0  0  0  0  0  0
   20.1670   29.7110   16.7980 C   0  0  0  0  0  0
   18.7760   30.2270   17.1830 C   0  0  0  0  0  0
   17.6840   30.1620   16.1040 C   0  0  0  0  0  0
   18.8366   26.0058   21.6379 H   0  0  0  0  0  0
   18.9805   23.7064   20.5862 H   0  0  0  0  0  0
   17.5748   23.1889   18.5671 H   0  0  0  0  0  0
   17.3497   27.7520   20.6160 H   0  0  0  0  0  0
   15.8359   23.6559   17.0326 H   0  0  0  0  0  0
   14.5716   24.7539   17.6827 H   0  0  0  0  0  0
   17.7567   26.7777   15.7855 H   0  0  0  0  0  0
   16.0971   27.3787   15.4519 H   0  0  0  0  0  0
   14.6289   24.6735   15.4485 H   0  0  0  0  0  0
   17.0310   29.0680   14.3039 H   0  0  0  0  0  0
   19.1539   27.4981   14.3839 H   0  0  0  0  0  0
   19.5829   29.2361   14.2356 H   0  0  0  0  0  0
   19.5857   27.6440   16.8289 H   0  0  0  0  0  0
   21.0227   28.0051   15.8135 H   0  0  0  0  0  0
   20.7850   29.6051   17.7018 H   0  0  0  0  0  0
   20.6461   30.4204   16.1072 H   0  0  0  0  0  0
   18.3893   29.6416   18.0302 H   0  0  0  0  0  0
   18.8445   31.2866   17.4704 H   0  0  0  0  0  0
   17.8317   31.0539   15.4773 H   0  0  0  0  0  0
   16.7285   30.2464   16.6425 H   0  0  0  0  0  0
  1  2  2  0  0  0
  1  6  1  0  0  0
  1 21  1  0  0  0
  2  3  1  0  0  0
  2 22  1  0  0  0
  3  4  2  0  0  0
  3 23  1  0  0  0
  4  5  1  0  0  0
  4  7  1  0  0  0
  5  6  2  0  0  0
  5  8  1  0  0  0
  6 24  1  0  0  0
  7 13  1  0  0  0
  7 25  1  0  0  0
  7 26  1  0  0  0
  8  9  1  0  0  0
  9 10  1  0  0  0
  9 11  1  0  0  0
  9 14  2  0  0  0
 10 12  1  0  0  0
 12 15  1  0  0  0
 12 27  1  0  0  0
 12 28  1  0  0  0
 13 29  1  0  0  0
 15 16  1  0  0  0
 15 20  1  0  0  0
 15 30  1  0  0  0
 16 17  1  0  0  0
 16 31  1  0  0  0
 16 32  1  0  0  0
 17 18  1  0  0  0
 17 33  1  0  0  0
 17 34  1  0  0  0
 18 19  1  0  0  0
 18 35  1  0  0  0
 18 36  1  0  0  0
 19 20  1  0  0  0
 19 37  1  0  0  0
 19 38  1  0  0  0
 20 39  1  0  0  0
 20 40  1  0  0  0
M  CHG  1  11  -1
M  END
> <s_m_source_file>
../1o4i_ligand.sdf

> <i_m_source_file_index>
1

> <s_epik_input>
W09IXVtDSDJdYzFbY0hdW2NIXVtjSF1bY0hdYzFPW1BAQF0oPU8pKFtPSF0pT1tDSDJdW0NIXTJbQ0gyXVtDSDJdW0NIMl1bQ0gyXVtDSDJdMg==

> <s_epik_cmdline>
J2VwaWtfYXBwJywgJy1pbWFlJywgJ2xpZ2FuZF9wcm8ubWFlJywgJy1vbWFlJywgJ2xpZ2FuZF9wcmVwLm1hZScsICctbXMnLCAnMScsICctcGgnLCAnNycsICctcGh0JywgJzAuNScsICctbnQn

> <r_lp_tautomer_probability>
1

> <r_epik_Ionization_Penalty>
  0.0000

> <r_epik_Ionization_Penalty_Charging>
  0.0000

> <r_epik_Ionization_Penalty_Neutral>
  0.0000

> <r_epik_State_Penalty>
 -0.0000

> <r_epik_Charging_Adjusted_Penalty>
1.87412729851678e-06

> <i_epik_Tot_Q>
-1

> <i_epik_Tot_abs_Q>
1

$$$$
