1o4j_ligand
                    3D
 Schrodinger Suite 2020-3.
 25 25  0  0  1  0            999 V2000
   21.7570   32.4490   16.3470 C   0  0  0  0  0  0
   20.6130   32.8340   17.1460 C   0  0  0  0  0  0
   19.4720   31.9850   17.2430 C   0  0  0  0  0  0
   19.5130   30.6620   16.6520 C   0  0  0  0  0  0
   20.7170   30.2180   16.0540 C   0  0  0  0  0  0
   21.8440   31.0750   15.9460 C   0  0  0  0  0  0
   18.3580   29.8120   16.6040 N   0  0  0  0  0  0
   17.1160   30.2680   17.0430 C   0  0  0  0  0  0
   17.0760   31.1770   17.8170 O   0  0  0  0  0  0
   15.9250   28.9850   17.2550 P   0  0  0  0  0  0
   14.3950   29.5520   16.7260 O   0  5  0  0  0  0
   15.9300   28.5900   18.6860 O   0  5  0  0  0  0
   16.3060   27.9070   16.4040 O   0  0  0  0  0  0
   23.0150   33.2810   16.4030 C   0  0  0  0  0  0
   22.6800   34.8080   16.2980 C   0  0  0  0  0  0
   20.6241   33.7843   17.6798 H   0  0  0  0  0  0
   18.5748   32.3283   17.7581 H   0  0  0  0  0  0
   20.7800   29.2000   15.6696 H   0  0  0  0  0  0
   22.7836   30.6850   15.5548 H   0  0  0  0  0  0
   18.4458   28.7860   16.2171 H   0  0  0  0  0  0
   23.5339   33.0974   17.3554 H   0  0  0  0  0  0
   23.6745   33.0052   15.5670 H   0  0  0  0  0  0
   23.6115   35.3915   16.3411 H   0  0  0  0  0  0
   22.0264   35.0983   17.1338 H   0  0  0  0  0  0
   22.1670   35.0061   15.3454 H   0  0  0  0  0  0
  1  2  2  0  0  0
  1  6  1  0  0  0
  1 14  1  0  0  0
  2  3  1  0  0  0
  2 16  1  0  0  0
  3  4  2  0  0  0
  3 17  1  0  0  0
  4  5  1  0  0  0
  4  7  1  0  0  0
  5  6  2  0  0  0
  5 18  1  0  0  0
  6 19  1  0  0  0
  7  8  1  0  0  0
  7 20  1  0  0  0
  8  9  2  0  0  0
  8 10  1  0  0  0
 10 11  1  0  0  0
 10 12  1  0  0  0
 10 13  2  0  0  0
 14 15  1  0  0  0
 14 21  1  0  0  0
 14 22  1  0  0  0
 15 23  1  0  0  0
 15 24  1  0  0  0
 15 25  1  0  0  0
M  CHG  2  11  -1  12  -1
M  END
> <s_m_source_file>
../1o4j_ligand.sdf

> <i_m_source_file_index>
1

> <s_epik_input>
W0NIM11bQ0gyXWMxW2NIXVtjSF1jKFtjSF1bY0hdMSlbTkhdQyg9TylQKD1PKShbT0hdKVtPSF0=

> <s_epik_cmdline>
J2VwaWtfYXBwJywgJy1pbWFlJywgJ2xpZ2FuZF9wcm8ubWFlJywgJy1vbWFlJywgJ2xpZ2FuZF9wcmVwLm1hZScsICctbXMnLCAnMScsICctcGgnLCAnNycsICctcGh0JywgJzAuNScsICctbnQn

> <r_lp_tautomer_probability>
1

> <r_epik_Ionization_Penalty>
  0.1136

> <r_epik_Ionization_Penalty_Charging>
  0.0771

> <r_epik_Ionization_Penalty_Neutral>
  0.0364

> <r_epik_State_Penalty>
 -0.0000

> <r_epik_Charging_Adjusted_Penalty>
0.0771432675495776

> <i_epik_Tot_Q>
-2

> <i_epik_Tot_abs_Q>
2

$$$$
