1o4k_ligand
                    3D
 Schrodinger Suite 2020-3.
 34 35  0  0  1  0            999 V2000
   18.2550   26.2210   20.8860 C   0  0  0  0  0  0
   18.2980   24.8480   20.5000 C   0  0  0  0  0  0
   17.4090   24.3740   19.4840 C   0  0  0  0  0  0
   16.4800   25.2360   18.8090 C   0  0  0  0  0  0
   16.4360   26.5960   19.2320 C   0  0  0  0  0  0
   17.2920   27.1030   20.2940 C   0  0  0  0  0  0
   15.6070   24.6710   17.7140 C   0  0  0  0  0  0
   15.4480   27.4150   18.5870 O   0  0  0  0  0  0
   15.8280   28.2790   17.2910 P   0  0  2  0  0  0
   16.5510   29.5990   17.5800 O   0  0  0  0  0  0
   14.4590   28.7830   16.7490 O   0  5  0  0  0  0
   17.5610   29.8470   18.6300 C   0  0  0  0  0  0
   18.9590   29.1280   18.4410 C   0  0  0  0  0  0
   20.0200   29.4700   19.3790 C   0  0  0  0  0  0
   21.3110   28.8980   19.1550 C   0  0  0  0  0  0
   21.5380   27.9940   18.0290 C   0  0  0  0  0  0
   20.4460   27.5500   17.1990 C   0  0  0  0  0  0
   19.1590   28.1350   17.3870 C   0  0  0  0  0  0
   16.5240   27.4650   16.1870 O   0  0  0  0  0  0
   15.7700   24.8240   16.3820 O   0  0  0  0  0  0
   18.9546   26.5995   21.6313 H   0  0  0  0  0  0
   19.0026   24.1656   20.9754 H   0  0  0  0  0  0
   17.4381   23.3188   19.2122 H   0  0  0  0  0  0
   17.2027   28.1350   20.6334 H   0  0  0  0  0  0
   15.5979   23.5731   17.7821 H   0  0  0  0  0  0
   14.5821   25.0539   17.8278 H   0  0  0  0  0  0
   17.7789   30.9239   18.6821 H   0  0  0  0  0  0
   17.1729   29.5041   19.6005 H   0  0  0  0  0  0
   19.8363   30.1376   20.2208 H   0  0  0  0  0  0
   22.1329   29.1380   19.8295 H   0  0  0  0  0  0
   22.5495   27.6499   17.8133 H   0  0  0  0  0  0
   20.6012   26.7814   16.4418 H   0  0  0  0  0  0
   18.3269   27.8425   16.7466 H   0  0  0  0  0  0
   15.0592   24.3580   15.6838 H   0  0  0  0  0  0
  1  2  2  0  0  0
  1  6  1  0  0  0
  1 21  1  0  0  0
  2  3  1  0  0  0
  2 22  1  0  0  0
  3  4  2  0  0  0
  3 23  1  0  0  0
  4  5  1  0  0  0
  4  7  1  0  0  0
  5  6  2  0  0  0
  5  8  1  0  0  0
  6 24  1  0  0  0
  7 20  1  0  0  0
  7 25  1  0  0  0
  7 26  1  0  0  0
  8  9  1  0  0  0
  9 10  1  0  0  0
  9 11  1  0  0  0
  9 19  2  0  0  0
 10 12  1  0  0  0
 12 13  1  0  0  0
 12 27  1  0  0  0
 12 28  1  0  0  0
 13 14  2  0  0  0
 13 18  1  0  0  0
 14 15  1  0  0  0
 14 29  1  0  0  0
 15 16  2  0  0  0
 15 30  1  0  0  0
 16 17  1  0  0  0
 16 31  1  0  0  0
 17 18  2  0  0  0
 17 32  1  0  0  0
 18 33  1  0  0  0
 20 34  1  0  0  0
M  CHG  1  11  -1
M  END
> <s_m_source_file>
../1o4k_ligand.sdf

> <i_m_source_file_index>
1

> <s_epik_input>
W09IXVtDSDJdYzFbY0hdW2NIXVtjSF1bY0hdYzFPW1BAQF0oPU8pKFtPSF0pT1tDSDJdYzJbY0hdW2NIXVtjSF1bY0hdW2NIXTI=

> <s_epik_cmdline>
J2VwaWtfYXBwJywgJy1pbWFlJywgJ2xpZ2FuZF9wcm8ubWFlJywgJy1vbWFlJywgJ2xpZ2FuZF9wcmVwLm1hZScsICctbXMnLCAnMScsICctcGgnLCAnNycsICctcGh0JywgJzAuNScsICctbnQn

> <r_lp_tautomer_probability>
1

> <r_epik_Ionization_Penalty>
  0.0000

> <r_epik_Ionization_Penalty_Charging>
  0.0000

> <r_epik_Ionization_Penalty_Neutral>
  0.0000

> <r_epik_State_Penalty>
 -0.0000

> <r_epik_Charging_Adjusted_Penalty>
1.31918637526142e-06

> <i_epik_Tot_Q>
-1

> <i_epik_Tot_abs_Q>
1

$$$$
