1o4l_ligand
                    3D
 Schrodinger Suite 2020-3.
 18 17  0  0  1  0            999 V2000
   15.2200   28.7550   17.7270 C   0  0  0  0  0  0
   14.5170   28.5700   16.6050 O   0  5  0  0  0  0
   14.8940   28.3450   18.8290 O   0  0  0  0  0  0
   16.4970   29.5970   17.5930 C   0  0  0  0  0  0
   17.5950   28.6730   17.0620 C   0  0  0  0  0  0
   17.6300   27.5480   17.9420 O   0  0  0  0  0  0
   18.8300   29.6540   17.1360 C   0  0  0  0  0  0
   20.1450   29.0290   16.5860 C   0  0  0  0  0  0
   21.2650   29.4800   16.9030 O   0  0  0  0  0  0
   20.0690   27.9750   15.7340 O   0  5  0  0  0  0
   17.3640   28.2000   15.6890 C   0  0  0  0  0  0
   17.3380   29.1900   14.7920 O   0  5  0  0  0  0
   16.9790   27.0780   15.3980 O   0  0  0  0  0  0
   16.3175   30.4265   16.8932 H   0  0  0  0  0  0
   16.7745   30.0015   18.5776 H   0  0  0  0  0  0
   17.7937   27.6974   19.0194 H   0  0  0  0  0  0
   18.6180   30.5558   16.5429 H   0  0  0  0  0  0
   19.0105   29.9380   18.1833 H   0  0  0  0  0  0
  1  2  1  0  0  0
  1  3  2  0  0  0
  1  4  1  0  0  0
  4  5  1  0  0  0
  4 14  1  0  0  0
  4 15  1  0  0  0
  5  6  1  0  0  0
  5  7  1  0  0  0
  5 11  1  0  0  0
  6 16  1  0  0  0
  7  8  1  0  0  0
  7 17  1  0  0  0
  7 18  1  0  0  0
  8  9  2  0  0  0
  8 10  1  0  0  0
 11 12  1  0  0  0
 11 13  2  0  0  0
M  CHG  3   2  -1  10  -1  12  -1
M  END
> <s_m_source_file>
../1o4l_ligand.sdf

> <i_m_source_file_index>
1

> <s_epik_input>
W09IXUMoPU8pW0NIMl1DKFtPSF0pKEMoPU8pW09IXSlbQ0gyXUMoPU8pW09IXQ==

> <s_epik_cmdline>
J2VwaWtfYXBwJywgJy1pbWFlJywgJ2xpZ2FuZF9wcm8ubWFlJywgJy1vbWFlJywgJ2xpZ2FuZF9wcmVwLm1hZScsICctbXMnLCAnMScsICctcGgnLCAnNycsICctcGh0JywgJzAuNScsICctbnQn

> <r_lp_tautomer_probability>
1

> <r_epik_Ionization_Penalty>
  0.0046

> <r_epik_Ionization_Penalty_Charging>
  0.0046

> <r_epik_Ionization_Penalty_Neutral>
  0.0000

> <r_epik_State_Penalty>
 -0.0000

> <r_epik_Charging_Adjusted_Penalty>
0.0045906918398983

> <i_epik_Tot_Q>
-3

> <i_epik_Tot_abs_Q>
3

$$$$
