1o4m_ligand
                    3D
 Schrodinger Suite 2020-3.
  9  8  0  0  1  0            999 V2000
   15.2370   28.6760   17.6000 C   0  0  0  0  0  0
   15.0440   28.3250   18.8650 O   0  5  0  0  0  0
   14.3330   28.8070   16.8260 O   0  0  0  0  0  0
   16.6990   28.9370   17.2790 C   0  0  0  0  0  0
   17.4570   27.6520   16.9270 C   0  0  0  0  0  0
   17.7230   27.2710   15.6590 O   0  5  0  0  0  0
   17.9020   26.9620   17.7940 O   0  0  0  0  0  0
   16.7694   29.6198   16.4194 H   0  0  0  0  0  0
   17.1901   29.3935   18.1510 H   0  0  0  0  0  0
  1  2  1  0  0  0
  1  3  2  0  0  0
  1  4  1  0  0  0
  4  5  1  0  0  0
  4  8  1  0  0  0
  4  9  1  0  0  0
  5  6  1  0  0  0
  5  7  2  0  0  0
M  CHG  2   2  -1   6  -1
M  END
> <s_m_source_file>
../1o4m_ligand.sdf

> <i_m_source_file_index>
1

> <s_epik_input>
W09IXUMoPU8pW0NIMl1DKD1PKVtPSF0=

> <s_epik_cmdline>
J2VwaWtfYXBwJywgJy1pbWFlJywgJ2xpZ2FuZF9wcm8ubWFlJywgJy1vbWFlJywgJ2xpZ2FuZF9wcmVwLm1hZScsICctbXMnLCAnMScsICctcGgnLCAnNycsICctcGh0JywgJzAuNScsICctbnQn

> <r_epik_Ionization_Penalty>
  0.0207

> <r_epik_Ionization_Penalty_Charging>
  0.0207

> <r_epik_Ionization_Penalty_Neutral>
  0.0000

> <r_epik_State_Penalty>
  0.0166

> <r_epik_Charging_Adjusted_Penalty>
0.0372279035317034

> <i_epik_Tot_Q>
-2

> <i_epik_Tot_abs_Q>
2

$$$$
