1o4n_ligand
                    3D
 Schrodinger Suite 2020-3.
  6  5  0  0  1  0            999 V2000
   15.1570   28.5040   17.9410 C   0  0  0  0  0  0
   16.6000   28.3120   17.4930 C   0  0  0  0  0  0
   15.0390   28.1190   19.1740 O   0  5  0  0  0  0
   17.4950   28.2440   18.3880 O   0  5  0  0  0  0
   14.3100   28.7370   17.0430 O   0  0  0  0  0  0
   16.8690   28.0340   16.3790 O   0  0  0  0  0  0
  1  2  1  0  0  0
  1  3  1  0  0  0
  1  5  2  0  0  0
  2  4  1  0  0  0
  2  6  2  0  0  0
M  CHG  2   3  -1   4  -1
M  END
> <s_m_source_file>
../1o4n_ligand.sdf

> <i_m_source_file_index>
1

> <s_epik_input>
W09IXUMoPU8pQyg9TylbT0hd

> <s_epik_cmdline>
J2VwaWtfYXBwJywgJy1pbWFlJywgJ2xpZ2FuZF9wcm8ubWFlJywgJy1vbWFlJywgJ2xpZ2FuZF9wcmVwLm1hZScsICctbXMnLCAnMScsICctcGgnLCAnNycsICctcGh0JywgJzAuNScsICctbnQn

> <r_epik_Ionization_Penalty>
  0.0138

> <r_epik_Ionization_Penalty_Charging>
  0.0138

> <r_epik_Ionization_Penalty_Neutral>
  0.0000

> <r_epik_State_Penalty>
  0.0108

> <r_epik_Charging_Adjusted_Penalty>
0.0246500087683109

> <i_epik_Tot_Q>
-2

> <i_epik_Tot_abs_Q>
2

$$$$
