1o4o_ligand
                    3D
 Schrodinger Suite 2020-3.
 16 16  0  0  1  0            999 V2000
   18.2230   15.5580   31.4990 C   0  0  0  0  0  0
   18.6700   15.5900   30.1050 C   0  0  0  0  0  0
   18.5480   16.6960   29.3360 C   0  0  0  0  0  0
   18.0280   17.8130   29.9800 C   0  0  0  0  0  0
   17.6850   17.8110   31.3730 C   0  0  0  0  0  0
   17.6760   16.6320   32.1560 C   0  0  0  0  0  0
   17.3970   19.0830   31.9390 O   0  0  0  0  0  0
   18.5160   20.2470   32.5240 P   0  0  0  0  0  0
   17.8170   21.4550   33.1870 O   0  0  0  0  0  0
   19.3900   20.6690   31.2590 O   0  5  0  0  0  0
   19.4160   19.4700   33.5310 O   0  5  0  0  0  0
   18.3313   14.6233   32.0492 H   0  0  0  0  0  0
   19.1154   14.6938   29.6731 H   0  0  0  0  0  0
   18.8371   16.7105   28.2851 H   0  0  0  0  0  0
   17.8750   18.7257   29.4042 H   0  0  0  0  0  0
   17.2783   16.5823   33.1696 H   0  0  0  0  0  0
  1  2  2  0  0  0
  1  6  1  0  0  0
  1 12  1  0  0  0
  2  3  1  0  0  0
  2 13  1  0  0  0
  3  4  2  0  0  0
  3 14  1  0  0  0
  4  5  1  0  0  0
  4 15  1  0  0  0
  5  6  2  0  0  0
  5  7  1  0  0  0
  6 16  1  0  0  0
  7  8  1  0  0  0
  8  9  2  0  0  0
  8 10  1  0  0  0
  8 11  1  0  0  0
M  CHG  2  10  -1  11  -1
M  END
> <s_m_source_file>
../1o4o_ligand.sdf

> <i_m_source_file_index>
1

> <s_epik_input>
W2NIXTFbY0hdW2NIXVtjSF1bY0hdYzFPUCg9TykoW09IXSlbT0hd

> <s_epik_cmdline>
J2VwaWtfYXBwJywgJy1pbWFlJywgJ2xpZ2FuZF9wcm8ubWFlJywgJy1vbWFlJywgJ2xpZ2FuZF9wcmVwLm1hZScsICctbXMnLCAnMScsICctcGgnLCAnNycsICctcGh0JywgJzAuNScsICctbnQn

> <r_epik_Ionization_Penalty>
  0.0734

> <r_epik_Ionization_Penalty_Charging>
  0.0734

> <r_epik_Ionization_Penalty_Neutral>
  0.0000

> <r_epik_State_Penalty>
  0.0645

> <r_epik_Charging_Adjusted_Penalty>
0.137901573633237

> <i_epik_Tot_Q>
-2

> <i_epik_Tot_abs_Q>
2

$$$$
