1o4q_ligand
                    3D
 Schrodinger Suite 2020-3.
 20 20  0  0  1  0            999 V2000
   19.2570   25.6420   20.2430 C   0  0  0  0  0  0
   18.2100   24.7790   19.9800 C   0  0  0  0  0  0
   17.2820   25.1710   19.0340 C   0  0  0  0  0  0
   17.4230   26.4420   18.4450 C   0  0  0  0  0  0
   18.5210   27.2830   18.6850 C   0  0  0  0  0  0
   19.4480   26.8930   19.6280 C   0  0  0  0  0  0
   16.3750   26.9920   17.5700 C   0  0  2  0  0  0
   16.8680   27.1890   16.0860 C   0  0  0  0  0  0
   16.4340   26.0580   15.3950 O   0  5  0  0  0  0
   15.4940   28.4450   18.0420 S   0  0  0  0  0  0
   14.4060   28.5190   16.8500 O   0  5  0  0  0  0
   17.4130   28.1450   15.5810 O   0  0  0  0  0  0
   16.3730   29.6100   17.9990 O   0  0  0  0  0  0
   14.9320   28.2490   19.3570 O   0  0  0  0  0  0
   19.9920   25.3291   20.9846 H   0  0  0  0  0  0
   18.1196   23.8249   20.4993 H   0  0  0  0  0  0
   16.4610   24.5123   18.7508 H   0  0  0  0  0  0
   18.6376   28.2198   18.1401 H   0  0  0  0  0  0
   20.2950   27.5284   19.8868 H   0  0  0  0  0  0
   15.8123   26.0541   17.6868 H   0  0  0  0  0  0
  1  2  2  0  0  0
  1  6  1  0  0  0
  1 15  1  0  0  0
  2  3  1  0  0  0
  2 16  1  0  0  0
  3  4  2  0  0  0
  3 17  1  0  0  0
  4  5  1  0  0  0
  4  7  1  0  0  0
  5  6  2  0  0  0
  5 18  1  0  0  0
  6 19  1  0  0  0
  7  8  1  0  0  0
  7 10  1  0  0  0
  7 20  1  0  0  0
  8  9  1  0  0  0
  8 12  2  0  0  0
 10 11  1  0  0  0
 10 13  2  0  0  0
 10 14  2  0  0  0
M  CHG  2   9  -1  11  -1
M  END
> <s_m_source_file>
../1o4q_ligand.sdf

> <i_m_source_file_index>
1

> <s_epik_input>
W2NIXTFbY0hdW2NIXVtjSF1bY0hdYzFbQ0BIXShDKD1PKVtPSF0pUyg9TykoPU8pW09IXQ==

> <s_epik_cmdline>
J2VwaWtfYXBwJywgJy1pbWFlJywgJ2xpZ2FuZF9wcm8ubWFlJywgJy1vbWFlJywgJ2xpZ2FuZF9wcmVwLm1hZScsICctbXMnLCAnMScsICctcGgnLCAnNycsICctcGh0JywgJzAuNScsICctbnQn

> <r_lp_tautomer_probability>
1

> <r_epik_Ionization_Penalty>
  0.0003

> <r_epik_Ionization_Penalty_Charging>
  0.0003

> <r_epik_Ionization_Penalty_Neutral>
  0.0000

> <r_epik_State_Penalty>
 -0.0000

> <r_epik_Charging_Adjusted_Penalty>
0.00026164163225133

> <i_epik_Tot_Q>
-2

> <i_epik_Tot_abs_Q>
2

$$$$
