1o4r_ligand
                    3D
 Schrodinger Suite 2020-3.
 22 22  0  0  1  0            999 V2000
   17.7510   24.3380   19.0420 C   0  0  0  0  0  0
   16.8780   24.5730   17.9680 C   0  0  0  0  0  0
   16.7790   25.8440   17.3440 C   0  0  0  0  0  0
   17.5680   26.9100   17.9400 C   0  0  0  0  0  0
   18.5390   26.6550   18.9480 C   0  0  0  0  0  0
   18.5760   25.3540   19.5640 C   0  0  0  0  0  0
   17.3880   28.1970   17.4250 C   0  0  2  0  0  0
   15.7620   28.8800   17.5740 P   0  0  0  0  0  0
   18.1680   28.5460   15.7620 P   0  0  0  0  0  0
   17.5620   29.8300   15.2340 O   0  5  0  0  0  0
   17.7690   27.4930   14.8120 O   0  5  0  0  0  0
   19.6030   28.5850   15.9500 O   0  0  0  0  0  0
   16.0020   30.5080   17.3520 O   0  5  0  0  0  0
   15.2820   28.6420   18.9650 O   0  0  0  0  0  0
   14.8300   28.4360   16.5890 O   0  0  0  0  0  0
   17.7917   23.3425   19.4841 H   0  0  0  0  0  0
   16.2576   23.7548   17.6023 H   0  0  0  0  0  0
   16.1491   26.0109   16.4702 H   0  0  0  0  0  0
   19.2428   27.4311   19.2488 H   0  0  0  0  0  0
   19.2280   25.1594   20.4155 H   0  0  0  0  0  0
   17.9849   28.4255   18.3203 H   0  0  0  0  0  0
   15.9065   28.9385   19.8206 H   0  0  0  0  0  0
  1  2  2  0  0  0
  1  6  1  0  0  0
  1 16  1  0  0  0
  2  3  1  0  0  0
  2 17  1  0  0  0
  3  4  2  0  0  0
  3 18  1  0  0  0
  4  5  1  0  0  0
  4  7  1  0  0  0
  5  6  2  0  0  0
  5 19  1  0  0  0
  6 20  1  0  0  0
  7  8  1  0  0  0
  7  9  1  0  0  0
  7 21  1  0  0  0
  8 13  1  0  0  0
  8 14  1  0  0  0
  8 15  2  0  0  0
  9 10  1  0  0  0
  9 11  1  0  0  0
  9 12  2  0  0  0
 14 22  1  0  0  0
M  CHG  3  10  -1  11  -1  13  -1
M  END
> <s_m_source_file>
../1o4r_ligand.sdf

> <i_m_source_file_index>
1

> <s_epik_input>
W2NIXTFbY0hdW2NIXVtjSF1bY0hdYzFbQ0hdKFAoPU8pKFtPSF0pW09IXSlQKD1PKShbT0hdKVtPSF0=

> <s_epik_cmdline>
J2VwaWtfYXBwJywgJy1pbWFlJywgJ2xpZ2FuZF9wcm8ubWFlJywgJy1vbWFlJywgJ2xpZ2FuZF9wcmVwLm1hZScsICctbXMnLCAnMScsICctcGgnLCAnNycsICctcGh0JywgJzAuNScsICctbnQn

> <r_epik_Ionization_Penalty>
  0.1893

> <r_epik_Ionization_Penalty_Charging>
  0.1892

> <r_epik_Ionization_Penalty_Neutral>
  0.0000

> <r_epik_State_Penalty>
  0.1788

> <r_epik_Charging_Adjusted_Penalty>
0.368060187737877

> <i_epik_Tot_Q>
-3

> <i_epik_Tot_abs_Q>
3

$$$$
