1o5c_ligand
                    3D
 Schrodinger Suite 2020-3.
 52 55  0  0  1  0            999 V2000
    9.0020    1.4910   24.6770 C   0  0  0  0  0  0
    9.8640    1.3400   23.5390 C   0  0  0  0  0  0
   10.1700    0.1120   23.0300 F   0  0  0  0  0  0
   10.4530    2.4210   22.8940 C   0  0  0  0  0  0
   10.1720    3.6340   23.4030 C   0  0  0  0  0  0
    9.3730    3.8380   24.4630 C   0  0  0  0  0  0
    8.7640    2.8120   25.1330 C   0  0  0  0  0  0
    8.4260    0.3820   25.3370 C   0  0  0  0  0  0
    8.1470    0.4560   26.6070 N   0  3  0  0  0  0
    8.1560   -0.7490   24.7410 N   0  0  0  0  0  0
   10.5870    4.7790   23.0070 N   0  0  0  0  0  0
    9.2530    5.1110   24.7770 N   0  3  0  0  0  0
   10.0320    5.6180   23.8310 C   0  0  0  0  0  0
   10.2680    7.0030   23.7360 C   0  0  0  0  0  0
    9.8850    7.8860   24.7700 C   0  0  0  0  0  0
   10.1310    9.2490   24.7030 C   0  0  0  0  0  0
   10.7630    9.7800   23.5950 C   0  0  0  0  0  0
   11.1590    8.9310   22.5420 C   0  0  0  0  0  0
   10.9110    7.5780   22.6150 C   0  0  0  0  0  0
   11.3330    6.8450   21.5280 O   0  0  0  0  0  0
   11.8250    9.3430   21.3970 O   0  0  0  0  0  0
   12.1860   11.6150   20.7560 C   0  0  2  0  0  0
   13.0180   11.7970   19.4910 C   0  0  0  0  0  0
   14.4610   12.1430   19.8460 C   0  0  0  0  0  0
   14.9590   11.3970   21.0940 C   0  0  0  0  0  0
   14.1580   10.0860   21.2660 C   0  0  0  0  0  0
   12.7110   10.4360   21.5990 C   0  0  2  0  0  0
   10.7240   11.3220   20.3660 C   0  0  0  0  0  0
   11.1031    2.2937   22.0284 H   0  0  0  0  0  0
    8.1172    3.0041   25.9891 H   0  0  0  0  0  0
    8.3523    1.3832   27.1621 H   0  0  0  0  0  0
    8.3699   -0.8705   23.6689 H   0  0  0  0  0  0
    7.7148   -1.5796   25.3114 H   0  0  0  0  0  0
    9.3802    7.4832   25.6481 H   0  0  0  0  0  0
    9.8265    9.9000   25.5225 H   0  0  0  0  0  0
   10.9546   10.8514   23.5355 H   0  0  0  0  0  0
   11.1746    5.7567   21.5035 H   0  0  0  0  0  0
   12.2616   12.5437   21.3406 H   0  0  0  0  0  0
   13.0072   10.8644   18.9077 H   0  0  0  0  0  0
   12.5932   12.6122   18.8869 H   0  0  0  0  0  0
   15.1196   11.8739   19.0070 H   0  0  0  0  0  0
   14.5413   13.2221   20.0437 H   0  0  0  0  0  0
   16.0272   11.1611   20.9783 H   0  0  0  0  0  0
   14.8177   12.0316   21.9813 H   0  0  0  0  0  0
   14.1965    9.5075   20.3312 H   0  0  0  0  0  0
   14.5960    9.4931   22.0824 H   0  0  0  0  0  0
   12.6828   10.6429   22.6790 H   0  0  0  0  0  0
   10.3316   12.1540   19.7629 H   0  0  0  0  0  0
   10.1169   11.2109   21.2765 H   0  0  0  0  0  0
   10.6801   10.3919   19.7803 H   0  0  0  0  0  0
    8.6244    5.4105   25.6286 H   0  0  0  0  0  0
    7.7060   -0.4087   27.1245 H   0  0  0  0  0  0
  1  2  2  0  0  0
  1  7  1  0  0  0
  1  8  1  0  0  0
  2  3  1  0  0  0
  2  4  1  0  0  0
  4  5  2  0  0  0
  4 29  1  0  0  0
  5  6  1  0  0  0
  5 11  1  0  0  0
  6  7  2  0  0  0
  6 12  1  0  0  0
  7 30  1  0  0  0
  8  9  2  0  0  0
  8 10  1  0  0  0
  9 31  1  0  0  0
  9 52  1  0  0  0
 10 32  1  0  0  0
 10 33  1  0  0  0
 11 13  2  0  0  0
 12 13  1  0  0  0
 12 51  1  0  0  0
 13 14  1  0  0  0
 14 15  2  0  0  0
 14 19  1  0  0  0
 15 16  1  0  0  0
 15 34  1  0  0  0
 16 17  2  0  0  0
 16 35  1  0  0  0
 17 18  1  0  0  0
 17 36  1  0  0  0
 18 19  2  0  0  0
 18 21  1  0  0  0
 19 20  1  0  0  0
 20 37  1  0  0  0
 21 27  1  0  0  0
 22 23  1  0  0  0
 22 27  1  0  0  0
 22 28  1  0  0  0
 22 38  1  0  0  0
 23 24  1  0  0  0
 23 39  1  0  0  0
 23 40  1  0  0  0
 24 25  1  0  0  0
 24 41  1  0  0  0
 24 42  1  0  0  0
 25 26  1  0  0  0
 25 43  1  0  0  0
 25 44  1  0  0  0
 26 27  1  0  0  0
 26 45  1  0  0  0
 26 46  1  0  0  0
 27 47  1  0  0  0
 28 48  1  0  0  0
 28 49  1  0  0  0
 28 50  1  0  0  0
M  CHG  2   9   1  12   1
M  END
> <s_m_source_file>
../1o5c_ligand.sdf

> <i_m_source_file_index>
1

> <s_epik_input>
W0hdXE49QyhbTkgyXSlcYyhjKEYpW2NIXTEpW2NIXWMoYzEyKVtuSF1jKG4yKS1jM1tjSF1bY0hdW2NIXWMoYzNbT0hdKU9bQ0BIXTRbQ0gyXVtDSDJdW0NIMl1bQ0gyXVtDQEhdNFtDSDNd

> <s_epik_cmdline>
J2VwaWtfYXBwJywgJy1pbWFlJywgJ2xpZ2FuZF9wcm8ubWFlJywgJy1vbWFlJywgJ2xpZ2FuZF9wcmVwLm1hZScsICctbXMnLCAnMScsICctcGgnLCAnNycsICctcGh0JywgJzAuNScsICctbnQn

> <r_epik_Ionization_Penalty>
  0.0012

> <r_epik_Ionization_Penalty_Charging>
  0.0003

> <r_epik_Ionization_Penalty_Neutral>
  0.0009

> <r_epik_State_Penalty>
  0.3843

> <r_epik_Charging_Adjusted_Penalty>
0.384570490962121

> <i_epik_Tot_Q>
2

> <i_epik_Tot_abs_Q>
2

> <s_epik_Chemistry_Notes>
This compound has an imine and may undergo hydrolysis.

$$$$
