1o5f_ligand
                    3D
 Schrodinger Suite 2020-3.
 52 55  0  0  1  0            999 V2000
   16.3690   -6.1780   25.3860 C   0  0  0  0  0  0
   15.4850   -5.1350   24.8890 C   0  0  0  0  0  0
   15.0230   -5.1330   23.6260 F   0  0  0  0  0  0
   15.0810   -4.0570   25.6650 C   0  0  0  0  0  0
   15.5690   -4.0300   26.9250 C   0  0  0  0  0  0
   16.3940   -4.9650   27.4370 C   0  0  0  0  0  0
   16.8210   -6.0480   26.7190 C   0  0  0  0  0  0
   16.7570   -7.2920   24.5990 C   0  0  0  0  0  0
   17.8610   -7.9480   24.8430 N   0  3  0  0  0  0
   16.0220   -7.7060   23.5950 N   0  0  0  0  0  0
   15.3600   -3.1730   27.8500 N   0  0  0  0  0  0
   16.7320   -4.7190   28.6870 N   0  3  0  0  0  0
   16.0550   -3.5960   28.8610 C   0  0  0  0  0  0
   16.1060   -2.8990   30.0850 C   0  0  0  0  0  0
   17.0520   -3.2260   31.0720 C   0  0  0  0  0  0
   17.1080   -2.5440   32.2760 C   0  0  0  0  0  0
   16.2160   -1.5070   32.5450 C   0  0  0  0  0  0
   15.2550   -1.1490   31.5860 C   0  0  0  0  0  0
   15.2130   -1.8420   30.3820 C   0  0  0  0  0  0
   14.2640   -1.4530   29.4750 O   0  0  0  0  0  0
   14.3110   -0.1430   31.7690 O   0  0  0  0  0  0
   13.9530    0.8320   34.0290 C   0  0  2  0  0  0
   12.6090    1.5620   34.0070 C   0  0  0  0  0  0
   12.8220    3.0780   33.8490 C   0  0  0  0  0  0
   13.9670    3.4040   32.8920 C   0  0  0  0  0  0
   14.1680    2.2590   31.8920 C   0  0  0  0  0  0
   14.6430    0.9610   32.6050 C   0  0  2  0  0  0
   13.7090   -0.6540   34.4020 C   0  0  0  0  0  0
   14.4144   -3.2837   25.2833 H   0  0  0  0  0  0
   17.4888   -6.7876   27.1608 H   0  0  0  0  0  0
   18.5117   -7.6395   25.6745 H   0  0  0  0  0  0
   15.0837   -7.1870   23.3495 H   0  0  0  0  0  0
   16.3437   -8.5723   22.9983 H   0  0  0  0  0  0
   17.7580   -4.0352   30.8853 H   0  0  0  0  0  0
   17.8557   -2.8203   33.0194 H   0  0  0  0  0  0
   16.2644   -0.9763   33.4959 H   0  0  0  0  0  0
   14.1861   -1.9672   28.5057 H   0  0  0  0  0  0
   14.5973    1.2818   34.7988 H   0  0  0  0  0  0
   12.0066    1.1958   33.1626 H   0  0  0  0  0  0
   12.0734    1.3726   34.9489 H   0  0  0  0  0  0
   11.9046    3.5378   33.4528 H   0  0  0  0  0  0
   13.0597    3.5189   34.8283 H   0  0  0  0  0  0
   13.7320    4.3258   32.3396 H   0  0  0  0  0  0
   14.8948    3.5467   33.4654 H   0  0  0  0  0  0
   13.2176    2.0485   31.3798 H   0  0  0  0  0  0
   14.9276    2.5485   31.1509 H   0  0  0  0  0  0
   15.7382    0.9134   32.6964 H   0  0  0  0  0  0
   13.2311   -0.7100   35.3912 H   0  0  0  0  0  0
   14.6703   -1.1880   34.4284 H   0  0  0  0  0  0
   13.0525   -1.1175   33.6509 H   0  0  0  0  0  0
   17.4039   -5.4073   29.2207 H   0  0  0  0  0  0
   18.1393   -8.8085   24.2168 H   0  0  0  0  0  0
  1  2  2  0  0  0
  1  7  1  0  0  0
  1  8  1  0  0  0
  2  3  1  0  0  0
  2  4  1  0  0  0
  4  5  2  0  0  0
  4 29  1  0  0  0
  5  6  1  0  0  0
  5 11  1  0  0  0
  6  7  2  0  0  0
  6 12  1  0  0  0
  7 30  1  0  0  0
  8  9  2  0  0  0
  8 10  1  0  0  0
  9 31  1  0  0  0
  9 52  1  0  0  0
 10 32  1  0  0  0
 10 33  1  0  0  0
 11 13  2  0  0  0
 12 13  1  0  0  0
 12 51  1  0  0  0
 13 14  1  0  0  0
 14 15  2  0  0  0
 14 19  1  0  0  0
 15 16  1  0  0  0
 15 34  1  0  0  0
 16 17  2  0  0  0
 16 35  1  0  0  0
 17 18  1  0  0  0
 17 36  1  0  0  0
 18 19  2  0  0  0
 18 21  1  0  0  0
 19 20  1  0  0  0
 20 37  1  0  0  0
 21 27  1  0  0  0
 22 23  1  0  0  0
 22 27  1  0  0  0
 22 28  1  0  0  0
 22 38  1  0  0  0
 23 24  1  0  0  0
 23 39  1  0  0  0
 23 40  1  0  0  0
 24 25  1  0  0  0
 24 41  1  0  0  0
 24 42  1  0  0  0
 25 26  1  0  0  0
 25 43  1  0  0  0
 25 44  1  0  0  0
 26 27  1  0  0  0
 26 45  1  0  0  0
 26 46  1  0  0  0
 27 47  1  0  0  0
 28 48  1  0  0  0
 28 49  1  0  0  0
 28 50  1  0  0  0
M  CHG  2   9   1  12   1
M  END
> <s_m_source_file>
../1o5f_ligand.sdf

> <i_m_source_file_index>
1

> <s_epik_input>
W0hdXE49QyhbTkgyXSlcYyhjKEYpW2NIXTEpW2NIXWMoYzEyKVtuSF1jKG4yKS1jM1tjSF1bY0hdW2NIXWMoYzNbT0hdKU9bQ0BIXTRbQ0gyXVtDSDJdW0NIMl1bQ0gyXVtDQEhdNFtDSDNd

> <s_epik_cmdline>
J2VwaWtfYXBwJywgJy1pbWFlJywgJ2xpZ2FuZF9wcm8ubWFlJywgJy1vbWFlJywgJ2xpZ2FuZF9wcmVwLm1hZScsICctbXMnLCAnMScsICctcGgnLCAnNycsICctcGh0JywgJzAuNScsICctbnQn

> <r_epik_Ionization_Penalty>
  0.0012

> <r_epik_Ionization_Penalty_Charging>
  0.0003

> <r_epik_Ionization_Penalty_Neutral>
  0.0009

> <r_epik_State_Penalty>
  0.3843

> <r_epik_Charging_Adjusted_Penalty>
0.384570490962137

> <i_epik_Tot_Q>
2

> <i_epik_Tot_abs_Q>
2

> <s_epik_Chemistry_Notes>
This compound has an imine and may undergo hydrolysis.

$$$$
