1o5g_ligand
                    3D
 Schrodinger Suite 2020-3.
 52 55  0  0  1  0            999 V2000
   11.8230  -11.7600   22.8690 C   0  0  0  0  0  0
   12.4000  -10.5120   22.4960 C   0  0  0  0  0  0
   12.1890   -9.3710   23.2090 F   0  0  0  0  0  0
   13.2330  -10.3900   21.3930 C   0  0  0  0  0  0
   13.4890  -11.5140   20.6660 C   0  0  0  0  0  0
   12.9610  -12.7310   20.9770 C   0  0  0  0  0  0
   12.1200  -12.8870   22.0800 C   0  0  0  0  0  0
   10.9690  -11.8780   23.9930 C   0  0  0  0  0  0
   10.3460  -13.0050   24.2180 N   0  3  0  0  0  0
   10.7760  -10.8740   24.8380 N   0  0  0  0  0  0
   14.2140  -11.7010   19.6210 N   0  0  0  0  0  0
   13.3450  -13.6740   20.1400 N   0  3  0  0  0  0
   14.1280  -12.9760   19.3080 C   0  0  0  0  0  0
   14.8170  -13.5360   18.2150 C   0  0  0  0  0  0
   14.7180  -14.9040   17.9350 C   0  0  0  0  0  0
   15.4060  -15.4600   16.8640 C   0  0  0  0  0  0
   16.1950  -14.6660   16.0530 C   0  0  0  0  0  0
   16.3190  -13.2970   16.3040 C   0  0  0  0  0  0
   15.6230  -12.7270   17.3890 C   0  0  0  0  0  0
   15.7140  -11.3680   17.6510 O   0  0  0  0  0  0
   17.1190  -12.5060   15.4870 O   0  0  0  0  0  0
   18.3140  -12.2050   13.3370 C   0  0  1  0  0  0
   19.3120  -11.0340   13.2760 C   0  0  0  0  0  0
   20.7350  -11.5510   13.5690 C   0  0  0  0  0  0
   20.7700  -12.5380   14.8000 C   0  0  0  0  0  0
   19.4830  -12.4310   15.6530 C   0  0  0  0  0  0
   18.3040  -12.8950   14.7810 C   0  0  1  0  0  0
   16.9210  -11.6870   12.9290 C   0  0  0  0  0  0
   13.6674   -9.4290   21.1177 H   0  0  0  0  0  0
   11.7013  -13.8629   22.3256 H   0  0  0  0  0  0
   10.4854  -13.8563   23.5354 H   0  0  0  0  0  0
   11.2860   -9.9129   24.6759 H   0  0  0  0  0  0
   10.1060  -11.0024   25.7009 H   0  0  0  0  0  0
   14.0946  -15.5395   18.5639 H   0  0  0  0  0  0
   15.3233  -16.5279   16.6621 H   0  0  0  0  0  0
   16.7247  -15.1114   15.2109 H   0  0  0  0  0  0
   15.1665  -10.9338   18.5005 H   0  0  0  0  0  0
   18.6205  -12.9610   12.5991 H   0  0  0  0  0  0
   19.2865  -10.5824   12.2733 H   0  0  0  0  0  0
   19.0363  -10.2778   14.0258 H   0  0  0  0  0  0
   21.1180  -12.0889   12.6893 H   0  0  0  0  0  0
   21.3949  -10.7004   13.7947 H   0  0  0  0  0  0
   20.8614  -13.5727   14.4379 H   0  0  0  0  0  0
   21.6315  -12.2960   15.4397 H   0  0  0  0  0  0
   19.5775  -13.0728   16.5414 H   0  0  0  0  0  0
   19.3379  -11.3872   15.9685 H   0  0  0  0  0  0
   18.3012  -13.9909   14.6858 H   0  0  0  0  0  0
   16.9795  -11.2232   11.9333 H   0  0  0  0  0  0
   16.5782  -10.9413   13.6614 H   0  0  0  0  0  0
   16.2112  -12.5269   12.9012 H   0  0  0  0  0  0
   12.9918  -14.7069   20.2756 H   0  0  0  0  0  0
    9.6824  -13.1020   25.0899 H   0  0  0  0  0  0
  1  2  2  0  0  0
  1  7  1  0  0  0
  1  8  1  0  0  0
  2  3  1  0  0  0
  2  4  1  0  0  0
  4  5  2  0  0  0
  4 29  1  0  0  0
  5  6  1  0  0  0
  5 11  1  0  0  0
  6  7  2  0  0  0
  6 12  1  0  0  0
  7 30  1  0  0  0
  8  9  2  0  0  0
  8 10  1  0  0  0
  9 31  1  0  0  0
  9 52  1  0  0  0
 10 32  1  0  0  0
 10 33  1  0  0  0
 11 13  2  0  0  0
 12 13  1  0  0  0
 12 51  1  0  0  0
 13 14  1  0  0  0
 14 15  2  0  0  0
 14 19  1  0  0  0
 15 16  1  0  0  0
 15 34  1  0  0  0
 16 17  2  0  0  0
 16 35  1  0  0  0
 17 18  1  0  0  0
 17 36  1  0  0  0
 18 19  2  0  0  0
 18 21  1  0  0  0
 19 20  1  0  0  0
 20 37  1  0  0  0
 21 27  1  0  0  0
 22 23  1  0  0  0
 22 27  1  0  0  0
 22 28  1  0  0  0
 22 38  1  0  0  0
 23 24  1  0  0  0
 23 39  1  0  0  0
 23 40  1  0  0  0
 24 25  1  0  0  0
 24 41  1  0  0  0
 24 42  1  0  0  0
 25 26  1  0  0  0
 25 43  1  0  0  0
 25 44  1  0  0  0
 26 27  1  0  0  0
 26 45  1  0  0  0
 26 46  1  0  0  0
 27 47  1  0  0  0
 28 48  1  0  0  0
 28 49  1  0  0  0
 28 50  1  0  0  0
M  CHG  2   9   1  12   1
M  END
> <s_m_source_file>
../1o5g_ligand.sdf

> <i_m_source_file_index>
1

> <s_epik_input>
W0hdXE49QyhbTkgyXSlcYyhjKEYpW2NIXTEpW2NIXWMoYzEyKVtuSF1jKG4yKS1jM1tjSF1bY0hdW2NIXWMoYzNbT0hdKU9bQ0BASF00W0NIMl1bQ0gyXVtDSDJdW0NIMl1bQ0BASF00W0NIM10=

> <s_epik_cmdline>
J2VwaWtfYXBwJywgJy1pbWFlJywgJ2xpZ2FuZF9wcm8ubWFlJywgJy1vbWFlJywgJ2xpZ2FuZF9wcmVwLm1hZScsICctbXMnLCAnMScsICctcGgnLCAnNycsICctcGh0JywgJzAuNScsICctbnQn

> <r_epik_Ionization_Penalty>
  0.0012

> <r_epik_Ionization_Penalty_Charging>
  0.0003

> <r_epik_Ionization_Penalty_Neutral>
  0.0009

> <r_epik_State_Penalty>
  0.3843

> <r_epik_Charging_Adjusted_Penalty>
0.384570490962133

> <i_epik_Tot_Q>
2

> <i_epik_Tot_abs_Q>
2

> <s_epik_Chemistry_Notes>
This compound has an imine and may undergo hydrolysis.

$$$$
