1o5m_ligand
                    3D
 Schrodinger Suite 2020-3.
 67 71  0  0  1  0            999 V2000
  187.0850  131.7040   33.5950 C   0  0  0  0  0  0
  186.5480  129.3030   32.9650 C   0  0  0  0  0  0
  185.5670  129.2750   34.1290 C   0  0  0  0  0  0
  185.9990  130.1840   35.2580 C   0  0  0  0  0  0
  186.2300  131.5440   34.7780 N   0  0  0  0  0  0
  186.7040  130.7330   32.4780 C   0  0  0  0  0  0
  182.9210  123.6340   33.6710 Cl  0  0  0  0  0  0
  189.3290  126.9440   30.2190 C   0  0  0  0  0  0
  183.8560  124.9740   33.1350 C   0  0  0  0  0  0
  185.2100  125.0900   33.4790 C   0  0  0  0  0  0
  187.3990  126.3340   33.4020 C   0  0  0  0  0  0
  188.2570  125.9940   32.2370 C   0  0  0  0  0  0
  183.9730  127.0570   31.9000 C   0  0  0  0  0  0
  189.4490  127.8370   29.1540 C   0  0  0  0  0  0
  188.4800  128.8380   29.0030 C   0  0  0  0  0  0
  187.4640  128.9310   29.8640 N   0  0  0  0  0  0
  186.1110  128.3570   31.7660 C   0  0  1  0  0  0
  183.2440  125.9510   32.3480 C   0  0  0  0  0  0
  190.9020  127.6770   27.9550 Br  0  0  0  0  0  0
  183.0970  128.3630   30.8380 Br  0  0  0  0  0  0
  187.3140  128.0810   30.9040 C   0  0  0  0  0  0
  185.3350  127.1790   32.2400 C   0  0  0  0  0  0
  188.2680  127.0420   31.1220 C   0  0  0  0  0  0
  185.9430  126.1930   33.0310 C   0  0  0  0  0  0
  185.6190  136.4690   35.1620 C   0  0  0  0  0  0
  185.5270  137.5850   36.2030 C   0  0  0  0  0  0
  185.7850  135.0940   35.8090 C   0  0  0  0  0  0
  186.8820  135.0780   36.8700 C   0  0  0  0  0  0
  186.6240  137.4630   37.1640 N   0  0  0  0  0  0
  187.5070  138.4670   37.3900 C   0  0  0  0  0  0
  188.4200  138.1080   38.3050 N   0  0  0  0  0  0
  187.5000  139.5720   36.8480 O   0  0  0  0  0  0
  186.7260  136.1870   37.8620 C   0  0  0  0  0  0
  185.9960  133.9640   34.8060 C   0  0  0  0  0  0
  184.9540  132.5040   36.3980 O   0  0  0  0  0  0
  185.6730  132.5960   35.4100 C   0  0  0  0  0  0
  186.9869  132.7288   33.2076 H   0  0  0  0  0  0
  188.1328  131.5153   33.8716 H   0  0  0  0  0  0
  187.5122  128.9546   33.3638 H   0  0  0  0  0  0
  184.5769  129.6059   33.7821 H   0  0  0  0  0  0
  185.4941  128.2504   34.5225 H   0  0  0  0  0  0
  185.2138  130.2110   36.0279 H   0  0  0  0  0  0
  186.9320  129.8030   35.6990 H   0  0  0  0  0  0
  185.7460  131.0420   32.0345 H   0  0  0  0  0  0
  187.4855  130.7397   31.7039 H   0  0  0  0  0  0
  190.0738  126.1587   30.3482 H   0  0  0  0  0  0
  185.6880  124.3255   34.0915 H   0  0  0  0  0  0
  187.6269  125.6540   34.2361 H   0  0  0  0  0  0
  187.5944  127.3715   33.7109 H   0  0  0  0  0  0
  189.2983  125.8748   32.5709 H   0  0  0  0  0  0
  187.9068  125.0540   31.7857 H   0  0  0  0  0  0
  188.5563  129.5453   28.1772 H   0  0  0  0  0  0
  185.3739  128.7904   31.0741 H   0  0  0  0  0  0
  182.1919  125.8512   32.0811 H   0  0  0  0  0  0
  184.7003  136.4551   34.5572 H   0  0  0  0  0  0
  186.4856  136.6477   34.5084 H   0  0  0  0  0  0
  185.5923  138.5614   35.7006 H   0  0  0  0  0  0
  184.5679  137.5106   36.7365 H   0  0  0  0  0  0
  184.8225  134.9010   36.3054 H   0  0  0  0  0  0
  186.8495  134.1240   37.4166 H   0  0  0  0  0  0
  187.8630  135.1894   36.3849 H   0  0  0  0  0  0
  188.3799  137.1066   38.7585 H   0  0  0  0  0  0
  189.2087  138.8150   38.6018 H   0  0  0  0  0  0
  185.8142  136.0229   38.4551 H   0  0  0  0  0  0
  187.5995  136.2067   38.5303 H   0  0  0  0  0  0
  185.3413  134.1191   33.9358 H   0  0  0  0  0  0
  187.0460  133.9561   34.4781 H   0  0  0  0  0  0
  1  5  1  0  0  0
  1  6  1  0  0  0
  1 37  1  0  0  0
  1 38  1  0  0  0
  2  3  1  0  0  0
  2  6  1  0  0  0
  2 17  1  0  0  0
  2 39  1  0  0  0
  3  4  1  0  0  0
  3 40  1  0  0  0
  3 41  1  0  0  0
  4  5  1  0  0  0
  4 42  1  0  0  0
  4 43  1  0  0  0
  5 36  1  0  0  0
  6 44  1  0  0  0
  6 45  1  0  0  0
  7  9  1  0  0  0
  8 14  2  0  0  0
  8 23  1  0  0  0
  8 46  1  0  0  0
  9 10  2  0  0  0
  9 18  1  0  0  0
 10 24  1  0  0  0
 10 47  1  0  0  0
 11 12  1  0  0  0
 11 24  1  0  0  0
 11 48  1  0  0  0
 11 49  1  0  0  0
 12 23  1  0  0  0
 12 50  1  0  0  0
 12 51  1  0  0  0
 13 18  2  0  0  0
 13 20  1  0  0  0
 13 22  1  0  0  0
 14 15  1  0  0  0
 14 19  1  0  0  0
 15 16  2  0  0  0
 15 52  1  0  0  0
 16 21  1  0  0  0
 17 21  1  0  0  0
 17 22  1  0  0  0
 17 53  1  0  0  0
 18 54  1  0  0  0
 21 23  2  0  0  0
 22 24  2  0  0  0
 25 26  1  0  0  0
 25 27  1  0  0  0
 25 55  1  0  0  0
 25 56  1  0  0  0
 26 29  1  0  0  0
 26 57  1  0  0  0
 26 58  1  0  0  0
 27 28  1  0  0  0
 27 34  1  0  0  0
 27 59  1  0  0  0
 28 33  1  0  0  0
 28 60  1  0  0  0
 28 61  1  0  0  0
 29 30  1  0  0  0
 29 33  1  0  0  0
 30 31  1  0  0  0
 30 32  2  0  0  0
 31 62  1  0  0  0
 31 63  1  0  0  0
 33 64  1  0  0  0
 33 65  1  0  0  0
 34 36  1  0  0  0
 34 66  1  0  0  0
 34 67  1  0  0  0
 35 36  2  0  0  0
M  END
> <s_m_source_file>
../1o5m_ligand.sdf

> <i_m_source_file_index>
1

> <s_epik_input>
W0NIMl0xW0NIMl1OKEMoPU8pW05IMl0pW0NIMl1bQ0gyXVtDSF0xW0NIMl1DKD1PKU4oW0NIMl1bQ0gyXTIpW0NIMl1bQ0gyXVtDSF0yW0NAQEhdM2MoYyhCcilbY0hdYyhDbClbY0hdNCljNFtDSDJdW0NIMl1jKGMzNSlbY0hdYyhCcilbY0hdbjU=

> <s_epik_cmdline>
J2VwaWtfYXBwJywgJy1pbWFlJywgJ2xpZ2FuZF9wcm8ubWFlJywgJy1vbWFlJywgJ2xpZ2FuZF9wcmVwLm1hZScsICctbXMnLCAnMScsICctcGgnLCAnNycsICctcGh0JywgJzAuNScsICctbnQn

> <r_lp_tautomer_probability>
1

> <r_epik_Ionization_Penalty>
  0.0008

> <r_epik_Ionization_Penalty_Charging>
  0.0000

> <r_epik_Ionization_Penalty_Neutral>
  0.0008

> <r_epik_State_Penalty>
 -0.0000

> <r_epik_Charging_Adjusted_Penalty>
0

> <i_epik_Tot_Q>
0

> <i_epik_Tot_abs_Q>
0

$$$$
