1o5p_ligand
                    3D
 Schrodinger Suite 2020-3.
 82 88  0  0  1  0            999 V2000
    1.8050    8.9950    0.1740 C   0  0  0  0  0  0
    0.9850    9.4990   -0.8940 C   0  0  0  0  0  0
    0.5330    9.8800   -1.9220 C   0  0  0  0  0  0
    0.2920   10.2710   -3.3240 C   0  0  2  0  0  0
    0.2450    9.2340   -4.3450 O   0  0  0  0  0  0
    1.5170    9.9210   -4.1640 C   0  0  2  0  0  0
    2.5510    9.2760   -3.3200 C   0  0  0  0  0  0
    3.2110    8.7960   -2.4470 C   0  0  0  0  0  0
    3.7950    8.3090   -1.2160 C   0  0  0  0  0  0
    3.1750    8.5370   -0.0400 C   0  0  0  0  0  0
    3.8430    8.3160    1.2950 C   0  0  1  0  0  0
    4.7180    9.3890    1.6150 O   0  0  0  0  0  0
    2.6450    8.2810    2.2660 C   0  0  2  0  0  0
    2.3700    6.9370    2.6120 O   0  0  0  0  0  0
    1.5050    8.8690    1.4620 C   0  0  0  0  0  0
    5.7120    9.2150    2.6170 C   0  0  1  0  0  0
    6.7340    8.3610    2.1250 O   0  0  0  0  0  0
    6.3170   10.5700    2.9820 C   0  0  2  0  0  0
    5.2290   11.5140    3.3650 N   0  3  0  0  0  0
    4.7470   11.5620    4.7730 C   0  0  0  0  0  0
    7.0820   11.1270    1.7780 C   0  0  1  0  0  0
    7.6750   12.3690    2.1280 O   0  0  0  0  0  0
    8.1760   10.1370    1.3610 C   0  0  1  0  0  0
    9.1140    9.9800    2.4180 O   0  0  0  0  0  0
    7.5430    8.7810    1.0360 C   0  0  1  0  0  0
    8.6450    7.7490    0.7930 C   0  0  0  0  0  0
    3.2700    6.5170    3.4770 C   0  0  0  0  0  0
    3.6260    7.1970    4.4180 O   0  0  0  0  0  0
    3.8170    5.1740    3.2350 C   0  0  0  0  0  0
    5.1780    4.9380    3.4670 C   0  0  0  0  0  0
    5.9740    5.9420    4.0070 O   0  0  0  0  0  0
    5.7370    3.6920    3.1610 C   0  0  0  0  0  0
    4.9380    2.6800    2.6180 C   0  0  0  0  0  0
    3.5760    2.9100    2.3870 C   0  0  0  0  0  0
    3.0100    4.1550    2.6980 C   0  0  0  0  0  0
    1.6410    4.3750    2.4680 C   0  0  0  0  0  0
    0.8510    3.3580    1.9190 C   0  0  0  0  0  0
   -0.5000    3.5800    1.6840 O   0  0  0  0  0  0
   -0.8270    4.8240    1.0840 C   0  0  0  0  0  0
    1.4220    2.1190    1.6040 C   0  0  0  0  0  0
    2.7830    1.8960    1.8400 C   0  0  0  0  0  0
    3.4030    0.5560    1.4930 C   0  0  0  0  0  0
   -0.4350   11.5790   -3.5860 C   0  0  2  0  0  0
   -0.4070   11.8880   -4.9690 O   0  0  0  0  0  0
    0.2400   13.0410   -5.0670 C   0  0  0  0  0  0
    0.4270   13.5650   -6.1470 O   0  0  0  0  0  0
    0.6760   13.6050   -3.9480 O   0  0  0  0  0  0
    0.2880   12.7310   -2.9010 C   0  0  0  0  0  0
    2.2119   10.3874   -4.8779 H   0  0  0  0  0  0
    4.7440    7.7532   -1.2388 H   0  0  0  0  0  0
    4.5231    7.4520    1.3252 H   0  0  0  0  0  0
    2.7928    8.7720    3.2392 H   0  0  0  0  0  0
    0.5158    9.1798    1.8293 H   0  0  0  0  0  0
    5.2350    8.7064    3.4677 H   0  0  0  0  0  0
    6.9917   10.4639    3.8443 H   0  0  0  0  0  0
    5.5492   12.5458    3.1582 H   0  0  0  0  0  0
    4.3244   11.2870    2.7818 H   0  0  0  0  0  0
    3.9480   12.3128    4.8616 H   0  0  0  0  0  0
    5.5809   11.8338    5.4369 H   0  0  0  0  0  0
    4.3561   10.5748    5.0606 H   0  0  0  0  0  0
    6.4037   11.3514    0.9416 H   0  0  0  0  0  0
    7.0427   13.2075    2.4553 H   0  0  0  0  0  0
    8.7590   10.5234    0.5120 H   0  0  0  0  0  0
    9.6727   10.8509    2.7914 H   0  0  0  0  0  0
    6.8621    8.8516    0.1750 H   0  0  0  0  0  0
    8.1902    6.7750    0.5596 H   0  0  0  0  0  0
    9.2663    7.6566    1.6960 H   0  0  0  0  0  0
    9.2711    8.0731   -0.0513 H   0  0  0  0  0  0
    5.5356    6.9217    4.2479 H   0  0  0  0  0  0
    6.7957    3.5099    3.3459 H   0  0  0  0  0  0
    5.3758    1.7119    2.3746 H   0  0  0  0  0  0
    1.1944    5.3376    2.7171 H   0  0  0  0  0  0
   -1.9164    4.8895    0.9463 H   0  0  0  0  0  0
   -0.3285    4.9019    0.1066 H   0  0  0  0  0  0
   -0.4896    5.6446    1.7342 H   0  0  0  0  0  0
    0.8064    1.3283    1.1750 H   0  0  0  0  0  0
    4.4729    0.5700    1.7480 H   0  0  0  0  0  0
    3.2852    0.3654    0.4161 H   0  0  0  0  0  0
    2.9005   -0.2392    2.0633 H   0  0  0  0  0  0
   -1.4849   11.4703   -3.2763 H   0  0  0  0  0  0
   -0.3960   13.2254   -2.1955 H   0  0  0  0  0  0
    1.1607   12.3433   -2.3550 H   0  0  0  0  0  0
  1  2  1  0  0  0
  1 10  1  0  0  0
  1 15  2  0  0  0
  2  3  3  0  0  0
  3  4  1  0  0  0
  4  5  1  0  0  0
  4  6  1  0  0  0
  4 43  1  0  0  0
  5  6  1  0  0  0
  6  7  1  0  0  0
  6 49  1  0  0  0
  7  8  3  0  0  0
  8  9  1  0  0  0
  9 10  2  0  0  0
  9 50  1  0  0  0
 10 11  1  0  0  0
 11 12  1  0  0  0
 11 13  1  0  0  0
 11 51  1  0  0  0
 12 16  1  0  0  0
 13 14  1  0  0  0
 13 15  1  0  0  0
 13 52  1  0  0  0
 14 27  1  0  0  0
 15 53  1  0  0  0
 16 17  1  0  0  0
 16 18  1  0  0  0
 16 54  1  0  0  0
 17 25  1  0  0  0
 18 19  1  0  0  0
 18 21  1  0  0  0
 18 55  1  0  0  0
 19 20  1  0  0  0
 19 56  1  0  0  0
 19 57  1  0  0  0
 20 58  1  0  0  0
 20 59  1  0  0  0
 20 60  1  0  0  0
 21 22  1  0  0  0
 21 23  1  0  0  0
 21 61  1  0  0  0
 22 62  1  0  0  0
 23 24  1  0  0  0
 23 25  1  0  0  0
 23 63  1  0  0  0
 24 64  1  0  0  0
 25 26  1  0  0  0
 25 65  1  0  0  0
 26 66  1  0  0  0
 26 67  1  0  0  0
 26 68  1  0  0  0
 27 28  2  0  0  0
 27 29  1  0  0  0
 29 30  2  0  0  0
 29 35  1  0  0  0
 30 31  1  0  0  0
 30 32  1  0  0  0
 31 69  1  0  0  0
 32 33  2  0  0  0
 32 70  1  0  0  0
 33 34  1  0  0  0
 33 71  1  0  0  0
 34 35  2  0  0  0
 34 41  1  0  0  0
 35 36  1  0  0  0
 36 37  2  0  0  0
 36 72  1  0  0  0
 37 38  1  0  0  0
 37 40  1  0  0  0
 38 39  1  0  0  0
 39 73  1  0  0  0
 39 74  1  0  0  0
 39 75  1  0  0  0
 40 41  2  0  0  0
 40 76  1  0  0  0
 41 42  1  0  0  0
 42 77  1  0  0  0
 42 78  1  0  0  0
 42 79  1  0  0  0
 43 44  1  0  0  0
 43 48  1  0  0  0
 43 80  1  0  0  0
 44 45  1  0  0  0
 45 46  2  0  0  0
 45 47  1  0  0  0
 47 48  1  0  0  0
 48 81  1  0  0  0
 48 82  1  0  0  0
M  CHG  1  19   1
M  END
> <s_m_source_file>
../1o5p_ligand.sdf

> <i_m_source_file_index>
1

> <s_epik_input>
W0NIMl0xT0MoPU8pT1tDQEhdMVtDQEBdMjNbQ0BIXShPMylDI0MvW0NIXT1DNFxDKEMjQzIpPVtDSF1bQ0BASF0oT0MoPU8pYyhjKFtPSF0pW2NIXVtjSF01KWMoYzU2KVtjSF1jKE9bQ0gzXSlbY0hdYzZbQ0gzXSlbQ0BASF00T1tDQEhdN09bQ0BIXShbQ0gzXSlbQ0BIXShbT0hdKVtDQEhdKFtPSF0pW0NASF03W05IMitdW0NIM10=

> <s_epik_cmdline>
J2VwaWtfYXBwJywgJy1pbWFlJywgJ2xpZ2FuZF9wcm8ubWFlJywgJy1vbWFlJywgJ2xpZ2FuZF9wcmVwLm1hZScsICctbXMnLCAnMScsICctcGgnLCAnNycsICctcGh0JywgJzAuNScsICctbnQn

> <r_epik_Ionization_Penalty>
  0.1850

> <r_epik_Ionization_Penalty_Charging>
  0.1814

> <r_epik_Ionization_Penalty_Neutral>
  0.0036

> <r_epik_State_Penalty>
  0.1709

> <r_epik_Charging_Adjusted_Penalty>
0.352278634142868

> <i_epik_Tot_Q>
1

> <i_epik_Tot_abs_Q>
1

> <s_epik_Chemistry_Notes>
This compound has an ester and may undergo hydrolysis at high or low pH. This compound contains an acetal/aminal-like group ( X-CH(R)-Y where X, Y are N, S, or O) that may be acid/base labile, releasing an aldehyde.

$$$$
