1o5r_ligand
                    3D
 Schrodinger Suite 2020-3.
 59 62  0  0  1  0            999 V2000
   51.9840   54.5140   20.7520 C   0  0  0  0  0  0
   52.0530   55.5750   21.7700 N   0  0  0  0  0  0
   51.7930   54.9070   22.8850 C   0  0  0  0  0  0
   51.6380   53.6160   22.7630 N   0  0  0  0  0  0
   51.7660   53.3080   21.3420 C   0  0  0  0  0  0
   51.7380   51.9640   20.7950 C   0  0  0  0  0  0
   51.9080   51.9200   19.6970 O   0  0  0  0  0  0
   51.4150   51.0140   21.5230 N   0  0  0  0  0  0
   52.0850   57.0330   21.6130 C   0  0  1  0  0  0
   53.5120   57.6680   21.6270 C   0  0  0  0  0  0
   54.5430   57.4310   22.6980 O   0  0  0  0  0  0
   51.3820   57.4530   20.3350 C   0  0  0  0  0  0
   49.8710   57.5460   20.5300 C   0  0  0  0  0  0
   49.2310   57.6440   19.2360 N   0  0  0  0  0  0
   48.7350   58.8100   18.7000 C   0  0  0  0  0  0
   48.2680   58.5680   17.4420 C   0  0  0  0  0  0
   48.4750   57.1790   17.2260 C   0  0  0  0  0  0
   49.0830   56.6520   18.3890 C   0  0  0  0  0  0
   48.1540   56.3370   16.1950 C   0  0  0  0  0  0
   48.4460   54.9760   16.2970 C   0  0  0  0  0  0
   49.0830   54.5020   17.4470 C   0  0  0  0  0  0
   49.3700   55.3570   18.4790 C   0  0  0  0  0  0
   49.3130   53.2450   17.7210 N   0  0  0  0  0  0
   49.2560   52.2020   16.8530 C   0  0  0  0  0  0
   48.7460   52.3280   15.7660 O   0  0  0  0  0  0
   49.5190   51.0810   17.4430 N   0  0  0  0  0  0
   49.2960   49.8220   16.7820 C   0  0  0  0  0  0
   47.7260   49.3490   18.7000 C   0  0  0  0  0  0
   48.0320   49.2190   17.3550 C   0  0  0  0  0  0
   47.1680   48.5140   16.5360 C   0  0  0  0  0  0
   45.9940   47.9860   17.0600 C   0  0  0  0  0  0
   45.6590   48.1380   18.4150 C   0  0  0  0  0  0
   46.5700   48.7720   19.2010 C   0  0  0  0  0  0
   52.0921   54.6722   19.6790 H   0  0  0  0  0  0
   51.7130   55.4074   23.8501 H   0  0  0  0  0  0
   51.2725   51.1718   22.6023 H   0  0  0  0  0  0
   51.2709   50.0133   21.0897 H   0  0  0  0  0  0
   51.5279   57.3575   22.5043 H   0  0  0  0  0  0
   54.0596   57.3591   20.7244 H   0  0  0  0  0  0
   53.4253   58.7644   21.6460 H   0  0  0  0  0  0
   55.5268   57.9185   22.6319 H   0  0  0  0  0  0
   51.7529   58.4394   20.0197 H   0  0  0  0  0  0
   51.5855   56.7151   19.5450 H   0  0  0  0  0  0
   49.5127   56.6468   21.0526 H   0  0  0  0  0  0
   49.6327   58.4374   21.1288 H   0  0  0  0  0  0
   48.7180   59.7769   19.2028 H   0  0  0  0  0  0
   47.8295   59.2867   16.7498 H   0  0  0  0  0  0
   47.6726   56.7279   15.2986 H   0  0  0  0  0  0
   48.1808   54.2921   15.4907 H   0  0  0  0  0  0
   49.8390   54.9708   19.3840 H   0  0  0  0  0  0
   49.5845   52.9459   18.7441 H   0  0  0  0  0  0
   49.9196   51.1011   18.4673 H   0  0  0  0  0  0
   49.1834   49.9904   15.7008 H   0  0  0  0  0  0
   50.1531   49.1564   16.9621 H   0  0  0  0  0  0
   48.3920   49.9030   19.3615 H   0  0  0  0  0  0
   47.4076   48.3730   15.4820 H   0  0  0  0  0  0
   45.3167   47.4405   16.4029 H   0  0  0  0  0  0
   44.7163   47.7666   18.8168 H   0  0  0  0  0  0
   46.3824   48.8288   20.2732 H   0  0  0  0  0  0
  1  2  1  0  0  0
  1  5  2  0  0  0
  1 34  1  0  0  0
  2  3  1  0  0  0
  2  9  1  0  0  0
  3  4  2  0  0  0
  3 35  1  0  0  0
  4  5  1  0  0  0
  5  6  1  0  0  0
  6  7  2  0  0  0
  6  8  1  0  0  0
  8 36  1  0  0  0
  8 37  1  0  0  0
  9 10  1  0  0  0
  9 12  1  0  0  0
  9 38  1  0  0  0
 10 11  1  0  0  0
 10 39  1  0  0  0
 10 40  1  0  0  0
 11 41  1  0  0  0
 12 13  1  0  0  0
 12 42  1  0  0  0
 12 43  1  0  0  0
 13 14  1  0  0  0
 13 44  1  0  0  0
 13 45  1  0  0  0
 14 15  1  0  0  0
 14 18  1  0  0  0
 15 16  2  0  0  0
 15 46  1  0  0  0
 16 17  1  0  0  0
 16 47  1  0  0  0
 17 18  2  0  0  0
 17 19  1  0  0  0
 18 22  1  0  0  0
 19 20  2  0  0  0
 19 48  1  0  0  0
 20 21  1  0  0  0
 20 49  1  0  0  0
 21 22  2  0  0  0
 21 23  1  0  0  0
 22 50  1  0  0  0
 23 24  1  0  0  0
 23 51  1  0  0  0
 24 25  2  0  0  0
 24 26  1  0  0  0
 26 27  1  0  0  0
 26 52  1  0  0  0
 27 29  1  0  0  0
 27 53  1  0  0  0
 27 54  1  0  0  0
 28 29  2  0  0  0
 28 33  1  0  0  0
 28 55  1  0  0  0
 29 30  1  0  0  0
 30 31  2  0  0  0
 30 56  1  0  0  0
 31 32  1  0  0  0
 31 57  1  0  0  0
 32 33  2  0  0  0
 32 58  1  0  0  0
 33 59  1  0  0  0
M  END
> <s_m_source_file>
../1o5r_ligand.sdf

> <i_m_source_file_index>
1

> <s_epik_input>
W2NIXTFuYyhDKD1PKVtOSDJdKVtjSF1uMVtDQEBIXShbQ0gyXVtPSF0pW0NIMl1bQ0gyXW4oW2NIXVtjSF0yKWMoYzIzKVtjSF1jKFtjSF1bY0hdMylbTkhdQyg9TylbTkhdW0NIMl1jNFtjSF1bY0hdW2NIXVtjSF1bY0hdNA==

> <s_epik_cmdline>
J2VwaWtfYXBwJywgJy1pbWFlJywgJ2xpZ2FuZF9wcm8ubWFlJywgJy1vbWFlJywgJ2xpZ2FuZF9wcmVwLm1hZScsICctbXMnLCAnMScsICctcGgnLCAnNycsICctcGh0JywgJzAuNScsICctbnQn

> <r_lp_tautomer_probability>
1

> <r_epik_Ionization_Penalty>
  0.0011

> <r_epik_Ionization_Penalty_Charging>
  0.0011

> <r_epik_Ionization_Penalty_Neutral>
  0.0000

> <r_epik_State_Penalty>
 -0.0000

> <r_epik_Charging_Adjusted_Penalty>
0.00106935711476876

> <i_epik_Tot_Q>
0

> <i_epik_Tot_abs_Q>
0

$$$$
