1o6h_ligand
                    3D
 Schrodinger Suite 2020-3.
 59 61  0  0  1  0            999 V2000
   63.4410   69.1800   58.4770 C   0  0  0  0  0  0
   62.3480   69.9280   58.7130 C   0  0  0  0  0  0
   61.8000   70.1160   60.1100 C   0  0  0  0  0  0
   62.3770   71.2880   60.8040 N   0  3  2  0  0  0
   63.4980   70.8530   61.6670 C   0  0  0  0  0  0
   63.0880   69.9340   62.8220 C   0  0  0  0  0  0
   64.1370   70.0940   63.9100 C   0  0  0  0  0  0
   63.4330   70.4590   65.2150 C   0  0  0  0  0  0
   63.6670   69.3460   66.2610 C   0  0  0  0  0  0
   64.9210   69.6710   67.0850 C   0  0  0  0  0  0
   64.6670   70.7820   67.9520 O   0  0  0  0  0  0
   68.8360   69.6140   72.3640 C   0  0  0  0  0  0
   65.6580   71.0550   68.8950 C   0  0  0  0  0  0
   67.8300   69.2930   71.4180 C   0  0  0  0  0  0
   66.0810   72.3970   69.0690 C   0  0  0  0  0  0
   67.0840   72.7270   70.0140 C   0  0  0  0  0  0
   69.2380   70.9190   72.5150 N   0  0  0  0  0  0
   68.6990   71.9680   71.7750 C   0  0  0  0  0  0
   67.6810   71.7130   70.8060 C   0  0  0  0  0  0
   67.2490   70.3360   70.6330 C   0  0  0  0  0  0
   66.2460   70.0260   69.6840 C   0  0  0  0  0  0
   69.2670   73.2900   72.0940 C   0  0  0  0  0  0
   70.6190   73.5370   71.7800 C   0  0  0  0  0  0
   71.1990   74.7780   72.0990 C   0  0  0  0  0  0
   70.4390   75.7860   72.7340 C   0  0  0  0  0  0
   69.0740   75.5540   73.0480 C   0  0  0  0  0  0
   68.4840   74.3020   72.7280 C   0  0  0  0  0  0
   71.2410   77.3940   73.1700 Br  0  0  0  0  0  0
   61.3480   71.9690   61.6110 C   0  0  0  0  0  0
   63.9602   68.6862   59.3116 H   0  0  0  0  0  0
   63.8155   69.0622   57.4494 H   0  0  0  0  0  0
   61.8288   70.4218   57.8784 H   0  0  0  0  0  0
   60.7106   70.2600   60.0602 H   0  0  0  0  0  0
   62.0248   69.2253   60.7150 H   0  0  0  0  0  0
   62.7500   72.0002   60.0533 H   0  0  0  0  0  0
   64.2328   70.3006   61.0629 H   0  0  0  0  0  0
   63.9799   71.7348   62.1144 H   0  0  0  0  0  0
   62.0955   70.2307   63.1920 H   0  0  0  0  0  0
   63.0511   68.8934   62.4673 H   0  0  0  0  0  0
   64.6858   69.1485   64.0321 H   0  0  0  0  0  0
   64.8396   70.8919   63.6275 H   0  0  0  0  0  0
   63.8366   71.4087   65.5961 H   0  0  0  0  0  0
   62.3537   70.5665   65.0318 H   0  0  0  0  0  0
   62.7959   69.2823   66.9297 H   0  0  0  0  0  0
   63.8060   68.3833   65.7473 H   0  0  0  0  0  0
   65.1980   68.7962   67.6916 H   0  0  0  0  0  0
   65.7495   69.9245   66.4073 H   0  0  0  0  0  0
   69.2887   68.8285   72.9691 H   0  0  0  0  0  0
   67.5031   68.2610   71.2908 H   0  0  0  0  0  0
   65.6285   73.1856   68.4677 H   0  0  0  0  0  0
   67.3980   73.7640   70.1327 H   0  0  0  0  0  0
   65.9217   68.9932   69.5563 H   0  0  0  0  0  0
   71.2146   72.7666   71.2902 H   0  0  0  0  0  0
   72.2447   74.9640   71.8541 H   0  0  0  0  0  0
   68.4826   76.3315   73.5315 H   0  0  0  0  0  0
   67.4369   74.1144   72.9657 H   0  0  0  0  0  0
   60.5214   72.2869   60.9586 H   0  0  0  0  0  0
   61.7891   72.8502   62.0997 H   0  0  0  0  0  0
   60.9658   71.2779   62.3767 H   0  0  0  0  0  0
  1  2  2  0  0  0
  1 30  1  0  0  0
  1 31  1  0  0  0
  2  3  1  0  0  0
  2 32  1  0  0  0
  3  4  1  0  0  0
  3 33  1  0  0  0
  3 34  1  0  0  0
  4  5  1  0  0  0
  4 29  1  0  0  0
  4 35  1  0  0  0
  5  6  1  0  0  0
  5 36  1  0  0  0
  5 37  1  0  0  0
  6  7  1  0  0  0
  6 38  1  0  0  0
  6 39  1  0  0  0
  7  8  1  0  0  0
  7 40  1  0  0  0
  7 41  1  0  0  0
  8  9  1  0  0  0
  8 42  1  0  0  0
  8 43  1  0  0  0
  9 10  1  0  0  0
  9 44  1  0  0  0
  9 45  1  0  0  0
 10 11  1  0  0  0
 10 46  1  0  0  0
 10 47  1  0  0  0
 11 13  1  0  0  0
 12 14  2  0  0  0
 12 17  1  0  0  0
 12 48  1  0  0  0
 13 15  1  0  0  0
 13 21  2  0  0  0
 14 20  1  0  0  0
 14 49  1  0  0  0
 15 16  2  0  0  0
 15 50  1  0  0  0
 16 19  1  0  0  0
 16 51  1  0  0  0
 17 18  2  0  0  0
 18 19  1  0  0  0
 18 22  1  0  0  0
 19 20  2  0  0  0
 20 21  1  0  0  0
 21 52  1  0  0  0
 22 23  2  0  0  0
 22 27  1  0  0  0
 23 24  1  0  0  0
 23 53  1  0  0  0
 24 25  2  0  0  0
 24 54  1  0  0  0
 25 26  1  0  0  0
 25 28  1  0  0  0
 26 27  2  0  0  0
 26 55  1  0  0  0
 27 56  1  0  0  0
 29 57  1  0  0  0
 29 58  1  0  0  0
 29 59  1  0  0  0
M  CHG  1   4   1
M  END
> <s_m_source_file>
../1o6h_ligand.sdf

> <i_m_source_file_index>
1

> <s_epik_input>
W0NIMl09W0NIXVtDSDJdW05AQEgrXShbQ0gzXSlbQ0gyXVtDSDJdW0NIMl1bQ0gyXVtDSDJdW0NIMl1PYyhbY0hdW2NIXTEpW2NIXWMoYzEyKVtjSF1bY0hdbmMyLWMzW2NIXVtjSF1jKEJyKVtjSF1bY0hdMw==

> <s_epik_cmdline>
J2VwaWtfYXBwJywgJy1pbWFlJywgJ2xpZ2FuZF9wcm8ubWFlJywgJy1vbWFlJywgJ2xpZ2FuZF9wcmVwLm1hZScsICctbXMnLCAnMScsICctcGgnLCAnNycsICctcGh0JywgJzAuNScsICctbnQn

> <r_epik_Ionization_Penalty>
  0.0423

> <r_epik_Ionization_Penalty_Charging>
  0.0074

> <r_epik_Ionization_Penalty_Neutral>
  0.0349

> <r_epik_State_Penalty>
  0.0291

> <r_epik_Charging_Adjusted_Penalty>
0.036457014223981

> <i_epik_Tot_Q>
1

> <i_epik_Tot_abs_Q>
1

$$$$
