1o6q_ligand
                    3D
 Schrodinger Suite 2020-3.
 49 51  0  0  1  0            999 V2000
   63.1340   67.6950   58.8050 C   0  0  0  0  0  0
   63.1290   68.9560   58.3740 C   0  0  0  0  0  0
   63.7300   70.0980   59.1590 C   0  0  0  0  0  0
   62.9050   71.3300   59.0640 N   0  3  1  0  0  0
   61.6770   71.2420   59.9220 C   0  0  0  0  0  0
   61.9050   71.5060   61.4030 C   0  0  0  0  0  0
   62.1260   70.5520   62.3090 C   0  0  0  0  0  0
   62.3430   70.8550   63.7650 C   0  0  0  0  0  0
   63.7190   71.2540   63.9650 O   0  0  0  0  0  0
   64.2430   71.0620   65.2680 C   0  0  0  0  0  0
   63.7170   70.0560   66.1390 C   0  0  0  0  0  0
   64.3020   69.9320   67.4120 C   0  0  0  0  0  0
   63.9750   69.0710   68.3720 O   0  0  0  0  0  0
   64.8010   69.2810   69.4480 C   0  0  0  0  0  0
   65.6720   70.2760   69.2090 C   0  0  0  0  0  0
   65.3710   70.7390   67.8690 C   0  0  0  0  0  0
   65.8910   71.7310   67.0190 C   0  0  0  0  0  0
   65.3160   71.8850   65.7130 C   0  0  0  0  0  0
   66.7140   70.7430   70.1670 C   0  0  0  0  0  0
   67.4470   69.7690   70.8920 C   0  0  0  0  0  0
   68.4430   70.1650   71.8020 C   0  0  0  0  0  0
   68.7110   71.5280   71.9910 C   0  0  0  0  0  0
   67.9840   72.5200   71.2700 C   0  0  0  0  0  0
   66.9830   72.1230   70.3570 C   0  0  0  0  0  0
   70.0100   72.0260   73.1920 Br  0  0  0  0  0  0
   63.7350   72.5360   59.3980 C   0  0  0  0  0  0
   63.5908   67.4469   59.7744 H   0  0  0  0  0  0
   62.6814   66.9022   58.1913 H   0  0  0  0  0  0
   62.6722   69.2041   57.4046 H   0  0  0  0  0  0
   63.8052   69.8146   60.2192 H   0  0  0  0  0  0
   64.7330   70.3240   58.7679 H   0  0  0  0  0  0
   62.5598   71.4222   58.0236 H   0  0  0  0  0  0
   60.9377   71.9817   59.5810 H   0  0  0  0  0  0
   61.2476   70.2322   59.8452 H   0  0  0  0  0  0
   61.8793   72.5617   61.7110 H   0  0  0  0  0  0
   62.1546   69.4965   62.0005 H   0  0  0  0  0  0
   61.6725   71.6705   64.0737 H   0  0  0  0  0  0
   62.1274   69.9570   64.3625 H   0  0  0  0  0  0
   62.8951   69.4110   65.8281 H   0  0  0  0  0  0
   64.7562   68.7133   70.3774 H   0  0  0  0  0  0
   66.7126   72.3689   67.3447 H   0  0  0  0  0  0
   65.7106   72.6510   65.0454 H   0  0  0  0  0  0
   67.2375   68.7097   70.7432 H   0  0  0  0  0  0
   69.0048   69.4149   72.3586 H   0  0  0  0  0  0
   68.1995   73.5775   71.4226 H   0  0  0  0  0  0
   66.4199   72.8726   69.8011 H   0  0  0  0  0  0
   64.6221   72.5619   58.7482 H   0  0  0  0  0  0
   64.0524   72.4828   60.4499 H   0  0  0  0  0  0
   63.1384   73.4467   59.2406 H   0  0  0  0  0  0
  1  2  2  0  0  0
  1 27  1  0  0  0
  1 28  1  0  0  0
  2  3  1  0  0  0
  2 29  1  0  0  0
  3  4  1  0  0  0
  3 30  1  0  0  0
  3 31  1  0  0  0
  4  5  1  0  0  0
  4 26  1  0  0  0
  4 32  1  0  0  0
  5  6  1  0  0  0
  5 33  1  0  0  0
  5 34  1  0  0  0
  6  7  2  0  0  0
  6 35  1  0  0  0
  7  8  1  0  0  0
  7 36  1  0  0  0
  8  9  1  0  0  0
  8 37  1  0  0  0
  8 38  1  0  0  0
  9 10  1  0  0  0
 10 11  2  0  0  0
 10 18  1  0  0  0
 11 12  1  0  0  0
 11 39  1  0  0  0
 12 13  1  0  0  0
 12 16  2  0  0  0
 13 14  1  0  0  0
 14 15  2  0  0  0
 14 40  1  0  0  0
 15 16  1  0  0  0
 15 19  1  0  0  0
 16 17  1  0  0  0
 17 18  2  0  0  0
 17 41  1  0  0  0
 18 42  1  0  0  0
 19 20  2  0  0  0
 19 24  1  0  0  0
 20 21  1  0  0  0
 20 43  1  0  0  0
 21 22  2  0  0  0
 21 44  1  0  0  0
 22 23  1  0  0  0
 22 25  1  0  0  0
 23 24  2  0  0  0
 23 45  1  0  0  0
 24 46  1  0  0  0
 26 47  1  0  0  0
 26 48  1  0  0  0
 26 49  1  0  0  0
M  CHG  1   4   1
M  END
> <s_m_source_file>
../1o6q_ligand.sdf

> <i_m_source_file_index>
1

> <s_epik_input>
W0NIMl09W0NIXVtDSDJdW05ASCtdKFtDSDNdKVtDSDJdL1tDSF09W0NIXS9bQ0gyXU9jKFtjSF0xKVtjSF1bY0hdYyhjMTIpYyhbY0hdbzIpLWMzW2NIXVtjSF1jKEJyKVtjSF1bY0hdMw==

> <s_epik_cmdline>
J2VwaWtfYXBwJywgJy1pbWFlJywgJ2xpZ2FuZF9wcm8ubWFlJywgJy1vbWFlJywgJ2xpZ2FuZF9wcmVwLm1hZScsICctbXMnLCAnMScsICctcGgnLCAnNycsICctcGh0JywgJzAuNScsICctbnQn

> <r_epik_Ionization_Penalty>
  0.1194

> <r_epik_Ionization_Penalty_Charging>
  0.1194

> <r_epik_Ionization_Penalty_Neutral>
  0.0000

> <r_epik_State_Penalty>
  0.1090

> <r_epik_Charging_Adjusted_Penalty>
0.228402562846161

> <i_epik_Tot_Q>
1

> <i_epik_Tot_abs_Q>
1

$$$$
