1o6r_ligand
                    3D
 Schrodinger Suite 2020-3.
 57 59  0  0  1  0            999 V2000
   62.9540   69.0520   58.3270 C   0  0  0  0  0  0
   62.7160   69.4010   59.7780 C   0  0  0  0  0  0
   62.2090   70.7880   59.9590 N   0  3  1  0  0  0
   60.7210   70.8160   59.8630 C   0  0  0  0  0  0
   62.6510   71.4000   61.2670 C   0  0  0  0  0  0
   62.1090   70.7320   62.5800 C   0  0  0  0  0  0
   63.1200   69.7030   63.1510 C   0  0  0  0  0  0
   63.8060   70.2380   64.4170 C   0  0  0  0  0  0
   63.4140   69.3830   65.6290 C   0  0  0  0  0  0
   64.6170   69.2380   66.5670 C   0  0  0  0  0  0
   64.1850   69.5400   67.8970 O   0  0  0  0  0  0
   65.1650   70.0590   68.7550 C   0  0  0  0  0  0
   65.4410   71.4550   68.7280 C   0  0  0  0  0  0
   66.4230   72.0450   69.5810 C   0  0  0  0  0  0
   67.1190   71.2000   70.4610 C   0  0  0  0  0  0
   68.1580   71.4620   71.4410 C   0  0  0  0  0  0
   68.8180   72.7850   71.8210 C   0  0  0  0  0  0
   68.0370   73.9170   72.2120 C   0  0  0  0  0  0
   68.6730   75.1430   72.5840 C   0  0  0  0  0  0
   70.1080   75.2510   72.5690 C   0  0  0  0  0  0
   70.9870   76.8570   73.0760 Br  0  0  0  0  0  0
   70.8750   74.1130   72.1710 C   0  0  0  0  0  0
   70.2360   72.8970   71.8020 C   0  0  0  0  0  0
   68.4430   70.2330   71.9910 C   0  0  0  0  0  0
   67.6610   69.2200   71.4320 O   0  0  0  0  0  0
   66.8400   69.7740   70.4910 C   0  0  0  0  0  0
   65.8630   69.1990   69.6420 C   0  0  0  0  0  0
   63.8030   68.0950   57.9370 C   0  0  0  0  0  0
   62.3905   69.6264   57.5770 H   0  0  0  0  0  0
   61.9716   68.7119   60.2035 H   0  0  0  0  0  0
   63.6596   69.3116   60.3362 H   0  0  0  0  0  0
   62.6378   71.3823   59.1387 H   0  0  0  0  0  0
   60.4067   70.3689   58.9084 H   0  0  0  0  0  0
   60.3699   71.8572   59.9135 H   0  0  0  0  0  0
   60.2890   70.2425   60.6963 H   0  0  0  0  0  0
   63.7476   71.3547   61.3410 H   0  0  0  0  0  0
   62.3236   72.4493   61.3101 H   0  0  0  0  0  0
   61.9333   71.5073   63.3403 H   0  0  0  0  0  0
   61.1651   70.2104   62.3634 H   0  0  0  0  0  0
   62.5916   68.7725   63.4060 H   0  0  0  0  0  0
   63.8927   69.4911   62.3973 H   0  0  0  0  0  0
   64.8976   70.2006   64.2862 H   0  0  0  0  0  0
   63.4931   71.2779   64.5920 H   0  0  0  0  0  0
   62.5869   69.8683   66.1679 H   0  0  0  0  0  0
   63.0949   68.3872   65.2875 H   0  0  0  0  0  0
   64.9980   68.2073   66.5179 H   0  0  0  0  0  0
   65.4087   69.9366   66.2586 H   0  0  0  0  0  0
   64.8877   72.0914   68.0373 H   0  0  0  0  0  0
   66.6256   73.1156   69.5501 H   0  0  0  0  0  0
   66.9495   73.8452   72.2267 H   0  0  0  0  0  0
   68.0678   75.9997   72.8803 H   0  0  0  0  0  0
   71.9629   74.1775   72.1499 H   0  0  0  0  0  0
   70.8399   72.0409   71.5011 H   0  0  0  0  0  0
   69.1889   70.0700   72.7689 H   0  0  0  0  0  0
   65.6539   68.1296   69.6691 H   0  0  0  0  0  0
   64.3665   67.5206   58.6870 H   0  0  0  0  0  0
   63.9378   67.8823   56.8662 H   0  0  0  0  0  0
  1  2  1  0  0  0
  1 28  2  0  0  0
  1 29  1  0  0  0
  2  3  1  0  0  0
  2 30  1  0  0  0
  2 31  1  0  0  0
  3  4  1  0  0  0
  3  5  1  0  0  0
  3 32  1  0  0  0
  4 33  1  0  0  0
  4 34  1  0  0  0
  4 35  1  0  0  0
  5  6  1  0  0  0
  5 36  1  0  0  0
  5 37  1  0  0  0
  6  7  1  0  0  0
  6 38  1  0  0  0
  6 39  1  0  0  0
  7  8  1  0  0  0
  7 40  1  0  0  0
  7 41  1  0  0  0
  8  9  1  0  0  0
  8 42  1  0  0  0
  8 43  1  0  0  0
  9 10  1  0  0  0
  9 44  1  0  0  0
  9 45  1  0  0  0
 10 11  1  0  0  0
 10 46  1  0  0  0
 10 47  1  0  0  0
 11 12  1  0  0  0
 12 13  2  0  0  0
 12 27  1  0  0  0
 13 14  1  0  0  0
 13 48  1  0  0  0
 14 15  2  0  0  0
 14 49  1  0  0  0
 15 16  1  0  0  0
 15 26  1  0  0  0
 16 17  1  0  0  0
 16 24  2  0  0  0
 17 18  2  0  0  0
 17 23  1  0  0  0
 18 19  1  0  0  0
 18 50  1  0  0  0
 19 20  2  0  0  0
 19 51  1  0  0  0
 20 21  1  0  0  0
 20 22  1  0  0  0
 22 23  2  0  0  0
 22 52  1  0  0  0
 23 53  1  0  0  0
 24 25  1  0  0  0
 24 54  1  0  0  0
 25 26  1  0  0  0
 26 27  2  0  0  0
 27 55  1  0  0  0
 28 56  1  0  0  0
 28 57  1  0  0  0
M  CHG  1   3   1
M  END
> <s_m_source_file>
../1o6r_ligand.sdf

> <i_m_source_file_index>
1

> <s_epik_input>
W0NIMl09W0NIXVtDSDJdW05AQEgrXShbQ0gzXSlbQ0gyXVtDSDJdW0NIMl1bQ0gyXVtDSDJdW0NIMl1PYyhbY0hdW2NIXTEpW2NIXWMoYzEyKW9bY0hdYzItYzNbY0hdW2NIXWMoQnIpW2NIXVtjSF0z

> <s_epik_cmdline>
J2VwaWtfYXBwJywgJy1pbWFlJywgJ2xpZ2FuZF9wcm8ubWFlJywgJy1vbWFlJywgJ2xpZ2FuZF9wcmVwLm1hZScsICctbXMnLCAnMScsICctcGgnLCAnNycsICctcGh0JywgJzAuNScsICctbnQn

> <r_lp_tautomer_probability>
1

> <r_epik_Ionization_Penalty>
  0.0074

> <r_epik_Ionization_Penalty_Charging>
  0.0074

> <r_epik_Ionization_Penalty_Neutral>
  0.0000

> <r_epik_State_Penalty>
 -0.0000

> <r_epik_Charging_Adjusted_Penalty>
0.00740627652126178

> <i_epik_Tot_Q>
1

> <i_epik_Tot_abs_Q>
1

$$$$
