1o79_ligand
                    3D
 Schrodinger Suite 2020-3.
 65 68  0  0  1  0            999 V2000
   61.7520   70.3400   59.1340 C   0  0  0  0  0  0
   60.7820   70.9170   60.2370 C   0  0  0  0  0  0
   61.5940   71.6910   61.3290 C   0  0  0  0  0  0
   62.5460   70.7590   62.0580 N   0  3  0  0  0  0
   63.0710   69.6150   61.2130 C   0  0  0  0  0  0
   63.1830   70.0230   59.7080 C   0  0  0  0  0  0
   62.0010   70.2320   63.3320 C   0  0  0  0  0  0
   62.9580   70.3870   64.5090 C   0  0  0  0  0  0
   63.0800   69.3500   65.4870 C   0  0  0  0  0  0
   63.9740   69.4960   66.5960 C   0  0  0  0  0  0
   64.7520   70.6900   66.7280 C   0  0  0  0  0  0
   64.6160   71.7070   65.7420 C   0  0  0  0  0  0
   63.7340   71.5600   64.6500 C   0  0  0  0  0  0
   65.7250   70.9580   67.8770 C   0  0  1  0  0  0
   65.0390   70.7730   69.2760 C   0  0  0  0  0  0
   66.0410   71.1580   70.3970 C   0  0  0  0  0  0
   67.3610   70.3230   70.3060 C   0  0  1  0  0  0
   68.0190   70.4790   68.9070 C   0  0  0  0  0  0
   67.0290   70.0880   67.7630 C   0  0  0  0  0  0
   68.3170   70.6110   71.4130 N   0  0  0  0  0  0
   68.7570   71.9310   71.6240 C   0  0  0  0  0  0
   69.6140   72.2890   72.6020 O   0  0  0  0  0  0
   70.0550   73.6240   72.7930 C   0  0  0  0  0  0
   71.2600   74.0710   72.1760 C   0  0  0  0  0  0
   71.7170   75.4060   72.3770 C   0  0  0  0  0  0
   70.9750   76.3010   73.1950 C   0  0  0  0  0  0
   69.7630   75.8640   73.8100 C   0  0  0  0  0  0
   69.3040   74.5260   73.6100 C   0  0  0  0  0  0
   68.7920   69.5240   72.2780 C   0  0  0  0  0  0
   68.3890   72.8750   70.9230 O   0  0  0  0  0  0
   71.5620   77.9300   73.4440 Cl  0  0  0  0  0  0
   61.3324   69.4077   58.7281 H   0  0  0  0  0  0
   61.8641   71.0751   58.3234 H   0  0  0  0  0  0
   60.0639   71.6067   59.7693 H   0  0  0  0  0  0
   60.2374   70.0897   60.7155 H   0  0  0  0  0  0
   62.1786   72.4917   60.8524 H   0  0  0  0  0  0
   60.8993   72.1298   62.0603 H   0  0  0  0  0  0
   63.3964   71.4055   62.3205 H   0  0  0  0  0  0
   64.0693   69.3229   61.5709 H   0  0  0  0  0  0
   62.3875   68.7568   61.2923 H   0  0  0  0  0  0
   63.6312   69.1951   59.1390 H   0  0  0  0  0  0
   63.8196   70.9157   59.6194 H   0  0  0  0  0  0
   61.0755   70.7699   63.5852 H   0  0  0  0  0  0
   61.7833   69.1594   63.2219 H   0  0  0  0  0  0
   62.4872   68.4408   65.3871 H   0  0  0  0  0  0
   64.0616   68.7011   67.3366 H   0  0  0  0  0  0
   65.2057   72.6192   65.8320 H   0  0  0  0  0  0
   63.6507   72.3564   63.9104 H   0  0  0  0  0  0
   66.0087   72.0152   67.7683 H   0  0  0  0  0  0
   64.1521   71.4207   69.3380 H   0  0  0  0  0  0
   64.7355   69.7229   69.3996 H   0  0  0  0  0  0
   66.2989   72.2236   70.3081 H   0  0  0  0  0  0
   65.5815   70.9727   71.3791 H   0  0  0  0  0  0
   67.1174   69.2633   70.4725 H   0  0  0  0  0  0
   68.3252   71.5253   68.7605 H   0  0  0  0  0  0
   68.9019   69.8261   68.8422 H   0  0  0  0  0  0
   66.7682   69.0231   67.8523 H   0  0  0  0  0  0
   67.5060   70.2682   66.7883 H   0  0  0  0  0  0
   71.8339   73.3893   71.5483 H   0  0  0  0  0  0
   72.6387   75.7419   71.9018 H   0  0  0  0  0  0
   69.1883   76.5506   74.4316 H   0  0  0  0  0  0
   68.3795   74.1920   74.0811 H   0  0  0  0  0  0
   68.3387   68.5748   71.9564 H   0  0  0  0  0  0
   68.5060   69.7326   73.3195 H   0  0  0  0  0  0
   69.8872   69.4502   72.2062 H   0  0  0  0  0  0
  1  2  1  0  0  0
  1  6  1  0  0  0
  1 32  1  0  0  0
  1 33  1  0  0  0
  2  3  1  0  0  0
  2 34  1  0  0  0
  2 35  1  0  0  0
  3  4  1  0  0  0
  3 36  1  0  0  0
  3 37  1  0  0  0
  4  5  1  0  0  0
  4  7  1  0  0  0
  4 38  1  0  0  0
  5  6  1  0  0  0
  5 39  1  0  0  0
  5 40  1  0  0  0
  6 41  1  0  0  0
  6 42  1  0  0  0
  7  8  1  0  0  0
  7 43  1  0  0  0
  7 44  1  0  0  0
  8  9  2  0  0  0
  8 13  1  0  0  0
  9 10  1  0  0  0
  9 45  1  0  0  0
 10 11  2  0  0  0
 10 46  1  0  0  0
 11 12  1  0  0  0
 11 14  1  0  0  0
 12 13  2  0  0  0
 12 47  1  0  0  0
 13 48  1  0  0  0
 14 15  1  0  0  0
 14 19  1  0  0  0
 14 49  1  0  0  0
 15 16  1  0  0  0
 15 50  1  0  0  0
 15 51  1  0  0  0
 16 17  1  0  0  0
 16 52  1  0  0  0
 16 53  1  0  0  0
 17 18  1  0  0  0
 17 20  1  0  0  0
 17 54  1  0  0  0
 18 19  1  0  0  0
 18 55  1  0  0  0
 18 56  1  0  0  0
 19 57  1  0  0  0
 19 58  1  0  0  0
 20 21  1  0  0  0
 20 29  1  0  0  0
 21 22  1  0  0  0
 21 30  2  0  0  0
 22 23  1  0  0  0
 23 24  2  0  0  0
 23 28  1  0  0  0
 24 25  1  0  0  0
 24 59  1  0  0  0
 25 26  2  0  0  0
 25 60  1  0  0  0
 26 27  1  0  0  0
 26 31  1  0  0  0
 27 28  2  0  0  0
 27 61  1  0  0  0
 28 62  1  0  0  0
 29 63  1  0  0  0
 29 64  1  0  0  0
 29 65  1  0  0  0
M  CHG  1   4   1
M  END
> <s_m_source_file>
../1o79_ligand.sdf

> <i_m_source_file_index>
1

> <s_epik_input>
W0NIMl0xW0NIMl1bQ0gyXVtDSDJdW0NIMl1bTkgrXTFbQ0gyXWMyW2NIXVtjSF1jKFtjSF1bY0hdMilbQ0BIXTNbQ0gyXVtDSDJdW0NAQEhdKFtDSDJdW0NIMl0zKU4oW0NIM10pQyg9TylPYzRbY0hdW2NIXWMoQ2wpW2NIXVtjSF00

> <s_epik_cmdline>
J2VwaWtfYXBwJywgJy1pbWFlJywgJ2xpZ2FuZF9wcm8ubWFlJywgJy1vbWFlJywgJ2xpZ2FuZF9wcmVwLm1hZScsICctbXMnLCAnMScsICctcGgnLCAnNycsICctcGh0JywgJzAuNScsICctbnQn

> <r_lp_tautomer_probability>
1

> <r_epik_Ionization_Penalty>
  0.0083

> <r_epik_Ionization_Penalty_Charging>
  0.0083

> <r_epik_Ionization_Penalty_Neutral>
  0.0000

> <r_epik_State_Penalty>
 -0.0000

> <r_epik_Charging_Adjusted_Penalty>
0.00829148433191031

> <i_epik_Tot_Q>
1

> <i_epik_Tot_abs_Q>
1

$$$$
