1o7o_ligand
                    3D
 Schrodinger Suite 2020-3.
 36 37  0  0  1  0            999 V2000
    2.7980   12.2760   43.2600 N   0  0  0  0  0  0
    2.8580   13.2490   42.2550 C   0  0  0  0  0  0
    2.4690   14.5290   42.6230 N   0  0  0  0  0  0
    2.0220   14.9360   43.9060 C   0  0  0  0  0  0
    1.9800   13.8950   44.9040 C   0  0  0  0  0  0
    2.3560   12.6400   44.5610 C   0  0  0  0  0  0
    3.2340   12.9960   41.1040 O   0  0  0  0  0  0
    1.7160   16.1160   44.0590 O   0  0  0  0  0  0
    3.2030   10.8640   42.9290 C   0  0  1  0  0  0
    4.7110   10.6500   42.7340 C   0  0  2  0  0  0
    4.9650    9.6070   41.8060 O   0  0  0  0  0  0
    5.1590   10.3290   44.1570 C   0  0  1  0  0  0
    4.0310    9.4060   44.6430 C   0  0  2  0  0  0
    2.8340    9.9720   44.0030 O   0  0  0  0  0  0
    6.4160    9.6420   44.0790 O   0  0  0  0  0  0
    3.7950    9.4110   46.1830 C   0  0  0  0  0  0
    4.2510   10.6570   46.6870 O   0  0  0  0  0  0
    5.5370   11.0880   47.4820 P   0  0  1  0  0  0
    6.7130   10.5410   46.7570 O   0  0  0  0  0  0
    5.4530   12.5810   47.6600 O   0  5  0  0  0  0
    5.3350   10.2880   48.8260 O   0  0  0  0  0  0
    6.3900   10.0760   50.0050 P   0  0  0  0  0  0
    7.3570    8.9120   49.4600 O   0  5  0  0  0  0
    5.5320    9.6400   51.1320 O   0  5  0  0  0  0
    7.2980   11.2360   50.1610 O   0  0  0  0  0  0
    2.4910   15.3441   41.8847 H   0  0  0  0  0  0
    1.6504   14.1154   45.9193 H   0  0  0  0  0  0
    2.3175   11.8648   45.3263 H   0  0  0  0  0  0
    2.6454   10.6315   42.0098 H   0  0  0  0  0  0
    5.2776   11.4585   42.2489 H   0  0  0  0  0  0
    4.6829    9.7297   40.7499 H   0  0  0  0  0  0
    5.3689   11.1773   44.8250 H   0  0  0  0  0  0
    4.2433    8.3659   44.3548 H   0  0  0  0  0  0
    7.3163   10.1787   43.7452 H   0  0  0  0  0  0
    2.7220    9.2849   46.3899 H   0  0  0  0  0  0
    4.3566    8.5844   46.6427 H   0  0  0  0  0  0
  1  2  1  0  0  0
  1  6  1  0  0  0
  1  9  1  0  0  0
  2  3  1  0  0  0
  2  7  2  0  0  0
  3  4  1  0  0  0
  3 26  1  0  0  0
  4  5  1  0  0  0
  4  8  2  0  0  0
  5  6  2  0  0  0
  5 27  1  0  0  0
  6 28  1  0  0  0
  9 10  1  0  0  0
  9 14  1  0  0  0
  9 29  1  0  0  0
 10 11  1  0  0  0
 10 12  1  0  0  0
 10 30  1  0  0  0
 11 31  1  0  0  0
 12 13  1  0  0  0
 12 15  1  0  0  0
 12 32  1  0  0  0
 13 14  1  0  0  0
 13 16  1  0  0  0
 13 33  1  0  0  0
 15 34  1  0  0  0
 16 17  1  0  0  0
 16 35  1  0  0  0
 16 36  1  0  0  0
 17 18  1  0  0  0
 18 19  2  0  0  0
 18 20  1  0  0  0
 18 21  1  0  0  0
 21 22  1  0  0  0
 22 23  1  0  0  0
 22 24  1  0  0  0
 22 25  2  0  0  0
M  CHG  3  20  -1  23  -1  24  -1
M  END
> <s_m_source_file>
../1o7o_ligand.sdf

> <i_m_source_file_index>
1

> <s_epik_input>
W2NIXTFbY0hdYyg9TylbbkhdYyg9TyluMVtDQEhdMltDQEhdKFtPSF0pW0NASF0oW09IXSlbQ0BIXShPMilbQ0gyXU9bUEBAXSg9TykoW09IXSlPUCg9TykoW09IXSlbT0hd

> <s_epik_cmdline>
J2VwaWtfYXBwJywgJy1pbWFlJywgJ2xpZ2FuZF9wcm8ubWFlJywgJy1vbWFlJywgJ2xpZ2FuZF9wcmVwLm1hZScsICctbXMnLCAnMScsICctcGgnLCAnNycsICctcGh0JywgJzAuNScsICctbnQn

> <r_lp_tautomer_probability>
0.999537046341301

> <r_epik_Ionization_Penalty>
  0.1061

> <r_epik_Ionization_Penalty_Charging>
  0.1061

> <r_epik_Ionization_Penalty_Neutral>
  0.0000

> <r_epik_State_Penalty>
  0.0923

> <r_epik_Charging_Adjusted_Penalty>
0.198376686346359

> <i_epik_Tot_Q>
-3

> <i_epik_Tot_abs_Q>
3

> <s_epik_Chemistry_Notes>
This compound contains an acetal/aminal-like group ( X-CH(R)-Y where X, Y are N, S, or O) that may be acid/base labile, releasing an aldehyde.

$$$$
