1o86_ligand
                    3D
 Schrodinger Suite 2020-3.
 60 61  0  0  1  0            999 V2000
   40.2910   33.7430   45.1200 O   0  0  0  0  0  0
   43.3690   36.2010   48.2690 O   0  5  0  0  0  0
   41.9390   37.2830   47.0690 O   0  0  0  0  0  0
   38.8430   33.3680   41.8670 O   0  5  0  0  0  0
   40.7030   32.2720   42.3260 O   0  0  0  0  0  0
   41.8970   34.0630   47.2660 N   0  3  0  0  0  0
   41.8100   34.5330   43.5990 N   0  0  0  0  0  0
   43.3290   27.7740   44.0870 N   0  3  0  0  0  0
   41.5020   34.0520   44.8400 C   0  0  0  0  0  0
   42.6120   33.8520   45.9430 C   0  0  2  0  0  0
   42.2590   36.2670   47.6540 C   0  0  0  0  0  0
   41.3150   35.0650   47.6820 C   0  0  2  0  0  0
   40.7150   34.6850   42.5590 C   0  0  1  0  0  0
   41.5050   35.2370   41.3530 C   0  0  0  0  0  0
   42.8260   35.3690   41.6800 C   0  0  0  0  0  0
   43.1380   34.9560   43.0620 C   0  0  0  0  0  0
   40.0810   33.2840   42.2240 C   0  0  0  0  0  0
   43.2520   32.4730   45.7840 C   0  0  0  0  0  0
   42.4840   31.2480   45.5360 C   0  0  0  0  0  0
   43.2960   30.0620   44.8420 C   0  0  0  0  0  0
   42.4870   28.8950   44.6290 C   0  0  0  0  0  0
   40.5860   35.3650   48.9320 C   0  0  0  0  0  0
   39.4080   36.2990   49.1630 C   0  0  0  0  0  0
   38.8470   36.4010   50.5490 C   0  0  0  0  0  0
   38.5660   35.2060   51.3310 C   0  0  0  0  0  0
   38.0160   35.3190   52.6560 C   0  0  0  0  0  0
   37.7370   36.6270   53.2180 C   0  0  0  0  0  0
   38.0140   37.8220   52.4430 C   0  0  0  0  0  0
   38.5680   37.7100   51.1120 C   0  0  0  0  0  0
   42.7205   33.8073   47.9489 H   0  0  0  0  0  0
   41.1891   33.2226   47.2145 H   0  0  0  0  0  0
   42.6992   26.8862   43.9280 H   0  0  0  0  0  0
   44.1265   27.5339   44.8056 H   0  0  0  0  0  0
   43.7775   28.0815   43.1308 H   0  0  0  0  0  0
   43.4632   34.5473   45.8992 H   0  0  0  0  0  0
   40.6073   34.6211   46.9664 H   0  0  0  0  0  0
   39.8953   35.3409   42.8873 H   0  0  0  0  0  0
   41.4099   34.5439   40.5041 H   0  0  0  0  0  0
   41.1022   36.2207   41.0700 H   0  0  0  0  0  0
   43.4343   34.7472   41.0067 H   0  0  0  0  0  0
   43.1258   36.4223   41.5770 H   0  0  0  0  0  0
   43.5327   35.7834   43.6700 H   0  0  0  0  0  0
   43.8364   34.1070   43.1005 H   0  0  0  0  0  0
   43.9453   32.4868   44.9301 H   0  0  0  0  0  0
   43.8040   32.2171   46.7004 H   0  0  0  0  0  0
   42.1077   30.8516   46.4906 H   0  0  0  0  0  0
   41.6358   31.4748   44.8734 H   0  0  0  0  0  0
   43.6713   30.3978   43.8640 H   0  0  0  0  0  0
   44.1439   29.7750   45.4813 H   0  0  0  0  0  0
   41.6895   29.1351   43.9104 H   0  0  0  0  0  0
   42.0385   28.5875   45.5852 H   0  0  0  0  0  0
   40.1466   34.4391   49.3314 H   0  0  0  0  0  0
   41.2829   35.7884   49.6703 H   0  0  0  0  0  0
   39.6972   37.3265   48.8974 H   0  0  0  0  0  0
   38.5610   35.9829   48.5364 H   0  0  0  0  0  0
   38.7730   34.2216   50.9113 H   0  0  0  0  0  0
   37.8088   34.4209   53.2379 H   0  0  0  0  0  0
   37.3197   36.7120   54.2214 H   0  0  0  0  0  0
   37.8043   38.8051   52.8645 H   0  0  0  0  0  0
   38.7762   38.6085   50.5312 H   0  0  0  0  0  0
  1  9  2  0  0  0
  2 11  1  0  0  0
  3 11  2  0  0  0
  4 17  1  0  0  0
  5 17  2  0  0  0
  6 12  1  0  0  0
  6 10  1  0  0  0
  6 30  1  0  0  0
  6 31  1  0  0  0
  7 16  1  0  0  0
  7 13  1  0  0  0
  7  9  1  0  0  0
  8 21  1  0  0  0
  8 32  1  0  0  0
  8 33  1  0  0  0
  8 34  1  0  0  0
  9 10  1  0  0  0
 10 18  1  0  0  0
 10 35  1  0  0  0
 11 12  1  0  0  0
 12 22  1  0  0  0
 12 36  1  0  0  0
 13 14  1  0  0  0
 13 17  1  0  0  0
 13 37  1  0  0  0
 14 15  1  0  0  0
 14 38  1  0  0  0
 14 39  1  0  0  0
 15 16  1  0  0  0
 15 40  1  0  0  0
 15 41  1  0  0  0
 16 42  1  0  0  0
 16 43  1  0  0  0
 18 19  1  0  0  0
 18 44  1  0  0  0
 18 45  1  0  0  0
 19 20  1  0  0  0
 19 46  1  0  0  0
 19 47  1  0  0  0
 20 21  1  0  0  0
 20 48  1  0  0  0
 20 49  1  0  0  0
 21 50  1  0  0  0
 21 51  1  0  0  0
 22 23  1  0  0  0
 22 52  1  0  0  0
 22 53  1  0  0  0
 23 24  1  0  0  0
 23 54  1  0  0  0
 23 55  1  0  0  0
 24 25  2  0  0  0
 24 29  1  0  0  0
 25 26  1  0  0  0
 25 56  1  0  0  0
 26 27  2  0  0  0
 26 57  1  0  0  0
 27 28  1  0  0  0
 27 58  1  0  0  0
 28 29  2  0  0  0
 28 59  1  0  0  0
 29 60  1  0  0  0
M  CHG  4   2  -1   4  -1   6   1   8   1
M  END
> <s_m_source_file>
../1o86_ligand.sdf

> <i_m_source_file_index>
1

> <s_epik_input>
W0NIMl0xW0NIMl1bQ0gyXVtDQEBIXShDKD1PKVtPSF0pTjFDKD1PKVtDQEhdKFtDSDJdW0NIMl1bQ0gyXVtDSDJdW05IMytdKVtOSDIrXVtDQEhdKEMoPU8pW09IXSlbQ0gyXVtDSDJdYzJbY0hdW2NIXVtjSF1bY0hdW2NIXTI=

> <s_epik_cmdline>
J2VwaWtfYXBwJywgJy1pbWFlJywgJ2xpZ2FuZF9wcm8ubWFlJywgJy1vbWFlJywgJ2xpZ2FuZF9wcmVwLm1hZScsICctbXMnLCAnMScsICctcGgnLCAnNycsICctcGh0JywgJzAuNScsICctbnQn

> <r_epik_Ionization_Penalty>
  0.1334

> <r_epik_Ionization_Penalty_Charging>
  0.1334

> <r_epik_Ionization_Penalty_Neutral>
  0.0000

> <r_epik_State_Penalty>
  0.1219

> <r_epik_Charging_Adjusted_Penalty>
0.255282877585445

> <i_epik_Tot_Q>
0

> <i_epik_Tot_abs_Q>
4

$$$$
