1o8b_ligand
                    3D
 Schrodinger Suite 2020-3.
 23 23  0  0  1  0            999 V2000
   21.7590   19.8370   19.9980 C   0  0  2  0  0  0
   23.1140   20.3290   19.8870 O   0  0  0  0  0  0
   21.2080   19.9720   18.7340 C   0  0  1  0  0  0
   19.9260   19.7700   18.5840 O   0  0  0  0  0  0
   21.7520   21.1200   18.2010 C   0  0  2  0  0  0
   21.8190   21.2260   16.8910 O   0  0  0  0  0  0
   22.9380   21.3460   18.8660 C   0  0  1  0  0  0
   23.2640   22.7320   19.4010 C   0  0  0  0  0  0
   24.6380   22.7810   19.8570 O   0  0  0  0  0  0
   25.3410   24.0820   20.4970 P   0  0  0  0  0  0
   25.0900   25.2330   19.5990 O   0  0  0  0  0  0
   24.7530   24.3060   21.8770 O   0  5  0  0  0  0
   26.7530   23.6160   20.5740 O   0  5  0  0  0  0
   21.0990   20.4540   20.9190 O   0  0  0  0  0  0
   21.6401   18.8097   20.3729 H   0  0  0  0  0  0
   21.4107   19.0931   18.1044 H   0  0  0  0  0  0
   19.4600   18.8634   18.9974 H   0  0  0  0  0  0
   21.0344   21.9459   18.3144 H   0  0  0  0  0  0
   20.9196   21.0621   16.2792 H   0  0  0  0  0  0
   23.6025   21.2071   18.0004 H   0  0  0  0  0  0
   23.1225   23.4757   18.6029 H   0  0  0  0  0  0
   22.5963   22.9664   20.2432 H   0  0  0  0  0  0
   21.4447   20.4161   21.9626 H   0  0  0  0  0  0
  1  2  1  0  0  0
  1  3  1  0  0  0
  1 14  1  0  0  0
  1 15  1  0  0  0
  2  7  1  0  0  0
  3  4  1  0  0  0
  3  5  1  0  0  0
  3 16  1  0  0  0
  4 17  1  0  0  0
  5  6  1  0  0  0
  5  7  1  0  0  0
  5 18  1  0  0  0
  6 19  1  0  0  0
  7  8  1  0  0  0
  7 20  1  0  0  0
  8  9  1  0  0  0
  8 21  1  0  0  0
  8 22  1  0  0  0
  9 10  1  0  0  0
 10 11  2  0  0  0
 10 12  1  0  0  0
 10 13  1  0  0  0
 14 23  1  0  0  0
M  CHG  2  12  -1  13  -1
M  END
> <s_m_source_file>
../1o8b_ligand.sdf

> <i_m_source_file_index>
1

> <s_epik_input>
W09IXVtDQEhdMVtDQEhdKFtPSF0pW0NASF0oT1tDQEhdMVtPSF0pW0NIMl1PUCg9TykoW09IXSlbT0hd

> <s_epik_cmdline>
J2VwaWtfYXBwJywgJy1pbWFlJywgJ2xpZ2FuZF9wcm8ubWFlJywgJy1vbWFlJywgJ2xpZ2FuZF9wcmVwLm1hZScsICctbXMnLCAnMScsICctcGgnLCAnNycsICctcGh0JywgJzAuNScsICctbnQn

> <r_epik_Ionization_Penalty>
  0.1038

> <r_epik_Ionization_Penalty_Charging>
  0.1038

> <r_epik_Ionization_Penalty_Neutral>
  0.0000

> <r_epik_State_Penalty>
  0.0937

> <r_epik_Charging_Adjusted_Penalty>
0.197452413555015

> <i_epik_Tot_Q>
-2

> <i_epik_Tot_abs_Q>
2

> <s_epik_Chemistry_Notes>
This compound contains an acetal/aminal-like group ( X-CH(R)-Y where X, Y are N, S, or O) that may be acid/base labile, releasing an aldehyde.

$$$$
