1o9d_ligand
                    3D
 Schrodinger Suite 2020-3.
 85 85  0  0  1  0            999 V2000
   42.6670   52.3990   18.7130 N   0  3  0  0  0  0
   42.3850   52.2380   20.1780 C   0  0  2  0  0  0
   41.6340   53.4410   20.7690 C   0  0  0  0  0  0
   41.9900   54.5990   20.5720 O   0  0  0  0  0  0
   43.6830   51.9780   20.9540 C   0  0  0  0  0  0
   44.0490   50.4780   21.0650 C   0  0  0  0  0  0
   44.0420   49.7470   19.6860 C   0  0  0  0  0  0
   42.9770   49.5860   19.0530 O   0  0  0  0  0  0
   45.2350   49.3210   19.2180 N   0  0  0  0  0  0
   40.5650   53.1170   21.4770 N   0  0  0  0  0  0
   39.6770   54.0510   22.1080 C   0  0  2  0  0  0
   39.7010   53.7020   23.5850 C   0  0  0  0  0  0
   40.2050   52.6420   23.9750 O   0  0  0  0  0  0
   38.2660   53.8720   21.5370 C   0  0  0  0  0  0
   38.2760   53.9310   20.1070 O   0  0  0  0  0  0
   39.1790   54.5910   24.4190 N   0  0  0  0  0  0
   39.1710   54.3030   25.8440 C   0  0  2  0  0  0
   38.0600   53.3390   26.1670 C   0  0  0  0  0  0
   36.9490   53.4260   25.5950 O   0  0  0  0  0  0
   38.9320   55.5800   26.6560 C   0  0  0  0  0  0
   39.9690   56.6140   26.3860 C   0  0  0  0  0  0
   41.2040   56.5500   27.0160 C   0  0  0  0  0  0
   39.7640   57.5890   25.4170 C   0  0  0  0  0  0
   42.2200   57.4240   26.6910 C   0  0  0  0  0  0
   40.7900   58.4680   25.0670 C   0  0  0  0  0  0
   42.0130   58.3740   25.7100 C   0  0  0  0  0  0
   43.0620   59.1750   25.3290 O   0  0  0  0  0  0
   38.3750   52.4170   27.0700 N   0  0  0  0  0  0
   37.3710   51.4850   27.5990 C   0  0  1  0  0  0
   37.4850   50.0620   26.9410 C   0  0  1  0  0  0
   37.2130   50.1460   25.4340 C   0  0  0  0  0  0
   38.8010   49.5630   27.2530 O   0  0  0  0  0  0
   39.2920   48.0940   26.9360 P   0  0  0  0  0  0
   39.3670   47.9830   25.3450 O   0  5  0  0  0  0
   38.3110   47.0640   27.5230 O   0  0  0  0  0  0
   40.7410   47.9920   27.5400 O   0  5  0  0  0  0
   37.6790   51.4220   29.0860 C   0  0  0  0  0  0
   38.7290   51.9160   29.5110 O   0  0  0  0  0  0
   36.7880   50.8520   29.8720 N   0  0  0  0  0  0
   37.0160   50.6400   31.3000 C   0  0  2  0  0  0
   36.5540   49.2720   31.7310 C   0  0  0  0  0  0
   35.9690   48.5200   30.8860 O   0  5  0  0  0  0
   36.2920   51.6600   32.2150 C   0  0  0  0  0  0
   36.9540   53.0570   32.0280 C   0  0  0  0  0  0
   34.7730   51.6640   31.9200 C   0  0  0  0  0  0
   36.7840   48.9630   32.9360 O   0  0  0  0  0  0
   43.2039   51.5129   18.3434 H   0  0  0  0  0  0
   43.2855   53.2948   18.5550 H   0  0  0  0  0  0
   41.7184   52.5073   18.1668 H   0  0  0  0  0  0
   41.7261   51.3606   20.2559 H   0  0  0  0  0  0
   44.5194   52.4836   20.4493 H   0  0  0  0  0  0
   43.5827   52.3681   21.9776 H   0  0  0  0  0  0
   45.0576   50.3773   21.4922 H   0  0  0  0  0  0
   43.3225   49.9705   21.7167 H   0  0  0  0  0  0
   46.1479   49.4842   19.8095 H   0  0  0  0  0  0
   45.2938   48.8108   18.2453 H   0  0  0  0  0  0
   40.3788   52.0364   21.5638 H   0  0  0  0  0  0
   40.0268   55.0759   21.9152 H   0  0  0  0  0  0
   37.8670   52.8944   21.8454 H   0  0  0  0  0  0
   37.6126   54.6712   21.9169 H   0  0  0  0  0  0
   37.3368   53.8192   19.5453 H   0  0  0  0  0  0
   38.7559   55.5355   24.0464 H   0  0  0  0  0  0
   40.1560   53.8619   26.0568 H   0  0  0  0  0  0
   37.9500   56.0017   26.3955 H   0  0  0  0  0  0
   38.9555   55.3417   27.7296 H   0  0  0  0  0  0
   41.3742   55.7941   27.7827 H   0  0  0  0  0  0
   38.7939   57.6678   24.9263 H   0  0  0  0  0  0
   43.1796   57.3655   27.2047 H   0  0  0  0  0  0
   40.6303   59.2210   24.2952 H   0  0  0  0  0  0
   44.0306   59.0949   25.8442 H   0  0  0  0  0  0
   39.4160   52.3614   27.4210 H   0  0  0  0  0  0
   36.3648   51.8759   27.3873 H   0  0  0  0  0  0
   36.7904   49.3092   27.3421 H   0  0  0  0  0  0
   36.1969   50.5323   25.2658 H   0  0  0  0  0  0
   37.3028   49.1441   24.9888 H   0  0  0  0  0  0
   37.9442   50.8219   24.9666 H   0  0  0  0  0  0
   35.8416   50.5309   29.4125 H   0  0  0  0  0  0
   38.1091   50.7451   31.3634 H   0  0  0  0  0  0
   36.3926   51.3718   33.2718 H   0  0  0  0  0  0
   38.0286   52.9864   32.2520 H   0  0  0  0  0  0
   36.4838   53.7799   32.7109 H   0  0  0  0  0  0
   36.8172   53.3915   30.9890 H   0  0  0  0  0  0
   34.3678   50.6524   32.0698 H   0  0  0  0  0  0
   34.6024   51.9770   30.8794 H   0  0  0  0  0  0
   34.2691   52.3655   32.6012 H   0  0  0  0  0  0
  1  2  1  0  0  0
  1 47  1  0  0  0
  1 48  1  0  0  0
  1 49  1  0  0  0
  2  5  1  0  0  0
  2  3  1  0  0  0
  2 50  1  0  0  0
  3  4  2  0  0  0
  3 10  1  0  0  0
  5  6  1  0  0  0
  5 51  1  0  0  0
  5 52  1  0  0  0
  6  7  1  0  0  0
  6 53  1  0  0  0
  6 54  1  0  0  0
  7  9  1  0  0  0
  7  8  2  0  0  0
  9 55  1  0  0  0
  9 56  1  0  0  0
 10 11  1  0  0  0
 10 57  1  0  0  0
 11 14  1  0  0  0
 11 12  1  0  0  0
 11 58  1  0  0  0
 12 13  2  0  0  0
 12 16  1  0  0  0
 14 15  1  0  0  0
 14 59  1  0  0  0
 14 60  1  0  0  0
 15 61  1  0  0  0
 16 17  1  0  0  0
 16 62  1  0  0  0
 17 20  1  0  0  0
 17 18  1  0  0  0
 17 63  1  0  0  0
 18 19  2  0  0  0
 18 28  1  0  0  0
 20 21  1  0  0  0
 20 64  1  0  0  0
 20 65  1  0  0  0
 21 22  2  0  0  0
 21 23  1  0  0  0
 22 24  1  0  0  0
 22 66  1  0  0  0
 23 25  2  0  0  0
 23 67  1  0  0  0
 24 26  2  0  0  0
 24 68  1  0  0  0
 25 26  1  0  0  0
 25 69  1  0  0  0
 26 27  1  0  0  0
 27 70  1  0  0  0
 28 29  1  0  0  0
 28 71  1  0  0  0
 29 30  1  0  0  0
 29 37  1  0  0  0
 29 72  1  0  0  0
 30 31  1  0  0  0
 30 32  1  0  0  0
 30 73  1  0  0  0
 31 74  1  0  0  0
 31 75  1  0  0  0
 31 76  1  0  0  0
 32 33  1  0  0  0
 33 34  1  0  0  0
 33 35  2  0  0  0
 33 36  1  0  0  0
 37 39  1  0  0  0
 37 38  2  0  0  0
 39 40  1  0  0  0
 39 77  1  0  0  0
 40 43  1  0  0  0
 40 41  1  0  0  0
 40 78  1  0  0  0
 41 42  1  0  0  0
 41 46  2  0  0  0
 43 45  1  0  0  0
 43 44  1  0  0  0
 43 79  1  0  0  0
 44 80  1  0  0  0
 44 81  1  0  0  0
 44 82  1  0  0  0
 45 83  1  0  0  0
 45 84  1  0  0  0
 45 85  1  0  0  0
M  CHG  4   1   1  34  -1  36  -1  42  -1
M  END
> <s_m_source_file>
../1o9d_ligand.sdf

> <i_m_source_file_index>
1

> <s_epik_input>
Tz1DKFtOSDJdKVtDSDJdW0NIMl1bQ0BIXShbTkgzK10pQyg9TylbTkhdW0NAQEhdKFtDSDJdW09IXSlDKD1PKVtOSF1bQ0BASF0oW0NIMl1jMVtjSF1bY0hdYyhbT0hdKVtjSF1bY0hdMSlDKD1PKVtOSF1bQ0BASF0oW0NAQEhdKFtDSDNdKU9QKD1PKShbT0hdKVtPSF0pQyg9TylbTkhdW0NASF0oQyg9TylbT0hdKVtDSF0oW0NIM10pW0NIM10=

> <s_epik_cmdline>
J2VwaWtfYXBwJywgJy1pbWFlJywgJ2xpZ2FuZF9wcm8ubWFlJywgJy1vbWFlJywgJ2xpZ2FuZF9wcmVwLm1hZScsICctbXMnLCAnMScsICctcGgnLCAnNycsICctcGh0JywgJzAuNScsICctbnQn

> <r_lp_tautomer_probability>
1

> <r_epik_Ionization_Penalty>
  0.2781

> <r_epik_Ionization_Penalty_Charging>
  0.2772

> <r_epik_Ionization_Penalty_Neutral>
  0.0009

> <r_epik_State_Penalty>
 -0.0000

> <r_epik_Charging_Adjusted_Penalty>
0.277192187700848

> <i_epik_Tot_Q>
-2

> <i_epik_Tot_abs_Q>
4

$$$$
