1o9e_ligand
                    3D
 Schrodinger Suite 2020-3.
104107  0  0  1  0            999 V2000
   35.6590   49.1930   38.0610 C   0  0  0  0  0  0
   36.4920   50.1180   37.5040 C   0  0  0  0  0  0
   36.2070   51.6230   37.4270 C   0  0  2  0  0  0
   35.9240   52.0570   35.9870 C   0  0  0  0  0  0
   37.3930   52.4140   37.9720 C   0  0  0  0  0  0
   36.9210   53.6560   38.4990 O   0  0  0  0  0  0
   37.7960   54.4870   39.1150 C   0  0  0  0  0  0
   38.6440   54.0460   39.8750 O   0  0  0  0  0  0
   37.7160   55.9680   38.8690 C   0  0  0  0  0  0
   37.7300   49.4310   36.9420 C   0  0  0  0  0  0
   37.4690   47.9100   37.0180 C   0  0  2  0  0  0
   37.7500   47.2570   35.7690 O   0  0  0  0  0  0
   35.9890   47.8130   37.4870 C   0  0  1  0  0  0
   35.8440   46.7170   38.5520 C   0  0  0  0  0  0
   35.1460   47.3290   36.3110 C   0  0  0  0  0  0
   34.0440   47.8220   35.6870 C   0  0  0  0  0  0
   33.6080   47.1000   34.4270 C   0  0  1  0  0  0
   32.8500   45.8050   34.7500 C   0  0  0  0  0  0
   33.0130   44.8670   33.6860 O   0  0  0  0  0  0
   32.2570   43.6790   33.9150 C   0  0  0  0  0  0
   32.7160   48.0930   33.6660 C   0  0  0  0  0  0
   32.1060   49.0140   34.7470 C   0  0  0  0  0  0
   33.1010   49.0110   35.9180 C   0  0  1  0  0  0
   32.3800   49.0790   37.3340 C   0  0  1  0  0  0
   32.0750   47.7100   37.9640 C   0  0  0  0  0  0
   33.1390   49.9830   38.3780 C   0  0  1  0  0  0
   32.2450   50.2480   39.4560 O   0  0  0  0  0  0
   34.4640   49.4110   39.0190 C   0  0  2  0  0  0
   34.8820   50.3460   40.0340 O   0  0  0  0  0  0
   34.9630   49.8610   41.4040 C   0  0  1  0  0  0
   36.2230   49.1290   41.6190 O   0  0  0  0  0  0
   37.4510   49.9450   41.5300 C   0  0  1  0  0  0
   37.3750   51.2980   42.3260 C   0  0  1  0  0  0
   38.5100   52.1010   41.9930 O   0  0  0  0  0  0
   36.0570   52.0020   41.9240 C   0  0  2  0  0  0
   35.8930   53.4040   42.3160 O   0  0  0  0  0  0
   35.9270   53.8480   43.5980 C   0  0  0  0  0  0
   36.9920   54.1850   44.0910 O   0  0  0  0  0  0
   34.6420   53.9700   44.4010 C   0  0  0  0  0  0
   34.8800   51.0810   42.3540 C   0  0  1  0  0  0
   33.6310   51.7460   42.1640 O   0  0  0  0  0  0
   38.6510   49.1170   42.0000 C   0  0  0  0  0  0
   38.2970   48.3300   43.1690 O   0  0  0  0  0  0
   39.0400   47.1100   43.4980 C   0  0  0  0  0  0
   39.0280   46.1390   42.3090 C   0  0  0  0  0  0
   38.3790   46.4140   44.6960 C   0  0  0  0  0  0
   40.5000   47.4390   43.8450 C   0  0  0  0  0  0
   40.8270   48.4140   44.7290 C   0  0  0  0  0  0
   35.3176   51.8326   38.0394 H   0  0  0  0  0  0
   35.0693   51.4872   35.5936 H   0  0  0  0  0  0
   36.8106   51.8643   35.3650 H   0  0  0  0  0  0
   35.6888   53.1314   35.9674 H   0  0  0  0  0  0
   37.8845   51.8359   38.7684 H   0  0  0  0  0  0
   38.1109   52.6041   37.1606 H   0  0  0  0  0  0
   36.8993   56.1788   38.1629 H   0  0  0  0  0  0
   38.6676   56.3212   38.4450 H   0  0  0  0  0  0
   37.5226   56.4876   39.8191 H   0  0  0  0  0  0
   37.8850   49.7493   35.9005 H   0  0  0  0  0  0
   38.6080   49.7073   37.5443 H   0  0  0  0  0  0
   38.1635   47.3391   37.6518 H   0  0  0  0  0  0
   38.7700   47.2727   35.3574 H   0  0  0  0  0  0
   36.4281   46.9917   39.4427 H   0  0  0  0  0  0
   36.2158   45.7632   38.1495 H   0  0  0  0  0  0
   34.7842   46.6108   38.8269 H   0  0  0  0  0  0
   35.5979   46.3871   35.9666 H   0  0  0  0  0  0
   34.4836   46.7971   33.8341 H   0  0  0  0  0  0
   33.2459   45.3706   35.6799 H   0  0  0  0  0  0
   31.7802   46.0280   34.8759 H   0  0  0  0  0  0
   32.4068   42.9819   33.0774 H   0  0  0  0  0  0
   31.1897   43.9332   33.9942 H   0  0  0  0  0  0
   32.5916   43.2060   34.8500 H   0  0  0  0  0  0
   33.3284   48.6631   32.9519 H   0  0  0  0  0  0
   31.9354   47.5417   33.1213 H   0  0  0  0  0  0
   31.9787   50.0266   34.3367 H   0  0  0  0  0  0
   31.1275   48.6181   35.0564 H   0  0  0  0  0  0
   33.7266   49.9157   35.9067 H   0  0  0  0  0  0
   31.3977   49.5246   37.1183 H   0  0  0  0  0  0
   31.5453   47.0803   37.2340 H   0  0  0  0  0  0
   31.4445   47.8486   38.8546 H   0  0  0  0  0  0
   33.0171   47.2218   38.2540 H   0  0  0  0  0  0
   33.3922   50.9180   37.8568 H   0  0  0  0  0  0
   31.2445   50.6574   39.2528 H   0  0  0  0  0  0
   34.2446   48.4292   39.4638 H   0  0  0  0  0  0
   34.1483   49.1378   41.5564 H   0  0  0  0  0  0
   37.5333   50.1753   40.4575 H   0  0  0  0  0  0
   37.4513   51.1882   43.4178 H   0  0  0  0  0  0
   39.5245   51.7388   42.2159 H   0  0  0  0  0  0
   36.0773   52.1991   40.8420 H   0  0  0  0  0  0
   33.7949   53.6202   43.7927 H   0  0  0  0  0  0
   34.4829   55.0219   44.6807 H   0  0  0  0  0  0
   34.7184   53.3562   45.3106 H   0  0  0  0  0  0
   34.8725   50.8313   43.4253 H   0  0  0  0  0  0
   32.6912   51.2345   42.4192 H   0  0  0  0  0  0
   38.9667   48.4386   41.1937 H   0  0  0  0  0  0
   39.4817   49.7898   42.2594 H   0  0  0  0  0  0
   37.9884   45.8927   42.0472 H   0  0  0  0  0  0
   39.5653   45.2187   42.5817 H   0  0  0  0  0  0
   39.5217   46.6098   41.4461 H   0  0  0  0  0  0
   37.3332   46.1769   44.4510 H   0  0  0  0  0  0
   38.4087   47.0814   45.5699 H   0  0  0  0  0  0
   38.9216   45.4850   44.9255 H   0  0  0  0  0  0
   41.2915   46.8557   43.3518 H   0  0  0  0  0  0
   40.0355   48.9973   45.2222 H   0  0  0  0  0  0
   41.8838   48.6216   44.9528 H   0  0  0  0  0  0
  1  2  2  0  0  0
  1 13  1  0  0  0
  1 28  1  0  0  0
  2  3  1  0  0  0
  2 10  1  0  0  0
  3  4  1  0  0  0
  3  5  1  0  0  0
  3 49  1  0  0  0
  4 50  1  0  0  0
  4 51  1  0  0  0
  4 52  1  0  0  0
  5  6  1  0  0  0
  5 53  1  0  0  0
  5 54  1  0  0  0
  6  7  1  0  0  0
  7  8  2  0  0  0
  7  9  1  0  0  0
  9 55  1  0  0  0
  9 56  1  0  0  0
  9 57  1  0  0  0
 10 11  1  0  0  0
 10 58  1  0  0  0
 10 59  1  0  0  0
 11 12  1  0  0  0
 11 13  1  0  0  0
 11 60  1  0  0  0
 12 61  1  0  0  0
 13 14  1  0  0  0
 13 15  1  0  0  0
 14 62  1  0  0  0
 14 63  1  0  0  0
 14 64  1  0  0  0
 15 16  2  0  0  0
 15 65  1  0  0  0
 16 17  1  0  0  0
 16 23  1  0  0  0
 17 18  1  0  0  0
 17 21  1  0  0  0
 17 66  1  0  0  0
 18 19  1  0  0  0
 18 67  1  0  0  0
 18 68  1  0  0  0
 19 20  1  0  0  0
 20 69  1  0  0  0
 20 70  1  0  0  0
 20 71  1  0  0  0
 21 22  1  0  0  0
 21 72  1  0  0  0
 21 73  1  0  0  0
 22 23  1  0  0  0
 22 74  1  0  0  0
 22 75  1  0  0  0
 23 24  1  0  0  0
 23 76  1  0  0  0
 24 25  1  0  0  0
 24 26  1  0  0  0
 24 77  1  0  0  0
 25 78  1  0  0  0
 25 79  1  0  0  0
 25 80  1  0  0  0
 26 27  1  0  0  0
 26 28  1  0  0  0
 26 81  1  0  0  0
 27 82  1  0  0  0
 28 29  1  0  0  0
 28 83  1  0  0  0
 29 30  1  0  0  0
 30 31  1  0  0  0
 30 40  1  0  0  0
 30 84  1  0  0  0
 31 32  1  0  0  0
 32 33  1  0  0  0
 32 42  1  0  0  0
 32 85  1  0  0  0
 33 34  1  0  0  0
 33 35  1  0  0  0
 33 86  1  0  0  0
 34 87  1  0  0  0
 35 36  1  0  0  0
 35 40  1  0  0  0
 35 88  1  0  0  0
 36 37  1  0  0  0
 37 38  2  0  0  0
 37 39  1  0  0  0
 39 89  1  0  0  0
 39 90  1  0  0  0
 39 91  1  0  0  0
 40 41  1  0  0  0
 40 92  1  0  0  0
 41 93  1  0  0  0
 42 43  1  0  0  0
 42 94  1  0  0  0
 42 95  1  0  0  0
 43 44  1  0  0  0
 44 45  1  0  0  0
 44 46  1  0  0  0
 44 47  1  0  0  0
 45 96  1  0  0  0
 45 97  1  0  0  0
 45 98  1  0  0  0
 46 99  1  0  0  0
 46100  1  0  0  0
 46101  1  0  0  0
 47 48  2  0  0  0
 47102  1  0  0  0
 48103  1  0  0  0
 48104  1  0  0  0
M  END
> <s_m_source_file>
../1o9e_ligand.sdf

> <i_m_source_file_index>
1

> <s_epik_input>
W0NIM11PW0NIMl1bQ0BASF0oW0NIMl1bQ0gyXTEpXEMoPVtDSF1cMilbQ0BASF0xW0NAQEhdKFtDSDNdKVtDQEBIXShbT0hdKVtDQEBIXShDKFtDQEBdMjNbQ0gzXSk9QyhbQ0gyXVtDQEBIXTNbT0hdKVtDQEhdKFtDSDNdKVtDSDJdT0MoPU8pW0NIM10pT1tDQEhdNE9bQ0BASF0oW0NAQEhdKFtPSF0pW0NAQEhdKFtDQEhdNFtPSF0pT0MoPU8pW0NIM10pW0NIMl1PQyhbQ0gzXSkoW0NIM10pW0NIXT1bQ0gyXQ==

> <s_epik_cmdline>
J2VwaWtfYXBwJywgJy1pbWFlJywgJ2xpZ2FuZF9wcm8ubWFlJywgJy1vbWFlJywgJ2xpZ2FuZF9wcmVwLm1hZScsICctbXMnLCAnMScsICctcGgnLCAnNycsICctcGh0JywgJzAuNScsICctbnQn

> <r_lp_tautomer_probability>
1

> <r_epik_Ionization_Penalty>
  0.0001

> <r_epik_Ionization_Penalty_Charging>
  0.0000

> <r_epik_Ionization_Penalty_Neutral>
  0.0001

> <r_epik_State_Penalty>
 -0.0000

> <r_epik_Charging_Adjusted_Penalty>
0

> <i_epik_Tot_Q>
0

> <i_epik_Tot_abs_Q>
0

> <s_epik_Chemistry_Notes>
This compound has an ester and may undergo hydrolysis at high or low pH. This compound contains an acetal/aminal-like group ( X-CH(R)-Y where X, Y are N, S, or O) that may be acid/base labile, releasing an aldehyde.

$$$$
