1oai_ligand
                    3D
 Schrodinger Suite 2020-3.
124125  0  0  1  0            999 V2000
   -7.1970   43.7480  -10.8460 N   0  3  0  0  0  0
   -6.7680   42.3300  -10.6850 C   0  0  2  0  0  0
   -5.5670   42.0240  -11.5780 C   0  0  0  0  0  0
   -5.3940   40.8810  -12.0330 O   0  0  0  0  0  0
   -7.9180   41.3510  -10.9770 C   0  0  0  0  0  0
   -9.2240   41.7580  -10.3120 C   0  0  0  0  0  0
   -9.2200   42.7430   -9.5240 O   0  0  0  0  0  0
  -10.3150   41.1550  -10.5230 O   0  5  0  0  0  0
   -4.7540   43.0460  -11.8590 N   0  0  0  0  0  0
   -3.4900   42.8430  -12.5750 C   0  0  2  0  0  0
   -2.3730   42.4030  -11.6290 C   0  0  0  0  0  0
   -2.2840   42.8100  -10.4600 O   0  0  0  0  0  0
   -3.0490   44.1440  -13.3240 C   0  0  0  0  0  0
   -2.9030   45.1880  -12.4110 O   0  0  0  0  0  0
   -1.4780   41.6070  -12.1880 N   0  0  0  0  0  0
   -0.2590   41.2280  -11.5460 C   0  0  0  0  0  0
   -0.3500   39.8310  -10.9520 C   0  0  0  0  0  0
   -1.1400   38.9990  -11.3840 O   0  0  0  0  0  0
    0.5050   39.5650   -9.9890 N   0  0  0  0  0  0
    0.5740   38.2400   -9.3650 C   0  0  2  0  0  0
   -0.5090   38.0630   -8.3420 C   0  0  0  0  0  0
   -0.7230   38.9400   -7.5480 O   0  0  0  0  0  0
    1.9500   38.0350   -8.7400 C   0  0  0  0  0  0
    2.1900   36.5930   -8.3770 C   0  0  0  0  0  0
    2.6740   35.7020   -9.3240 C   0  0  0  0  0  0
    1.8940   36.1060   -7.1150 C   0  0  0  0  0  0
    2.8580   34.3780   -9.0300 C   0  0  0  0  0  0
    2.1020   34.7950   -6.8160 C   0  0  0  0  0  0
    2.5700   33.9270   -7.7460 C   0  0  0  0  0  0
   -1.2030   36.9130   -8.3770 N   0  0  0  0  0  0
   -2.1080   36.5860   -7.3070 C   0  0  2  0  0  0
   -1.9530   35.1390   -6.8950 C   0  0  0  0  0  0
   -1.5970   34.2750   -7.7270 O   0  0  0  0  0  0
   -3.4760   36.9490   -7.5710 C   0  0  0  0  0  0
   -3.9110   36.1480   -8.5050 O   0  0  0  0  0  0
   -2.2230   34.8810   -5.6430 N   0  0  0  0  0  0
   -2.1990   33.5090   -5.1170 C   0  0  2  0  0  0
   -3.5740   32.8530   -5.1420 C   0  0  0  0  0  0
   -4.5530   33.4490   -4.8980 O   0  0  0  0  0  0
   -1.7280   33.5570   -3.6640 C   0  0  0  0  0  0
   -0.2970   33.9830   -3.4910 C   0  0  0  0  0  0
    0.0270   35.3370   -3.3570 C   0  0  0  0  0  0
    0.7190   33.0480   -3.3890 C   0  0  0  0  0  0
    1.3490   35.7080   -3.1550 C   0  0  0  0  0  0
    2.0490   33.4370   -3.1920 C   0  0  0  0  0  0
    2.3390   34.7790   -3.0620 C   0  0  0  0  0  0
   -3.6540   31.5620   -5.2530 N   0  0  0  0  0  0
   -4.8880   30.7390   -5.2930 C   0  0  0  0  0  0
   -5.8410   30.9510   -6.4620 C   0  0  0  0  0  0
   -5.6450   31.8160   -7.3500 O   0  0  0  0  0  0
   -6.9290   30.1840   -6.4580 N   0  0  0  0  0  0
   -7.7920   30.0780   -7.6250 C   0  0  2  0  0  0
   -8.7980   31.2030   -7.8520 C   0  0  0  0  0  0
   -9.4480   31.2390   -8.8910 O   0  0  0  0  0  0
   -8.5850   28.8000   -7.4730 C   0  0  0  0  0  0
   -9.4440   28.7950   -6.3080 O   0  0  0  0  0  0
   -8.8910   32.1560   -6.9280 N   0  0  0  0  0  0
   -9.8870   33.2290   -7.0720 C   0  0  2  0  0  0
   -9.6700   34.0250   -8.3510 C   0  0  0  0  0  0
   -8.5350   34.3100   -8.7120 O   0  0  0  0  0  0
   -9.8270   34.1630   -5.8780 C   0  0  0  0  0  0
  -11.0480   35.0830   -5.7300 C   0  0  0  0  0  0
  -10.9450   35.9290   -4.4630 C   0  0  0  0  0  0
  -10.9100   35.0840   -3.1740 C   0  0  0  0  0  0
  -10.2230   35.7890   -1.9990 N   0  3  0  0  0  0
  -10.6140   34.3890   -9.0740 O   0  5  0  0  0  0
   -8.0614   43.9457  -10.1950 H   0  0  0  0  0  0
   -7.4781   43.9293  -11.8939 H   0  0  0  0  0  0
   -6.3682   44.4156  -10.5679 H   0  0  0  0  0  0
   -6.4719   42.2258   -9.6307 H   0  0  0  0  0  0
   -8.0941   41.3054  -12.0619 H   0  0  0  0  0  0
   -7.6507   40.3504  -10.6065 H   0  0  0  0  0  0
   -5.0500   44.0567  -11.5413 H   0  0  0  0  0  0
   -3.7158   42.0260  -13.2761 H   0  0  0  0  0  0
   -2.0891   43.9675  -13.8313 H   0  0  0  0  0  0
   -3.8124   44.4155  -14.0680 H   0  0  0  0  0  0
   -2.5960   46.1850  -12.7600 H   0  0  0  0  0  0
   -1.7080   41.2326  -13.1964 H   0  0  0  0  0  0
    0.5609   41.2408  -12.2792 H   0  0  0  0  0  0
   -0.0363   41.9365  -10.7345 H   0  0  0  0  0  0
    1.1793   40.3667   -9.6535 H   0  0  0  0  0  0
    0.3992   37.5043  -10.1639 H   0  0  0  0  0  0
    2.7270   38.3453   -9.4541 H   0  0  0  0  0  0
    2.0307   38.6396   -7.8246 H   0  0  0  0  0  0
    2.9129   36.0643  -10.3239 H   0  0  0  0  0  0
    1.4918   36.7772   -6.3562 H   0  0  0  0  0  0
    3.2244   33.6879   -9.7900 H   0  0  0  0  0  0
    1.8882   34.4359   -5.8093 H   0  0  0  0  0  0
    2.7202   32.8786   -7.4885 H   0  0  0  0  0  0
   -1.0794   36.2215   -9.2235 H   0  0  0  0  0  0
   -1.8330   37.2619   -6.4838 H   0  0  0  0  0  0
   -4.0699   36.8330   -6.6524 H   0  0  0  0  0  0
   -3.5195   37.9958   -7.9060 H   0  0  0  0  0  0
   -4.9437   36.2410   -8.8723 H   0  0  0  0  0  0
   -2.4727   35.7208   -4.9778 H   0  0  0  0  0  0
   -1.5197   32.9498   -5.7772 H   0  0  0  0  0  0
   -2.3466   34.2718   -3.1015 H   0  0  0  0  0  0
   -1.8225   32.5574   -3.2147 H   0  0  0  0  0  0
   -0.7536   36.0958   -3.4109 H   0  0  0  0  0  0
    0.4783   31.9875   -3.4636 H   0  0  0  0  0  0
    1.5995   36.7653   -3.0691 H   0  0  0  0  0  0
    2.8426   32.6915   -3.1421 H   0  0  0  0  0  0
    3.3662   35.0971   -2.8839 H   0  0  0  0  0  0
   -2.6682   31.0788   -5.3210 H   0  0  0  0  0  0
   -4.6171   29.6735   -5.3302 H   0  0  0  0  0  0
   -5.4879   30.9336   -4.3917 H   0  0  0  0  0  0
   -7.1694   29.6222   -5.5433 H   0  0  0  0  0  0
   -7.0765   30.1139   -8.4597 H   0  0  0  0  0  0
   -9.2243   28.6579   -8.3568 H   0  0  0  0  0  0
   -7.8944   27.9489   -7.3793 H   0  0  0  0  0  0
  -10.0712   27.9178   -6.0909 H   0  0  0  0  0  0
   -8.2215   32.1405   -6.0554 H   0  0  0  0  0  0
  -10.8637   32.7249   -7.1173 H   0  0  0  0  0  0
   -9.7570   33.5717   -4.9531 H   0  0  0  0  0  0
   -8.9441   34.8133   -5.9651 H   0  0  0  0  0  0
  -11.1083   35.7548   -6.5989 H   0  0  0  0  0  0
  -11.9619   34.4733   -5.6738 H   0  0  0  0  0  0
  -10.0221   36.5266   -4.4952 H   0  0  0  0  0  0
  -11.8142   36.6000   -4.3985 H   0  0  0  0  0  0
  -11.9382   34.8493   -2.8614 H   0  0  0  0  0  0
  -10.3618   34.1492   -3.3631 H   0  0  0  0  0  0
  -10.2353   35.1302   -1.1182 H   0  0  0  0  0  0
  -10.7586   36.7214   -1.7670 H   0  0  0  0  0  0
   -9.1822   36.0214   -2.2687 H   0  0  0  0  0  0
  1  2  1  0  0  0
  1 67  1  0  0  0
  1 68  1  0  0  0
  1 69  1  0  0  0
  2  5  1  0  0  0
  2  3  1  0  0  0
  2 70  1  0  0  0
  3  4  2  0  0  0
  3  9  1  0  0  0
  5  6  1  0  0  0
  5 71  1  0  0  0
  5 72  1  0  0  0
  6  7  2  0  0  0
  6  8  1  0  0  0
  9 10  1  0  0  0
  9 73  1  0  0  0
 10 13  1  0  0  0
 10 11  1  0  0  0
 10 74  1  0  0  0
 11 12  2  0  0  0
 11 15  1  0  0  0
 13 14  1  0  0  0
 13 75  1  0  0  0
 13 76  1  0  0  0
 14 77  1  0  0  0
 15 16  1  0  0  0
 15 78  1  0  0  0
 16 17  1  0  0  0
 16 79  1  0  0  0
 16 80  1  0  0  0
 17 18  2  0  0  0
 17 19  1  0  0  0
 19 20  1  0  0  0
 19 81  1  0  0  0
 20 23  1  0  0  0
 20 21  1  0  0  0
 20 82  1  0  0  0
 21 22  2  0  0  0
 21 30  1  0  0  0
 23 24  1  0  0  0
 23 83  1  0  0  0
 23 84  1  0  0  0
 24 25  2  0  0  0
 24 26  1  0  0  0
 25 27  1  0  0  0
 25 85  1  0  0  0
 26 28  2  0  0  0
 26 86  1  0  0  0
 27 29  2  0  0  0
 27 87  1  0  0  0
 28 29  1  0  0  0
 28 88  1  0  0  0
 29 89  1  0  0  0
 30 31  1  0  0  0
 30 90  1  0  0  0
 31 34  1  0  0  0
 31 32  1  0  0  0
 31 91  1  0  0  0
 32 33  2  0  0  0
 32 36  1  0  0  0
 34 35  1  0  0  0
 34 92  1  0  0  0
 34 93  1  0  0  0
 35 94  1  0  0  0
 36 37  1  0  0  0
 36 95  1  0  0  0
 37 40  1  0  0  0
 37 38  1  0  0  0
 37 96  1  0  0  0
 38 39  2  0  0  0
 38 47  1  0  0  0
 40 41  1  0  0  0
 40 97  1  0  0  0
 40 98  1  0  0  0
 41 42  2  0  0  0
 41 43  1  0  0  0
 42 44  1  0  0  0
 42 99  1  0  0  0
 43 45  2  0  0  0
 43100  1  0  0  0
 44 46  2  0  0  0
 44101  1  0  0  0
 45 46  1  0  0  0
 45102  1  0  0  0
 46103  1  0  0  0
 47 48  1  0  0  0
 47104  1  0  0  0
 48 49  1  0  0  0
 48105  1  0  0  0
 48106  1  0  0  0
 49 50  2  0  0  0
 49 51  1  0  0  0
 51 52  1  0  0  0
 51107  1  0  0  0
 52 55  1  0  0  0
 52 53  1  0  0  0
 52108  1  0  0  0
 53 54  2  0  0  0
 53 57  1  0  0  0
 55 56  1  0  0  0
 55109  1  0  0  0
 55110  1  0  0  0
 56111  1  0  0  0
 57 58  1  0  0  0
 57112  1  0  0  0
 58 61  1  0  0  0
 58 59  1  0  0  0
 58113  1  0  0  0
 59 60  2  0  0  0
 59 66  1  0  0  0
 61 62  1  0  0  0
 61114  1  0  0  0
 61115  1  0  0  0
 62 63  1  0  0  0
 62116  1  0  0  0
 62117  1  0  0  0
 63 64  1  0  0  0
 63118  1  0  0  0
 63119  1  0  0  0
 64 65  1  0  0  0
 64120  1  0  0  0
 64121  1  0  0  0
 65122  1  0  0  0
 65123  1  0  0  0
 65124  1  0  0  0
M  CHG  4   1   1   8  -1  65   1  66  -1
M  END
> <s_m_source_file>
../1oai_ligand.sdf

> <i_m_source_file_index>
1

> <s_epik_input>
Tz1DKFtPSF0pW0NIMl1bQ0BIXShbTkgzK10pQyg9TylbTkhdW0NAQEhdKFtDSDJdW09IXSlDKD1PKVtOSF1bQ0gyXUMoPU8pW05IXVtDQEBIXShbQ0gyXWMxW2NIXVtjSF1bY0hdW2NIXVtjSF0xKUMoPU8pW05IXVtDQEBIXShbQ0gyXVtPSF0pQyg9TylbTkhdW0NAQEhdKFtDSDJdYzJbY0hdW2NIXVtjSF1bY0hdW2NIXTIpQyg9TylbTkhdW0NIMl1DKD1PKVtOSF1bQ0BASF0oW0NIMl1bT0hdKUMoPU8pW05IXVtDQEhdKEMoPU8pW09IXSlbQ0gyXVtDSDJdW0NIMl1bQ0gyXVtOSDMrXQ==

> <s_epik_cmdline>
J2VwaWtfYXBwJywgJy1pbWFlJywgJ2xpZ2FuZF9wcm8ubWFlJywgJy1vbWFlJywgJ2xpZ2FuZF9wcmVwLm1hZScsICctbXMnLCAnMScsICctcGgnLCAnNycsICctcGh0JywgJzAuNScsICctbnQn

> <r_epik_Ionization_Penalty>
  0.0221

> <r_epik_Ionization_Penalty_Charging>
  0.0221

> <r_epik_Ionization_Penalty_Neutral>
  0.0000

> <r_epik_State_Penalty>
  0.0173

> <r_epik_Charging_Adjusted_Penalty>
0.0394097445886149

> <i_epik_Tot_Q>
0

> <i_epik_Tot_abs_Q>
4

$$$$
