1obx_ligand
                    3D
 Schrodinger Suite 2020-3.
 62 62  0  0  1  0            999 V2000
   28.8690   15.6980    8.9230 N   0  3  0  0  0  0
   27.3970   15.8440    8.8640 C   0  0  2  0  0  0
   26.8510   15.5960   10.2500 C   0  0  0  0  0  0
   27.4180   15.0050   11.1350 O   0  0  0  0  0  0
   26.8010   14.8030    7.9380 C   0  0  0  0  0  0
   27.1330   15.0100    6.4830 C   0  0  0  0  0  0
   28.2670   15.4310    6.0770 O   0  5  0  0  0  0
   26.2710   14.6850    5.6570 O   0  0  0  0  0  0
   25.6240   16.0290   10.4350 N   0  0  0  0  0  0
   24.9590   15.9060   11.7140 C   0  0  2  0  0  0
   24.3290   14.4960   11.8580 C   0  0  0  0  0  0
   23.7640   13.8850   10.9460 O   0  0  0  0  0  0
   23.9300   17.0440   11.8530 C   0  0  0  0  0  0
   24.5510   18.3430   11.8830 O   0  0  0  0  0  0
   24.4410   13.9960   13.0750 N   0  0  0  0  0  0
   23.7400   12.7760   13.4770 C   0  0  2  0  0  0
   22.5680   13.2180   14.3340 C   0  0  0  0  0  0
   22.6790   14.1300   15.1240 O   0  0  0  0  0  0
   24.6550   11.7390   14.2070 C   0  0  0  0  0  0
   25.3530   12.2850   15.3940 C   0  0  0  0  0  0
   23.8600   10.5360   14.6390 C   0  0  0  0  0  0
   21.4940   12.4640   14.1980 N   0  0  0  0  0  0
   20.2480   12.6800   14.9570 C   0  0  2  0  0  0
   19.7760   11.4140   15.6120 C   0  0  0  0  0  0
   20.2690   10.3470   15.2140 O   0  5  0  0  0  0
   19.1570   13.2200   14.0410 C   0  0  0  0  0  0
   19.5160   14.5470   13.4940 C   0  0  0  0  0  0
   20.1660   14.6630   12.2900 C   0  0  0  0  0  0
   19.2960   15.6870   14.2380 C   0  0  0  0  0  0
   20.5620   15.9010   11.8490 C   0  0  0  0  0  0
   19.7240   16.8750   13.7970 C   0  0  0  0  0  0
   20.3580   16.9750   12.5880 C   0  0  0  0  0  0
   18.9510   11.5250   16.5010 O   0  0  0  0  0  0
   29.2952   15.8737    7.9243 H   0  0  0  0  0  0
   29.1235   14.6812    9.2566 H   0  0  0  0  0  0
   29.2820   16.4306    9.6320 H   0  0  0  0  0  0
   27.1645   16.8551    8.4983 H   0  0  0  0  0  0
   27.1757   13.8070    8.2165 H   0  0  0  0  0  0
   25.7046   14.8197    8.0249 H   0  0  0  0  0  0
   25.1019   16.4947    9.5862 H   0  0  0  0  0  0
   25.7317   16.0218   12.4883 H   0  0  0  0  0  0
   23.2369   17.0179   10.9992 H   0  0  0  0  0  0
   23.3650   16.9153   12.7880 H   0  0  0  0  0  0
   23.9314   19.2468   11.9792 H   0  0  0  0  0  0
   25.0835   14.5238   13.7951 H   0  0  0  0  0  0
   23.3940   12.2889   12.5534 H   0  0  0  0  0  0
   25.4504   11.4403   13.5083 H   0  0  0  0  0  0
   25.9413   13.1668   15.1000 H   0  0  0  0  0  0
   26.0238   11.5186   15.8096 H   0  0  0  0  0  0
   24.6123   12.5750   16.1537 H   0  0  0  0  0  0
   23.3325   10.1140   13.7708 H   0  0  0  0  0  0
   23.1275   10.8356   15.4030 H   0  0  0  0  0  0
   24.5390    9.7793   15.0589 H   0  0  0  0  0  0
   21.5607   11.6389   13.4736 H   0  0  0  0  0  0
   20.4928   13.4076   15.7448 H   0  0  0  0  0  0
   19.0070   12.5261   13.2008 H   0  0  0  0  0  0
   18.2189   13.3189   14.6068 H   0  0  0  0  0  0
   20.3664   13.7768   11.6878 H   0  0  0  0  0  0
   18.7705   15.6196   15.1906 H   0  0  0  0  0  0
   21.0497   15.9979   10.8790 H   0  0  0  0  0  0
   19.5672   17.7674   14.4030 H   0  0  0  0  0  0
   20.6967   17.9484   12.2333 H   0  0  0  0  0  0
  1  2  1  0  0  0
  1 34  1  0  0  0
  1 35  1  0  0  0
  1 36  1  0  0  0
  2  5  1  0  0  0
  2  3  1  0  0  0
  2 37  1  0  0  0
  3  4  2  0  0  0
  3  9  1  0  0  0
  5  6  1  0  0  0
  5 38  1  0  0  0
  5 39  1  0  0  0
  6  7  1  0  0  0
  6  8  2  0  0  0
  9 10  1  0  0  0
  9 40  1  0  0  0
 10 13  1  0  0  0
 10 11  1  0  0  0
 10 41  1  0  0  0
 11 12  2  0  0  0
 11 15  1  0  0  0
 13 14  1  0  0  0
 13 42  1  0  0  0
 13 43  1  0  0  0
 14 44  1  0  0  0
 15 16  1  0  0  0
 15 45  1  0  0  0
 16 19  1  0  0  0
 16 17  1  0  0  0
 16 46  1  0  0  0
 17 18  2  0  0  0
 17 22  1  0  0  0
 19 21  1  0  0  0
 19 20  1  0  0  0
 19 47  1  0  0  0
 20 48  1  0  0  0
 20 49  1  0  0  0
 20 50  1  0  0  0
 21 51  1  0  0  0
 21 52  1  0  0  0
 21 53  1  0  0  0
 22 23  1  0  0  0
 22 54  1  0  0  0
 23 26  1  0  0  0
 23 24  1  0  0  0
 23 55  1  0  0  0
 24 25  1  0  0  0
 24 33  2  0  0  0
 26 27  1  0  0  0
 26 56  1  0  0  0
 26 57  1  0  0  0
 27 28  2  0  0  0
 27 29  1  0  0  0
 28 30  1  0  0  0
 28 58  1  0  0  0
 29 31  2  0  0  0
 29 59  1  0  0  0
 30 32  2  0  0  0
 30 60  1  0  0  0
 31 32  1  0  0  0
 31 61  1  0  0  0
 32 62  1  0  0  0
M  CHG  3   1   1   7  -1  25  -1
M  END
> <s_m_source_file>
../1obx_ligand.sdf

> <i_m_source_file_index>
1

> <s_epik_input>
W09IXUMoPU8pW0NIMl1bQ0BIXShbTkgzK10pQyg9TylbTkhdW0NAQEhdKFtDSDJdW09IXSlDKD1PKVtOSF1bQ0BASF0oW0NIXShbQ0gzXSlbQ0gzXSlDKD1PKVtOSF1bQ0BIXShDKD1PKVtPSF0pW0NIMl1jMVtjSF1bY0hdW2NIXVtjSF1bY0hdMQ==

> <s_epik_cmdline>
J2VwaWtfYXBwJywgJy1pbWFlJywgJ2xpZ2FuZF9wcm8ubWFlJywgJy1vbWFlJywgJ2xpZ2FuZF9wcmVwLm1hZScsICctbXMnLCAnMScsICctcGgnLCAnNycsICctcGh0JywgJzAuNScsICctbnQn

> <r_epik_Ionization_Penalty>
  0.0218

> <r_epik_Ionization_Penalty_Charging>
  0.0218

> <r_epik_Ionization_Penalty_Neutral>
  0.0000

> <r_epik_State_Penalty>
  0.0173

> <r_epik_Charging_Adjusted_Penalty>
0.0390396086911327

> <i_epik_Tot_Q>
-1

> <i_epik_Tot_abs_Q>
3

$$$$
