1ocn_ligand
                    3D
 Schrodinger Suite 2020-3.
 45 46  0  0  1  0            999 V2000
    6.2150   -8.7130   10.5050 C   0  0  2  0  0  0
    4.9030   -7.9790   10.5060 C   0  0  2  0  0  0
    4.8260   -6.9260   11.5800 C   0  0  1  0  0  0
    6.1040   -6.0780   11.6390 C   0  0  1  0  0  0
    6.2030   -5.2140   12.8810 C   0  0  0  0  0  0
    7.3710   -7.7060   10.5060 C   0  0  1  0  0  0
    6.3160   -9.5480    9.3540 O   0  0  0  0  0  0
    3.8600   -8.9320   10.6440 O   0  0  0  0  0  0
    3.7040   -6.1170   11.3310 O   0  0  0  0  0  0
    7.2640   -6.9180   11.6680 O   0  0  0  0  0  0
    6.3080   -6.0140   14.0310 O   0  0  0  0  0  0
    8.5540   -8.4180   10.5740 O   0  0  0  0  0  0
    9.7330   -7.6360   10.3530 C   0  0  1  0  0  0
   10.8080   -8.3620   11.1220 C   0  0  2  0  0  0
   10.7660   -7.8270   12.4310 O   0  0  0  0  0  0
   12.1590   -8.1750   10.4970 C   0  0  0  0  0  0
   12.1420   -8.8210    9.1590 N   0  3  0  0  0  0
   10.9960   -8.4870    8.3170 C   0  0  0  0  0  0
    9.9600   -7.5030    8.8430 C   0  0  2  0  0  0
   10.3060   -6.0870    8.3660 C   0  0  0  0  0  0
   11.3360   -5.5570    9.1320 O   0  0  0  0  0  0
    6.2563   -9.3936   11.3682 H   0  0  0  0  0  0
    4.7500   -7.4738    9.5409 H   0  0  0  0  0  0
    4.6455   -7.3938   12.5591 H   0  0  0  0  0  0
    6.1183   -5.4596   10.7294 H   0  0  0  0  0  0
    7.0931   -4.5715   12.8107 H   0  0  0  0  0  0
    5.3034   -4.5864   12.9638 H   0  0  0  0  0  0
    7.4280   -7.0427    9.6304 H   0  0  0  0  0  0
    5.5698  -10.3372    9.1798 H   0  0  0  0  0  0
    3.7804   -9.7672    9.9325 H   0  0  0  0  0  0
    2.7044   -6.5703   11.2582 H   0  0  0  0  0  0
    6.3888   -5.5442   15.0223 H   0  0  0  0  0  0
    9.6413   -6.6107   10.7407 H   0  0  0  0  0  0
   10.6328   -9.4461   11.1856 H   0  0  0  0  0  0
    9.8393   -7.8878   13.0205 H   0  0  0  0  0  0
   12.3708   -7.1003   10.3963 H   0  0  0  0  0  0
   12.9252   -8.6417   11.1335 H   0  0  0  0  0  0
   13.0391   -8.5229    8.5965 H   0  0  0  0  0  0
   12.1315   -9.9143    9.2798 H   0  0  0  0  0  0
   11.3501   -8.0404    7.3762 H   0  0  0  0  0  0
   10.4241   -9.4005    8.0968 H   0  0  0  0  0  0
    8.9799   -7.7567    8.4128 H   0  0  0  0  0  0
   10.6235   -6.1220    7.3134 H   0  0  0  0  0  0
    9.4203   -5.4416    8.4605 H   0  0  0  0  0  0
   11.7108   -4.5439    8.9242 H   0  0  0  0  0  0
  1  2  1  0  0  0
  1  6  1  0  0  0
  1  7  1  0  0  0
  1 22  1  0  0  0
  2  3  1  0  0  0
  2  8  1  0  0  0
  2 23  1  0  0  0
  3  4  1  0  0  0
  3  9  1  0  0  0
  3 24  1  0  0  0
  4  5  1  0  0  0
  4 10  1  0  0  0
  4 25  1  0  0  0
  5 11  1  0  0  0
  5 26  1  0  0  0
  5 27  1  0  0  0
  6 10  1  0  0  0
  6 12  1  0  0  0
  6 28  1  0  0  0
  7 29  1  0  0  0
  8 30  1  0  0  0
  9 31  1  0  0  0
 11 32  1  0  0  0
 12 13  1  0  0  0
 13 14  1  0  0  0
 13 19  1  0  0  0
 13 33  1  0  0  0
 14 15  1  0  0  0
 14 16  1  0  0  0
 14 34  1  0  0  0
 15 35  1  0  0  0
 16 17  1  0  0  0
 16 36  1  0  0  0
 16 37  1  0  0  0
 17 18  1  0  0  0
 17 38  1  0  0  0
 17 39  1  0  0  0
 18 19  1  0  0  0
 18 40  1  0  0  0
 18 41  1  0  0  0
 19 20  1  0  0  0
 19 42  1  0  0  0
 20 21  1  0  0  0
 20 43  1  0  0  0
 20 44  1  0  0  0
 21 45  1  0  0  0
M  CHG  1  17   1
M  END
> <s_m_source_file>
../1ocn_ligand.sdf

> <i_m_source_file_index>
1

> <s_epik_input>
W09IXVtDQEBIXTFbQ0BASF0oW09IXSlbQ0BIXShbT0hdKVtDQEBIXShbQ0gyXVtPSF0pT1tDQEhdMU9bQ0BIXTJbQ0BIXShbT0hdKVtDSDJdW05IMitdW0NIMl1bQ0BASF0yW0NIMl1bT0hd

> <s_epik_cmdline>
J2VwaWtfYXBwJywgJy1pbWFlJywgJ2xpZ2FuZF9wcm8ubWFlJywgJy1vbWFlJywgJ2xpZ2FuZF9wcmVwLm1hZScsICctbXMnLCAnMScsICctcGgnLCAnNycsICctcGh0JywgJzAuNScsICctbnQn

> <r_lp_tautomer_probability>
1

> <r_epik_Ionization_Penalty>
  0.0080

> <r_epik_Ionization_Penalty_Charging>
  0.0080

> <r_epik_Ionization_Penalty_Neutral>
  0.0000

> <r_epik_State_Penalty>
 -0.0000

> <r_epik_Charging_Adjusted_Penalty>
0.00795629459225398

> <i_epik_Tot_Q>
1

> <i_epik_Tot_abs_Q>
1

> <s_epik_Chemistry_Notes>
This compound contains an acetal/aminal-like group ( X-CH(R)-Y where X, Y are N, S, or O) that may be acid/base labile, releasing an aldehyde.

$$$$
