1od8_ligand
                    3D
 Schrodinger Suite 2020-3.
 35 36  0  0  1  0            999 V2000
   10.0280   17.4550   14.4610 N   0  0  0  0  0  0
   10.4820   16.8990   15.5660 C   0  0  0  0  0  0
    9.8290   15.6100   16.0490 C   0  0  1  0  0  0
    9.6140   15.6520   17.4290 O   0  0  0  0  0  0
    8.5110   15.3580   15.3390 C   0  0  2  0  0  0
    8.0510   14.0670   15.7630 O   0  0  0  0  0  0
    8.7450   15.4480   13.8540 C   0  0  0  0  0  0
    9.0400   16.8970   13.5210 C   0  0  0  0  0  0
   11.4230   17.3680   16.2220 O   0  0  0  0  0  0
    6.6840   13.8660   15.5330 C   0  0  1  0  0  0
    6.3710   12.4350   15.8290 C   0  0  1  0  0  0
    4.8700   12.1550   15.7560 C   0  0  2  0  0  0
    4.1120   13.2050   16.5460 C   0  0  1  0  0  0
    4.5690   14.5900   16.1870 C   0  0  0  0  0  0
    7.0630   11.6240   14.8920 O   0  0  0  0  0  0
    4.6070   10.8620   16.2590 O   0  0  0  0  0  0
    2.7200   13.1000   16.2810 O   0  0  0  0  0  0
    5.9760   14.7020   16.4070 O   0  0  0  0  0  0
   10.4710   18.4437   14.2706 H   0  0  0  0  0  0
   10.5180   14.7651   15.9026 H   0  0  0  0  0  0
   10.4584   15.8261   18.1121 H   0  0  0  0  0  0
    7.7041   16.0592   15.5984 H   0  0  0  0  0  0
    9.5980   14.8107   13.5780 H   0  0  0  0  0  0
    7.8455   15.1082   13.3198 H   0  0  0  0  0  0
    8.1060   17.4744   13.5853 H   0  0  0  0  0  0
    9.4362   16.9534   12.4964 H   0  0  0  0  0  0
    6.4294   14.1559   14.5029 H   0  0  0  0  0  0
    6.7505   12.1749   16.8282 H   0  0  0  0  0  0
    4.5054   12.1269   14.7185 H   0  0  0  0  0  0
    4.2469   13.0297   17.6235 H   0  0  0  0  0  0
    4.3478   14.7859   15.1274 H   0  0  0  0  0  0
    4.0413   15.3242   16.8135 H   0  0  0  0  0  0
    8.1575   11.6939   14.8066 H   0  0  0  0  0  0
    5.0812    9.9845   15.7952 H   0  0  0  0  0  0
    2.1921   12.1555   16.4792 H   0  0  0  0  0  0
  1  2  1  0  0  0
  1  8  1  0  0  0
  1 19  1  0  0  0
  2  3  1  0  0  0
  2  9  2  0  0  0
  3  4  1  0  0  0
  3  5  1  0  0  0
  3 20  1  0  0  0
  4 21  1  0  0  0
  5  6  1  0  0  0
  5  7  1  0  0  0
  5 22  1  0  0  0
  6 10  1  0  0  0
  7  8  1  0  0  0
  7 23  1  0  0  0
  7 24  1  0  0  0
  8 25  1  0  0  0
  8 26  1  0  0  0
 10 11  1  0  0  0
 10 18  1  0  0  0
 10 27  1  0  0  0
 11 12  1  0  0  0
 11 15  1  0  0  0
 11 28  1  0  0  0
 12 13  1  0  0  0
 12 16  1  0  0  0
 12 29  1  0  0  0
 13 14  1  0  0  0
 13 17  1  0  0  0
 13 30  1  0  0  0
 14 18  1  0  0  0
 14 31  1  0  0  0
 14 32  1  0  0  0
 15 33  1  0  0  0
 16 34  1  0  0  0
 17 35  1  0  0  0
M  END
> <s_m_source_file>
../1od8_ligand.sdf

> <i_m_source_file_index>
1

> <s_epik_input>
Tz1DMVtOSF1bQ0gyXVtDSDJdW0NASF0oW0NAQEhdMVtPSF0pT1tDQEhdMltDQEhdKFtPSF0pW0NAQEhdKFtPSF0pW0NAQEhdKFtDSDJdTzIpW09IXQ==

> <s_epik_cmdline>
J2VwaWtfYXBwJywgJy1pbWFlJywgJ2xpZ2FuZF9wcm8ubWFlJywgJy1vbWFlJywgJ2xpZ2FuZF9wcmVwLm1hZScsICctbXMnLCAnMScsICctcGgnLCAnNycsICctcGh0JywgJzAuNScsICctbnQn

> <r_lp_tautomer_probability>
1

> <r_epik_Ionization_Penalty>
  0.0000

> <r_epik_Ionization_Penalty_Charging>
  0.0000

> <r_epik_Ionization_Penalty_Neutral>
  0.0000

> <r_epik_State_Penalty>
 -0.0000

> <r_epik_Charging_Adjusted_Penalty>
0

> <i_epik_Tot_Q>
0

> <i_epik_Tot_abs_Q>
0

> <s_epik_Chemistry_Notes>
This compound contains an acetal/aminal-like group ( X-CH(R)-Y where X, Y are N, S, or O) that may be acid/base labile, releasing an aldehyde.

$$$$
