1odj_ligand
                    3D
 Schrodinger Suite 2020-3.
 33 35  0  0  1  0            999 V2000
   -0.9440  -80.5800 -147.7660 O   0  0  0  0  0  0
    0.2920  -81.2070 -147.4800 C   0  0  0  0  0  0
    1.3310  -80.2020 -147.9780 C   0  0  1  0  0  0
    1.2970  -78.8900 -147.3070 O   0  0  0  0  0  0
    2.7630  -80.6770 -147.7670 C   0  0  1  0  0  0
    3.4690  -80.3250 -148.9910 O   0  0  0  0  0  0
    3.3170  -79.9050 -146.5450 C   0  0  1  0  0  0
    4.5840  -79.2700 -146.7520 O   0  0  0  0  0  0
    2.1360  -78.9680 -146.1380 C   0  0  2  0  0  0
    1.3810  -79.3580 -144.8990 N   0  0  0  0  0  0
    0.3730  -78.6000 -144.3460 C   0  0  0  0  0  0
   -0.1430  -79.1270 -143.2740 N   0  0  0  0  0  0
    0.5570  -80.3140 -143.0910 C   0  0  0  0  0  0
    0.4250  -81.3130 -142.0760 C   0  0  0  0  0  0
   -0.3620  -81.3440 -141.1160 O   0  0  0  0  0  0
    1.3250  -82.3540 -142.2610 N   0  0  0  0  0  0
    2.2380  -82.4320 -143.2770 C   0  0  0  0  0  0
    3.0130  -83.5290 -143.2710 N   0  0  0  0  0  0
    2.3790  -81.5090 -144.2340 N   0  0  0  0  0  0
    1.5090  -80.4810 -144.0790 C   0  0  0  0  0  0
   -1.8882  -81.0835 -147.5109 H   0  0  0  0  0  0
    0.3704  -81.3862 -146.3975 H   0  0  0  0  0  0
    0.3492  -82.1661 -148.0155 H   0  0  0  0  0  0
    1.0560  -80.0733 -149.0353 H   0  0  0  0  0  0
    2.8796  -81.7612 -147.6226 H   0  0  0  0  0  0
    3.1851  -80.7949 -149.9442 H   0  0  0  0  0  0
    3.6901  -80.5428 -145.7302 H   0  0  0  0  0  0
    5.4595  -79.8703 -147.0405 H   0  0  0  0  0  0
    2.4705  -77.9563 -145.8650 H   0  0  0  0  0  0
    0.0398  -77.6508 -144.7655 H   0  0  0  0  0  0
    1.3381  -83.2010 -141.5592 H   0  0  0  0  0  0
    2.8913  -84.2841 -142.4804 H   0  0  0  0  0  0
    3.7694  -83.6723 -144.0567 H   0  0  0  0  0  0
  1  2  1  0  0  0
  1 21  1  0  0  0
  2  3  1  0  0  0
  2 22  1  0  0  0
  2 23  1  0  0  0
  3  4  1  0  0  0
  3  5  1  0  0  0
  3 24  1  0  0  0
  4  9  1  0  0  0
  5  6  1  0  0  0
  5  7  1  0  0  0
  5 25  1  0  0  0
  6 26  1  0  0  0
  7  8  1  0  0  0
  7  9  1  0  0  0
  7 27  1  0  0  0
  8 28  1  0  0  0
  9 10  1  0  0  0
  9 29  1  0  0  0
 10 11  1  0  0  0
 10 20  1  0  0  0
 11 12  2  0  0  0
 11 30  1  0  0  0
 12 13  1  0  0  0
 13 14  1  0  0  0
 13 20  2  0  0  0
 14 15  2  0  0  0
 14 16  1  0  0  0
 16 17  1  0  0  0
 16 31  1  0  0  0
 17 18  1  0  0  0
 17 19  2  0  0  0
 18 32  1  0  0  0
 18 33  1  0  0  0
 19 20  1  0  0  0
M  END
> <s_m_source_file>
../1odj_ligand.sdf

> <i_m_source_file_index>
1

> <s_epik_input>
W09IXVtDSDJdW0NASF0xT1tDQEhdKFtDQEhdKFtPSF0pW0NAQEhdMVtPSF0pbihbY0hdbjIpYyhjMjMpbmMoW05IMl0pW25IXWMzPU8=

> <s_epik_cmdline>
J2VwaWtfYXBwJywgJy1pbWFlJywgJ2xpZ2FuZF9wcm8ubWFlJywgJy1vbWFlJywgJ2xpZ2FuZF9wcmVwLm1hZScsICctbXMnLCAnMScsICctcGgnLCAnNycsICctcGh0JywgJzAuNScsICctbnQn

> <r_lp_tautomer_probability>
1

> <r_epik_Ionization_Penalty>
  0.0019

> <r_epik_Ionization_Penalty_Charging>
  0.0018

> <r_epik_Ionization_Penalty_Neutral>
  0.0001

> <r_epik_State_Penalty>
 -0.0000

> <r_epik_Charging_Adjusted_Penalty>
0.0018396447029475

> <i_epik_Tot_Q>
0

> <i_epik_Tot_abs_Q>
0

> <s_epik_Chemistry_Notes>
This compound contains an acetal/aminal-like group ( X-CH(R)-Y where X, Y are N, S, or O) that may be acid/base labile, releasing an aldehyde.

$$$$
