1ody_ligand
                    3D
 Schrodinger Suite 2020-3.
116119  0  0  1  0            999 V2000
  -12.2680   12.0100   36.8600 C   0  0  0  0  0  0
  -11.8930   12.1010   35.3620 C   0  0  0  0  0  0
  -14.0120   11.2390   32.4260 C   0  0  0  0  0  0
  -15.2040   11.0480   33.1320 C   0  0  0  0  0  0
  -15.7010    9.7630   33.3620 C   0  0  0  0  0  0
  -15.0420    8.6280   32.8680 C   0  0  0  0  0  0
  -13.3550   10.1170   31.9280 C   0  0  0  0  0  0
  -13.8450    8.8080   32.1530 C   0  0  0  0  0  0
  -12.1960   10.2580   31.1770 C   0  0  0  0  0  0
  -13.1800    7.6870   31.6490 C   0  0  0  0  0  0
  -11.5530    9.1200   30.6970 C   0  0  0  0  0  0
  -12.0120    7.8480   30.9320 C   0  0  0  0  0  0
  -10.1890   15.5120   31.7260 C   0  0  1  0  0  0
  -10.0690   15.4200   30.2400 C   0  0  0  0  0  0
   -8.3520   17.0970   32.1000 C   0  0  0  0  0  0
  -10.7240   16.2430   29.4300 N   0  0  0  0  0  0
  -10.5930   15.9960   27.9990 C   0  0  2  0  0  0
  -13.8330   13.9280   28.6550 C   0  0  0  0  0  0
  -12.0430   12.6320   27.6600 C   0  0  0  0  0  0
  -10.2510   17.2570   27.1470 C   0  0  2  0  0  0
   -8.7700   17.3840   26.7540 C   0  0  0  0  0  0
   -8.2670   16.5330   25.5880 C   0  0  0  0  0  0
  -10.8840   11.5100   34.9730 O   0  0  0  0  0  0
  -12.7330   12.8620   34.6340 N   0  0  0  0  0  0
  -12.4490   13.0650   33.2380 C   0  0  1  0  0  0
  -13.5400   12.6390   32.2510 C   0  0  0  0  0  0
  -11.9660   14.4570   32.9100 C   0  0  0  0  0  0
  -12.3550   15.5880   33.1120 O   0  0  0  0  0  0
  -10.8220   14.3290   32.2390 N   0  0  0  0  0  0
   -9.3540   14.5530   29.8000 O   0  0  0  0  0  0
   -8.8630   15.7340   32.4870 C   0  0  0  0  0  0
   -9.1530   15.6940   33.9620 C   0  0  0  0  0  0
  -11.9030   15.2320   27.6080 C   0  0  0  0  0  0
  -12.3630   13.9440   28.3320 C   0  0  0  0  0  0
  -10.6590   18.4650   27.7340 O   0  0  0  0  0  0
   -7.9150   15.3530   25.6560 O   0  0  0  0  0  0
   -8.1860   17.0860   24.3750 N   0  0  0  0  0  0
   -7.6920   16.4950   23.1670 C   0  0  1  0  0  0
   -8.7970   15.8350   22.2930 C   0  0  0  0  0  0
   -9.8170   15.0860   23.1170 C   0  0  0  0  0  0
   -6.8950   17.4910   22.3410 C   0  0  0  0  0  0
   -7.3000   18.6310   22.0000 O   0  0  0  0  0  0
   -5.7040   17.0100   21.9170 N   0  0  0  0  0  0
   -4.8100   17.8080   21.1030 C   0  0  1  0  0  0
   -3.8720   18.7200   21.9460 C   0  0  0  0  0  0
   -3.2710   17.8900   23.0970 C   0  0  0  0  0  0
   -2.1820   17.0640   22.8050 C   0  0  0  0  0  0
   -1.6580   16.2200   23.7910 C   0  0  0  0  0  0
   -2.1820   16.2120   25.0730 C   0  0  0  0  0  0
   -3.8380   17.8700   24.3910 C   0  0  0  0  0  0
   -3.2620   17.0340   25.4140 C   0  0  0  0  0  0
   -4.9160   18.6860   24.7440 C   0  0  0  0  0  0
   -3.8040   17.0550   26.7070 C   0  0  0  0  0  0
   -5.4270   18.6830   26.0500 C   0  0  0  0  0  0
   -4.8990   17.8690   27.0190 C   0  0  0  0  0  0
   -4.2980   16.9850   19.9730 C   0  0  0  0  0  0
   -4.0630   15.7620   20.0710 O   0  0  0  0  0  0
   -4.1180   17.5210   18.7800 N   0  0  0  0  0  0
  -13.1863   12.5870   37.0438 H   0  0  0  0  0  0
  -11.4489   12.4207   37.4686 H   0  0  0  0  0  0
  -12.4354   10.9576   37.1328 H   0  0  0  0  0  0
  -15.7519   11.9123   33.5073 H   0  0  0  0  0  0
  -16.6190    9.6401   33.9367 H   0  0  0  0  0  0
  -15.4481    7.6302   33.0344 H   0  0  0  0  0  0
  -11.7937   11.2487   30.9654 H   0  0  0  0  0  0
  -13.5825    6.6889   31.8216 H   0  0  0  0  0  0
  -10.6443    9.2449   30.1082 H   0  0  0  0  0  0
  -11.4647    6.9821   30.5596 H   0  0  0  0  0  0
  -10.8529   16.3718   31.8991 H   0  0  0  0  0  0
   -8.1427   17.1171   31.0203 H   0  0  0  0  0  0
   -7.4284   17.3140   32.6567 H   0  0  0  0  0  0
   -9.1118   17.8553   32.3404 H   0  0  0  0  0  0
  -11.3426   17.0785   29.7896 H   0  0  0  0  0  0
   -9.6911   15.3854   27.8447 H   0  0  0  0  0  0
  -14.0859   12.9873   29.1660 H   0  0  0  0  0  0
  -14.4138   14.0073   27.7242 H   0  0  0  0  0  0
  -14.0735   14.7777   29.3109 H   0  0  0  0  0  0
  -12.4225   11.8028   28.2752 H   0  0  0  0  0  0
  -10.9533   12.5348   27.5456 H   0  0  0  0  0  0
  -12.5198   12.6016   26.6692 H   0  0  0  0  0  0
  -10.8801   17.1933   26.2469 H   0  0  0  0  0  0
   -8.5550   18.4235   26.4656 H   0  0  0  0  0  0
   -8.1382   17.1027   27.6094 H   0  0  0  0  0  0
  -13.6222   13.3245   35.0873 H   0  0  0  0  0  0
  -11.6151   12.3517   33.1623 H   0  0  0  0  0  0
  -13.1247   12.7622   31.2399 H   0  0  0  0  0  0
  -14.3846   13.3305   32.3873 H   0  0  0  0  0  0
  -10.3617   13.3436   32.0746 H   0  0  0  0  0  0
   -8.1004   14.9741   32.2613 H   0  0  0  0  0  0
   -9.5254   14.6957   34.2355 H   0  0  0  0  0  0
   -9.9145   16.4491   34.2065 H   0  0  0  0  0  0
   -8.2312   15.9078   34.5228 H   0  0  0  0  0  0
  -12.7681   15.8997   27.7333 H   0  0  0  0  0  0
  -11.8391   14.9077   26.5588 H   0  0  0  0  0  0
  -11.7683   13.9785   29.2568 H   0  0  0  0  0  0
  -11.6938   18.5825   28.0880 H   0  0  0  0  0  0
   -8.5591   18.1208   24.3685 H   0  0  0  0  0  0
   -7.0241   15.7230   23.5767 H   0  0  0  0  0  0
   -9.3272   16.6125   21.7236 H   0  0  0  0  0  0
   -8.3350   15.1206   21.5957 H   0  0  0  0  0  0
  -10.5713   14.6414   22.4511 H   0  0  0  0  0  0
  -10.3075   15.7815   23.8140 H   0  0  0  0  0  0
   -9.3152   14.2895   23.6861 H   0  0  0  0  0  0
   -5.4202   15.9869   22.2045 H   0  0  0  0  0  0
   -5.3959   18.5552   20.5476 H   0  0  0  0  0  0
   -3.0653   19.1073   21.3063 H   0  0  0  0  0  0
   -4.4502   19.5609   22.3565 H   0  0  0  0  0  0
   -1.7404   17.0771   21.8086 H   0  0  0  0  0  0
   -0.8259   15.5598   23.5465 H   0  0  0  0  0  0
   -1.7470   15.5561   25.8271 H   0  0  0  0  0  0
   -5.3666   19.3347   23.9929 H   0  0  0  0  0  0
   -3.3652   16.4268   27.4822 H   0  0  0  0  0  0
   -6.2599   19.3403   26.2996 H   0  0  0  0  0  0
   -5.3274   17.8560   28.0212 H   0  0  0  0  0  0
   -4.3070   18.5935   18.6247 H   0  0  0  0  0  0
   -3.7790   16.8951   17.9413 H   0  0  0  0  0  0
  1  2  1  0  0  0
  1 59  1  0  0  0
  1 60  1  0  0  0
  1 61  1  0  0  0
  2 24  1  0  0  0
  2 23  2  0  0  0
  3 26  1  0  0  0
  3  7  2  0  0  0
  3  4  1  0  0  0
  4  5  2  0  0  0
  4 62  1  0  0  0
  5  6  1  0  0  0
  5 63  1  0  0  0
  6  8  2  0  0  0
  6 64  1  0  0  0
  7  8  1  0  0  0
  7  9  1  0  0  0
  8 10  1  0  0  0
  9 11  2  0  0  0
  9 65  1  0  0  0
 10 12  2  0  0  0
 10 66  1  0  0  0
 11 12  1  0  0  0
 11 67  1  0  0  0
 12 68  1  0  0  0
 13 29  1  0  0  0
 13 31  1  0  0  0
 13 14  1  0  0  0
 13 69  1  0  0  0
 14 30  2  0  0  0
 14 16  1  0  0  0
 15 31  1  0  0  0
 15 70  1  0  0  0
 15 71  1  0  0  0
 15 72  1  0  0  0
 16 17  1  0  0  0
 16 73  1  0  0  0
 17 33  1  0  0  0
 17 20  1  0  0  0
 17 74  1  0  0  0
 18 34  1  0  0  0
 18 75  1  0  0  0
 18 76  1  0  0  0
 18 77  1  0  0  0
 19 34  1  0  0  0
 19 78  1  0  0  0
 19 79  1  0  0  0
 19 80  1  0  0  0
 20 35  1  0  0  0
 20 21  1  0  0  0
 20 81  1  0  0  0
 21 22  1  0  0  0
 21 82  1  0  0  0
 21 83  1  0  0  0
 22 37  1  0  0  0
 22 36  2  0  0  0
 24 25  1  0  0  0
 24 84  1  0  0  0
 25 27  1  0  0  0
 25 26  1  0  0  0
 25 85  1  0  0  0
 26 86  1  0  0  0
 26 87  1  0  0  0
 27 29  1  0  0  0
 27 28  2  0  0  0
 29 88  1  0  0  0
 31 32  1  0  0  0
 31 89  1  0  0  0
 32 90  1  0  0  0
 32 91  1  0  0  0
 32 92  1  0  0  0
 33 34  1  0  0  0
 33 93  1  0  0  0
 33 94  1  0  0  0
 34 95  1  0  0  0
 35 96  1  0  0  0
 37 38  1  0  0  0
 37 97  1  0  0  0
 38 41  1  0  0  0
 38 39  1  0  0  0
 38 98  1  0  0  0
 39 40  1  0  0  0
 39 99  1  0  0  0
 39100  1  0  0  0
 40101  1  0  0  0
 40102  1  0  0  0
 40103  1  0  0  0
 41 43  1  0  0  0
 41 42  2  0  0  0
 43 44  1  0  0  0
 43104  1  0  0  0
 44 56  1  0  0  0
 44 45  1  0  0  0
 44105  1  0  0  0
 45 46  1  0  0  0
 45106  1  0  0  0
 45107  1  0  0  0
 46 50  2  0  0  0
 46 47  1  0  0  0
 47 48  2  0  0  0
 47108  1  0  0  0
 48 49  1  0  0  0
 48109  1  0  0  0
 49 51  2  0  0  0
 49110  1  0  0  0
 50 51  1  0  0  0
 50 52  1  0  0  0
 51 53  1  0  0  0
 52 54  2  0  0  0
 52111  1  0  0  0
 53 55  2  0  0  0
 53112  1  0  0  0
 54 55  1  0  0  0
 54113  1  0  0  0
 55114  1  0  0  0
 56 58  1  0  0  0
 56 57  2  0  0  0
 58115  1  0  0  0
 58116  1  0  0  0
M  END
> <s_m_source_file>
../1ody_ligand.sdf

> <i_m_source_file_index>
1

> <s_epik_input>
W2NIXTFbY0hdW2NIXVtjSF1jKGMxMilbY0hdW2NIXVtjSF1jMltDSDJdW0NASF0oW05IXUMoPU8pW0NIM10pQyg9TylbTkhdW0NAQEhdKFtDSF0oW0NIM10pW0NIM10pQyg9TylbTkhdW0NAQEhdKFtDSDJdW0NIXShbQ0gzXSlbQ0gzXSlbQ0BASF0oW09IXSlbQ0gyXUMoPU8pW05IXVtDQEBIXShbQ0gyXVtDSDNdKUMoPU8pW05IXVtDQEhdKEMoPU8pW05IMl0pW0NIMl1jM1tjSF1bY0hdW2NIXWMoYzM0KVtjSF1bY0hdW2NIXVtjSF00

> <s_epik_cmdline>
J2VwaWtfYXBwJywgJy1pbWFlJywgJ2xpZ2FuZF9wcm8ubWFlJywgJy1vbWFlJywgJ2xpZ2FuZF9wcmVwLm1hZScsICctbXMnLCAnMScsICctcGgnLCAnNycsICctcGh0JywgJzAuNScsICctbnQn

> <r_lp_tautomer_probability>
1

> <r_epik_Ionization_Penalty>
  0.0000

> <r_epik_Ionization_Penalty_Charging>
  0.0000

> <r_epik_Ionization_Penalty_Neutral>
  0.0000

> <r_epik_State_Penalty>
 -0.0000

> <r_epik_Charging_Adjusted_Penalty>
0

> <i_epik_Tot_Q>
0

> <i_epik_Tot_abs_Q>
0

$$$$
