1oe0_ligand
                    3D
 Schrodinger Suite 2020-3.
 42 43  0  0  1  0            999 V2000
   35.4330   18.7970   12.6060 P   0  0  1  0  0  0
   35.1570   17.7200   13.5870 O   0  5  0  0  0  0
   34.4440   19.8820   12.4700 O   0  0  0  0  0  0
   36.8360   19.4510   12.9450 O   0  0  0  0  0  0
   37.5780   20.6840   12.2520 P   0  0  1  0  0  0
   38.9530   20.6350   12.7530 O   0  0  0  0  0  0
   37.4070   20.5740   10.7740 O   0  5  0  0  0  0
   36.8410   21.9350   12.8820 O   0  0  0  0  0  0
   37.2590   23.4690   13.3800 P   0  0  0  0  0  0
   37.7950   24.1860   12.2140 O   0  0  0  0  0  0
   36.0730   24.0870   14.0300 O   0  5  0  0  0  0
   38.3970   23.2400   14.4560 O   0  5  0  0  0  0
   35.6030   18.2100   11.1390 O   0  0  0  0  0  0
   36.8320   17.4690   10.8220 C   0  0  0  0  0  0
   36.6230   16.5850    9.5580 C   0  0  1  0  0  0
   36.0330   15.3700    9.9890 O   0  0  0  0  0  0
   35.6490   17.1700    8.5370 C   0  0  1  0  0  0
   36.1330   16.9090    7.2170 O   0  0  0  0  0  0
   34.3000   16.4920    8.8610 C   0  0  0  0  0  0
   34.7830   15.1510    9.3970 C   0  0  2  0  0  0
   33.9190   14.5340   10.5080 N   0  0  0  0  0  0
   33.1000   13.4460   10.0080 C   0  0  0  0  0  0
   33.1160   13.0790    8.8110 O   0  0  0  0  0  0
   32.3070   12.7900   10.9270 N   0  0  0  0  0  0
   32.2580   13.1510   12.2180 C   0  0  0  0  0  0
   31.4400   12.4240   12.9980 O   0  0  0  0  0  0
   33.0670   14.2540   12.7400 C   0  0  0  0  0  0
   33.0130   14.6630   14.1930 C   0  0  0  0  0  0
   33.8480   14.8910   11.8340 C   0  0  0  0  0  0
   37.6495   18.1796   10.6305 H   0  0  0  0  0  0
   37.0995   16.8224   11.6707 H   0  0  0  0  0  0
   37.5943   16.4029    9.0749 H   0  0  0  0  0  0
   35.5705   18.2671    8.5190 H   0  0  0  0  0  0
   37.0866   17.3450    6.8846 H   0  0  0  0  0  0
   33.7555   17.0948    9.6027 H   0  0  0  0  0  0
   33.7002   16.4113    7.9425 H   0  0  0  0  0  0
   34.8540   14.4611    8.5432 H   0  0  0  0  0  0
   31.6862   11.9392   10.6097 H   0  0  0  0  0  0
   32.3153   14.0062   14.7331 H   0  0  0  0  0  0
   32.6683   15.7049   14.2680 H   0  0  0  0  0  0
   34.0161   14.5758   14.6360 H   0  0  0  0  0  0
   34.4524   15.7316   12.1748 H   0  0  0  0  0  0
  1  2  1  0  0  0
  1  3  2  0  0  0
  1  4  1  0  0  0
  1 13  1  0  0  0
  4  5  1  0  0  0
  5  6  2  0  0  0
  5  7  1  0  0  0
  5  8  1  0  0  0
  8  9  1  0  0  0
  9 10  2  0  0  0
  9 11  1  0  0  0
  9 12  1  0  0  0
 13 14  1  0  0  0
 14 15  1  0  0  0
 14 30  1  0  0  0
 14 31  1  0  0  0
 15 16  1  0  0  0
 15 17  1  0  0  0
 15 32  1  0  0  0
 16 20  1  0  0  0
 17 18  1  0  0  0
 17 19  1  0  0  0
 17 33  1  0  0  0
 18 34  1  0  0  0
 19 20  1  0  0  0
 19 35  1  0  0  0
 19 36  1  0  0  0
 20 21  1  0  0  0
 20 37  1  0  0  0
 21 22  1  0  0  0
 21 29  1  0  0  0
 22 23  2  0  0  0
 22 24  1  0  0  0
 24 25  1  0  0  0
 24 38  1  0  0  0
 25 26  2  0  0  0
 25 27  1  0  0  0
 27 28  1  0  0  0
 27 29  2  0  0  0
 28 39  1  0  0  0
 28 40  1  0  0  0
 28 41  1  0  0  0
 29 42  1  0  0  0
M  CHG  4   2  -1   7  -1  11  -1  12  -1
M  END
> <s_m_source_file>
../1oe0_ligand.sdf

> <i_m_source_file_index>
1

> <s_epik_input>
Tz1QKFtPSF0pKFtPSF0pT1tQQF0oPU8pKFtPSF0pT1tQQF0oPU8pKFtPSF0pT1tDSDJdW0NASF0xT1tDQEhdKFtDSDJdW0NAQEhdMVtPSF0pbjJjKD1PKVtuSF1jKD1PKWMoW0NIM10pW2NIXTI=

> <s_epik_cmdline>
J2VwaWtfYXBwJywgJy1pbWFlJywgJ2xpZ2FuZF9wcm8ubWFlJywgJy1vbWFlJywgJ2xpZ2FuZF9wcmVwLm1hZScsICctbXMnLCAnMScsICctcGgnLCAnNycsICctcGh0JywgJzAuNScsICctbnQn

> <r_lp_tautomer_probability>
0.999537046341301

> <r_epik_Ionization_Penalty>
  0.0827

> <r_epik_Ionization_Penalty_Charging>
  0.0827

> <r_epik_Ionization_Penalty_Neutral>
  0.0000

> <r_epik_State_Penalty>
  0.0709

> <r_epik_Charging_Adjusted_Penalty>
0.153602835498398

> <i_epik_Tot_Q>
-4

> <i_epik_Tot_abs_Q>
4

> <s_epik_Chemistry_Notes>
This compound contains an acetal/aminal-like group ( X-CH(R)-Y where X, Y are N, S, or O) that may be acid/base labile, releasing an aldehyde.

$$$$
