1oe7_ligand
                    3D
 Schrodinger Suite 2020-3.
 36 35  0  0  1  0            999 V2000
   14.8630   -4.0250   22.4510 N   0  3  0  0  0  0
   14.3820   -2.6530   22.7040 C   0  0  2  0  0  0
   14.5290   -1.8350   21.3620 C   0  0  0  0  0  0
   13.8360   -0.8410   21.2000 O   0  0  0  0  0  0
   15.4300   -2.2800   20.5380 O   0  5  0  0  0  0
   15.3560   -2.0310   23.7310 C   0  0  0  0  0  0
   14.9450   -0.6290   24.2850 C   0  0  0  0  0  0
   16.0630   -0.3190   25.3160 C   0  0  0  0  0  0
   16.7630   -1.2510   25.8620 O   0  0  0  0  0  0
   16.2560    0.9790   25.5300 N   0  0  0  0  0  0
   17.2210    1.4140   26.5010 C   0  0  2  0  0  0
   16.5470    2.4560   27.4640 C   0  0  0  0  0  0
   15.5230    3.0980   27.1510 O   0  0  0  0  0  0
   18.3580    2.1160   25.7350 C   0  0  0  0  0  0
   18.4730    1.9460   23.9020 S   0  0  0  0  0  0
   17.0560    2.6520   28.7280 N   0  0  0  0  0  0
   16.5370    3.6630   29.6770 C   0  0  0  0  0  0
   15.4590    3.3710   30.6740 C   0  0  0  0  0  0
   15.3110    3.9700   31.8100 O   0  5  0  0  0  0
   14.7130    2.4660   30.2070 O   0  0  0  0  0  0
   14.2018   -4.5168   21.7223 H   0  0  0  0  0  0
   14.8592   -4.5943   23.3922 H   0  0  0  0  0  0
   15.8865   -3.9866   22.0499 H   0  0  0  0  0  0
   13.3461   -2.6970   23.0713 H   0  0  0  0  0  0
   15.4428   -2.6957   24.6032 H   0  0  0  0  0  0
   16.3453   -1.9033   23.2674 H   0  0  0  0  0  0
   14.9178    0.0978   23.4597 H   0  0  0  0  0  0
   13.9495   -0.6952   24.7482 H   0  0  0  0  0  0
   15.6750    1.7203   24.9617 H   0  0  0  0  0  0
   17.5658    0.5149   27.0327 H   0  0  0  0  0  0
   18.2947    3.2019   25.8989 H   0  0  0  0  0  0
   19.3281    1.7463   26.0987 H   0  0  0  0  0  0
   19.2842    2.4465   23.3530 H   0  0  0  0  0  0
   17.8961    2.0043   29.0193 H   0  0  0  0  0  0
   17.3573    4.0204   30.3169 H   0  0  0  0  0  0
   16.1141    4.5095   29.1160 H   0  0  0  0  0  0
  1  2  1  0  0  0
  1 21  1  0  0  0
  1 22  1  0  0  0
  1 23  1  0  0  0
  2  3  1  0  0  0
  2  6  1  0  0  0
  2 24  1  0  0  0
  3  4  2  0  0  0
  3  5  1  0  0  0
  6  7  1  0  0  0
  6 25  1  0  0  0
  6 26  1  0  0  0
  7  8  1  0  0  0
  7 27  1  0  0  0
  7 28  1  0  0  0
  8  9  2  0  0  0
  8 10  1  0  0  0
 10 11  1  0  0  0
 10 29  1  0  0  0
 11 12  1  0  0  0
 11 14  1  0  0  0
 11 30  1  0  0  0
 12 13  2  0  0  0
 12 16  1  0  0  0
 14 15  1  0  0  0
 14 31  1  0  0  0
 14 32  1  0  0  0
 15 33  1  0  0  0
 16 17  1  0  0  0
 16 34  1  0  0  0
 17 18  1  0  0  0
 17 35  1  0  0  0
 17 36  1  0  0  0
 18 19  1  0  0  0
 18 20  2  0  0  0
M  CHG  3   1   1   5  -1  19  -1
M  END
> <s_m_source_file>
../1oe7_ligand.sdf

> <i_m_source_file_index>
1

> <s_epik_input>
Tz1DKFtPSF0pW0NAQEhdKFtOSDMrXSlbQ0gyXVtDSDJdQyg9TylbTkhdW0NAQEhdKFtDSDJdW1NIXSlDKD1PKVtOSF1bQ0gyXUMoPU8pW09IXQ==

> <s_epik_cmdline>
J2VwaWtfYXBwJywgJy1pbWFlJywgJ2xpZ2FuZF9wcm8ubWFlJywgJy1vbWFlJywgJ2xpZ2FuZF9wcmVwLm1hZScsICctbXMnLCAnMScsICctcGgnLCAnNycsICctcGh0JywgJzAuNScsICctbnQn

> <r_lp_tautomer_probability>
1

> <r_epik_Ionization_Penalty>
  0.0108

> <r_epik_Ionization_Penalty_Charging>
  0.0025

> <r_epik_Ionization_Penalty_Neutral>
  0.0083

> <r_epik_State_Penalty>
 -0.0000

> <r_epik_Charging_Adjusted_Penalty>
0.0025426613454744

> <i_epik_Tot_Q>
-1

> <i_epik_Tot_abs_Q>
3

$$$$
