1oe8_ligand
                    3D
 Schrodinger Suite 2020-3.
 36 35  0  0  1  0            999 V2000
   15.0660   -4.0860   22.2650 N   0  3  0  0  0  0
   14.6520   -2.6740   22.7050 C   0  0  2  0  0  0
   14.7280   -1.8090   21.3790 C   0  0  0  0  0  0
   14.0200   -0.8370   21.1870 O   0  0  0  0  0  0
   15.5450   -2.3440   20.5710 O   0  5  0  0  0  0
   15.7730   -2.1280   23.6290 C   0  0  0  0  0  0
   15.3630   -0.7590   24.2500 C   0  0  0  0  0  0
   16.3750   -0.3640   25.3180 C   0  0  0  0  0  0
   17.1410   -1.1950   25.9190 O   0  0  0  0  0  0
   16.4990    0.9440   25.5880 N   0  0  0  0  0  0
   17.4370    1.2270   26.6510 C   0  0  2  0  0  0
   16.6940    2.3350   27.5300 C   0  0  0  0  0  0
   15.7380    2.9700   27.1000 O   0  0  0  0  0  0
   18.6290    2.0520   26.0840 C   0  0  0  0  0  0
   19.4780    1.0670   24.8360 S   0  0  0  0  0  0
   17.2050    2.5640   28.7640 N   0  0  0  0  0  0
   16.5300    3.5880   29.5800 C   0  0  0  0  0  0
   15.6780    2.9400   30.6650 C   0  0  0  0  0  0
   15.2190    3.7020   31.5620 O   0  5  0  0  0  0
   15.5390    1.6870   30.6260 O   0  0  0  0  0  0
   14.2920   -4.5064   21.6060 H   0  0  0  0  0  0
   15.1809   -4.7273   23.1513 H   0  0  0  0  0  0
   16.0216   -4.0356   21.7225 H   0  0  0  0  0  0
   13.6771   -2.6734   23.2145 H   0  0  0  0  0  0
   15.9587   -2.8443   24.4429 H   0  0  0  0  0  0
   16.6948   -1.9897   23.0449 H   0  0  0  0  0  0
   15.3414    0.0089   23.4627 H   0  0  0  0  0  0
   14.3650   -0.8466   24.7043 H   0  0  0  0  0  0
   15.9693    1.7683   25.0880 H   0  0  0  0  0  0
   17.7235    0.2604   27.0910 H   0  0  0  0  0  0
   18.2501    2.9801   25.6312 H   0  0  0  0  0  0
   19.3246    2.2993   26.8995 H   0  0  0  0  0  0
   20.3547    1.4778   24.3138 H   0  0  0  0  0  0
   18.0785    2.0290   29.1650 H   0  0  0  0  0  0
   17.2835    4.2314   30.0578 H   0  0  0  0  0  0
   15.8802    4.1997   28.9369 H   0  0  0  0  0  0
  1  2  1  0  0  0
  1 21  1  0  0  0
  1 22  1  0  0  0
  1 23  1  0  0  0
  2  3  1  0  0  0
  2  6  1  0  0  0
  2 24  1  0  0  0
  3  4  2  0  0  0
  3  5  1  0  0  0
  6  7  1  0  0  0
  6 25  1  0  0  0
  6 26  1  0  0  0
  7  8  1  0  0  0
  7 27  1  0  0  0
  7 28  1  0  0  0
  8  9  2  0  0  0
  8 10  1  0  0  0
 10 11  1  0  0  0
 10 29  1  0  0  0
 11 12  1  0  0  0
 11 14  1  0  0  0
 11 30  1  0  0  0
 12 13  2  0  0  0
 12 16  1  0  0  0
 14 15  1  0  0  0
 14 31  1  0  0  0
 14 32  1  0  0  0
 15 33  1  0  0  0
 16 17  1  0  0  0
 16 34  1  0  0  0
 17 18  1  0  0  0
 17 35  1  0  0  0
 17 36  1  0  0  0
 18 19  1  0  0  0
 18 20  2  0  0  0
M  CHG  3   1   1   5  -1  19  -1
M  END
> <s_m_source_file>
../1oe8_ligand.sdf

> <i_m_source_file_index>
1

> <s_epik_input>
Tz1DKFtPSF0pW0NAQEhdKFtOSDMrXSlbQ0gyXVtDSDJdQyg9TylbTkhdW0NAQEhdKFtDSDJdW1NIXSlDKD1PKVtOSF1bQ0gyXUMoPU8pW09IXQ==

> <s_epik_cmdline>
J2VwaWtfYXBwJywgJy1pbWFlJywgJ2xpZ2FuZF9wcm8ubWFlJywgJy1vbWFlJywgJ2xpZ2FuZF9wcmVwLm1hZScsICctbXMnLCAnMScsICctcGgnLCAnNycsICctcGh0JywgJzAuNScsICctbnQn

> <r_lp_tautomer_probability>
1

> <r_epik_Ionization_Penalty>
  0.0108

> <r_epik_Ionization_Penalty_Charging>
  0.0025

> <r_epik_Ionization_Penalty_Neutral>
  0.0083

> <r_epik_State_Penalty>
 -0.0000

> <r_epik_Charging_Adjusted_Penalty>
0.0025426613454744

> <i_epik_Tot_Q>
-1

> <i_epik_Tot_abs_Q>
3

$$$$
