1oeb_ligand
                    3D
 Schrodinger Suite 2020-3.
188190  0  0  1  0            999 V2000
   -2.2290   23.6410   21.8460 N   0  3  0  0  0  0
   -0.8300   23.1520   22.1510 C   0  0  2  0  0  0
    0.1090   24.2970   22.5700 C   0  0  0  0  0  0
    0.0840   25.3620   21.9480 O   0  0  0  0  0  0
   -0.2330   22.4200   20.9440 C   0  0  0  0  0  0
    0.9630   24.0700   23.5780 N   0  0  0  0  0  0
    1.9240   25.0990   23.9940 C   0  0  2  0  0  0
    2.9900   25.3770   22.9260 C   0  0  0  0  0  0
    3.3200   24.5200   22.1100 O   0  0  0  0  0  0
    2.6000   24.4940   25.2250 C   0  0  0  0  0  0
    1.7070   23.3650   25.6600 C   0  0  0  0  0  0
    1.0490   22.8520   24.4210 C   0  0  0  0  0  0
    3.5220   26.5910   22.9750 N   0  0  0  0  0  0
    4.6510   26.9960   22.1390 C   0  0  2  0  0  0
    5.8170   26.0830   22.3890 C   0  0  0  0  0  0
    5.9990   25.5880   23.5030 O   0  0  0  0  0  0
    5.0310   28.4540   22.4700 C   0  0  0  0  0  0
    4.0210   29.2980   21.9250 O   0  0  0  0  0  0
    6.5830   25.7980   21.3390 N   0  0  0  0  0  0
    7.7970   24.9990   21.4830 C   0  0  2  0  0  0
    9.0140   25.8840   21.2840 C   0  0  0  0  0  0
    9.1750   26.4870   20.2150 O   0  0  0  0  0  0
    7.8080   23.8040   20.4950 C   0  0  2  0  0  0
    6.6420   22.8350   20.7820 C   0  0  0  0  0  0
    9.0930   23.0380   20.5850 C   0  0  0  0  0  0
    6.4360   21.7730   19.6450 C   0  0  0  0  0  0
    9.8780   25.9310   22.2960 N   0  0  0  0  0  0
   11.1460   26.6440   22.1850 C   0  0  2  0  0  0
   12.3570   25.7160   22.3350 C   0  0  0  0  0  0
   12.7530   25.3890   23.4450 O   0  0  0  0  0  0
   11.2280   27.7460   23.2130 C   0  0  0  0  0  0
   12.4510   28.6190   23.0350 C   0  0  0  0  0  0
   13.2090   28.4440   22.0580 O   0  0  0  0  0  0
   12.7260   29.5380   23.8330 O   0  0  0  0  0  0
   12.9370   25.3200   21.2010 N   0  0  0  0  0  0
   14.1100   24.4270   21.1800 C   0  0  2  0  0  0
   15.3810   25.0760   21.7240 C   0  0  0  0  0  0
   16.3020   24.3670   22.1490 O   0  0  0  0  0  0
   14.3620   23.8500   19.7690 C   0  0  0  0  0  0
   13.2500   22.9570   19.2190 C   0  0  0  0  0  0
   13.6620   22.0130   18.0950 C   0  0  0  0  0  0
   12.7180   20.8840   18.0660 N   0  0  0  0  0  0
   11.4430   21.0080   17.7570 C   0  0  0  0  0  0
   10.9710   22.1990   17.3960 N   0  0  0  0  0  0
   10.6190   19.9650   17.8470 N   0  0  0  0  0  0
   15.4270   26.4150   21.7680 N   0  0  0  0  0  0
   16.5750   27.1140   22.3950 C   0  0  2  0  0  0
   16.8160   26.7850   23.9030 C   0  0  0  0  0  0
   17.9390   26.9310   24.4040 O   0  0  0  0  0  0
   16.4990   28.6370   22.1590 C   0  0  0  0  0  0
   15.6600   29.2820   23.1110 O   0  0  0  0  0  0
   15.7830   26.3300   24.6090 N   0  0  0  0  0  0
   15.9190   25.9440   26.0190 C   0  0  2  0  0  0
   16.1990   24.4500   26.2200 C   0  0  0  0  0  0
   16.2810   23.9680   27.3540 O   0  0  0  0  0  0
   14.6770   26.3240   26.8310 C   0  0  2  0  0  0
   13.5290   25.6880   26.2490 O   0  0  0  0  0  0
   14.4050   27.7990   26.7260 C   0  0  0  0  0  0
   16.3730   23.7240   25.1230 N   0  0  0  0  0  0
   16.6580   22.3000   25.2290 C   0  0  2  0  0  0
   18.0170   22.0460   25.8850 C   0  0  0  0  0  0
   19.0330   22.6090   25.4130 O   0  0  0  0  0  0
   16.7050   21.7030   23.8360 C   0  0  0  0  0  0
   15.4070   21.1410   23.4110 C   0  0  0  0  0  0
   15.4510   20.7000   21.9550 C   0  0  0  0  0  0
   16.3250   19.4770   21.7840 C   0  0  0  0  0  0
   16.3510   19.0240   20.3660 N   0  3  0  0  0  0
   18.0510   21.2050   26.9310 N   0  0  0  0  0  0
   19.3370   20.7310   27.4710 C   0  0  2  0  0  0
   19.8490   19.5700   26.6210 C   0  0  0  0  0  0
   19.0860   19.0640   25.7630 O   0  0  0  0  0  0
   18.9830   20.2740   28.8870 C   0  0  0  0  0  0
   17.4920   19.7260   28.7290 C   0  0  0  0  0  0
   16.8960   20.5830   27.6290 C   0  0  0  0  0  0
   21.1220   19.1780   26.7720 N   0  0  0  0  0  0
   21.5960   17.9700   26.0970 C   0  0  2  0  0  0
   20.8410   16.7500   26.6170 C   0  0  0  0  0  0
   20.4530   16.6980   27.7930 O   0  0  0  0  0  0
   23.0760   17.8680   26.5020 C   0  0  0  0  0  0
   23.4640   19.1970   27.0080 C   0  0  0  0  0  0
   22.1860   19.8390   27.5600 C   0  0  0  0  0  0
   20.6130   15.7720   25.7520 N   0  0  0  0  0  0
   20.0440   14.5200   26.2300 C   0  0  2  0  0  0
   21.1240   13.7320   26.9600 C   0  0  0  0  0  0
   22.0350   13.2850   26.2300 O   0  0  0  0  0  0
   19.4670   13.7000   25.0760 C   0  0  0  0  0  0
   18.9370   12.2780   25.3410 C   0  0  0  0  0  0
   17.8390   12.3070   26.3860 C   0  0  0  0  0  0
   18.4630   11.6800   24.0180 C   0  0  0  0  0  0
   20.9940   13.5920   28.2080 O   0  0  0  0  0  0
   -2.6352   24.1619   22.7256 H   0  0  0  0  0  0
   -2.8715   22.7831   21.5988 H   0  0  0  0  0  0
   -2.1973   24.3335   20.9919 H   0  0  0  0  0  0
   -0.9358   22.4551   22.9955 H   0  0  0  0  0  0
   -0.9033   21.6012   20.6435 H   0  0  0  0  0  0
    0.7505   22.0082   21.2146 H   0  0  0  0  0  0
   -0.1177   23.1252   20.1077 H   0  0  0  0  0  0
    1.3820   26.0400   24.1696 H   0  0  0  0  0  0
    3.6019   24.1313   24.9520 H   0  0  0  0  0  0
    2.6886   25.2608   26.0087 H   0  0  0  0  0  0
    2.3130   22.5819   26.1391 H   0  0  0  0  0  0
    0.9621   23.7418   26.3763 H   0  0  0  0  0  0
    0.0374   22.4610   24.6046 H   0  0  0  0  0  0
    1.6486   22.0890   23.9029 H   0  0  0  0  0  0
    3.0774   27.3060   23.6828 H   0  0  0  0  0  0
    4.3418   26.8922   21.0885 H   0  0  0  0  0  0
    5.0872   28.5795   23.5614 H   0  0  0  0  0  0
    6.0084   28.6887   22.0232 H   0  0  0  0  0  0
    4.0922   30.3891   22.0451 H   0  0  0  0  0  0
    6.2875   26.1759   20.3491 H   0  0  0  0  0  0
    7.7861   24.6197   22.5155 H   0  0  0  0  0  0
    7.7273   24.2076   19.4749 H   0  0  0  0  0  0
    6.8396   22.2904   21.7171 H   0  0  0  0  0  0
    5.7068   23.4057   20.8806 H   0  0  0  0  0  0
    9.9374   23.7134   20.3830 H   0  0  0  0  0  0
    9.0881   22.2253   19.8437 H   0  0  0  0  0  0
    9.1966   22.6131   21.5943 H   0  0  0  0  0  0
    5.5946   21.1145   19.9064 H   0  0  0  0  0  0
    7.3509   21.1725   19.5341 H   0  0  0  0  0  0
    6.2182   22.2877   18.6976 H   0  0  0  0  0  0
    9.6169   25.4157   23.2321 H   0  0  0  0  0  0
   11.1263   27.0683   21.1703 H   0  0  0  0  0  0
   10.3395   28.3895   23.1324 H   0  0  0  0  0  0
   11.2715   27.3056   24.2200 H   0  0  0  0  0  0
   14.0976   29.0798   21.9305 H   0  0  0  0  0  0
   12.5072   25.6858   20.2568 H   0  0  0  0  0  0
   13.8206   23.6290   21.8796 H   0  0  0  0  0  0
   14.4826   24.6751   19.0516 H   0  0  0  0  0  0
   15.2760   23.2380   19.7810 H   0  0  0  0  0  0
   12.8550   22.3236   20.0270 H   0  0  0  0  0  0
   12.4412   23.5845   18.8163 H   0  0  0  0  0  0
   13.6345   22.5509   17.1359 H   0  0  0  0  0  0
   14.6821   21.6455   18.2802 H   0  0  0  0  0  0
   13.0660   19.8696   18.3108 H   0  0  0  0  0  0
   11.6509   23.0605   17.3215 H   0  0  0  0  0  0
   11.0085   18.9805   18.1453 H   0  0  0  0  0  0
    9.5491   20.0884   17.6230 H   0  0  0  0  0  0
   14.6007   26.9959   21.3323 H   0  0  0  0  0  0
   17.4226   26.6872   21.8388 H   0  0  0  0  0  0
   17.5066   29.0711   22.2388 H   0  0  0  0  0  0
   16.0938   28.8328   21.1552 H   0  0  0  0  0  0
   15.5116   30.3710   23.0648 H   0  0  0  0  0  0
   14.8074   26.2469   24.1076 H   0  0  0  0  0  0
   16.7968   26.5260   26.3364 H   0  0  0  0  0  0
   14.8011   26.0040   27.8761 H   0  0  0  0  0  0
   13.4742   24.5905   26.1996 H   0  0  0  0  0  0
   15.2488   28.3589   27.1556 H   0  0  0  0  0  0
   13.4848   28.0423   27.2773 H   0  0  0  0  0  0
   14.2825   28.0748   25.6682 H   0  0  0  0  0  0
   16.3018   24.1985   24.1331 H   0  0  0  0  0  0
   15.8441   21.8840   25.8410 H   0  0  0  0  0  0
   16.9872   22.4821   23.1125 H   0  0  0  0  0  0
   17.4475   20.8918   23.8096 H   0  0  0  0  0  0
   15.1630   20.2689   24.0354 H   0  0  0  0  0  0
   14.6225   21.9038   23.5239 H   0  0  0  0  0  0
   14.4337   20.4564   21.6148 H   0  0  0  0  0  0
   15.8591   21.5138   21.3376 H   0  0  0  0  0  0
   17.3532   19.7149   22.0940 H   0  0  0  0  0  0
   15.9349   18.6577   22.4057 H   0  0  0  0  0  0
   16.9935   18.1356   20.2766 H   0  0  0  0  0  0
   16.7485   19.8295   19.7310 H   0  0  0  0  0  0
   15.3302   18.7722   20.0428 H   0  0  0  0  0  0
   20.1092   21.5142   27.4532 H   0  0  0  0  0  0
   19.6879   19.4925   29.2070 H   0  0  0  0  0  0
   19.0471   21.1297   29.5753 H   0  0  0  0  0  0
   17.5199   18.6614   28.4538 H   0  0  0  0  0  0
   16.9549   19.8445   29.6816 H   0  0  0  0  0  0
   16.2498   21.3712   28.0427 H   0  0  0  0  0  0
   16.3210   19.9743   26.9157 H   0  0  0  0  0  0
   21.4259   18.0472   25.0130 H   0  0  0  0  0  0
   23.1905   17.1014   27.2825 H   0  0  0  0  0  0
   23.6781   17.5904   25.6242 H   0  0  0  0  0  0
   24.2204   19.0819   27.7983 H   0  0  0  0  0  0
   23.8818   19.7951   26.1848 H   0  0  0  0  0  0
   22.1480   20.9250   27.3890 H   0  0  0  0  0  0
   22.0335   19.6307   28.6293 H   0  0  0  0  0  0
   20.8481   15.8973   24.6848 H   0  0  0  0  0  0
   19.2282   14.7909   26.9164 H   0  0  0  0  0  0
   18.6067   14.2313   24.6429 H   0  0  0  0  0  0
   20.2381   13.5602   24.3041 H   0  0  0  0  0  0
   19.7264   11.6318   25.7524 H   0  0  0  0  0  0
   18.2298   12.7448   27.3164 H   0  0  0  0  0  0
   17.4912   11.2818   26.5810 H   0  0  0  0  0  0
   16.9994   12.9154   26.0188 H   0  0  0  0  0  0
   19.2933   11.6817   23.2965 H   0  0  0  0  0  0
   17.6312   12.2806   23.6213 H   0  0  0  0  0  0
   18.1231   10.6470   24.1834 H   0  0  0  0  0  0
   21.7478   13.0310   28.7800 H   0  0  0  0  0  0
  1  2  1  0  0  0
  1 91  1  0  0  0
  1 92  1  0  0  0
  1 93  1  0  0  0
  2  3  1  0  0  0
  2  5  1  0  0  0
  2 94  1  0  0  0
  3  4  2  0  0  0
  3  6  1  0  0  0
  5 95  1  0  0  0
  5 96  1  0  0  0
  5 97  1  0  0  0
  6  7  1  0  0  0
  6 12  1  0  0  0
  7  8  1  0  0  0
  7 10  1  0  0  0
  7 98  1  0  0  0
  8  9  2  0  0  0
  8 13  1  0  0  0
 10 11  1  0  0  0
 10 99  1  0  0  0
 10100  1  0  0  0
 11 12  1  0  0  0
 11101  1  0  0  0
 11102  1  0  0  0
 12103  1  0  0  0
 12104  1  0  0  0
 13 14  1  0  0  0
 13105  1  0  0  0
 14 15  1  0  0  0
 14 17  1  0  0  0
 14106  1  0  0  0
 15 16  2  0  0  0
 15 19  1  0  0  0
 17 18  1  0  0  0
 17107  1  0  0  0
 17108  1  0  0  0
 18109  1  0  0  0
 19 20  1  0  0  0
 19110  1  0  0  0
 20 21  1  0  0  0
 20 23  1  0  0  0
 20111  1  0  0  0
 21 22  2  0  0  0
 21 27  1  0  0  0
 23 24  1  0  0  0
 23 25  1  0  0  0
 23112  1  0  0  0
 24 26  1  0  0  0
 24113  1  0  0  0
 24114  1  0  0  0
 25115  1  0  0  0
 25116  1  0  0  0
 25117  1  0  0  0
 26118  1  0  0  0
 26119  1  0  0  0
 26120  1  0  0  0
 27 28  1  0  0  0
 27121  1  0  0  0
 28 29  1  0  0  0
 28 31  1  0  0  0
 28122  1  0  0  0
 29 30  2  0  0  0
 29 35  1  0  0  0
 31 32  1  0  0  0
 31123  1  0  0  0
 31124  1  0  0  0
 32 33  1  0  0  0
 32 34  2  0  0  0
 33125  1  0  0  0
 35 36  1  0  0  0
 35126  1  0  0  0
 36 37  1  0  0  0
 36 39  1  0  0  0
 36127  1  0  0  0
 37 38  2  0  0  0
 37 46  1  0  0  0
 39 40  1  0  0  0
 39128  1  0  0  0
 39129  1  0  0  0
 40 41  1  0  0  0
 40130  1  0  0  0
 40131  1  0  0  0
 41 42  1  0  0  0
 41132  1  0  0  0
 41133  1  0  0  0
 42 43  1  0  0  0
 42134  1  0  0  0
 43 44  2  0  0  0
 43 45  1  0  0  0
 44135  1  0  0  0
 45136  1  0  0  0
 45137  1  0  0  0
 46 47  1  0  0  0
 46138  1  0  0  0
 47 48  1  0  0  0
 47 50  1  0  0  0
 47139  1  0  0  0
 48 49  2  0  0  0
 48 52  1  0  0  0
 50 51  1  0  0  0
 50140  1  0  0  0
 50141  1  0  0  0
 51142  1  0  0  0
 52 53  1  0  0  0
 52143  1  0  0  0
 53 54  1  0  0  0
 53 56  1  0  0  0
 53144  1  0  0  0
 54 55  2  0  0  0
 54 59  1  0  0  0
 56 57  1  0  0  0
 56 58  1  0  0  0
 56145  1  0  0  0
 57146  1  0  0  0
 58147  1  0  0  0
 58148  1  0  0  0
 58149  1  0  0  0
 59 60  1  0  0  0
 59150  1  0  0  0
 60 61  1  0  0  0
 60 63  1  0  0  0
 60151  1  0  0  0
 61 62  2  0  0  0
 61 68  1  0  0  0
 63 64  1  0  0  0
 63152  1  0  0  0
 63153  1  0  0  0
 64 65  1  0  0  0
 64154  1  0  0  0
 64155  1  0  0  0
 65 66  1  0  0  0
 65156  1  0  0  0
 65157  1  0  0  0
 66 67  1  0  0  0
 66158  1  0  0  0
 66159  1  0  0  0
 67160  1  0  0  0
 67161  1  0  0  0
 67162  1  0  0  0
 68 69  1  0  0  0
 68 74  1  0  0  0
 69 70  1  0  0  0
 69 72  1  0  0  0
 69163  1  0  0  0
 70 71  2  0  0  0
 70 75  1  0  0  0
 72 73  1  0  0  0
 72164  1  0  0  0
 72165  1  0  0  0
 73 74  1  0  0  0
 73166  1  0  0  0
 73167  1  0  0  0
 74168  1  0  0  0
 74169  1  0  0  0
 75 76  1  0  0  0
 75 81  1  0  0  0
 76 77  1  0  0  0
 76 79  1  0  0  0
 76170  1  0  0  0
 77 78  2  0  0  0
 77 82  1  0  0  0
 79 80  1  0  0  0
 79171  1  0  0  0
 79172  1  0  0  0
 80 81  1  0  0  0
 80173  1  0  0  0
 80174  1  0  0  0
 81175  1  0  0  0
 81176  1  0  0  0
 82 83  1  0  0  0
 82177  1  0  0  0
 83 84  1  0  0  0
 83 86  1  0  0  0
 83178  1  0  0  0
 84 85  2  0  0  0
 84 90  1  0  0  0
 86 87  1  0  0  0
 86179  1  0  0  0
 86180  1  0  0  0
 87 88  1  0  0  0
 87 89  1  0  0  0
 87181  1  0  0  0
 88182  1  0  0  0
 88183  1  0  0  0
 88184  1  0  0  0
 89185  1  0  0  0
 89186  1  0  0  0
 89187  1  0  0  0
 90188  1  0  0  0
M  CHG  2   1   1  67   1
M  END
> <s_m_source_file>
../1oeb_ligand.sdf

> <i_m_source_file_index>
1

> <s_epik_input>
W05IMytdW0NAQEhdKFtDSDNdKUMoPU8pTjFbQ0BASF0oW0NIMl1bQ0gyXVtDSDJdMSlDKD1PKVtOSF1bQ0BASF0oW0NIMl1bT0hdKUMoPU8pW05IXVtDQEBIXShbQ0BASF0oW0NIM10pW0NIMl1bQ0gzXSlDKD1PKVtOSF1bQ0BASF0oW0NIMl1DKD1PKVtPSF0pQyg9TylbTkhdW0NAQEhdKFtDSDJdW0NIMl1bQ0gyXVtOSF0vQyg9TlxbSF0pW05IMl0pQyg9TylbTkhdW0NAQEhdKFtDSDJdW09IXSlDKD1PKVtOSF1bQ0BASF0oW0NASF0oW09IXSlbQ0gzXSlDKD1PKVtOSF1bQ0BASF0oW0NIMl1bQ0gyXVtDSDJdW0NIMl1bTkgzK10pQyg9TylOMltDQEBIXShbQ0gyXVtDSDJdW0NIMl0yKUMoPU8pTjNbQ0BASF0oW0NIMl1bQ0gyXVtDSDJdMylDKD1PKVtOSF1bQ0BIXShDKD1PKVtPSF0pW0NIMl1bQ0hdKFtDSDNdKVtDSDNd

> <s_epik_cmdline>
J2VwaWtfYXBwJywgJy1pbWFlJywgJ2xpZ2FuZF9wcm8ubWFlJywgJy1vbWFlJywgJ2xpZ2FuZF9wcmVwLm1hZScsICctbXMnLCAnMScsICctcGgnLCAnNycsICctcGh0JywgJzAuNScsICctbnQn

> <s_epik_pKa_notes>
Molecule size exceeds maximum supported for generating protonation states

> <s_epik_Chemistry_Notes>
This compound has an imine and may undergo hydrolysis.

$$$$
