1ogz_ligand
                    3D
 Schrodinger Suite 2020-3.
 38 41  0  0  1  0            999 V2000
   20.2120   76.6230   11.8630 C   0  0  0  0  0  0
   18.8620   76.1710   12.0560 C   0  0  0  0  0  0
   17.9430   76.2500   10.9860 C   0  0  0  0  0  0
   18.4260   76.8190    9.6500 C   0  0  0  0  0  0
   19.8110   77.2540    9.5320 C   0  0  0  0  0  0
   20.6770   77.1480   10.6390 C   0  0  0  0  0  0
   16.5700   75.8060   11.1430 C   0  0  0  0  0  0
   15.6460   75.9010   10.0470 C   0  0  0  0  0  0
   16.0660   76.4330    8.7770 C   0  0  0  0  0  0
   17.4910   76.8980    8.5790 C   0  0  0  0  0  0
   15.0750   76.5780    7.5420 C   0  0  1  0  0  0
   15.7160   76.5110    6.0460 C   0  0  2  0  0  0
   16.9140   77.5460    5.9950 C   0  0  0  0  0  0
   17.8790   77.4590    7.1650 C   0  0  0  0  0  0
   13.9170   75.5640    7.3360 C   0  0  0  0  0  0
   13.2700   76.1550    6.0330 C   0  0  0  0  0  0
   14.4620   76.7360    5.2440 C   0  0  0  0  0  0
   16.3350   75.1000    5.5850 C   0  0  0  0  0  0
   21.0620   76.5490   12.8640 O   0  0  0  0  0  0
   14.4110   77.3060    4.1340 O   0  0  0  0  0  0
   18.5494   75.7703   13.0203 H   0  0  0  0  0  0
   20.1771   77.6608    8.5893 H   0  0  0  0  0  0
   21.7132   77.4739   10.5487 H   0  0  0  0  0  0
   16.2381   75.3982   12.0978 H   0  0  0  0  0  0
   14.6168   75.5670   10.1784 H   0  0  0  0  0  0
   14.7012   77.5448    7.9103 H   0  0  0  0  0  0
   17.5050   77.3781    5.0826 H   0  0  0  0  0  0
   16.5135   78.5705    5.9890 H   0  0  0  0  0  0
   18.2104   78.5033    7.2632 H   0  0  0  0  0  0
   18.6942   76.8539    6.7415 H   0  0  0  0  0  0
   14.3326   74.5532    7.2110 H   0  0  0  0  0  0
   13.2536   75.5818    8.2133 H   0  0  0  0  0  0
   12.7621   75.3518    5.4791 H   0  0  0  0  0  0
   12.5396   76.9309    6.3057 H   0  0  0  0  0  0
   17.2563   74.9010    6.1520 H   0  0  0  0  0  0
   16.5662   75.1347    4.5101 H   0  0  0  0  0  0
   15.6058   74.2993    5.7775 H   0  0  0  0  0  0
   22.0990   76.8912   12.7314 H   0  0  0  0  0  0
  1  6  2  0  0  0
  1  2  1  0  0  0
  1 19  1  0  0  0
  2  3  2  0  0  0
  2 21  1  0  0  0
  3  4  1  0  0  0
  3  7  1  0  0  0
  4  5  2  0  0  0
  4 10  1  0  0  0
  5  6  1  0  0  0
  5 22  1  0  0  0
  6 23  1  0  0  0
  7  8  2  0  0  0
  7 24  1  0  0  0
  8  9  1  0  0  0
  8 25  1  0  0  0
  9 10  2  0  0  0
  9 11  1  0  0  0
 10 14  1  0  0  0
 11 12  1  0  0  0
 11 15  1  0  0  0
 11 26  1  0  0  0
 12 13  1  0  0  0
 12 17  1  0  0  0
 12 18  1  0  0  0
 13 14  1  0  0  0
 13 27  1  0  0  0
 13 28  1  0  0  0
 14 29  1  0  0  0
 14 30  1  0  0  0
 15 16  1  0  0  0
 15 31  1  0  0  0
 15 32  1  0  0  0
 16 17  1  0  0  0
 16 33  1  0  0  0
 16 34  1  0  0  0
 17 20  2  0  0  0
 18 35  1  0  0  0
 18 36  1  0  0  0
 18 37  1  0  0  0
 19 38  1  0  0  0
M  END
> <s_m_source_file>
../1ogz_ligand.sdf

> <i_m_source_file_index>
1

> <s_epik_input>
W2NIXTFbY0hdYyhbT0hdKVtjSF1jKFtjSF1bY0hdMiljMWMoW0NIMl1bQ0gyXTMpYzJbQ0BASF0oW0NAXTM0W0NIM10pW0NIMl1bQ0gyXUM0PU8=

> <s_epik_cmdline>
J2VwaWtfYXBwJywgJy1pbWFlJywgJ2xpZ2FuZF9wcm8ubWFlJywgJy1vbWFlJywgJ2xpZ2FuZF9wcmVwLm1hZScsICctbXMnLCAnMScsICctcGgnLCAnNycsICctcGh0JywgJzAuNScsICctbnQn

> <r_lp_tautomer_probability>
1

> <r_epik_Ionization_Penalty>
  0.0007

> <r_epik_Ionization_Penalty_Charging>
  0.0000

> <r_epik_Ionization_Penalty_Neutral>
  0.0007

> <r_epik_State_Penalty>
 -0.0000

> <r_epik_Charging_Adjusted_Penalty>
0

> <i_epik_Tot_Q>
0

> <i_epik_Tot_abs_Q>
0

$$$$
