1oh4_ligand
                    3D
 Schrodinger Suite 2020-3.
150156  0  0  1  0            999 V2000
   24.9280   21.5930    1.6110 C   0  0  2  0  0  0
   23.5580   22.2530    1.7190 C   0  0  2  0  0  0
   22.4750   21.2740    1.2760 C   0  0  2  0  0  0
   22.7180   20.6740   -0.1170 C   0  0  1  0  0  0
   24.1630   20.1610   -0.1030 C   0  0  1  0  0  0
   24.5990   19.6050   -1.4480 C   0  0  0  0  0  0
   25.9570   22.4800    2.0200 O   0  0  0  0  0  0
   23.3900   23.3210    1.3010 O   0  0  0  0  0  0
   21.3870   21.6190    1.6440 O   0  0  0  0  0  0
   21.7170   19.6770   -0.4260 O   0  0  0  0  0  0
   25.0710   21.2060    0.2640 O   0  0  0  0  0  0
   24.7930   20.6830   -2.3220 O   0  0  0  0  0  0
   20.4960   20.3180   -0.8630 C   0  0  1  0  0  0
   19.4120   19.2950   -1.1490 C   0  0  2  0  0  0
   18.1890   20.0190   -1.7350 C   0  0  2  0  0  0
   17.7760   21.1310   -0.7320 C   0  0  1  0  0  0
   18.9300   22.0630   -0.3360 C   0  0  1  0  0  0
   18.5130   23.0560    0.7670 C   0  0  0  0  0  0
   19.0110   18.5000   -0.0560 O   0  0  0  0  0  0
   17.1620   19.0680   -1.9420 O   0  0  0  0  0  0
   16.8130   22.0230   -1.2650 O   0  0  0  0  0  0
   20.0290   21.2770    0.0940 O   0  0  0  0  0  0
   19.4830   24.0220    1.1610 O   0  0  0  0  0  0
   15.4720   21.7740   -0.8930 C   0  0  1  0  0  0
   14.6330   23.0400   -0.9470 C   0  0  2  0  0  0
   13.1760   22.6810   -0.6560 C   0  0  2  0  0  0
   12.6760   21.5970   -1.6040 C   0  0  1  0  0  0
   13.6170   20.4030   -1.5440 C   0  0  1  0  0  0
   13.2170   19.2990   -2.5230 C   0  0  0  0  0  0
   14.7670   23.7190   -2.1930 O   0  0  0  0  0  0
   12.4040   23.8520   -0.6790 O   0  0  0  0  0  0
   11.4020   21.2140   -1.1670 O   0  0  0  0  0  0
   14.9430   20.8470   -1.8130 O   0  0  0  0  0  0
   13.2230   19.8080   -3.8450 O   0  0  0  0  0  0
   10.3480   21.2420   -2.1040 C   0  0  1  0  0  0
    9.1170   20.6720   -1.4380 C   0  0  2  0  0  0
    7.9130   20.7790   -2.3360 C   0  0  2  0  0  0
    7.7540   22.2270   -2.7810 C   0  0  1  0  0  0
    9.0630   22.6950   -3.4120 C   0  0  1  0  0  0
    8.9130   24.1430   -3.8180 C   0  0  0  0  0  0
    8.8860   21.3850   -0.2390 O   0  0  0  0  0  0
    6.7960   20.2870   -1.6600 O   0  0  0  0  0  0
    6.7200   22.2850   -3.7600 O   0  0  0  0  0  0
   10.1340   22.5680   -2.4790 O   0  0  0  0  0  0
   10.0670   24.5430   -4.5000 O   0  0  0  0  0  0
    5.5730   23.1290   -3.4640 C   0  0  1  0  0  0
    5.0190   23.6050   -4.8030 C   0  0  2  0  0  0
    3.8160   24.4950   -4.5600 C   0  0  2  0  0  0
    2.7780   23.7680   -3.7100 C   0  0  1  0  0  0
    3.3410   22.9900   -2.5340 C   0  0  1  0  0  0
    2.3390   21.8710   -2.2410 C   0  0  0  0  0  0
    4.6420   22.4060   -5.4490 O   0  0  0  0  0  0
    3.2310   24.8160   -5.8050 O   0  0  0  0  0  0
    1.8500   24.6930   -3.1670 O   0  0  0  0  0  0
    4.5970   22.3750   -2.7810 O   0  0  0  0  0  0
    2.1920   21.0260   -3.3810 O   0  0  0  0  0  0
   10.0810   24.1410   -6.1160 C   0  0  2  0  0  0
   11.4610   24.6680   -6.5390 C   0  0  1  0  0  0
   11.4760   26.1830   -6.4970 C   0  0  2  0  0  0
   10.2270   26.8180   -7.1130 C   0  0  2  0  0  0
    8.9660   26.2980   -6.4290 C   0  0  1  0  0  0
    7.6780   26.9460   -6.9600 C   0  0  0  0  0  0
   12.4960   24.1810   -5.7100 O   0  0  0  0  0  0
   12.6430   26.6080   -7.1470 O   0  0  0  0  0  0
   10.1570   26.5740   -8.5110 O   0  0  0  0  0  0
    8.9450   24.8930   -6.6010 O   0  0  0  0  0  0
    6.7510   25.9310   -7.2820 O   0  0  0  0  0  0
   13.1350   18.6740   -5.3470 C   0  0  2  0  0  0
   13.9640   19.4320   -6.3760 C   0  0  1  0  0  0
   13.3170   20.7750   -6.7070 C   0  0  2  0  0  0
   11.8620   20.5660   -7.0660 C   0  0  2  0  0  0
   11.1760   20.0440   -5.8190 C   0  0  1  0  0  0
    9.6770   19.7690   -5.9510 C   0  0  0  0  0  0
   15.2930   19.6040   -5.8850 O   0  0  0  0  0  0
   13.9860   21.2430   -7.8640 O   0  0  0  0  0  0
   11.7640   19.5860   -8.1050 O   0  0  0  0  0  0
   11.7270   18.7810   -5.5060 O   0  0  0  0  0  0
    8.9850   20.8730   -6.4820 O   0  0  0  0  0  0
   25.0792   20.7069    2.2450 H   0  0  0  0  0  0
   23.4423   22.8083    2.6614 H   0  0  0  0  0  0
   22.2020   20.4435    1.9436 H   0  0  0  0  0  0
   22.5645   21.3691   -0.9556 H   0  0  0  0  0  0
   24.2416   19.3813    0.6689 H   0  0  0  0  0  0
   25.5364   19.0425   -1.3258 H   0  0  0  0  0  0
   23.8182   18.9359   -1.8387 H   0  0  0  0  0  0
   25.9732   22.8660    3.0499 H   0  0  0  0  0  0
   24.0999   24.1251    1.5449 H   0  0  0  0  0  0
   21.2559   22.0442    2.6500 H   0  0  0  0  0  0
   25.1137   20.5001   -3.3582 H   0  0  0  0  0  0
   20.7641   20.8907   -1.7631 H   0  0  0  0  0  0
   19.8515   18.5202   -1.7944 H   0  0  0  0  0  0
   18.3473   20.4297   -2.7431 H   0  0  0  0  0  0
   17.3251   20.5995    0.1190 H   0  0  0  0  0  0
   19.2934   22.6212   -1.2114 H   0  0  0  0  0  0
   17.6387   23.6322    0.4301 H   0  0  0  0  0  0
   18.2564   22.5015    1.6817 H   0  0  0  0  0  0
   19.7551   17.9046    0.4933 H   0  0  0  0  0  0
   17.3233   18.2254   -2.6305 H   0  0  0  0  0  0
   19.2416   24.7563    1.9436 H   0  0  0  0  0  0
   15.4922   21.3337    0.1148 H   0  0  0  0  0  0
   15.0151   23.7869   -0.2356 H   0  0  0  0  0  0
   13.0254   22.3179    0.3714 H   0  0  0  0  0  0
   12.5564   21.9501   -2.6389 H   0  0  0  0  0  0
   13.6287   19.9873   -0.5257 H   0  0  0  0  0  0
   13.9325   18.4668   -2.4494 H   0  0  0  0  0  0
   12.2078   18.9378   -2.2759 H   0  0  0  0  0  0
   15.7598   24.0421   -2.5393 H   0  0  0  0  0  0
   12.6735   24.7012   -0.0338 H   0  0  0  0  0  0
   10.6386   20.7010   -3.0166 H   0  0  0  0  0  0
    9.2716   19.6186   -1.1614 H   0  0  0  0  0  0
    7.9690   20.1187   -3.2140 H   0  0  0  0  0  0
    7.4456   22.8823   -1.9530 H   0  0  0  0  0  0
    9.3495   22.0651   -4.2671 H   0  0  0  0  0  0
    8.0366   24.2510   -4.4740 H   0  0  0  0  0  0
    8.7774   24.7635   -2.9199 H   0  0  0  0  0  0
    9.6620   21.4172    0.5400 H   0  0  0  0  0  0
    6.7900   19.2518   -1.2882 H   0  0  0  0  0  0
    5.8501   23.9407   -2.7753 H   0  0  0  0  0  0
    5.7265   24.1463   -5.4484 H   0  0  0  0  0  0
    4.1231   25.4427   -4.0935 H   0  0  0  0  0  0
    2.2508   23.0834   -4.3907 H   0  0  0  0  0  0
    3.5658   23.6855   -1.7119 H   0  0  0  0  0  0
    2.6984   21.2699   -1.3928 H   0  0  0  0  0  0
    1.3618   22.3099   -1.9914 H   0  0  0  0  0  0
    5.4034   21.6515   -5.6962 H   0  0  0  0  0  0
    3.8187   25.3471   -6.5682 H   0  0  0  0  0  0
    1.3041   25.3788   -3.8316 H   0  0  0  0  0  0
    1.5065   20.1665   -3.3438 H   0  0  0  0  0  0
    9.9434   23.1352   -6.5396 H   0  0  0  0  0  0
   11.7155   24.2816   -7.5370 H   0  0  0  0  0  0
   11.5529   26.5435   -5.4606 H   0  0  0  0  0  0
   10.2912   27.9134   -7.0363 H   0  0  0  0  0  0
    9.0035   26.4832   -5.3453 H   0  0  0  0  0  0
    7.2535   27.6043   -6.1878 H   0  0  0  0  0  0
    7.9083   27.5365   -7.8590 H   0  0  0  0  0  0
   12.6524   23.0973   -5.6046 H   0  0  0  0  0  0
   13.6237   26.2360   -6.8156 H   0  0  0  0  0  0
   10.9847   26.8845   -9.1656 H   0  0  0  0  0  0
    5.7609   26.1968   -7.6808 H   0  0  0  0  0  0
   13.3944   17.6180   -5.5129 H   0  0  0  0  0  0
   14.0781   18.8444   -7.2989 H   0  0  0  0  0  0
   13.4118   21.5147   -5.8984 H   0  0  0  0  0  0
   11.3898   21.4759   -7.4650 H   0  0  0  0  0  0
   11.3687   20.7912   -5.0350 H   0  0  0  0  0  0
    9.5193   18.9100   -6.6197 H   0  0  0  0  0  0
    9.2568   19.5439   -4.9597 H   0  0  0  0  0  0
   15.8926   18.7263   -5.6019 H   0  0  0  0  0  0
   15.0633   21.4618   -7.8257 H   0  0  0  0  0  0
   12.2059   19.7852   -9.0924 H   0  0  0  0  0  0
    7.8968   20.8190   -6.6334 H   0  0  0  0  0  0
  1  2  1  0  0  0
  1  7  1  0  0  0
  1 11  1  0  0  0
  1 79  1  0  0  0
  2  3  1  0  0  0
  2  8  1  0  0  0
  2 80  1  0  0  0
  3  4  1  0  0  0
  3  9  1  0  0  0
  3 81  1  0  0  0
  4  5  1  0  0  0
  4 10  1  0  0  0
  4 82  1  0  0  0
  5  6  1  0  0  0
  5 11  1  0  0  0
  5 83  1  0  0  0
  6 12  1  0  0  0
  6 84  1  0  0  0
  6 85  1  0  0  0
  7 86  1  0  0  0
  8 87  1  0  0  0
  9 88  1  0  0  0
 10 13  1  0  0  0
 12 89  1  0  0  0
 13 14  1  0  0  0
 13 22  1  0  0  0
 13 90  1  0  0  0
 14 15  1  0  0  0
 14 19  1  0  0  0
 14 91  1  0  0  0
 15 16  1  0  0  0
 15 20  1  0  0  0
 15 92  1  0  0  0
 16 17  1  0  0  0
 16 21  1  0  0  0
 16 93  1  0  0  0
 17 18  1  0  0  0
 17 22  1  0  0  0
 17 94  1  0  0  0
 18 23  1  0  0  0
 18 95  1  0  0  0
 18 96  1  0  0  0
 19 97  1  0  0  0
 20 98  1  0  0  0
 21 24  1  0  0  0
 23 99  1  0  0  0
 24 25  1  0  0  0
 24 33  1  0  0  0
 24100  1  0  0  0
 25 26  1  0  0  0
 25 30  1  0  0  0
 25101  1  0  0  0
 26 27  1  0  0  0
 26 31  1  0  0  0
 26102  1  0  0  0
 27 28  1  0  0  0
 27 32  1  0  0  0
 27103  1  0  0  0
 28 29  1  0  0  0
 28 33  1  0  0  0
 28104  1  0  0  0
 29 34  1  0  0  0
 29105  1  0  0  0
 29106  1  0  0  0
 30107  1  0  0  0
 31108  1  0  0  0
 32 35  1  0  0  0
 34 68  1  0  0  0
 35 36  1  0  0  0
 35 44  1  0  0  0
 35109  1  0  0  0
 36 37  1  0  0  0
 36 41  1  0  0  0
 36110  1  0  0  0
 37 38  1  0  0  0
 37 42  1  0  0  0
 37111  1  0  0  0
 38 39  1  0  0  0
 38 43  1  0  0  0
 38112  1  0  0  0
 39 40  1  0  0  0
 39 44  1  0  0  0
 39113  1  0  0  0
 40 45  1  0  0  0
 40114  1  0  0  0
 40115  1  0  0  0
 41116  1  0  0  0
 42117  1  0  0  0
 43 46  1  0  0  0
 45 57  1  0  0  0
 46 47  1  0  0  0
 46 55  1  0  0  0
 46118  1  0  0  0
 47 48  1  0  0  0
 47 52  1  0  0  0
 47119  1  0  0  0
 48 49  1  0  0  0
 48 53  1  0  0  0
 48120  1  0  0  0
 49 50  1  0  0  0
 49 54  1  0  0  0
 49121  1  0  0  0
 50 51  1  0  0  0
 50 55  1  0  0  0
 50122  1  0  0  0
 51 56  1  0  0  0
 51123  1  0  0  0
 51124  1  0  0  0
 52125  1  0  0  0
 53126  1  0  0  0
 54127  1  0  0  0
 56128  1  0  0  0
 57 58  1  0  0  0
 57 66  1  0  0  0
 57129  1  0  0  0
 58 59  1  0  0  0
 58 63  1  0  0  0
 58130  1  0  0  0
 59 60  1  0  0  0
 59 64  1  0  0  0
 59131  1  0  0  0
 60 61  1  0  0  0
 60 65  1  0  0  0
 60132  1  0  0  0
 61 62  1  0  0  0
 61 66  1  0  0  0
 61133  1  0  0  0
 62 67  1  0  0  0
 62134  1  0  0  0
 62135  1  0  0  0
 63136  1  0  0  0
 64137  1  0  0  0
 65138  1  0  0  0
 67139  1  0  0  0
 68 69  1  0  0  0
 68 77  1  0  0  0
 68140  1  0  0  0
 69 70  1  0  0  0
 69 74  1  0  0  0
 69141  1  0  0  0
 70 71  1  0  0  0
 70 75  1  0  0  0
 70142  1  0  0  0
 71 72  1  0  0  0
 71 76  1  0  0  0
 71143  1  0  0  0
 72 73  1  0  0  0
 72 77  1  0  0  0
 72144  1  0  0  0
 73 78  1  0  0  0
 73145  1  0  0  0
 73146  1  0  0  0
 74147  1  0  0  0
 75148  1  0  0  0
 76149  1  0  0  0
 78150  1  0  0  0
M  END
> <s_m_source_file>
../1oh4_ligand.sdf

> <i_m_source_file_index>
1

> <s_epik_input>
W09IXVtDQEhdMVtDQEBIXShbT0hdKVtDQEBIXShbT0hdKVtDQEBIXShbQ0BIXShPMSlbQ0gyXVtPSF0pT1tDQEhdMltDQEBIXShbT0hdKVtDQEBIXShbT0hdKVtDQEBIXShbQ0BIXShPMilbQ0gyXVtPSF0pT1tDQEhdM1tDQEBIXShbT0hdKVtDQEBIXShbT0hdKVtDQEBIXShbQ0BIXShPMylbQ0gyXU9bQ0BASF00W0NASF0oW09IXSlbQ0BASF0oW09IXSlbQ0BASF0oW09IXSlbQ0BIXShPNClbQ0gyXVtPSF0pT1tDQEhdNVtDQEBIXShbT0hdKVtDQEBIXShbT0hdKVtDQEhdKE9bQ0BIXTZbQ0BASF0oW09IXSlbQ0BASF0oW09IXSlbQ0BIXShbT0hdKVtDQEhdKE82KVtDSDJdW09IXSlbQ0BIXShPNSlbQ0gyXU9bQ0BASF03W0NASF0oW09IXSlbQ0BASF0oW09IXSlbQ0BASF0oW09IXSlbQ0BIXShPNylbQ0gyXVtPSF0=

> <s_epik_cmdline>
J2VwaWtfYXBwJywgJy1pbWFlJywgJ2xpZ2FuZF9wcm8ubWFlJywgJy1vbWFlJywgJ2xpZ2FuZF9wcmVwLm1hZScsICctbXMnLCAnMScsICctcGgnLCAnNycsICctcGh0JywgJzAuNScsICctbnQn

> <r_lp_tautomer_probability>
1

> <r_epik_Ionization_Penalty>
  0.0000

> <r_epik_Ionization_Penalty_Charging>
  0.0000

> <r_epik_Ionization_Penalty_Neutral>
  0.0000

> <r_epik_State_Penalty>
 -0.0000

> <r_epik_Charging_Adjusted_Penalty>
0

> <i_epik_Tot_Q>
0

> <i_epik_Tot_abs_Q>
0

> <s_epik_Chemistry_Notes>
This compound contains an acetal/aminal-like group ( X-CH(R)-Y where X, Y are N, S, or O) that may be acid/base labile, releasing an aldehyde.

$$$$
