1oi9_ligand
                    3D
 Schrodinger Suite 2020-3.
 46 49  0  0  1  0            999 V2000
    7.9430   43.7940   49.8040 C   0  0  0  0  0  0
    2.8750   40.0740   48.9520 O   0  0  0  0  0  0
   10.6830   46.4870   52.0230 C   0  0  0  0  0  0
    4.9330   45.9430   51.6860 C   0  0  0  0  0  0
    4.0360   46.1890   52.8930 C   0  0  0  0  0  0
    2.6070   45.7530   52.5480 C   0  0  0  0  0  0
    1.6340   45.8910   53.7310 C   0  0  0  0  0  0
    2.1950   45.3580   55.0540 C   0  0  0  0  0  0
    3.6340   45.8150   55.3170 C   0  0  0  0  0  0
    4.5400   45.4600   54.1420 C   0  0  0  0  0  0
    4.4640   41.3480   50.0690 C   0  0  0  0  0  0
    4.0280   40.7240   48.9090 C   0  0  0  0  0  0
    4.7660   40.8070   47.7340 C   0  0  0  0  0  0
    5.9740   41.5130   47.7500 C   0  0  0  0  0  0
    6.9900   44.4610   50.5040 N   0  0  0  0  0  0
    7.2750   45.4390   51.3880 C   0  0  0  0  0  0
    6.2950   46.1090   52.0700 O   0  0  0  0  0  0
    8.6840   45.7920   51.5760 C   0  0  0  0  0  0
    9.3440   46.7070   52.3490 N   0  0  0  0  0  0
   10.9380   45.4970   51.0720 N   0  3  0  0  0  0
    9.6430   45.0600   50.8010 C   0  0  0  0  0  0
    9.2660   44.0820   49.9480 N   0  0  0  0  0  0
    7.5750   42.8240   48.9260 N   0  0  0  0  0  0
    6.4030   42.1440   48.9250 C   0  0  0  0  0  0
    5.6420   42.0570   50.0830 C   0  0  0  0  0  0
    2.3080   40.0214   49.8932 H   0  0  0  0  0  0
   11.4719   47.0802   52.5086 H   0  0  0  0  0  0
    4.7769   44.9190   51.3158 H   0  0  0  0  0  0
    4.6841   46.6620   50.8916 H   0  0  0  0  0  0
    4.0573   47.2643   53.1239 H   0  0  0  0  0  0
    2.2227   46.3740   51.7254 H   0  0  0  0  0  0
    2.6101   44.6971   52.2397 H   0  0  0  0  0  0
    1.3894   46.9527   53.8826 H   0  0  0  0  0  0
    0.7129   45.3296   53.5156 H   0  0  0  0  0  0
    1.5718   45.7154   55.8870 H   0  0  0  0  0  0
    2.1898   44.2581   55.0379 H   0  0  0  0  0  0
    3.6519   46.9054   55.4610 H   0  0  0  0  0  0
    4.0166   45.3194   56.2214 H   0  0  0  0  0  0
    4.5161   44.3742   53.9675 H   0  0  0  0  0  0
    5.5718   45.7739   54.3585 H   0  0  0  0  0  0
    3.8669   41.2755   50.9780 H   0  0  0  0  0  0
    4.4111   40.3321   46.8193 H   0  0  0  0  0  0
    6.5820   41.5721   46.8472 H   0  0  0  0  0  0
    8.2594   42.5246   48.1185 H   0  0  0  0  0  0
    5.9762   42.5475   50.9972 H   0  0  0  0  0  0
   11.9722   45.2838   50.7637 H   0  0  0  0  0  0
  1 15  2  0  0  0
  1 22  1  0  0  0
  1 23  1  0  0  0
  2 12  1  0  0  0
  2 26  1  0  0  0
  3 19  2  0  0  0
  3 20  1  0  0  0
  3 27  1  0  0  0
  4  5  1  0  0  0
  4 17  1  0  0  0
  4 28  1  0  0  0
  4 29  1  0  0  0
  5  6  1  0  0  0
  5 10  1  0  0  0
  5 30  1  0  0  0
  6  7  1  0  0  0
  6 31  1  0  0  0
  6 32  1  0  0  0
  7  8  1  0  0  0
  7 33  1  0  0  0
  7 34  1  0  0  0
  8  9  1  0  0  0
  8 35  1  0  0  0
  8 36  1  0  0  0
  9 10  1  0  0  0
  9 37  1  0  0  0
  9 38  1  0  0  0
 10 39  1  0  0  0
 10 40  1  0  0  0
 11 12  2  0  0  0
 11 25  1  0  0  0
 11 41  1  0  0  0
 12 13  1  0  0  0
 13 14  2  0  0  0
 13 42  1  0  0  0
 14 24  1  0  0  0
 14 43  1  0  0  0
 15 16  1  0  0  0
 16 17  1  0  0  0
 16 18  2  0  0  0
 18 19  1  0  0  0
 18 21  1  0  0  0
 20 21  1  0  0  0
 20 46  1  0  0  0
 21 22  2  0  0  0
 23 24  1  0  0  0
 23 44  1  0  0  0
 24 25  2  0  0  0
 25 45  1  0  0  0
M  CHG  1  20   1
M  END
> <s_m_source_file>
../1oi9_ligand.sdf

> <i_m_source_file_index>
1

> <s_epik_input>
W09IXWMxW2NIXVtjSF1jKFtjSF1bY0hdMSlbTkhdYyhuYyhjMjMpW25IXVtjSF1uMyluYzJPW0NIMl1bQ0hdNFtDSDJdW0NIMl1bQ0gyXVtDSDJdW0NIMl00

> <s_epik_cmdline>
J2VwaWtfYXBwJywgJy1pbWFlJywgJ2xpZ2FuZF9wcm8ubWFlJywgJy1vbWFlJywgJ2xpZ2FuZF9wcmVwLm1hZScsICctbXMnLCAnMScsICctcGgnLCAnNycsICctcGh0JywgJzAuNScsICctbnQn

> <r_lp_tautomer_probability>
1

> <r_epik_Ionization_Penalty>
  0.0095

> <r_epik_Ionization_Penalty_Charging>
  0.0000

> <r_epik_Ionization_Penalty_Neutral>
  0.0095

> <r_epik_State_Penalty>
 -0.0000

> <r_epik_Charging_Adjusted_Penalty>
0

> <i_epik_Tot_Q>
1

> <i_epik_Tot_abs_Q>
1

> <s_epik_Chemistry_Notes>
This compound has an imine and may undergo hydrolysis.

$$$$
