1oiq_ligand
                    3D
 Schrodinger Suite 2020-3.
 33 35  0  0  1  0            999 V2000
   10.9720   -9.7210   10.7170 O   0  0  0  0  0  0
   10.3520  -10.5520   11.3910 C   0  0  0  0  0  0
    9.1160  -11.1830   10.8190 C   0  0  0  0  0  0
   10.7340  -10.9250   12.6190 N   0  0  0  0  0  0
   11.9030  -10.3940   13.2890 C   0  0  0  0  0  0
   12.8410   -9.5420   12.6240 N   0  0  0  0  0  0
   12.1840  -10.6980   14.6630 N   0  0  0  0  0  0
   13.2600  -10.1780   15.2460 C   0  0  0  0  0  0
   14.0960   -9.3960   14.5860 C   0  0  0  0  0  0
   13.9020   -9.0800   13.2850 C   0  0  0  0  0  0
   14.8400   -8.1500   12.5670 C   0  0  0  0  0  0
   14.5850   -7.5080   11.2960 N   0  0  0  0  0  0
   15.6850   -6.6890   11.0130 C   0  0  0  0  0  0
   16.6130   -6.7830   12.0620 N   0  0  0  0  0  0
   16.1650   -7.6280   13.0200 C   0  0  0  0  0  0
   16.9440   -7.9520   14.2620 C   0  0  0  0  0  0
   15.7110   -5.9470    9.8340 C   0  0  0  0  0  0
   14.6450   -6.0130    8.9250 C   0  0  0  0  0  0
   13.5530   -6.8240    9.2270 C   0  0  0  0  0  0
   13.5550   -7.5600   10.4250 C   0  0  0  0  0  0
    8.9308  -10.7799    9.8124 H   0  0  0  0  0  0
    8.2562  -10.9590   11.4676 H   0  0  0  0  0  0
    9.2552  -12.2724   10.7579 H   0  0  0  0  0  0
   10.1485  -11.6731   13.1736 H   0  0  0  0  0  0
   13.4573  -10.4024   16.2943 H   0  0  0  0  0  0
   14.9665   -8.9942   15.1045 H   0  0  0  0  0  0
   16.3709   -8.6585   14.8804 H   0  0  0  0  0  0
   17.1253   -7.0290   14.8323 H   0  0  0  0  0  0
   17.9065   -8.4058   13.9832 H   0  0  0  0  0  0
   16.5677   -5.3093    9.6161 H   0  0  0  0  0  0
   14.6703   -5.4397    7.9983 H   0  0  0  0  0  0
   12.7071   -6.8871    8.5425 H   0  0  0  0  0  0
   12.6982   -8.1923   10.6577 H   0  0  0  0  0  0
  1  2  2  0  0  0
  2  3  1  0  0  0
  2  4  1  0  0  0
  3 21  1  0  0  0
  3 22  1  0  0  0
  3 23  1  0  0  0
  4  5  1  0  0  0
  4 24  1  0  0  0
  5  6  2  0  0  0
  5  7  1  0  0  0
  6 10  1  0  0  0
  7  8  2  0  0  0
  8  9  1  0  0  0
  8 25  1  0  0  0
  9 10  2  0  0  0
  9 26  1  0  0  0
 10 11  1  0  0  0
 11 12  1  0  0  0
 11 15  2  0  0  0
 12 13  1  0  0  0
 12 20  1  0  0  0
 13 14  2  0  0  0
 13 17  1  0  0  0
 14 15  1  0  0  0
 15 16  1  0  0  0
 16 27  1  0  0  0
 16 28  1  0  0  0
 16 29  1  0  0  0
 17 18  2  0  0  0
 17 30  1  0  0  0
 18 19  1  0  0  0
 18 31  1  0  0  0
 19 20  2  0  0  0
 19 32  1  0  0  0
 20 33  1  0  0  0
M  END
> <s_m_source_file>
../1oiq_ligand.sdf

> <i_m_source_file_index>
1

> <s_epik_input>
Tz1DKFtDSDNdKVtOSF1jMW5jKFtjSF1bY0hdbjEpLWMyYyhbQ0gzXSluYyhuMjMpW2NIXVtjSF1bY0hdW2NIXTM=

> <s_epik_cmdline>
J2VwaWtfYXBwJywgJy1pbWFlJywgJ2xpZ2FuZF9wcm8ubWFlJywgJy1vbWFlJywgJ2xpZ2FuZF9wcmVwLm1hZScsICctbXMnLCAnMScsICctcGgnLCAnNycsICctcGh0JywgJzAuNScsICctbnQn

> <r_lp_tautomer_probability>
1

> <r_epik_Ionization_Penalty>
  0.0696

> <r_epik_Ionization_Penalty_Charging>
  0.0696

> <r_epik_Ionization_Penalty_Neutral>
  0.0000

> <r_epik_State_Penalty>
  0.0610

> <r_epik_Charging_Adjusted_Penalty>
0.130609448118523

> <i_epik_Tot_Q>
0

> <i_epik_Tot_abs_Q>
0

$$$$
