1oir_ligand
                    3D
 Schrodinger Suite 2020-3.
 58 61  0  0  1  0            999 V2000
   -2.3020   29.8690    9.6880 C   0  0  0  0  0  0
   -1.7660   28.4940    9.4240 C   0  0  0  0  0  0
   -2.2330   27.3860   10.0040 N   0  0  0  0  0  0
   -1.5020   26.3230    9.5490 C   0  0  0  0  0  0
   -1.6700   24.9940    9.8810 C   0  0  0  0  0  0
   -0.8280   24.0660    9.2700 C   0  0  0  0  0  0
    0.1480   24.4680    8.3420 C   0  0  0  0  0  0
   -0.5270   26.6900    8.6190 N   0  0  0  0  0  0
    0.2900   25.8200    8.0020 C   0  0  0  0  0  0
   -0.6580   28.1220    8.4880 C   0  0  0  0  0  0
    0.1940   28.9810    7.6540 C   0  0  0  0  0  0
   -0.1210   30.3060    7.3710 C   0  0  0  0  0  0
    0.7860   31.0350    6.6090 C   0  0  0  0  0  0
    1.9080   30.4360    6.1810 N   0  0  0  0  0  0
    1.3540   28.4310    7.2300 N   0  0  0  0  0  0
    2.2080   29.1390    6.4790 C   0  0  0  0  0  0
    3.3630   28.5960    6.0170 N   0  0  0  0  0  0
    3.8220   27.3140    6.0820 C   0  0  0  0  0  0
    4.4700   26.8310    4.9480 C   0  0  0  0  0  0
    5.0030   25.5390    4.9040 C   0  0  0  0  0  0
    3.7210   26.4700    7.2010 C   0  0  0  0  0  0
    4.2600   25.1700    7.1520 C   0  0  0  0  0  0
    4.8910   24.6820    5.9990 C   0  0  0  0  0  0
    5.4450   23.3970    5.9840 O   0  0  0  0  0  0
    5.0750   22.2240    5.2280 C   0  0  0  0  0  0
    6.3010   21.3080    5.0100 C   0  0  1  0  0  0
    7.4670   21.9350    5.5460 O   0  0  0  0  0  0
    6.1760   19.9110    5.6520 C   0  0  0  0  0  0
    5.2590   18.9700    4.9860 N   0  3  0  0  0  0
    6.0290   17.9250    4.3220 C   0  0  0  0  0  0
    4.4410   18.2640    5.9680 C   0  0  0  0  0  0
   -3.1147   29.8101   10.4270 H   0  0  0  0  0  0
   -2.6882   30.2980    8.7516 H   0  0  0  0  0  0
   -1.4964   30.5077   10.0791 H   0  0  0  0  0  0
   -2.4326   24.6816   10.5944 H   0  0  0  0  0  0
   -0.9285   23.0090    9.5166 H   0  0  0  0  0  0
    0.7987   23.7232    7.8838 H   0  0  0  0  0  0
    1.0284   26.1502    7.2714 H   0  0  0  0  0  0
   -1.0450   30.7566    7.7332 H   0  0  0  0  0  0
    0.5882   32.0783    6.3629 H   0  0  0  0  0  0
    4.0975   29.2273    5.4955 H   0  0  0  0  0  0
    4.5640   27.4754    4.0739 H   0  0  0  0  0  0
    5.5123   25.1973    4.0029 H   0  0  0  0  0  0
    3.2258   26.8214    8.1062 H   0  0  0  0  0  0
    4.1850   24.5287    8.0302 H   0  0  0  0  0  0
    4.3039   21.6627    5.7761 H   0  0  0  0  0  0
    4.6794   22.5291    4.2480 H   0  0  0  0  0  0
    6.4447   21.1946    3.9253 H   0  0  0  0  0  0
    7.7458   22.9480    5.2202 H   0  0  0  0  0  0
    7.1610   19.4214    5.6594 H   0  0  0  0  0  0
    5.8096   20.0132    6.6841 H   0  0  0  0  0  0
    4.6393   19.5476    4.2843 H   0  0  0  0  0  0
    6.6788   18.3774    3.5584 H   0  0  0  0  0  0
    5.3421   17.2117    3.8431 H   0  0  0  0  0  0
    6.6469   17.3976    5.0636 H   0  0  0  0  0  0
    3.8227   18.9882    6.5187 H   0  0  0  0  0  0
    5.0944   17.7289    6.6728 H   0  0  0  0  0  0
    3.7897   17.5431    5.4523 H   0  0  0  0  0  0
  1  2  1  0  0  0
  1 32  1  0  0  0
  1 33  1  0  0  0
  1 34  1  0  0  0
  2  3  1  0  0  0
  2 10  2  0  0  0
  3  4  2  0  0  0
  4  5  1  0  0  0
  4  8  1  0  0  0
  5  6  2  0  0  0
  5 35  1  0  0  0
  6  7  1  0  0  0
  6 36  1  0  0  0
  7  9  2  0  0  0
  7 37  1  0  0  0
  8  9  1  0  0  0
  8 10  1  0  0  0
  9 38  1  0  0  0
 10 11  1  0  0  0
 11 12  2  0  0  0
 11 15  1  0  0  0
 12 13  1  0  0  0
 12 39  1  0  0  0
 13 14  2  0  0  0
 13 40  1  0  0  0
 14 16  1  0  0  0
 15 16  2  0  0  0
 16 17  1  0  0  0
 17 18  1  0  0  0
 17 41  1  0  0  0
 18 19  2  0  0  0
 18 21  1  0  0  0
 19 20  1  0  0  0
 19 42  1  0  0  0
 20 23  2  0  0  0
 20 43  1  0  0  0
 21 22  2  0  0  0
 21 44  1  0  0  0
 22 23  1  0  0  0
 22 45  1  0  0  0
 23 24  1  0  0  0
 24 25  1  0  0  0
 25 26  1  0  0  0
 25 46  1  0  0  0
 25 47  1  0  0  0
 26 27  1  0  0  0
 26 28  1  0  0  0
 26 48  1  0  0  0
 27 49  1  0  0  0
 28 29  1  0  0  0
 28 50  1  0  0  0
 28 51  1  0  0  0
 29 30  1  0  0  0
 29 31  1  0  0  0
 29 52  1  0  0  0
 30 53  1  0  0  0
 30 54  1  0  0  0
 30 55  1  0  0  0
 31 56  1  0  0  0
 31 57  1  0  0  0
 31 58  1  0  0  0
M  CHG  1  29   1
M  END
> <s_m_source_file>
../1oir_ligand.sdf

> <i_m_source_file_index>
1

> <s_epik_input>
W2NIXTFbY0hdW2NIXVtjSF1uKGMxMiljKGMobjIpW0NIM10pLWMzW2NIXVtjSF1uYyhuMylbTkhdYzRbY0hdW2NIXWMoW2NIXVtjSF00KU9bQ0gyXVtDQEBIXShbT0hdKVtDSDJdW05IK10oW0NIM10pW0NIM10=

> <s_epik_cmdline>
J2VwaWtfYXBwJywgJy1pbWFlJywgJ2xpZ2FuZF9wcm8ubWFlJywgJy1vbWFlJywgJ2xpZ2FuZF9wcmVwLm1hZScsICctbXMnLCAnMScsICctcGgnLCAnNycsICctcGh0JywgJzAuNScsICctbnQn

> <r_lp_tautomer_probability>
1

> <r_epik_Ionization_Penalty>
  0.1789

> <r_epik_Ionization_Penalty_Charging>
  0.1788

> <r_epik_Ionization_Penalty_Neutral>
  0.0001

> <r_epik_State_Penalty>
 -0.0000

> <r_epik_Charging_Adjusted_Penalty>
0.17882100635261

> <i_epik_Tot_Q>
1

> <i_epik_Tot_abs_Q>
1

$$$$
