1oiu_ligand
                    3D
 Schrodinger Suite 2020-3.
 50 53  0  0  1  0            999 V2000
    7.9160   43.6120   49.8510 C   0  0  0  0  0  0
   10.5520   46.4410   52.0420 C   0  0  0  0  0  0
    4.8670   45.3510   51.9070 C   0  0  0  0  0  0
    4.0240   45.8620   53.0570 C   0  0  0  0  0  0
    2.5620   45.5450   52.7500 C   0  0  0  0  0  0
    1.6820   46.0090   53.9120 C   0  0  0  0  0  0
    2.1170   45.3790   55.2320 C   0  0  0  0  0  0
    3.6010   45.6060   55.5280 C   0  0  0  0  0  0
    4.4730   45.1740   54.3530 C   0  0  0  0  0  0
    3.9800   40.7090   48.5370 C   0  0  0  0  0  0
    4.8080   40.9170   47.4370 C   0  0  0  0  0  0
    7.6260   42.6110   48.9930 N   0  0  0  0  0  0
    6.0320   41.5580   47.6210 C   0  0  0  0  0  0
    6.4230   41.9980   48.8840 C   0  0  0  0  0  0
    4.0430   38.8600   46.0080 N   0  0  0  0  0  0
    6.9350   44.2280   50.5510 N   0  0  0  0  0  0
    7.1960   45.2310   51.4250 C   0  0  0  0  0  0
    6.1920   45.8270   52.1090 O   0  0  0  0  0  0
    8.5840   45.6720   51.6220 C   0  0  0  0  0  0
    9.2230   46.6190   52.3980 N   0  0  0  0  0  0
   10.8110   45.4370   51.1020 N   0  3  0  0  0  0
    9.5550   44.9660   50.8410 C   0  0  0  0  0  0
    9.2100   43.9690   49.9980 N   0  0  0  0  0  0
    5.5980   41.7740   49.9860 C   0  0  0  0  0  0
    4.3750   41.1310   49.8100 C   0  0  0  0  0  0
    4.3510   40.4270   45.9660 S   0  0  0  0  0  0
    5.3810   40.6740   45.0070 O   0  0  0  0  0  0
    3.1650   41.1500   45.6150 O   0  0  0  0  0  0
   11.3316   47.0720   52.4937 H   0  0  0  0  0  0
    4.8490   44.2512   51.8996 H   0  0  0  0  0  0
    4.4611   45.7307   50.9578 H   0  0  0  0  0  0
    4.1459   46.9491   53.1725 H   0  0  0  0  0  0
    2.2589   46.0671   51.8305 H   0  0  0  0  0  0
    2.4432   44.4602   52.6118 H   0  0  0  0  0  0
    1.7504   47.1025   54.0099 H   0  0  0  0  0  0
    0.6377   45.7229   53.7181 H   0  0  0  0  0  0
    1.5360   45.8176   56.0567 H   0  0  0  0  0  0
    1.9408   44.2938   55.1960 H   0  0  0  0  0  0
    3.7772   46.6746   55.7202 H   0  0  0  0  0  0
    3.8920   45.0214   56.4132 H   0  0  0  0  0  0
    4.3935   44.0832   54.2356 H   0  0  0  0  0  0
    5.5171   45.4444   54.5690 H   0  0  0  0  0  0
    3.0179   40.2141   48.4048 H   0  0  0  0  0  0
    8.3994   42.2315   48.3090 H   0  0  0  0  0  0
    6.6908   41.7169   46.7672 H   0  0  0  0  0  0
    3.7313   38.5207   45.0091 H   0  0  0  0  0  0
    3.2366   38.6641   46.7300 H   0  0  0  0  0  0
    5.9083   42.1001   50.9787 H   0  0  0  0  0  0
    3.7243   40.9564   50.6669 H   0  0  0  0  0  0
   11.8444   45.2345   50.7842 H   0  0  0  0  0  0
  1 12  1  0  0  0
  1 16  2  0  0  0
  1 23  1  0  0  0
  2 20  2  0  0  0
  2 21  1  0  0  0
  2 29  1  0  0  0
  3  4  1  0  0  0
  3 18  1  0  0  0
  3 30  1  0  0  0
  3 31  1  0  0  0
  4  5  1  0  0  0
  4  9  1  0  0  0
  4 32  1  0  0  0
  5  6  1  0  0  0
  5 33  1  0  0  0
  5 34  1  0  0  0
  6  7  1  0  0  0
  6 35  1  0  0  0
  6 36  1  0  0  0
  7  8  1  0  0  0
  7 37  1  0  0  0
  7 38  1  0  0  0
  8  9  1  0  0  0
  8 39  1  0  0  0
  8 40  1  0  0  0
  9 41  1  0  0  0
  9 42  1  0  0  0
 10 11  2  0  0  0
 10 25  1  0  0  0
 10 43  1  0  0  0
 11 13  1  0  0  0
 11 26  1  0  0  0
 12 14  1  0  0  0
 12 44  1  0  0  0
 13 14  2  0  0  0
 13 45  1  0  0  0
 14 24  1  0  0  0
 15 26  1  0  0  0
 15 46  1  0  0  0
 15 47  1  0  0  0
 16 17  1  0  0  0
 17 18  1  0  0  0
 17 19  2  0  0  0
 19 20  1  0  0  0
 19 22  1  0  0  0
 21 22  1  0  0  0
 21 50  1  0  0  0
 22 23  2  0  0  0
 24 25  2  0  0  0
 24 48  1  0  0  0
 25 49  1  0  0  0
 26 27  2  0  0  0
 26 28  2  0  0  0
M  CHG  1  21   1
M  END
> <s_m_source_file>
../1oiu_ligand.sdf

> <i_m_source_file_index>
1

> <s_epik_input>
W05IMl1TKD1PKSg9TyljMVtjSF1bY0hdW2NIXWMoW2NIXTEpW05IXWMobmMoYzIzKVtuSF1bY0hdbjMpbmMyT1tDSDJdW0NIXTRbQ0gyXVtDSDJdW0NIMl1bQ0gyXVtDSDJdNA==

> <s_epik_cmdline>
J2VwaWtfYXBwJywgJy1pbWFlJywgJ2xpZ2FuZF9wcm8ubWFlJywgJy1vbWFlJywgJ2xpZ2FuZF9wcmVwLm1hZScsICctbXMnLCAnMScsICctcGgnLCAnNycsICctcGh0JywgJzAuNScsICctbnQn

> <r_lp_tautomer_probability>
1

> <r_epik_Ionization_Penalty>
  0.0099

> <r_epik_Ionization_Penalty_Charging>
  0.0000

> <r_epik_Ionization_Penalty_Neutral>
  0.0099

> <r_epik_State_Penalty>
 -0.0000

> <r_epik_Charging_Adjusted_Penalty>
0

> <i_epik_Tot_Q>
1

> <i_epik_Tot_abs_Q>
1

> <s_epik_Chemistry_Notes>
This compound has an imine and may undergo hydrolysis.

$$$$
