1oiy_ligand
                    3D
 Schrodinger Suite 2020-3.
 49 52  0  0  1  0            999 V2000
    7.8810   43.6980   49.5180 C   0  0  0  0  0  0
    4.8200   45.4890   51.6160 C   0  0  0  0  0  0
    3.9450   46.0810   52.7150 C   0  0  0  0  0  0
    2.4610   45.7880   52.4180 C   0  0  0  0  0  0
    1.5010   46.0030   53.6110 C   0  0  0  0  0  0
    2.0960   45.5600   54.9590 C   0  0  0  0  0  0
    3.5120   46.1240   55.1780 C   0  0  0  0  0  0
    4.4390   45.5910   54.0960 C   0  0  0  0  0  0
    4.6900   40.7610   47.3980 C   0  0  0  0  0  0
    3.8070   40.8290   48.4620 C   0  0  0  0  0  0
    4.2100   41.5200   49.6130 C   0  0  0  0  0  0
    5.4670   42.1260   49.7170 C   0  0  0  0  0  0
    1.8670   39.6660   49.4840 N   0  0  0  0  0  0
    6.8780   44.4040   50.1330 N   0  0  0  0  0  0
    7.1250   45.4480   50.9660 C   0  0  0  0  0  0
    6.0940   46.1500   51.5500 O   0  0  0  0  0  0
    8.5350   45.8060   51.2070 C   0  0  0  0  0  0
    9.1820   46.7570   51.9440 N   0  0  0  0  0  0
   10.8140   45.4530   50.8500 N   0  3  0  0  0  0
    9.5360   45.0150   50.5430 C   0  0  0  0  0  0
    9.1970   44.0060   49.7220 N   0  0  0  0  0  0
    7.5800   42.6460   48.6920 N   0  0  0  0  0  0
    6.3480   42.0640   48.6390 C   0  0  0  0  0  0
    5.9500   41.3700   47.4870 C   0  0  0  0  0  0
    2.4220   40.2080   48.3820 C   0  0  0  0  0  0
   10.5380   46.5190   51.7020 C   0  0  0  0  0  0
    1.8160   40.2550   47.3140 O   0  0  0  0  0  0
    4.9900   44.4211   51.8180 H   0  0  0  0  0  0
    4.3161   45.6028   50.6449 H   0  0  0  0  0  0
    4.0367   47.1771   52.7270 H   0  0  0  0  0  0
    2.1117   46.4474   51.6098 H   0  0  0  0  0  0
    2.3492   44.7383   52.1089 H   0  0  0  0  0  0
    1.2526   47.0714   53.6938 H   0  0  0  0  0  0
    0.5798   45.4239   53.4494 H   0  0  0  0  0  0
    1.4540   45.9164   55.7780 H   0  0  0  0  0  0
    2.1550   44.4620   54.9907 H   0  0  0  0  0  0
    3.4810   47.2224   55.1278 H   0  0  0  0  0  0
    3.8821   45.8125   56.1659 H   0  0  0  0  0  0
    4.4366   44.4912   54.1172 H   0  0  0  0  0  0
    5.4607   45.9588   54.2716 H   0  0  0  0  0  0
    4.4050   40.2325   46.4883 H   0  0  0  0  0  0
    3.5213   41.5876   50.4551 H   0  0  0  0  0  0
    5.7545   42.6420   50.6331 H   0  0  0  0  0  0
    2.4324   39.6371   50.4271 H   0  0  0  0  0  0
    0.8486   39.2525   49.4403 H   0  0  0  0  0  0
    8.3518   42.2300   48.0277 H   0  0  0  0  0  0
    6.6353   41.3025   46.6421 H   0  0  0  0  0  0
   11.3009   47.1557   52.1738 H   0  0  0  0  0  0
   11.6884   44.9431   50.4195 H   0  0  0  0  0  0
  1 14  2  0  0  0
  1 21  1  0  0  0
  1 22  1  0  0  0
  2  3  1  0  0  0
  2 16  1  0  0  0
  2 28  1  0  0  0
  2 29  1  0  0  0
  3  4  1  0  0  0
  3  8  1  0  0  0
  3 30  1  0  0  0
  4  5  1  0  0  0
  4 31  1  0  0  0
  4 32  1  0  0  0
  5  6  1  0  0  0
  5 33  1  0  0  0
  5 34  1  0  0  0
  6  7  1  0  0  0
  6 35  1  0  0  0
  6 36  1  0  0  0
  7  8  1  0  0  0
  7 37  1  0  0  0
  7 38  1  0  0  0
  8 39  1  0  0  0
  8 40  1  0  0  0
  9 10  2  0  0  0
  9 24  1  0  0  0
  9 41  1  0  0  0
 10 11  1  0  0  0
 10 25  1  0  0  0
 11 12  2  0  0  0
 11 42  1  0  0  0
 12 23  1  0  0  0
 12 43  1  0  0  0
 13 25  1  0  0  0
 13 44  1  0  0  0
 13 45  1  0  0  0
 14 15  1  0  0  0
 15 16  1  0  0  0
 15 17  2  0  0  0
 17 18  1  0  0  0
 17 20  1  0  0  0
 18 26  2  0  0  0
 19 20  1  0  0  0
 19 26  1  0  0  0
 19 49  1  0  0  0
 20 21  2  0  0  0
 22 23  1  0  0  0
 22 46  1  0  0  0
 23 24  2  0  0  0
 24 47  1  0  0  0
 25 27  2  0  0  0
 26 48  1  0  0  0
M  CHG  1  19   1
M  END
> <s_m_source_file>
../1oiy_ligand.sdf

> <i_m_source_file_index>
1

> <s_epik_input>
W05IMl1DKD1PKWMxW2NIXVtjSF1jKFtjSF1bY0hdMSlbTkhdYyhuYyhjMjMpW25IXVtjSF1uMyluYzJPW0NIMl1bQ0hdNFtDSDJdW0NIMl1bQ0gyXVtDSDJdW0NIMl00

> <s_epik_cmdline>
J2VwaWtfYXBwJywgJy1pbWFlJywgJ2xpZ2FuZF9wcm8ubWFlJywgJy1vbWFlJywgJ2xpZ2FuZF9wcmVwLm1hZScsICctbXMnLCAnMScsICctcGgnLCAnNycsICctcGh0JywgJzAuNScsICctbnQn

> <r_lp_tautomer_probability>
1

> <r_epik_Ionization_Penalty>
  0.0094

> <r_epik_Ionization_Penalty_Charging>
  0.0000

> <r_epik_Ionization_Penalty_Neutral>
  0.0094

> <r_epik_State_Penalty>
 -0.0000

> <r_epik_Charging_Adjusted_Penalty>
0

> <i_epik_Tot_Q>
1

> <i_epik_Tot_abs_Q>
1

> <s_epik_Chemistry_Notes>
This compound has an imine and may undergo hydrolysis.

$$$$
