1oj5_ligand
                    3D
 Schrodinger Suite 2020-3.
221222  0  0  1  0            999 V2000
    9.7800   13.4640   20.4140 N   0  3  0  0  0  0
    9.5400   14.3110   21.6290 C   0  0  2  0  0  0
   10.8450   14.9360   22.1410 C   0  0  0  0  0  0
   11.7330   14.2280   22.6320 O   0  0  0  0  0  0
    8.8820   13.4480   22.7190 C   0  0  0  0  0  0
    8.4990   14.1040   24.0500 C   0  0  0  0  0  0
    7.4480   15.1790   23.8630 C   0  0  0  0  0  0
    7.9830   13.0110   24.9920 C   0  0  0  0  0  0
   11.0040   16.2490   22.0130 N   0  0  0  0  0  0
   12.2230   16.8720   22.5170 C   0  0  2  0  0  0
   12.3960   16.7170   24.0410 C   0  0  0  0  0  0
   11.4100   16.5590   24.7500 O   0  0  0  0  0  0
   12.0520   18.3380   22.1300 C   0  0  0  0  0  0
   11.1040   18.3040   20.9880 C   0  0  0  0  0  0
   10.1250   17.2350   21.3580 C   0  0  0  0  0  0
   13.6320   16.7560   24.5230 N   0  0  0  0  0  0
   13.8950   16.8100   25.9610 C   0  0  2  0  0  0
   13.5630   18.1900   26.5830 C   0  0  0  0  0  0
   13.9240   19.2380   26.0450 O   0  0  0  0  0  0
   15.3920   16.5480   26.0390 C   0  0  0  0  0  0
   15.9220   17.0860   24.7430 C   0  0  0  0  0  0
   14.8770   16.7560   23.7340 C   0  0  0  0  0  0
   12.8660   18.1810   27.7090 N   0  0  0  0  0  0
   12.6100   19.4030   28.4480 C   0  0  2  0  0  0
   13.8700   19.8400   29.2110 C   0  0  0  0  0  0
   14.8400   19.0850   29.3510 O   0  0  0  0  0  0
   11.4990   19.1830   29.5030 C   0  0  2  0  0  0
   11.9530   18.2210   30.4610 O   0  0  0  0  0  0
   10.2320   18.5690   28.8980 C   0  0  0  0  0  0
   13.8060   21.0590   29.7290 N   0  0  0  0  0  0
   14.8240   21.6360   30.6110 C   0  0  2  0  0  0
   15.1370   20.7010   31.7820 C   0  0  0  0  0  0
   16.2980   20.4690   32.0800 O   0  0  0  0  0  0
   14.3490   23.0040   31.1490 C   0  0  0  0  0  0
   15.4460   23.8800   31.7660 C   0  0  0  0  0  0
   15.8150   23.4920   33.1850 C   0  0  0  0  0  0
   17.0310   23.3940   33.4790 O   0  0  0  0  0  0
   14.8960   23.2890   34.0100 O   0  0  0  0  0  0
   14.1080   20.1360   32.4090 N   0  0  0  0  0  0
   14.3270   19.2090   33.5360 C   0  0  2  0  0  0
   14.9600   17.8830   33.0670 C   0  0  0  0  0  0
   15.8250   17.3660   33.7520 O   0  0  0  0  0  0
   13.0060   18.8920   34.2890 C   0  0  0  0  0  0
   12.7200   17.3570   34.4730 C   0  0  0  0  0  0
   11.4690   17.0200   35.2670 C   0  0  0  0  0  0
   11.3320   17.4160   36.4140 O   0  0  0  0  0  0
   10.5710   16.2640   34.6620 N   0  0  0  0  0  0
   14.5290   17.3460   31.9190 N   0  0  0  0  0  0
   15.1880   16.1840   31.3100 C   0  0  2  0  0  0
   16.7000   16.4100   31.2080 C   0  0  0  0  0  0
   17.4830   15.5430   31.5700 O   0  0  0  0  0  0
   14.6630   15.8780   29.8910 C   0  0  0  0  0  0
   13.2470   15.3640   29.8670 C   0  0  0  0  0  0
   12.7290   14.9040   30.9110 O   0  0  0  0  0  0
   12.5670   15.3960   28.8180 O   0  0  0  0  0  0
   17.1110   17.5850   30.7600 N   0  0  0  0  0  0
   18.5360   17.8520   30.5470 C   0  0  2  0  0  0
   19.2880   18.0980   31.8530 C   0  0  0  0  0  0
   20.4350   17.6890   31.9880 O   0  0  0  0  0  0
   18.7520   19.0380   29.5980 C   0  0  0  0  0  0
   18.2670   18.8030   28.1690 C   0  0  0  0  0  0
   18.3750   20.0800   27.3550 C   0  0  0  0  0  0
   19.0330   17.6730   27.5060 C   0  0  0  0  0  0
   18.6620   18.7780   32.8000 N   0  0  0  0  0  0
   19.2620   18.9290   34.1140 C   0  0  2  0  0  0
   19.5740   17.5470   34.7290 C   0  0  0  0  0  0
   20.6680   17.3280   35.2410 O   0  0  0  0  0  0
   18.3450   19.7560   35.0320 C   0  0  2  0  0  0
   18.1300   21.0620   34.4520 O   0  0  0  0  0  0
   19.0300   20.0180   36.3890 C   0  0  0  0  0  0
   18.6310   16.6120   34.6340 N   0  0  0  0  0  0
   18.8310   15.2430   35.1300 C   0  0  2  0  0  0
   19.9750   14.5100   34.4120 C   0  0  0  0  0  0
   20.8300   13.8990   35.0470 O   0  0  0  0  0  0
   17.5440   14.4490   34.9390 C   0  0  0  0  0  0
   17.5160   13.1060   35.6340 C   0  0  0  0  0  0
   19.9930   14.5790   33.0770 N   0  0  0  0  0  0
   21.0060   13.8760   32.2920 C   0  0  2  0  0  0
   22.3900   14.4150   32.5930 C   0  0  0  0  0  0
   23.3580   13.6580   32.6750 O   0  0  0  0  0  0
   20.7140   13.9850   30.7920 C   0  0  0  0  0  0
   19.4600   13.2100   30.3650 C   0  0  0  0  0  0
   18.9230   13.7220   29.0470 C   0  0  0  0  0  0
   19.7710   11.7080   30.2890 C   0  0  0  0  0  0
   22.4680   15.7190   32.7890 N   0  0  0  0  0  0
   23.7370   16.4050   32.9720 C   0  0  2  0  0  0
   24.3360   16.2420   34.3630 C   0  0  0  0  0  0
   25.4920   16.5770   34.5360 O   0  0  0  0  0  0
   23.5750   17.9000   32.6910 C   0  0  0  0  0  0
   23.4760   18.2870   31.2210 C   0  0  0  0  0  0
   23.2440   19.7640   31.1090 C   0  0  0  0  0  0
   24.7200   17.8590   30.4690 C   0  0  0  0  0  0
   23.5580   15.7590   35.3390 N   0  0  0  0  0  0
   24.0510   15.5030   36.7070 C   0  0  2  0  0  0
   24.3120   14.0010   36.9630 C   0  0  0  0  0  0
   25.3520   13.6160   37.5010 O   0  0  0  0  0  0
   23.0580   16.0620   37.7420 C   0  0  0  0  0  0
   23.3610   13.1660   36.5570 N   0  0  0  0  0  0
   23.4870   11.7060   36.6110 C   0  0  2  0  0  0
   24.8810   11.1980   36.2220 C   0  0  0  0  0  0
   25.1600   10.9440   35.0500 O   0  0  0  0  0  0
   22.4330   11.0560   35.7070 C   0  0  0  0  0  0
   21.0840   10.8520   36.3750 C   0  0  0  0  0  0
   20.0760   10.1960   35.4540 C   0  0  0  0  0  0
   19.0310    9.7240   35.9620 O   0  0  0  0  0  0
   20.3290   10.1560   34.2250 O   0  0  0  0  0  0
   25.8029   11.0292   37.1656 O   0  0  0  0  0  0
    8.8271   13.0324   20.0739 H   0  0  0  0  0  0
   10.4808   12.6539   20.6644 H   0  0  0  0  0  0
   10.2080   14.0847   19.6131 H   0  0  0  0  0  0
    8.8689   15.1319   21.3362 H   0  0  0  0  0  0
    7.9404   13.0281   22.3355 H   0  0  0  0  0  0
    9.5615   12.6294   22.9985 H   0  0  0  0  0  0
    9.3795   14.6052   24.4784 H   0  0  0  0  0  0
    7.8336   15.9548   23.1852 H   0  0  0  0  0  0
    7.2073   15.6298   24.8371 H   0  0  0  0  0  0
    6.5401   14.7329   23.4310 H   0  0  0  0  0  0
    8.7569   12.2393   25.1170 H   0  0  0  0  0  0
    7.0773   12.5561   24.5645 H   0  0  0  0  0  0
    7.7445   13.4530   25.9706 H   0  0  0  0  0  0
   13.0953   16.3789   22.0633 H   0  0  0  0  0  0
   11.6478   18.8984   22.9859 H   0  0  0  0  0  0
   13.0277   18.7581   21.8445 H   0  0  0  0  0  0
   10.6222   19.2872   20.8821 H   0  0  0  0  0  0
   11.6508   18.0623   20.0646 H   0  0  0  0  0  0
    9.6372   16.7707   20.4882 H   0  0  0  0  0  0
    9.3586   17.5736   22.0707 H   0  0  0  0  0  0
   13.2663   16.0683   26.4754 H   0  0  0  0  0  0
   15.8115   17.0744   26.9090 H   0  0  0  0  0  0
   15.5702   15.4676   26.1433 H   0  0  0  0  0  0
   16.0732   18.1720   24.8313 H   0  0  0  0  0  0
   16.8808   16.6002   24.5090 H   0  0  0  0  0  0
   15.0258   15.7634   23.2839 H   0  0  0  0  0  0
   14.8070   17.5125   22.9385 H   0  0  0  0  0  0
   12.4784   17.2214   28.0817 H   0  0  0  0  0  0
   12.3187   20.1260   27.6718 H   0  0  0  0  0  0
   11.2883   20.1418   29.9994 H   0  0  0  0  0  0
   12.8621   18.4167   31.0486 H   0  0  0  0  0  0
    9.8167   19.2539   28.1440 H   0  0  0  0  0  0
    9.4892   18.4041   29.6924 H   0  0  0  0  0  0
   10.4807   17.6083   28.4234 H   0  0  0  0  0  0
   12.9167   21.6466   29.4572 H   0  0  0  0  0  0
   15.7203   21.7454   29.9828 H   0  0  0  0  0  0
   13.9074   23.5876   30.3278 H   0  0  0  0  0  0
   13.5949   22.8474   31.9344 H   0  0  0  0  0  0
   16.3603   23.8043   31.1591 H   0  0  0  0  0  0
   15.1085   24.9266   31.7915 H   0  0  0  0  0  0
   17.3291   23.1143   34.5002 H   0  0  0  0  0  0
   13.0848   20.3673   32.0779 H   0  0  0  0  0  0
   15.0245   19.7596   34.1843 H   0  0  0  0  0  0
   13.0417   19.3359   35.2948 H   0  0  0  0  0  0
   12.1562   19.3136   33.7321 H   0  0  0  0  0  0
   12.5999   16.8856   33.4864 H   0  0  0  0  0  0
   13.5620   16.8881   35.0033 H   0  0  0  0  0  0
   10.7392   15.9318   33.6269 H   0  0  0  0  0  0
    9.6548   15.9665   35.1931 H   0  0  0  0  0  0
   13.6544   17.8008   31.4308 H   0  0  0  0  0  0
   14.9396   15.3646   32.0006 H   0  0  0  0  0  0
   14.6886   16.7955   29.2848 H   0  0  0  0  0  0
   15.2977   15.1113   29.4226 H   0  0  0  0  0  0
   11.6951   14.5289   30.8928 H   0  0  0  0  0  0
   16.3671   18.3668   30.5469 H   0  0  0  0  0  0
   18.9016   16.9201   30.0910 H   0  0  0  0  0  0
   18.2099   19.9160   29.9791 H   0  0  0  0  0  0
   19.8259   19.2681   29.5372 H   0  0  0  0  0  0
   17.2087   18.5055   28.2064 H   0  0  0  0  0  0
   17.8128   20.8823   27.8552 H   0  0  0  0  0  0
   17.9583   19.9112   26.3511 H   0  0  0  0  0  0
   19.4321   20.3717   27.2690 H   0  0  0  0  0  0
   18.9396   16.7608   28.1136 H   0  0  0  0  0  0
   20.0942   17.9499   27.4209 H   0  0  0  0  0  0
   18.6204   17.4894   26.5030 H   0  0  0  0  0  0
   17.6820   19.2301   32.5876 H   0  0  0  0  0  0
   20.1996   19.4784   33.9436 H   0  0  0  0  0  0
   17.3787   19.2397   35.1302 H   0  0  0  0  0  0
   17.6484   21.1540   33.4673 H   0  0  0  0  0  0
   19.2260   19.0595   36.8919 H   0  0  0  0  0  0
   18.3720   20.6348   37.0188 H   0  0  0  0  0  0
   19.9805   20.5465   36.2239 H   0  0  0  0  0  0
   17.6765   16.8932   34.1651 H   0  0  0  0  0  0
   19.0903   15.3625   36.1923 H   0  0  0  0  0  0
   16.6949   15.0267   35.3330 H   0  0  0  0  0  0
   17.3891   14.2539   33.8676 H   0  0  0  0  0  0
   16.5529   12.6119   35.4383 H   0  0  0  0  0  0
   17.6402   13.2511   36.7173 H   0  0  0  0  0  0
   18.3345   12.4783   35.2519 H   0  0  0  0  0  0
   19.2241   15.1806   32.5702 H   0  0  0  0  0  0
   20.9446   12.8259   32.6138 H   0  0  0  0  0  0
   20.5605   15.0408   30.5241 H   0  0  0  0  0  0
   21.5646   13.5822   30.2226 H   0  0  0  0  0  0
   18.6679   13.3757   31.1101 H   0  0  0  0  0  0
   18.7097   14.7979   29.1311 H   0  0  0  0  0  0
   17.9978   13.1835   28.7940 H   0  0  0  0  0  0
   19.6709   13.5570   28.2574 H   0  0  0  0  0  0
   20.1589   11.3643   31.2593 H   0  0  0  0  0  0
   20.5250   11.5287   29.5084 H   0  0  0  0  0  0
   18.8519   11.1552   30.0449 H   0  0  0  0  0  0
   21.5269   16.2881   32.8111 H   0  0  0  0  0  0
   24.3892   15.8986   32.2453 H   0  0  0  0  0  0
   22.6543   18.2653   33.1694 H   0  0  0  0  0  0
   24.4401   18.4452   33.0965 H   0  0  0  0  0  0
   22.6203   17.7771   30.7543 H   0  0  0  0  0  0
   22.3351   20.0356   31.6659 H   0  0  0  0  0  0
   23.1207   20.0365   30.0505 H   0  0  0  0  0  0
   24.1060   20.3034   31.5285 H   0  0  0  0  0  0
   24.8564   16.7726   30.5742 H   0  0  0  0  0  0
   25.5959   18.3803   30.8825 H   0  0  0  0  0  0
   24.6106   18.1135   29.4044 H   0  0  0  0  0  0
   22.5080   15.5517   35.0850 H   0  0  0  0  0  0
   25.0090   16.0403   36.7672 H   0  0  0  0  0  0
   22.8848   17.1301   37.5443 H   0  0  0  0  0  0
   23.4739   15.9389   38.7529 H   0  0  0  0  0  0
   22.1057   15.5163   37.6684 H   0  0  0  0  0  0
   22.4415   13.6245   36.1643 H   0  0  0  0  0  0
   23.3185   11.4682   37.6717 H   0  0  0  0  0  0
   22.2647   11.6911   34.8248 H   0  0  0  0  0  0
   22.7873   10.0660   35.3839 H   0  0  0  0  0  0
   21.2059   10.2080   37.2584 H   0  0  0  0  0  0
   20.6771   11.8259   36.6847 H   0  0  0  0  0  0
   19.6159    9.6861   33.5317 H   0  0  0  0  0  0
   26.8054   10.6653   36.8962 H   0  0  0  0  0  0
  1  2  1  0  0  0
  1108  1  0  0  0
  1109  1  0  0  0
  1110  1  0  0  0
  2  5  1  0  0  0
  2  3  1  0  0  0
  2111  1  0  0  0
  3  4  2  0  0  0
  3  9  1  0  0  0
  5  6  1  0  0  0
  5112  1  0  0  0
  5113  1  0  0  0
  6  7  1  0  0  0
  6  8  1  0  0  0
  6114  1  0  0  0
  7115  1  0  0  0
  7116  1  0  0  0
  7117  1  0  0  0
  8118  1  0  0  0
  8119  1  0  0  0
  8120  1  0  0  0
  9 10  1  0  0  0
  9 15  1  0  0  0
 10 11  1  0  0  0
 10 13  1  0  0  0
 10121  1  0  0  0
 11 12  2  0  0  0
 11 16  1  0  0  0
 13 14  1  0  0  0
 13122  1  0  0  0
 13123  1  0  0  0
 14 15  1  0  0  0
 14124  1  0  0  0
 14125  1  0  0  0
 15126  1  0  0  0
 15127  1  0  0  0
 16 17  1  0  0  0
 16 22  1  0  0  0
 17 18  1  0  0  0
 17 20  1  0  0  0
 17128  1  0  0  0
 18 19  2  0  0  0
 18 23  1  0  0  0
 20 21  1  0  0  0
 20129  1  0  0  0
 20130  1  0  0  0
 21 22  1  0  0  0
 21131  1  0  0  0
 21132  1  0  0  0
 22133  1  0  0  0
 22134  1  0  0  0
 23 24  1  0  0  0
 23135  1  0  0  0
 24 27  1  0  0  0
 24 25  1  0  0  0
 24136  1  0  0  0
 25 26  2  0  0  0
 25 30  1  0  0  0
 27 29  1  0  0  0
 27 28  1  0  0  0
 27137  1  0  0  0
 28138  1  0  0  0
 29139  1  0  0  0
 29140  1  0  0  0
 29141  1  0  0  0
 30 31  1  0  0  0
 30142  1  0  0  0
 31 34  1  0  0  0
 31 32  1  0  0  0
 31143  1  0  0  0
 32 33  2  0  0  0
 32 39  1  0  0  0
 34 35  1  0  0  0
 34144  1  0  0  0
 34145  1  0  0  0
 35 36  1  0  0  0
 35146  1  0  0  0
 35147  1  0  0  0
 36 38  2  0  0  0
 36 37  1  0  0  0
 37148  1  0  0  0
 39 40  1  0  0  0
 39149  1  0  0  0
 40 43  1  0  0  0
 40 41  1  0  0  0
 40150  1  0  0  0
 41 42  2  0  0  0
 41 48  1  0  0  0
 43 44  1  0  0  0
 43151  1  0  0  0
 43152  1  0  0  0
 44 45  1  0  0  0
 44153  1  0  0  0
 44154  1  0  0  0
 45 47  1  0  0  0
 45 46  2  0  0  0
 47155  1  0  0  0
 47156  1  0  0  0
 48 49  1  0  0  0
 48157  1  0  0  0
 49 52  1  0  0  0
 49 50  1  0  0  0
 49158  1  0  0  0
 50 51  2  0  0  0
 50 56  1  0  0  0
 52 53  1  0  0  0
 52159  1  0  0  0
 52160  1  0  0  0
 53 54  1  0  0  0
 53 55  2  0  0  0
 54161  1  0  0  0
 56 57  1  0  0  0
 56162  1  0  0  0
 57 60  1  0  0  0
 57 58  1  0  0  0
 57163  1  0  0  0
 58 59  2  0  0  0
 58 64  1  0  0  0
 60 61  1  0  0  0
 60164  1  0  0  0
 60165  1  0  0  0
 61 62  1  0  0  0
 61 63  1  0  0  0
 61166  1  0  0  0
 62167  1  0  0  0
 62168  1  0  0  0
 62169  1  0  0  0
 63170  1  0  0  0
 63171  1  0  0  0
 63172  1  0  0  0
 64 65  1  0  0  0
 64173  1  0  0  0
 65 68  1  0  0  0
 65 66  1  0  0  0
 65174  1  0  0  0
 66 67  2  0  0  0
 66 71  1  0  0  0
 68 70  1  0  0  0
 68 69  1  0  0  0
 68175  1  0  0  0
 69176  1  0  0  0
 70177  1  0  0  0
 70178  1  0  0  0
 70179  1  0  0  0
 71 72  1  0  0  0
 71180  1  0  0  0
 72 75  1  0  0  0
 72 73  1  0  0  0
 72181  1  0  0  0
 73 74  2  0  0  0
 73 77  1  0  0  0
 75 76  1  0  0  0
 75182  1  0  0  0
 75183  1  0  0  0
 76184  1  0  0  0
 76185  1  0  0  0
 76186  1  0  0  0
 77 78  1  0  0  0
 77187  1  0  0  0
 78 81  1  0  0  0
 78 79  1  0  0  0
 78188  1  0  0  0
 79 80  2  0  0  0
 79 85  1  0  0  0
 81 82  1  0  0  0
 81189  1  0  0  0
 81190  1  0  0  0
 82 83  1  0  0  0
 82 84  1  0  0  0
 82191  1  0  0  0
 83192  1  0  0  0
 83193  1  0  0  0
 83194  1  0  0  0
 84195  1  0  0  0
 84196  1  0  0  0
 84197  1  0  0  0
 85 86  1  0  0  0
 85198  1  0  0  0
 86 89  1  0  0  0
 86 87  1  0  0  0
 86199  1  0  0  0
 87 88  2  0  0  0
 87 93  1  0  0  0
 89 90  1  0  0  0
 89200  1  0  0  0
 89201  1  0  0  0
 90 91  1  0  0  0
 90 92  1  0  0  0
 90202  1  0  0  0
 91203  1  0  0  0
 91204  1  0  0  0
 91205  1  0  0  0
 92206  1  0  0  0
 92207  1  0  0  0
 92208  1  0  0  0
 93 94  1  0  0  0
 93209  1  0  0  0
 94 97  1  0  0  0
 94 95  1  0  0  0
 94210  1  0  0  0
 95 96  2  0  0  0
 95 98  1  0  0  0
 97211  1  0  0  0
 97212  1  0  0  0
 97213  1  0  0  0
 98 99  1  0  0  0
 98214  1  0  0  0
 99102  1  0  0  0
 99100  1  0  0  0
 99215  1  0  0  0
100101  2  0  0  0
100107  1  0  0  0
102103  1  0  0  0
102216  1  0  0  0
102217  1  0  0  0
103104  1  0  0  0
103218  1  0  0  0
103219  1  0  0  0
104106  1  0  0  0
104105  2  0  0  0
106220  1  0  0  0
107221  1  0  0  0
M  CHG  1   1   1
M  END
> <s_m_source_file>
../1oj5_ligand.sdf

> <i_m_source_file_index>
1

> <s_epik_input>
W0NIM11bQ0hdKFtDSDNdKVtDSDJdW0NASF0oW05IMytdKUMoPU8pTjFbQ0BASF0oW0NIMl1bQ0gyXVtDSDJdMSlDKD1PKU4yW0NAQEhdKFtDSDJdW0NIMl1bQ0gyXTIpQyg9TylbTkhdW0NAQEhdKFtDQEhdKFtPSF0pW0NIM10pQyg9TylbTkhdW0NAQEhdKFtDSDJdW0NIMl1DKD1PKVtPSF0pQyg9TylbTkhdW0NAQEhdKFtDSDJdW0NIMl1DKD1PKVtOSDJdKUMoPU8pW05IXVtDQEBIXShbQ0gyXUMoPU8pW09IXSlDKD1PKVtOSF1bQ0BASF0oW0NIMl1bQ0hdKFtDSDNdKVtDSDNdKUMoPU8pW05IXVtDQEBIXShbQ0BIXShbT0hdKVtDSDNdKUMoPU8pW05IXVtDQEBIXShbQ0gyXVtDSDNdKUMoPU8pW05IXVtDQEBIXShbQ0gyXVtDSF0oW0NIM10pW0NIM10pQyg9TylbTkhdW0NAQEhdKFtDSDJdW0NIXShbQ0gzXSlbQ0gzXSlDKD1PKVtOSF1bQ0BASF0oW0NIM10pQyg9TylbTkhdW0NASF0oQyg9TylbT0hdKVtDSDJdW0NIMl1DKD1PKVtPSF0=

> <s_epik_cmdline>
J2VwaWtfYXBwJywgJy1pbWFlJywgJ2xpZ2FuZF9wcm8ubWFlJywgJy1vbWFlJywgJ2xpZ2FuZF9wcmVwLm1hZScsICctbXMnLCAnMScsICctcGgnLCAnNycsICctcGh0JywgJzAuNScsICctbnQn

> <s_epik_pKa_notes>
Molecule size exceeds maximum supported for generating protonation states

$$$$
