1ok7_ligand
                    3D
 Schrodinger Suite 2020-3.
124123  0  0  1  0            999 V2000
   -6.3580    2.1940   31.4260 N   0  3  0  0  0  0
   -5.5560    1.7600   32.6080 C   0  0  2  0  0  0
   -4.0830    2.1710   32.4640 C   0  0  0  0  0  0
   -3.2500    1.8610   33.3200 O   0  0  0  0  0  0
   -5.6360    0.2420   32.7640 C   0  0  0  0  0  0
   -7.0520   -0.3450   32.7710 C   0  0  0  0  0  0
   -7.6590   -0.4070   31.3740 C   0  0  0  0  0  0
   -8.7040   -1.4260   31.2810 N   0  0  0  0  0  0
   -9.9570   -1.1950   30.8990 C   0  0  0  0  0  0
  -10.3450    0.0300   30.5710 N   0  3  0  0  0  0
  -10.8220   -2.1980   30.8310 N   0  0  0  0  0  0
   -3.7870    2.8820   31.3820 N   0  0  0  0  0  0
   -2.4370    3.3380   31.0750 C   0  0  2  0  0  0
   -1.8950    4.3930   32.0370 C   0  0  0  0  0  0
   -2.5090    5.4440   32.2390 O   0  0  0  0  0  0
   -2.3960    3.9010   29.6520 C   0  0  0  0  0  0
   -1.0200    4.3660   29.2140 C   0  0  0  0  0  0
   -0.0320    3.2290   29.1660 C   0  0  0  0  0  0
   -0.2530    2.2320   28.4710 O   0  0  0  0  0  0
    1.0670    3.3660   29.9020 N   0  0  0  0  0  0
   -0.7320    4.1110   32.6160 N   0  0  0  0  0  0
   -0.0850    5.0390   33.5340 C   0  0  2  0  0  0
    0.8320    5.9420   32.7040 C   0  0  0  0  0  0
    1.1080    5.6460   31.5370 O   0  0  0  0  0  0
    0.7230    4.2700   34.5860 C   0  0  0  0  0  0
   -0.0730    3.2970   35.4650 C   0  0  0  0  0  0
    0.8650    2.6890   36.4960 C   0  0  0  0  0  0
   -1.2300    4.0210   36.1510 C   0  0  0  0  0  0
    1.3020    7.0380   33.2980 N   0  0  0  0  0  0
    2.1520    7.9780   32.5700 C   0  0  2  0  0  0
    3.5290    8.2020   33.1860 C   0  0  0  0  0  0
    3.7330    8.0500   34.3910 O   0  0  0  0  0  0
    1.4650    9.3580   32.4230 C   0  0  0  0  0  0
    0.1790    9.2200   31.6160 C   0  0  0  0  0  0
    1.1660    9.9390   33.7920 C   0  0  0  0  0  0
    4.4770    8.5790   32.3390 N   0  0  0  0  0  0
    5.8420    8.8310   32.7820 C   0  0  2  0  0  0
    5.9920   10.1620   33.5030 C   0  0  0  0  0  0
    5.2080   11.0950   33.2940 O   0  0  0  0  0  0
    6.7970    8.8230   31.5840 C   0  0  0  0  0  0
    6.9740    7.4980   30.8430 C   0  0  0  0  0  0
    7.7050    7.7500   29.5360 C   0  0  0  0  0  0
    7.7380    6.5150   31.7260 C   0  0  0  0  0  0
    7.0020   10.2400   34.3590 N   0  0  0  0  0  0
    7.2730   11.4790   35.0640 C   0  0  0  0  0  0
    8.2770   12.2480   34.2200 C   0  0  0  0  0  0
    9.4840   12.1770   34.4530 O   0  0  0  0  0  0
    7.7710   12.9760   33.2300 N   0  0  0  0  0  0
    8.6100   13.7450   32.3160 C   0  0  2  0  0  0
    9.2270   14.9900   32.9380 C   0  0  0  0  0  0
   10.0310   15.6540   32.2430 O   0  5  0  0  0  0
    7.7980   14.1260   31.0780 C   0  0  0  0  0  0
    7.3280   12.9240   30.2550 C   0  0  0  0  0  0
    6.3940   13.3780   29.1440 C   0  0  0  0  0  0
    8.5370   12.2000   29.6880 C   0  0  0  0  0  0
    8.9010   15.2860   34.1070 O   0  0  0  0  0  0
   -6.2948    3.2872   31.3214 H   0  0  0  0  0  0
   -7.4083    1.8993   31.5674 H   0  0  0  0  0  0
   -5.9618    1.7153   30.5183 H   0  0  0  0  0  0
   -5.9972    2.2624   33.4814 H   0  0  0  0  0  0
   -5.1034   -0.2407   31.9314 H   0  0  0  0  0  0
   -5.1721   -0.0537   33.7166 H   0  0  0  0  0  0
   -7.0230   -1.3675   33.1757 H   0  0  0  0  0  0
   -7.7047    0.2794   33.3988 H   0  0  0  0  0  0
   -8.1036    0.5676   31.1238 H   0  0  0  0  0  0
   -6.8735   -0.6501   30.6433 H   0  0  0  0  0  0
   -8.4771   -2.4715   31.5370 H   0  0  0  0  0  0
   -9.6320    0.8658   30.6254 H   0  0  0  0  0  0
  -10.5059   -3.2162   31.1018 H   0  0  0  0  0  0
  -11.8556   -2.0117   30.5038 H   0  0  0  0  0  0
   -4.6173    3.1245   30.7024 H   0  0  0  0  0  0
   -1.8347    2.4255   31.1959 H   0  0  0  0  0  0
   -2.7189    3.1258   28.9415 H   0  0  0  0  0  0
   -3.0701    4.7673   29.5808 H   0  0  0  0  0  0
   -1.0852    4.8085   28.2091 H   0  0  0  0  0  0
   -0.6446    5.1190   29.9226 H   0  0  0  0  0  0
    1.2161    4.2745   30.5040 H   0  0  0  0  0  0
    1.8270    2.5708   29.9089 H   0  0  0  0  0  0
   -0.2580    3.1457   32.3849 H   0  0  0  0  0  0
   -0.8708    5.6178   34.0414 H   0  0  0  0  0  0
    1.4963    3.6680   34.0864 H   0  0  0  0  0  0
    1.2010    4.9826   35.2743 H   0  0  0  0  0  0
   -0.4989    2.4932   34.8465 H   0  0  0  0  0  0
    1.6897    2.1733   35.9823 H   0  0  0  0  0  0
    0.3112    1.9684   37.1157 H   0  0  0  0  0  0
    1.2726    3.4856   37.1358 H   0  0  0  0  0  0
   -1.8956    4.4528   35.3891 H   0  0  0  0  0  0
   -0.8331    4.8244   36.7890 H   0  0  0  0  0  0
   -1.7944    3.3071   36.7689 H   0  0  0  0  0  0
    1.0430    7.2313   34.3495 H   0  0  0  0  0  0
    2.2797    7.4480   31.6146 H   0  0  0  0  0  0
    2.1329   10.0550   31.8956 H   0  0  0  0  0  0
    0.4104    8.7981   30.6268 H   0  0  0  0  0  0
   -0.2847   10.2099   31.4931 H   0  0  0  0  0  0
   -0.5165    8.5525   32.1458 H   0  0  0  0  0  0
    2.1016   10.0329   34.3627 H   0  0  0  0  0  0
    0.4739    9.2740   34.3293 H   0  0  0  0  0  0
    0.7057   10.9314   33.6766 H   0  0  0  0  0  0
    4.2117    8.7005   31.2784 H   0  0  0  0  0  0
    6.0412    8.0104   33.4869 H   0  0  0  0  0  0
    6.4421    9.5383   30.8274 H   0  0  0  0  0  0
    7.8051    9.1112   31.9167 H   0  0  0  0  0  0
    5.9944    7.0565   30.6074 H   0  0  0  0  0  0
    7.1292    8.4607   28.9250 H   0  0  0  0  0  0
    7.8157    6.8020   28.9892 H   0  0  0  0  0  0
    8.6996    8.1698   29.7472 H   0  0  0  0  0  0
    7.1828    6.3550   32.6620 H   0  0  0  0  0  0
    8.7328    6.9247   31.9552 H   0  0  0  0  0  0
    7.8490    5.5569   31.1971 H   0  0  0  0  0  0
    7.6360    9.3581   34.5331 H   0  0  0  0  0  0
    6.3386   12.0481   35.1777 H   0  0  0  0  0  0
    7.6875   11.2525   36.0574 H   0  0  0  0  0  0
    6.6773   12.9857   33.1126 H   0  0  0  0  0  0
    9.4368   13.0597   32.0777 H   0  0  0  0  0  0
    6.9005   14.6829   31.3853 H   0  0  0  0  0  0
    8.4114   14.7554   30.4165 H   0  0  0  0  0  0
    6.7697   12.2256   30.8957 H   0  0  0  0  0  0
    5.5292   13.8981   29.5817 H   0  0  0  0  0  0
    6.0465   12.5022   28.5764 H   0  0  0  0  0  0
    6.9309   14.0621   28.4703 H   0  0  0  0  0  0
    9.1942   11.8834   30.5113 H   0  0  0  0  0  0
    9.0883   12.8761   29.0180 H   0  0  0  0  0  0
    8.2039   11.3162   29.1241 H   0  0  0  0  0  0
  -11.3798    0.2102   30.2445 H   0  0  0  0  0  0
  1  2  1  0  0  0
  1 57  1  0  0  0
  1 58  1  0  0  0
  1 59  1  0  0  0
  2  3  1  0  0  0
  2  5  1  0  0  0
  2 60  1  0  0  0
  3  4  2  0  0  0
  3 12  1  0  0  0
  5  6  1  0  0  0
  5 61  1  0  0  0
  5 62  1  0  0  0
  6  7  1  0  0  0
  6 63  1  0  0  0
  6 64  1  0  0  0
  7  8  1  0  0  0
  7 65  1  0  0  0
  7 66  1  0  0  0
  8  9  1  0  0  0
  8 67  1  0  0  0
  9 10  2  0  0  0
  9 11  1  0  0  0
 10 68  1  0  0  0
 10124  1  0  0  0
 11 69  1  0  0  0
 11 70  1  0  0  0
 12 13  1  0  0  0
 12 71  1  0  0  0
 13 14  1  0  0  0
 13 16  1  0  0  0
 13 72  1  0  0  0
 14 15  2  0  0  0
 14 21  1  0  0  0
 16 17  1  0  0  0
 16 73  1  0  0  0
 16 74  1  0  0  0
 17 18  1  0  0  0
 17 75  1  0  0  0
 17 76  1  0  0  0
 18 19  2  0  0  0
 18 20  1  0  0  0
 20 77  1  0  0  0
 20 78  1  0  0  0
 21 22  1  0  0  0
 21 79  1  0  0  0
 22 23  1  0  0  0
 22 25  1  0  0  0
 22 80  1  0  0  0
 23 24  2  0  0  0
 23 29  1  0  0  0
 25 26  1  0  0  0
 25 81  1  0  0  0
 25 82  1  0  0  0
 26 27  1  0  0  0
 26 28  1  0  0  0
 26 83  1  0  0  0
 27 84  1  0  0  0
 27 85  1  0  0  0
 27 86  1  0  0  0
 28 87  1  0  0  0
 28 88  1  0  0  0
 28 89  1  0  0  0
 29 30  1  0  0  0
 29 90  1  0  0  0
 30 31  1  0  0  0
 30 33  1  0  0  0
 30 91  1  0  0  0
 31 32  2  0  0  0
 31 36  1  0  0  0
 33 34  1  0  0  0
 33 35  1  0  0  0
 33 92  1  0  0  0
 34 93  1  0  0  0
 34 94  1  0  0  0
 34 95  1  0  0  0
 35 96  1  0  0  0
 35 97  1  0  0  0
 35 98  1  0  0  0
 36 37  1  0  0  0
 36 99  1  0  0  0
 37 38  1  0  0  0
 37 40  1  0  0  0
 37100  1  0  0  0
 38 39  2  0  0  0
 38 44  1  0  0  0
 40 41  1  0  0  0
 40101  1  0  0  0
 40102  1  0  0  0
 41 42  1  0  0  0
 41 43  1  0  0  0
 41103  1  0  0  0
 42104  1  0  0  0
 42105  1  0  0  0
 42106  1  0  0  0
 43107  1  0  0  0
 43108  1  0  0  0
 43109  1  0  0  0
 44 45  1  0  0  0
 44110  1  0  0  0
 45 46  1  0  0  0
 45111  1  0  0  0
 45112  1  0  0  0
 46 47  2  0  0  0
 46 48  1  0  0  0
 48 49  1  0  0  0
 48113  1  0  0  0
 49 50  1  0  0  0
 49 52  1  0  0  0
 49114  1  0  0  0
 50 51  1  0  0  0
 50 56  2  0  0  0
 52 53  1  0  0  0
 52115  1  0  0  0
 52116  1  0  0  0
 53 54  1  0  0  0
 53 55  1  0  0  0
 53117  1  0  0  0
 54118  1  0  0  0
 54119  1  0  0  0
 54120  1  0  0  0
 55121  1  0  0  0
 55122  1  0  0  0
 55123  1  0  0  0
M  CHG  3   1   1  10   1  51  -1
M  END
> <s_m_source_file>
../1ok7_ligand.sdf

> <i_m_source_file_index>
1

> <s_epik_input>
W0hdL049QyhbTkgyXSlcW05IXVtDSDJdW0NIMl1bQ0gyXVtDQEhdKFtOSDMrXSlDKD1PKVtOSF1bQ0BASF0oW0NIMl1bQ0gyXUMoPU8pW05IMl0pQyg9TylbTkhdW0NAQEhdKFtDSDJdW0NIXShbQ0gzXSlbQ0gzXSlDKD1PKVtOSF1bQ0BASF0oW0NIXShbQ0gzXSlbQ0gzXSlDKD1PKVtOSF1bQ0BASF0oW0NIMl1bQ0hdKFtDSDNdKVtDSDNdKUMoPU8pW05IXVtDSDJdQyg9TylbTkhdW0NASF0oQyg9TylbT0hdKVtDSDJdW0NIXShbQ0gzXSlbQ0gzXQ==

> <s_epik_cmdline>
J2VwaWtfYXBwJywgJy1pbWFlJywgJ2xpZ2FuZF9wcm8ubWFlJywgJy1vbWFlJywgJ2xpZ2FuZF9wcmVwLm1hZScsICctbXMnLCAnMScsICctcGgnLCAnNycsICctcGh0JywgJzAuNScsICctbnQn

> <r_epik_Ionization_Penalty>
  0.1402

> <r_epik_Ionization_Penalty_Charging>
  0.1402

> <r_epik_Ionization_Penalty_Neutral>
  0.0000

> <r_epik_State_Penalty>
  0.1293

> <r_epik_Charging_Adjusted_Penalty>
0.269570809190047

> <i_epik_Tot_Q>
1

> <i_epik_Tot_abs_Q>
3

> <s_epik_Chemistry_Notes>
This compound has an imine and may undergo hydrolysis.

$$$$
