1okv_ligand
                    3D
 Schrodinger Suite 2020-3.
111111  0  0  1  0            999 V2000
   35.8970   21.6700   -1.4110 N   0  3  0  0  0  0
   37.0910   21.2880   -0.6230 C   0  0  2  0  0  0
   37.5280   22.4120    0.3190 C   0  0  0  0  0  0
   37.1800   23.5700    0.0830 O   0  0  0  0  0  0
   38.2560   20.9670   -1.5860 C   0  0  0  0  0  0
   38.5140   22.0400   -2.6470 C   0  0  0  0  0  0
   39.9360   22.0380   -3.2310 C   0  0  0  0  0  0
   39.9490   22.6470   -4.5570 N   0  0  0  0  0  0
   40.7750   23.6140   -4.9520 C   0  0  0  0  0  0
   41.7890   24.0390   -4.2060 N   0  0  0  0  0  0
   40.6260   24.1270   -6.1590 N   0  3  0  0  0  0
   38.1400   22.0560    1.4500 N   0  0  0  0  0  0
   38.7900   23.0490    2.2770 C   0  0  2  0  0  0
   39.8680   23.6780    1.4200 C   0  0  0  0  0  0
   40.5350   22.9590    0.6880 O   0  0  0  0  0  0
   39.4380   22.4240    3.5060 C   0  0  0  0  0  0
   40.1880   23.4580    4.3810 C   0  0  0  0  0  0
   40.8220   22.8800    5.6310 C   0  0  0  0  0  0
   42.2850   22.8760    5.5680 N   0  0  0  0  0  0
   43.0380   21.8320    5.2390 C   0  0  0  0  0  0
   44.3550   21.9520    5.3040 N   0  3  0  0  0  0
   42.5080   20.6580    4.8930 N   0  0  0  0  0  0
   39.9880   25.0030    1.4600 N   0  0  0  0  0  0
   40.9480   25.6730    0.6130 C   0  0  2  0  0  0
   42.3290   25.7510    1.2490 C   0  0  0  0  0  0
   42.5550   26.2690    2.3480 O   0  0  0  0  0  0
   40.4990   27.0290    0.0800 C   0  0  0  0  0  0
   39.5510   26.9080   -1.1200 C   0  0  0  0  0  0
   39.0990   28.3020   -1.5710 C   0  0  0  0  0  0
   40.1250   26.1190   -2.3040 C   0  0  0  0  0  0
   43.2840   25.2170    0.5180 N   0  0  0  0  0  0
   44.5970   25.2000    1.0680 C   0  0  2  0  0  0
   45.2730   26.5450    0.8570 C   0  0  0  0  0  0
   45.6660   26.8950   -0.2550 O   0  0  0  0  0  0
   45.3560   23.9800    0.5650 C   0  0  2  0  0  0
   45.7500   23.1680    1.7940 C   0  0  0  0  0  0
   46.5360   24.3440   -0.3710 C   0  0  0  0  0  0
   46.2880   24.0390    2.9450 C   0  0  0  0  0  0
   45.4210   27.2760    1.9590 N   0  0  0  0  0  0
   46.0160   28.6080    1.9750 C   0  0  2  0  0  0
   47.2860   28.5880    2.7980 C   0  0  0  0  0  0
   47.2510   28.1760    3.9550 O   0  0  0  0  0  0
   45.0240   29.5750    2.6310 C   0  0  0  0  0  0
   43.8330   29.8880    1.7820 C   0  0  0  0  0  0
   42.5660   29.6470    2.2450 C   0  0  0  0  0  0
   43.9830   30.4230    0.5190 C   0  0  0  0  0  0
   41.4820   29.9330    1.4550 C   0  0  0  0  0  0
   42.9130   30.7090   -0.2600 C   0  0  0  0  0  0
   41.6660   30.4550    0.1950 C   0  0  0  0  0  0
   48.3800   29.0910    2.2350 N   0  0  0  0  0  0
   35.6142   20.8392   -2.0741 H   0  0  0  0  0  0
   36.1260   22.5600   -2.0155 H   0  0  0  0  0  0
   35.0639   21.8946   -0.7287 H   0  0  0  0  0  0
   36.7901   20.4142   -0.0264 H   0  0  0  0  0  0
   39.1868   20.8546   -1.0107 H   0  0  0  0  0  0
   38.0411   20.0309   -2.1223 H   0  0  0  0  0  0
   37.8238   21.8945   -3.4910 H   0  0  0  0  0  0
   38.3521   23.0357   -2.2085 H   0  0  0  0  0  0
   40.6045   22.6096   -2.5704 H   0  0  0  0  0  0
   40.2979   21.0024   -3.3116 H   0  0  0  0  0  0
   39.2358   22.3105   -5.3238 H   0  0  0  0  0  0
   41.9383   23.6295   -3.1960 H   0  0  0  0  0  0
   42.4792   24.8003   -4.5984 H   0  0  0  0  0  0
   39.7957   23.7944   -6.7993 H   0  0  0  0  0  0
   38.1478   20.9983    1.7519 H   0  0  0  0  0  0
   38.0167   23.7597    2.6040 H   0  0  0  0  0  0
   38.6633   21.9549    4.1304 H   0  0  0  0  0  0
   40.1652   21.6617    3.1895 H   0  0  0  0  0  0
   40.9974   23.9166    3.7940 H   0  0  0  0  0  0
   39.4858   24.2384    4.7095 H   0  0  0  0  0  0
   40.5225   23.4782    6.5042 H   0  0  0  0  0  0
   40.4863   21.8412    5.7657 H   0  0  0  0  0  0
   42.8482   23.7908    5.8046 H   0  0  0  0  0  0
   44.8063   22.9141    5.5880 H   0  0  0  0  0  0
   41.4155   20.5435    4.8348 H   0  0  0  0  0  0
   43.1634   19.8043    4.6658 H   0  0  0  0  0  0
   39.3528   25.5882    2.1413 H   0  0  0  0  0  0
   40.9733   24.9838   -0.2440 H   0  0  0  0  0  0
   39.9705   27.5780    0.8733 H   0  0  0  0  0  0
   41.3785   27.6060   -0.2419 H   0  0  0  0  0  0
   38.6883   26.3226   -0.7693 H   0  0  0  0  0  0
   38.6911   28.8516   -0.7099 H   0  0  0  0  0  0
   38.3228   28.2035   -2.3442 H   0  0  0  0  0  0
   39.9588   28.8509   -1.9825 H   0  0  0  0  0  0
   40.4433   25.1234   -1.9613 H   0  0  0  0  0  0
   40.9896   26.6577   -2.7189 H   0  0  0  0  0  0
   39.3536   26.0102   -3.0806 H   0  0  0  0  0  0
   43.1006   24.7942   -0.4808 H   0  0  0  0  0  0
   44.4920   25.0778    2.1561 H   0  0  0  0  0  0
   44.7046   23.3629   -0.0713 H   0  0  0  0  0  0
   44.8718   22.6230    2.1704 H   0  0  0  0  0  0
   46.5381   22.4503    1.5221 H   0  0  0  0  0  0
   46.1602   24.9260   -1.2254 H   0  0  0  0  0  0
   47.0121   23.4221   -0.7363 H   0  0  0  0  0  0
   47.2734   24.9423    0.1843 H   0  0  0  0  0  0
   46.5532   23.3967    3.7977 H   0  0  0  0  0  0
   45.5143   24.7574    3.2537 H   0  0  0  0  0  0
   47.1806   24.5848    2.6054 H   0  0  0  0  0  0
   45.0643   26.8217    2.8951 H   0  0  0  0  0  0
   46.2416   28.8820    0.9338 H   0  0  0  0  0  0
   44.6502   29.1369    3.5682 H   0  0  0  0  0  0
   45.5294   30.5277    2.8476 H   0  0  0  0  0  0
   42.4198   29.2282    3.2407 H   0  0  0  0  0  0
   44.9857   30.6199    0.1397 H   0  0  0  0  0  0
   40.4739   29.7467    1.8254 H   0  0  0  0  0  0
   43.0568   31.1422   -1.2498 H   0  0  0  0  0  0
   40.8035   30.6642   -0.4378 H   0  0  0  0  0  0
   48.3499   29.4445    1.1938 H   0  0  0  0  0  0
   49.3155   29.1538    2.8103 H   0  0  0  0  0  0
   44.9979   21.0895    5.0740 H   0  0  0  0  0  0
   41.3321   24.8871   -6.5246 H   0  0  0  0  0  0
  1  2  1  0  0  0
  1 51  1  0  0  0
  1 52  1  0  0  0
  1 53  1  0  0  0
  2  5  1  0  0  0
  2  3  1  0  0  0
  2 54  1  0  0  0
  3  4  2  0  0  0
  3 12  1  0  0  0
  5  6  1  0  0  0
  5 55  1  0  0  0
  5 56  1  0  0  0
  6  7  1  0  0  0
  6 57  1  0  0  0
  6 58  1  0  0  0
  7  8  1  0  0  0
  7 59  1  0  0  0
  7 60  1  0  0  0
  8  9  1  0  0  0
  8 61  1  0  0  0
  9 11  2  0  0  0
  9 10  1  0  0  0
 10 62  1  0  0  0
 10 63  1  0  0  0
 11 64  1  0  0  0
 11111  1  0  0  0
 12 13  1  0  0  0
 12 65  1  0  0  0
 13 16  1  0  0  0
 13 14  1  0  0  0
 13 66  1  0  0  0
 14 15  2  0  0  0
 14 23  1  0  0  0
 16 17  1  0  0  0
 16 67  1  0  0  0
 16 68  1  0  0  0
 17 18  1  0  0  0
 17 69  1  0  0  0
 17 70  1  0  0  0
 18 19  1  0  0  0
 18 71  1  0  0  0
 18 72  1  0  0  0
 19 20  1  0  0  0
 19 73  1  0  0  0
 20 22  1  0  0  0
 20 21  2  0  0  0
 21 74  1  0  0  0
 21110  1  0  0  0
 22 75  1  0  0  0
 22 76  1  0  0  0
 23 24  1  0  0  0
 23 77  1  0  0  0
 24 27  1  0  0  0
 24 25  1  0  0  0
 24 78  1  0  0  0
 25 26  2  0  0  0
 25 31  1  0  0  0
 27 28  1  0  0  0
 27 79  1  0  0  0
 27 80  1  0  0  0
 28 29  1  0  0  0
 28 30  1  0  0  0
 28 81  1  0  0  0
 29 82  1  0  0  0
 29 83  1  0  0  0
 29 84  1  0  0  0
 30 85  1  0  0  0
 30 86  1  0  0  0
 30 87  1  0  0  0
 31 32  1  0  0  0
 31 88  1  0  0  0
 32 35  1  0  0  0
 32 33  1  0  0  0
 32 89  1  0  0  0
 33 34  2  0  0  0
 33 39  1  0  0  0
 35 37  1  0  0  0
 35 36  1  0  0  0
 35 90  1  0  0  0
 36 38  1  0  0  0
 36 91  1  0  0  0
 36 92  1  0  0  0
 37 93  1  0  0  0
 37 94  1  0  0  0
 37 95  1  0  0  0
 38 96  1  0  0  0
 38 97  1  0  0  0
 38 98  1  0  0  0
 39 40  1  0  0  0
 39 99  1  0  0  0
 40 43  1  0  0  0
 40 41  1  0  0  0
 40100  1  0  0  0
 41 42  2  0  0  0
 41 50  1  0  0  0
 43 44  1  0  0  0
 43101  1  0  0  0
 43102  1  0  0  0
 44 45  2  0  0  0
 44 46  1  0  0  0
 45 47  1  0  0  0
 45103  1  0  0  0
 46 48  2  0  0  0
 46104  1  0  0  0
 47 49  2  0  0  0
 47105  1  0  0  0
 48 49  1  0  0  0
 48106  1  0  0  0
 49107  1  0  0  0
 50108  1  0  0  0
 50109  1  0  0  0
M  CHG  3   1   1  11   1  21   1
M  END
> <s_m_source_file>
../1okv_ligand.sdf

> <i_m_source_file_index>
1

> <s_epik_input>
W0hdL049QyhbTkgyXSlcW05IXVtDSDJdW0NIMl1bQ0gyXVtDQEhdKFtOSDMrXSlDKD1PKVtOSF1bQ0BASF0oW0NIMl1bQ0gyXVtDSDJdW05IXS9DKD1OXFtIXSlbTkgyXSlDKD1PKVtOSF1bQ0BASF0oW0NIMl1bQ0hdKFtDSDNdKVtDSDNdKUMoPU8pW05IXVtDQEBIXShbQ0BASF0oW0NIM10pW0NIMl1bQ0gzXSlDKD1PKVtOSF1bQ0BIXShDKD1PKVtOSDJdKVtDSDJdYzFbY0hdW2NIXVtjSF1bY0hdW2NIXTE=

> <s_epik_cmdline>
J2VwaWtfYXBwJywgJy1pbWFlJywgJ2xpZ2FuZF9wcm8ubWFlJywgJy1vbWFlJywgJ2xpZ2FuZF9wcmVwLm1hZScsICctbXMnLCAnMScsICctcGgnLCAnNycsICctcGh0JywgJzAuNScsICctbnQn

> <r_epik_Ionization_Penalty>
  0.1367

> <r_epik_Ionization_Penalty_Charging>
  0.1367

> <r_epik_Ionization_Penalty_Neutral>
  0.0000

> <r_epik_State_Penalty>
  0.1260

> <r_epik_Charging_Adjusted_Penalty>
0.26266729523923

> <i_epik_Tot_Q>
3

> <i_epik_Tot_abs_Q>
3

> <s_epik_Chemistry_Notes>
This compound has an imine and may undergo hydrolysis.

$$$$
