1okw_ligand
                    3D
 Schrodinger Suite 2020-3.
110110  0  0  1  0            999 V2000
   35.5100   19.3700   -1.9170 C   0  0  0  0  0  0
   34.3100   19.1800   -2.0380 O   0  0  0  0  0  0
   36.3720   18.1580   -2.0620 C   0  0  0  0  0  0
   36.1070   20.5510   -1.7210 N   0  0  0  0  0  0
   37.4220   20.6150   -1.1050 C   0  0  2  0  0  0
   37.5810   21.6800   -0.0610 C   0  0  0  0  0  0
   37.1700   22.8020   -0.2830 O   0  0  0  0  0  0
   38.5330   20.8320   -2.1050 C   0  0  0  0  0  0
   38.3680   21.4670   -3.2610 C   0  0  0  0  0  0
   39.4690   22.4350   -3.6180 C   0  0  0  0  0  0
   40.2390   22.1440   -4.8170 N   0  0  0  0  0  0
   40.6930   23.1050   -5.6380 C   0  0  0  0  0  0
   40.1100   23.2290   -6.8300 N   0  3  0  0  0  0
   41.6340   24.0000   -5.2840 N   0  0  0  0  0  0
   38.2780   21.3360    1.0210 N   0  0  0  0  0  0
   39.0200   22.2890    1.8320 C   0  0  2  0  0  0
   40.1910   22.8440    1.0930 C   0  0  0  0  0  0
   40.9560   22.0670    0.5500 O   0  0  0  0  0  0
   39.5680   21.6030    3.0610 C   0  0  0  0  0  0
   40.3470   22.3350    4.1230 C   0  0  0  0  0  0
   40.5640   21.3920    5.3070 C   0  0  0  0  0  0
   39.3200   20.6450    5.4660 N   0  0  0  0  0  0
   38.4790   20.5840    6.5100 C   0  0  0  0  0  0
   38.8290   21.1000    7.6910 N   0  3  0  0  0  0
   37.2730   20.0200    6.3730 N   0  0  0  0  0  0
   40.3180   24.1690    1.1210 N   0  0  0  0  0  0
   41.4470   24.8850    0.5510 C   0  0  2  0  0  0
   42.5690   25.0150    1.5200 C   0  0  0  0  0  0
   42.4330   25.6500    2.5430 O   0  0  0  0  0  0
   41.0050   26.2810    0.1210 C   0  0  0  0  0  0
   40.0010   26.1850   -1.0270 C   0  0  0  0  0  0
   40.4660   25.2180   -2.1070 C   0  0  0  0  0  0
   39.7140   27.5330   -1.6790 C   0  0  0  0  0  0
   43.7090   24.4440    1.1820 N   0  0  0  0  0  0
   44.7350   24.3430    2.1960 C   0  0  2  0  0  0
   45.6710   25.4940    2.0590 C   0  0  0  0  0  0
   46.4710   25.5110    1.1430 O   0  0  0  0  0  0
   45.4490   23.0270    1.9020 C   0  0  0  0  0  0
   46.2720   22.6000    3.0980 C   0  0  0  0  0  0
   46.2270   21.4410    3.4930 O   0  0  0  0  0  0
   47.0220   23.5450    3.6620 N   0  0  0  0  0  0
   45.6020   26.4630    2.9580 N   0  0  0  0  0  0
   46.4310   27.6250    2.6670 C   0  0  2  0  0  0
   47.7650   27.6950    3.3670 C   0  0  0  0  0  0
   48.6920   28.2220    2.7770 O   0  0  0  0  0  0
   45.5350   28.8120    3.0020 C   0  0  0  0  0  0
   44.8020   29.1500    1.7350 C   0  0  0  0  0  0
   43.4370   29.3800    1.7080 C   0  0  0  0  0  0
   45.5430   29.1290    0.5660 C   0  0  0  0  0  0
   42.8310   29.6380    0.4860 C   0  0  0  0  0  0
   44.9260   29.4020   -0.6440 C   0  0  0  0  0  0
   41.0730   29.9580    0.4030 Cl  0  0  0  0  0  0
   43.5630   29.6430   -0.6880 C   0  0  0  0  0  0
   47.9250   27.1820    4.5880 N   0  0  0  0  0  0
   35.7372   17.2729   -2.2160 H   0  0  0  0  0  0
   36.9728   18.0242   -1.1503 H   0  0  0  0  0  0
   37.0404   18.2848   -2.9264 H   0  0  0  0  0  0
   35.5980   21.4764   -2.0284 H   0  0  0  0  0  0
   37.4588   19.6199   -0.6377 H   0  0  0  0  0  0
   39.3395   21.4150   -1.6363 H   0  0  0  0  0  0
   38.9270   19.8586   -2.4324 H   0  0  0  0  0  0
   38.3160   20.7328   -4.0785 H   0  0  0  0  0  0
   37.4346   22.0482   -3.2302 H   0  0  0  0  0  0
   39.0403   23.4355   -3.7769 H   0  0  0  0  0  0
   40.2014   22.4758   -2.7983 H   0  0  0  0  0  0
   40.4710   21.1020   -5.0822 H   0  0  0  0  0  0
   39.3382   22.5101   -7.1422 H   0  0  0  0  0  0
   42.1297   23.9189   -4.3054 H   0  0  0  0  0  0
   41.9073   24.8125   -5.9733 H   0  0  0  0  0  0
   38.2741   20.2697    1.2910 H   0  0  0  0  0  0
   38.3008   23.0870    2.0683 H   0  0  0  0  0  0
   38.7396   21.1619    3.6348 H   0  0  0  0  0  0
   40.2669   20.8097    2.7572 H   0  0  0  0  0  0
   41.3178   22.6509    3.7134 H   0  0  0  0  0  0
   39.7808   23.2202    4.4485 H   0  0  0  0  0  0
   41.4054   20.7177    5.0893 H   0  0  0  0  0  0
   40.7899   21.9809    6.2082 H   0  0  0  0  0  0
   38.9501   20.0118    4.6461 H   0  0  0  0  0  0
   39.8174   21.5663    7.8163 H   0  0  0  0  0  0
   36.9729   19.5915    5.4054 H   0  0  0  0  0  0
   36.5819   19.9850    7.2280 H   0  0  0  0  0  0
   39.5049   24.7247    1.6108 H   0  0  0  0  0  0
   41.7888   24.2683   -0.2933 H   0  0  0  0  0  0
   40.5322   26.7941    0.9714 H   0  0  0  0  0  0
   41.8810   26.8562   -0.2133 H   0  0  0  0  0  0
   39.0736   25.8108   -0.5688 H   0  0  0  0  0  0
   40.6783   24.2379   -1.6549 H   0  0  0  0  0  0
   41.3786   25.6087   -2.5808 H   0  0  0  0  0  0
   39.6770   25.1087   -2.8656 H   0  0  0  0  0  0
   39.3761   28.2463   -0.9128 H   0  0  0  0  0  0
   38.9286   27.4125   -2.4397 H   0  0  0  0  0  0
   40.6302   27.9126   -2.1548 H   0  0  0  0  0  0
   43.8943   24.0518    0.1711 H   0  0  0  0  0  0
   44.2993   24.3877    3.2050 H   0  0  0  0  0  0
   44.7049   22.2477    1.6804 H   0  0  0  0  0  0
   46.1139   23.1562    1.0352 H   0  0  0  0  0  0
   47.0155   24.5674    3.2562 H   0  0  0  0  0  0
   47.6479   23.3031    4.5336 H   0  0  0  0  0  0
   44.9844   26.4420    3.8680 H   0  0  0  0  0  0
   46.7414   27.5496    1.6144 H   0  0  0  0  0  0
   44.8351   28.5288    3.8020 H   0  0  0  0  0  0
   46.1550   29.6558    3.3390 H   0  0  0  0  0  0
   42.8507   29.3589    2.6266 H   0  0  0  0  0  0
   46.6079   28.8985    0.5974 H   0  0  0  0  0  0
   45.5136   29.4271   -1.5617 H   0  0  0  0  0  0
   43.0703   29.8353   -1.6411 H   0  0  0  0  0  0
   47.0745   26.7108    5.1024 H   0  0  0  0  0  0
   48.9074   27.2302    5.0804 H   0  0  0  0  0  0
   40.4006   24.0502   -7.5017 H   0  0  0  0  0  0
   38.1289   21.0588    8.5384 H   0  0  0  0  0  0
  1  2  2  0  0  0
  1  3  1  0  0  0
  1  4  1  0  0  0
  3 55  1  0  0  0
  3 56  1  0  0  0
  3 57  1  0  0  0
  4  5  1  0  0  0
  4 58  1  0  0  0
  5  8  1  0  0  0
  5  6  1  0  0  0
  5 59  1  0  0  0
  6  7  2  0  0  0
  6 15  1  0  0  0
  8  9  1  0  0  0
  8 60  1  0  0  0
  8 61  1  0  0  0
  9 10  1  0  0  0
  9 62  1  0  0  0
  9 63  1  0  0  0
 10 11  1  0  0  0
 10 64  1  0  0  0
 10 65  1  0  0  0
 11 12  1  0  0  0
 11 66  1  0  0  0
 12 14  1  0  0  0
 12 13  2  0  0  0
 13 67  1  0  0  0
 13109  1  0  0  0
 14 68  1  0  0  0
 14 69  1  0  0  0
 15 16  1  0  0  0
 15 70  1  0  0  0
 16 19  1  0  0  0
 16 17  1  0  0  0
 16 71  1  0  0  0
 17 18  2  0  0  0
 17 26  1  0  0  0
 19 20  1  0  0  0
 19 72  1  0  0  0
 19 73  1  0  0  0
 20 21  1  0  0  0
 20 74  1  0  0  0
 20 75  1  0  0  0
 21 22  1  0  0  0
 21 76  1  0  0  0
 21 77  1  0  0  0
 22 23  1  0  0  0
 22 78  1  0  0  0
 23 25  1  0  0  0
 23 24  2  0  0  0
 24 79  1  0  0  0
 24110  1  0  0  0
 25 80  1  0  0  0
 25 81  1  0  0  0
 26 27  1  0  0  0
 26 82  1  0  0  0
 27 30  1  0  0  0
 27 28  1  0  0  0
 27 83  1  0  0  0
 28 29  2  0  0  0
 28 34  1  0  0  0
 30 31  1  0  0  0
 30 84  1  0  0  0
 30 85  1  0  0  0
 31 32  1  0  0  0
 31 33  1  0  0  0
 31 86  1  0  0  0
 32 87  1  0  0  0
 32 88  1  0  0  0
 32 89  1  0  0  0
 33 90  1  0  0  0
 33 91  1  0  0  0
 33 92  1  0  0  0
 34 35  1  0  0  0
 34 93  1  0  0  0
 35 38  1  0  0  0
 35 36  1  0  0  0
 35 94  1  0  0  0
 36 37  2  0  0  0
 36 42  1  0  0  0
 38 39  1  0  0  0
 38 95  1  0  0  0
 38 96  1  0  0  0
 39 41  1  0  0  0
 39 40  2  0  0  0
 41 97  1  0  0  0
 41 98  1  0  0  0
 42 43  1  0  0  0
 42 99  1  0  0  0
 43 44  1  0  0  0
 43 46  1  0  0  0
 43100  1  0  0  0
 44 45  2  0  0  0
 44 54  1  0  0  0
 46 47  1  0  0  0
 46101  1  0  0  0
 46102  1  0  0  0
 47 48  2  0  0  0
 47 49  1  0  0  0
 48 50  1  0  0  0
 48103  1  0  0  0
 49 51  2  0  0  0
 49104  1  0  0  0
 50 53  2  0  0  0
 50 52  1  0  0  0
 51 53  1  0  0  0
 51105  1  0  0  0
 53106  1  0  0  0
 54107  1  0  0  0
 54108  1  0  0  0
M  CHG  2  13   1  24   1
M  END
> <s_m_source_file>
../1okw_ligand.sdf

> <i_m_source_file_index>
1

> <s_epik_input>
W0hdL049QyhbTkgyXSlcW05IXVtDSDJdW0NIMl1bQ0gyXVtDQEhdKFtOSF1DKD1PKVtDSDNdKUMoPU8pW05IXVtDQEBIXShbQ0gyXVtDSDJdW0NIMl1bTkhdL0MoPU5cW0hdKVtOSDJdKUMoPU8pW05IXVtDQEBIXShbQ0gyXVtDSF0oW0NIM10pW0NIM10pQyg9TylbTkhdW0NAQEhdKFtDSDJdQyg9TylbTkgyXSlDKD1PKVtOSF1bQ0BIXShDKD1PKVtOSDJdKVtDSDJdYzFbY0hdYyhDbClbY0hdW2NIXVtjSF0x

> <s_epik_cmdline>
J2VwaWtfYXBwJywgJy1pbWFlJywgJ2xpZ2FuZF9wcm8ubWFlJywgJy1vbWFlJywgJ2xpZ2FuZF9wcmVwLm1hZScsICctbXMnLCAnMScsICctcGgnLCAnNycsICctcGh0JywgJzAuNScsICctbnQn

> <r_lp_tautomer_probability>
1

> <r_epik_Ionization_Penalty>
  0.0000

> <r_epik_Ionization_Penalty_Charging>
  0.0000

> <r_epik_Ionization_Penalty_Neutral>
  0.0000

> <r_epik_State_Penalty>
 -0.0000

> <r_epik_Charging_Adjusted_Penalty>
3.13797925912861e-05

> <i_epik_Tot_Q>
2

> <i_epik_Tot_abs_Q>
2

> <s_epik_Chemistry_Notes>
This compound has an imine and may undergo hydrolysis.

$$$$
