1okx_ligand
                    3D
 Schrodinger Suite 2020-3.
134136  0  0  1  0            999 V2000
  109.8950  -16.4450   13.0660 C   0  0  0  0  0  0
  108.5890  -17.1710   13.3750 C   0  0  0  0  0  0
  107.5410  -16.2120   13.9340 C   0  0  0  0  0  0
  106.3000  -17.0010   14.3220 C   0  0  0  0  0  0
  105.3210  -17.0610   13.5710 O   0  0  0  0  0  0
  106.3730  -17.6040   15.5090 N   0  0  0  0  0  0
  105.2740  -18.4250   16.0180 C   0  0  2  0  0  0
  104.6250  -17.7830   17.2380 C   0  0  0  0  0  0
  105.2560  -17.0750   18.0200 O   0  0  0  0  0  0
  105.8110  -19.8040   16.4060 C   0  0  0  0  0  0
  103.3410  -18.0600   17.3490 N   0  0  0  0  0  0
  102.5080  -17.5880   18.4470 C   0  0  2  0  0  0
  101.5450  -18.7320   18.7850 C   0  0  0  0  0  0
  100.9110  -19.2930   17.8940 O   0  0  0  0  0  0
  101.7570  -16.3010   18.0460 C   0  0  2  0  0  0
  100.9450  -15.8600   19.1340 O   0  0  0  0  0  0
  100.9080  -16.4980   16.7770 C   0  0  0  0  0  0
  101.4990  -19.0730   20.0790 N   0  0  0  0  0  0
  100.6410  -20.1580   20.6110 C   0  0  2  0  0  0
   99.1520  -19.8320   20.4200 C   0  0  0  0  0  0
   98.7710  -18.6640   20.3740 O   0  0  0  0  0  0
  100.9930  -20.3900   22.0840 C   0  0  2  0  0  0
  101.1700  -19.1440   22.7940 O   0  0  0  0  0  0
  102.3000  -21.1790   22.1630 C   0  0  0  0  0  0
   98.3410  -20.8970   20.3090 N   0  0  0  0  0  0
   96.8850  -20.7590   20.0920 C   0  0  2  0  0  0
   96.0930  -20.8790   21.4000 C   0  0  0  0  0  0
   95.0290  -21.5050   21.4340 O   0  0  0  0  0  0
   96.3810  -21.8230   19.1110 C   0  0  0  0  0  0
   96.9770  -21.6210   17.7200 C   0  0  0  0  0  0
   96.4330  -22.6820   16.7610 C   0  0  0  0  0  0
   96.6660  -20.2200   17.1770 C   0  0  0  0  0  0
   96.6210  -20.2670   22.4550 N   0  0  0  0  0  0
   95.9370  -20.2810   23.7540 C   0  0  2  0  0  0
   95.2960  -18.9070   24.0070 C   0  0  0  0  0  0
   94.7290  -18.3380   23.0760 O   0  0  0  0  0  0
   96.8940  -20.6590   24.8840 C   0  0  0  0  0  0
   96.2330  -20.3920   26.2410 C   0  0  0  0  0  0
   96.0770  -18.8810   26.4300 C   0  0  1  0  0  0
   97.3720  -18.2750   26.5670 O   0  0  0  0  0  0
   95.3600  -18.2650   25.2690 N   0  0  0  0  0  0
   94.6890  -16.9550   25.4170 C   0  0  1  0  0  0
   93.2850  -17.1500   25.9980 C   0  0  1  0  0  0
   92.3740  -17.8510   24.9950 C   0  0  0  0  0  0
   93.3620  -17.8970   27.2080 O   0  0  0  0  0  0
   95.5340  -16.0280   26.3050 C   0  0  0  0  0  0
   95.2870  -15.9110   27.5050 O   0  0  0  0  0  0
   96.5200  -15.3590   25.6720 N   0  0  0  0  0  0
   96.7360  -15.5040   24.2070 C   0  0  1  0  0  0
   96.3010  -14.2170   23.4890 C   0  0  0  0  0  0
   94.8080  -13.9890   23.6790 C   0  0  0  0  0  0
   93.9050  -14.5090   22.7430 C   0  0  0  0  0  0
   92.5280  -14.3670   22.9460 C   0  0  0  0  0  0
   91.4080  -15.0690   21.7690 Cl  0  0  0  0  0  0
   92.0460  -13.6950   24.0860 C   0  0  0  0  0  0
   90.7080  -13.5520   24.2850 O   0  0  0  0  0  0
   92.9500  -13.1690   25.0220 C   0  0  0  0  0  0
   94.3330  -13.3160   24.8180 C   0  0  0  0  0  0
   98.1920  -15.8300   23.8650 C   0  0  0  0  0  0
   98.8380  -15.1160   23.1010 O   0  0  0  0  0  0
   98.6750  -16.9230   24.4300 N   0  0  0  0  0  0
  100.0550  -17.3640   24.1860 C   0  0  2  0  0  0
  100.0180  -18.6440   23.3380 C   0  0  0  0  0  0
   98.9010  -19.1830   23.1530 O   0  0  0  0  0  0
  100.7600  -17.6200   25.5350 C   0  0  0  0  0  0
  100.8000  -16.3430   26.3680 C   0  0  0  0  0  0
  102.1860  -18.1420   25.3400 C   0  0  0  0  0  0
  110.6272  -17.1618   12.6660 H   0  0  0  0  0  0
  110.2902  -15.9930   13.9877 H   0  0  0  0  0  0
  109.7091  -15.6568   12.3216 H   0  0  0  0  0  0
  108.1938  -17.6230   12.4533 H   0  0  0  0  0  0
  108.7749  -17.9592   14.1194 H   0  0  0  0  0  0
  107.9466  -15.7015   14.8199 H   0  0  0  0  0  0
  107.2807  -15.4664   13.1683 H   0  0  0  0  0  0
  107.2855  -17.4732   16.1092 H   0  0  0  0  0  0
  104.5402  -18.4875   15.2009 H   0  0  0  0  0  0
  106.2814  -20.2741   15.5298 H   0  0  0  0  0  0
  104.9816  -20.4343   16.7593 H   0  0  0  0  0  0
  106.5561  -19.6950   17.2078 H   0  0  0  0  0  0
  102.9033  -18.6828   16.5550 H   0  0  0  0  0  0
  103.1566  -17.3458   19.3018 H   0  0  0  0  0  0
  102.4712  -15.4824   17.8733 H   0  0  0  0  0  0
  101.3991  -15.6712   20.1179 H   0  0  0  0  0  0
  101.5532  -16.8373   15.9532 H   0  0  0  0  0  0
  100.4330  -15.5447   16.5020 H   0  0  0  0  0  0
  100.1312  -17.2528   16.9691 H   0  0  0  0  0  0
  102.1444  -18.4984   20.7596 H   0  0  0  0  0  0
  100.8564  -21.0682   20.0320 H   0  0  0  0  0  0
  100.1580  -20.8982   22.5885 H   0  0  0  0  0  0
  102.1854  -22.1329   21.6273 H   0  0  0  0  0  0
  102.5453  -21.3775   23.2168 H   0  0  0  0  0  0
  103.1096  -20.5944   21.7018 H   0  0  0  0  0  0
   98.7935  -21.8968   20.3847 H   0  0  0  0  0  0
   96.7626  -19.7481   19.6760 H   0  0  0  0  0  0
   96.6681  -22.8211   19.4733 H   0  0  0  0  0  0
   95.2854  -21.7618   19.0347 H   0  0  0  0  0  0
   98.0689  -21.7248   17.8035 H   0  0  0  0  0  0
   96.6591  -23.6835   17.1558 H   0  0  0  0  0  0
   96.9051  -22.5614   15.7748 H   0  0  0  0  0  0
   95.3438  -22.5638   16.6630 H   0  0  0  0  0  0
   97.0595  -19.4623   17.8706 H   0  0  0  0  0  0
   95.5771  -20.0979   17.0797 H   0  0  0  0  0  0
   97.1385  -20.0955   16.1915 H   0  0  0  0  0  0
   97.5832  -19.7453   22.3457 H   0  0  0  0  0  0
   95.1644  -21.0613   23.6891 H   0  0  0  0  0  0
   97.1472  -21.7268   24.8083 H   0  0  0  0  0  0
   97.8118  -20.0580   24.8037 H   0  0  0  0  0  0
   95.2443  -20.8735   26.2683 H   0  0  0  0  0  0
   96.8634  -20.8032   27.0432 H   0  0  0  0  0  0
   95.5190  -18.6613   27.3522 H   0  0  0  0  0  0
   98.0491  -18.6000   27.3707 H   0  0  0  0  0  0
   94.6038  -16.5154   24.4123 H   0  0  0  0  0  0
   92.8454  -16.1838   26.2864 H   0  0  0  0  0  0
   92.3265  -17.2608   24.0680 H   0  0  0  0  0  0
   91.3644  -17.9464   25.4211 H   0  0  0  0  0  0
   92.7743  -18.8512   24.7728 H   0  0  0  0  0  0
   93.9798  -17.5316   28.0416 H   0  0  0  0  0  0
   97.1709  -14.6961   26.2610 H   0  0  0  0  0  0
   96.1153  -16.3568   23.8947 H   0  0  0  0  0  0
   96.8521  -13.3608   23.9052 H   0  0  0  0  0  0
   96.5181  -14.3054   22.4143 H   0  0  0  0  0  0
   94.2750  -15.0242   21.8566 H   0  0  0  0  0  0
   89.9962  -13.9628   23.5538 H   0  0  0  0  0  0
   92.5805  -12.6477   25.9051 H   0  0  0  0  0  0
   95.0372  -12.9081   25.5431 H   0  0  0  0  0  0
   98.0206  -17.5061   25.0947 H   0  0  0  0  0  0
  100.5759  -16.5630   23.6410 H   0  0  0  0  0  0
  100.1833  -18.3862   26.0738 H   0  0  0  0  0  0
   99.7766  -15.9655   26.5098 H   0  0  0  0  0  0
  101.4019  -15.5840   25.8468 H   0  0  0  0  0  0
  101.2504  -16.5586   27.3481 H   0  0  0  0  0  0
  102.1603  -19.0632   24.7394 H   0  0  0  0  0  0
  102.6354  -18.3562   26.3209 H   0  0  0  0  0  0
  102.7868  -17.3816   24.8196 H   0  0  0  0  0  0
  1  2  1  0  0  0
  1 68  1  0  0  0
  1 69  1  0  0  0
  1 70  1  0  0  0
  2  3  1  0  0  0
  2 71  1  0  0  0
  2 72  1  0  0  0
  3  4  1  0  0  0
  3 73  1  0  0  0
  3 74  1  0  0  0
  4  5  2  0  0  0
  4  6  1  0  0  0
  6  7  1  0  0  0
  6 75  1  0  0  0
  7  8  1  0  0  0
  7 10  1  0  0  0
  7 76  1  0  0  0
  8  9  2  0  0  0
  8 11  1  0  0  0
 10 77  1  0  0  0
 10 78  1  0  0  0
 10 79  1  0  0  0
 11 12  1  0  0  0
 11 80  1  0  0  0
 12 13  1  0  0  0
 12 15  1  0  0  0
 12 81  1  0  0  0
 13 14  2  0  0  0
 13 18  1  0  0  0
 15 16  1  0  0  0
 15 17  1  0  0  0
 15 82  1  0  0  0
 16 83  1  0  0  0
 17 84  1  0  0  0
 17 85  1  0  0  0
 17 86  1  0  0  0
 18 19  1  0  0  0
 18 87  1  0  0  0
 19 20  1  0  0  0
 19 22  1  0  0  0
 19 88  1  0  0  0
 20 21  2  0  0  0
 20 25  1  0  0  0
 22 23  1  0  0  0
 22 24  1  0  0  0
 22 89  1  0  0  0
 23 63  1  0  0  0
 24 90  1  0  0  0
 24 91  1  0  0  0
 24 92  1  0  0  0
 25 26  1  0  0  0
 25 93  1  0  0  0
 26 27  1  0  0  0
 26 29  1  0  0  0
 26 94  1  0  0  0
 27 28  2  0  0  0
 27 33  1  0  0  0
 29 30  1  0  0  0
 29 95  1  0  0  0
 29 96  1  0  0  0
 30 31  1  0  0  0
 30 32  1  0  0  0
 30 97  1  0  0  0
 31 98  1  0  0  0
 31 99  1  0  0  0
 31100  1  0  0  0
 32101  1  0  0  0
 32102  1  0  0  0
 32103  1  0  0  0
 33 34  1  0  0  0
 33104  1  0  0  0
 34 35  1  0  0  0
 34 37  1  0  0  0
 34105  1  0  0  0
 35 36  2  0  0  0
 35 41  1  0  0  0
 37 38  1  0  0  0
 37106  1  0  0  0
 37107  1  0  0  0
 38 39  1  0  0  0
 38108  1  0  0  0
 38109  1  0  0  0
 39 40  1  0  0  0
 39 41  1  0  0  0
 39110  1  0  0  0
 40111  1  0  0  0
 41 42  1  0  0  0
 42 43  1  0  0  0
 42 46  1  0  0  0
 42112  1  0  0  0
 43 44  1  0  0  0
 43 45  1  0  0  0
 43113  1  0  0  0
 44114  1  0  0  0
 44115  1  0  0  0
 44116  1  0  0  0
 45117  1  0  0  0
 46 47  2  0  0  0
 46 48  1  0  0  0
 48 49  1  0  0  0
 48118  1  0  0  0
 49 50  1  0  0  0
 49 59  1  0  0  0
 49119  1  0  0  0
 50 51  1  0  0  0
 50120  1  0  0  0
 50121  1  0  0  0
 51 52  2  0  0  0
 51 58  1  0  0  0
 52 53  1  0  0  0
 52122  1  0  0  0
 53 54  1  0  0  0
 53 55  2  0  0  0
 55 56  1  0  0  0
 55 57  1  0  0  0
 56123  1  0  0  0
 57 58  2  0  0  0
 57124  1  0  0  0
 58125  1  0  0  0
 59 60  2  0  0  0
 59 61  1  0  0  0
 61 62  1  0  0  0
 61126  1  0  0  0
 62 63  1  0  0  0
 62 65  1  0  0  0
 62127  1  0  0  0
 63 64  2  0  0  0
 65 66  1  0  0  0
 65 67  1  0  0  0
 65128  1  0  0  0
 66129  1  0  0  0
 66130  1  0  0  0
 66131  1  0  0  0
 67132  1  0  0  0
 67133  1  0  0  0
 67134  1  0  0  0
M  END
> <s_m_source_file>
../1okx_ligand.sdf

> <i_m_source_file_index>
1

> <s_epik_input>
W0NIM11bQ0gyXVtDSDJdQyg9TylbTkhdW0NAQEhdKFtDSDNdKUMoPU8pW05IXVtDQEBIXShbQ0BIXShbT0hdKVtDSDNdKUMoPU8pW05IXVtDQEhdKEMoPU8pW05IXVtDQEhdKEMoPU8pW05IXVtDQEhdMTIpW0NIMl1bQ0hdKFtDSDNdKVtDSDNdKVtDQEBIXShbQ0gzXSlPQyg9TylbQ0BIXShbQ0hdKFtDSDNdKVtDSDNdKVtOSF1DKD1PKVtDQEBIXShbTkhdQyg9TylbQ0BIXShbQ0BASF0oW0NIM10pW09IXSlOKEMxPU8pW0NASF0oW09IXSlbQ0gyXVtDSDJdMilbQ0gyXWMzW2NIXWMoQ2wpYyhbT0hdKVtjSF1bY0hdMw==

> <s_epik_cmdline>
J2VwaWtfYXBwJywgJy1pbWFlJywgJ2xpZ2FuZF9wcm8ubWFlJywgJy1vbWFlJywgJ2xpZ2FuZF9wcmVwLm1hZScsICctbXMnLCAnMScsICctcGgnLCAnNycsICctcGh0JywgJzAuNScsICctbnQn

> <r_lp_tautomer_probability>
0.999999999997365

> <r_epik_Ionization_Penalty>
  0.0223

> <r_epik_Ionization_Penalty_Charging>
  0.0000

> <r_epik_Ionization_Penalty_Neutral>
  0.0223

> <r_epik_State_Penalty>
  0.0179

> <r_epik_Charging_Adjusted_Penalty>
0.0179216379968958

> <i_epik_Tot_Q>
0

> <i_epik_Tot_abs_Q>
0

> <s_epik_Chemistry_Notes>
This compound has an ester and may undergo hydrolysis at high or low pH. This compound contains an acetal/aminal-like group ( X-CH(R)-Y where X, Y are N, S, or O) that may be acid/base labile, releasing an aldehyde.

$$$$
