1oky_ligand
                    3D
 Schrodinger Suite 2020-3.
 60 67  0  0  1  0            999 V2000
   79.0350   16.3860   11.2820 C   0  0  0  0  0  0
   77.8990   17.1580   10.9460 C   0  0  0  0  0  0
   77.9010   18.5690   11.1480 C   0  0  0  0  0  0
   79.0390   19.2190   11.6900 C   0  0  0  0  0  0
   80.1720   18.4500   12.0230 C   0  0  0  0  0  0
   81.4560   18.6890   12.5280 N   0  0  0  0  0  0
   82.1620   17.5250   12.6060 C   0  0  0  0  0  0
   83.5010   17.2790   12.9720 C   0  0  0  0  0  0
   84.4620   18.1500   13.3760 N   0  0  0  0  0  0
   85.6630   17.4770   13.5610 C   0  0  0  0  0  0
   86.9680   17.8380   13.9420 C   0  0  0  0  0  0
   87.9610   16.8310   14.0070 C   0  0  0  0  0  0
   87.6450   15.4760   13.6890 C   0  0  0  0  0  0
   86.3290   15.1170   13.3060 C   0  0  0  0  0  0
   85.3640   16.1270   13.2480 C   0  0  0  0  0  0
   84.0490   16.0220   12.8990 C   0  0  0  0  0  0
   83.2170   14.9360   12.4400 C   0  0  0  0  0  0
   83.4570   13.6030   12.2610 C   0  0  0  0  0  0
   82.2810   13.0800   11.7860 N   0  0  0  0  0  0
   81.3250   14.0980   11.6890 C   0  0  0  0  0  0
   81.9340   15.2170   12.0980 C   0  0  0  0  0  0
   81.3610   16.5220   12.1640 C   0  0  0  0  0  0
   80.1540   17.0530   11.8120 C   0  0  0  0  0  0
   81.9390   19.9300   12.8720 C   0  0  2  0  0  0
   82.5570   20.6210   11.6100 C   0  0  1  0  0  0
   83.7480   21.4550   12.0550 C   0  0  1  0  0  0
   84.8470   20.5230   12.5590 C   0  0  0  0  0  0
   84.2780   19.5950   13.6580 C   0  0  1  0  0  0
   82.8890   19.8450   13.9800 O   0  0  0  0  0  0
   84.4930   12.9810   12.5040 O   0  0  0  0  0  0
   84.2510   22.2420   10.9160 N   0  3  0  0  0  0
   83.7160   23.5440   10.4810 C   0  0  0  0  0  0
   83.0910   19.6450   10.6910 O   0  0  0  0  0  0
   82.1780   19.4040    9.6140 C   0  0  0  0  0  0
   80.7910   20.8240   13.4030 C   0  0  0  0  0  0
   79.0432   15.3060   11.1346 H   0  0  0  0  0  0
   77.0168   16.6713   10.5302 H   0  0  0  0  0  0
   77.0199   19.1537   10.8835 H   0  0  0  0  0  0
   79.0373   20.2977   11.8467 H   0  0  0  0  0  0
   87.2101   18.8732   14.1826 H   0  0  0  0  0  0
   88.9768   17.0931   14.3028 H   0  0  0  0  0  0
   88.4211   14.7124   13.7411 H   0  0  0  0  0  0
   86.0766   14.0846   13.0639 H   0  0  0  0  0  0
   80.3113   13.8681   11.3289 H   0  0  0  0  0  0
   81.7930   21.1959   11.0662 H   0  0  0  0  0  0
   83.4495   22.1661   12.8394 H   0  0  0  0  0  0
   85.2219   19.9130   11.7240 H   0  0  0  0  0  0
   85.6714   21.1200   12.9760 H   0  0  0  0  0  0
   84.8316   19.8274   14.5797 H   0  0  0  0  0  0
   85.3093   22.4920   11.0819 H   0  0  0  0  0  0
   84.1539   21.6531    9.9920 H   0  0  0  0  0  0
   84.2820   23.8996    9.6073 H   0  0  0  0  0  0
   83.8110   24.2717   11.3004 H   0  0  0  0  0  0
   82.6556   23.4328   10.2105 H   0  0  0  0  0  0
   82.6076   18.6581    8.9291 H   0  0  0  0  0  0
   81.9986   20.3422    9.0685 H   0  0  0  0  0  0
   81.2267   19.0266   10.0173 H   0  0  0  0  0  0
   80.0252   20.9399   12.6219 H   0  0  0  0  0  0
   81.1911   21.8122   13.6737 H   0  0  0  0  0  0
   80.3414   20.3547   14.2905 H   0  0  0  0  0  0
  1  2  2  0  0  0
  1 23  1  0  0  0
  1 36  1  0  0  0
  2  3  1  0  0  0
  2 37  1  0  0  0
  3  4  2  0  0  0
  3 38  1  0  0  0
  4  5  1  0  0  0
  4 39  1  0  0  0
  5  6  1  0  0  0
  5 23  2  0  0  0
  6  7  1  0  0  0
  6 24  1  0  0  0
  7  8  1  0  0  0
  7 22  2  0  0  0
  8  9  1  0  0  0
  8 16  2  0  0  0
  9 10  1  0  0  0
  9 28  1  0  0  0
 10 11  1  0  0  0
 10 15  2  0  0  0
 11 12  2  0  0  0
 11 40  1  0  0  0
 12 13  1  0  0  0
 12 41  1  0  0  0
 13 14  2  0  0  0
 13 42  1  0  0  0
 14 15  1  0  0  0
 14 43  1  0  0  0
 15 16  1  0  0  0
 16 17  1  0  0  0
 17 18  1  0  0  0
 17 21  2  0  0  0
 18 19  1  0  0  0
 18 30  2  0  0  0
 19 20  2  0  0  0
 20 21  1  0  0  0
 20 44  1  0  0  0
 21 22  1  0  0  0
 22 23  1  0  0  0
 24 25  1  0  0  0
 24 29  1  0  0  0
 24 35  1  0  0  0
 25 26  1  0  0  0
 25 33  1  0  0  0
 25 45  1  0  0  0
 26 27  1  0  0  0
 26 31  1  0  0  0
 26 46  1  0  0  0
 27 28  1  0  0  0
 27 47  1  0  0  0
 27 48  1  0  0  0
 28 29  1  0  0  0
 28 49  1  0  0  0
 31 32  1  0  0  0
 31 50  1  0  0  0
 31 51  1  0  0  0
 32 52  1  0  0  0
 32 53  1  0  0  0
 32 54  1  0  0  0
 33 34  1  0  0  0
 34 55  1  0  0  0
 34 56  1  0  0  0
 34 57  1  0  0  0
 35 58  1  0  0  0
 35 59  1  0  0  0
 35 60  1  0  0  0
M  CHG  1  31   1
M  END
> <s_m_source_file>
../1oky_ligand.sdf

> <i_m_source_file_index>
1

> <s_epik_input>
W2NIXTFbY0hdW2NIXVtjSF1jKGMxbjJbQ0BdMzRbQ0gzXSljNWMyYzZuKFtDQEhdKE80KVtDSDJdW0NAQEhdKFtOSDIrXVtDSDNdKVtDQEhdM09bQ0gzXSljN2MoW2NIXVtjSF1bY0hdW2NIXTcpYzZjOGM1W0NIXT1OQzg9Tw==

> <s_epik_cmdline>
J2VwaWtfYXBwJywgJy1pbWFlJywgJ2xpZ2FuZF9wcm8ubWFlJywgJy1vbWFlJywgJ2xpZ2FuZF9wcmVwLm1hZScsICctbXMnLCAnMScsICctcGgnLCAnNycsICctcGh0JywgJzAuNScsICctbnQn

> <r_epik_Ionization_Penalty>
  0.0560

> <r_epik_Ionization_Penalty_Charging>
  0.0560

> <r_epik_Ionization_Penalty_Neutral>
  0.0000

> <r_epik_State_Penalty>
  0.0482

> <r_epik_Charging_Adjusted_Penalty>
0.104192696511962

> <i_epik_Tot_Q>
1

> <i_epik_Tot_abs_Q>
1

> <s_epik_Chemistry_Notes>
This compound has an imine and may undergo hydrolysis. This compound contains an acetal/aminal-like group ( X-CH(R)-Y where X, Y are N, S, or O) that may be acid/base labile, releasing an aldehyde.

$$$$
