1okz_ligand
                    3D
 Schrodinger Suite 2020-3.
 63 70  0  0  1  0            999 V2000
   80.9020   13.8910   10.2140 O   0  0  0  0  0  0
   81.1280   13.7990   11.6220 C   0  0  1  0  0  0
   82.2770   12.9040   11.8560 N   0  0  0  0  0  0
   83.4030   13.4720   12.2900 C   0  0  0  0  0  0
   84.4710   12.8950   12.4800 O   0  0  0  0  0  0
   83.1300   14.8290   12.4390 C   0  0  0  0  0  0
   83.9320   15.8670   12.9040 C   0  0  0  0  0  0
   85.2640   15.9880   13.2780 C   0  0  0  0  0  0
   85.5230   17.3170   13.6100 C   0  0  0  0  0  0
   86.8070   17.6820   14.0000 C   0  0  0  0  0  0
   87.8030   16.7080   14.0470 C   0  0  0  0  0  0
   87.5260   15.3840   13.7140 C   0  0  0  0  0  0
   86.2440   15.0030   13.3240 C   0  0  0  0  0  0
   84.3650   17.9640   13.4380 N   0  0  0  0  0  0
   83.4040   17.1440   13.0140 C   0  0  0  0  0  0
   82.0830   17.4070   12.6570 C   0  0  0  0  0  0
   81.3980   18.5470   12.5510 N   0  0  0  0  0  0
   80.1850   18.3440   12.0140 C   0  0  0  0  0  0
   80.1070   16.9730   11.7830 C   0  0  0  0  0  0
   78.9990   16.3660   11.1960 C   0  0  0  0  0  0
   77.9300   17.1800   10.8300 C   0  0  0  0  0  0
   77.9880   18.5550   11.0530 C   0  0  0  0  0  0
   79.1070   19.1410   11.6430 C   0  0  0  0  0  0
   81.2900   16.3770   12.1870 C   0  0  0  0  0  0
   81.8110   15.0870   12.0830 C   0  0  0  0  0  0
   81.8530   19.7470   12.9370 C   0  0  1  0  0  0
   82.7900   19.6320   14.0170 O   0  0  0  0  0  0
   84.1780   19.4050   13.7150 C   0  0  2  0  0  0
   84.7390   20.2940   12.6000 C   0  0  0  0  0  0
   83.6610   21.2910   12.1770 C   0  0  1  0  0  0
   84.1710   22.1330   11.0850 N   0  3  0  0  0  0
   83.6830   23.4790   10.7510 C   0  0  0  0  0  0
   82.4190   20.5120   11.7330 C   0  0  1  0  0  0
   82.8350   19.5730   10.7300 O   0  0  0  0  0  0
   82.2230   19.8780    9.4730 C   0  0  0  0  0  0
   80.7320   20.6110   13.5240 C   0  0  0  0  0  0
   80.4166   13.0611    9.6795 H   0  0  0  0  0  0
   80.1589   13.5063   12.0523 H   0  0  0  0  0  0
   82.1792   11.8239   11.6723 H   0  0  0  0  0  0
   87.0314   18.7152   14.2652 H   0  0  0  0  0  0
   88.8128   16.9862   14.3486 H   0  0  0  0  0  0
   88.3202   14.6388   13.7590 H   0  0  0  0  0  0
   86.0173   13.9690   13.0641 H   0  0  0  0  0  0
   78.9697   15.2893   11.0287 H   0  0  0  0  0  0
   77.0457   16.7410   10.3680 H   0  0  0  0  0  0
   77.1452   19.1817   10.7615 H   0  0  0  0  0  0
   79.1370   20.2173   11.8126 H   0  0  0  0  0  0
   84.7174   19.6789   14.6337 H   0  0  0  0  0  0
   85.6221   20.8346   12.9714 H   0  0  0  0  0  0
   85.0261   19.6686   11.7419 H   0  0  0  0  0  0
   83.4062   21.9789   12.9967 H   0  0  0  0  0  0
   85.2417   22.3296   11.2430 H   0  0  0  0  0  0
   84.0313   21.6135   10.1255 H   0  0  0  0  0  0
   84.2459   23.8701    9.8907 H   0  0  0  0  0  0
   83.8242   24.1450   11.6150 H   0  0  0  0  0  0
   82.6138   23.4289   10.4975 H   0  0  0  0  0  0
   81.6538   21.1602   11.2810 H   0  0  0  0  0  0
   82.5530   19.1492    8.7181 H   0  0  0  0  0  0
   82.5166   20.8903    9.1583 H   0  0  0  0  0  0
   81.1290   19.8290    9.5764 H   0  0  0  0  0  0
   80.2935   20.1009   14.3944 H   0  0  0  0  0  0
   79.9546   20.7702   12.7622 H   0  0  0  0  0  0
   81.1432   21.5821   13.8368 H   0  0  0  0  0  0
  1  2  1  0  0  0
  1 37  1  0  0  0
  2  3  1  0  0  0
  2 25  1  0  0  0
  2 38  1  0  0  0
  3  4  1  0  0  0
  3 39  1  0  0  0
  4  5  2  0  0  0
  4  6  1  0  0  0
  6  7  2  0  0  0
  6 25  1  0  0  0
  7  8  1  0  0  0
  7 15  1  0  0  0
  8  9  2  0  0  0
  8 13  1  0  0  0
  9 10  1  0  0  0
  9 14  1  0  0  0
 10 11  2  0  0  0
 10 40  1  0  0  0
 11 12  1  0  0  0
 11 41  1  0  0  0
 12 13  2  0  0  0
 12 42  1  0  0  0
 13 43  1  0  0  0
 14 15  1  0  0  0
 14 28  1  0  0  0
 15 16  2  0  0  0
 16 17  1  0  0  0
 16 24  1  0  0  0
 17 18  1  0  0  0
 17 26  1  0  0  0
 18 19  2  0  0  0
 18 23  1  0  0  0
 19 20  1  0  0  0
 19 24  1  0  0  0
 20 21  2  0  0  0
 20 44  1  0  0  0
 21 22  1  0  0  0
 21 45  1  0  0  0
 22 23  2  0  0  0
 22 46  1  0  0  0
 23 47  1  0  0  0
 24 25  2  0  0  0
 26 27  1  0  0  0
 26 33  1  0  0  0
 26 36  1  0  0  0
 27 28  1  0  0  0
 28 29  1  0  0  0
 28 48  1  0  0  0
 29 30  1  0  0  0
 29 49  1  0  0  0
 29 50  1  0  0  0
 30 31  1  0  0  0
 30 33  1  0  0  0
 30 51  1  0  0  0
 31 32  1  0  0  0
 31 52  1  0  0  0
 31 53  1  0  0  0
 32 54  1  0  0  0
 32 55  1  0  0  0
 32 56  1  0  0  0
 33 34  1  0  0  0
 33 57  1  0  0  0
 34 35  1  0  0  0
 35 58  1  0  0  0
 35 59  1  0  0  0
 35 60  1  0  0  0
 36 61  1  0  0  0
 36 62  1  0  0  0
 36 63  1  0  0  0
M  CHG  1  31   1
M  END
> <s_m_source_file>
../1okz_ligand.sdf

> <i_m_source_file_index>
1

> <s_epik_input>
W2NIXTFbY0hdW2NIXVtjSF1jMmMxYzNjKFtDQEBIXShbT0hdKVtOSF1DND1PKWM0YyhjNWMzbjJbQ0BAXTY3W0NIM10pYzhjKFtjSF1bY0hdW2NIXVtjSF04KW41W0NASF0oTzYpW0NIMl1bQ0BASF0oW05IMitdW0NIM10pW0NASF03T1tDSDNd

> <s_epik_cmdline>
J2VwaWtfYXBwJywgJy1pbWFlJywgJ2xpZ2FuZF9wcm8ubWFlJywgJy1vbWFlJywgJ2xpZ2FuZF9wcmVwLm1hZScsICctbXMnLCAnMScsICctcGgnLCAnNycsICctcGh0JywgJzAuNScsICctbnQn

> <r_epik_Ionization_Penalty>
  0.0560

> <r_epik_Ionization_Penalty_Charging>
  0.0560

> <r_epik_Ionization_Penalty_Neutral>
  0.0000

> <r_epik_State_Penalty>
  0.0482

> <r_epik_Charging_Adjusted_Penalty>
0.104192696511962

> <i_epik_Tot_Q>
1

> <i_epik_Tot_abs_Q>
1

> <s_epik_Chemistry_Notes>
This compound contains an acetal/aminal-like group ( X-CH(R)-Y where X, Y are N, S, or O) that may be acid/base labile, releasing an aldehyde.

$$$$
