1ol1_ligand
                    3D
 Schrodinger Suite 2020-3.
105105  0  0  1  0            999 V2000
   37.8950   21.4840   -0.0820 C   0  0  0  0  0  0
   37.6060   22.6550   -0.2140 O   0  0  0  0  0  0
   37.4010   20.5650   -1.1670 C   0  0  1  0  0  0
   36.0780   19.9830   -0.9450 N   0  3  0  0  0  0
   37.3790   21.3260   -2.4640 C   0  0  0  0  0  0
   38.5060   21.4140   -3.1960 C   0  0  0  0  0  0
   38.4590   21.3880   -4.5460 C   0  0  0  0  0  0
   39.0650   22.3230   -5.2860 N   0  0  0  0  0  0
   40.3910   22.2990   -5.3970 C   0  0  0  0  0  0
   40.9960   21.2480   -5.5600 O   0  0  0  0  0  0
   41.0180   23.4750   -5.3010 N   0  0  0  0  0  0
   40.2540   22.5420    1.1150 C   0  0  0  0  0  0
   41.0380   21.8020    0.5530 O   0  0  0  0  0  0
   39.1760   21.9110    1.9100 C   0  0  1  0  0  0
   38.5470   20.9940    0.9870 N   0  0  0  0  0  0
   39.7470   21.2580    3.1430 C   0  0  0  0  0  0
   40.6430   22.0980    4.0350 C   0  0  0  0  0  0
   41.1510   21.3290    5.2610 C   0  0  0  0  0  0
   39.9750   20.9440    6.0360 N   0  0  0  0  0  0
   39.3850   21.7520    6.9320 C   0  0  0  0  0  0
   38.5060   21.3370    7.7000 O   0  0  0  0  0  0
   39.7850   23.0270    6.9570 N   0  0  0  0  0  0
   40.2790   23.8620    1.0630 N   0  0  0  0  0  0
   41.4660   24.5470    0.5840 C   0  0  2  0  0  0
   42.4910   24.6770    1.6570 C   0  0  0  0  0  0
   42.1880   25.4010    2.5940 O   0  0  0  0  0  0
   40.9690   25.9160    0.1310 C   0  0  0  0  0  0
   39.8530   25.7640   -0.9060 C   0  0  0  0  0  0
   39.1160   27.0800   -1.0860 C   0  0  0  0  0  0
   40.3190   25.2990   -2.2860 C   0  0  0  0  0  0
   43.6340   23.9740    1.5450 N   0  0  0  0  0  0
   44.7330   24.2110    2.4860 C   0  0  2  0  0  0
   45.5980   25.2740    1.9190 C   0  0  0  0  0  0
   45.7650   25.2490    0.7270 O   0  0  0  0  0  0
   45.5620   22.9460    2.7450 C   0  0  2  0  0  0
   44.8170   21.6890    2.2980 C   0  0  0  0  0  0
   45.9760   22.8340    4.2230 C   0  0  0  0  0  0
   44.1170   21.0120    3.4710 C   0  0  0  0  0  0
   46.0660   26.1870    2.7630 N   0  0  0  0  0  0
   46.6780   27.4100    2.2860 C   0  0  2  0  0  0
   48.0900   27.5090    2.7880 C   0  0  0  0  0  0
   49.0040   27.7110    1.9920 O   0  0  0  0  0  0
   45.7820   28.5180    2.8500 C   0  0  0  0  0  0
   44.5860   28.7860    1.9560 C   0  0  0  0  0  0
   43.3010   28.7210    2.4920 C   0  0  0  0  0  0
   44.7640   29.1350    0.6140 C   0  0  0  0  0  0
   42.1780   28.9780    1.6960 C   0  0  0  0  0  0
   43.6480   29.3900   -0.1910 C   0  0  0  0  0  0
   42.3540   29.3220    0.3540 C   0  0  0  0  0  0
   41.2630   29.5220   -0.4170 F   0  0  0  0  0  0
   48.3358   27.3857    4.0176 O   0  5  0  0  0  0
   38.0748   19.6956   -1.1749 H   0  0  0  0  0  0
   36.0782   19.4223    0.0014 H   0  0  0  0  0  0
   35.8328   19.3029   -1.7741 H   0  0  0  0  0  0
   35.3278   20.7860   -0.8953 H   0  0  0  0  0  0
   36.6465   20.8684   -3.1452 H   0  0  0  0  0  0
   37.0969   22.3715   -2.2709 H   0  0  0  0  0  0
   39.0137   22.3644   -2.9746 H   0  0  0  0  0  0
   39.1723   20.5753   -2.9456 H   0  0  0  0  0  0
   38.9070   20.4518   -4.9105 H   0  0  0  0  0  0
   37.4118   21.4469   -4.8777 H   0  0  0  0  0  0
   38.4682   23.0964   -5.7917 H   0  0  0  0  0  0
   40.4372   24.3976   -5.1546 H   0  0  0  0  0  0
   42.1150   23.5205   -5.3684 H   0  0  0  0  0  0
   38.4121   22.6142    2.2732 H   0  0  0  0  0  0
   38.6051   19.9098    1.1634 H   0  0  0  0  0  0
   38.9261   20.9212    3.7931 H   0  0  0  0  0  0
   40.3604   20.3934    2.8494 H   0  0  0  0  0  0
   41.5200   22.4336    3.4620 H   0  0  0  0  0  0
   40.0838   22.9738    4.3959 H   0  0  0  0  0  0
   41.7089   20.4402    4.9311 H   0  0  0  0  0  0
   41.8128   21.9784    5.8529 H   0  0  0  0  0  0
   39.5284   19.9480    5.8998 H   0  0  0  0  0  0
   40.5674   23.3716    6.2649 H   0  0  0  0  0  0
   39.3318   23.7317    7.6697 H   0  0  0  0  0  0
   39.4006   24.4419    1.3826 H   0  0  0  0  0  0
   41.9435   23.9572   -0.2123 H   0  0  0  0  0  0
   40.5789   26.4697    0.9977 H   0  0  0  0  0  0
   41.8010   26.4778   -0.3187 H   0  0  0  0  0  0
   39.1947   24.9826   -0.4985 H   0  0  0  0  0  0
   38.7671   27.4416   -0.1075 H   0  0  0  0  0  0
   38.2524   26.9287   -1.7503 H   0  0  0  0  0  0
   39.7949   27.8226   -1.5306 H   0  0  0  0  0  0
   40.8580   24.3450   -2.1888 H   0  0  0  0  0  0
   40.9884   26.0557   -2.7212 H   0  0  0  0  0  0
   39.4459   25.1618   -2.9408 H   0  0  0  0  0  0
   43.7439   23.2228    0.7490 H   0  0  0  0  0  0
   44.2821   24.5437    3.4326 H   0  0  0  0  0  0
   46.4752   23.0279    2.1372 H   0  0  0  0  0  0
   44.0594   21.9592    1.5476 H   0  0  0  0  0  0
   45.5306   20.9766    1.8585 H   0  0  0  0  0  0
   46.5099   23.7473    4.5244 H   0  0  0  0  0  0
   46.6356   21.9635    4.3540 H   0  0  0  0  0  0
   45.0784   22.7112    4.8469 H   0  0  0  0  0  0
   43.5919   20.1132    3.1154 H   0  0  0  0  0  0
   43.3914   21.7085    3.9165 H   0  0  0  0  0  0
   44.8627   20.7259    4.2274 H   0  0  0  0  0  0
   45.9815   25.9994    3.8436 H   0  0  0  0  0  0
   46.7463   27.4214    1.1882 H   0  0  0  0  0  0
   45.4115   28.2205    3.8421 H   0  0  0  0  0  0
   46.3617   29.4486    2.9390 H   0  0  0  0  0  0
   43.1686   28.4670    3.5437 H   0  0  0  0  0  0
   45.7681   29.2082    0.1963 H   0  0  0  0  0  0
   41.1760   28.9102    2.1198 H   0  0  0  0  0  0
   43.7824   29.6419   -1.2429 H   0  0  0  0  0  0
  1  2  2  0  0  0
  1  3  1  0  0  0
  1 15  1  0  0  0
  3  4  1  0  0  0
  3  5  1  0  0  0
  3 52  1  0  0  0
  4 53  1  0  0  0
  4 54  1  0  0  0
  4 55  1  0  0  0
  5  6  1  0  0  0
  5 56  1  0  0  0
  5 57  1  0  0  0
  6  7  1  0  0  0
  6 58  1  0  0  0
  6 59  1  0  0  0
  7  8  1  0  0  0
  7 60  1  0  0  0
  7 61  1  0  0  0
  8  9  1  0  0  0
  8 62  1  0  0  0
  9 10  2  0  0  0
  9 11  1  0  0  0
 11 63  1  0  0  0
 11 64  1  0  0  0
 12 13  2  0  0  0
 12 14  1  0  0  0
 12 23  1  0  0  0
 14 15  1  0  0  0
 14 16  1  0  0  0
 14 65  1  0  0  0
 15 66  1  0  0  0
 16 17  1  0  0  0
 16 67  1  0  0  0
 16 68  1  0  0  0
 17 18  1  0  0  0
 17 69  1  0  0  0
 17 70  1  0  0  0
 18 19  1  0  0  0
 18 71  1  0  0  0
 18 72  1  0  0  0
 19 20  1  0  0  0
 19 73  1  0  0  0
 20 21  2  0  0  0
 20 22  1  0  0  0
 22 74  1  0  0  0
 22 75  1  0  0  0
 23 24  1  0  0  0
 23 76  1  0  0  0
 24 25  1  0  0  0
 24 27  1  0  0  0
 24 77  1  0  0  0
 25 26  2  0  0  0
 25 31  1  0  0  0
 27 28  1  0  0  0
 27 78  1  0  0  0
 27 79  1  0  0  0
 28 29  1  0  0  0
 28 30  1  0  0  0
 28 80  1  0  0  0
 29 81  1  0  0  0
 29 82  1  0  0  0
 29 83  1  0  0  0
 30 84  1  0  0  0
 30 85  1  0  0  0
 30 86  1  0  0  0
 31 32  1  0  0  0
 31 87  1  0  0  0
 32 33  1  0  0  0
 32 35  1  0  0  0
 32 88  1  0  0  0
 33 34  2  0  0  0
 33 39  1  0  0  0
 35 36  1  0  0  0
 35 37  1  0  0  0
 35 89  1  0  0  0
 36 38  1  0  0  0
 36 90  1  0  0  0
 36 91  1  0  0  0
 37 92  1  0  0  0
 37 93  1  0  0  0
 37 94  1  0  0  0
 38 95  1  0  0  0
 38 96  1  0  0  0
 38 97  1  0  0  0
 39 40  1  0  0  0
 39 98  1  0  0  0
 40 41  1  0  0  0
 40 43  1  0  0  0
 40 99  1  0  0  0
 41 42  2  0  0  0
 41 51  1  0  0  0
 43 44  1  0  0  0
 43100  1  0  0  0
 43101  1  0  0  0
 44 45  2  0  0  0
 44 46  1  0  0  0
 45 47  1  0  0  0
 45102  1  0  0  0
 46 48  2  0  0  0
 46103  1  0  0  0
 47 49  2  0  0  0
 47104  1  0  0  0
 48 49  1  0  0  0
 48105  1  0  0  0
 49 50  1  0  0  0
M  CHG  2   4   1  51  -1
M  END
> <s_m_source_file>
../1ol1_ligand.sdf

> <i_m_source_file_index>
1

> <s_epik_input>
Tz1DKFtOSDJdKVtOSF1bQ0gyXVtDSDJdW0NIMl1bQ0BIXShbTkgzK10pQyg9TylbTkhdW0NAQEhdKFtDSDJdW0NIMl1bQ0gyXVtOSF1DKD1PKVtOSDJdKUMoPU8pW05IXVtDQEBIXShbQ0gyXVtDSF0oW0NIM10pW0NIM10pQyg9TylbTkhdW0NAQEhdKFtDQEBIXShbQ0gzXSlbQ0gyXVtDSDNdKUMoPU8pW05IXVtDQEhdKEMoPU8pW09IXSlbQ0gyXWMxW2NIXVtjSF1jKEYpW2NIXVtjSF0x

> <s_epik_cmdline>
J2VwaWtfYXBwJywgJy1pbWFlJywgJ2xpZ2FuZF9wcm8ubWFlJywgJy1vbWFlJywgJ2xpZ2FuZF9wcmVwLm1hZScsICctbXMnLCAnMScsICctcGgnLCAnNycsICctcGh0JywgJzAuNScsICctbnQn

> <r_epik_Ionization_Penalty>
  0.1175

> <r_epik_Ionization_Penalty_Charging>
  0.1174

> <r_epik_Ionization_Penalty_Neutral>
  0.0001

> <r_epik_State_Penalty>
  0.1068

> <r_epik_Charging_Adjusted_Penalty>
0.224155300530529

> <i_epik_Tot_Q>
0

> <i_epik_Tot_abs_Q>
2

$$$$
