1ol2_ligand
                    3D
 Schrodinger Suite 2020-3.
106106  0  0  1  0            999 V2000
   35.4900   20.8900   -1.4670 N   0  3  0  0  0  0
   36.8980   20.7850   -1.1240 C   0  0  2  0  0  0
   37.1980   21.7720   -0.0240 C   0  0  0  0  0  0
   36.6690   22.8740   -0.0620 O   0  0  0  0  0  0
   37.7280   20.7680   -2.4030 C   0  0  0  0  0  0
   38.3030   21.7770   -3.0600 C   0  0  0  0  0  0
   39.7790   21.7060   -3.4090 C   0  0  0  0  0  0
   40.0590   22.3590   -4.6860 N   0  0  0  0  0  0
   39.1810   22.5160   -5.6870 C   0  0  0  0  0  0
   39.3720   23.5090   -6.5660 N   0  3  0  0  0  0
   38.1000   21.7310   -5.8160 N   0  0  0  0  0  0
   37.9480   21.3600    1.0110 N   0  0  0  0  0  0
   38.5500   22.2930    1.9550 C   0  0  2  0  0  0
   39.7410   22.9040    1.2980 C   0  0  0  0  0  0
   40.5610   22.1250    0.8330 O   0  0  0  0  0  0
   38.9490   21.6250    3.2490 C   0  0  0  0  0  0
   38.8000   22.2640    4.4120 C   0  0  0  0  0  0
   39.9830   22.8420    5.1640 C   0  0  0  0  0  0
   41.0170   21.8370    5.4170 N   0  0  0  0  0  0
   42.3390   21.9900    5.2440 C   0  0  0  0  0  0
   43.1170   20.9930    4.7820 N   0  0  0  0  0  0
   42.8840   23.1730    5.5390 N   0  3  0  0  0  0
   39.8680   24.2350    1.2670 N   0  0  0  0  0  0
   41.0250   24.8540    0.6150 C   0  0  2  0  0  0
   42.2290   24.9760    1.5270 C   0  0  0  0  0  0
   42.1600   25.6200    2.5610 O   0  0  0  0  0  0
   40.6260   26.1330   -0.1070 C   0  0  0  0  0  0
   39.5170   26.0340   -1.1480 C   0  0  0  0  0  0
   38.8430   27.3650   -1.4590 C   0  0  0  0  0  0
   39.9420   25.3780   -2.4630 C   0  0  0  0  0  0
   43.3540   24.3270    1.1900 N   0  0  0  0  0  0
   44.6720   24.4850    1.8030 C   0  0  2  0  0  0
   45.2530   25.7680    1.3180 C   0  0  0  0  0  0
   45.5270   25.8930    0.1300 O   0  0  0  0  0  0
   45.6990   23.4470    1.3680 C   0  0  0  0  0  0
   46.9410   23.3680    1.9130 C   0  0  0  0  0  0
   47.1090   23.4670    3.1270 O   0  0  0  0  0  0
   47.9750   23.1230    1.0930 N   0  0  0  0  0  0
   45.4610   26.6840    2.2550 N   0  0  0  0  0  0
   46.1540   27.9190    1.9270 C   0  0  2  0  0  0
   47.5150   27.9050    2.5530 C   0  0  0  0  0  0
   48.4870   28.1060    1.8500 O   0  0  0  0  0  0
   45.3720   29.0870    2.4840 C   0  0  0  0  0  0
   44.0960   29.3760    1.8110 C   0  0  0  0  0  0
   42.9070   29.3080    2.5080 C   0  0  0  0  0  0
   44.0660   29.6420    0.4480 C   0  0  0  0  0  0
   41.7000   29.5170    1.8460 C   0  0  0  0  0  0
   42.8680   29.8820   -0.2120 C   0  0  0  0  0  0
   41.6780   29.8040    0.4900 C   0  0  0  0  0  0
   40.5090   29.9740   -0.1450 F   0  0  0  0  0  0
   47.5760   27.6520    3.8670 N   0  0  0  0  0  0
   34.8883   20.9025   -0.5463 H   0  0  0  0  0  0
   35.1977   20.0278   -2.0844 H   0  0  0  0  0  0
   35.3181   21.8192   -2.0301 H   0  0  0  0  0  0
   37.1472   19.8212   -0.6560 H   0  0  0  0  0  0
   38.6188   20.1401   -2.2537 H   0  0  0  0  0  0
   37.1245   20.3583   -3.2264 H   0  0  0  0  0  0
   37.8044   21.9138   -4.0309 H   0  0  0  0  0  0
   38.2118   22.6995   -2.4678 H   0  0  0  0  0  0
   40.3656   22.2077   -2.6253 H   0  0  0  0  0  0
   40.0885   20.6529   -3.4811 H   0  0  0  0  0  0
   41.0594   22.7704   -4.8857 H   0  0  0  0  0  0
   40.2525   24.1620   -6.4753 H   0  0  0  0  0  0
   37.9275   20.9111   -5.1033 H   0  0  0  0  0  0
   37.3866   21.9076   -6.6344 H   0  0  0  0  0  0
   38.1016   20.2777    1.1336 H   0  0  0  0  0  0
   37.7910   23.0535    2.1908 H   0  0  0  0  0  0
   38.3653   20.7019    3.3803 H   0  0  0  0  0  0
   40.0210   21.3800    3.2198 H   0  0  0  0  0  0
   38.1470   23.1376    4.2693 H   0  0  0  0  0  0
   38.3471   21.5841    5.1486 H   0  0  0  0  0  0
   40.4314   23.6545    4.5734 H   0  0  0  0  0  0
   39.6440   23.2370    6.1330 H   0  0  0  0  0  0
   40.7360   20.8399    5.7868 H   0  0  0  0  0  0
   42.6727   20.0168    4.5376 H   0  0  0  0  0  0
   44.1969   21.1546    4.6489 H   0  0  0  0  0  0
   42.2525   23.9906    5.9168 H   0  0  0  0  0  0
   39.0976   24.8657    1.7346 H   0  0  0  0  0  0
   41.3472   24.1383   -0.1557 H   0  0  0  0  0  0
   40.2726   26.8729    0.6262 H   0  0  0  0  0  0
   41.4961   26.5369   -0.6453 H   0  0  0  0  0  0
   38.7873   25.3773   -0.6517 H   0  0  0  0  0  0
   38.5325   27.8469   -0.5202 H   0  0  0  0  0  0
   37.9598   27.1899   -2.0909 H   0  0  0  0  0  0
   39.5503   28.0188   -1.9904 H   0  0  0  0  0  0
   40.4303   24.4153   -2.2515 H   0  0  0  0  0  0
   40.6459   26.0379   -2.9913 H   0  0  0  0  0  0
   39.0554   25.2091   -3.0918 H   0  0  0  0  0  0
   43.2139   23.6157    0.3627 H   0  0  0  0  0  0
   44.4679   24.4238    2.8822 H   0  0  0  0  0  0
   45.2977   22.4380    1.5440 H   0  0  0  0  0  0
   45.9170   23.5732    0.2972 H   0  0  0  0  0  0
   47.8089   23.0371    0.0090 H   0  0  0  0  0  0
   48.9884   23.0081    1.5050 H   0  0  0  0  0  0
   45.1079   26.5074    3.2817 H   0  0  0  0  0  0
   46.2366   27.9777    0.8317 H   0  0  0  0  0  0
   45.1286   28.8953    3.5395 H   0  0  0  0  0  0
   45.9765   30.0028    2.4076 H   0  0  0  0  0  0
   42.9127   29.0908    3.5761 H   0  0  0  0  0  0
   44.9999   29.6627   -0.1138 H   0  0  0  0  0  0
   40.7631   29.4543    2.3995 H   0  0  0  0  0  0
   42.8650   30.1296   -1.2735 H   0  0  0  0  0  0
   46.6514   27.4800    4.4375 H   0  0  0  0  0  0
   48.5507   27.6162    4.3755 H   0  0  0  0  0  0
   43.9644   23.3298    5.4042 H   0  0  0  0  0  0
   38.6483   23.6712   -7.3784 H   0  0  0  0  0  0
  1  2  1  0  0  0
  1 52  1  0  0  0
  1 53  1  0  0  0
  1 54  1  0  0  0
  2  3  1  0  0  0
  2  5  1  0  0  0
  2 55  1  0  0  0
  3  4  2  0  0  0
  3 12  1  0  0  0
  5  6  1  0  0  0
  5 56  1  0  0  0
  5 57  1  0  0  0
  6  7  1  0  0  0
  6 58  1  0  0  0
  6 59  1  0  0  0
  7  8  1  0  0  0
  7 60  1  0  0  0
  7 61  1  0  0  0
  8  9  1  0  0  0
  8 62  1  0  0  0
  9 10  2  0  0  0
  9 11  1  0  0  0
 10 63  1  0  0  0
 10106  1  0  0  0
 11 64  1  0  0  0
 11 65  1  0  0  0
 12 13  1  0  0  0
 12 66  1  0  0  0
 13 14  1  0  0  0
 13 16  1  0  0  0
 13 67  1  0  0  0
 14 15  2  0  0  0
 14 23  1  0  0  0
 16 17  1  0  0  0
 16 68  1  0  0  0
 16 69  1  0  0  0
 17 18  1  0  0  0
 17 70  1  0  0  0
 17 71  1  0  0  0
 18 19  1  0  0  0
 18 72  1  0  0  0
 18 73  1  0  0  0
 19 20  1  0  0  0
 19 74  1  0  0  0
 20 21  1  0  0  0
 20 22  2  0  0  0
 21 75  1  0  0  0
 21 76  1  0  0  0
 22 77  1  0  0  0
 22105  1  0  0  0
 23 24  1  0  0  0
 23 78  1  0  0  0
 24 25  1  0  0  0
 24 27  1  0  0  0
 24 79  1  0  0  0
 25 26  2  0  0  0
 25 31  1  0  0  0
 27 28  1  0  0  0
 27 80  1  0  0  0
 27 81  1  0  0  0
 28 29  1  0  0  0
 28 30  1  0  0  0
 28 82  1  0  0  0
 29 83  1  0  0  0
 29 84  1  0  0  0
 29 85  1  0  0  0
 30 86  1  0  0  0
 30 87  1  0  0  0
 30 88  1  0  0  0
 31 32  1  0  0  0
 31 89  1  0  0  0
 32 33  1  0  0  0
 32 35  1  0  0  0
 32 90  1  0  0  0
 33 34  2  0  0  0
 33 39  1  0  0  0
 35 36  1  0  0  0
 35 91  1  0  0  0
 35 92  1  0  0  0
 36 37  2  0  0  0
 36 38  1  0  0  0
 38 93  1  0  0  0
 38 94  1  0  0  0
 39 40  1  0  0  0
 39 95  1  0  0  0
 40 41  1  0  0  0
 40 43  1  0  0  0
 40 96  1  0  0  0
 41 42  2  0  0  0
 41 51  1  0  0  0
 43 44  1  0  0  0
 43 97  1  0  0  0
 43 98  1  0  0  0
 44 45  2  0  0  0
 44 46  1  0  0  0
 45 47  1  0  0  0
 45 99  1  0  0  0
 46 48  2  0  0  0
 46100  1  0  0  0
 47 49  2  0  0  0
 47101  1  0  0  0
 48 49  1  0  0  0
 48102  1  0  0  0
 49 50  1  0  0  0
 51103  1  0  0  0
 51104  1  0  0  0
M  CHG  3   1   1  10   1  22   1
M  END
> <s_m_source_file>
../1ol2_ligand.sdf

> <i_m_source_file_index>
1

> <s_epik_input>
W0hdL049QyhbTkgyXSlcW05IXVtDSDJdW0NIMl1bQ0gyXVtDQEhdKFtOSDMrXSlDKD1PKVtOSF1bQ0BASF0oW0NIMl1bQ0gyXVtDSDJdW05IXS9DKFtOSDJdKT1OXFtIXSlDKD1PKVtOSF1bQ0BASF0oW0NIMl1bQ0hdKFtDSDNdKVtDSDNdKUMoPU8pW05IXVtDQEBIXShbQ0gyXUMoPU8pW05IMl0pQyg9TylbTkhdW0NASF0oQyg9TylbTkgyXSlbQ0gyXWMxW2NIXVtjSF1jKEYpW2NIXVtjSF0x

> <s_epik_cmdline>
J2VwaWtfYXBwJywgJy1pbWFlJywgJ2xpZ2FuZF9wcm8ubWFlJywgJy1vbWFlJywgJ2xpZ2FuZF9wcmVwLm1hZScsICctbXMnLCAnMScsICctcGgnLCAnNycsICctcGh0JywgJzAuNScsICctbnQn

> <r_epik_Ionization_Penalty>
  0.1367

> <r_epik_Ionization_Penalty_Charging>
  0.1367

> <r_epik_Ionization_Penalty_Neutral>
  0.0000

> <r_epik_State_Penalty>
  0.1260

> <r_epik_Charging_Adjusted_Penalty>
0.262669480934957

> <i_epik_Tot_Q>
3

> <i_epik_Tot_abs_Q>
3

> <s_epik_Chemistry_Notes>
This compound has an imine and may undergo hydrolysis.

$$$$
