1olx_ligand
                    3D
 Schrodinger Suite 2020-3.
 42 43  0  0  1  0            999 V2000
   77.2010    0.5650   11.6500 N   0  0  0  0  0  0
   77.4630    1.7830   12.1580 C   0  0  0  0  0  0
   77.5550    1.8660   13.6830 C   0  0  0  0  0  0
   77.6430    2.8940   11.3810 N   0  0  0  0  0  0
   77.5410    2.7130   10.0480 C   0  0  0  0  0  0
   77.7330    3.8440    9.3150 N   0  0  0  0  0  0
   77.2660    1.4320    9.4140 C   0  0  0  0  0  0
   77.0990    0.3750   10.3200 C   0  0  0  0  0  0
   77.1590    1.2490    7.8810 C   0  0  0  0  0  0
   75.9320    1.8660    7.3190 N   0  3  0  0  0  0
   75.9500    3.1120    6.7310 C   0  0  0  0  0  0
   74.3290    3.5720    6.2000 S   0  0  0  0  0  0
   73.6800    2.0570    6.7790 C   0  0  0  0  0  0
   74.5830    1.2170    7.3540 C   0  0  0  0  0  0
   74.3140   -0.1720    7.9600 C   0  0  0  0  0  0
   72.1800    1.9210    6.5600 C   0  0  0  0  0  0
   71.3880    2.7750    7.5860 C   0  0  0  0  0  0
   69.9990    2.6740    7.2480 O   0  0  0  0  0  0
   68.9720    3.7060    7.7490 P   0  0  2  0  0  0
   69.0130    4.9850    6.8360 O   0  0  0  0  0  0
   69.2770    4.0940    9.1750 O   0  5  0  0  0  0
   67.6420    3.0380    7.6400 O   0  0  0  0  0  0
   68.7590    5.2370    5.2700 P   0  0  0  0  0  0
   68.2420    6.6700    5.2020 O   0  5  0  0  0  0
   70.1080    5.0990    4.6290 O   0  5  0  0  0  0
   67.7570    4.2830    4.7560 O   0  0  0  0  0  0
   77.3805    0.8698   14.1156 H   0  0  0  0  0  0
   76.7951    2.5671   14.0585 H   0  0  0  0  0  0
   78.5555    2.2208   13.9712 H   0  0  0  0  0  0
   77.9393    4.7988    9.8208 H   0  0  0  0  0  0
   77.6819    3.8031    8.2170 H   0  0  0  0  0  0
   76.8817   -0.6231    9.9397 H   0  0  0  0  0  0
   78.0270    1.7178    7.3943 H   0  0  0  0  0  0
   77.1390    0.1758    7.6403 H   0  0  0  0  0  0
   76.8408    3.7284    6.6102 H   0  0  0  0  0  0
   75.2550   -0.5931    8.3438 H   0  0  0  0  0  0
   73.9038   -0.8367    7.1855 H   0  0  0  0  0  0
   73.5910   -0.0789    8.7838 H   0  0  0  0  0  0
   71.9251    2.2622    5.5458 H   0  0  0  0  0  0
   71.8864    0.8674    6.6769 H   0  0  0  0  0  0
   71.5663    2.3882    8.6002 H   0  0  0  0  0  0
   71.7229    3.8212    7.5284 H   0  0  0  0  0  0
  1  2  2  0  0  0
  1  8  1  0  0  0
  2  3  1  0  0  0
  2  4  1  0  0  0
  3 27  1  0  0  0
  3 28  1  0  0  0
  3 29  1  0  0  0
  4  5  2  0  0  0
  5  6  1  0  0  0
  5  7  1  0  0  0
  6 30  1  0  0  0
  6 31  1  0  0  0
  7  8  2  0  0  0
  7  9  1  0  0  0
  8 32  1  0  0  0
  9 10  1  0  0  0
  9 33  1  0  0  0
  9 34  1  0  0  0
 10 11  2  0  0  0
 10 14  1  0  0  0
 11 12  1  0  0  0
 11 35  1  0  0  0
 12 13  1  0  0  0
 13 14  2  0  0  0
 13 16  1  0  0  0
 14 15  1  0  0  0
 15 36  1  0  0  0
 15 37  1  0  0  0
 15 38  1  0  0  0
 16 17  1  0  0  0
 16 39  1  0  0  0
 16 40  1  0  0  0
 17 18  1  0  0  0
 17 41  1  0  0  0
 17 42  1  0  0  0
 18 19  1  0  0  0
 19 20  1  0  0  0
 19 21  1  0  0  0
 19 22  2  0  0  0
 20 23  1  0  0  0
 23 24  1  0  0  0
 23 25  1  0  0  0
 23 26  2  0  0  0
M  CHG  4  10   1  21  -1  24  -1  25  -1
M  END
> <s_m_source_file>
../1olx_ligand.sdf

> <i_m_source_file_index>
1

> <s_epik_input>
W0NIM11jMW5bY0hdYyhjKG4xKVtOSDJdKVtDSDJdW24rXTJbY0hdc2MoYzJbQ0gzXSlbQ0gyXVtDSDJdT1tQQEBdKD1PKShbT0hdKU9QKD1PKShbT0hdKVtPSF0=

> <s_epik_cmdline>
J2VwaWtfYXBwJywgJy1pbWFlJywgJ2xpZ2FuZF9wcm8ubWFlJywgJy1vbWFlJywgJ2xpZ2FuZF9wcmVwLm1hZScsICctbXMnLCAnMScsICctcGgnLCAnNycsICctcGh0JywgJzAuNScsICctbnQn

> <r_lp_tautomer_probability>
1

> <r_epik_Ionization_Penalty>
  0.1081

> <r_epik_Ionization_Penalty_Charging>
  0.0846

> <r_epik_Ionization_Penalty_Neutral>
  0.0235

> <r_epik_State_Penalty>
 -0.0000

> <r_epik_Charging_Adjusted_Penalty>
0.0846133443195182

> <i_epik_Tot_Q>
-2

> <i_epik_Tot_abs_Q>
4

$$$$
