1om1_ligand
                    3D
 Schrodinger Suite 2020-3.
 32 35  0  0  1  0            999 V2000
   23.8570    7.3150   14.0900 O   0  5  0  0  0  0
   24.5430    6.4110   14.9470 C   0  0  0  0  0  0
   25.3990    5.5830   14.4000 O   0  0  0  0  0  0
   24.2740    6.4130   16.4580 C   0  0  0  0  0  0
   23.2490    7.3080   17.3260 C   0  0  0  0  0  0
   22.9800    6.9520   18.5770 C   0  0  0  0  0  0
   23.5250    5.8420   19.2160 N   0  0  0  0  0  0
   23.1860    5.5330   20.5550 C   0  0  0  0  0  0
   23.7030    4.5200   21.0930 O   0  5  0  0  0  0
   22.2270    6.3940   21.3240 C   0  0  0  0  0  0
   21.8850    6.0760   22.6850 C   0  0  0  0  0  0
   20.9700    6.8950   23.4230 C   0  0  0  0  0  0
   20.3850    8.0360   22.8270 C   0  0  0  0  0  0
   20.7110    8.3770   21.4610 C   0  0  0  0  0  0
   21.6440    7.5680   20.6640 C   0  0  0  0  0  0
   22.0490    7.8370   19.2380 N   0  0  0  0  0  0
   21.7140    8.8400   18.2880 C   0  0  0  0  0  0
   22.4400    8.5520   17.0800 C   0  0  0  0  0  0
   22.3050    9.4130   15.9120 C   0  0  0  0  0  0
   21.4230   10.5590   16.0080 C   0  0  0  0  0  0
   20.7080   10.8340   17.2070 C   0  0  0  0  0  0
   20.8380    9.9880   18.3580 C   0  0  0  0  0  0
   23.9247    5.4176   16.7695 H   0  0  0  0  0  0
   25.2013    6.6608   16.9952 H   0  0  0  0  0  0
   22.3277    5.2008   23.1606 H   0  0  0  0  0  0
   20.7227    6.6363   24.4526 H   0  0  0  0  0  0
   19.6913    8.6556   23.3953 H   0  0  0  0  0  0
   20.2529    9.2572   21.0100 H   0  0  0  0  0  0
   22.8515    9.2013   14.9930 H   0  0  0  0  0  0
   21.3057   11.2199   15.1492 H   0  0  0  0  0  0
   20.0504   11.7022   17.2516 H   0  0  0  0  0  0
   20.2849   10.2072   19.2713 H   0  0  0  0  0  0
  1  2  1  0  0  0
  2  3  2  0  0  0
  2  4  1  0  0  0
  4  5  1  0  0  0
  4 23  1  0  0  0
  4 24  1  0  0  0
  5  6  2  0  0  0
  5 18  1  0  0  0
  6  7  1  0  0  0
  6 16  1  0  0  0
  7  8  2  0  0  0
  8  9  1  0  0  0
  8 10  1  0  0  0
 10 11  2  0  0  0
 10 15  1  0  0  0
 11 12  1  0  0  0
 11 25  1  0  0  0
 12 13  2  0  0  0
 12 26  1  0  0  0
 13 14  1  0  0  0
 13 27  1  0  0  0
 14 15  2  0  0  0
 14 28  1  0  0  0
 15 16  1  0  0  0
 16 17  1  0  0  0
 17 18  2  0  0  0
 17 22  1  0  0  0
 18 19  1  0  0  0
 19 20  2  0  0  0
 19 29  1  0  0  0
 20 21  1  0  0  0
 20 30  1  0  0  0
 21 22  2  0  0  0
 21 31  1  0  0  0
 22 32  1  0  0  0
M  CHG  2   1  -1   9  -1
M  END
> <s_m_source_file>
../1om1_ligand.sdf

> <i_m_source_file_index>
1

> <s_epik_input>
W09IXUMoPU8pW0NIMl1jMWMoW2NIXVtjSF1bY0hdW2NIXTIpYzJuKGMxMyljNGMoYyg9TylbbkhdMylbY0hdW2NIXVtjSF1bY0hdNA==

> <s_epik_cmdline>
J2VwaWtfYXBwJywgJy1pbWFlJywgJ2xpZ2FuZF9wcm8ubWFlJywgJy1vbWFlJywgJ2xpZ2FuZF9wcmVwLm1hZScsICctbXMnLCAnMScsICctcGgnLCAnNycsICctcGh0JywgJzAuNScsICctbnQn

> <r_lp_tautomer_probability>
1

> <r_epik_Ionization_Penalty>
  0.0011

> <r_epik_Ionization_Penalty_Charging>
  0.0011

> <r_epik_Ionization_Penalty_Neutral>
  0.0000

> <r_epik_State_Penalty>
 -0.0000

> <r_epik_Charging_Adjusted_Penalty>
0.00106694247467725

> <i_epik_Tot_Q>
-2

> <i_epik_Tot_abs_Q>
2

$$$$
