1om2_ligand
                    3D
 Schrodinger Suite 2020-3.
181182  0  0  1  0            999 V2000
  -13.9620   20.8670  -21.8130 N   0  3  0  0  0  0
  -13.9810   20.9880  -20.3450 C   0  0  0  0  0  0
  -12.5610   21.1680  -19.8120 C   0  0  0  0  0  0
  -11.6230   20.9840  -20.5830 O   0  0  0  0  0  0
  -12.3980   21.5230  -18.5260 N   0  0  0  0  0  0
  -11.1110   21.7580  -17.8760 C   0  0  2  0  0  0
  -10.3400   20.4590  -17.5880 C   0  0  0  0  0  0
  -10.0120   20.1640  -16.4400 O   0  0  0  0  0  0
  -11.4780   22.5230  -16.5980 C   0  0  0  0  0  0
  -12.8580   21.9820  -16.2350 C   0  0  0  0  0  0
  -13.4980   21.7580  -17.6020 C   0  0  0  0  0  0
  -10.0490   19.6820  -18.6360 N   0  0  0  0  0  0
   -9.3170   18.4260  -18.5910 C   0  0  2  0  0  0
   -8.5920   18.2690  -19.9280 C   0  0  0  0  0  0
   -9.0990   17.6170  -20.8400 O   0  0  0  0  0  0
  -10.2400   17.2200  -18.3260 C   0  0  0  0  0  0
  -10.6990   17.0970  -16.8650 C   0  0  0  0  0  0
  -12.0150   17.8300  -16.5700 C   0  0  0  0  0  0
  -11.9200   18.5680  -15.2980 N   0  0  0  0  0  0
  -12.7430   18.5020  -14.2370 C   0  0  0  0  0  0
  -13.8070   17.6870  -14.2300 N   0  0  0  0  0  0
  -12.5010   19.2720  -13.1700 N   0  0  0  0  0  0
   -7.3960   18.8570  -20.0340 N   0  0  0  0  0  0
   -6.5560   18.8150  -21.2260 C   0  0  2  0  0  0
   -6.0120   17.4030  -21.4990 C   0  0  0  0  0  0
   -5.3230   17.1940  -22.4940 O   0  0  0  0  0  0
   -5.4420   19.8670  -21.0580 C   0  0  0  0  0  0
   -4.4040   19.9930  -22.1900 C   0  0  0  0  0  0
   -5.0270   20.1610  -23.5760 C   0  0  0  0  0  0
   -3.4960   21.2050  -21.9290 C   0  0  0  0  0  0
   -6.3060   16.4110  -20.6490 N   0  0  0  0  0  0
   -5.8390   15.0430  -20.8130 C   0  0  2  0  0  0
   -6.6090   14.2600  -21.8820 C   0  0  0  0  0  0
   -7.0710   13.1500  -21.6230 O   0  0  0  0  0  0
   -5.8690   14.3500  -19.4530 C   0  0  0  0  0  0
   -7.1970   14.2560  -18.9830 O   0  0  0  0  0  0
   -6.7230   14.8260  -23.0870 N   0  0  0  0  0  0
   -7.3720   14.2040  -24.2280 C   0  0  2  0  0  0
   -6.2460   13.5010  -24.9830 C   0  0  0  0  0  0
   -6.1560   12.2740  -24.9800 O   0  0  0  0  0  0
   -8.1060   15.2760  -25.0490 C   0  0  0  0  0  0
   -8.9070   14.6630  -26.2020 C   0  0  0  0  0  0
   -9.6410   15.7670  -26.9750 C   0  0  0  0  0  0
  -10.5400   15.2140  -28.0000 N   0  0  0  0  0  0
  -11.7730   14.7260  -27.7740 C   0  0  0  0  0  0
  -12.2660   14.6650  -26.5300 N   0  0  0  0  0  0
  -12.5160   14.2950  -28.8020 N   0  0  0  0  0  0
   -5.3590   14.2980  -25.5910 N   0  0  0  0  0  0
   -4.1860   13.8180  -26.3010 C   0  0  2  0  0  0
   -3.3260   12.9370  -25.4120 C   0  0  0  0  0  0
   -2.7760   11.9690  -25.9090 O   0  0  0  0  0  0
   -3.4120   14.9750  -26.9680 C   0  0  0  0  0  0
   -2.7610   16.1150  -26.1460 C   0  0  0  0  0  0
   -3.6650   16.8970  -25.2040 C   0  0  0  0  0  0
   -1.5140   15.6970  -25.3630 C   0  0  0  0  0  0
   -3.2060   13.2450  -24.1180 N   0  0  0  0  0  0
   -2.3500   12.5000  -23.2060 C   0  0  2  0  0  0
   -2.7530   11.0310  -23.0640 C   0  0  0  0  0  0
   -1.9520   10.2310  -22.5880 O   0  0  0  0  0  0
   -2.1490   13.2120  -21.8650 C   0  0  0  0  0  0
   -1.3970   14.5700  -21.8490 C   0  0  0  0  0  0
   -0.0460   14.6040  -22.5890 C   0  0  0  0  0  0
   -2.3110   15.7550  -22.1820 C   0  0  0  0  0  0
   -3.9540   10.6460  -23.5170 N   0  0  0  0  0  0
   -4.3630    9.2480  -23.5060 C   0  0  2  0  0  0
   -3.4450    8.4230  -24.4300 C   0  0  0  0  0  0
   -3.4340    7.1970  -24.3460 O   0  0  0  0  0  0
   -5.8260    9.1380  -23.9480 C   0  0  0  0  0  0
   -6.2850    7.8120  -23.7850 O   0  0  0  0  0  0
   -2.6830    9.0950  -25.3070 N   0  0  0  0  0  0
   -1.7470    8.5180  -26.2590 C   0  0  2  0  0  0
   -0.4480    7.9900  -25.6300 C   0  0  0  0  0  0
    0.3820    7.4450  -26.3550 O   0  0  0  0  0  0
   -1.4230    9.5940  -27.3200 C   0  0  0  0  0  0
   -0.5320   10.7830  -26.9360 C   0  0  0  0  0  0
   -0.1750   11.0770  -25.6010 C   0  0  0  0  0  0
   -0.0660   11.6350  -27.9530 C   0  0  0  0  0  0
    0.6460   12.1680  -25.2860 C   0  0  0  0  0  0
    0.7570   12.7290  -27.6390 C   0  0  0  0  0  0
    1.1210   12.9960  -26.3100 C   0  0  0  0  0  0
    1.9190   14.0620  -26.0140 O   0  0  0  0  0  0
   -0.2380    8.1780  -24.3180 N   0  0  0  0  0  0
    0.9950    7.8030  -23.6470 C   0  0  2  0  0  0
    0.7470    7.6350  -22.1480 C   0  0  0  0  0  0
    1.0870    6.5440  -21.6410 O   0  0  0  0  0  0
    2.0290    8.9100  -23.9130 C   0  0  0  0  0  0
    0.4440    8.6640  -21.5050 O   0  0  0  0  0  0
  -14.9896   20.7380  -22.1836 H   0  0  0  0  0  0
  -13.3561   19.9953  -22.1012 H   0  0  0  0  0  0
  -13.5261   21.7773  -22.2503 H   0  0  0  0  0  0
  -14.5869   21.8597  -20.0568 H   0  0  0  0  0  0
  -14.4170   20.0777  -19.9076 H   0  0  0  0  0  0
  -10.4576   22.3270  -18.5538 H   0  0  0  0  0  0
  -10.7305   22.3144  -15.8184 H   0  0  0  0  0  0
  -11.4961   23.6024  -16.8092 H   0  0  0  0  0  0
  -12.7471   21.0515  -15.6589 H   0  0  0  0  0  0
  -13.3960   22.7263  -15.6295 H   0  0  0  0  0  0
  -14.0655   22.6432  -17.9251 H   0  0  0  0  0  0
  -14.1617   20.8808  -17.5913 H   0  0  0  0  0  0
  -10.4175   20.0697  -19.5972 H   0  0  0  0  0  0
   -8.6151   18.5068  -17.7479 H   0  0  0  0  0  0
  -11.1448   17.3077  -18.9453 H   0  0  0  0  0  0
   -9.7104   16.2900  -18.5803 H   0  0  0  0  0  0
  -10.8513   16.0363  -16.6166 H   0  0  0  0  0  0
   -9.9308   17.5221  -16.2023 H   0  0  0  0  0  0
  -12.2281   18.5417  -17.3812 H   0  0  0  0  0  0
  -12.8339   17.0990  -16.4990 H   0  0  0  0  0  0
  -11.0952   19.2771  -15.1338 H   0  0  0  0  0  0
  -14.0168   17.0489  -15.1011 H   0  0  0  0  0  0
  -14.4704   17.6562  -13.3531 H   0  0  0  0  0  0
  -11.6310   19.9451  -13.1634 H   0  0  0  0  0  0
   -7.0557   19.4005  -19.1402 H   0  0  0  0  0  0
   -7.2001   19.0654  -22.0819 H   0  0  0  0  0  0
   -5.8924   20.8662  -20.9648 H   0  0  0  0  0  0
   -4.8585   19.6419  -20.1531 H   0  0  0  0  0  0
   -3.8377   19.0500  -22.1953 H   0  0  0  0  0  0
   -5.6837   19.3046  -23.7891 H   0  0  0  0  0  0
   -4.2301   20.2093  -24.3328 H   0  0  0  0  0  0
   -5.6154   21.0900  -23.6033 H   0  0  0  0  0  0
   -3.0336   21.1095  -20.9355 H   0  0  0  0  0  0
   -4.0949   22.1269  -21.9676 H   0  0  0  0  0  0
   -2.7096   21.2461  -22.6971 H   0  0  0  0  0  0
   -6.9377   16.6771  -19.7887 H   0  0  0  0  0  0
   -4.8070   15.1310  -21.1836 H   0  0  0  0  0  0
   -5.4481   13.3381  -19.5477 H   0  0  0  0  0  0
   -5.2724   14.9293  -18.7330 H   0  0  0  0  0  0
   -7.4046   13.7820  -18.0123 H   0  0  0  0  0  0
   -6.2842   15.8301  -23.1837 H   0  0  0  0  0  0
   -8.1346   13.4781  -23.9094 H   0  0  0  0  0  0
   -8.8034   15.8230  -24.3976 H   0  0  0  0  0  0
   -7.3734   15.9782  -25.4735 H   0  0  0  0  0  0
   -8.2233   14.1364  -26.8841 H   0  0  0  0  0  0
   -9.6433   13.9517  -25.7995 H   0  0  0  0  0  0
  -10.2429   16.3661  -26.2758 H   0  0  0  0  0  0
   -8.9062   16.4153  -27.4748 H   0  0  0  0  0  0
  -10.2185   15.1768  -29.0513 H   0  0  0  0  0  0
  -11.6616   15.0171  -25.6810 H   0  0  0  0  0  0
  -12.1177   14.3420  -29.8263 H   0  0  0  0  0  0
  -13.5244   13.8941  -28.6218 H   0  0  0  0  0  0
   -5.5613   15.3775  -25.5297 H   0  0  0  0  0  0
   -4.5805   13.1711  -27.0985 H   0  0  0  0  0  0
   -2.5620   14.5683  -27.5355 H   0  0  0  0  0  0
   -4.0818   15.5190  -27.6503 H   0  0  0  0  0  0
   -2.4855   16.8091  -26.9537 H   0  0  0  0  0  0
   -4.5716   17.2108  -25.7422 H   0  0  0  0  0  0
   -3.1307   17.7855  -24.8365 H   0  0  0  0  0  0
   -3.9461   16.2599  -24.3525 H   0  0  0  0  0  0
   -0.8410   15.1284  -26.0216 H   0  0  0  0  0  0
   -1.8101   15.0683  -24.5103 H   0  0  0  0  0  0
   -0.9948   16.5939  -24.9944 H   0  0  0  0  0  0
   -3.7886   14.1020  -23.7491 H   0  0  0  0  0  0
   -1.3820   12.5110  -23.7284 H   0  0  0  0  0  0
   -3.1288   13.4299  -21.4151 H   0  0  0  0  0  0
   -1.5710   12.5646  -21.1891 H   0  0  0  0  0  0
   -1.0936   14.7039  -20.8002 H   0  0  0  0  0  0
    0.5520   13.7269  -22.3009 H   0  0  0  0  0  0
    0.4965   15.5222  -22.3197 H   0  0  0  0  0  0
   -0.2221   14.5872  -23.6747 H   0  0  0  0  0  0
   -3.2515   15.6621  -21.6191 H   0  0  0  0  0  0
   -2.5279   15.7590  -23.2604 H   0  0  0  0  0  0
   -1.8093   16.6940  -21.9054 H   0  0  0  0  0  0
   -4.6376   11.4160  -23.9039 H   0  0  0  0  0  0
   -4.2605    8.8990  -22.4679 H   0  0  0  0  0  0
   -6.4452    9.8115  -23.3373 H   0  0  0  0  0  0
   -5.9113    9.4214  -25.0074 H   0  0  0  0  0  0
   -7.3190    7.5509  -24.0545 H   0  0  0  0  0  0
   -2.8176   10.1857  -25.2601 H   0  0  0  0  0  0
   -2.2803    7.6447  -26.6627 H   0  0  0  0  0  0
   -0.9031    9.1266  -28.1693 H   0  0  0  0  0  0
   -2.3576   10.0557  -27.6713 H   0  0  0  0  0  0
   -0.5467   10.4407  -24.7978 H   0  0  0  0  0  0
   -0.3447   11.4456  -28.9896 H   0  0  0  0  0  0
    0.9134   12.3709  -24.2490 H   0  0  0  0  0  0
    1.1173   13.3784  -28.4369 H   0  0  0  0  0  0
    2.2004   14.2653  -24.9702 H   0  0  0  0  0  0
   -1.0563    8.6407  -23.7467 H   0  0  0  0  0  0
    1.3234    6.8377  -24.0598 H   0  0  0  0  0  0
    2.1885    9.0100  -24.9968 H   0  0  0  0  0  0
    2.9796    8.6488  -23.4250 H   0  0  0  0  0  0
    1.6584    9.8630  -23.5075 H   0  0  0  0  0  0
    0.2547    8.6008  -20.4233 H   0  0  0  0  0  0
  1  2  1  0  0  0
  1 88  1  0  0  0
  1 89  1  0  0  0
  1 90  1  0  0  0
  2  3  1  0  0  0
  2 91  1  0  0  0
  2 92  1  0  0  0
  3  4  2  0  0  0
  3  5  1  0  0  0
  5  6  1  0  0  0
  5 11  1  0  0  0
  6  7  1  0  0  0
  6  9  1  0  0  0
  6 93  1  0  0  0
  7  8  2  0  0  0
  7 12  1  0  0  0
  9 10  1  0  0  0
  9 94  1  0  0  0
  9 95  1  0  0  0
 10 11  1  0  0  0
 10 96  1  0  0  0
 10 97  1  0  0  0
 11 98  1  0  0  0
 11 99  1  0  0  0
 12 13  1  0  0  0
 12100  1  0  0  0
 13 14  1  0  0  0
 13 16  1  0  0  0
 13101  1  0  0  0
 14 15  2  0  0  0
 14 23  1  0  0  0
 16 17  1  0  0  0
 16102  1  0  0  0
 16103  1  0  0  0
 17 18  1  0  0  0
 17104  1  0  0  0
 17105  1  0  0  0
 18 19  1  0  0  0
 18106  1  0  0  0
 18107  1  0  0  0
 19 20  1  0  0  0
 19108  1  0  0  0
 20 21  1  0  0  0
 20 22  2  0  0  0
 21109  1  0  0  0
 21110  1  0  0  0
 22111  1  0  0  0
 23 24  1  0  0  0
 23112  1  0  0  0
 24 25  1  0  0  0
 24 27  1  0  0  0
 24113  1  0  0  0
 25 26  2  0  0  0
 25 31  1  0  0  0
 27 28  1  0  0  0
 27114  1  0  0  0
 27115  1  0  0  0
 28 29  1  0  0  0
 28 30  1  0  0  0
 28116  1  0  0  0
 29117  1  0  0  0
 29118  1  0  0  0
 29119  1  0  0  0
 30120  1  0  0  0
 30121  1  0  0  0
 30122  1  0  0  0
 31 32  1  0  0  0
 31123  1  0  0  0
 32 33  1  0  0  0
 32 35  1  0  0  0
 32124  1  0  0  0
 33 34  2  0  0  0
 33 37  1  0  0  0
 35 36  1  0  0  0
 35125  1  0  0  0
 35126  1  0  0  0
 36127  1  0  0  0
 37 38  1  0  0  0
 37128  1  0  0  0
 38 39  1  0  0  0
 38 41  1  0  0  0
 38129  1  0  0  0
 39 40  2  0  0  0
 39 48  1  0  0  0
 41 42  1  0  0  0
 41130  1  0  0  0
 41131  1  0  0  0
 42 43  1  0  0  0
 42132  1  0  0  0
 42133  1  0  0  0
 43 44  1  0  0  0
 43134  1  0  0  0
 43135  1  0  0  0
 44 45  1  0  0  0
 44136  1  0  0  0
 45 46  2  0  0  0
 45 47  1  0  0  0
 46137  1  0  0  0
 47138  1  0  0  0
 47139  1  0  0  0
 48 49  1  0  0  0
 48140  1  0  0  0
 49 50  1  0  0  0
 49 52  1  0  0  0
 49141  1  0  0  0
 50 51  2  0  0  0
 50 56  1  0  0  0
 52 53  1  0  0  0
 52142  1  0  0  0
 52143  1  0  0  0
 53 54  1  0  0  0
 53 55  1  0  0  0
 53144  1  0  0  0
 54145  1  0  0  0
 54146  1  0  0  0
 54147  1  0  0  0
 55148  1  0  0  0
 55149  1  0  0  0
 55150  1  0  0  0
 56 57  1  0  0  0
 56151  1  0  0  0
 57 58  1  0  0  0
 57 60  1  0  0  0
 57152  1  0  0  0
 58 59  2  0  0  0
 58 64  1  0  0  0
 60 61  1  0  0  0
 60153  1  0  0  0
 60154  1  0  0  0
 61 62  1  0  0  0
 61 63  1  0  0  0
 61155  1  0  0  0
 62156  1  0  0  0
 62157  1  0  0  0
 62158  1  0  0  0
 63159  1  0  0  0
 63160  1  0  0  0
 63161  1  0  0  0
 64 65  1  0  0  0
 64162  1  0  0  0
 65 66  1  0  0  0
 65 68  1  0  0  0
 65163  1  0  0  0
 66 67  2  0  0  0
 66 70  1  0  0  0
 68 69  1  0  0  0
 68164  1  0  0  0
 68165  1  0  0  0
 69166  1  0  0  0
 70 71  1  0  0  0
 70167  1  0  0  0
 71 72  1  0  0  0
 71 74  1  0  0  0
 71168  1  0  0  0
 72 73  2  0  0  0
 72 82  1  0  0  0
 74 75  1  0  0  0
 74169  1  0  0  0
 74170  1  0  0  0
 75 76  2  0  0  0
 75 77  1  0  0  0
 76 78  1  0  0  0
 76171  1  0  0  0
 77 79  2  0  0  0
 77172  1  0  0  0
 78 80  2  0  0  0
 78173  1  0  0  0
 79 80  1  0  0  0
 79174  1  0  0  0
 80 81  1  0  0  0
 81175  1  0  0  0
 82 83  1  0  0  0
 82176  1  0  0  0
 83 84  1  0  0  0
 83 86  1  0  0  0
 83177  1  0  0  0
 84 85  2  0  0  0
 84 87  1  0  0  0
 86178  1  0  0  0
 86179  1  0  0  0
 86180  1  0  0  0
 87181  1  0  0  0
M  CHG  1   1   1
M  END
> <s_m_source_file>
../1om2_ligand.sdf

> <i_m_source_file_index>
1

> <s_epik_input>
W05IMytdW0NIMl1DKD1PKU4xW0NAQEhdKFtDSDJdW0NIMl1bQ0gyXTEpQyg9TylbTkhdW0NAQEhdKFtDSDJdW0NIMl1bQ0gyXVtOSF0vQyhbTkgyXSk9TlxbSF0pQyg9TylbTkhdW0NAQEhdKFtDSDJdW0NIXShbQ0gzXSlbQ0gzXSlDKD1PKVtOSF1bQ0BASF0oW0NIMl1bT0hdKUMoPU8pW05IXVtDQEBIXShbQ0gyXVtDSDJdW0NIMl1bTkhdL0MoPU5cW0hdKVtOSDJdKUMoPU8pW05IXVtDQEBIXShbQ0gyXVtDSF0oW0NIM10pW0NIM10pQyg9TylbTkhdW0NAQEhdKFtDSDJdW0NIXShbQ0gzXSlbQ0gzXSlDKD1PKVtOSF1bQ0BASF0oW0NIMl1bT0hdKUMoPU8pW05IXVtDQEhdKEMoPU8pW05IXVtDQEBIXShbQ0gzXSlDKD1PKVtPSF0pW0NIMl1jMltjSF1bY0hdYyhbT0hdKVtjSF1bY0hdMg==

> <s_epik_cmdline>
J2VwaWtfYXBwJywgJy1pbWFlJywgJ2xpZ2FuZF9wcm8ubWFlJywgJy1vbWFlJywgJ2xpZ2FuZF9wcmVwLm1hZScsICctbXMnLCAnMScsICctcGgnLCAnNycsICctcGh0JywgJzAuNScsICctbnQn

> <s_epik_pKa_notes>
Molecule size exceeds maximum supported for generating protonation states

> <s_epik_Chemistry_Notes>
This compound has an imine and may undergo hydrolysis.

$$$$
