1om9_ligand
                    3D
 Schrodinger Suite 2020-3.
145146  0  0  1  0            999 V2000
  -19.0050   33.3590   54.0100 N   0  3  0  0  0  0
  -19.3240   32.7100   52.7110 C   0  0  2  0  0  0
  -17.9810   32.2460   52.1960 C   0  0  0  0  0  0
  -17.0970   33.0650   51.9090 O   0  0  0  0  0  0
  -19.9680   33.7090   51.7340 C   0  0  0  0  0  0
  -20.9270   33.0410   50.7180 C   0  0  0  0  0  0
  -20.6300   31.9140   50.1630 O   0  5  0  0  0  0
  -22.0220   33.6160   50.4120 O   0  0  0  0  0  0
  -17.7930   30.9380   52.1040 N   0  0  0  0  0  0
  -16.4550   30.4970   51.8040 C   0  0  2  0  0  0
  -16.2140   30.4960   50.3140 C   0  0  0  0  0  0
  -17.1610   30.5310   49.5110 O   0  0  0  0  0  0
  -16.0840   29.1590   52.4480 C   0  0  0  0  0  0
  -14.9300   29.3020   53.4320 C   0  0  0  0  0  0
  -13.7530   29.3790   52.9860 O   0  5  0  0  0  0
  -15.1180   29.3810   54.6630 O   0  0  0  0  0  0
  -14.9230   30.5080   49.9760 N   0  0  0  0  0  0
  -14.4760   30.7730   48.6280 C   0  0  2  0  0  0
  -14.4430   29.5290   47.7810 C   0  0  0  0  0  0
  -14.2060   28.4090   48.2910 O   0  0  0  0  0  0
  -13.0830   31.4050   48.6490 C   0  0  0  0  0  0
  -13.1100   32.8890   48.7940 C   0  0  0  0  0  0
  -13.2150   33.4730   50.0550 C   0  0  0  0  0  0
  -13.0990   33.7120   47.6520 C   0  0  0  0  0  0
  -13.2470   34.8980   50.1820 C   0  0  0  0  0  0
  -13.1600   35.1090   47.7600 C   0  0  0  0  0  0
  -13.2240   35.7010   49.0260 C   0  0  0  0  0  0
  -14.6870   29.7410   46.4800 N   0  0  0  0  0  0
  -14.4790   28.7440   45.4600 C   0  0  0  0  0  0
  -12.9970   28.5110   45.2020 C   0  0  0  0  0  0
  -12.1270   29.0060   45.9360 O   0  0  0  0  0  0
  -12.7120   27.7170   44.1640 N   0  0  0  0  0  0
  -11.3460   27.4490   43.7580 C   0  0  0  0  0  0
  -10.9020   28.5970   42.8870 C   0  0  0  0  0  0
  -11.7430   29.3900   42.4530 O   0  0  0  0  0  0
   -9.5990   28.6990   42.6570 N   0  0  0  0  0  0
   -9.0660   29.6980   41.7520 C   0  0  2  0  0  0
   -9.2880   29.2510   40.3410 C   0  0  0  0  0  0
   -8.9880   28.1070   39.9820 O   0  0  0  0  0  0
   -7.5640   29.9410   41.9860 C   0  0  0  0  0  0
   -7.3000   30.6400   43.2570 C   0  0  0  0  0  0
   -7.1400   29.9250   44.4330 C   0  0  0  0  0  0
   -7.3410   32.0250   43.3050 C   0  0  0  0  0  0
   -6.9360   30.5990   45.6390 C   0  0  0  0  0  0
   -7.1490   32.6890   44.4700 C   0  0  0  0  0  0
   -6.9480   31.9890   45.6510 C   0  0  0  0  0  0
   -9.8250   30.1870   39.5690 N   0  0  0  0  0  0
   -9.9850   30.0640   38.1500 C   0  0  2  0  0  0
   -8.8600   30.8220   37.4220 C   0  0  0  0  0  0
   -8.3710   31.8510   37.8940 O   0  0  0  0  0  0
  -11.3420   30.6600   37.7500 C   0  0  0  0  0  0
  -12.5770   30.1720   38.5440 C   0  0  0  0  0  0
  -12.8910   28.6730   38.3530 C   0  0  0  0  0  0
  -12.4350   28.0740   37.3560 O   0  5  0  0  0  0
  -13.5550   28.0880   39.2320 O   0  0  0  0  0  0
   -8.4320   30.2990   36.2820 N   0  0  0  0  0  0
   -7.5980   31.0520   35.3580 C   0  0  2  0  0  0
   -8.1860   30.9220   33.9330 C   0  0  0  0  0  0
   -9.2900   30.3990   33.7390 O   0  0  0  0  0  0
   -6.1570   30.5390   35.4200 C   0  0  0  0  0  0
   -7.4700   31.4070   32.9390 N   0  0  0  0  0  0
   -7.9140   31.2410   31.5820 C   0  0  2  0  0  0
   -7.2420   30.0410   30.9470 C   0  0  0  0  0  0
   -6.0910   29.6990   31.3130 O   0  0  0  0  0  0
   -7.6270   32.5150   30.7780 C   0  0  0  0  0  0
   -7.9680   29.4040   29.9990 N   0  0  0  0  0  0
   -7.4110   28.3620   29.1000 C   0  0  2  0  0  0
   -6.1240   28.8690   28.4510 C   0  0  0  0  0  0
   -6.1760   29.7770   27.6340 O   0  0  0  0  0  0
   -8.3800   27.9890   27.9720 C   0  0  0  0  0  0
   -9.6690   27.2750   28.4240 C   0  0  0  0  0  0
  -10.9490   28.0350   28.0240 C   0  0  0  0  0  0
  -11.0380   29.2670   28.3590 O   0  5  0  0  0  0
  -11.8660   27.4120   27.4120 O   0  0  0  0  0  0
   -4.9920   28.3040   28.8540 N   0  0  0  0  0  0
   -3.6980   28.5150   28.2040 C   0  0  2  0  0  0
   -3.4620   27.4210   27.1690 C   0  0  0  0  0  0
   -3.3740   26.2500   27.5620 O   0  0  0  0  0  0
   -2.5340   28.4550   29.2680 C   0  0  2  0  0  0
   -2.7280   29.4580   30.2880 O   0  0  0  0  0  0
   -1.1710   28.8070   28.6260 C   0  0  0  0  0  0
   -3.3534   27.7167   25.8768 O   0  5  0  0  0  0
  -19.9312   33.7347   54.4694 H   0  0  0  0  0  0
  -18.3133   34.1974   53.8409 H   0  0  0  0  0  0
  -18.5345   32.6251   54.6808 H   0  0  0  0  0  0
  -20.0357   31.8822   52.8459 H   0  0  0  0  0  0
  -20.5498   34.4517   52.2996 H   0  0  0  0  0  0
  -19.1809   34.2197   51.1599 H   0  0  0  0  0  0
  -18.5968   30.2003   52.2441 H   0  0  0  0  0  0
  -15.8298   31.2703   52.2742 H   0  0  0  0  0  0
  -16.9530   28.7606   52.9922 H   0  0  0  0  0  0
  -15.7831   28.4465   51.6658 H   0  0  0  0  0  0
  -14.1883   30.3060   50.7694 H   0  0  0  0  0  0
  -15.2375   31.4551   48.2220 H   0  0  0  0  0  0
  -12.5094   31.0001   49.4958 H   0  0  0  0  0  0
  -12.5612   31.1737   47.7087 H   0  0  0  0  0  0
  -13.2727   32.8448   50.9439 H   0  0  0  0  0  0
  -13.0419   33.2545   46.6643 H   0  0  0  0  0  0
  -13.2890   35.3593   51.1687 H   0  0  0  0  0  0
  -13.1576   35.7293   46.8637 H   0  0  0  0  0  0
  -13.2561   36.7867   49.1175 H   0  0  0  0  0  0
  -15.0650   30.7372   46.2065 H   0  0  0  0  0  0
  -14.9306   27.7931   45.7792 H   0  0  0  0  0  0
  -14.9478   29.0758   44.5219 H   0  0  0  0  0  0
  -13.5487   27.2623   43.6134 H   0  0  0  0  0  0
  -10.7068   27.3721   44.6499 H   0  0  0  0  0  0
  -11.3089   26.5031   43.1977 H   0  0  0  0  0  0
   -8.9190   28.0038   43.1710 H   0  0  0  0  0  0
   -9.6359   30.6157   41.9595 H   0  0  0  0  0  0
   -7.0363   28.9762   42.0126 H   0  0  0  0  0  0
   -7.1606   30.5572   41.1689 H   0  0  0  0  0  0
   -7.1734   28.8356   44.4168 H   0  0  0  0  0  0
   -7.5306   32.5882   42.3913 H   0  0  0  0  0  0
   -6.7692   30.0414   46.5606 H   0  0  0  0  0  0
   -7.1524   33.7790   44.4797 H   0  0  0  0  0  0
   -6.7997   32.5281   46.5867 H   0  0  0  0  0  0
  -10.1572   31.1012   40.0828 H   0  0  0  0  0  0
   -9.9324   28.9860   37.9376 H   0  0  0  0  0  0
  -11.3157   31.7519   37.8805 H   0  0  0  0  0  0
  -11.5511   30.4216   36.6967 H   0  0  0  0  0  0
  -12.4097   30.3351   39.6189 H   0  0  0  0  0  0
  -13.4658   30.7344   38.2218 H   0  0  0  0  0  0
   -8.7241   29.2659   36.0424 H   0  0  0  0  0  0
   -7.6123   32.1012   35.6880 H   0  0  0  0  0  0
   -5.7732   30.6469   36.4452 H   0  0  0  0  0  0
   -5.5299   31.1230   34.7303 H   0  0  0  0  0  0
   -6.1325   29.4785   35.1290 H   0  0  0  0  0  0
   -6.5309   31.9398   33.1491 H   0  0  0  0  0  0
   -8.9965   31.0558   31.6453 H   0  0  0  0  0  0
   -8.1243   33.3710   31.2575 H   0  0  0  0  0  0
   -8.0090   32.3958   29.7534 H   0  0  0  0  0  0
   -6.5418   32.6920   30.7464 H   0  0  0  0  0  0
   -9.0252   29.6958   29.9141 H   0  0  0  0  0  0
   -7.2342   27.4920   29.7495 H   0  0  0  0  0  0
   -8.6957   28.9006   27.4435 H   0  0  0  0  0  0
   -7.8776   27.3113   27.2661 H   0  0  0  0  0  0
   -9.7154   26.2766   27.9647 H   0  0  0  0  0  0
   -9.6679   27.1749   29.5194 H   0  0  0  0  0  0
   -5.0659   27.6441   29.7309 H   0  0  0  0  0  0
   -3.7743   29.4975   27.7153 H   0  0  0  0  0  0
   -2.5375   27.4652   29.7479 H   0  0  0  0  0  0
   -3.6359   29.4426   30.9089 H   0  0  0  0  0  0
   -0.9434   28.0837   27.8291 H   0  0  0  0  0  0
   -0.3834   28.7676   29.3929 H   0  0  0  0  0  0
   -1.2173   29.8199   28.1996 H   0  0  0  0  0  0
  1  2  1  0  0  0
  1 83  1  0  0  0
  1 84  1  0  0  0
  1 85  1  0  0  0
  2  5  1  0  0  0
  2  3  1  0  0  0
  2 86  1  0  0  0
  3  4  2  0  0  0
  3  9  1  0  0  0
  5  6  1  0  0  0
  5 87  1  0  0  0
  5 88  1  0  0  0
  6  7  1  0  0  0
  6  8  2  0  0  0
  9 10  1  0  0  0
  9 89  1  0  0  0
 10 13  1  0  0  0
 10 11  1  0  0  0
 10 90  1  0  0  0
 11 12  2  0  0  0
 11 17  1  0  0  0
 13 14  1  0  0  0
 13 91  1  0  0  0
 13 92  1  0  0  0
 14 15  1  0  0  0
 14 16  2  0  0  0
 17 18  1  0  0  0
 17 93  1  0  0  0
 18 21  1  0  0  0
 18 19  1  0  0  0
 18 94  1  0  0  0
 19 20  2  0  0  0
 19 28  1  0  0  0
 21 22  1  0  0  0
 21 95  1  0  0  0
 21 96  1  0  0  0
 22 23  2  0  0  0
 22 24  1  0  0  0
 23 25  1  0  0  0
 23 97  1  0  0  0
 24 26  2  0  0  0
 24 98  1  0  0  0
 25 27  2  0  0  0
 25 99  1  0  0  0
 26 27  1  0  0  0
 26100  1  0  0  0
 27101  1  0  0  0
 28 29  1  0  0  0
 28102  1  0  0  0
 29 30  1  0  0  0
 29103  1  0  0  0
 29104  1  0  0  0
 30 31  2  0  0  0
 30 32  1  0  0  0
 32 33  1  0  0  0
 32105  1  0  0  0
 33 34  1  0  0  0
 33106  1  0  0  0
 33107  1  0  0  0
 34 35  2  0  0  0
 34 36  1  0  0  0
 36 37  1  0  0  0
 36108  1  0  0  0
 37 40  1  0  0  0
 37 38  1  0  0  0
 37109  1  0  0  0
 38 39  2  0  0  0
 38 47  1  0  0  0
 40 41  1  0  0  0
 40110  1  0  0  0
 40111  1  0  0  0
 41 42  2  0  0  0
 41 43  1  0  0  0
 42 44  1  0  0  0
 42112  1  0  0  0
 43 45  2  0  0  0
 43113  1  0  0  0
 44 46  2  0  0  0
 44114  1  0  0  0
 45 46  1  0  0  0
 45115  1  0  0  0
 46116  1  0  0  0
 47 48  1  0  0  0
 47117  1  0  0  0
 48 51  1  0  0  0
 48 49  1  0  0  0
 48118  1  0  0  0
 49 50  2  0  0  0
 49 56  1  0  0  0
 51 52  1  0  0  0
 51119  1  0  0  0
 51120  1  0  0  0
 52 53  1  0  0  0
 52121  1  0  0  0
 52122  1  0  0  0
 53 55  2  0  0  0
 53 54  1  0  0  0
 56 57  1  0  0  0
 56123  1  0  0  0
 57 60  1  0  0  0
 57 58  1  0  0  0
 57124  1  0  0  0
 58 59  2  0  0  0
 58 61  1  0  0  0
 60125  1  0  0  0
 60126  1  0  0  0
 60127  1  0  0  0
 61 62  1  0  0  0
 61128  1  0  0  0
 62 65  1  0  0  0
 62 63  1  0  0  0
 62129  1  0  0  0
 63 64  2  0  0  0
 63 66  1  0  0  0
 65130  1  0  0  0
 65131  1  0  0  0
 65132  1  0  0  0
 66 67  1  0  0  0
 66133  1  0  0  0
 67 70  1  0  0  0
 67 68  1  0  0  0
 67134  1  0  0  0
 68 69  2  0  0  0
 68 75  1  0  0  0
 70 71  1  0  0  0
 70135  1  0  0  0
 70136  1  0  0  0
 71 72  1  0  0  0
 71137  1  0  0  0
 71138  1  0  0  0
 72 74  2  0  0  0
 72 73  1  0  0  0
 75 76  1  0  0  0
 75139  1  0  0  0
 76 79  1  0  0  0
 76 77  1  0  0  0
 76140  1  0  0  0
 77 78  2  0  0  0
 77 82  1  0  0  0
 79 81  1  0  0  0
 79 80  1  0  0  0
 79141  1  0  0  0
 80142  1  0  0  0
 81143  1  0  0  0
 81144  1  0  0  0
 81145  1  0  0  0
M  CHG  6   1   1   7  -1  15  -1  54  -1  73  -1  82  -1
M  END
> <s_m_source_file>
../1om9_ligand.sdf

> <i_m_source_file_index>
1

> <s_epik_input>
W09IXUMoPU8pW0NIMl1bQ0BIXShbTkgzK10pQyg9TylbTkhdW0NAQEhdKFtDSDJdQyg9TylbT0hdKUMoPU8pW05IXVtDQEBIXShbQ0gyXWMxW2NIXVtjSF1bY0hdW2NIXVtjSF0xKUMoPU8pW05IXVtDSDJdQyg9TylbTkhdW0NIMl1DKD1PKVtOSF1bQ0BASF0oW0NIMl1jMltjSF1bY0hdW2NIXVtjSF1bY0hdMilDKD1PKVtOSF1bQ0BASF0oW0NIMl1bQ0gyXUMoPU8pW09IXSlDKD1PKVtOSF1bQ0BASF0oW0NIM10pQyg9TylbTkhdW0NAQEhdKFtDSDNdKUMoPU8pW05IXVtDQEBIXShbQ0gyXVtDSDJdQyg9TylbT0hdKUMoPU8pW05IXVtDQEhdKEMoPU8pW09IXSlbQ0BIXShbT0hdKVtDSDNd

> <s_epik_cmdline>
J2VwaWtfYXBwJywgJy1pbWFlJywgJ2xpZ2FuZF9wcm8ubWFlJywgJy1vbWFlJywgJ2xpZ2FuZF9wcmVwLm1hZScsICctbXMnLCAnMScsICctcGgnLCAnNycsICctcGh0JywgJzAuNScsICctbnQn

> <r_epik_Ionization_Penalty>
  0.0249

> <r_epik_Ionization_Penalty_Charging>
  0.0249

> <r_epik_Ionization_Penalty_Neutral>
  0.0000

> <r_epik_State_Penalty>
  0.0159

> <r_epik_Charging_Adjusted_Penalty>
0.0408545387451089

> <i_epik_Tot_Q>
-4

> <i_epik_Tot_abs_Q>
6

$$$$
