1ong_ligand
                    3D
 Schrodinger Suite 2020-3.
 32 34  0  0  1  0            999 V2000
    5.5150   36.1880    4.2430 S   0  0  0  0  0  0
    6.1350   37.7820    3.9190 C   0  0  0  0  0  0
    7.2430   38.3580    4.4250 C   0  0  0  0  0  0
    8.2020   37.6900    5.1990 N   0  0  0  0  0  0
    8.4760   36.4180    5.5610 C   0  0  0  0  0  0
    7.9150   35.2510    5.1620 C   0  0  0  0  0  0
    8.4910   34.1160    5.8480 C   0  0  0  0  0  0
    9.4820   34.2610    6.5300 O   0  5  0  0  0  0
    7.5060   39.7300    4.1280 C   0  0  0  0  0  0
    8.6090   40.1640    4.4150 O   0  0  0  0  0  0
    6.5480   40.4380    3.5330 O   0  5  0  0  0  0
    6.8760   35.0500    4.1130 C   0  0  2  0  0  0
    7.5500   34.9740    2.7200 C   0  0  0  0  0  0
    8.4940   34.0490    2.4070 N   0  0  0  0  0  0
    8.9180   34.2500    1.2060 C   0  0  0  0  0  0
    8.2420   35.3460    0.6750 N   0  0  0  0  0  0
    7.3870   35.7810    1.6210 C   0  0  0  0  0  0
    9.9830   33.4960    0.4230 C   0  0  0  0  0  0
   10.5280   34.4010   -0.5610 O   0  0  0  0  0  0
    9.5350   34.9920   -1.3930 C   0  0  0  0  0  0
    8.5370   35.9190   -0.6600 C   0  0  0  0  0  0
    5.5027   38.3354    3.2091 H   0  0  0  0  0  0
    9.2701   36.2138    6.2942 H   0  0  0  0  0  0
    8.0296   33.1222    5.7505 H   0  0  0  0  0  0
    6.5845   34.0042    4.2902 H   0  0  0  0  0  0
    6.6946   36.6180    1.5308 H   0  0  0  0  0  0
   10.7725   33.1576    1.1101 H   0  0  0  0  0  0
    9.5276   32.6244   -0.0698 H   0  0  0  0  0  0
   10.0218   35.6023   -2.1679 H   0  0  0  0  0  0
    8.9384   34.2008   -1.8705 H   0  0  0  0  0  0
    7.6055   35.9957   -1.2401 H   0  0  0  0  0  0
    8.9778   36.9197   -0.5403 H   0  0  0  0  0  0
  1  2  1  0  0  0
  1 12  1  0  0  0
  2  3  2  0  0  0
  2 22  1  0  0  0
  3  4  1  0  0  0
  3  9  1  0  0  0
  4  5  2  0  0  0
  5  6  1  0  0  0
  5 23  1  0  0  0
  6  7  2  0  0  0
  6 12  1  0  0  0
  7  8  1  0  0  0
  7 24  1  0  0  0
  9 10  2  0  0  0
  9 11  1  0  0  0
 12 13  1  0  0  0
 12 25  1  0  0  0
 13 14  1  0  0  0
 13 17  2  0  0  0
 14 15  2  0  0  0
 15 16  1  0  0  0
 15 18  1  0  0  0
 16 17  1  0  0  0
 16 21  1  0  0  0
 17 26  1  0  0  0
 18 19  1  0  0  0
 18 27  1  0  0  0
 18 28  1  0  0  0
 19 20  1  0  0  0
 20 21  1  0  0  0
 20 29  1  0  0  0
 20 30  1  0  0  0
 21 31  1  0  0  0
 21 32  1  0  0  0
M  CHG  2   8  -1  11  -1
M  END
> <s_m_source_file>
../1ong_ligand.sdf

> <i_m_source_file_index>
1

> <s_epik_input>
Tz1DKFtPSF0pQzE9W0NIXVNbQ0BIXShbQ0hdKFtDSF09TjEpW0NIXT1PKWMobjIpW2NIXW4oYzIzKVtDSDJdW0NIMl1PW0NIMl0z

> <s_epik_cmdline>
J2VwaWtfYXBwJywgJy1pbWFlJywgJ2xpZ2FuZF9wcm8ubWFlJywgJy1vbWFlJywgJ2xpZ2FuZF9wcmVwLm1hZScsICctbXMnLCAnMScsICctcGgnLCAnNycsICctcGh0JywgJzAuNScsICctbnQn

> <r_lp_tautomer_probability>
1

> <r_epik_Ionization_Penalty>
  0.2623

> <r_epik_Ionization_Penalty_Charging>
  0.2623

> <r_epik_Ionization_Penalty_Neutral>
  0.0000

> <r_epik_State_Penalty>
 -0.0000

> <r_epik_Charging_Adjusted_Penalty>
0.262304372808302

> <i_epik_Tot_Q>
-2

> <i_epik_Tot_abs_Q>
2

> <s_epik_Chemistry_Notes>
This compound has an imine and may undergo hydrolysis.

$$$$
