1onh_ligand
                    3D
 Schrodinger Suite 2020-3.
 33 35  0  0  1  0            999 V2000
   21.1470   21.6840    6.6230 S   0  0  0  0  0  0
   20.1030   22.4350    5.3830 C   0  0  0  0  0  0
   19.2750   21.6670    4.6560 C   0  0  0  0  0  0
   19.2190   20.2710    4.8640 N   0  0  0  0  0  0
   18.8790   19.4950    5.9510 C   0  0  0  0  0  0
   19.2840   19.7610    7.2160 C   0  0  0  0  0  0
   19.2270   18.6840    8.1520 C   0  0  0  0  0  0
   19.2360   18.7880    9.3680 O   0  0  0  0  0  0
   18.4710   22.2020    3.6040 C   0  0  0  0  0  0
   17.8390   21.4540    2.8540 O   0  0  0  0  0  0
   18.4490   23.5210    3.4430 O   0  5  0  0  0  0
   19.8670   21.0310    7.7230 C   0  0  2  0  0  0
   18.8590   22.1280    8.0660 C   0  0  0  0  0  0
   19.0470   23.1480    8.9180 N   0  0  0  0  0  0
   17.9420   23.8420    8.9700 C   0  0  0  0  0  0
   17.0150   23.2960    8.1190 N   0  0  0  0  0  0
   17.5980   22.2210    7.5350 C   0  0  0  0  0  0
   17.6240   25.0450    9.8010 C   0  0  0  0  0  0
   16.1860   25.2310    9.8050 O   0  0  0  0  0  0
   15.6130   25.2590    8.4790 C   0  0  0  0  0  0
   15.6330   23.8000    7.9390 C   0  0  0  0  0  0
   19.4382   23.1703    5.8598 H   0  0  0  0  0  0
   20.7296   22.9395    4.6328 H   0  0  0  0  0  0
   18.2440   18.6197    5.7494 H   0  0  0  0  0  0
   19.1708   17.6894    7.6855 H   0  0  0  0  0  0
   20.1136   20.6504    8.7252 H   0  0  0  0  0  0
   17.1528   21.5609    6.7906 H   0  0  0  0  0  0
   17.9860   24.8875   10.8277 H   0  0  0  0  0  0
   18.1167   25.9290    9.3700 H   0  0  0  0  0  0
   14.5817   25.6377    8.5332 H   0  0  0  0  0  0
   16.2124   25.9187    7.8344 H   0  0  0  0  0  0
   15.3698   23.7751    6.8712 H   0  0  0  0  0  0
   14.9346   23.1649    8.5037 H   0  0  0  0  0  0
  1  2  1  0  0  0
  1 12  1  0  0  0
  2  3  1  0  0  0
  2 22  1  0  0  0
  2 23  1  0  0  0
  3  4  2  0  0  0
  3  9  1  0  0  0
  4  5  1  0  0  0
  5  6  2  0  0  0
  5 24  1  0  0  0
  6  7  1  0  0  0
  6 12  1  0  0  0
  7  8  2  0  0  0
  7 25  1  0  0  0
  9 10  2  0  0  0
  9 11  1  0  0  0
 12 13  1  0  0  0
 12 26  1  0  0  0
 13 14  1  0  0  0
 13 17  2  0  0  0
 14 15  2  0  0  0
 15 16  1  0  0  0
 15 18  1  0  0  0
 16 17  1  0  0  0
 16 21  1  0  0  0
 17 27  1  0  0  0
 18 19  1  0  0  0
 18 28  1  0  0  0
 18 29  1  0  0  0
 19 20  1  0  0  0
 20 21  1  0  0  0
 20 30  1  0  0  0
 20 31  1  0  0  0
 21 32  1  0  0  0
 21 33  1  0  0  0
M  CHG  1  11  -1
M  END
> <s_m_source_file>
../1onh_ligand.sdf

> <i_m_source_file_index>
1

> <s_epik_input>
Tz1DKFtPSF0pQzE9TltDSF09QyhbQ0hdPU8pW0NAQEhdKFNbQ0gyXTEpYyhuMilbY0hdbihjMjMpW0NIMl1bQ0gyXU9bQ0gyXTM=

> <s_epik_cmdline>
J2VwaWtfYXBwJywgJy1pbWFlJywgJ2xpZ2FuZF9wcm8ubWFlJywgJy1vbWFlJywgJ2xpZ2FuZF9wcmVwLm1hZScsICctbXMnLCAnMScsICctcGgnLCAnNycsICctcGh0JywgJzAuNScsICctbnQn

> <r_lp_tautomer_probability>
1

> <r_epik_Ionization_Penalty>
  0.0019

> <r_epik_Ionization_Penalty_Charging>
  0.0019

> <r_epik_Ionization_Penalty_Neutral>
  0.0000

> <r_epik_State_Penalty>
 -0.0000

> <r_epik_Charging_Adjusted_Penalty>
0.00193630270313135

> <i_epik_Tot_Q>
-1

> <i_epik_Tot_abs_Q>
1

> <s_epik_Chemistry_Notes>
This compound has an imine and may undergo hydrolysis.

$$$$
