1ony_ligand
                    3D
 Schrodinger Suite 2020-3.
 73 74  0  0  1  0            999 V2000
   35.6710   29.8200   23.1440 O   0  0  0  0  0  0
   34.7590   29.1810   23.5790 C   0  0  0  0  0  0
   33.9560   29.6860   24.5490 O   0  5  0  0  0  0
   34.4170   27.7530   23.0400 C   0  0  0  0  0  0
   34.5910   26.8000   23.8100 O   0  0  0  0  0  0
   33.9380   27.5670   21.7210 N   0  0  0  0  0  0
   33.4330   28.6840   21.0240 C   0  0  0  0  0  0
   32.0940   29.0880   21.3370 C   0  0  0  0  0  0
   31.4900   30.1770   20.7050 C   0  0  0  0  0  0
   32.1920   30.9170   19.7280 C   0  0  0  0  0  0
   33.5260   30.5440   19.4040 C   0  0  0  0  0  0
   34.1720   29.4380   20.0350 C   0  0  0  0  0  0
   35.5990   29.0990   19.6500 C   0  0  0  0  0  0
   35.7820   28.4400   18.2810 C   0  0  0  0  0  0
   37.2900   28.3820   17.9450 C   0  0  0  0  0  0
   37.7490   28.9720   16.9830 O   0  0  0  0  0  0
   38.0360   27.6410   18.7820 N   0  0  0  0  0  0
   31.5120   32.0760   19.0380 C   0  0  0  0  0  0
   30.9930   31.7420   17.5980 C   0  0  2  0  0  0
   30.3710   32.9350   17.0340 N   0  0  3  0  0  0
   30.4780   33.2110   15.3140 S   0  0  0  0  0  0
   29.3820   32.4670   14.7820 O   0  0  0  0  0  0
   31.8110   32.8000   14.9720 O   0  0  0  0  0  0
   30.2970   34.9470   15.0040 C   0  0  0  0  0  0
   30.0070   30.5400   17.6000 C   0  0  0  0  0  0
   30.4060   29.3810   17.5270 O   0  0  0  0  0  0
   28.7050   30.9010   17.7040 N   0  0  0  0  0  0
   27.6170   29.9150   17.7340 C   0  0  0  0  0  0
   26.4960   30.4050   18.6600 C   0  0  0  0  0  0
   26.9050   30.3720   20.1420 C   0  0  0  0  0  0
   26.2100   31.4580   20.9630 C   0  0  0  0  0  0
   26.0020   31.0420   22.4230 C   0  0  0  0  0  0
   33.9160   26.2600   21.0860 C   0  0  0  0  0  0
   32.6720   25.8320   20.4640 C   0  0  0  0  0  0
   32.5230   24.5920   19.8160 C   0  0  0  0  0  0
   33.6050   23.7000   19.7520 C   0  0  0  0  0  0
   34.8370   24.0550   20.3350 C   0  0  0  0  0  0
   35.0350   25.3020   21.0030 C   0  0  0  0  0  0
   36.4070   25.5070   21.5620 C   0  0  0  0  0  0
   36.9110   24.6060   22.1860 O   0  0  0  0  0  0
   37.0490   26.5370   21.4530 O   0  5  0  0  0  0
   31.5328   28.5311   22.0874 H   0  0  0  0  0  0
   30.4700   30.4578   20.9674 H   0  0  0  0  0  0
   34.0697   31.1181   18.6537 H   0  0  0  0  0  0
   36.2020   30.0188   19.6308 H   0  0  0  0  0  0
   36.0211   28.3992   20.3863 H   0  0  0  0  0  0
   35.3691   27.4207   18.3066 H   0  0  0  0  0  0
   35.2550   29.0300   17.5167 H   0  0  0  0  0  0
   37.5637   27.1311   19.6346 H   0  0  0  0  0  0
   39.1189   27.5444   18.6145 H   0  0  0  0  0  0
   30.6428   32.3968   19.6309 H   0  0  0  0  0  0
   32.2199   32.9126   18.9428 H   0  0  0  0  0  0
   31.8271   31.4931   16.9255 H   0  0  0  0  0  0
   29.7086   33.5558   17.6551 H   0  0  0  0  0  0
   29.2761   35.2617   15.2659 H   0  0  0  0  0  0
   30.4815   35.1504   13.9388 H   0  0  0  0  0  0
   31.0211   35.5060   15.6149 H   0  0  0  0  0  0
   28.4758   31.9750   17.7670 H   0  0  0  0  0  0
   27.2165   29.7799   16.7184 H   0  0  0  0  0  0
   28.0026   28.9546   18.1068 H   0  0  0  0  0  0
   26.2346   31.4420   18.4024 H   0  0  0  0  0  0
   25.6116   29.7626   18.5369 H   0  0  0  0  0  0
   26.6380   29.3964   20.5744 H   0  0  0  0  0  0
   27.9910   30.5255   20.2262 H   0  0  0  0  0  0
   26.8215   32.3723   20.9538 H   0  0  0  0  0  0
   25.2233   31.6725   20.5267 H   0  0  0  0  0  0
   25.5002   31.8551   22.9680 H   0  0  0  0  0  0
   26.9773   30.8361   22.8881 H   0  0  0  0  0  0
   25.3791   30.1362   22.4610 H   0  0  0  0  0  0
   31.8147   26.5041   20.5019 H   0  0  0  0  0  0
   31.5680   24.3242   19.3640 H   0  0  0  0  0  0
   33.4923   22.7372   19.2535 H   0  0  0  0  0  0
   35.6689   23.3533   20.2743 H   0  0  0  0  0  0
  1  2  2  0  0  0
  2  3  1  0  0  0
  2  4  1  0  0  0
  4  5  2  0  0  0
  4  6  1  0  0  0
  6  7  1  0  0  0
  6 33  1  0  0  0
  7  8  2  0  0  0
  7 12  1  0  0  0
  8  9  1  0  0  0
  8 42  1  0  0  0
  9 10  2  0  0  0
  9 43  1  0  0  0
 10 11  1  0  0  0
 10 18  1  0  0  0
 11 12  2  0  0  0
 11 44  1  0  0  0
 12 13  1  0  0  0
 13 14  1  0  0  0
 13 45  1  0  0  0
 13 46  1  0  0  0
 14 15  1  0  0  0
 14 47  1  0  0  0
 14 48  1  0  0  0
 15 16  2  0  0  0
 15 17  1  0  0  0
 17 49  1  0  0  0
 17 50  1  0  0  0
 18 19  1  0  0  0
 18 51  1  0  0  0
 18 52  1  0  0  0
 19 20  1  0  0  0
 19 25  1  0  0  0
 19 53  1  0  0  0
 20 21  1  0  0  0
 20 54  1  0  0  0
 21 22  2  0  0  0
 21 23  2  0  0  0
 21 24  1  0  0  0
 24 55  1  0  0  0
 24 56  1  0  0  0
 24 57  1  0  0  0
 25 26  2  0  0  0
 25 27  1  0  0  0
 27 28  1  0  0  0
 27 58  1  0  0  0
 28 29  1  0  0  0
 28 59  1  0  0  0
 28 60  1  0  0  0
 29 30  1  0  0  0
 29 61  1  0  0  0
 29 62  1  0  0  0
 30 31  1  0  0  0
 30 63  1  0  0  0
 30 64  1  0  0  0
 31 32  1  0  0  0
 31 65  1  0  0  0
 31 66  1  0  0  0
 32 67  1  0  0  0
 32 68  1  0  0  0
 32 69  1  0  0  0
 33 34  2  0  0  0
 33 38  1  0  0  0
 34 35  1  0  0  0
 34 70  1  0  0  0
 35 36  2  0  0  0
 35 71  1  0  0  0
 36 37  1  0  0  0
 36 72  1  0  0  0
 37 38  2  0  0  0
 37 73  1  0  0  0
 38 39  1  0  0  0
 39 40  2  0  0  0
 39 41  1  0  0  0
M  CHG  2   3  -1  41  -1
M  END
> <s_m_source_file>
../1ony_ligand.sdf

> <i_m_source_file_index>
1

> <s_epik_input>
Tz1DKFtPSF0pYzFbY0hdW2NIXVtjSF1bY0hdYzFOKEMoPU8pQyg9TylbT0hdKWMyW2NIXVtjSF1jKFtjSF1jMltDSDJdW0NIMl1DKD1PKVtOSDJdKVtDSDJdW0NASF0oW05IXVMoPU8pKD1PKVtDSDNdKUMoPU8pW05IXVtDSDJdW0NIMl1bQ0gyXVtDSDJdW0NIM10=

> <s_epik_cmdline>
J2VwaWtfYXBwJywgJy1pbWFlJywgJ2xpZ2FuZF9wcm8ubWFlJywgJy1vbWFlJywgJ2xpZ2FuZF9wcmVwLm1hZScsICctbXMnLCAnMScsICctcGgnLCAnNycsICctcGh0JywgJzAuNScsICctbnQn

> <r_epik_Ionization_Penalty>
  0.8289

> <r_epik_Ionization_Penalty_Charging>
  0.0005

> <r_epik_Ionization_Penalty_Neutral>
  0.8284

> <r_epik_State_Penalty>
  0.0000

> <r_epik_Charging_Adjusted_Penalty>
0.00046458614981894

> <i_epik_Tot_Q>
-2

> <i_epik_Tot_abs_Q>
2

$$$$
