1opi_ligand
                    3D
 Schrodinger Suite 2020-3.
242244  0  0  1  0            999 V2000
   11.1250    5.2070   19.5130 N   0  3  0  0  0  0
   10.7440    4.5740   18.2450 C   0  0  2  0  0  0
   11.6480    3.3990   17.8890 C   0  0  0  0  0  0
   12.8440    3.5730   17.6560 O   0  0  0  0  0  0
   10.8980    5.6960   17.2150 C   0  0  0  0  0  0
   10.8150    6.9560   17.9940 C   0  0  0  0  0  0
   11.3790    6.6510   19.3530 C   0  0  0  0  0  0
   11.0670    2.2030   17.8510 N   0  0  0  0  0  0
   11.8190    0.9970   17.5220 C   0  0  2  0  0  0
   11.5580    0.5710   16.0810 C   0  0  0  0  0  0
   10.9990    1.3320   15.2910 O   0  0  0  0  0  0
   11.4450   -0.1370   18.4770 C   0  0  0  0  0  0
   12.6010   -0.7910   18.9700 O   0  0  0  0  0  0
   11.9650   -0.6520   15.7490 N   0  0  0  0  0  0
   11.7770   -1.1870   14.4030 C   0  0  2  0  0  0
   12.3940   -0.2600   13.3580 C   0  0  0  0  0  0
   11.7380    0.1260   12.3900 O   0  0  0  0  0  0
   10.2870   -1.3880   14.1150 C   0  0  0  0  0  0
    9.7710   -2.7610   14.5120 C   0  0  0  0  0  0
    8.9510   -2.7010   15.7910 C   0  0  0  0  0  0
    7.9230   -3.8180   15.8450 C   0  0  0  0  0  0
    6.9170   -3.5960   16.9190 N   0  3  0  0  0  0
   13.6610    0.0910   13.5610 N   0  0  0  0  0  0
   14.3670    0.9740   12.6380 C   0  0  2  0  0  0
   15.5550    0.2600   11.9980 C   0  0  0  0  0  0
   15.8650    0.4800   10.8270 O   0  0  0  0  0  0
   14.8420    2.2340   13.3670 C   0  0  0  0  0  0
   15.8330    1.9560   14.4860 C   0  0  0  0  0  0
   15.4050    2.6160   15.7860 C   0  0  0  0  0  0
   15.5690    1.6760   16.9690 C   0  0  0  0  0  0
   16.9820    1.2390   17.1400 N   0  3  0  0  0  0
   16.2160   -0.5930   12.7730 N   0  0  0  0  0  0
   17.3680   -1.3390   12.2820 C   0  0  2  0  0  0
   17.4400   -2.7160   12.9330 C   0  0  0  0  0  0
   18.0290   -2.8800   14.0010 O   0  0  0  0  0  0
   18.6590   -0.5640   12.5540 C   0  0  0  0  0  0
   19.0360    0.3990   11.4390 C   0  0  0  0  0  0
   20.5370    0.4150   11.1990 C   0  0  0  0  0  0
   21.0570   -0.9170   10.8960 N   0  0  0  0  0  0
   22.2580   -1.3430   11.2760 C   0  0  0  0  0  0
   23.0630   -0.5450   11.9650 N   0  0  0  0  0  0
   22.6560   -2.5690   10.9640 N   0  0  0  0  0  0
   16.8330   -3.7030   12.2810 N   0  0  0  0  0  0
   16.8260   -5.0670   12.7940 C   0  0  2  0  0  0
   16.4290   -6.0550   11.7030 C   0  0  0  0  0  0
   17.1480   -7.0170   11.4310 O   0  0  0  0  0  0
   15.8610   -5.1840   13.9760 C   0  0  0  0  0  0
   16.1130   -6.4050   14.8440 C   0  0  0  0  0  0
   17.1820   -6.1350   15.8890 C   0  0  0  0  0  0
   16.6770   -6.4300   17.2920 C   0  0  0  0  0  0
   16.8630   -7.8610   17.6590 N   0  3  0  0  0  0
   15.2800   -5.8090   11.0810 N   0  0  0  0  0  0
   14.7840   -6.6770   10.0210 C   0  0  2  0  0  0
   14.4400   -5.8720    8.7720 C   0  0  0  0  0  0
   13.4840   -5.0950    8.7670 O   0  0  0  0  0  0
   13.5520   -7.4470   10.5010 C   0  0  0  0  0  0
   13.3510   -8.7760    9.7940 C   0  0  0  0  0  0
   13.8540   -9.9370   10.6380 C   0  0  0  0  0  0
   13.5670  -11.2280   10.0200 N   0  0  0  0  0  0
   12.5550  -12.0100   10.3830 C   0  0  0  0  0  0
   11.7380  -11.6360   11.3600 N   0  0  0  0  0  0
   12.3580  -13.1690    9.7690 N   0  0  0  0  0  0
   15.2260   -6.0620    7.7160 N   0  0  0  0  0  0
   15.0000   -5.3550    6.4610 C   0  0  2  0  0  0
   13.6610   -5.7550    5.8520 C   0  0  0  0  0  0
   13.3890   -6.9390    5.6480 O   0  0  0  0  0  0
   16.1300   -5.6500    5.4730 C   0  0  0  0  0  0
   16.8480   -6.8110    5.8500 O   0  0  0  0  0  0
   12.8260   -4.7600    5.5650 N   0  0  0  0  0  0
   11.5120   -5.0090    4.9830 C   0  0  2  0  0  0
   11.4380   -4.4760    3.5560 C   0  0  0  0  0  0
   10.3560   -4.3740    2.9790 O   0  0  0  0  0  0
   10.4250   -4.3590    5.8380 C   0  0  0  0  0  0
   10.0440   -5.1790    7.0600 C   0  0  0  0  0  0
    8.6800   -5.8280    6.8920 C   0  0  0  0  0  0
    8.5190   -6.9950    7.7530 N   0  0  0  0  0  0
    7.4150   -7.2520    8.4470 C   0  0  0  0  0  0
    6.3780   -6.4290    8.3790 N   0  0  0  0  0  0
    7.3460   -8.3350    9.2110 N   0  0  0  0  0  0
   12.5930   -4.1350    2.9940 N   0  0  0  0  0  0
   12.6570   -3.6120    1.6340 C   0  0  2  0  0  0
   13.8880   -4.1440    0.9080 C   0  0  0  0  0  0
   14.6830   -3.3770    0.3640 O   0  0  0  0  0  0
   12.6730   -2.0810    1.6530 C   0  0  0  0  0  0
   11.5180   -1.4860    2.4030 C   0  0  0  0  0  0
   11.5170   -1.0590    3.6990 C   0  0  0  0  0  0
   10.1960   -1.2550    1.9020 C   0  0  0  0  0  0
   10.2760   -0.5780    4.0360 N   0  0  0  0  0  0
    9.4470   -0.6870    2.9500 C   0  0  0  0  0  0
    9.5720   -1.4740    0.6710 C   0  0  0  0  0  0
    8.1080   -0.3330    2.8030 C   0  0  0  0  0  0
    8.2420   -1.1230    0.5260 C   0  0  0  0  0  0
    7.5240   -0.5590    1.5870 C   0  0  0  0  0  0
   14.0380   -5.4650    0.9050 N   0  0  0  0  0  0
   15.1710   -6.1080    0.2460 C   0  0  2  0  0  0
   14.9380   -6.2120   -1.2580 C   0  0  0  0  0  0
   14.1650   -5.4430   -1.8300 O   0  0  0  0  0  0
   15.4070   -7.4990    0.8390 C   0  0  0  0  0  0
   16.8430   -7.7050    1.2780 C   0  0  0  0  0  0
   17.4910   -8.6770    0.8890 O   0  0  0  0  0  0
   17.3510   -6.7860    2.0920 N   0  0  0  0  0  0
   15.6160   -7.1640   -1.8940 N   0  0  0  0  0  0
   15.4790   -7.3720   -3.3330 C   0  0  2  0  0  0
   16.1500   -8.6740   -3.7610 C   0  0  0  0  0  0
   15.6470   -9.3850   -4.6310 O   0  0  0  0  0  0
   16.0800   -6.1940   -4.1020 C   0  0  0  0  0  0
   17.5660   -5.9890   -3.8470 C   0  0  0  0  0  0
   18.1150   -4.7710   -4.5630 C   0  0  0  0  0  0
   17.5450   -4.3040   -5.5490 O   0  0  0  0  0  0
   19.2300   -4.2470   -4.0670 N   0  0  0  0  0  0
   17.2880   -8.9810   -3.1430 N   0  0  0  0  0  0
   18.0280  -10.1970   -3.4580 C   0  0  2  0  0  0
   18.0420  -11.1470   -2.2650 C   0  0  0  0  0  0
   18.5140  -10.7330   -1.1860 O   0  0  0  0  0  0
   19.4620   -9.8550   -3.8680 C   0  0  0  0  0  0
   19.8460  -10.4700   -5.1990 C   0  0  0  0  0  0
   19.2100  -10.1260   -6.2180 O   0  0  0  0  0  0
   20.7810  -11.2980   -5.2230 O   0  0  0  0  0  0
   17.5810  -12.2970   -2.4210 O   0  0  0  0  0  0
   10.3138    5.0792   20.2449 H   0  0  0  0  0  0
   12.0424    4.7366   19.8966 H   0  0  0  0  0  0
    9.7267    4.1640   18.3284 H   0  0  0  0  0  0
   11.8695    5.5979   16.7085 H   0  0  0  0  0  0
   10.0889    5.6262   16.4730 H   0  0  0  0  0  0
   11.4018    7.7380   17.4899 H   0  0  0  0  0  0
    9.7645    7.2745   18.0654 H   0  0  0  0  0  0
   10.8663    7.2044   20.1535 H   0  0  0  0  0  0
   12.4608    6.8416   19.4104 H   0  0  0  0  0  0
    9.9922    2.1369   18.0755 H   0  0  0  0  0  0
   12.8785    1.2674   17.6419 H   0  0  0  0  0  0
   10.8819    0.2718   19.3289 H   0  0  0  0  0  0
   10.8237   -0.8734   17.9463 H   0  0  0  0  0  0
   12.4999   -1.6325   19.6712 H   0  0  0  0  0  0
   12.4546   -1.2641   16.5207 H   0  0  0  0  0  0
   12.3020   -2.1536   14.3930 H   0  0  0  0  0  0
    9.7018   -0.6428   14.6738 H   0  0  0  0  0  0
   10.1021   -1.2664   13.0375 H   0  0  0  0  0  0
    9.1337   -3.1595   13.7088 H   0  0  0  0  0  0
   10.6215   -3.4391   14.6758 H   0  0  0  0  0  0
    9.6187   -2.7997   16.6596 H   0  0  0  0  0  0
    8.4221   -1.7379   15.8426 H   0  0  0  0  0  0
    7.3925   -3.8749   14.8830 H   0  0  0  0  0  0
    8.4304   -4.7741   16.0410 H   0  0  0  0  0  0
    6.1948   -4.4257   16.9221 H   0  0  0  0  0  0
    6.3874   -2.6495   16.7354 H   0  0  0  0  0  0
    7.4253   -3.5487   17.8934 H   0  0  0  0  0  0
   14.1767   -0.3011   14.4500 H   0  0  0  0  0  0
   13.6324    1.2327   11.8612 H   0  0  0  0  0  0
   15.3367    2.9071   12.6514 H   0  0  0  0  0  0
   13.9777    2.7463   13.8149 H   0  0  0  0  0  0
   15.9025    0.8710   14.6530 H   0  0  0  0  0  0
   16.8219    2.3480   14.2058 H   0  0  0  0  0  0
   16.0213    3.5097   15.9637 H   0  0  0  0  0  0
   14.3467    2.9081   15.7179 H   0  0  0  0  0  0
   15.2530    2.1874   17.8902 H   0  0  0  0  0  0
   14.9482    0.7811   16.8151 H   0  0  0  0  0  0
   17.0545    0.5625   18.0043 H   0  0  0  0  0  0
   17.6201    2.1190   17.3086 H   0  0  0  0  0  0
   17.3153    0.7127   16.2334 H   0  0  0  0  0  0
   15.8735   -0.7293   13.8094 H   0  0  0  0  0  0
   17.2065   -1.4492   11.1995 H   0  0  0  0  0  0
   18.5447    0.0272   13.4745 H   0  0  0  0  0  0
   19.4930   -1.2712   12.6737 H   0  0  0  0  0  0
   18.5381    0.0937   10.5069 H   0  0  0  0  0  0
   18.7162    1.4162   11.7093 H   0  0  0  0  0  0
   20.7653    1.0745   10.3488 H   0  0  0  0  0  0
   21.0483    0.7868   12.0991 H   0  0  0  0  0  0
   20.4447   -1.6293   10.3236 H   0  0  0  0  0  0
   22.7371    0.4727   12.2260 H   0  0  0  0  0  0
   24.0565   -0.9009   12.2754 H   0  0  0  0  0  0
   21.9918   -3.2342   10.3928 H   0  0  0  0  0  0
   16.3277   -3.4696   11.3322 H   0  0  0  0  0  0
   17.8592   -5.2645   13.1158 H   0  0  0  0  0  0
   15.9592   -4.2967   14.6187 H   0  0  0  0  0  0
   14.8290   -5.2531   13.6014 H   0  0  0  0  0  0
   15.1836   -6.6851   15.3615 H   0  0  0  0  0  0
   16.4473   -7.2412   14.2124 H   0  0  0  0  0  0
   18.0563   -6.7730   15.6925 H   0  0  0  0  0  0
   17.4818   -5.0777   15.8422 H   0  0  0  0  0  0
   17.2285   -5.8137   18.0173 H   0  0  0  0  0  0
   15.6040   -6.1954   17.3524 H   0  0  0  0  0  0
   16.4855   -8.0302   18.6783 H   0  0  0  0  0  0
   17.9327   -8.1141   17.6174 H   0  0  0  0  0  0
   16.3082   -8.4958   16.9524 H   0  0  0  0  0  0
   14.7001   -4.9249   11.3845 H   0  0  0  0  0  0
   15.6104   -7.3680    9.7983 H   0  0  0  0  0  0
   13.6478   -7.6586   11.5762 H   0  0  0  0  0  0
   12.6501   -6.8422   10.3253 H   0  0  0  0  0  0
   12.2796   -8.9276    9.5960 H   0  0  0  0  0  0
   13.9028   -8.7723    8.8424 H   0  0  0  0  0  0
   14.9433   -9.8524   10.7659 H   0  0  0  0  0  0
   13.3661   -9.9123   11.6236 H   0  0  0  0  0  0
   14.2054  -11.6022    9.2061 H   0  0  0  0  0  0
   11.8969  -10.6758   11.8725 H   0  0  0  0  0  0
   10.9020  -12.2863   11.6571 H   0  0  0  0  0  0
   13.0321  -13.4837    8.9587 H   0  0  0  0  0  0
   16.0620   -6.7714    7.8048 H   0  0  0  0  0  0
   14.9870   -4.2864    6.7217 H   0  0  0  0  0  0
   15.7078   -5.8083    4.4697 H   0  0  0  0  0  0
   16.8264   -4.7989    5.4476 H   0  0  0  0  0  0
   17.6946   -7.1569    5.2387 H   0  0  0  0  0  0
   13.1473   -3.7296    5.7770 H   0  0  0  0  0  0
   11.3951   -6.1027    4.9754 H   0  0  0  0  0  0
   10.7760   -3.3795    6.1949 H   0  0  0  0  0  0
    9.5151   -4.2248    5.2346 H   0  0  0  0  0  0
   10.7900   -5.9721    7.2165 H   0  0  0  0  0  0
   10.0122   -4.5258    7.9445 H   0  0  0  0  0  0
    7.8944   -5.1018    7.1480 H   0  0  0  0  0  0
    8.5540   -6.1517    5.8483 H   0  0  0  0  0  0
    9.3391   -7.7211    7.8543 H   0  0  0  0  0  0
    6.4299   -5.5299    7.7473 H   0  0  0  0  0  0
    8.2036   -9.0213    9.2711 H   0  0  0  0  0  0
    6.4312   -8.5464    9.7842 H   0  0  0  0  0  0
   13.5155   -4.2556    3.5809 H   0  0  0  0  0  0
   11.7487   -3.9775    1.1326 H   0  0  0  0  0  0
   13.5975   -1.7299    2.1347 H   0  0  0  0  0  0
   12.6299   -1.7010    0.6216 H   0  0  0  0  0  0
   12.3761   -1.0946    4.3689 H   0  0  0  0  0  0
   10.1235   -1.9136   -0.1601 H   0  0  0  0  0  0
    7.5463    0.1078    3.6265 H   0  0  0  0  0  0
    7.7450   -1.2883   -0.4299 H   0  0  0  0  0  0
    6.4768   -0.2942    1.4410 H   0  0  0  0  0  0
   13.2801   -6.0762    1.4168 H   0  0  0  0  0  0
   16.0357   -5.4560    0.4388 H   0  0  0  0  0  0
   14.7604   -7.6374    1.7180 H   0  0  0  0  0  0
   15.1696   -8.2641    0.0851 H   0  0  0  0  0  0
   16.7336   -5.9341    2.4132 H   0  0  0  0  0  0
   18.3889   -6.8770    2.4447 H   0  0  0  0  0  0
   16.2931   -7.8028   -1.3079 H   0  0  0  0  0  0
   14.3967   -7.4365   -3.5189 H   0  0  0  0  0  0
   15.9535   -6.3585   -5.1822 H   0  0  0  0  0  0
   15.5673   -5.2656   -3.8100 H   0  0  0  0  0  0
   17.7378   -5.8542   -2.7689 H   0  0  0  0  0  0
   18.1234   -6.8692   -4.1999 H   0  0  0  0  0  0
   19.7044   -4.6989   -3.1834 H   0  0  0  0  0  0
   19.6791   -3.3611   -4.5398 H   0  0  0  0  0  0
   17.6675   -8.2891   -2.3767 H   0  0  0  0  0  0
   17.4875  -10.6611   -4.2962 H   0  0  0  0  0  0
   19.5679   -8.7636   -3.9555 H   0  0  0  0  0  0
   20.1608  -10.2313   -3.1063 H   0  0  0  0  0  0
   19.4665  -10.5557   -7.1976 H   0  0  0  0  0  0
   17.5764  -13.0064   -1.5804 H   0  0  0  0  0  0
  1  2  1  0  0  0
  1  7  1  0  0  0
  1120  1  0  0  0
  1121  1  0  0  0
  2  3  1  0  0  0
  2  5  1  0  0  0
  2122  1  0  0  0
  3  4  2  0  0  0
  3  8  1  0  0  0
  5  6  1  0  0  0
  5123  1  0  0  0
  5124  1  0  0  0
  6  7  1  0  0  0
  6125  1  0  0  0
  6126  1  0  0  0
  7127  1  0  0  0
  7128  1  0  0  0
  8  9  1  0  0  0
  8129  1  0  0  0
  9 10  1  0  0  0
  9 12  1  0  0  0
  9130  1  0  0  0
 10 11  2  0  0  0
 10 14  1  0  0  0
 12 13  1  0  0  0
 12131  1  0  0  0
 12132  1  0  0  0
 13133  1  0  0  0
 14 15  1  0  0  0
 14134  1  0  0  0
 15 16  1  0  0  0
 15 18  1  0  0  0
 15135  1  0  0  0
 16 17  2  0  0  0
 16 23  1  0  0  0
 18 19  1  0  0  0
 18136  1  0  0  0
 18137  1  0  0  0
 19 20  1  0  0  0
 19138  1  0  0  0
 19139  1  0  0  0
 20 21  1  0  0  0
 20140  1  0  0  0
 20141  1  0  0  0
 21 22  1  0  0  0
 21142  1  0  0  0
 21143  1  0  0  0
 22144  1  0  0  0
 22145  1  0  0  0
 22146  1  0  0  0
 23 24  1  0  0  0
 23147  1  0  0  0
 24 25  1  0  0  0
 24 27  1  0  0  0
 24148  1  0  0  0
 25 26  2  0  0  0
 25 32  1  0  0  0
 27 28  1  0  0  0
 27149  1  0  0  0
 27150  1  0  0  0
 28 29  1  0  0  0
 28151  1  0  0  0
 28152  1  0  0  0
 29 30  1  0  0  0
 29153  1  0  0  0
 29154  1  0  0  0
 30 31  1  0  0  0
 30155  1  0  0  0
 30156  1  0  0  0
 31157  1  0  0  0
 31158  1  0  0  0
 31159  1  0  0  0
 32 33  1  0  0  0
 32160  1  0  0  0
 33 34  1  0  0  0
 33 36  1  0  0  0
 33161  1  0  0  0
 34 35  2  0  0  0
 34 43  1  0  0  0
 36 37  1  0  0  0
 36162  1  0  0  0
 36163  1  0  0  0
 37 38  1  0  0  0
 37164  1  0  0  0
 37165  1  0  0  0
 38 39  1  0  0  0
 38166  1  0  0  0
 38167  1  0  0  0
 39 40  1  0  0  0
 39168  1  0  0  0
 40 41  1  0  0  0
 40 42  2  0  0  0
 41169  1  0  0  0
 41170  1  0  0  0
 42171  1  0  0  0
 43 44  1  0  0  0
 43172  1  0  0  0
 44 45  1  0  0  0
 44 47  1  0  0  0
 44173  1  0  0  0
 45 46  2  0  0  0
 45 52  1  0  0  0
 47 48  1  0  0  0
 47174  1  0  0  0
 47175  1  0  0  0
 48 49  1  0  0  0
 48176  1  0  0  0
 48177  1  0  0  0
 49 50  1  0  0  0
 49178  1  0  0  0
 49179  1  0  0  0
 50 51  1  0  0  0
 50180  1  0  0  0
 50181  1  0  0  0
 51182  1  0  0  0
 51183  1  0  0  0
 51184  1  0  0  0
 52 53  1  0  0  0
 52185  1  0  0  0
 53 54  1  0  0  0
 53 56  1  0  0  0
 53186  1  0  0  0
 54 55  2  0  0  0
 54 63  1  0  0  0
 56 57  1  0  0  0
 56187  1  0  0  0
 56188  1  0  0  0
 57 58  1  0  0  0
 57189  1  0  0  0
 57190  1  0  0  0
 58 59  1  0  0  0
 58191  1  0  0  0
 58192  1  0  0  0
 59 60  1  0  0  0
 59193  1  0  0  0
 60 61  1  0  0  0
 60 62  2  0  0  0
 61194  1  0  0  0
 61195  1  0  0  0
 62196  1  0  0  0
 63 64  1  0  0  0
 63197  1  0  0  0
 64 65  1  0  0  0
 64 67  1  0  0  0
 64198  1  0  0  0
 65 66  2  0  0  0
 65 69  1  0  0  0
 67 68  1  0  0  0
 67199  1  0  0  0
 67200  1  0  0  0
 68201  1  0  0  0
 69 70  1  0  0  0
 69202  1  0  0  0
 70 71  1  0  0  0
 70 73  1  0  0  0
 70203  1  0  0  0
 71 72  2  0  0  0
 71 80  1  0  0  0
 73 74  1  0  0  0
 73204  1  0  0  0
 73205  1  0  0  0
 74 75  1  0  0  0
 74206  1  0  0  0
 74207  1  0  0  0
 75 76  1  0  0  0
 75208  1  0  0  0
 75209  1  0  0  0
 76 77  1  0  0  0
 76210  1  0  0  0
 77 78  2  0  0  0
 77 79  1  0  0  0
 78211  1  0  0  0
 79212  1  0  0  0
 79213  1  0  0  0
 80 81  1  0  0  0
 80214  1  0  0  0
 81 82  1  0  0  0
 81 84  1  0  0  0
 81215  1  0  0  0
 82 83  2  0  0  0
 82 94  1  0  0  0
 84 85  1  0  0  0
 84216  1  0  0  0
 84217  1  0  0  0
 85 86  2  0  0  0
 85 87  1  0  0  0
 86 88  1  0  0  0
 86218  1  0  0  0
 87 89  2  0  0  0
 87 90  1  0  0  0
 88 89  1  0  0  0
 89 91  1  0  0  0
 90 92  2  0  0  0
 90219  1  0  0  0
 91 93  2  0  0  0
 91220  1  0  0  0
 92 93  1  0  0  0
 92221  1  0  0  0
 93222  1  0  0  0
 94 95  1  0  0  0
 94223  1  0  0  0
 95 96  1  0  0  0
 95 98  1  0  0  0
 95224  1  0  0  0
 96 97  2  0  0  0
 96102  1  0  0  0
 98 99  1  0  0  0
 98225  1  0  0  0
 98226  1  0  0  0
 99100  2  0  0  0
 99101  1  0  0  0
101227  1  0  0  0
101228  1  0  0  0
102103  1  0  0  0
102229  1  0  0  0
103104  1  0  0  0
103106  1  0  0  0
103230  1  0  0  0
104105  2  0  0  0
104111  1  0  0  0
106107  1  0  0  0
106231  1  0  0  0
106232  1  0  0  0
107108  1  0  0  0
107233  1  0  0  0
107234  1  0  0  0
108109  2  0  0  0
108110  1  0  0  0
110235  1  0  0  0
110236  1  0  0  0
111112  1  0  0  0
111237  1  0  0  0
112113  1  0  0  0
112115  1  0  0  0
112238  1  0  0  0
113114  2  0  0  0
113119  1  0  0  0
115116  1  0  0  0
115239  1  0  0  0
115240  1  0  0  0
116117  1  0  0  0
116118  2  0  0  0
117241  1  0  0  0
119242  1  0  0  0
M  CHG  4   1   1  22   1  31   1  51   1
M  END
> <s_m_source_file>
../1opi_ligand.sdf

> <i_m_source_file_index>
1

> <s_epik_input>
W0NIMl0xW0NIMl1bQ0gyXVtOSDIrXVtDQEBIXTFDKD1PKVtOSF1bQ0BASF0oW0NIMl1bT0hdKUMoPU8pW05IXVtDQEBIXShbQ0gyXVtDSDJdW0NIMl1bQ0gyXVtOSDMrXSlDKD1PKVtOSF1bQ0BASF0oW0NIMl1bQ0gyXVtDSDJdW0NIMl1bTkgzK10pQyg9TylbTkhdW0NAQEhdKFtDSDJdW0NIMl1bQ0gyXVtOSF0vQyhbTkgyXSk9TlxbSF0pQyg9TylbTkhdW0NAQEhdKFtDSDJdW0NIMl1bQ0gyXVtDSDJdW05IMytdKUMoPU8pW05IXVtDQEBIXShbQ0gyXVtDSDJdW0NIMl1bTkhdL0MoW05IMl0pPU5cW0hdKUMoPU8pW05IXVtDQEBIXShbQ0gyXVtPSF0pQyg9TylbTkhdW0NAQEhdKFtDSDJdW0NIMl1bQ0gyXVtOSF0vQyg9TlxbSF0pW05IMl0pQyg9TylbTkhdW0NAQEhdKFtDSDJdYzJbY0hdW25IXWMoYzIzKVtjSF1bY0hdW2NIXVtjSF0zKUMoPU8pW05IXVtDQEBIXShbQ0gyXUMoPU8pW05IMl0pQyg9TylbTkhdW0NAQEhdKFtDSDJdW0NIMl1DKD1PKVtOSDJdKUMoPU8pW05IXVtDQEhdKEMoPU8pW09IXSlbQ0gyXUMoPU8pW09IXQ==

> <s_epik_cmdline>
J2VwaWtfYXBwJywgJy1pbWFlJywgJ2xpZ2FuZF9wcm8ubWFlJywgJy1vbWFlJywgJ2xpZ2FuZF9wcmVwLm1hZScsICctbXMnLCAnMScsICctcGgnLCAnNycsICctcGh0JywgJzAuNScsICctbnQn

> <s_epik_pKa_notes>
Molecule size exceeds maximum supported for generating protonation states

> <s_epik_Chemistry_Notes>
This compound has an imine and may undergo hydrolysis.

$$$$
