1oqp_ligand
                    3D
 Schrodinger Suite 2020-3.
367371  0  0  1  0            999 V2000
  -12.7250   10.4610   14.7720 N   0  3  0  0  0  0
  -12.0820   11.1270   13.6240 C   0  0  2  0  0  0
  -12.1550   10.2260   12.3880 C   0  0  0  0  0  0
  -11.3170    9.3410   12.2170 O   0  0  0  0  0  0
  -10.6280   11.5050   13.9460 C   0  0  0  0  0  0
  -10.5240   12.4250   15.1710 C   0  0  0  0  0  0
   -9.1220   13.0360   15.3220 C   0  0  0  0  0  0
   -7.9910   12.0000   15.3880 C   0  0  0  0  0  0
   -8.1890   11.0210   16.4720 N   0  3  0  0  0  0
  -13.1630   10.4410   11.5340 N   0  0  0  0  0  0
  -13.4210    9.5910   10.3760 C   0  0  2  0  0  0
  -12.1490    9.3340    9.5690 C   0  0  0  0  0  0
  -11.8450    8.1870    9.2660 O   0  0  0  0  0  0
  -14.5300   10.1770    9.4940 C   0  0  0  0  0  0
  -15.8880   10.1570   10.2110 C   0  0  0  0  0  0
  -17.0500   10.5190    9.2740 C   0  0  0  0  0  0
  -17.3370    9.4160    8.2420 C   0  0  0  0  0  0
  -18.5630    9.7040    7.4780 N   0  3  0  0  0  0
  -11.3840   10.3860    9.2640 N   0  0  0  0  0  0
  -10.0940   10.2820    8.5890 C   0  0  2  0  0  0
   -9.2430    9.1530    9.1880 C   0  0  0  0  0  0
   -8.8150    8.2410    8.4810 O   0  0  0  0  0  0
   -9.3890   11.6440    8.6860 C   0  0  0  0  0  0
   -8.0000   11.7010    8.0370 C   0  0  0  0  0  0
   -8.0290   11.4060    6.5340 C   0  0  0  0  0  0
   -6.7690   11.8420    5.9130 N   0  0  0  0  0  0
   -6.6560   12.5990    4.8100 C   0  0  0  0  0  0
   -7.6750   12.7390    3.9570 N   0  0  0  0  0  0
   -5.5000   13.2250    4.5620 N   0  0  0  0  0  0
   -9.0330    9.2030   10.5060 N   0  0  0  0  0  0
   -8.2460    8.2170   11.2280 C   0  0  2  0  0  0
   -8.9000    6.8430   11.0950 C   0  0  0  0  0  0
   -8.2390    5.8690   10.7360 O   0  0  0  0  0  0
   -8.1170    8.6520   12.6940 C   0  0  0  0  0  0
   -7.1540    7.7700   13.4960 C   0  0  0  0  0  0
   -7.0850    8.2460   14.9440 C   0  0  0  0  0  0
   -7.9470    7.8000   15.7320 O   0  0  0  0  0  0
   -6.1990    9.0800   15.2300 O   0  0  0  0  0  0
  -10.2020    6.7600   11.3820 N   0  0  0  0  0  0
  -10.9320    5.4980   11.3390 C   0  0  2  0  0  0
  -10.8370    4.8400    9.9580 C   0  0  0  0  0  0
  -10.7470    3.6200    9.8600 O   0  0  0  0  0  0
  -12.3980    5.7080   11.7470 C   0  0  0  0  0  0
  -12.5800    6.2250   13.1850 C   0  0  0  0  0  0
  -14.0610    6.5370   13.4260 C   0  0  0  0  0  0
  -12.1070    5.2060   14.2290 C   0  0  0  0  0  0
  -10.8600    5.6340    8.8860 N   0  0  0  0  0  0
  -10.7780    5.1510    7.5150 C   0  0  2  0  0  0
   -9.3440    4.7180    7.2050 C   0  0  0  0  0  0
   -9.1250    3.5980    6.7430 O   0  0  0  0  0  0
  -11.3040    6.2260    6.5500 C   0  0  2  0  0  0
  -12.8020    6.4840    6.8010 C   0  0  0  0  0  0
  -11.1070    5.7700    5.0980 C   0  0  0  0  0  0
  -13.2540    7.8400    6.2440 C   0  0  0  0  0  0
   -8.3590    5.5780    7.4800 N   0  0  0  0  0  0
   -6.9460    5.2370    7.3390 C   0  0  2  0  0  0
   -6.6240    3.9160    8.0550 C   0  0  0  0  0  0
   -5.9260    3.0590    7.5100 O   0  0  0  0  0  0
   -6.0940    6.3960    7.8680 C   0  0  0  0  0  0
   -6.1230    7.5920    6.9010 C   0  0  0  0  0  0
   -5.4670    8.8410    7.4900 C   0  0  0  0  0  0
   -5.5790    9.0280    8.7220 O   0  0  0  0  0  0
   -4.8710    9.6000    6.6960 O   0  0  0  0  0  0
   -7.1840    3.7310    9.2550 N   0  0  0  0  0  0
   -7.0480    2.5020   10.0260 C   0  0  2  0  0  0
   -7.4410    1.2560    9.2230 C   0  0  0  0  0  0
   -6.9210    0.1770    9.4950 O   0  0  0  0  0  0
   -7.8440    2.5760   11.3330 C   0  0  0  0  0  0
   -7.3840    3.6540   12.1220 O   0  0  0  0  0  0
   -8.3450    1.3680    8.2460 N   0  0  0  0  0  0
   -8.7460    0.2290    7.4320 C   0  0  2  0  0  0
   -7.6240   -0.1480    6.4580 C   0  0  0  0  0  0
   -7.2250   -1.3100    6.4150 O   0  0  0  0  0  0
  -10.0700    0.5110    6.7180 C   0  0  0  0  0  0
  -11.1820    0.8660    7.7140 C   0  0  0  0  0  0
  -12.4900    1.1920    6.9840 C   0  0  0  0  0  0
  -13.6210    1.5150    7.9700 C   0  0  0  0  0  0
  -13.3590    2.7450    8.7410 N   0  3  0  0  0  0
   -7.0800    0.8230    5.7100 N   0  0  0  0  0  0
   -5.8860    0.6010    4.8880 C   0  0  2  0  0  0
   -4.7770   -0.0060    5.7460 C   0  0  0  0  0  0
   -4.1770   -1.0110    5.3630 O   0  0  0  0  0  0
   -5.4300    1.9040    4.2130 C   0  0  0  0  0  0
   -6.3450    2.4860    3.1770 C   0  0  0  0  0  0
   -6.9230    3.7060    3.2380 C   0  0  0  0  0  0
   -6.6600    1.9740    1.8470 C   0  0  0  0  0  0
   -7.6550    3.9380    2.0920 N   0  0  0  0  0  0
   -7.4860    2.9250    1.1760 C   0  0  0  0  0  0
   -6.2890    0.8240    1.1200 C   0  0  0  0  0  0
   -7.9360    2.7390   -0.1370 C   0  0  0  0  0  0
   -6.6900    0.6570   -0.2200 C   0  0  0  0  0  0
   -7.5380    1.5920   -0.8350 C   0  0  0  0  0  0
   -4.5460    0.5850    6.9230 N   0  0  0  0  0  0
   -3.6260    0.0440    7.9150 C   0  0  2  0  0  0
   -3.9430   -1.4300    8.1810 C   0  0  0  0  0  0
   -3.0810   -2.2940    8.0390 O   0  0  0  0  0  0
   -3.5730    0.9730    9.1480 C   0  0  0  0  0  0
   -3.6410    0.3410   10.5220 C   0  0  0  0  0  0
   -4.7200   -0.3250   11.0580 N   0  0  0  0  0  0
   -2.7560    0.5520   11.5460 C   0  0  0  0  0  0
   -4.4540   -0.5740   12.3500 C   0  0  0  0  0  0
   -3.2660   -0.0560   12.6950 N   0  0  0  0  0  0
   -5.1950   -1.7350    8.5170 N   0  0  0  0  0  0
   -5.6010   -3.0700    8.9120 C   0  0  2  0  0  0
   -5.4370   -4.0840    7.7810 C   0  0  0  0  0  0
   -5.0150   -5.2020    8.0550 O   0  0  0  0  0  0
   -7.0290   -3.0460    9.4710 C   0  0  0  0  0  0
   -7.4740   -4.4530    9.8830 C   0  0  0  0  0  0
   -8.6360   -4.3950   10.8810 C   0  0  0  0  0  0
   -9.2250   -5.7240   11.0910 N   0  0  0  0  0  0
   -8.6070   -6.7730   11.6520 C   0  0  0  0  0  0
   -7.3980   -6.6470   12.2060 N   0  0  0  0  0  0
   -9.1870   -7.9750   11.6530 N   0  0  0  0  0  0
   -5.7830   -3.7340    6.5340 N   0  0  0  0  0  0
   -5.7310   -4.7030    5.4370 C   0  0  2  0  0  0
   -4.3320   -5.3110    5.3210 C   0  0  0  0  0  0
   -4.1750   -6.5280    5.2660 O   0  0  0  0  0  0
   -6.1170   -4.0880    4.0800 C   0  0  0  0  0  0
   -7.5860   -3.6830    3.8750 C   0  0  0  0  0  0
   -7.7800   -3.2830    2.4050 C   0  0  0  0  0  0
   -8.6030   -4.7650    4.2480 C   0  0  0  0  0  0
   -3.3090   -4.4580    5.2460 N   0  0  0  0  0  0
   -1.9370   -4.9220    5.0990 C   0  0  2  0  0  0
   -1.3930   -5.3760    6.4500 C   0  0  0  0  0  0
   -0.8450   -6.4710    6.5490 O   0  0  0  0  0  0
   -1.0950   -3.8250    4.4420 C   0  0  0  0  0  0
   -1.4160   -3.8120    2.9380 C   0  0  0  0  0  0
   -1.4130   -2.3990    2.3540 C   0  0  0  0  0  0
   -0.4430   -4.7120    2.1690 C   0  0  0  0  0  0
   -1.5860   -4.5930    7.5160 N   0  0  0  0  0  0
   -1.1190   -4.9670    8.8520 C   0  0  2  0  0  0
   -2.0530   -6.0110    9.4930 C   0  0  0  0  0  0
   -2.2850   -5.9690   10.7020 O   0  0  0  0  0  0
   -1.0180   -3.7440    9.7860 C   0  0  0  0  0  0
   -0.2670   -2.4880    9.3610 C   0  0  0  0  0  0
    0.4920   -2.4000    8.1770 C   0  0  0  0  0  0
   -0.3550   -1.3630   10.2040 C   0  0  0  0  0  0
    1.0740   -1.1730    7.8020 C   0  0  0  0  0  0
    0.2390   -0.1450    9.8360 C   0  0  0  0  0  0
    0.9110   -0.0350    8.6130 C   0  0  0  0  0  0
   -2.5880   -6.9690    8.7290 N   0  0  0  0  0  0
   -3.5100   -7.9640    9.2600 C   0  0  2  0  0  0
   -2.6990   -9.0970    9.8880 C   0  0  0  0  0  0
   -2.7510  -10.2420    9.4370 O   0  0  0  0  0  0
   -4.4600   -8.4550    8.1620 C   0  0  0  0  0  0
   -5.6700   -9.1590    8.7200 C   0  0  0  0  0  0
   -5.6970  -10.4310    9.2470 N   0  0  0  0  0  0
   -6.9260   -8.6280    8.8450 C   0  0  0  0  0  0
   -6.9590  -10.6700    9.6480 C   0  0  0  0  0  0
   -7.7430   -9.6010    9.4270 N   0  0  0  0  0  0
   -1.9050   -8.7520   10.9060 N   0  0  0  0  0  0
   -0.9180   -9.6260   11.5250 C   0  0  2  0  0  0
   -1.6100  -10.7670   12.2700 C   0  0  0  0  0  0
   -1.7530  -10.7270   13.4910 O   0  0  0  0  0  0
   -0.0040   -8.8080   12.4480 C   0  0  0  0  0  0
    0.8590   -7.8290   11.6610 C   0  0  0  0  0  0
    1.8580   -8.3000   11.0750 O   0  0  0  0  0  0
    0.5030   -6.6310   11.6500 O   0  0  0  0  0  0
   -2.0450  -11.7780   11.5110 N   0  0  0  0  0  0
   -2.8830  -12.8890   11.9330 C   0  0  2  0  0  0
   -4.2630  -12.3430   12.2990 C   0  0  0  0  0  0
   -5.2250  -12.5420   11.5610 O   0  0  0  0  0  0
   -2.2590  -13.7360   13.0590 C   0  0  0  0  0  0
   -1.0000  -14.5240   12.6580 C   0  0  0  0  0  0
    0.2470  -13.6430   12.4820 C   0  0  0  0  0  0
    1.5280  -14.4780   12.3390 C   0  0  0  0  0  0
    1.8730  -15.1890   13.5820 N   0  3  0  0  0  0
   -4.3460  -11.6170   13.4130 N   0  0  0  0  0  0
   -5.5510  -10.9100   13.8140 C   0  0  2  0  0  0
   -5.8630   -9.7830   12.8240 C   0  0  0  0  0  0
   -4.9150   -9.2890   12.1730 O   0  0  0  0  0  0
   -5.3750  -10.3580   15.2360 C   0  0  0  0  0  0
   -5.1810  -11.4870   16.2580 C   0  0  0  0  0  0
   -4.8880  -10.9580   17.6700 C   0  0  0  0  0  0
   -6.0640  -10.1690   18.2580 C   0  0  0  0  0  0
   -5.8130   -9.8060   19.6630 N   0  3  0  0  0  0
   -7.0530   -9.4030   12.7570 O   0  0  0  0  0  0
  -13.7623   10.2029   14.5123 H   0  0  0  0  0  0
  -12.7217   11.1390   15.6382 H   0  0  0  0  0  0
  -12.1706    9.5443   15.0217 H   0  0  0  0  0  0
  -12.6542   12.0488   13.4426 H   0  0  0  0  0  0
  -10.0496   10.5929   14.1544 H   0  0  0  0  0  0
  -10.1868   12.0306   13.0863 H   0  0  0  0  0  0
  -11.2465   13.2487   15.0733 H   0  0  0  0  0  0
  -10.7453   11.8493   16.0818 H   0  0  0  0  0  0
   -8.9125   13.6898   14.4626 H   0  0  0  0  0  0
   -9.0765   13.6246   16.2502 H   0  0  0  0  0  0
   -7.9425   11.4490   14.4372 H   0  0  0  0  0  0
   -7.0338   12.5128   15.5638 H   0  0  0  0  0  0
   -7.3545   10.3043   16.4757 H   0  0  0  0  0  0
   -9.1344   10.4822   16.3113 H   0  0  0  0  0  0
   -8.2258   11.5460   17.4380 H   0  0  0  0  0  0
  -13.8123   11.3054   11.7374 H   0  0  0  0  0  0
  -13.7615    8.6373   10.8055 H   0  0  0  0  0  0
  -14.2850   11.2191    9.2409 H   0  0  0  0  0  0
  -14.6150    9.5856    8.5704 H   0  0  0  0  0  0
  -16.0761    9.1501   10.6121 H   0  0  0  0  0  0
  -15.8777   10.8843   11.0361 H   0  0  0  0  0  0
  -17.9636   10.6756    9.8664 H   0  0  0  0  0  0
  -16.8057   11.4411    8.7262 H   0  0  0  0  0  0
  -16.4947    9.3443    7.5381 H   0  0  0  0  0  0
  -17.4651    8.4539    8.7596 H   0  0  0  0  0  0
  -18.7394    8.8981    6.7504 H   0  0  0  0  0  0
  -18.4473   10.6597    6.9458 H   0  0  0  0  0  0
  -19.4177    9.7693    8.1673 H   0  0  0  0  0  0
  -11.7765   11.3726    9.5511 H   0  0  0  0  0  0
  -10.2977   10.0240    7.5393 H   0  0  0  0  0  0
  -10.0016   12.4102    8.1884 H   0  0  0  0  0  0
   -9.2542   11.9126    9.7442 H   0  0  0  0  0  0
   -7.5732   12.7058    8.1721 H   0  0  0  0  0  0
   -7.3430   10.9568    8.5109 H   0  0  0  0  0  0
   -8.1565   10.3251    6.3749 H   0  0  0  0  0  0
   -8.8676   11.9462    6.0704 H   0  0  0  0  0  0
   -5.8064   11.5464    6.3558 H   0  0  0  0  0  0
   -8.6296   12.2284    4.1520 H   0  0  0  0  0  0
   -4.6552   13.1161    5.2580 H   0  0  0  0  0  0
   -5.3943   13.8486    3.6620 H   0  0  0  0  0  0
   -9.4910   10.0442   11.0468 H   0  0  0  0  0  0
   -7.2494    8.1813   10.7639 H   0  0  0  0  0  0
   -7.7407    9.6847   12.7383 H   0  0  0  0  0  0
   -9.1024    8.5997   13.1801 H   0  0  0  0  0  0
   -7.5076    6.7286   13.4759 H   0  0  0  0  0  0
   -6.1496    7.8248   13.0509 H   0  0  0  0  0  0
   -7.9416    8.1116   16.7869 H   0  0  0  0  0  0
  -10.7238    7.6881   11.6583 H   0  0  0  0  0  0
  -10.4256    4.8549   12.0738 H   0  0  0  0  0  0
  -12.8634    6.4449   11.0759 H   0  0  0  0  0  0
  -12.9392    4.7531   11.6746 H   0  0  0  0  0  0
  -11.9680    7.1319   13.2984 H   0  0  0  0  0  0
  -14.4078    7.2677   12.6805 H   0  0  0  0  0  0
  -14.1881    6.9547   14.4356 H   0  0  0  0  0  0
  -14.6500    5.6125   13.3348 H   0  0  0  0  0  0
  -11.0441    4.9769   14.0624 H   0  0  0  0  0  0
  -12.6998    4.2840   14.1363 H   0  0  0  0  0  0
  -12.2379    5.6263   15.2371 H   0  0  0  0  0  0
  -10.9469    6.7124    9.0850 H   0  0  0  0  0  0
  -11.4275    4.2664    7.4395 H   0  0  0  0  0  0
  -10.7390    7.1540    6.7220 H   0  0  0  0  0  0
  -13.3963    5.6974    6.3131 H   0  0  0  0  0  0
  -12.9994    6.4746    7.8831 H   0  0  0  0  0  0
  -10.0385    5.5844    4.9137 H   0  0  0  0  0  0
  -11.4660    6.5544    4.4155 H   0  0  0  0  0  0
  -11.6753    4.8444    4.9241 H   0  0  0  0  0  0
  -14.3262    7.9802    6.4457 H   0  0  0  0  0  0
  -13.0784    7.8674    5.1585 H   0  0  0  0  0  0
  -12.6815    8.6446    6.7285 H   0  0  0  0  0  0
   -8.6510    6.5805    7.8261 H   0  0  0  0  0  0
   -6.7606    5.0981    6.2637 H   0  0  0  0  0  0
   -6.4844    6.7228    8.8431 H   0  0  0  0  0  0
   -5.0522    6.0624    7.9833 H   0  0  0  0  0  0
   -5.5838    7.3308    5.9785 H   0  0  0  0  0  0
   -7.1663    7.8416    6.6577 H   0  0  0  0  0  0
   -5.1225    9.9139    9.1876 H   0  0  0  0  0  0
   -7.7729    4.5693    9.6556 H   0  0  0  0  0  0
   -5.9706    2.4557   10.2431 H   0  0  0  0  0  0
   -8.9098    2.7247   11.1052 H   0  0  0  0  0  0
   -7.7163    1.6383   11.8937 H   0  0  0  0  0  0
   -7.8457    3.8563   13.0997 H   0  0  0  0  0  0
   -8.7898    2.3575    8.0645 H   0  0  0  0  0  0
   -8.9051   -0.6056    8.1307 H   0  0  0  0  0  0
   -9.9404    1.3558    6.0255 H   0  0  0  0  0  0
  -10.3798   -0.3812    6.1541 H   0  0  0  0  0  0
  -11.3568    0.0139    8.3874 H   0  0  0  0  0  0
  -10.8793    1.7436    8.3041 H   0  0  0  0  0  0
  -12.3381    2.0645    6.3315 H   0  0  0  0  0  0
  -12.7956    0.3280    6.3756 H   0  0  0  0  0  0
  -14.5613    1.6544    7.4165 H   0  0  0  0  0  0
  -13.7346    0.6847    8.6825 H   0  0  0  0  0  0
  -14.1960    2.9311    9.4301 H   0  0  0  0  0  0
  -13.2562    3.5954    8.0509 H   0  0  0  0  0  0
  -12.4294    2.6257    9.3169 H   0  0  0  0  0  0
   -7.5600    1.8126    5.7268 H   0  0  0  0  0  0
   -6.1753   -0.1148    4.1044 H   0  0  0  0  0  0
   -5.3068    2.6879    4.9748 H   0  0  0  0  0  0
   -4.4708    1.7358    3.7015 H   0  0  0  0  0  0
   -6.8253    4.4036    4.0698 H   0  0  0  0  0  0
   -5.6845    0.0549    1.6009 H   0  0  0  0  0  0
   -8.5862    3.4758   -0.6086 H   0  0  0  0  0  0
   -6.3386   -0.2064   -0.7849 H   0  0  0  0  0  0
   -7.8861    1.4253   -1.8544 H   0  0  0  0  0  0
   -5.0873    1.5205    7.1273 H   0  0  0  0  0  0
   -2.6148    0.0474    7.4820 H   0  0  0  0  0  0
   -2.6290    1.5377    9.1413 H   0  0  0  0  0  0
   -4.4199    1.6742    9.1155 H   0  0  0  0  0  0
   -1.7930    1.0822   11.5856 H   0  0  0  0  0  0
   -5.1121   -1.1212   13.0249 H   0  0  0  0  0  0
   -5.9350   -0.9217    8.4857 H   0  0  0  0  0  0
   -4.8956   -3.3536    9.7070 H   0  0  0  0  0  0
   -7.0666   -2.3892   10.3526 H   0  0  0  0  0  0
   -7.7176   -2.6668    8.7016 H   0  0  0  0  0  0
   -7.8028   -5.0090    8.9926 H   0  0  0  0  0  0
   -6.6318   -4.9806   10.3544 H   0  0  0  0  0  0
   -8.2708   -4.0171   11.8474 H   0  0  0  0  0  0
   -9.4169   -3.7228   10.4959 H   0  0  0  0  0  0
  -10.2602   -5.9227   10.7767 H   0  0  0  0  0  0
   -6.8980   -5.6673   12.2183 H   0  0  0  0  0  0
   -6.9024   -7.5230   12.6499 H   0  0  0  0  0  0
  -10.1823   -8.1058   11.2033 H   0  0  0  0  0  0
   -6.1096   -2.7015    6.3408 H   0  0  0  0  0  0
   -6.4752   -5.4589    5.7282 H   0  0  0  0  0  0
   -5.5367   -3.1680    3.9161 H   0  0  0  0  0  0
   -5.8993   -4.8069    3.2764 H   0  0  0  0  0  0
   -7.7845   -2.8466    4.5613 H   0  0  0  0  0  0
   -7.0493   -2.5056    2.1371 H   0  0  0  0  0  0
   -8.7988   -2.8934    2.2624 H   0  0  0  0  0  0
   -7.6309   -4.1635    1.7627 H   0  0  0  0  0  0
   -8.4640   -5.0515    5.3009 H   0  0  0  0  0  0
   -8.4538   -5.6454    3.6057 H   0  0  0  0  0  0
   -9.6218   -4.3754    4.1054 H   0  0  0  0  0  0
   -3.5225   -3.3802    5.2979 H   0  0  0  0  0  0
   -1.9481   -5.7979    4.4336 H   0  0  0  0  0  0
   -1.3449   -2.8525    4.8911 H   0  0  0  0  0  0
   -0.0274   -4.0382    4.5997 H   0  0  0  0  0  0
   -2.4364   -4.2054    2.8192 H   0  0  0  0  0  0
   -2.1160   -1.7679    2.9175 H   0  0  0  0  0  0
   -1.7202   -2.4379    1.2985 H   0  0  0  0  0  0
   -0.4007   -1.9747    2.4259 H   0  0  0  0  0  0
   -0.4583   -5.7230    2.6022 H   0  0  0  0  0  0
    0.5736   -4.2979    2.2401 H   0  0  0  0  0  0
   -0.7459   -4.7611    1.1127 H   0  0  0  0  0  0
   -2.1149   -3.6404    7.3649 H   0  0  0  0  0  0
   -0.1210   -5.3916    8.6685 H   0  0  0  0  0  0
   -2.0279   -3.3718   10.0132 H   0  0  0  0  0  0
   -0.5162   -4.0365   10.7202 H   0  0  0  0  0  0
    0.6289   -3.2817    7.5509 H   0  0  0  0  0  0
   -0.8893   -1.4386   11.1511 H   0  0  0  0  0  0
    1.6524   -1.1052    6.8806 H   0  0  0  0  0  0
    0.1768    0.7150   10.5028 H   0  0  0  0  0  0
    1.3063    0.9282    8.2904 H   0  0  0  0  0  0
   -2.3097   -6.9895    7.6650 H   0  0  0  0  0  0
   -4.1174   -7.4761   10.0365 H   0  0  0  0  0  0
   -4.8101   -7.5969    7.5694 H   0  0  0  0  0  0
   -3.9291   -9.1611    7.5065 H   0  0  0  0  0  0
   -7.3438   -7.6454    8.5805 H   0  0  0  0  0  0
   -7.2997  -11.6051   10.0924 H   0  0  0  0  0  0
   -2.0376   -7.7241   11.2746 H   0  0  0  0  0  0
   -0.3214  -10.0557   10.7069 H   0  0  0  0  0  0
   -0.6182   -8.2352   13.1584 H   0  0  0  0  0  0
    0.6601   -9.4874   13.0024 H   0  0  0  0  0  0
    2.5162   -7.6389   10.4921 H   0  0  0  0  0  0
   -1.7034  -11.7121   10.4675 H   0  0  0  0  0  0
   -2.9501  -13.5517   11.0576 H   0  0  0  0  0  0
   -1.9680  -13.0802   13.8928 H   0  0  0  0  0  0
   -2.9937  -14.4745   13.4125 H   0  0  0  0  0  0
   -0.7698  -15.2676   13.4353 H   0  0  0  0  0  0
   -1.1776  -15.0368   11.7012 H   0  0  0  0  0  0
    0.1363  -13.0274   11.5771 H   0  0  0  0  0  0
    0.3604  -12.9887   13.3589 H   0  0  0  0  0  0
    1.3908  -15.2268   11.5450 H   0  0  0  0  0  0
    2.3688  -13.8180   12.0793 H   0  0  0  0  0  0
    2.7942  -15.7702   13.4283 H   0  0  0  0  0  0
    1.0522  -15.8683   13.8557 H   0  0  0  0  0  0
    2.0302  -14.4595   14.3901 H   0  0  0  0  0  0
   -3.4444  -11.5673   14.0412 H   0  0  0  0  0  0
   -6.3647  -11.6498   13.7904 H   0  0  0  0  0  0
   -5.1049   -8.4784   11.4541 H   0  0  0  0  0  0
   -4.4915   -9.7035   15.2685 H   0  0  0  0  0  0
   -6.2685   -9.7821   15.5190 H   0  0  0  0  0  0
   -6.0947  -12.0974   16.3078 H   0  0  0  0  0  0
   -4.3345  -12.1185   15.9505 H   0  0  0  0  0  0
   -4.6779  -11.8032   18.3419 H   0  0  0  0  0  0
   -4.0148  -10.2898   17.6374 H   0  0  0  0  0  0
   -6.2125   -9.2459   17.6785 H   0  0  0  0  0  0
   -6.9764  -10.7817   18.2117 H   0  0  0  0  0  0
   -6.6724   -9.2424   20.0552 H   0  0  0  0  0  0
   -4.9077   -9.1843   19.7249 H   0  0  0  0  0  0
   -5.6715  -10.7202   20.2582 H   0  0  0  0  0  0
  1  2  1  0  0  0
  1178  1  0  0  0
  1179  1  0  0  0
  1180  1  0  0  0
  2  3  1  0  0  0
  2  5  1  0  0  0
  2181  1  0  0  0
  3  4  2  0  0  0
  3 10  1  0  0  0
  5  6  1  0  0  0
  5182  1  0  0  0
  5183  1  0  0  0
  6  7  1  0  0  0
  6184  1  0  0  0
  6185  1  0  0  0
  7  8  1  0  0  0
  7186  1  0  0  0
  7187  1  0  0  0
  8  9  1  0  0  0
  8188  1  0  0  0
  8189  1  0  0  0
  9190  1  0  0  0
  9191  1  0  0  0
  9192  1  0  0  0
 10 11  1  0  0  0
 10193  1  0  0  0
 11 12  1  0  0  0
 11 14  1  0  0  0
 11194  1  0  0  0
 12 13  2  0  0  0
 12 19  1  0  0  0
 14 15  1  0  0  0
 14195  1  0  0  0
 14196  1  0  0  0
 15 16  1  0  0  0
 15197  1  0  0  0
 15198  1  0  0  0
 16 17  1  0  0  0
 16199  1  0  0  0
 16200  1  0  0  0
 17 18  1  0  0  0
 17201  1  0  0  0
 17202  1  0  0  0
 18203  1  0  0  0
 18204  1  0  0  0
 18205  1  0  0  0
 19 20  1  0  0  0
 19206  1  0  0  0
 20 21  1  0  0  0
 20 23  1  0  0  0
 20207  1  0  0  0
 21 22  2  0  0  0
 21 30  1  0  0  0
 23 24  1  0  0  0
 23208  1  0  0  0
 23209  1  0  0  0
 24 25  1  0  0  0
 24210  1  0  0  0
 24211  1  0  0  0
 25 26  1  0  0  0
 25212  1  0  0  0
 25213  1  0  0  0
 26 27  1  0  0  0
 26214  1  0  0  0
 27 28  2  0  0  0
 27 29  1  0  0  0
 28215  1  0  0  0
 29216  1  0  0  0
 29217  1  0  0  0
 30 31  1  0  0  0
 30218  1  0  0  0
 31 32  1  0  0  0
 31 34  1  0  0  0
 31219  1  0  0  0
 32 33  2  0  0  0
 32 39  1  0  0  0
 34 35  1  0  0  0
 34220  1  0  0  0
 34221  1  0  0  0
 35 36  1  0  0  0
 35222  1  0  0  0
 35223  1  0  0  0
 36 37  1  0  0  0
 36 38  2  0  0  0
 37224  1  0  0  0
 39 40  1  0  0  0
 39225  1  0  0  0
 40 41  1  0  0  0
 40 43  1  0  0  0
 40226  1  0  0  0
 41 42  2  0  0  0
 41 47  1  0  0  0
 43 44  1  0  0  0
 43227  1  0  0  0
 43228  1  0  0  0
 44 45  1  0  0  0
 44 46  1  0  0  0
 44229  1  0  0  0
 45230  1  0  0  0
 45231  1  0  0  0
 45232  1  0  0  0
 46233  1  0  0  0
 46234  1  0  0  0
 46235  1  0  0  0
 47 48  1  0  0  0
 47236  1  0  0  0
 48 49  1  0  0  0
 48 51  1  0  0  0
 48237  1  0  0  0
 49 50  2  0  0  0
 49 55  1  0  0  0
 51 52  1  0  0  0
 51 53  1  0  0  0
 51238  1  0  0  0
 52 54  1  0  0  0
 52239  1  0  0  0
 52240  1  0  0  0
 53241  1  0  0  0
 53242  1  0  0  0
 53243  1  0  0  0
 54244  1  0  0  0
 54245  1  0  0  0
 54246  1  0  0  0
 55 56  1  0  0  0
 55247  1  0  0  0
 56 57  1  0  0  0
 56 59  1  0  0  0
 56248  1  0  0  0
 57 58  2  0  0  0
 57 64  1  0  0  0
 59 60  1  0  0  0
 59249  1  0  0  0
 59250  1  0  0  0
 60 61  1  0  0  0
 60251  1  0  0  0
 60252  1  0  0  0
 61 62  1  0  0  0
 61 63  2  0  0  0
 62253  1  0  0  0
 64 65  1  0  0  0
 64254  1  0  0  0
 65 66  1  0  0  0
 65 68  1  0  0  0
 65255  1  0  0  0
 66 67  2  0  0  0
 66 70  1  0  0  0
 68 69  1  0  0  0
 68256  1  0  0  0
 68257  1  0  0  0
 69258  1  0  0  0
 70 71  1  0  0  0
 70259  1  0  0  0
 71 72  1  0  0  0
 71 74  1  0  0  0
 71260  1  0  0  0
 72 73  2  0  0  0
 72 79  1  0  0  0
 74 75  1  0  0  0
 74261  1  0  0  0
 74262  1  0  0  0
 75 76  1  0  0  0
 75263  1  0  0  0
 75264  1  0  0  0
 76 77  1  0  0  0
 76265  1  0  0  0
 76266  1  0  0  0
 77 78  1  0  0  0
 77267  1  0  0  0
 77268  1  0  0  0
 78269  1  0  0  0
 78270  1  0  0  0
 78271  1  0  0  0
 79 80  1  0  0  0
 79272  1  0  0  0
 80 81  1  0  0  0
 80 83  1  0  0  0
 80273  1  0  0  0
 81 82  2  0  0  0
 81 93  1  0  0  0
 83 84  1  0  0  0
 83274  1  0  0  0
 83275  1  0  0  0
 84 85  2  0  0  0
 84 86  1  0  0  0
 85 87  1  0  0  0
 85276  1  0  0  0
 86 88  2  0  0  0
 86 89  1  0  0  0
 87 88  1  0  0  0
 88 90  1  0  0  0
 89 91  2  0  0  0
 89277  1  0  0  0
 90 92  2  0  0  0
 90278  1  0  0  0
 91 92  1  0  0  0
 91279  1  0  0  0
 92280  1  0  0  0
 93 94  1  0  0  0
 93281  1  0  0  0
 94 95  1  0  0  0
 94 97  1  0  0  0
 94282  1  0  0  0
 95 96  2  0  0  0
 95103  1  0  0  0
 97 98  1  0  0  0
 97283  1  0  0  0
 97284  1  0  0  0
 98 99  2  0  0  0
 98100  1  0  0  0
 99101  1  0  0  0
100102  2  0  0  0
100285  1  0  0  0
101102  1  0  0  0
101286  1  0  0  0
103104  1  0  0  0
103287  1  0  0  0
104105  1  0  0  0
104107  1  0  0  0
104288  1  0  0  0
105106  2  0  0  0
105114  1  0  0  0
107108  1  0  0  0
107289  1  0  0  0
107290  1  0  0  0
108109  1  0  0  0
108291  1  0  0  0
108292  1  0  0  0
109110  1  0  0  0
109293  1  0  0  0
109294  1  0  0  0
110111  1  0  0  0
110295  1  0  0  0
111112  1  0  0  0
111113  2  0  0  0
112296  1  0  0  0
112297  1  0  0  0
113298  1  0  0  0
114115  1  0  0  0
114299  1  0  0  0
115116  1  0  0  0
115118  1  0  0  0
115300  1  0  0  0
116117  2  0  0  0
116122  1  0  0  0
118119  1  0  0  0
118301  1  0  0  0
118302  1  0  0  0
119120  1  0  0  0
119121  1  0  0  0
119303  1  0  0  0
120304  1  0  0  0
120305  1  0  0  0
120306  1  0  0  0
121307  1  0  0  0
121308  1  0  0  0
121309  1  0  0  0
122123  1  0  0  0
122310  1  0  0  0
123124  1  0  0  0
123126  1  0  0  0
123311  1  0  0  0
124125  2  0  0  0
124130  1  0  0  0
126127  1  0  0  0
126312  1  0  0  0
126313  1  0  0  0
127128  1  0  0  0
127129  1  0  0  0
127314  1  0  0  0
128315  1  0  0  0
128316  1  0  0  0
128317  1  0  0  0
129318  1  0  0  0
129319  1  0  0  0
129320  1  0  0  0
130131  1  0  0  0
130321  1  0  0  0
131132  1  0  0  0
131134  1  0  0  0
131322  1  0  0  0
132133  2  0  0  0
132141  1  0  0  0
134135  1  0  0  0
134323  1  0  0  0
134324  1  0  0  0
135136  2  0  0  0
135137  1  0  0  0
136138  1  0  0  0
136325  1  0  0  0
137139  2  0  0  0
137326  1  0  0  0
138140  2  0  0  0
138327  1  0  0  0
139140  1  0  0  0
139328  1  0  0  0
140329  1  0  0  0
141142  1  0  0  0
141330  1  0  0  0
142143  1  0  0  0
142145  1  0  0  0
142331  1  0  0  0
143144  2  0  0  0
143151  1  0  0  0
145146  1  0  0  0
145332  1  0  0  0
145333  1  0  0  0
146147  2  0  0  0
146148  1  0  0  0
147149  1  0  0  0
148150  2  0  0  0
148334  1  0  0  0
149150  1  0  0  0
149335  1  0  0  0
151152  1  0  0  0
151336  1  0  0  0
152153  1  0  0  0
152155  1  0  0  0
152337  1  0  0  0
153154  2  0  0  0
153159  1  0  0  0
155156  1  0  0  0
155338  1  0  0  0
155339  1  0  0  0
156157  1  0  0  0
156158  2  0  0  0
157340  1  0  0  0
159160  1  0  0  0
159341  1  0  0  0
160161  1  0  0  0
160163  1  0  0  0
160342  1  0  0  0
161162  2  0  0  0
161168  1  0  0  0
163164  1  0  0  0
163343  1  0  0  0
163344  1  0  0  0
164165  1  0  0  0
164345  1  0  0  0
164346  1  0  0  0
165166  1  0  0  0
165347  1  0  0  0
165348  1  0  0  0
166167  1  0  0  0
166349  1  0  0  0
166350  1  0  0  0
167351  1  0  0  0
167352  1  0  0  0
167353  1  0  0  0
168169  1  0  0  0
168354  1  0  0  0
169170  1  0  0  0
169172  1  0  0  0
169355  1  0  0  0
170171  1  0  0  0
170177  2  0  0  0
171356  1  0  0  0
172173  1  0  0  0
172357  1  0  0  0
172358  1  0  0  0
173174  1  0  0  0
173359  1  0  0  0
173360  1  0  0  0
174175  1  0  0  0
174361  1  0  0  0
174362  1  0  0  0
175176  1  0  0  0
175363  1  0  0  0
175364  1  0  0  0
176365  1  0  0  0
176366  1  0  0  0
176367  1  0  0  0
M  CHG  6   1   1   9   1  18   1  78   1 167   1 176   1
M  END
> <s_m_source_file>
../1oqp_ligand.sdf

> <i_m_source_file_index>
1

> <s_epik_input>
W05IMytdW0NIMl1bQ0gyXVtDSDJdW0NIMl1bQ0BIXShbTkgzK10pQyg9TylbTkhdW0NAQEhdKFtDSDJdW0NIMl1bQ0gyXVtDSDJdW05IMytdKUMoPU8pW05IXVtDQEBIXShbQ0gyXVtDSDJdW0NIMl1bTkhdL0MoPU5cW0hdKVtOSDJdKUMoPU8pW05IXVtDQEBIXShbQ0gyXVtDSDJdQyg9TylbT0hdKUMoPU8pW05IXVtDQEBIXShbQ0gyXVtDSF0oW0NIM10pW0NIM10pQyg9TylbTkhdW0NAQEhdKFtDQEBIXShbQ0gzXSlbQ0gyXVtDSDNdKUMoPU8pW05IXVtDQEBIXShbQ0gyXVtDSDJdQyg9TylbT0hdKUMoPU8pW05IXVtDQEBIXShbQ0gyXVtPSF0pQyg9TylbTkhdW0NAQEhdKFtDSDJdW0NIMl1bQ0gyXVtDSDJdW05IMytdKUMoPU8pW05IXVtDQEBIXShbQ0gyXWMxW2NIXVtuSF1jKGMxMilbY0hdW2NIXVtjSF1bY0hdMilDKD1PKVtOSF1bQ0BASF0oW0NIMl1DMz1OW0NIMl1OPVtDSF0zKUMoPU8pW05IXVtDQEBIXShbQ0gyXVtDSDJdW0NIMl1bTkhdL0MoW05IMl0pPU5cW0hdKUMoPU8pW05IXVtDQEBIXShbQ0gyXVtDSF0oW0NIM10pW0NIM10pQyg9TylbTkhdW0NAQEhdKFtDSDJdW0NIXShbQ0gzXSlbQ0gzXSlDKD1PKVtOSF1bQ0BASF0oW0NIMl1jNFtjSF1bY0hdW2NIXVtjSF1bY0hdNClDKD1PKVtOSF1bQ0BASF0oW0NIMl1DNT1OW0NIMl1OPVtDSF01KUMoPU8pW05IXVtDQEBIXShbQ0gyXUMoPU8pW09IXSlDKD1PKVtOSF1bQ0BASF0oW0NIMl1bQ0gyXVtDSDJdW0NIMl1bTkgzK10pQyg9TylbTkhdW0NASF0oQyg9TylbT0hdKVtDSDJdW0NIMl1bQ0gyXVtDSDJdW05IMytd

> <s_epik_cmdline>
J2VwaWtfYXBwJywgJy1pbWFlJywgJ2xpZ2FuZF9wcm8ubWFlJywgJy1vbWFlJywgJ2xpZ2FuZF9wcmVwLm1hZScsICctbXMnLCAnMScsICctcGgnLCAnNycsICctcGh0JywgJzAuNScsICctbnQn

> <s_epik_pKa_notes>
Molecule size exceeds maximum supported for generating protonation states

> <s_epik_Chemistry_Notes>
This compound has an imine and may undergo hydrolysis.

$$$$
