1orw_ligand
                    3D
 Schrodinger Suite 2020-3.
 41 42  0  0  1  0            999 V2000
   -6.4080   19.1790    7.2570 N   0  3  0  0  0  0
   -6.4960   19.8850    5.9740 C   0  0  1  0  0  0
   -5.4630   21.0010    5.8590 C   0  0  0  0  0  0
   -5.6430   22.1880    6.8170 C   0  0  0  0  0  0
   -6.7300   23.0670    6.6950 C   0  0  0  0  0  0
   -4.7340   22.4180    7.8550 C   0  0  0  0  0  0
   -6.9010   24.1400    7.5890 C   0  0  0  0  0  0
   -4.8980   23.4800    8.7430 C   0  0  0  0  0  0
   -5.9700   24.3310    8.6120 C   0  0  0  0  0  0
   -6.1970   25.9180    9.9510 I   0  0  0  0  0  0
   -6.3330   18.9240    4.7900 C   0  0  0  0  0  0
   -5.2530   18.7710    4.2100 O   0  0  0  0  0  0
   -7.7770   19.1340    1.5890 N   0  3  0  0  0  0
   -7.3360   17.9010    1.9140 C   0  0  0  0  0  0
   -7.5430   17.3250    3.3030 C   0  0  1  0  0  0
   -7.4430   18.2840    4.4020 N   0  0  0  0  0  0
   -8.7430   18.4160    5.0830 C   0  0  0  0  0  0
   -9.6820   17.9880    3.9900 C   0  0  0  0  0  0
   -8.9340   16.7810    3.4660 C   0  0  0  0  0  0
   -6.5291   19.8983    8.0804 H   0  0  0  0  0  0
   -5.4265   18.6892    7.3394 H   0  0  0  0  0  0
   -7.2024   18.4202    7.3132 H   0  0  0  0  0  0
   -7.5068   20.3188    5.9866 H   0  0  0  0  0  0
   -4.4608   20.5952    6.0613 H   0  0  0  0  0  0
   -5.4898   21.4223    4.8432 H   0  0  0  0  0  0
   -7.4540   22.9160    5.8943 H   0  0  0  0  0  0
   -3.8788   21.7524    7.9721 H   0  0  0  0  0  0
   -7.7507   24.8146    7.4842 H   0  0  0  0  0  0
   -4.1746   23.6362    9.5432 H   0  0  0  0  0  0
   -7.5231   19.3497    0.5406 H   0  0  0  0  0  0
   -7.2990   19.8785    2.2427 H   0  0  0  0  0  0
   -8.8684   19.1790    1.7187 H   0  0  0  0  0  0
   -7.8140   17.1565    1.2603 H   0  0  0  0  0  0
   -6.2446   17.8559    1.7843 H   0  0  0  0  0  0
   -6.7342   16.5855    3.3978 H   0  0  0  0  0  0
   -8.7641   17.7573    5.9637 H   0  0  0  0  0  0
   -8.8857   19.4591    5.4018 H   0  0  0  0  0  0
  -10.6656   17.7531    4.4228 H   0  0  0  0  0  0
   -9.7884   18.8024    3.2582 H   0  0  0  0  0  0
   -9.3073   16.4310    2.4922 H   0  0  0  0  0  0
   -8.9184   15.9410    4.1761 H   0  0  0  0  0  0
  1  2  1  0  0  0
  1 20  1  0  0  0
  1 21  1  0  0  0
  1 22  1  0  0  0
  2  3  1  0  0  0
  2 11  1  0  0  0
  2 23  1  0  0  0
  3  4  1  0  0  0
  3 24  1  0  0  0
  3 25  1  0  0  0
  4  5  2  0  0  0
  4  6  1  0  0  0
  5  7  1  0  0  0
  5 26  1  0  0  0
  6  8  2  0  0  0
  6 27  1  0  0  0
  7  9  2  0  0  0
  7 28  1  0  0  0
  8  9  1  0  0  0
  8 29  1  0  0  0
  9 10  1  0  0  0
 11 12  2  0  0  0
 11 16  1  0  0  0
 13 14  1  0  0  0
 13 30  1  0  0  0
 13 31  1  0  0  0
 13 32  1  0  0  0
 14 15  1  0  0  0
 14 33  1  0  0  0
 14 34  1  0  0  0
 15 16  1  0  0  0
 15 19  1  0  0  0
 15 35  1  0  0  0
 16 17  1  0  0  0
 17 18  1  0  0  0
 17 36  1  0  0  0
 17 37  1  0  0  0
 18 19  1  0  0  0
 18 38  1  0  0  0
 18 39  1  0  0  0
 19 40  1  0  0  0
 19 41  1  0  0  0
M  CHG  2   1   1  13   1
M  END
> <s_m_source_file>
../1orw_ligand.sdf

> <i_m_source_file_index>
1

> <s_epik_input>
W05IMytdW0NIMl1bQ0BIXTFOKFtDSDJdW0NIMl1bQ0gyXTEpQyg9TylbQ0BASF0oW05IMytdKVtDSDJdYzJbY0hdW2NIXWMoSSlbY0hdW2NIXTI=

> <s_epik_cmdline>
J2VwaWtfYXBwJywgJy1pbWFlJywgJ2xpZ2FuZF9wcm8ubWFlJywgJy1vbWFlJywgJ2xpZ2FuZF9wcmVwLm1hZScsICctbXMnLCAnMScsICctcGgnLCAnNycsICctcGh0JywgJzAuNScsICctbnQn

> <r_epik_Ionization_Penalty>
  0.2069

> <r_epik_Ionization_Penalty_Charging>
  0.2069

> <r_epik_Ionization_Penalty_Neutral>
  0.0000

> <r_epik_State_Penalty>
  0.1941

> <r_epik_Charging_Adjusted_Penalty>
0.401015837288573

> <i_epik_Tot_Q>
2

> <i_epik_Tot_abs_Q>
2

$$$$
