1os5_ligand
                    3D
 Schrodinger Suite 2020-3.
 72 75  0  0  1  0            999 V2000
   41.6920   11.1980   61.0210 O   0  0  0  0  0  0
   41.6830   11.9680   59.8800 C   0  0  0  0  0  0
   42.8900   12.3250   59.2750 C   0  0  0  0  0  0
   42.8870   13.1430   58.1400 C   0  0  0  0  0  0
   41.6770   13.6050   57.6140 C   0  0  0  0  0  0
   40.4700   13.2400   58.2270 C   0  0  0  0  0  0
   40.4700   12.4230   59.3600 C   0  0  0  0  0  0
   41.6750   14.4660   56.4120 C   0  0  0  0  0  0
   41.3870   13.6910   55.1110 C   0  0  0  0  0  0
   41.0910   14.6110   53.8910 C   0  0  2  0  0  0
   40.8140   13.7050   52.7650 O   0  0  0  0  0  0
   41.8360   12.9630   52.2500 C   0  0  0  0  0  0
   41.6650   11.9290   51.5950 O   0  0  0  0  0  0
   43.2360   13.4350   52.5240 C   0  0  1  0  0  0
   44.6280   12.4690   52.0190 S   0  0  0  0  0  0
   45.1900   13.2120   50.5170 C   0  0  0  0  0  0
   44.1960   13.7390   49.6930 C   0  0  0  0  0  0
   44.5250   14.3180   48.4780 C   0  0  0  0  0  0
   45.8650   14.4040   48.0830 C   0  0  0  0  0  0
   46.1870   14.9380   46.9070 N   0  0  0  0  0  0
   46.8660   13.8810   48.9010 C   0  0  0  0  0  0
   46.5590   13.2990   50.1370 C   0  0  0  0  0  0
   47.6760   12.8140   51.0010 C   0  0  0  0  0  0
   47.6920   13.5930   52.3300 C   0  0  0  0  0  0
   49.0390   13.0360   50.3130 C   0  0  0  0  0  0
   47.5430   11.3170   51.3090 C   0  0  0  0  0  0
   43.4680   14.9260   47.6680 C   0  0  0  0  0  0
   43.4340   14.6100   53.1600 C   0  0  0  0  0  0
   44.6790   15.0720   53.3100 O   0  0  0  0  0  0
   42.2820   15.5390   53.4900 C   0  0  0  0  0  0
   39.8380   15.5100   54.1210 C   0  0  0  0  0  0
   38.5880   14.7940   54.6730 C   0  0  0  0  0  0
   37.3830   15.6100   54.1610 C   0  0  0  0  0  0
   37.8970   16.5730   53.0530 C   0  0  0  0  0  0
   39.3830   16.2610   52.8480 C   0  0  0  0  0  0
   42.6458   10.8376   61.4338 H   0  0  0  0  0  0
   43.8335   11.9667   59.6867 H   0  0  0  0  0  0
   43.8284   13.4202   57.6657 H   0  0  0  0  0  0
   39.5251   13.5962   57.8166 H   0  0  0  0  0  0
   39.5297   12.1428   59.8347 H   0  0  0  0  0  0
   40.9001   15.2397   56.5165 H   0  0  0  0  0  0
   42.6591   14.9452   56.3025 H   0  0  0  0  0  0
   42.2589   13.0723   54.8522 H   0  0  0  0  0  0
   40.5088   13.0447   55.2560 H   0  0  0  0  0  0
   43.1531   13.6951   50.0069 H   0  0  0  0  0  0
   45.4017   15.3521   46.2575 H   0  0  0  0  0  0
   47.2384   14.9652   46.5847 H   0  0  0  0  0  0
   47.9045   13.9260   48.5728 H   0  0  0  0  0  0
   47.7871   14.6692   52.1231 H   0  0  0  0  0  0
   48.5448   13.2601   52.9399 H   0  0  0  0  0  0
   46.7555   13.4059   52.8759 H   0  0  0  0  0  0
   49.1623   14.1039   50.0797 H   0  0  0  0  0  0
   49.0799   12.4503   49.3828 H   0  0  0  0  0  0
   49.8465   12.7121   50.9860 H   0  0  0  0  0  0
   46.5776   11.1283   51.8014 H   0  0  0  0  0  0
   48.3613   11.0055   51.9748 H   0  0  0  0  0  0
   47.5947   10.7438   50.3716 H   0  0  0  0  0  0
   42.4928   14.7491   48.1452 H   0  0  0  0  0  0
   43.4716   14.4772   46.6637 H   0  0  0  0  0  0
   43.6454   16.0085   47.5865 H   0  0  0  0  0  0
   41.9962   16.1465   52.6186 H   0  0  0  0  0  0
   42.5310   16.2008   54.3326 H   0  0  0  0  0  0
   40.2030   16.2078   54.8890 H   0  0  0  0  0  0
   38.5614   13.7606   54.2970 H   0  0  0  0  0  0
   38.6270   14.7833   55.7723 H   0  0  0  0  0  0
   36.6250   14.9265   53.7509 H   0  0  0  0  0  0
   36.9481   16.1832   54.9931 H   0  0  0  0  0  0
   37.3307   16.4007   52.1258 H   0  0  0  0  0  0
   37.7584   17.6144   53.3791 H   0  0  0  0  0  0
   39.9718   17.1834   52.7363 H   0  0  0  0  0  0
   39.5374   15.6187   51.9684 H   0  0  0  0  0  0
   43.2233   12.9111   53.4912 H   0  0  0  0  0  0
  1  2  1  0  0  0
  1 36  1  0  0  0
  2  3  2  0  0  0
  2  7  1  0  0  0
  3  4  1  0  0  0
  3 37  1  0  0  0
  4  5  2  0  0  0
  4 38  1  0  0  0
  5  6  1  0  0  0
  5  8  1  0  0  0
  6  7  2  0  0  0
  6 39  1  0  0  0
  7 40  1  0  0  0
  8  9  1  0  0  0
  8 41  1  0  0  0
  8 42  1  0  0  0
  9 10  1  0  0  0
  9 43  1  0  0  0
  9 44  1  0  0  0
 10 11  1  0  0  0
 10 30  1  0  0  0
 10 31  1  0  0  0
 11 12  1  0  0  0
 12 13  2  0  0  0
 12 14  1  0  0  0
 14 15  1  0  0  0
 14 28  1  0  0  0
 14 72  1  0  0  0
 15 16  1  0  0  0
 16 17  2  0  0  0
 16 22  1  0  0  0
 17 18  1  0  0  0
 17 45  1  0  0  0
 18 19  2  0  0  0
 18 27  1  0  0  0
 19 20  1  0  0  0
 19 21  1  0  0  0
 20 46  1  0  0  0
 20 47  1  0  0  0
 21 22  2  0  0  0
 21 48  1  0  0  0
 22 23  1  0  0  0
 23 24  1  0  0  0
 23 25  1  0  0  0
 23 26  1  0  0  0
 24 49  1  0  0  0
 24 50  1  0  0  0
 24 51  1  0  0  0
 25 52  1  0  0  0
 25 53  1  0  0  0
 25 54  1  0  0  0
 26 55  1  0  0  0
 26 56  1  0  0  0
 26 57  1  0  0  0
 27 58  1  0  0  0
 27 59  1  0  0  0
 27 60  1  0  0  0
 28 29  2  0  0  0
 28 30  1  0  0  0
 30 61  1  0  0  0
 30 62  1  0  0  0
 31 32  1  0  0  0
 31 35  1  0  0  0
 31 63  1  0  0  0
 32 33  1  0  0  0
 32 64  1  0  0  0
 32 65  1  0  0  0
 33 34  1  0  0  0
 33 66  1  0  0  0
 33 67  1  0  0  0
 34 35  1  0  0  0
 34 68  1  0  0  0
 34 69  1  0  0  0
 35 70  1  0  0  0
 35 71  1  0  0  0
M  END
> <s_m_source_file>
../1os5_ligand.sdf

> <i_m_source_file_index>
1

> <s_epik_input>
W09IXWMxW2NIXVtjSF1jKFtjSF1bY0hdMSlbQ0gyXVtDSDJdW0NAXTIoW0NIXTNbQ0gyXVtDSDJdW0NIMl1bQ0gyXTMpT0MoPU8pQyg9QyhbT0hdKVtDSDJdMilTYzRbY0hdYyhbQ0gzXSljKFtOSDJdKVtjSF1jNEMoW0NIM10pKFtDSDNdKVtDSDNd

> <s_epik_cmdline>
J2VwaWtfYXBwJywgJy1pbWFlJywgJ2xpZ2FuZF9wcm8ubWFlJywgJy1vbWFlJywgJ2xpZ2FuZF9wcmVwLm1hZScsICctbXMnLCAnMScsICctcGgnLCAnNycsICctcGh0JywgJzAuNScsICctbnQn

> <r_lp_tautomer_probability>
0.999999979997365

> <r_epik_Ionization_Penalty>
  0.2831

> <r_epik_Ionization_Penalty_Charging>
  0.0000

> <r_epik_Ionization_Penalty_Neutral>
  0.2831

> <r_epik_State_Penalty>
  0.0006

> <r_epik_Charging_Adjusted_Penalty>
0.000617126146024566

> <i_epik_Tot_Q>
0

> <i_epik_Tot_abs_Q>
0

> <s_epik_Chemistry_Notes>
This compound has an ester and may undergo hydrolysis at high or low pH.

$$$$
