1oss_ligand
                    3D
 Schrodinger Suite 2020-3.
 18 18  0  0  1  0            999 V2000
   44.8550  -22.9570   62.4190 C   0  0  0  0  0  0
   44.8680  -21.8170   63.2880 C   0  0  0  0  0  0
   43.6490  -21.2040   63.7150 C   0  0  0  0  0  0
   42.3960  -21.7230   63.2760 C   0  0  0  0  0  0
   42.3380  -22.8600   62.4030 C   0  0  0  0  0  0
   43.5830  -23.4710   61.9810 C   0  0  0  0  0  0
   46.1000  -23.6220   61.9680 C   0  0  0  0  0  0
   46.0620  -24.4620   60.9410 N   0  3  0  0  0  0
   47.2530  -23.3680   62.6390 N   0  0  0  0  0  0
   45.8210  -21.4117   63.6281 H   0  0  0  0  0  0
   43.6778  -20.3386   64.3771 H   0  0  0  0  0  0
   41.4713  -21.2505   63.6074 H   0  0  0  0  0  0
   41.3801  -23.2552   62.0649 H   0  0  0  0  0  0
   43.5559  -24.3366   61.3191 H   0  0  0  0  0  0
   45.1128  -24.6475   60.4171 H   0  0  0  0  0  0
   47.2531  -22.6667   63.4864 H   0  0  0  0  0  0
   48.1868  -23.8636   62.3351 H   0  0  0  0  0  0
   46.9797  -24.9726   60.6138 H   0  0  0  0  0  0
  1  2  2  0  0  0
  1  6  1  0  0  0
  1  7  1  0  0  0
  2  3  1  0  0  0
  2 10  1  0  0  0
  3  4  2  0  0  0
  3 11  1  0  0  0
  4  5  1  0  0  0
  4 12  1  0  0  0
  5  6  2  0  0  0
  5 13  1  0  0  0
  6 14  1  0  0  0
  7  8  2  0  0  0
  7  9  1  0  0  0
  8 15  1  0  0  0
  8 18  1  0  0  0
  9 16  1  0  0  0
  9 17  1  0  0  0
M  CHG  1   8   1
M  END
> <s_m_source_file>
../1oss_ligand.sdf

> <i_m_source_file_index>
1

> <s_epik_input>
W0hdXE49QyhbTkgyXSlcYzFbY0hdW2NIXVtjSF1bY0hdW2NIXTE=

> <s_epik_cmdline>
J2VwaWtfYXBwJywgJy1pbWFlJywgJ2xpZ2FuZF9wcm8ubWFlJywgJy1vbWFlJywgJ2xpZ2FuZF9wcmVwLm1hZScsICctbXMnLCAnMScsICctcGgnLCAnNycsICctcGh0JywgJzAuNScsICctbnQn

> <r_lp_tautomer_probability>
1

> <r_epik_Ionization_Penalty>
  0.0003

> <r_epik_Ionization_Penalty_Charging>
  0.0003

> <r_epik_Ionization_Penalty_Neutral>
  0.0000

> <r_epik_State_Penalty>
 -0.0000

> <r_epik_Charging_Adjusted_Penalty>
0.0003115973184836

> <i_epik_Tot_Q>
1

> <i_epik_Tot_abs_Q>
1

> <s_epik_Chemistry_Notes>
This compound has an imine and may undergo hydrolysis.

$$$$
