1osv_ligand
                    3D
 Schrodinger Suite 2020-3.
209209  0  0  1  0            999 V2000
   11.4920   13.0720   14.2140 N   0  3  0  0  0  0
   12.5590   12.6950   13.2900 C   0  0  2  0  0  0
   13.6290   13.7780   13.1720 C   0  0  0  0  0  0
   14.8130   13.4630   13.1090 O   0  0  0  0  0  0
   11.9880   12.4010   11.8980 C   0  0  0  0  0  0
   12.9980   11.8130   10.9260 C   0  0  0  0  0  0
   13.5110   10.4560   11.3720 C   0  0  0  0  0  0
   14.0360   10.3550   12.5030 O   0  0  0  0  0  0
   13.3890    9.4900   10.5890 O   0  0  0  0  0  0
   13.2220   15.0470   13.1440 N   0  0  0  0  0  0
   14.1750   16.1590   13.0320 C   0  0  2  0  0  0
   15.2760   15.9330   11.9740 C   0  0  0  0  0  0
   16.4640   16.1390   12.2590 O   0  0  0  0  0  0
   14.8540   16.4070   14.3820 C   0  0  0  0  0  0
   13.9710   17.1390   15.3610 C   0  0  0  0  0  0
   13.4140   16.5400   16.2810 O   0  0  0  0  0  0
   13.8390   18.4500   15.1700 N   0  0  0  0  0  0
   14.8940   15.5310   10.7620 N   0  0  0  0  0  0
   15.8790   15.2560    9.7200 C   0  0  2  0  0  0
   16.7050   16.4650    9.3240 C   0  0  0  0  0  0
   17.8970   16.3400    9.0540 O   0  0  0  0  0  0
   15.2060   14.6670    8.4970 C   0  0  0  0  0  0
   16.0870   17.6350    9.2930 N   0  0  0  0  0  0
   16.8110   18.8450    8.9260 C   0  0  2  0  0  0
   17.8190   19.2570   10.0010 C   0  0  0  0  0  0
   18.9780   19.5720    9.6990 O   0  0  0  0  0  0
   15.8300   19.9950    8.6630 C   0  0  0  0  0  0
   14.8140   19.7350    7.5410 C   0  0  0  0  0  0
   14.0340   21.0120    7.2400 C   0  0  0  0  0  0
   15.5370   19.2540    6.2800 C   0  0  0  0  0  0
   17.3670   19.2570   11.2540 N   0  0  0  0  0  0
   18.2060   19.6280   12.3850 C   0  0  2  0  0  0
   19.4360   18.7260   12.4270 C   0  0  0  0  0  0
   20.5740   19.1980   12.5430 O   0  0  0  0  0  0
   17.4090   19.4910   13.6810 C   0  0  0  0  0  0
   18.0920   19.8700   14.9980 C   0  0  0  0  0  0
   18.6220   21.2970   14.9420 C   0  0  0  0  0  0
   17.0870   19.7170   16.1260 C   0  0  0  0  0  0
   19.1970   17.4230   12.3360 N   0  0  0  0  0  0
   20.2770   16.4570   12.3430 C   0  0  2  0  0  0
   21.3220   16.8590   11.3070 C   0  0  0  0  0  0
   22.5020   17.0130   11.6190 O   0  0  0  0  0  0
   19.7250   15.0800   12.0100 C   0  0  0  0  0  0
   20.7710   14.0000   11.9020 C   0  0  0  0  0  0
   20.0990   12.6580   12.0210 C   0  0  0  0  0  0
   19.0560   12.7280   13.0390 N   0  0  0  0  0  0
   18.3790   11.6810   13.4900 C   0  0  0  0  0  0
   18.6310   10.4700   13.0080 N   0  0  0  0  0  0
   17.4700   11.8430   14.4430 N   0  0  0  0  0  0
   20.8680   17.0420   10.0750 N   0  0  0  0  0  0
   21.7400   17.4150    8.9800 C   0  0  2  0  0  0
   22.5710   18.6640    9.2620 C   0  0  0  0  0  0
   23.7040   18.7660    8.8000 O   0  0  0  0  0  0
   20.9030   17.6030    7.7130 C   0  0  0  0  0  0
   21.6190   18.2920    6.5790 C   0  0  0  0  0  0
   22.6080   17.6350    5.8350 C   0  0  0  0  0  0
   21.3090   19.6130    6.2460 C   0  0  0  0  0  0
   23.2670   18.2870    4.7840 C   0  0  0  0  0  0
   21.9580   20.2640    5.2050 C   0  0  0  0  0  0
   22.9330   19.6000    4.4770 C   0  0  0  0  0  0
   23.5620   20.2630    3.4410 O   0  0  0  0  0  0
   22.0170   19.6080   10.0130 N   0  0  0  0  0  0
   22.7420   20.8430   10.3270 C   0  0  2  0  0  0
   23.7760   20.6510   11.4400 C   0  0  0  0  0  0
   24.6840   21.4730   11.6000 O   0  0  0  0  0  0
   21.7740   21.9580   10.7530 C   0  0  0  0  0  0
   20.9410   22.7230    9.7160 C   0  0  0  0  0  0
   20.0330   23.7080   10.4390 C   0  0  0  0  0  0
   21.8410   23.4740    8.7450 C   0  0  0  0  0  0
   23.6260   19.5680   12.2000 N   0  0  0  0  0  0
   24.5040   19.2610   13.3150 C   0  0  2  0  0  0
   25.7170   18.4960   12.8140 C   0  0  0  0  0  0
   26.8440   18.7370   13.2630 O   0  0  0  0  0  0
   23.7490   18.4230   14.3340 C   0  0  0  0  0  0
   24.5410   17.9730   15.5510 C   0  0  0  0  0  0
   24.9570   19.1950   16.3670 C   0  0  0  0  0  0
   23.6790   17.0210   16.3740 C   0  0  0  0  0  0
   25.4760   17.5470   11.9110 N   0  0  0  0  0  0
   26.5600   16.7880   11.3090 C   0  0  2  0  0  0
   27.0050   17.8100   10.2680 C   0  0  0  0  0  0
   26.3820   18.8670   10.1930 O   0  0  0  0  0  0
   26.0130   15.5010   10.6980 C   0  0  0  0  0  0
   25.3070   14.6280   11.7370 C   0  0  0  0  0  0
   25.6900   14.6970   12.9250 O   0  0  0  0  0  0
   24.3840   13.8680   11.3770 O   0  0  0  0  0  0
   28.0490   17.5550    9.4870 N   0  0  0  0  0  0
   28.4980   18.5730    8.5250 C   0  0  2  0  0  0
   27.4050   19.5830    8.1770 C   0  0  0  0  0  0
   26.3690   19.2280    7.6120 O   0  0  0  0  0  0
   29.0450   17.9260    7.2480 C   0  0  0  0  0  0
   30.5530   17.6900    7.2830 C   0  0  0  0  0  0
   31.3080   18.9980    7.5250 C   0  0  0  0  0  0
   32.8150   18.8090    7.4050 C   0  0  0  0  0  0
   33.5560   20.1000    7.5070 N   0  3  0  0  0  0
   27.6480   20.8410    8.5420 N   0  0  0  0  0  0
   26.7070   21.9420    8.3200 C   0  0  2  0  0  0
   26.3870   22.2490    6.8530 C   0  0  0  0  0  0
   25.2830   22.7790    6.5940 O   0  0  0  0  0  0
   27.2210   23.2040    9.0170 C   0  0  0  0  0  0
   27.2450   21.9840    5.9820 O   0  0  0  0  0  0
   11.9215   13.2785   15.2054 H   0  0  0  0  0  0
   10.7672   12.2484   14.2927 H   0  0  0  0  0  0
   10.9840   13.9730   13.8395 H   0  0  0  0  0  0
   12.9980   11.7938   13.7429 H   0  0  0  0  0  0
   11.1632   11.6784   11.9852 H   0  0  0  0  0  0
   11.6128   13.3335   11.4511 H   0  0  0  0  0  0
   12.5283   11.6900    9.9390 H   0  0  0  0  0  0
   13.8608   12.4898   10.8397 H   0  0  0  0  0  0
   14.4152    9.3819   12.8484 H   0  0  0  0  0  0
   12.1430   15.2516   13.2072 H   0  0  0  0  0  0
   13.5373   16.9994   12.7205 H   0  0  0  0  0  0
   15.1292   15.4438   14.8364 H   0  0  0  0  0  0
   15.7594   17.0133   14.2312 H   0  0  0  0  0  0
   14.3580   18.9388   14.3323 H   0  0  0  0  0  0
   13.2109   19.0444   15.8499 H   0  0  0  0  0  0
   13.8215   15.4071   10.5515 H   0  0  0  0  0  0
   16.5562   14.5275   10.1897 H   0  0  0  0  0  0
   14.6095   13.7914    8.7927 H   0  0  0  0  0  0
   15.9716   14.3602    7.7692 H   0  0  0  0  0  0
   14.5483   15.4218    8.0412 H   0  0  0  0  0  0
   15.0181   17.6893    9.5471 H   0  0  0  0  0  0
   17.3532   18.5712    8.0089 H   0  0  0  0  0  0
   15.2488   20.1969    9.5748 H   0  0  0  0  0  0
   16.3908   20.8975    8.3783 H   0  0  0  0  0  0
   14.1073   18.9569    7.8652 H   0  0  0  0  0  0
   13.5182   21.3499    8.1509 H   0  0  0  0  0  0
   13.2931   20.8119    6.4519 H   0  0  0  0  0  0
   14.7286   21.7944    6.9002 H   0  0  0  0  0  0
   16.0960   18.3340    6.5062 H   0  0  0  0  0  0
   16.2349   20.0324    5.9381 H   0  0  0  0  0  0
   14.7995   19.0500    5.4898 H   0  0  0  0  0  0
   16.3199   18.9632   11.4190 H   0  0  0  0  0  0
   18.5074   20.6747   12.2313 H   0  0  0  0  0  0
   16.5159   20.1313   13.6317 H   0  0  0  0  0  0
   17.1019   18.4431   13.8136 H   0  0  0  0  0  0
   18.9504   19.2066   15.1796 H   0  0  0  0  0  0
   19.3472   21.3868   14.1198 H   0  0  0  0  0  0
   19.1149   21.5427   15.8942 H   0  0  0  0  0  0
   17.7866   21.9920   14.7716 H   0  0  0  0  0  0
   16.7169   18.6814   16.1494 H   0  0  0  0  0  0
   16.2438   20.4041   15.9615 H   0  0  0  0  0  0
   17.5722   19.9547   17.0841 H   0  0  0  0  0  0
   18.1545   17.0818   12.2541 H   0  0  0  0  0  0
   20.7086   16.4636   13.3548 H   0  0  0  0  0  0
   19.0208   14.7676   12.7952 H   0  0  0  0  0  0
   19.2023   15.1185   11.0429 H   0  0  0  0  0  0
   21.2786   14.0771   10.9291 H   0  0  0  0  0  0
   21.5073   14.1205   12.7103 H   0  0  0  0  0  0
   19.6513   12.3851   11.0540 H   0  0  0  0  0  0
   20.8425   11.8998   12.3078 H   0  0  0  0  0  0
   18.7865   13.6969   13.4846 H   0  0  0  0  0  0
   19.3850   10.3384   12.2180 H   0  0  0  0  0  0
   18.0858    9.5981   13.3986 H   0  0  0  0  0  0
   17.2631   12.8475   14.8407 H   0  0  0  0  0  0
   19.7915   16.9016    9.8976 H   0  0  0  0  0  0
   22.4379   16.5693    8.8926 H   0  0  0  0  0  0
   20.5832   16.6205    7.3357 H   0  0  0  0  0  0
   20.0173   18.2124    7.9457 H   0  0  0  0  0  0
   22.8679   16.6044    6.0766 H   0  0  0  0  0  0
   20.5437   20.1424    6.8137 H   0  0  0  0  0  0
   24.0358   17.7678    4.2118 H   0  0  0  0  0  0
   21.7013   21.2948    4.9609 H   0  0  0  0  0  0
   24.3382   19.7524    2.8521 H   0  0  0  0  0  0
   20.9994   19.4537   10.4012 H   0  0  0  0  0  0
   23.2505   21.0837    9.3818 H   0  0  0  0  0  0
   21.0157   21.5447   11.4342 H   0  0  0  0  0  0
   22.3340   22.7533   11.2668 H   0  0  0  0  0  0
   20.3355   22.0103    9.1369 H   0  0  0  0  0  0
   19.3841   23.1622   11.1397 H   0  0  0  0  0  0
   19.4122   24.2417    9.7043 H   0  0  0  0  0  0
   20.6466   24.4318   10.9954 H   0  0  0  0  0  0
   22.4956   22.7595    8.2244 H   0  0  0  0  0  0
   22.4560   24.1977    9.3000 H   0  0  0  0  0  0
   21.2217   24.0075    8.0089 H   0  0  0  0  0  0
   22.7941   18.8922   11.9528 H   0  0  0  0  0  0
   24.8146   20.2194   13.7565 H   0  0  0  0  0  0
   22.8962   18.9989   14.7227 H   0  0  0  0  0  0
   23.3823   17.5039   13.8535 H   0  0  0  0  0  0
   25.4531   17.4425   15.2401 H   0  0  0  0  0  0
   25.5756   19.8582   15.7446 H   0  0  0  0  0  0
   25.5357   18.8704   17.2443 H   0  0  0  0  0  0
   24.0593   19.7366   16.6998 H   0  0  0  0  0  0
   23.3982   16.1546   15.7572 H   0  0  0  0  0  0
   22.7704   17.5441   16.7069 H   0  0  0  0  0  0
   24.2469   16.6779   17.2514 H   0  0  0  0  0  0
   24.4345   17.3418   11.6226 H   0  0  0  0  0  0
   27.3463   16.4605   12.0051 H   0  0  0  0  0  0
   25.2883   15.7491    9.9085 H   0  0  0  0  0  0
   26.8408   14.9193   10.2662 H   0  0  0  0  0  0
   25.2031   14.0823   13.6964 H   0  0  0  0  0  0
   28.5766   16.5922    9.5553 H   0  0  0  0  0  0
   29.3008   19.1015    9.0599 H   0  0  0  0  0  0
   28.5622   16.9494    7.0960 H   0  0  0  0  0  0
   28.8335   18.5775    6.3873 H   0  0  0  0  0  0
   30.7955   16.9879    8.0943 H   0  0  0  0  0  0
   30.8803   17.2668    6.3219 H   0  0  0  0  0  0
   30.9927   19.7461    6.7828 H   0  0  0  0  0  0
   31.0849   19.3684    8.5365 H   0  0  0  0  0  0
   33.1671   18.1489    8.2114 H   0  0  0  0  0  0
   33.0513   18.3560    6.4309 H   0  0  0  0  0  0
   34.6358   19.9113    7.4148 H   0  0  0  0  0  0
   33.3472   20.5667    8.4810 H   0  0  0  0  0  0
   33.2314   20.7738    6.7004 H   0  0  0  0  0  0
   28.6132   21.0331    9.0333 H   0  0  0  0  0  0
   25.7784   21.5591    8.7684 H   0  0  0  0  0  0
   25.0167   23.0146    5.5530 H   0  0  0  0  0  0
   27.4482   22.9753   10.0687 H   0  0  0  0  0  0
   26.4509   23.9881    8.9703 H   0  0  0  0  0  0
   28.1333   23.5556    8.5129 H   0  0  0  0  0  0
  1  2  1  0  0  0
  1101  1  0  0  0
  1102  1  0  0  0
  1103  1  0  0  0
  2  3  1  0  0  0
  2  5  1  0  0  0
  2104  1  0  0  0
  3  4  2  0  0  0
  3 10  1  0  0  0
  5  6  1  0  0  0
  5105  1  0  0  0
  5106  1  0  0  0
  6  7  1  0  0  0
  6107  1  0  0  0
  6108  1  0  0  0
  7  8  1  0  0  0
  7  9  2  0  0  0
  8109  1  0  0  0
 10 11  1  0  0  0
 10110  1  0  0  0
 11 12  1  0  0  0
 11 14  1  0  0  0
 11111  1  0  0  0
 12 13  2  0  0  0
 12 18  1  0  0  0
 14 15  1  0  0  0
 14112  1  0  0  0
 14113  1  0  0  0
 15 16  2  0  0  0
 15 17  1  0  0  0
 17114  1  0  0  0
 17115  1  0  0  0
 18 19  1  0  0  0
 18116  1  0  0  0
 19 20  1  0  0  0
 19 22  1  0  0  0
 19117  1  0  0  0
 20 21  2  0  0  0
 20 23  1  0  0  0
 22118  1  0  0  0
 22119  1  0  0  0
 22120  1  0  0  0
 23 24  1  0  0  0
 23121  1  0  0  0
 24 25  1  0  0  0
 24 27  1  0  0  0
 24122  1  0  0  0
 25 26  2  0  0  0
 25 31  1  0  0  0
 27 28  1  0  0  0
 27123  1  0  0  0
 27124  1  0  0  0
 28 29  1  0  0  0
 28 30  1  0  0  0
 28125  1  0  0  0
 29126  1  0  0  0
 29127  1  0  0  0
 29128  1  0  0  0
 30129  1  0  0  0
 30130  1  0  0  0
 30131  1  0  0  0
 31 32  1  0  0  0
 31132  1  0  0  0
 32 33  1  0  0  0
 32 35  1  0  0  0
 32133  1  0  0  0
 33 34  2  0  0  0
 33 39  1  0  0  0
 35 36  1  0  0  0
 35134  1  0  0  0
 35135  1  0  0  0
 36 37  1  0  0  0
 36 38  1  0  0  0
 36136  1  0  0  0
 37137  1  0  0  0
 37138  1  0  0  0
 37139  1  0  0  0
 38140  1  0  0  0
 38141  1  0  0  0
 38142  1  0  0  0
 39 40  1  0  0  0
 39143  1  0  0  0
 40 41  1  0  0  0
 40 43  1  0  0  0
 40144  1  0  0  0
 41 42  2  0  0  0
 41 50  1  0  0  0
 43 44  1  0  0  0
 43145  1  0  0  0
 43146  1  0  0  0
 44 45  1  0  0  0
 44147  1  0  0  0
 44148  1  0  0  0
 45 46  1  0  0  0
 45149  1  0  0  0
 45150  1  0  0  0
 46 47  1  0  0  0
 46151  1  0  0  0
 47 48  1  0  0  0
 47 49  2  0  0  0
 48152  1  0  0  0
 48153  1  0  0  0
 49154  1  0  0  0
 50 51  1  0  0  0
 50155  1  0  0  0
 51 52  1  0  0  0
 51 54  1  0  0  0
 51156  1  0  0  0
 52 53  2  0  0  0
 52 62  1  0  0  0
 54 55  1  0  0  0
 54157  1  0  0  0
 54158  1  0  0  0
 55 56  2  0  0  0
 55 57  1  0  0  0
 56 58  1  0  0  0
 56159  1  0  0  0
 57 59  2  0  0  0
 57160  1  0  0  0
 58 60  2  0  0  0
 58161  1  0  0  0
 59 60  1  0  0  0
 59162  1  0  0  0
 60 61  1  0  0  0
 61163  1  0  0  0
 62 63  1  0  0  0
 62164  1  0  0  0
 63 64  1  0  0  0
 63 66  1  0  0  0
 63165  1  0  0  0
 64 65  2  0  0  0
 64 70  1  0  0  0
 66 67  1  0  0  0
 66166  1  0  0  0
 66167  1  0  0  0
 67 68  1  0  0  0
 67 69  1  0  0  0
 67168  1  0  0  0
 68169  1  0  0  0
 68170  1  0  0  0
 68171  1  0  0  0
 69172  1  0  0  0
 69173  1  0  0  0
 69174  1  0  0  0
 70 71  1  0  0  0
 70175  1  0  0  0
 71 72  1  0  0  0
 71 74  1  0  0  0
 71176  1  0  0  0
 72 73  2  0  0  0
 72 78  1  0  0  0
 74 75  1  0  0  0
 74177  1  0  0  0
 74178  1  0  0  0
 75 76  1  0  0  0
 75 77  1  0  0  0
 75179  1  0  0  0
 76180  1  0  0  0
 76181  1  0  0  0
 76182  1  0  0  0
 77183  1  0  0  0
 77184  1  0  0  0
 77185  1  0  0  0
 78 79  1  0  0  0
 78186  1  0  0  0
 79 80  1  0  0  0
 79 82  1  0  0  0
 79187  1  0  0  0
 80 81  2  0  0  0
 80 86  1  0  0  0
 82 83  1  0  0  0
 82188  1  0  0  0
 82189  1  0  0  0
 83 84  1  0  0  0
 83 85  2  0  0  0
 84190  1  0  0  0
 86 87  1  0  0  0
 86191  1  0  0  0
 87 88  1  0  0  0
 87 90  1  0  0  0
 87192  1  0  0  0
 88 89  2  0  0  0
 88 95  1  0  0  0
 90 91  1  0  0  0
 90193  1  0  0  0
 90194  1  0  0  0
 91 92  1  0  0  0
 91195  1  0  0  0
 91196  1  0  0  0
 92 93  1  0  0  0
 92197  1  0  0  0
 92198  1  0  0  0
 93 94  1  0  0  0
 93199  1  0  0  0
 93200  1  0  0  0
 94201  1  0  0  0
 94202  1  0  0  0
 94203  1  0  0  0
 95 96  1  0  0  0
 95204  1  0  0  0
 96 97  1  0  0  0
 96 99  1  0  0  0
 96205  1  0  0  0
 97 98  1  0  0  0
 97100  2  0  0  0
 98206  1  0  0  0
 99207  1  0  0  0
 99208  1  0  0  0
 99209  1  0  0  0
M  CHG  2   1   1  94   1
M  END
> <s_m_source_file>
../1osv_ligand.sdf

> <i_m_source_file_index>
1

> <s_epik_input>
W09IXUMoPU8pW0NIMl1bQ0gyXVtDQEhdKFtOSDMrXSlDKD1PKVtOSF1bQ0BASF0oW0NIMl1DKD1PKVtOSDJdKUMoPU8pW05IXVtDQEBIXShbQ0gzXSlDKD1PKVtOSF1bQ0BASF0oW0NIMl1bQ0hdKFtDSDNdKVtDSDNdKUMoPU8pW05IXVtDQEBIXShbQ0gyXVtDSF0oW0NIM10pW0NIM10pQyg9TylbTkhdW0NAQEhdKFtDSDJdW0NIMl1bQ0gyXVtOSF0vQyhbTkgyXSk9TlxbSF0pQyg9TylbTkhdW0NAQEhdKFtDSDJdYzFbY0hdW2NIXWMoW09IXSlbY0hdW2NIXTEpQyg9TylbTkhdW0NAQEhdKFtDSDJdW0NIXShbQ0gzXSlbQ0gzXSlDKD1PKVtOSF1bQ0BASF0oW0NIMl1bQ0hdKFtDSDNdKVtDSDNdKUMoPU8pW05IXVtDQEBIXShbQ0gyXUMoPU8pW09IXSlDKD1PKVtOSF1bQ0BIXShDKD1PKVtOSF1bQ0BASF0oW0NIM10pQyg9TylbT0hdKVtDSDJdW0NIMl1bQ0gyXVtDSDJdW05IMytd

> <s_epik_cmdline>
J2VwaWtfYXBwJywgJy1pbWFlJywgJ2xpZ2FuZF9wcm8ubWFlJywgJy1vbWFlJywgJ2xpZ2FuZF9wcmVwLm1hZScsICctbXMnLCAnMScsICctcGgnLCAnNycsICctcGh0JywgJzAuNScsICctbnQn

> <s_epik_pKa_notes>
Molecule size exceeds maximum supported for generating protonation states

> <s_epik_Chemistry_Notes>
This compound has an imine and may undergo hydrolysis.

$$$$
