1ouk_ligand
                    3D
 Schrodinger Suite 2020-3.
 67 71  0  0  1  0            999 V2000
   48.8660   37.8810   28.9940 C   0  0  0  0  0  0
   48.2050   36.9510   29.6760 C   0  0  2  0  0  0
   47.0720   37.5940   30.4500 N   0  0  0  0  0  0
   46.0840   37.0210   31.2700 C   0  0  0  0  0  0
   45.3000   37.7980   32.0790 N   0  0  0  0  0  0
   44.3600   37.1260   32.8390 C   0  0  0  0  0  0
   44.1730   35.7180   32.8290 C   0  0  0  0  0  0
   45.0270   34.9760   31.9610 C   0  0  0  0  0  0
   45.9620   35.6630   31.2030 N   0  0  0  0  0  0
   44.9460   33.4660   31.8690 C   0  0  0  0  0  0
   43.7640   32.6320   31.6230 C   0  0  0  0  0  0
   44.1470   31.3300   31.6380 N   0  0  0  0  0  0
   45.4830   31.3670   31.8750 C   0  0  0  0  0  0
   46.3470   30.0170   31.9900 C   0  0  0  0  0  0
   46.7950   29.5360   33.4310 C   0  0  0  0  0  0
   47.5950   28.1990   33.4220 C   0  0  0  0  0  0
   46.8650   27.1120   32.6760 N   0  3  0  0  0  0
   46.4210   27.5160   31.2870 C   0  0  0  0  0  0
   45.5850   28.8310   31.2940 C   0  0  0  0  0  0
   46.0340   32.6160   32.0190 N   0  0  0  0  0  0
   47.4420   33.0020   32.2860 C   0  0  0  0  0  0
   42.3560   33.0670   31.3880 C   0  0  0  0  0  0
   41.3310   32.6070   32.2540 C   0  0  0  0  0  0
   39.9600   33.0110   32.0590 C   0  0  0  0  0  0
   39.6450   33.9100   30.9370 C   0  0  0  0  0  0
   40.6700   34.3740   30.0620 C   0  0  0  0  0  0
   42.0040   33.9570   30.2870 C   0  0  0  0  0  0
   38.8660   32.5000   33.0080 C   0  0  0  0  0  0
   38.5890   31.2760   32.6640 F   0  0  0  0  0  0
   37.8140   33.2570   32.8650 F   0  0  0  0  0  0
   39.2280   32.5310   34.2780 F   0  0  0  0  0  0
   49.1270   36.0780   30.6230 C   0  0  0  0  0  0
   49.3520   36.4390   32.0270 C   0  0  0  0  0  0
   50.1880   35.6490   32.8850 C   0  0  0  0  0  0
   50.8300   34.4780   32.3660 C   0  0  0  0  0  0
   50.6370   34.0920   30.9960 C   0  0  0  0  0  0
   49.7940   34.8830   30.1340 C   0  0  0  0  0  0
   48.1617   38.4426   28.3627 H   0  0  0  0  0  0
   49.6246   37.4002   28.3589 H   0  0  0  0  0  0
   49.3586   38.5698   29.6961 H   0  0  0  0  0  0
   47.8331   36.3726   28.8174 H   0  0  0  0  0  0
   46.9322   38.6846   30.4161 H   0  0  0  0  0  0
   43.7179   37.7181   33.4911 H   0  0  0  0  0  0
   43.4197   35.2324   33.4494 H   0  0  0  0  0  0
   47.2908   30.2710   31.4853 H   0  0  0  0  0  0
   47.4393   30.3009   33.8890 H   0  0  0  0  0  0
   45.9053   29.3819   34.0592 H   0  0  0  0  0  0
   48.5682   28.3574   32.9344 H   0  0  0  0  0  0
   47.7539   27.8598   34.4563 H   0  0  0  0  0  0
   47.5227   26.2370   32.5667 H   0  0  0  0  0  0
   45.9629   26.8249   33.2363 H   0  0  0  0  0  0
   47.3046   27.6769   30.6519 H   0  0  0  0  0  0
   45.7989   26.7186   30.8545 H   0  0  0  0  0  0
   44.6447   28.6346   31.8299 H   0  0  0  0  0  0
   45.3631   29.0998   30.2507 H   0  0  0  0  0  0
   47.5179   34.0981   32.3391 H   0  0  0  0  0  0
   48.0846   32.6288   31.4750 H   0  0  0  0  0  0
   47.7670   32.5652   33.2418 H   0  0  0  0  0  0
   41.5827   31.9392   33.0779 H   0  0  0  0  0  0
   38.6145   34.2250   30.7731 H   0  0  0  0  0  0
   40.4305   35.0395   29.2326 H   0  0  0  0  0  0
   42.7897   34.3106   29.6193 H   0  0  0  0  0  0
   48.8714   37.3309   32.4291 H   0  0  0  0  0  0
   50.3338   35.9382   33.9258 H   0  0  0  0  0  0
   51.4680   33.8771   33.0140 H   0  0  0  0  0  0
   51.1284   33.2000   30.6074 H   0  0  0  0  0  0
   49.6545   34.5790   29.0966 H   0  0  0  0  0  0
  1  2  1  0  0  0
  1 38  1  0  0  0
  1 39  1  0  0  0
  1 40  1  0  0  0
  2  3  1  0  0  0
  2 32  1  0  0  0
  2 41  1  0  0  0
  3  4  1  0  0  0
  3 42  1  0  0  0
  4  5  2  0  0  0
  4  9  1  0  0  0
  5  6  1  0  0  0
  6  7  2  0  0  0
  6 43  1  0  0  0
  7  8  1  0  0  0
  7 44  1  0  0  0
  8  9  2  0  0  0
  8 10  1  0  0  0
 10 11  2  0  0  0
 10 20  1  0  0  0
 11 12  1  0  0  0
 11 22  1  0  0  0
 12 13  2  0  0  0
 13 14  1  0  0  0
 13 20  1  0  0  0
 14 15  1  0  0  0
 14 19  1  0  0  0
 14 45  1  0  0  0
 15 16  1  0  0  0
 15 46  1  0  0  0
 15 47  1  0  0  0
 16 17  1  0  0  0
 16 48  1  0  0  0
 16 49  1  0  0  0
 17 18  1  0  0  0
 17 50  1  0  0  0
 17 51  1  0  0  0
 18 19  1  0  0  0
 18 52  1  0  0  0
 18 53  1  0  0  0
 19 54  1  0  0  0
 19 55  1  0  0  0
 20 21  1  0  0  0
 21 56  1  0  0  0
 21 57  1  0  0  0
 21 58  1  0  0  0
 22 23  2  0  0  0
 22 27  1  0  0  0
 23 24  1  0  0  0
 23 59  1  0  0  0
 24 25  2  0  0  0
 24 28  1  0  0  0
 25 26  1  0  0  0
 25 60  1  0  0  0
 26 27  2  0  0  0
 26 61  1  0  0  0
 27 62  1  0  0  0
 28 29  1  0  0  0
 28 30  1  0  0  0
 28 31  1  0  0  0
 32 33  2  0  0  0
 32 37  1  0  0  0
 33 34  1  0  0  0
 33 63  1  0  0  0
 34 35  2  0  0  0
 34 64  1  0  0  0
 35 36  1  0  0  0
 35 65  1  0  0  0
 36 37  2  0  0  0
 36 66  1  0  0  0
 37 67  1  0  0  0
M  CHG  1  17   1
M  END
> <s_m_source_file>
../1ouk_ligand.sdf

> <i_m_source_file_index>
1

> <s_epik_input>
W2NIXTFbY0hdW2NIXVtjSF1bY0hdYzFbQ0BIXShbQ0gzXSlbTkhdYzJuW2NIXVtjSF1jKG4yKS1jM2MoLWM0W2NIXWMoQyhGKShGKUYpW2NIXVtjSF1bY0hdNCluYyhuM1tDSDNdKVtDSF01W0NIMl1bQ0gyXVtOSDIrXVtDSDJdW0NIMl01

> <s_epik_cmdline>
J2VwaWtfYXBwJywgJy1pbWFlJywgJ2xpZ2FuZF9wcm8ubWFlJywgJy1vbWFlJywgJ2xpZ2FuZF9wcmVwLm1hZScsICctbXMnLCAnMScsICctcGgnLCAnNycsICctcGh0JywgJzAuNScsICctbnQn

> <r_lp_tautomer_probability>
0.999999987636

> <r_epik_Ionization_Penalty>
  0.0233

> <r_epik_Ionization_Penalty_Charging>
  0.0228

> <r_epik_Ionization_Penalty_Neutral>
  0.0004

> <r_epik_State_Penalty>
  0.0173

> <r_epik_Charging_Adjusted_Penalty>
0.0401246024183094

> <i_epik_Tot_Q>
1

> <i_epik_Tot_abs_Q>
1

$$$$
