1ov3_ligand
                    3D
 Schrodinger Suite 2020-3.
160166  0  0  1  0            999 V2000
   64.7780   52.1070   27.1960 N   0  3  0  0  0  0
   64.4390   51.2430   26.0200 C   0  0  2  0  0  0
   64.0550   49.8200   26.4480 C   0  0  0  0  0  0
   64.8860   49.0440   26.9250 O   0  0  0  0  0  0
   65.5940   51.2220   25.0070 C   0  0  0  0  0  0
   62.7800   49.4910   26.3030 N   0  0  0  0  0  0
   62.3000   48.1550   26.6610 C   0  0  2  0  0  0
   62.8330   47.1040   25.6900 C   0  0  0  0  0  0
   63.3690   47.4480   24.6270 O   0  0  0  0  0  0
   60.7760   48.2780   26.5380 C   0  0  0  0  0  0
   60.5370   49.4270   25.6510 C   0  0  0  0  0  0
   61.7150   50.3680   25.7850 C   0  0  0  0  0  0
   62.7060   45.8360   26.0670 N   0  0  0  0  0  0
   63.1260   44.7190   25.2160 C   0  0  2  0  0  0
   62.4810   44.7840   23.8490 C   0  0  0  0  0  0
   61.3650   45.2920   23.7200 O   0  0  0  0  0  0
   62.5780   43.4900   25.9540 C   0  0  0  0  0  0
   62.4760   43.9060   27.3700 C   0  0  0  0  0  0
   62.1560   45.3790   27.3550 C   0  0  0  0  0  0
   63.1580   44.2120   22.8570 N   0  0  0  0  0  0
   62.7050   44.2440   21.4760 C   0  0  2  0  0  0
   61.7340   43.1720   21.0390 C   0  0  0  0  0  0
   61.5940   42.8990   19.8420 O   0  0  0  0  0  0
   63.9150   44.2420   20.5510 C   0  0  0  0  0  0
   64.3650   45.5660   20.4170 O   0  0  0  0  0  0
   61.0730   42.5620   22.0090 N   0  0  0  0  0  0
   60.0580   41.5660   21.7650 C   0  0  2  0  0  0
   58.9050   41.8300   22.7180 C   0  0  0  0  0  0
   59.1000   42.4600   23.7580 O   0  0  0  0  0  0
   60.6390   40.1690   21.9830 C   0  0  0  0  0  0
   61.6470   39.7910   20.9130 C   0  0  0  0  0  0
   61.2720   39.4050   19.8020 O   0  0  0  0  0  0
   62.9250   39.9020   21.2370 N   0  0  0  0  0  0
   57.7090   41.3700   22.3770 N   0  0  0  0  0  0
   56.5580   41.5680   23.2610 C   0  0  2  0  0  0
   56.7360   40.8320   24.5860 C   0  0  0  0  0  0
   57.4220   39.8110   24.6570 O   0  0  0  0  0  0
   55.4000   40.9590   22.4700 C   0  0  0  0  0  0
   55.8840   40.9340   21.0300 C   0  0  0  0  0  0
   57.3470   40.6520   21.1430 C   0  0  0  0  0  0
   56.1360   41.3680   25.6390 N   0  0  0  0  0  0
   56.1130   40.6830   26.9230 C   0  0  2  0  0  0
   55.2940   39.4100   26.7300 C   0  0  0  0  0  0
   54.5090   39.3080   25.7810 O   0  0  0  0  0  0
   55.3450   41.6570   27.8270 C   0  0  0  0  0  0
   54.5360   42.4780   26.8730 C   0  0  0  0  0  0
   55.4460   42.6720   25.6860 C   0  0  0  0  0  0
   55.5010   38.4350   27.5960 N   0  0  0  0  0  0
   54.6850   37.2200   27.5800 C   0  0  2  0  0  0
   53.2490   37.6200   27.8390 C   0  0  0  0  0  0
   53.0190   38.7150   28.3740 O   0  0  0  0  0  0
   55.2070   36.4530   28.7900 C   0  0  0  0  0  0
   55.8220   37.5410   29.6620 C   0  0  0  0  0  0
   56.5130   38.4060   28.6600 C   0  0  0  0  0  0
   52.3040   36.7620   27.4720 N   0  0  0  0  0  0
   50.8990   36.9940   27.7780 C   0  0  2  0  0  0
   50.7810   36.9530   29.2960 C   0  0  0  0  0  0
   51.6280   36.3530   29.9690 O   0  0  0  0  0  0
   50.0230   35.9020   27.1630 C   0  0  0  0  0  0
   49.9190   35.9400   25.6460 C   0  0  0  0  0  0
   49.1110   37.0990   25.0820 C   0  0  0  0  0  0
   47.7290   37.1520   25.5570 N   0  0  0  0  0  0
   46.7540   36.3390   25.1630 C   0  0  0  0  0  0
   47.0000   35.3910   24.2740 N   0  0  0  0  0  0
   45.5250   36.4850   25.6440 N   0  0  0  0  0  0
   49.7480   37.5890   29.8450 N   0  0  0  0  0  0
   49.5150   37.5480   31.2860 C   0  0  2  0  0  0
   49.4530   36.0960   31.7350 C   0  0  0  0  0  0
   48.9420   35.2500   30.9990 O   0  0  0  0  0  0
   48.1360   38.1920   31.4340 C   0  0  0  0  0  0
   47.9890   39.0690   30.2390 C   0  0  0  0  0  0
   48.7360   38.3900   29.1390 C   0  0  0  0  0  0
   49.9450   35.8130   32.9310 N   0  0  0  0  0  0
   49.9290   34.4520   33.4680 C   0  0  2  0  0  0
   48.4990   33.9280   33.5770 C   0  0  0  0  0  0
   50.5190   34.6160   34.8720 C   0  0  0  0  0  0
   51.2570   35.9000   34.8360 C   0  0  0  0  0  0
   50.5390   36.7800   33.8630 C   0  0  0  0  0  0
   63.9377   52.1063   27.9059 H   0  0  0  0  0  0
   64.9676   53.1349   26.8532 H   0  0  0  0  0  0
   65.6776   51.7142   27.6923 H   0  0  0  0  0  0
   63.5573   51.7037   25.5506 H   0  0  0  0  0  0
   65.8475   52.2528   24.7186 H   0  0  0  0  0  0
   65.2887   50.6561   24.1145 H   0  0  0  0  0  0
   66.4727   50.7421   25.4627 H   0  0  0  0  0  0
   62.6530   47.8732   27.6640 H   0  0  0  0  0  0
   60.3668   47.3512   26.1096 H   0  0  0  0  0  0
   60.3400   48.4453   27.5340 H   0  0  0  0  0  0
   60.4453   49.0758   24.6126 H   0  0  0  0  0  0
   59.6077   49.9340   25.9499 H   0  0  0  0  0  0
   61.5282   51.1809   26.5022 H   0  0  0  0  0  0
   62.0280   50.7946   24.8206 H   0  0  0  0  0  0
   64.2153   44.7507   25.0661 H   0  0  0  0  0  0
   61.5957   43.2208   25.5387 H   0  0  0  0  0  0
   63.2729   42.6467   25.8281 H   0  0  0  0  0  0
   61.6773   43.3331   27.8638 H   0  0  0  0  0  0
   63.4326   43.7145   27.8783 H   0  0  0  0  0  0
   62.6457   45.9226   28.1764 H   0  0  0  0  0  0
   61.0735   45.5730   27.3810 H   0  0  0  0  0  0
   64.0962   43.6996   23.1164 H   0  0  0  0  0  0
   62.1216   45.1764   21.4600 H   0  0  0  0  0  0
   64.7075   43.6148   20.9853 H   0  0  0  0  0  0
   63.6254   43.8393   19.5692 H   0  0  0  0  0  0
   65.2376   45.7891   19.7855 H   0  0  0  0  0  0
   61.3284   42.8458   23.0406 H   0  0  0  0  0  0
   59.7307   41.6672   20.7197 H   0  0  0  0  0  0
   61.1469   40.1312   22.9580 H   0  0  0  0  0  0
   59.8271   39.4271   21.9635 H   0  0  0  0  0  0
   63.2097   40.2508   22.2407 H   0  0  0  0  0  0
   63.7028   39.6455   20.5027 H   0  0  0  0  0  0
   56.4398   42.6345   23.5029 H   0  0  0  0  0  0
   55.1904   39.9472   22.8472 H   0  0  0  0  0  0
   54.5047   41.5871   22.5883 H   0  0  0  0  0  0
   55.3520   40.1451   20.4780 H   0  0  0  0  0  0
   55.6856   41.9083   20.5595 H   0  0  0  0  0  0
   57.9280   41.0551   20.3004 H   0  0  0  0  0  0
   57.5696   39.5814   21.2629 H   0  0  0  0  0  0
   57.1192   40.4347   27.2916 H   0  0  0  0  0  0
   54.7116   41.0885   28.5239 H   0  0  0  0  0  0
   56.0594   42.2692   28.3970 H   0  0  0  0  0  0
   53.6196   41.9318   26.6051 H   0  0  0  0  0  0
   54.2679   43.4335   27.3475 H   0  0  0  0  0  0
   56.1860   43.4734   25.8280 H   0  0  0  0  0  0
   54.9055   42.8351   24.7420 H   0  0  0  0  0  0
   54.7479   36.6754   26.6263 H   0  0  0  0  0  0
   54.3708   35.9402   29.2877 H   0  0  0  0  0  0
   55.9490   35.7104   28.4613 H   0  0  0  0  0  0
   55.0249   38.0699   30.2051 H   0  0  0  0  0  0
   56.5162   37.0845   30.3829 H   0  0  0  0  0  0
   57.4454   37.9741   28.2675 H   0  0  0  0  0  0
   56.7035   39.4303   29.0129 H   0  0  0  0  0  0
   52.6053   35.8574   26.9235 H   0  0  0  0  0  0
   50.6065   37.9655   27.3531 H   0  0  0  0  0  0
   50.4294   34.9143   27.4263 H   0  0  0  0  0  0
   48.9978   35.9921   27.5515 H   0  0  0  0  0  0
   50.9264   36.0193   25.2113 H   0  0  0  0  0  0
   49.4368   35.0183   25.2883 H   0  0  0  0  0  0
   49.5867   38.0496   25.3650 H   0  0  0  0  0  0
   49.0730   37.0202   23.9855 H   0  0  0  0  0  0
   47.4307   37.9082   26.2981 H   0  0  0  0  0  0
   48.0159   35.2647   23.8715 H   0  0  0  0  0  0
   45.3136   37.2714   26.3835 H   0  0  0  0  0  0
   44.7182   35.8196   25.3029 H   0  0  0  0  0  0
   50.3149   38.0559   31.8448 H   0  0  0  0  0  0
   47.3656   37.4072   31.4586 H   0  0  0  0  0  0
   48.0999   38.7706   32.3688 H   0  0  0  0  0  0
   46.9226   39.1743   29.9904 H   0  0  0  0  0  0
   48.4143   40.0598   30.4568 H   0  0  0  0  0  0
   49.2362   39.1068   28.4712 H   0  0  0  0  0  0
   48.0906   37.7253   28.5460 H   0  0  0  0  0  0
   50.4875   33.7735   32.8064 H   0  0  0  0  0  0
   48.0740   33.8097   32.5693 H   0  0  0  0  0  0
   47.8896   34.6420   34.1505 H   0  0  0  0  0  0
   48.5032   32.9548   34.0897 H   0  0  0  0  0  0
   49.7050   34.6383   35.6115 H   0  0  0  0  0  0
   51.1887   33.7709   35.0893 H   0  0  0  0  0  0
   51.2616   36.3486   35.8404 H   0  0  0  0  0  0
   52.2921   35.7190   34.5106 H   0  0  0  0  0  0
   51.2176   37.4493   33.3138 H   0  0  0  0  0  0
   49.7412   37.3729   34.3341 H   0  0  0  0  0  0
  1  2  1  0  0  0
  1 79  1  0  0  0
  1 80  1  0  0  0
  1 81  1  0  0  0
  2  3  1  0  0  0
  2  5  1  0  0  0
  2 82  1  0  0  0
  3  4  2  0  0  0
  3  6  1  0  0  0
  5 83  1  0  0  0
  5 84  1  0  0  0
  5 85  1  0  0  0
  6  7  1  0  0  0
  6 12  1  0  0  0
  7  8  1  0  0  0
  7 10  1  0  0  0
  7 86  1  0  0  0
  8  9  2  0  0  0
  8 13  1  0  0  0
 10 11  1  0  0  0
 10 87  1  0  0  0
 10 88  1  0  0  0
 11 12  1  0  0  0
 11 89  1  0  0  0
 11 90  1  0  0  0
 12 91  1  0  0  0
 12 92  1  0  0  0
 13 14  1  0  0  0
 13 19  1  0  0  0
 14 15  1  0  0  0
 14 17  1  0  0  0
 14 93  1  0  0  0
 15 16  2  0  0  0
 15 20  1  0  0  0
 17 18  1  0  0  0
 17 94  1  0  0  0
 17 95  1  0  0  0
 18 19  1  0  0  0
 18 96  1  0  0  0
 18 97  1  0  0  0
 19 98  1  0  0  0
 19 99  1  0  0  0
 20 21  1  0  0  0
 20100  1  0  0  0
 21 22  1  0  0  0
 21 24  1  0  0  0
 21101  1  0  0  0
 22 23  2  0  0  0
 22 26  1  0  0  0
 24 25  1  0  0  0
 24102  1  0  0  0
 24103  1  0  0  0
 25104  1  0  0  0
 26 27  1  0  0  0
 26105  1  0  0  0
 27 28  1  0  0  0
 27 30  1  0  0  0
 27106  1  0  0  0
 28 29  2  0  0  0
 28 34  1  0  0  0
 30 31  1  0  0  0
 30107  1  0  0  0
 30108  1  0  0  0
 31 32  2  0  0  0
 31 33  1  0  0  0
 33109  1  0  0  0
 33110  1  0  0  0
 34 35  1  0  0  0
 34 40  1  0  0  0
 35 36  1  0  0  0
 35 38  1  0  0  0
 35111  1  0  0  0
 36 37  2  0  0  0
 36 41  1  0  0  0
 38 39  1  0  0  0
 38112  1  0  0  0
 38113  1  0  0  0
 39 40  1  0  0  0
 39114  1  0  0  0
 39115  1  0  0  0
 40116  1  0  0  0
 40117  1  0  0  0
 41 42  1  0  0  0
 41 47  1  0  0  0
 42 43  1  0  0  0
 42 45  1  0  0  0
 42118  1  0  0  0
 43 44  2  0  0  0
 43 48  1  0  0  0
 45 46  1  0  0  0
 45119  1  0  0  0
 45120  1  0  0  0
 46 47  1  0  0  0
 46121  1  0  0  0
 46122  1  0  0  0
 47123  1  0  0  0
 47124  1  0  0  0
 48 49  1  0  0  0
 48 54  1  0  0  0
 49 50  1  0  0  0
 49 52  1  0  0  0
 49125  1  0  0  0
 50 51  2  0  0  0
 50 55  1  0  0  0
 52 53  1  0  0  0
 52126  1  0  0  0
 52127  1  0  0  0
 53 54  1  0  0  0
 53128  1  0  0  0
 53129  1  0  0  0
 54130  1  0  0  0
 54131  1  0  0  0
 55 56  1  0  0  0
 55132  1  0  0  0
 56 57  1  0  0  0
 56 59  1  0  0  0
 56133  1  0  0  0
 57 58  2  0  0  0
 57 66  1  0  0  0
 59 60  1  0  0  0
 59134  1  0  0  0
 59135  1  0  0  0
 60 61  1  0  0  0
 60136  1  0  0  0
 60137  1  0  0  0
 61 62  1  0  0  0
 61138  1  0  0  0
 61139  1  0  0  0
 62 63  1  0  0  0
 62140  1  0  0  0
 63 64  2  0  0  0
 63 65  1  0  0  0
 64141  1  0  0  0
 65142  1  0  0  0
 65143  1  0  0  0
 66 67  1  0  0  0
 66 72  1  0  0  0
 67 68  1  0  0  0
 67 70  1  0  0  0
 67144  1  0  0  0
 68 69  2  0  0  0
 68 73  1  0  0  0
 70 71  1  0  0  0
 70145  1  0  0  0
 70146  1  0  0  0
 71 72  1  0  0  0
 71147  1  0  0  0
 71148  1  0  0  0
 72149  1  0  0  0
 72150  1  0  0  0
 73 74  1  0  0  0
 73 78  1  0  0  0
 74 75  1  0  0  0
 74 76  1  0  0  0
 74151  1  0  0  0
 75152  1  0  0  0
 75153  1  0  0  0
 75154  1  0  0  0
 76 77  1  0  0  0
 76155  1  0  0  0
 76156  1  0  0  0
 77 78  1  0  0  0
 77157  1  0  0  0
 77158  1  0  0  0
 78159  1  0  0  0
 78160  1  0  0  0
M  CHG  1   1   1
M  END
> <s_m_source_file>
../1ov3_ligand.sdf

> <i_m_source_file_index>
1

> <s_epik_input>
W05IMytdW0NAQEhdKFtDSDNdKUMoPU8pTjFbQ0BASF0oW0NIMl1bQ0gyXVtDSDJdMSlDKD1PKU4yW0NAQEhdKFtDSDJdW0NIMl1bQ0gyXTIpQyg9TylbTkhdW0NAQEhdKFtDSDJdW09IXSlDKD1PKVtOSF1bQ0BASF0oW0NIMl1DKD1PKVtOSDJdKUMoPU8pTjNbQ0BASF0oW0NIMl1bQ0gyXVtDSDJdMylDKD1PKU40W0NAQEhdKFtDSDJdW0NIMl1bQ0gyXTQpQyg9TylONVtDQEBIXShbQ0gyXVtDSDJdW0NIMl01KUMoPU8pW05IXVtDQEBIXShbQ0gyXVtDSDJdW0NIMl1bTkhdL0MoPU5cW0hdKVtOSDJdKUMoPU8pTjZbQ0BASF0oW0NIMl1bQ0gyXVtDSDJdNilDKD1PKU43W0NASF0oW0NIM10pW0NIMl1bQ0gyXVtDSDJdNw==

> <s_epik_cmdline>
J2VwaWtfYXBwJywgJy1pbWFlJywgJ2xpZ2FuZF9wcm8ubWFlJywgJy1vbWFlJywgJ2xpZ2FuZF9wcmVwLm1hZScsICctbXMnLCAnMScsICctcGgnLCAnNycsICctcGh0JywgJzAuNScsICctbnQn

> <s_epik_pKa_notes>
Molecule size exceeds maximum supported for generating protonation states

> <s_epik_Chemistry_Notes>
This compound has an imine and may undergo hydrolysis.

$$$$
