1ove_ligand
                    3D
 Schrodinger Suite 2020-3.
 51 55  0  0  1  0            999 V2000
   25.4610   11.1920   29.3270 Cl  0  0  0  0  0  0
   25.5450   10.6500   30.9290 C   0  0  0  0  0  0
   26.8120   10.5510   31.5650 C   0  0  0  0  0  0
   26.8670   10.1040   32.9290 C   0  0  0  0  0  0
   25.6630    9.7640   33.6410 C   0  0  0  0  0  0
   24.4110    9.8780   32.9570 C   0  0  0  0  0  0
   22.9370    9.4910   33.7730 Cl  0  0  0  0  0  0
   24.3230   10.3190   31.5960 C   0  0  0  0  0  0
   23.0540   10.4210   30.9550 N   0  0  0  0  0  0
   22.5670    9.3050   30.2650 C   0  0  0  0  0  0
   23.1460    8.2470   30.1610 O   0  0  0  0  0  0
   21.1570    9.4630   29.5990 C   0  0  0  0  0  0
   20.1580   10.2560   30.5120 C   0  0  0  0  0  0
   20.9360   11.6600   30.8950 C   0  0  0  0  0  0
   22.3300   11.6460   31.0720 C   0  0  0  0  0  0
   22.9690   12.9410   31.4040 C   0  0  0  0  0  0
   22.2470   14.1610   31.5460 C   0  0  0  0  0  0
   20.8030   14.0820   31.3600 C   0  0  0  0  0  0
   20.1060   12.8540   31.0330 C   0  0  0  0  0  0
   18.6070   12.9010   30.8860 C   0  0  0  0  0  0
   17.9290   13.5750   29.8040 C   0  0  0  0  0  0
   16.4870   13.5510   29.7500 C   0  0  0  0  0  0
   15.7560   12.8570   30.7710 C   0  0  0  0  0  0
   14.4260   12.8280   30.7190 F   0  0  0  0  0  0
   16.4020   12.1950   31.8430 C   0  0  0  0  0  0
   17.7970   12.2180   31.8960 C   0  0  0  0  0  0
   18.3240   11.5570   32.9500 F   0  0  0  0  0  0
   22.9910   15.5020   31.9050 C   0  0  0  0  0  0
   22.1620   16.8360   32.2690 C   0  0  0  0  0  0
   22.4490   18.1460   31.4380 C   0  0  0  0  0  0
   23.7960   18.1860   30.8620 N   0  0  0  0  0  0
   24.0150   17.0570   29.9620 C   0  0  0  0  0  0
   24.0860   15.7500   30.7630 C   0  0  0  0  0  0
   27.7247   10.8093   31.0280 H   0  0  0  0  0  0
   27.8312   10.0213   33.4305 H   0  0  0  0  0  0
   25.7039    9.4276   34.6770 H   0  0  0  0  0  0
   21.2592   10.0083   28.6491 H   0  0  0  0  0  0
   20.7289    8.4682   29.4065 H   0  0  0  0  0  0
   19.2282   10.4491   29.9568 H   0  0  0  0  0  0
   19.9321    9.6626   31.4103 H   0  0  0  0  0  0
   24.0494   12.9613   31.5473 H   0  0  0  0  0  0
   20.2170   14.9942   31.4728 H   0  0  0  0  0  0
   18.5003   14.0965   29.0360 H   0  0  0  0  0  0
   15.9583   14.0554   28.9412 H   0  0  0  0  0  0
   15.8235   11.6792   32.6094 H   0  0  0  0  0  0
   23.4094   15.2911   32.9002 H   0  0  0  0  0  0
   21.4120   16.8483   33.0736 H   0  0  0  0  0  0
   21.6701   18.9164   31.3392 H   0  0  0  0  0  0
   24.4852   19.0001   31.1309 H   0  0  0  0  0  0
   24.1256   17.0381   28.8677 H   0  0  0  0  0  0
   24.8741   15.0140   30.5459 H   0  0  0  0  0  0
  1  2  1  0  0  0
  2  3  2  0  0  0
  2  8  1  0  0  0
  3  4  1  0  0  0
  3 34  1  0  0  0
  4  5  2  0  0  0
  4 35  1  0  0  0
  5  6  1  0  0  0
  5 36  1  0  0  0
  6  7  1  0  0  0
  6  8  2  0  0  0
  8  9  1  0  0  0
  9 10  1  0  0  0
  9 15  1  0  0  0
 10 11  2  0  0  0
 10 12  1  0  0  0
 12 13  1  0  0  0
 12 37  1  0  0  0
 12 38  1  0  0  0
 13 14  1  0  0  0
 13 39  1  0  0  0
 13 40  1  0  0  0
 14 15  2  0  0  0
 14 19  1  0  0  0
 15 16  1  0  0  0
 16 17  2  0  0  0
 16 41  1  0  0  0
 17 18  1  0  0  0
 17 28  1  0  0  0
 18 19  2  0  0  0
 18 42  1  0  0  0
 19 20  1  0  0  0
 20 21  2  0  0  0
 20 26  1  0  0  0
 21 22  1  0  0  0
 21 43  1  0  0  0
 22 23  2  0  0  0
 22 44  1  0  0  0
 23 24  1  0  0  0
 23 25  1  0  0  0
 25 26  2  0  0  0
 25 45  1  0  0  0
 26 27  1  0  0  0
 28 29  1  0  0  0
 28 33  1  0  0  0
 28 46  1  0  0  0
 29 30  2  0  0  0
 29 47  1  0  0  0
 30 31  1  0  0  0
 30 48  1  0  0  0
 31 32  1  0  0  0
 31 49  1  0  0  0
 32 33  2  0  0  0
 32 50  1  0  0  0
 33 51  1  0  0  0
M  END
> <s_m_source_file>
../1ove_ligand.sdf

> <i_m_source_file_index>
1

> <s_epik_input>
Q2xjMVtjSF1bY0hdW2NIXWMoQ2wpYzFOKEMoPU8pW0NIMl1bQ0gyXTIpYyhjMjMpW2NIXWMoW0NIXTRbQ0hdPVtDSF1bTkhdW0NIXT1bQ0hdNClbY0hdYzMtYzVbY0hdW2NIXWMoRilbY0hdYzVG

> <s_epik_cmdline>
J2VwaWtfYXBwJywgJy1pbWFlJywgJ2xpZ2FuZF9wcm8ubWFlJywgJy1vbWFlJywgJ2xpZ2FuZF9wcmVwLm1hZScsICctbXMnLCAnMScsICctcGgnLCAnNycsICctcGh0JywgJzAuNScsICctbnQn

> <r_lp_tautomer_probability>
1

> <r_epik_Ionization_Penalty>
  0.0003

> <r_epik_Ionization_Penalty_Charging>
  0.0000

> <r_epik_Ionization_Penalty_Neutral>
  0.0003

> <r_epik_State_Penalty>
 -0.0000

> <r_epik_Charging_Adjusted_Penalty>
3.89412473482218e-14

> <i_epik_Tot_Q>
0

> <i_epik_Tot_abs_Q>
0

> <s_epik_Chemistry_Notes>
This compound has an imine and may undergo hydrolysis.

$$$$
