1ow4_ligand
                    3D
 Schrodinger Suite 2020-3.
 33 35  0  0  1  0            999 V2000
    0.9260   -7.4280    6.1550 C   0  0  0  0  0  0
    2.2180   -7.0360    5.8810 C   0  0  0  0  0  0
    2.4990   -6.0620    4.9330 C   0  0  0  0  0  0
    1.4750   -5.4250    4.2510 C   0  0  0  0  0  0
    0.1790   -5.7790    4.5110 C   0  0  0  0  0  0
   -0.8070   -5.0870    3.8090 C   0  0  0  0  0  0
   -2.1290   -5.3720    4.0000 C   0  0  0  0  0  0
   -2.4970   -6.3350    4.9160 C   0  0  0  0  0  0
    0.6510   -8.4480    7.0330 N   0  0  0  0  0  0
   -2.2100   -8.2990    6.7310 S   0  0  0  0  0  0
   -1.5290   -7.0150    5.6370 C   0  0  0  0  0  0
   -0.1430   -6.7580    5.4580 C   0  0  0  0  0  0
    1.2240   -9.4340    7.7200 C   0  0  0  0  0  0
    0.4990   -9.7660    8.8940 C   0  0  0  0  0  0
    0.9370  -10.7070    9.8200 C   0  0  0  0  0  0
    2.1250  -11.3810    9.5480 C   0  0  0  0  0  0
    2.8580  -11.1000    8.4040 C   0  0  0  0  0  0
    2.4210  -10.0980    7.4900 C   0  0  0  0  0  0
   -1.4810   -9.5900    6.4540 O   0  5  0  0  0  0
   -2.1090   -7.9110    8.1640 O   0  0  0  0  0  0
   -3.6120   -8.6540    6.3080 O   0  0  0  0  0  0
    3.0407   -7.5028    6.4227 H   0  0  0  0  0  0
    3.5349   -5.7958    4.7231 H   0  0  0  0  0  0
    1.6989   -4.6515    3.5164 H   0  0  0  0  0  0
   -0.5198   -4.3103    3.1002 H   0  0  0  0  0  0
   -2.8908   -4.8400    3.4302 H   0  0  0  0  0  0
   -3.5516   -6.5616    5.0730 H   0  0  0  0  0  0
   -0.3817   -8.6195    7.3708 H   0  0  0  0  0  0
   -0.4477   -9.2586    9.0792 H   0  0  0  0  0  0
    0.3694  -10.9101   10.7281 H   0  0  0  0  0  0
    2.4839  -12.1397   10.2434 H   0  0  0  0  0  0
    3.7767  -11.6509    8.2025 H   0  0  0  0  0  0
    3.0235   -9.8543    6.6149 H   0  0  0  0  0  0
  1  2  2  0  0  0
  1  9  1  0  0  0
  1 12  1  0  0  0
  2  3  1  0  0  0
  2 22  1  0  0  0
  3  4  2  0  0  0
  3 23  1  0  0  0
  4  5  1  0  0  0
  4 24  1  0  0  0
  5  6  1  0  0  0
  5 12  2  0  0  0
  6  7  2  0  0  0
  6 25  1  0  0  0
  7  8  1  0  0  0
  7 26  1  0  0  0
  8 11  2  0  0  0
  8 27  1  0  0  0
  9 13  1  0  0  0
  9 28  1  0  0  0
 10 21  2  0  0  0
 10 20  2  0  0  0
 10 19  1  0  0  0
 10 11  1  0  0  0
 11 12  1  0  0  0
 13 14  2  0  0  0
 13 18  1  0  0  0
 14 15  1  0  0  0
 14 29  1  0  0  0
 15 16  2  0  0  0
 15 30  1  0  0  0
 16 17  1  0  0  0
 16 31  1  0  0  0
 17 18  2  0  0  0
 17 32  1  0  0  0
 18 33  1  0  0  0
M  CHG  1  19  -1
M  END
> <s_m_source_file>
../1ow4_ligand.sdf

> <i_m_source_file_index>
1

> <s_epik_input>
W2NIXTFbY0hdW2NIXWMoUyg9TykoPU8pW09IXSljKGMxMiljKFtjSF1bY0hdW2NIXTIpW05IXWMzW2NIXVtjSF1bY0hdW2NIXVtjSF0z

> <s_epik_cmdline>
J2VwaWtfYXBwJywgJy1pbWFlJywgJ2xpZ2FuZF9wcm8ubWFlJywgJy1vbWFlJywgJ2xpZ2FuZF9wcmVwLm1hZScsICctbXMnLCAnMScsICctcGgnLCAnNycsICctcGh0JywgJzAuNScsICctbnQn

> <r_lp_tautomer_probability>
1

> <r_epik_Ionization_Penalty>
  0.0000

> <r_epik_Ionization_Penalty_Charging>
  0.0000

> <r_epik_Ionization_Penalty_Neutral>
  0.0000

> <r_epik_State_Penalty>
 -0.0000

> <r_epik_Charging_Adjusted_Penalty>
1.09818092811241e-05

> <i_epik_Tot_Q>
-1

> <i_epik_Tot_abs_Q>
1

$$$$
