1ow6_ligand
                    3D
 Schrodinger Suite 2020-3.
192191  0  0  1  0            999 V2000
   24.8710   36.2740   19.6690 N   0  3  0  0  0  0
   24.6200   34.8560   20.0550 C   0  0  2  0  0  0
   24.9330   33.9020   18.9080 C   0  0  0  0  0  0
   24.8730   32.6850   19.0830 O   0  0  0  0  0  0
   23.1630   34.6820   20.5390 C   0  0  2  0  0  0
   23.0340   35.3270   21.8180 O   0  0  0  0  0  0
   22.7660   33.2260   20.8350 C   0  0  0  0  0  0
   25.2870   34.4400   17.7430 N   0  0  0  0  0  0
   25.7680   33.5950   16.6450 C   0  0  2  0  0  0
   27.2130   33.1610   16.9210 C   0  0  0  0  0  0
   27.5270   31.9910   16.6880 O   0  0  0  0  0  0
   25.6360   34.3000   15.2870 C   0  0  0  0  0  0
   24.7370   33.6040   14.2620 C   0  0  0  0  0  0
   24.4760   34.4520   13.0060 C   0  0  0  0  0  0
   23.2110   35.1960   13.0220 N   0  0  0  0  0  0
   22.8690   36.1960   12.2040 C   0  0  0  0  0  0
   23.6970   36.6340   11.2620 N   0  0  0  0  0  0
   21.6770   36.7760   12.3210 N   0  0  0  0  0  0
   28.0630   34.0590   17.4290 N   0  0  0  0  0  0
   29.4220   33.7160   17.8930 C   0  0  2  0  0  0
   29.4570   32.8190   19.1430 C   0  0  0  0  0  0
   30.3370   31.9620   19.2570 O   0  0  0  0  0  0
   30.3000   34.9670   18.1040 C   0  0  0  0  0  0
   30.0950   36.0560   17.0530 C   0  0  0  0  0  0
   31.1790   37.1240   16.9750 C   0  0  0  0  0  0
   31.3490   37.9250   17.9190 O   0  0  0  0  0  0
   31.8540   37.2040   15.9270 O   0  0  0  0  0  0
   28.4990   32.9930   20.0550 N   0  0  0  0  0  0
   28.3040   32.1480   21.2380 C   0  0  2  0  0  0
   27.8230   30.7510   20.8560 C   0  0  0  0  0  0
   28.0960   29.7750   21.5580 O   0  0  0  0  0  0
   27.2710   32.7760   22.1780 C   0  0  0  0  0  0
   26.8330   31.9880   23.4150 C   0  0  0  0  0  0
   28.0020   31.8110   24.3620 C   0  0  0  0  0  0
   25.6760   32.6480   24.1410 C   0  0  0  0  0  0
   27.1120   30.6730   19.7360 N   0  0  0  0  0  0
   26.6290   29.4100   19.1760 C   0  0  2  0  0  0
   27.6640   28.6610   18.3300 C   0  0  0  0  0  0
   27.6070   27.4380   18.1980 O   0  0  0  0  0  0
   25.3450   29.6420   18.3720 C   0  0  0  0  0  0
   24.1500   29.9520   19.2620 C   0  0  0  0  0  0
   24.1420   29.4960   20.4290 O   0  0  0  0  0  0
   23.1830   30.6580   18.8870 O   0  0  0  0  0  0
   28.6480   29.3850   17.8070 N   0  0  0  0  0  0
   29.8400   28.7460   17.2240 C   0  0  2  0  0  0
   30.5300   27.9060   18.3010 C   0  0  0  0  0  0
   31.0010   26.8020   18.0200 O   0  0  0  0  0  0
   30.8510   29.7870   16.7260 C   0  0  0  0  0  0
   30.2970   30.8500   15.7840 C   0  0  0  0  0  0
   30.3530   30.4420   14.3260 C   0  0  0  0  0  0
   31.3350   30.8600   13.6780 O   0  0  0  0  0  0
   29.4420   29.7150   13.8680 O   0  0  0  0  0  0
   30.5460   28.4660   19.5140 N   0  0  0  0  0  0
   30.9910   27.8480   20.7710 C   0  0  2  0  0  0
   30.0940   26.7720   21.3730 C   0  0  0  0  0  0
   30.5630   25.7010   21.7530 O   0  0  0  0  0  0
   31.1160   28.9140   21.8600 C   0  0  0  0  0  0
   32.0950   30.0560   21.5780 C   0  0  0  0  0  0
   31.7640   31.1130   22.6120 C   0  0  0  0  0  0
   33.6040   29.6910   21.5880 C   0  0  0  0  0  0
   28.8060   27.0520   21.5100 N   0  0  0  0  0  0
   27.9250   25.9980   21.9900 C   0  0  2  0  0  0
   27.9250   24.7840   21.0610 C   0  0  0  0  0  0
   27.8080   23.6420   21.5230 O   0  0  0  0  0  0
   26.5170   26.5640   22.1420 C   0  0  0  0  0  0
   26.3860   27.5050   23.3290 C   0  0  0  0  0  0
   27.2080   26.8770   24.8190 S   0  0  0  0  0  0
   25.9760   25.7520   25.4610 C   0  0  0  0  0  0
   28.0970   25.0270   19.7620 N   0  0  0  0  0  0
   28.2150   23.9630   18.7650 C   0  0  2  0  0  0
   29.5750   23.2520   18.7670 C   0  0  0  0  0  0
   29.6880   22.1560   18.2190 O   0  0  0  0  0  0
   27.9260   24.5330   17.3830 C   0  0  0  0  0  0
   30.5960   23.8650   19.3620 N   0  0  0  0  0  0
   31.9260   23.2750   19.5620 C   0  0  2  0  0  0
   31.9680   22.1510   20.5940 C   0  0  0  0  0  0
   32.9140   21.3570   20.6210 O   0  0  0  0  0  0
   32.9270   24.3150   20.0700 C   0  0  0  0  0  0
   33.4170   25.1470   19.0360 O   0  0  0  0  0  0
   30.9640   22.1180   21.4680 N   0  0  0  0  0  0
   30.8370   21.0600   22.4730 C   0  0  2  0  0  0
   29.8850   19.9600   21.9790 C   0  0  0  0  0  0
   29.6980   18.9280   22.6390 O   0  0  0  0  0  0
   30.4080   21.6690   23.8210 C   0  0  0  0  0  0
   31.3350   22.7320   24.4250 C   0  0  0  0  0  0
   30.5730   23.6050   25.3920 C   0  0  0  0  0  0
   32.5600   22.1140   25.0950 C   0  0  0  0  0  0
   29.3090   20.2160   20.8030 N   0  0  0  0  0  0
   28.4540   19.2890   20.0670 C   0  0  2  0  0  0
   27.0950   19.1070   20.7440 C   0  0  0  0  0  0
   26.4410   20.0730   21.1400 O   0  0  0  0  0  0
   29.1750   17.9560   19.8360 C   0  0  0  0  0  0
   30.4610   18.1840   19.2870 O   0  0  0  0  0  0
   26.5740   17.9940   20.9200 O   0  0  0  0  0  0
   25.9109   36.3823   19.3270 H   0  0  0  0  0  0
   24.7011   36.9262   20.5383 H   0  0  0  0  0  0
   24.1863   36.5596   18.8569 H   0  0  0  0  0  0
   25.3177   34.6294   20.8746 H   0  0  0  0  0  0
   22.5104   35.1285   19.7743 H   0  0  0  0  0  0
   23.2576   36.3994   21.9182 H   0  0  0  0  0  0
   22.8303   32.6333   19.9106 H   0  0  0  0  0  0
   21.7352   33.1976   21.2178 H   0  0  0  0  0  0
   23.4486   32.8057   21.5883 H   0  0  0  0  0  0
   25.2160   35.5294   17.6082 H   0  0  0  0  0  0
   25.1106   32.7132   16.6324 H   0  0  0  0  0  0
   25.2138   35.3049   15.4351 H   0  0  0  0  0  0
   26.6282   34.3844   14.8197 H   0  0  0  0  0  0
   25.2106   32.6663   13.9358 H   0  0  0  0  0  0
   23.7619   33.3822   14.7202 H   0  0  0  0  0  0
   25.2802   35.1936   12.8907 H   0  0  0  0  0  0
   24.4501   33.7987   12.1214 H   0  0  0  0  0  0
   22.4347   34.9452   13.7599 H   0  0  0  0  0  0
   24.6884   36.1725   11.1432 H   0  0  0  0  0  0
   20.9718   36.4331   13.0925 H   0  0  0  0  0  0
   21.3969   37.5983   11.6463 H   0  0  0  0  0  0
   27.7058   35.0974   17.4927 H   0  0  0  0  0  0
   29.8006   33.1243   17.0466 H   0  0  0  0  0  0
   30.0719   35.4142   19.0828 H   0  0  0  0  0  0
   31.3614   34.6800   18.0705 H   0  0  0  0  0  0
   30.0468   35.5973   16.0543 H   0  0  0  0  0  0
   29.1552   36.5901   17.2569 H   0  0  0  0  0  0
   32.1340   38.6929   17.8542 H   0  0  0  0  0  0
   27.8266   33.8436   19.8698 H   0  0  0  0  0  0
   29.2967   32.0908   21.7084 H   0  0  0  0  0  0
   27.6643   33.7238   22.5743 H   0  0  0  0  0  0
   26.3403   32.9682   21.6241 H   0  0  0  0  0  0
   26.4837   31.0014   23.0766 H   0  0  0  0  0  0
   28.8365   31.3322   23.8288 H   0  0  0  0  0  0
   27.6960   31.1780   25.2080 H   0  0  0  0  0  0
   28.3223   32.7943   24.7368 H   0  0  0  0  0  0
   24.8314   32.7731   23.4474 H   0  0  0  0  0  0
   25.9920   33.6329   24.5154 H   0  0  0  0  0  0
   25.3656   32.0166   24.9866 H   0  0  0  0  0  0
   26.8903   31.6216   19.2252 H   0  0  0  0  0  0
   26.4371   28.7983   20.0698 H   0  0  0  0  0  0
   25.4887   30.4921   17.6888 H   0  0  0  0  0  0
   25.1090   28.7393   17.7894 H   0  0  0  0  0  0
   22.3442   30.8505   19.5721 H   0  0  0  0  0  0
   28.5601   30.4815   17.8150 H   0  0  0  0  0  0
   29.4720   28.1387   16.3839 H   0  0  0  0  0  0
   31.2741   30.3276   17.5855 H   0  0  0  0  0  0
   31.6589   29.2805   16.1776 H   0  0  0  0  0  0
   29.2442   31.0483   16.0336 H   0  0  0  0  0  0
   30.8803   31.7762   15.8927 H   0  0  0  0  0  0
   29.4627   29.4068   12.8123 H   0  0  0  0  0  0
   30.1753   29.5016   19.5114 H   0  0  0  0  0  0
   31.9285   27.3796   20.4367 H   0  0  0  0  0  0
   30.1366   29.3873   22.0239 H   0  0  0  0  0  0
   31.4577   28.4451   22.7946 H   0  0  0  0  0  0
   31.9402   30.4060   20.5467 H   0  0  0  0  0  0
   30.6888   31.3416   22.5714 H   0  0  0  0  0  0
   32.3410   32.0255   22.4012 H   0  0  0  0  0  0
   32.0219   30.7393   23.6139 H   0  0  0  0  0  0
   33.8005   28.9231   20.8253 H   0  0  0  0  0  0
   33.8807   29.3025   22.5792 H   0  0  0  0  0  0
   34.1998   30.5887   21.3666 H   0  0  0  0  0  0
   28.3970   28.0453   21.2730 H   0  0  0  0  0  0
   28.3326   25.6840   22.9622 H   0  0  0  0  0  0
   26.2481   27.1265   21.2357 H   0  0  0  0  0  0
   25.8038   25.7391   22.2866 H   0  0  0  0  0  0
   26.8395   28.4756   23.0793 H   0  0  0  0  0  0
   25.3218   27.6481   23.5678 H   0  0  0  0  0  0
   26.3494   25.2884   26.3860 H   0  0  0  0  0  0
   25.7702   24.9695   24.7158 H   0  0  0  0  0  0
   25.0503   26.3059   25.6762 H   0  0  0  0  0  0
   28.1494   26.0807   19.4507 H   0  0  0  0  0  0
   27.4558   23.2277   19.0701 H   0  0  0  0  0  0
   26.9499   25.0401   17.3923 H   0  0  0  0  0  0
   27.9081   23.7165   16.6461 H   0  0  0  0  0  0
   28.7113   25.2542   17.1123 H   0  0  0  0  0  0
   30.3883   24.8858   19.7154 H   0  0  0  0  0  0
   32.1421   22.8940   18.5530 H   0  0  0  0  0  0
   32.4403   24.9572   20.8188 H   0  0  0  0  0  0
   33.7862   23.8036   20.5284 H   0  0  0  0  0  0
   34.1452   25.9388   19.2657 H   0  0  0  0  0  0
   30.2145   22.9215   21.4176 H   0  0  0  0  0  0
   31.8333   20.6095   22.5930 H   0  0  0  0  0  0
   29.4288   22.1572   23.7077 H   0  0  0  0  0  0
   30.3355   20.8728   24.5766 H   0  0  0  0  0  0
   31.7019   23.3709   23.6082 H   0  0  0  0  0  0
   29.6976   24.0366   24.8847 H   0  0  0  0  0  0
   31.2266   24.4149   25.7482 H   0  0  0  0  0  0
   30.2395   22.9998   26.2478 H   0  0  0  0  0  0
   33.0959   21.4841   24.3697 H   0  0  0  0  0  0
   32.2397   21.4988   25.9488 H   0  0  0  0  0  0
   33.2269   22.9139   25.4491 H   0  0  0  0  0  0
   29.5206   21.2139   20.3915 H   0  0  0  0  0  0
   28.2756   19.7724   19.0952 H   0  0  0  0  0  0
   29.2813   17.4259   20.7939 H   0  0  0  0  0  0
   28.5900   17.3388   19.1383 H   0  0  0  0  0  0
   31.1194   17.3334   19.0568 H   0  0  0  0  0  0
   25.5936   17.9174   21.4128 H   0  0  0  0  0  0
  1  2  1  0  0  0
  1 95  1  0  0  0
  1 96  1  0  0  0
  1 97  1  0  0  0
  2  3  1  0  0  0
  2  5  1  0  0  0
  2 98  1  0  0  0
  3  4  2  0  0  0
  3  8  1  0  0  0
  5  6  1  0  0  0
  5  7  1  0  0  0
  5 99  1  0  0  0
  6100  1  0  0  0
  7101  1  0  0  0
  7102  1  0  0  0
  7103  1  0  0  0
  8  9  1  0  0  0
  8104  1  0  0  0
  9 10  1  0  0  0
  9 12  1  0  0  0
  9105  1  0  0  0
 10 11  2  0  0  0
 10 19  1  0  0  0
 12 13  1  0  0  0
 12106  1  0  0  0
 12107  1  0  0  0
 13 14  1  0  0  0
 13108  1  0  0  0
 13109  1  0  0  0
 14 15  1  0  0  0
 14110  1  0  0  0
 14111  1  0  0  0
 15 16  1  0  0  0
 15112  1  0  0  0
 16 17  2  0  0  0
 16 18  1  0  0  0
 17113  1  0  0  0
 18114  1  0  0  0
 18115  1  0  0  0
 19 20  1  0  0  0
 19116  1  0  0  0
 20 21  1  0  0  0
 20 23  1  0  0  0
 20117  1  0  0  0
 21 22  2  0  0  0
 21 28  1  0  0  0
 23 24  1  0  0  0
 23118  1  0  0  0
 23119  1  0  0  0
 24 25  1  0  0  0
 24120  1  0  0  0
 24121  1  0  0  0
 25 26  1  0  0  0
 25 27  2  0  0  0
 26122  1  0  0  0
 28 29  1  0  0  0
 28123  1  0  0  0
 29 30  1  0  0  0
 29 32  1  0  0  0
 29124  1  0  0  0
 30 31  2  0  0  0
 30 36  1  0  0  0
 32 33  1  0  0  0
 32125  1  0  0  0
 32126  1  0  0  0
 33 34  1  0  0  0
 33 35  1  0  0  0
 33127  1  0  0  0
 34128  1  0  0  0
 34129  1  0  0  0
 34130  1  0  0  0
 35131  1  0  0  0
 35132  1  0  0  0
 35133  1  0  0  0
 36 37  1  0  0  0
 36134  1  0  0  0
 37 38  1  0  0  0
 37 40  1  0  0  0
 37135  1  0  0  0
 38 39  2  0  0  0
 38 44  1  0  0  0
 40 41  1  0  0  0
 40136  1  0  0  0
 40137  1  0  0  0
 41 42  2  0  0  0
 41 43  1  0  0  0
 43138  1  0  0  0
 44 45  1  0  0  0
 44139  1  0  0  0
 45 46  1  0  0  0
 45 48  1  0  0  0
 45140  1  0  0  0
 46 47  2  0  0  0
 46 53  1  0  0  0
 48 49  1  0  0  0
 48141  1  0  0  0
 48142  1  0  0  0
 49 50  1  0  0  0
 49143  1  0  0  0
 49144  1  0  0  0
 50 51  2  0  0  0
 50 52  1  0  0  0
 52145  1  0  0  0
 53 54  1  0  0  0
 53146  1  0  0  0
 54 55  1  0  0  0
 54 57  1  0  0  0
 54147  1  0  0  0
 55 56  2  0  0  0
 55 61  1  0  0  0
 57 58  1  0  0  0
 57148  1  0  0  0
 57149  1  0  0  0
 58 59  1  0  0  0
 58 60  1  0  0  0
 58150  1  0  0  0
 59151  1  0  0  0
 59152  1  0  0  0
 59153  1  0  0  0
 60154  1  0  0  0
 60155  1  0  0  0
 60156  1  0  0  0
 61 62  1  0  0  0
 61157  1  0  0  0
 62 63  1  0  0  0
 62 65  1  0  0  0
 62158  1  0  0  0
 63 64  2  0  0  0
 63 69  1  0  0  0
 65 66  1  0  0  0
 65159  1  0  0  0
 65160  1  0  0  0
 66 67  1  0  0  0
 66161  1  0  0  0
 66162  1  0  0  0
 67 68  1  0  0  0
 68163  1  0  0  0
 68164  1  0  0  0
 68165  1  0  0  0
 69 70  1  0  0  0
 69166  1  0  0  0
 70 71  1  0  0  0
 70 73  1  0  0  0
 70167  1  0  0  0
 71 72  2  0  0  0
 71 74  1  0  0  0
 73168  1  0  0  0
 73169  1  0  0  0
 73170  1  0  0  0
 74 75  1  0  0  0
 74171  1  0  0  0
 75 76  1  0  0  0
 75 78  1  0  0  0
 75172  1  0  0  0
 76 77  2  0  0  0
 76 80  1  0  0  0
 78 79  1  0  0  0
 78173  1  0  0  0
 78174  1  0  0  0
 79175  1  0  0  0
 80 81  1  0  0  0
 80176  1  0  0  0
 81 82  1  0  0  0
 81 84  1  0  0  0
 81177  1  0  0  0
 82 83  2  0  0  0
 82 88  1  0  0  0
 84 85  1  0  0  0
 84178  1  0  0  0
 84179  1  0  0  0
 85 86  1  0  0  0
 85 87  1  0  0  0
 85180  1  0  0  0
 86181  1  0  0  0
 86182  1  0  0  0
 86183  1  0  0  0
 87184  1  0  0  0
 87185  1  0  0  0
 87186  1  0  0  0
 88 89  1  0  0  0
 88187  1  0  0  0
 89 90  1  0  0  0
 89 92  1  0  0  0
 89188  1  0  0  0
 90 91  2  0  0  0
 90 94  1  0  0  0
 92 93  1  0  0  0
 92189  1  0  0  0
 92190  1  0  0  0
 93191  1  0  0  0
 94192  1  0  0  0
M  CHG  1   1   1
M  END
> <s_m_source_file>
../1ow6_ligand.sdf

> <i_m_source_file_index>
1

> <s_epik_input>
W0hdL049QyhbTkgyXSlcW05IXVtDSDJdW0NIMl1bQ0gyXVtDQEhdKFtOSF1DKD1PKVtDQEBIXShbTkgzK10pW0NASF0oW09IXSlbQ0gzXSlDKD1PKVtOSF1bQ0BASF0oW0NIMl1bQ0gyXUMoPU8pW09IXSlDKD1PKVtOSF1bQ0BASF0oW0NIMl1bQ0hdKFtDSDNdKVtDSDNdKUMoPU8pW05IXVtDQEBIXShbQ0gyXUMoPU8pW09IXSlDKD1PKVtOSF1bQ0BASF0oW0NIMl1bQ0gyXUMoPU8pW09IXSlDKD1PKVtOSF1bQ0BASF0oW0NIMl1bQ0hdKFtDSDNdKVtDSDNdKUMoPU8pW05IXVtDQEBIXShbQ0gyXVtDSDJdU1tDSDNdKUMoPU8pW05IXVtDQEBIXShbQ0gzXSlDKD1PKVtOSF1bQ0BASF0oW0NIMl1bT0hdKUMoPU8pW05IXVtDQEBIXShbQ0gyXVtDSF0oW0NIM10pW0NIM10pQyg9TylbTkhdW0NASF0oQyg9TylbT0hdKVtDSDJdW09IXQ==

> <s_epik_cmdline>
J2VwaWtfYXBwJywgJy1pbWFlJywgJ2xpZ2FuZF9wcm8ubWFlJywgJy1vbWFlJywgJ2xpZ2FuZF9wcmVwLm1hZScsICctbXMnLCAnMScsICctcGgnLCAnNycsICctcGh0JywgJzAuNScsICctbnQn

> <s_epik_pKa_notes>
Molecule size exceeds maximum supported for generating protonation states

> <s_epik_Chemistry_Notes>
This compound has an imine and may undergo hydrolysis.

$$$$
