1ow7_ligand
                    3D
 Schrodinger Suite 2020-3.
192191  0  0  1  0            999 V2000
   24.8960   35.5430   19.8820 N   0  3  0  0  0  0
   24.7200   34.1090   20.2440 C   0  0  2  0  0  0
   25.0020   33.2030   19.0510 C   0  0  0  0  0  0
   24.9120   31.9860   19.1650 O   0  0  0  0  0  0
   23.2810   33.8390   20.8200 C   0  0  2  0  0  0
   23.1730   34.4490   22.1130 O   0  0  0  0  0  0
   23.0010   32.3450   20.9810 C   0  0  0  0  0  0
   25.3460   33.7800   17.9020 N   0  0  0  0  0  0
   25.6650   32.9450   16.7450 C   0  0  2  0  0  0
   27.1410   32.5560   16.9180 C   0  0  0  0  0  0
   27.5560   31.4690   16.5080 O   0  0  0  0  0  0
   25.4270   33.7020   15.4210 C   0  0  0  0  0  0
   24.8600   32.8140   14.3030 C   0  0  0  0  0  0
   24.6000   33.5880   13.0020 C   0  0  0  0  0  0
   23.4280   34.4640   13.0730 N   0  0  0  0  0  0
   22.9100   35.1200   12.0320 C   0  0  0  0  0  0
   23.4560   35.0070   10.8270 N   0  0  0  0  0  0
   21.8370   35.8870   12.1910 N   0  0  0  0  0  0
   27.9100   33.4450   17.5590 N   0  0  0  0  0  0
   29.3320   33.2260   17.8410 C   0  0  2  0  0  0
   29.4730   32.3200   19.0790 C   0  0  0  0  0  0
   30.3990   31.5070   19.1690 O   0  0  0  0  0  0
   30.0380   34.5740   18.0560 C   0  0  0  0  0  0
   29.8590   35.5100   16.8610 C   0  0  0  0  0  0
   31.0030   36.5140   16.6670 C   0  0  0  0  0  0
   31.1180   37.4940   17.4420 O   0  0  0  0  0  0
   31.7990   36.3140   15.7240 O   0  0  0  0  0  0
   28.5560   32.4840   20.0330 N   0  0  0  0  0  0
   28.5120   31.6540   21.2360 C   0  0  2  0  0  0
   28.0220   30.2570   20.7940 C   0  0  0  0  0  0
   28.2480   29.2570   21.4790 O   0  0  0  0  0  0
   27.5210   32.2510   22.2510 C   0  0  0  0  0  0
   27.0630   31.3520   23.4080 C   0  0  0  0  0  0
   28.1940   31.1610   24.3710 C   0  0  0  0  0  0
   25.8950   31.9560   24.1340 C   0  0  0  0  0  0
   27.3430   30.1990   19.6480 N   0  0  0  0  0  0
   26.8160   28.9430   19.1260 C   0  0  2  0  0  0
   27.8590   28.1790   18.3290 C   0  0  0  0  0  0
   27.7040   26.9840   18.0530 O   0  0  0  0  0  0
   25.5560   29.1920   18.2870 C   0  0  0  0  0  0
   24.3060   29.3340   19.1510 C   0  0  0  0  0  0
   24.1960   28.5700   20.1370 O   0  0  0  0  0  0
   23.4430   30.1880   18.8450 O   0  0  0  0  0  0
   28.9130   28.8870   17.9400 N   0  0  0  0  0  0
   30.0260   28.2740   17.2280 C   0  0  2  0  0  0
   30.6740   27.4460   18.3370 C   0  0  0  0  0  0
   31.0940   26.3050   18.1280 O   0  0  0  0  0  0
   30.9860   29.3620   16.7290 C   0  0  0  0  0  0
   30.4350   30.1790   15.5660 C   0  0  0  0  0  0
   30.7280   29.5460   14.2160 C   0  0  0  0  0  0
   31.8220   29.8210   13.6730 O   0  0  0  0  0  0
   29.8810   28.7710   13.7080 O   0  0  0  0  0  0
   30.7210   28.0470   19.5260 N   0  0  0  0  0  0
   31.2750   27.4200   20.7230 C   0  0  2  0  0  0
   30.4130   26.2530   21.1840 C   0  0  0  0  0  0
   30.8910   25.1290   21.3200 O   0  0  0  0  0  0
   31.3460   28.4160   21.8750 C   0  0  0  0  0  0
   32.2470   29.6260   21.7430 C   0  0  0  0  0  0
   32.1020   30.4580   22.9920 C   0  0  0  0  0  0
   33.6790   29.1900   21.5380 C   0  0  0  0  0  0
   29.1440   26.5270   21.4610 N   0  0  0  0  0  0
   28.2600   25.4700   21.9130 C   0  0  2  0  0  0
   28.3770   24.2620   20.9890 C   0  0  0  0  0  0
   28.2500   23.1130   21.4280 O   0  0  0  0  0  0
   26.8190   25.9790   21.9690 C   0  0  0  0  0  0
   26.5630   26.8540   23.1810 C   0  0  0  0  0  0
   27.2340   26.1000   24.6880 S   0  0  0  0  0  0
   25.9950   24.8890   25.0500 C   0  0  0  0  0  0
   28.6450   24.5320   19.7130 N   0  0  0  0  0  0
   28.7950   23.4860   18.7070 C   0  0  2  0  0  0
   30.1090   22.7020   18.8500 C   0  0  0  0  0  0
   30.1520   21.5120   18.5450 O   0  0  0  0  0  0
   28.6950   24.0920   17.3100 C   0  0  0  0  0  0
   31.1730   23.3640   19.3100 N   0  0  0  0  0  0
   32.4880   22.7280   19.4890 C   0  0  2  0  0  0
   32.4650   21.5200   20.4270 C   0  0  0  0  0  0
   33.3490   20.6580   20.3620 O   0  0  0  0  0  0
   33.5060   23.7310   20.0390 C   0  0  0  0  0  0
   33.6770   24.8400   19.1820 O   0  0  0  0  0  0
   31.4700   21.4670   21.3090 N   0  0  0  0  0  0
   31.3500   20.3670   22.2640 C   0  0  2  0  0  0
   30.3340   19.3460   21.7470 C   0  0  0  0  0  0
   30.1630   18.2680   22.3250 O   0  0  0  0  0  0
   30.8990   20.9150   23.6190 C   0  0  0  0  0  0
   31.6470   22.1560   24.1010 C   0  0  0  0  0  0
   30.6880   23.0760   24.8230 C   0  0  0  0  0  0
   32.8040   21.7460   24.9910 C   0  0  0  0  0  0
   29.6690   19.7200   20.6530 N   0  0  0  0  0  0
   28.6540   18.9130   19.9750 C   0  0  2  0  0  0
   27.2760   18.9110   20.6530 C   0  0  0  0  0  0
   26.5850   19.9520   20.5490 O   0  0  0  0  0  0
   29.1640   17.4760   19.7920 C   0  0  0  0  0  0
   30.3290   17.4400   18.9770 O   0  0  0  0  0  0
   26.9120   17.8830   21.2700 O   0  0  0  0  0  0
   25.9094   35.6988   19.4835 H   0  0  0  0  0  0
   24.7538   36.1671   20.7766 H   0  0  0  0  0  0
   24.1548   35.8221   19.1186 H   0  0  0  0  0  0
   25.4855   33.9077   21.0079 H   0  0  0  0  0  0
   22.5107   34.2890   20.1765 H   0  0  0  0  0  0
   23.3381   35.5306   22.2264 H   0  0  0  0  0  0
   23.0772   31.8501   20.0016 H   0  0  0  0  0  0
   21.9880   32.2033   21.3856 H   0  0  0  0  0  0
   23.7363   31.9065   21.6717 H   0  0  0  0  0  0
   25.3914   34.8759   17.8186 H   0  0  0  0  0  0
   24.9972   32.0709   16.7406 H   0  0  0  0  0  0
   24.7097   34.5188   15.5895 H   0  0  0  0  0  0
   26.3791   34.1187   15.0606 H   0  0  0  0  0  0
   25.5738   32.0080   14.0774 H   0  0  0  0  0  0
   23.9051   32.3771   14.6305 H   0  0  0  0  0  0
   25.4711   34.2184   12.7701 H   0  0  0  0  0  0
   24.4326   32.8770   12.1795 H   0  0  0  0  0  0
   22.9126   34.6164   14.0328 H   0  0  0  0  0  0
   24.3446   34.3749   10.6829 H   0  0  0  0  0  0
   21.3758   35.9885   13.1845 H   0  0  0  0  0  0
   21.4098   36.4206   11.3292 H   0  0  0  0  0  0
   27.4233   34.3782   17.8786 H   0  0  0  0  0  0
   29.7645   32.7288   16.9602 H   0  0  0  0  0  0
   29.6209   35.0686   18.9456 H   0  0  0  0  0  0
   31.1151   34.4047   18.2018 H   0  0  0  0  0  0
   29.7922   34.9166   15.9372 H   0  0  0  0  0  0
   28.9362   36.0950   16.9885 H   0  0  0  0  0  0
   31.9387   38.2129   17.3016 H   0  0  0  0  0  0
   27.8128   33.2819   19.8878 H   0  0  0  0  0  0
   29.5193   31.6330   21.6776 H   0  0  0  0  0  0
   27.9726   33.1326   22.7293 H   0  0  0  0  0  0
   26.5982   32.5482   21.7312 H   0  0  0  0  0  0
   26.7495   30.3749   23.0118 H   0  0  0  0  0  0
   29.0528   30.7187   23.8449 H   0  0  0  0  0  0
   27.8755   30.4897   25.1821 H   0  0  0  0  0  0
   28.4843   32.1343   24.7933 H   0  0  0  0  0  0
   25.0607   32.0988   23.4315 H   0  0  0  0  0  0
   26.1889   32.9281   24.5567 H   0  0  0  0  0  0
   25.5801   31.2834   24.9455 H   0  0  0  0  0  0
   27.1846   31.1351   19.0925 H   0  0  0  0  0  0
   26.5677   28.3495   20.0182 H   0  0  0  0  0  0
   25.6782   30.1195   17.7083 H   0  0  0  0  0  0
   25.4011   28.3481   17.5986 H   0  0  0  0  0  0
   23.3119   28.6362   20.7882 H   0  0  0  0  0  0
   28.9319   29.9629   18.1684 H   0  0  0  0  0  0
   29.6979   27.6954   16.3519 H   0  0  0  0  0  0
   31.2029   30.0634   17.5481 H   0  0  0  0  0  0
   31.9223   28.8964   16.3875 H   0  0  0  0  0  0
   29.3434   30.2698   15.6664 H   0  0  0  0  0  0
   30.8886   31.1811   15.5745 H   0  0  0  0  0  0
   30.0781   28.3048   12.7314 H   0  0  0  0  0  0
   30.3141   29.0677   19.5779 H   0  0  0  0  0  0
   32.2747   27.0811   20.4138 H   0  0  0  0  0  0
   30.3458   28.8350   22.0596 H   0  0  0  0  0  0
   31.7020   27.9039   22.7811 H   0  0  0  0  0  0
   31.9604   30.2304   20.8698 H   0  0  0  0  0  0
   31.0507   30.7587   23.1123 H   0  0  0  0  0  0
   32.7330   31.3553   22.9101 H   0  0  0  0  0  0
   32.4165   29.8670   23.8648 H   0  0  0  0  0  0
   33.7509   28.5866   20.6211 H   0  0  0  0  0  0
   34.0061   28.5888   22.3992 H   0  0  0  0  0  0
   34.3226   30.0772   21.4445 H   0  0  0  0  0  0
   28.7625   27.5526   21.3485 H   0  0  0  0  0  0
   28.5969   25.1959   22.9236 H   0  0  0  0  0  0
   26.6050   26.5738   21.0688 H   0  0  0  0  0  0
   26.1294   25.1233   22.0155 H   0  0  0  0  0  0
   27.0432   27.8327   23.0346 H   0  0  0  0  0  0
   25.4795   26.9929   23.3107 H   0  0  0  0  0  0
   26.2742   24.3399   25.9613 H   0  0  0  0  0  0
   25.9132   24.1853   24.2085 H   0  0  0  0  0  0
   25.0277   25.3892   25.2051 H   0  0  0  0  0  0
   28.7534   25.5889   19.4279 H   0  0  0  0  0  0
   27.9562   22.8017   18.9025 H   0  0  0  0  0  0
   27.7515   24.6502   17.2192 H   0  0  0  0  0  0
   28.7194   23.2885   16.5592 H   0  0  0  0  0  0
   29.5420   24.7741   17.1447 H   0  0  0  0  0  0
   31.0377   24.4269   19.5588 H   0  0  0  0  0  0
   32.7368   22.3929   18.4713 H   0  0  0  0  0  0
   33.1632   24.1031   21.0157 H   0  0  0  0  0  0
   34.4813   23.2362   20.1569 H   0  0  0  0  0  0
   34.3804   25.6411   19.4529 H   0  0  0  0  0  0
   30.7268   22.2779   21.3079 H   0  0  0  0  0  0
   32.3442   19.9042   22.3504 H   0  0  0  0  0  0
   29.8355   21.1913   23.5672 H   0  0  0  0  0  0
   31.0405   20.1448   24.3915 H   0  0  0  0  0  0
   32.0631   22.7091   23.2460 H   0  0  0  0  0  0
   29.8647   23.3509   24.1472 H   0  0  0  0  0  0
   31.2205   23.9846   25.1407 H   0  0  0  0  0  0
   30.2813   22.5617   25.7062 H   0  0  0  0  0  0
   33.4777   21.0794   24.4327 H   0  0  0  0  0  0
   32.4172   21.2191   25.8758 H   0  0  0  0  0  0
   33.3564   22.6420   25.3102 H   0  0  0  0  0  0
   29.9317   20.7144   20.2630 H   0  0  0  0  0  0
   28.5334   19.4316   19.0125 H   0  0  0  0  0  0
   25.5906   20.0011   21.0167 H   0  0  0  0  0  0
   29.4111   17.0468   20.7742 H   0  0  0  0  0  0
   28.3829   16.8680   19.3122 H   0  0  0  0  0  0
   30.8142   16.4785   18.7533 H   0  0  0  0  0  0
  1  2  1  0  0  0
  1 95  1  0  0  0
  1 96  1  0  0  0
  1 97  1  0  0  0
  2  3  1  0  0  0
  2  5  1  0  0  0
  2 98  1  0  0  0
  3  4  2  0  0  0
  3  8  1  0  0  0
  5  6  1  0  0  0
  5  7  1  0  0  0
  5 99  1  0  0  0
  6100  1  0  0  0
  7101  1  0  0  0
  7102  1  0  0  0
  7103  1  0  0  0
  8  9  1  0  0  0
  8104  1  0  0  0
  9 10  1  0  0  0
  9 12  1  0  0  0
  9105  1  0  0  0
 10 11  2  0  0  0
 10 19  1  0  0  0
 12 13  1  0  0  0
 12106  1  0  0  0
 12107  1  0  0  0
 13 14  1  0  0  0
 13108  1  0  0  0
 13109  1  0  0  0
 14 15  1  0  0  0
 14110  1  0  0  0
 14111  1  0  0  0
 15 16  1  0  0  0
 15112  1  0  0  0
 16 17  2  0  0  0
 16 18  1  0  0  0
 17113  1  0  0  0
 18114  1  0  0  0
 18115  1  0  0  0
 19 20  1  0  0  0
 19116  1  0  0  0
 20 21  1  0  0  0
 20 23  1  0  0  0
 20117  1  0  0  0
 21 22  2  0  0  0
 21 28  1  0  0  0
 23 24  1  0  0  0
 23118  1  0  0  0
 23119  1  0  0  0
 24 25  1  0  0  0
 24120  1  0  0  0
 24121  1  0  0  0
 25 26  1  0  0  0
 25 27  2  0  0  0
 26122  1  0  0  0
 28 29  1  0  0  0
 28123  1  0  0  0
 29 30  1  0  0  0
 29 32  1  0  0  0
 29124  1  0  0  0
 30 31  2  0  0  0
 30 36  1  0  0  0
 32 33  1  0  0  0
 32125  1  0  0  0
 32126  1  0  0  0
 33 34  1  0  0  0
 33 35  1  0  0  0
 33127  1  0  0  0
 34128  1  0  0  0
 34129  1  0  0  0
 34130  1  0  0  0
 35131  1  0  0  0
 35132  1  0  0  0
 35133  1  0  0  0
 36 37  1  0  0  0
 36134  1  0  0  0
 37 38  1  0  0  0
 37 40  1  0  0  0
 37135  1  0  0  0
 38 39  2  0  0  0
 38 44  1  0  0  0
 40 41  1  0  0  0
 40136  1  0  0  0
 40137  1  0  0  0
 41 42  1  0  0  0
 41 43  2  0  0  0
 42138  1  0  0  0
 44 45  1  0  0  0
 44139  1  0  0  0
 45 46  1  0  0  0
 45 48  1  0  0  0
 45140  1  0  0  0
 46 47  2  0  0  0
 46 53  1  0  0  0
 48 49  1  0  0  0
 48141  1  0  0  0
 48142  1  0  0  0
 49 50  1  0  0  0
 49143  1  0  0  0
 49144  1  0  0  0
 50 51  2  0  0  0
 50 52  1  0  0  0
 52145  1  0  0  0
 53 54  1  0  0  0
 53146  1  0  0  0
 54 55  1  0  0  0
 54 57  1  0  0  0
 54147  1  0  0  0
 55 56  2  0  0  0
 55 61  1  0  0  0
 57 58  1  0  0  0
 57148  1  0  0  0
 57149  1  0  0  0
 58 59  1  0  0  0
 58 60  1  0  0  0
 58150  1  0  0  0
 59151  1  0  0  0
 59152  1  0  0  0
 59153  1  0  0  0
 60154  1  0  0  0
 60155  1  0  0  0
 60156  1  0  0  0
 61 62  1  0  0  0
 61157  1  0  0  0
 62 63  1  0  0  0
 62 65  1  0  0  0
 62158  1  0  0  0
 63 64  2  0  0  0
 63 69  1  0  0  0
 65 66  1  0  0  0
 65159  1  0  0  0
 65160  1  0  0  0
 66 67  1  0  0  0
 66161  1  0  0  0
 66162  1  0  0  0
 67 68  1  0  0  0
 68163  1  0  0  0
 68164  1  0  0  0
 68165  1  0  0  0
 69 70  1  0  0  0
 69166  1  0  0  0
 70 71  1  0  0  0
 70 73  1  0  0  0
 70167  1  0  0  0
 71 72  2  0  0  0
 71 74  1  0  0  0
 73168  1  0  0  0
 73169  1  0  0  0
 73170  1  0  0  0
 74 75  1  0  0  0
 74171  1  0  0  0
 75 76  1  0  0  0
 75 78  1  0  0  0
 75172  1  0  0  0
 76 77  2  0  0  0
 76 80  1  0  0  0
 78 79  1  0  0  0
 78173  1  0  0  0
 78174  1  0  0  0
 79175  1  0  0  0
 80 81  1  0  0  0
 80176  1  0  0  0
 81 82  1  0  0  0
 81 84  1  0  0  0
 81177  1  0  0  0
 82 83  2  0  0  0
 82 88  1  0  0  0
 84 85  1  0  0  0
 84178  1  0  0  0
 84179  1  0  0  0
 85 86  1  0  0  0
 85 87  1  0  0  0
 85180  1  0  0  0
 86181  1  0  0  0
 86182  1  0  0  0
 86183  1  0  0  0
 87184  1  0  0  0
 87185  1  0  0  0
 87186  1  0  0  0
 88 89  1  0  0  0
 88187  1  0  0  0
 89 90  1  0  0  0
 89 92  1  0  0  0
 89188  1  0  0  0
 90 91  1  0  0  0
 90 94  2  0  0  0
 91189  1  0  0  0
 92 93  1  0  0  0
 92190  1  0  0  0
 92191  1  0  0  0
 93192  1  0  0  0
M  CHG  1   1   1
M  END
> <s_m_source_file>
../1ow7_ligand.sdf

> <i_m_source_file_index>
1

> <s_epik_input>
W0hdL049QyhbTkgyXSlcW05IXVtDSDJdW0NIMl1bQ0gyXVtDQEhdKFtOSF1DKD1PKVtDQEBIXShbTkgzK10pW0NASF0oW09IXSlbQ0gzXSlDKD1PKVtOSF1bQ0BASF0oW0NIMl1bQ0gyXUMoPU8pW09IXSlDKD1PKVtOSF1bQ0BASF0oW0NIMl1bQ0hdKFtDSDNdKVtDSDNdKUMoPU8pW05IXVtDQEBIXShbQ0gyXUMoPU8pW09IXSlDKD1PKVtOSF1bQ0BASF0oW0NIMl1bQ0gyXUMoPU8pW09IXSlDKD1PKVtOSF1bQ0BASF0oW0NIMl1bQ0hdKFtDSDNdKVtDSDNdKUMoPU8pW05IXVtDQEBIXShbQ0gyXVtDSDJdU1tDSDNdKUMoPU8pW05IXVtDQEBIXShbQ0gzXSlDKD1PKVtOSF1bQ0BASF0oW0NIMl1bT0hdKUMoPU8pW05IXVtDQEBIXShbQ0gyXVtDSF0oW0NIM10pW0NIM10pQyg9TylbTkhdW0NASF0oQyg9TylbT0hdKVtDSDJdW09IXQ==

> <s_epik_cmdline>
J2VwaWtfYXBwJywgJy1pbWFlJywgJ2xpZ2FuZF9wcm8ubWFlJywgJy1vbWFlJywgJ2xpZ2FuZF9wcmVwLm1hZScsICctbXMnLCAnMScsICctcGgnLCAnNycsICctcGh0JywgJzAuNScsICctbnQn

> <s_epik_pKa_notes>
Molecule size exceeds maximum supported for generating protonation states

> <s_epik_Chemistry_Notes>
This compound has an imine and may undergo hydrolysis.

$$$$
