1ow8_ligand
                    3D
 Schrodinger Suite 2020-3.
211210  0  0  1  0            999 V2000
   24.5520   35.6260   19.7040 N   0  3  0  0  0  0
   24.3570   34.2780   20.2620 C   0  0  2  0  0  0
   24.8340   33.1680   19.3390 C   0  0  0  0  0  0
   25.0950   32.0740   19.8420 O   0  0  0  0  0  0
   22.8750   33.9620   20.5450 C   0  0  0  0  0  0
   22.5020   33.0780   21.7360 C   0  0  0  0  0  0
   23.5560   33.2730   22.7970 C   0  0  0  0  0  0
   21.1260   33.4160   22.3070 C   0  0  0  0  0  0
   24.7970   33.3830   18.0200 N   0  0  0  0  0  0
   25.0550   32.2840   17.0890 C   0  0  2  0  0  0
   26.5080   31.9070   17.3990 C   0  0  0  0  0  0
   26.7930   30.7050   17.5460 O   0  0  0  0  0  0
   24.6800   32.5760   15.6110 C   0  0  0  0  0  0
   25.6600   32.1850   14.6420 O   0  0  0  0  0  0
   27.3190   32.8840   17.8190 N   0  0  0  0  0  0
   28.7260   32.6560   18.2190 C   0  0  2  0  0  0
   28.7900   31.8080   19.5300 C   0  0  0  0  0  0
   29.5580   30.8370   19.6390 O   0  0  0  0  0  0
   29.4300   34.0250   18.3900 C   0  0  0  0  0  0
   29.2090   34.9140   17.1630 C   0  0  0  0  0  0
   30.4430   35.0210   16.2600 C   0  0  0  0  0  0
   31.4980   35.4880   16.7490 O   0  0  0  0  0  0
   30.3590   34.6640   15.0610 O   0  0  0  0  0  0
   27.9360   32.1240   20.5100 N   0  0  0  0  0  0
   27.9030   31.3790   21.7720 C   0  0  2  0  0  0
   27.4810   29.9480   21.3950 C   0  0  0  0  0  0
   27.9600   28.9530   21.9420 O   0  0  0  0  0  0
   26.8730   31.9870   22.7390 C   0  0  0  0  0  0
   26.6600   31.2720   24.0610 C   0  0  0  0  0  0
   27.9530   31.3270   24.7920 C   0  0  0  0  0  0
   25.5770   31.9320   24.8720 C   0  0  0  0  0  0
   26.5500   29.8560   20.4370 N   0  0  0  0  0  0
   26.0300   28.5570   19.9530 C   0  0  2  0  0  0
   27.0950   27.7610   19.1840 C   0  0  0  0  0  0
   27.1080   26.5220   19.2010 O   0  0  0  0  0  0
   24.7770   28.7480   19.0560 C   0  0  0  0  0  0
   23.5730   29.3010   19.8190 C   0  0  0  0  0  0
   23.1250   28.6650   20.8220 O   0  0  0  0  0  0
   23.0760   30.3770   19.4060 O   0  0  0  0  0  0
   27.9950   28.4950   18.5230 N   0  0  0  0  0  0
   29.0850   27.8860   17.7630 C   0  0  2  0  0  0
   30.1140   27.2630   18.7060 C   0  0  0  0  0  0
   30.8300   26.3170   18.3430 O   0  0  0  0  0  0
   29.7730   28.9240   16.8530 C   0  0  0  0  0  0
   29.0810   29.1390   15.5190 C   0  0  0  0  0  0
   30.0680   29.6500   14.5080 C   0  0  0  0  0  0
   29.4070   30.4270   13.4700 N   0  0  0  0  0  0
   29.8290   31.6160   13.0570 C   0  0  0  0  0  0
   30.9280   32.1560   13.5850 N   0  0  0  0  0  0
   29.1550   32.2750   12.1220 N   0  0  0  0  0  0
   30.1680   27.8090   19.9210 N   0  0  0  0  0  0
   31.0610   27.3340   20.9540 C   0  0  2  0  0  0
   30.3620   26.0780   21.4180 C   0  0  0  0  0  0
   30.8580   24.9730   21.2260 O   0  0  0  0  0  0
   31.1380   28.3660   22.0760 C   0  0  0  0  0  0
   31.7250   29.6890   21.6040 C   0  0  0  0  0  0
   31.1400   30.7830   22.4320 C   0  0  0  0  0  0
   33.2480   29.6660   21.7130 C   0  0  0  0  0  0
   29.1790   26.2530   21.9990 N   0  0  0  0  0  0
   28.3960   25.1220   22.4680 C   0  0  2  0  0  0
   28.5330   23.9180   21.5180 C   0  0  0  0  0  0
   28.6880   22.7690   21.9610 O   0  0  0  0  0  0
   26.9360   25.5490   22.5840 C   0  0  0  0  0  0
   26.7290   26.6440   23.6120 C   0  0  0  0  0  0
   25.3700   27.2260   23.4620 C   0  0  0  0  0  0
   26.9130   26.0600   24.9870 C   0  0  0  0  0  0
   28.4910   24.1830   20.2080 N   0  0  0  0  0  0
   28.6140   23.1110   19.2080 C   0  0  2  0  0  0
   29.9620   22.3600   19.3460 C   0  0  0  0  0  0
   29.9980   21.1270   19.1940 O   0  0  0  0  0  0
   28.4620   23.6590   17.7670 C   0  0  0  0  0  0
   27.0910   24.0440   17.2100 C   0  0  0  0  0  0
   27.2070   24.2300   15.7000 C   0  0  0  0  0  0
   26.0900   22.9300   17.5160 C   0  0  0  0  0  0
   31.0350   23.0870   19.6160 N   0  0  0  0  0  0
   32.3820   22.5060   19.7980 C   0  0  2  0  0  0
   32.4400   21.5030   20.9670 C   0  0  0  0  0  0
   33.3050   20.6140   21.0000 O   0  0  0  0  0  0
   33.4070   23.6150   20.0450 C   0  0  0  0  0  0
   34.0210   24.1880   18.7980 C   0  0  0  0  0  0
   34.8690   25.4320   19.0610 C   0  0  0  0  0  0
   34.8280   25.9580   20.1920 O   0  0  0  0  0  0
   35.5660   25.8900   18.1270 O   0  0  0  0  0  0
   31.5180   21.6550   21.9080 N   0  0  0  0  0  0
   31.4700   20.7970   23.0910 C   0  0  2  0  0  0
   30.8420   19.4160   22.9370 C   0  0  0  0  0  0
   31.4030   18.4310   23.4400 O   0  0  0  0  0  0
   30.7770   21.5330   24.2470 C   0  0  0  0  0  0
   31.6280   22.5020   25.0380 C   0  0  0  0  0  0
   30.7540   23.2170   25.9950 C   0  0  0  0  0  0
   32.7180   21.7460   25.7530 C   0  0  0  0  0  0
   29.7100   19.3340   22.2580 N   0  0  0  0  0  0
   29.0260   18.0540   22.0870 C   0  0  2  0  0  0
   29.9180   16.8150   21.9360 C   0  0  0  0  0  0
   29.7570   15.8600   22.7670 O   0  0  0  0  0  0
   28.0750   18.1440   20.9090 C   0  0  0  0  0  0
   27.0410   19.2330   21.1000 C   0  0  0  0  0  0
   26.4830   19.3860   22.2040 O   0  0  0  0  0  0
   26.7630   19.9940   20.0270 N   0  0  0  0  0  0
   30.7460   16.8430   20.9740 O   0  0  0  0  0  0
   25.6235   35.7963   19.5226 H   0  0  0  0  0  0
   24.1771   36.3755   20.4165 H   0  0  0  0  0  0
   24.0011   35.7136   18.7559 H   0  0  0  0  0  0
   24.9722   34.3372   21.1719 H   0  0  0  0  0  0
   22.3281   34.8993   20.7247 H   0  0  0  0  0  0
   22.4387   33.4433   19.6786 H   0  0  0  0  0  0
   22.4642   32.0283   21.4093 H   0  0  0  0  0  0
   24.5445   33.0285   22.3811 H   0  0  0  0  0  0
   23.3437   32.6124   23.6505 H   0  0  0  0  0  0
   23.5485   34.3204   23.1332 H   0  0  0  0  0  0
   20.3611   33.2723   21.5297 H   0  0  0  0  0  0
   21.1155   34.4635   22.6425 H   0  0  0  0  0  0
   20.9107   32.7556   23.1599 H   0  0  0  0  0  0
   24.5720   34.3886   17.6350 H   0  0  0  0  0  0
   24.3745   31.4425   17.2857 H   0  0  0  0  0  0
   23.7553   32.0383   15.3542 H   0  0  0  0  0  0
   24.5243   33.6569   15.4789 H   0  0  0  0  0  0
   25.4737   32.3560   13.5715 H   0  0  0  0  0  0
   26.8931   33.8974   17.8593 H   0  0  0  0  0  0
   29.2065   32.0928   17.4054 H   0  0  0  0  0  0
   29.0243   34.5380   19.2744 H   0  0  0  0  0  0
   30.5108   33.8677   18.5210 H   0  0  0  0  0  0
   28.3892   34.5032   16.5554 H   0  0  0  0  0  0
   28.9489   35.9317   17.4896 H   0  0  0  0  0  0
   31.2375   34.7359   14.4029 H   0  0  0  0  0  0
   27.2471   32.9666   20.3505 H   0  0  0  0  0  0
   28.8959   31.4336   22.2422 H   0  0  0  0  0  0
   27.1776   33.0104   23.0032 H   0  0  0  0  0  0
   25.8856   32.0118   22.2549 H   0  0  0  0  0  0
   26.3513   30.2285   23.9005 H   0  0  0  0  0  0
   28.7355   30.8421   24.1899 H   0  0  0  0  0  0
   27.8529   30.8029   25.7539 H   0  0  0  0  0  0
   28.2274   32.3767   24.9732 H   0  0  0  0  0  0
   24.6261   31.8849   24.3210 H   0  0  0  0  0  0
   25.8440   32.9836   25.0534 H   0  0  0  0  0  0
   25.4696   31.4097   25.8341 H   0  0  0  0  0  0
   26.1709   30.7948   20.0070 H   0  0  0  0  0  0
   25.7710   28.0157   20.8749 H   0  0  0  0  0  0
   25.0107   29.4536   18.2451 H   0  0  0  0  0  0
   24.4829   27.7793   18.6257 H   0  0  0  0  0  0
   22.2593   29.0540   21.3780 H   0  0  0  0  0  0
   27.8971   29.5899   18.5631 H   0  0  0  0  0  0
   28.6057   27.1032   17.1568 H   0  0  0  0  0  0
   29.7997   29.8982   17.3630 H   0  0  0  0  0  0
   30.8000   28.5964   16.6343 H   0  0  0  0  0  0
   28.6606   28.1857   15.1662 H   0  0  0  0  0  0
   28.2717   29.8742   15.6400 H   0  0  0  0  0  0
   30.8069   30.2925   15.0092 H   0  0  0  0  0  0
   30.5820   28.8001   14.0352 H   0  0  0  0  0  0
   28.5038   30.0343   12.9801 H   0  0  0  0  0  0
   31.4896   31.6136   14.3599 H   0  0  0  0  0  0
   31.2730   33.1438   13.2457 H   0  0  0  0  0  0
   28.2479   31.8334   11.6837 H   0  0  0  0  0  0
   29.4950   28.6555   20.1223 H   0  0  0  0  0  0
   32.0820   27.1648   20.5813 H   0  0  0  0  0  0
   30.1277   28.5608   22.4649 H   0  0  0  0  0  0
   31.7746   27.9803   22.8859 H   0  0  0  0  0  0
   31.4630   29.8771   20.5523 H   0  0  0  0  0  0
   30.0446   30.7727   22.3321 H   0  0  0  0  0  0
   31.5305   31.7521   22.0879 H   0  0  0  0  0  0
   31.4135   30.6310   23.4866 H   0  0  0  0  0  0
   33.6477   28.8503   21.0926 H   0  0  0  0  0  0
   33.5381   29.5050   22.7618 H   0  0  0  0  0  0
   33.6552   30.6261   21.3632 H   0  0  0  0  0  0
   28.7952   27.2765   22.1220 H   0  0  0  0  0  0
   28.8045   24.8542   23.4536 H   0  0  0  0  0  0
   26.5864   25.9276   21.6122 H   0  0  0  0  0  0
   26.3239   24.6852   22.8827 H   0  0  0  0  0  0
   27.4503   27.4614   23.4652 H   0  0  0  0  0  0
   25.2603   27.6455   22.4510 H   0  0  0  0  0  0
   25.2281   28.0228   24.2070 H   0  0  0  0  0  0
   24.6156   26.4406   23.6169 H   0  0  0  0  0  0
   27.9245   25.6364   25.0731 H   0  0  0  0  0  0
   26.1682   25.2673   25.1513 H   0  0  0  0  0  0
   26.7807   26.8495   25.7414 H   0  0  0  0  0  0
   28.3617   25.2260   19.8832 H   0  0  0  0  0  0
   27.7790   22.4348   19.4438 H   0  0  0  0  0  0
   29.0486   24.5837   17.6626 H   0  0  0  0  0  0
   28.8277   22.9099   17.0493 H   0  0  0  0  0  0
   26.7444   24.9804   17.6714 H   0  0  0  0  0  0
   27.9279   25.0322   15.4837 H   0  0  0  0  0  0
   26.2237   24.4996   15.2872 H   0  0  0  0  0  0
   27.5530   23.2923   15.2406 H   0  0  0  0  0  0
   26.0090   22.7988   18.6051 H   0  0  0  0  0  0
   26.4350   21.9912   17.0582 H   0  0  0  0  0  0
   25.1057   23.1984   17.1048 H   0  0  0  0  0  0
   30.8883   24.1736   19.7037 H   0  0  0  0  0  0
   32.5841   21.9800   18.8533 H   0  0  0  0  0  0
   32.9241   24.4491   20.5752 H   0  0  0  0  0  0
   34.2330   23.2215   20.6556 H   0  0  0  0  0  0
   34.6723   23.4348   18.3306 H   0  0  0  0  0  0
   33.2247   24.4716   18.0941 H   0  0  0  0  0  0
   36.1853   26.7843   18.2903 H   0  0  0  0  0  0
   30.7747   22.4555   21.7787 H   0  0  0  0  0  0
   32.5444   20.6172   23.2438 H   0  0  0  0  0  0
   29.9362   22.1235   23.8541 H   0  0  0  0  0  0
   30.4011   20.7997   24.9757 H   0  0  0  0  0  0
   32.0990   23.2511   24.3846 H   0  0  0  0  0  0
   29.9709   23.7574   25.4431 H   0  0  0  0  0  0
   31.3543   23.9332   26.5753 H   0  0  0  0  0  0
   30.2873   22.4917   26.6778 H   0  0  0  0  0  0
   33.3484   21.2270   25.0160 H   0  0  0  0  0  0
   32.2671   21.0089   26.4337 H   0  0  0  0  0  0
   33.3341   22.4503   26.3312 H   0  0  0  0  0  0
   29.2841   20.2482   21.8188 H   0  0  0  0  0  0
   28.5061   17.9450   23.0502 H   0  0  0  0  0  0
   30.3774   14.9548   22.6916 H   0  0  0  0  0  0
   28.6443   18.3662   19.9944 H   0  0  0  0  0  0
   27.5480   17.1859   20.7892 H   0  0  0  0  0  0
   27.2858   19.8155   19.0758 H   0  0  0  0  0  0
   26.0127   20.7951   20.1003 H   0  0  0  0  0  0
  1  2  1  0  0  0
  1101  1  0  0  0
  1102  1  0  0  0
  1103  1  0  0  0
  2  3  1  0  0  0
  2  5  1  0  0  0
  2104  1  0  0  0
  3  4  2  0  0  0
  3  9  1  0  0  0
  5  6  1  0  0  0
  5105  1  0  0  0
  5106  1  0  0  0
  6  7  1  0  0  0
  6  8  1  0  0  0
  6107  1  0  0  0
  7108  1  0  0  0
  7109  1  0  0  0
  7110  1  0  0  0
  8111  1  0  0  0
  8112  1  0  0  0
  8113  1  0  0  0
  9 10  1  0  0  0
  9114  1  0  0  0
 10 11  1  0  0  0
 10 13  1  0  0  0
 10115  1  0  0  0
 11 12  2  0  0  0
 11 15  1  0  0  0
 13 14  1  0  0  0
 13116  1  0  0  0
 13117  1  0  0  0
 14118  1  0  0  0
 15 16  1  0  0  0
 15119  1  0  0  0
 16 17  1  0  0  0
 16 19  1  0  0  0
 16120  1  0  0  0
 17 18  2  0  0  0
 17 24  1  0  0  0
 19 20  1  0  0  0
 19121  1  0  0  0
 19122  1  0  0  0
 20 21  1  0  0  0
 20123  1  0  0  0
 20124  1  0  0  0
 21 22  2  0  0  0
 21 23  1  0  0  0
 23125  1  0  0  0
 24 25  1  0  0  0
 24126  1  0  0  0
 25 26  1  0  0  0
 25 28  1  0  0  0
 25127  1  0  0  0
 26 27  2  0  0  0
 26 32  1  0  0  0
 28 29  1  0  0  0
 28128  1  0  0  0
 28129  1  0  0  0
 29 30  1  0  0  0
 29 31  1  0  0  0
 29130  1  0  0  0
 30131  1  0  0  0
 30132  1  0  0  0
 30133  1  0  0  0
 31134  1  0  0  0
 31135  1  0  0  0
 31136  1  0  0  0
 32 33  1  0  0  0
 32137  1  0  0  0
 33 34  1  0  0  0
 33 36  1  0  0  0
 33138  1  0  0  0
 34 35  2  0  0  0
 34 40  1  0  0  0
 36 37  1  0  0  0
 36139  1  0  0  0
 36140  1  0  0  0
 37 38  1  0  0  0
 37 39  2  0  0  0
 38141  1  0  0  0
 40 41  1  0  0  0
 40142  1  0  0  0
 41 42  1  0  0  0
 41 44  1  0  0  0
 41143  1  0  0  0
 42 43  2  0  0  0
 42 51  1  0  0  0
 44 45  1  0  0  0
 44144  1  0  0  0
 44145  1  0  0  0
 45 46  1  0  0  0
 45146  1  0  0  0
 45147  1  0  0  0
 46 47  1  0  0  0
 46148  1  0  0  0
 46149  1  0  0  0
 47 48  1  0  0  0
 47150  1  0  0  0
 48 49  1  0  0  0
 48 50  2  0  0  0
 49151  1  0  0  0
 49152  1  0  0  0
 50153  1  0  0  0
 51 52  1  0  0  0
 51154  1  0  0  0
 52 53  1  0  0  0
 52 55  1  0  0  0
 52155  1  0  0  0
 53 54  2  0  0  0
 53 59  1  0  0  0
 55 56  1  0  0  0
 55156  1  0  0  0
 55157  1  0  0  0
 56 57  1  0  0  0
 56 58  1  0  0  0
 56158  1  0  0  0
 57159  1  0  0  0
 57160  1  0  0  0
 57161  1  0  0  0
 58162  1  0  0  0
 58163  1  0  0  0
 58164  1  0  0  0
 59 60  1  0  0  0
 59165  1  0  0  0
 60 61  1  0  0  0
 60 63  1  0  0  0
 60166  1  0  0  0
 61 62  2  0  0  0
 61 67  1  0  0  0
 63 64  1  0  0  0
 63167  1  0  0  0
 63168  1  0  0  0
 64 65  1  0  0  0
 64 66  1  0  0  0
 64169  1  0  0  0
 65170  1  0  0  0
 65171  1  0  0  0
 65172  1  0  0  0
 66173  1  0  0  0
 66174  1  0  0  0
 66175  1  0  0  0
 67 68  1  0  0  0
 67176  1  0  0  0
 68 69  1  0  0  0
 68 71  1  0  0  0
 68177  1  0  0  0
 69 70  2  0  0  0
 69 75  1  0  0  0
 71 72  1  0  0  0
 71178  1  0  0  0
 71179  1  0  0  0
 72 73  1  0  0  0
 72 74  1  0  0  0
 72180  1  0  0  0
 73181  1  0  0  0
 73182  1  0  0  0
 73183  1  0  0  0
 74184  1  0  0  0
 74185  1  0  0  0
 74186  1  0  0  0
 75 76  1  0  0  0
 75187  1  0  0  0
 76 77  1  0  0  0
 76 79  1  0  0  0
 76188  1  0  0  0
 77 78  2  0  0  0
 77 84  1  0  0  0
 79 80  1  0  0  0
 79189  1  0  0  0
 79190  1  0  0  0
 80 81  1  0  0  0
 80191  1  0  0  0
 80192  1  0  0  0
 81 82  2  0  0  0
 81 83  1  0  0  0
 83193  1  0  0  0
 84 85  1  0  0  0
 84194  1  0  0  0
 85 86  1  0  0  0
 85 88  1  0  0  0
 85195  1  0  0  0
 86 87  2  0  0  0
 86 92  1  0  0  0
 88 89  1  0  0  0
 88196  1  0  0  0
 88197  1  0  0  0
 89 90  1  0  0  0
 89 91  1  0  0  0
 89198  1  0  0  0
 90199  1  0  0  0
 90200  1  0  0  0
 90201  1  0  0  0
 91202  1  0  0  0
 91203  1  0  0  0
 91204  1  0  0  0
 92 93  1  0  0  0
 92205  1  0  0  0
 93 94  1  0  0  0
 93 96  1  0  0  0
 93206  1  0  0  0
 94 95  1  0  0  0
 94100  2  0  0  0
 95207  1  0  0  0
 96 97  1  0  0  0
 96208  1  0  0  0
 96209  1  0  0  0
 97 98  2  0  0  0
 97 99  1  0  0  0
 99210  1  0  0  0
 99211  1  0  0  0
M  CHG  1   1   1
M  END
> <s_m_source_file>
../1ow8_ligand.sdf

> <i_m_source_file_index>
1

> <s_epik_input>
W0NIM11bQ0hdKFtDSDNdKVtDSDJdW0NASF0oW05IMytdKUMoPU8pW05IXVtDQEBIXShbQ0gyXVtPSF0pQyg9TylbTkhdW0NAQEhdKFtDSDJdW0NIMl1DKD1PKVtPSF0pQyg9TylbTkhdW0NAQEhdKFtDSDJdW0NIXShbQ0gzXSlbQ0gzXSlDKD1PKVtOSF1bQ0BASF0oW0NIMl1DKD1PKVtPSF0pQyg9TylbTkhdW0NAQEhdKFtDSDJdW0NIMl1bQ0gyXVtOSF0vQyhbTkgyXSk9TlxbSF0pQyg9TylbTkhdW0NAQEhdKFtDSDJdW0NIXShbQ0gzXSlbQ0gzXSlDKD1PKVtOSF1bQ0BASF0oW0NIMl1bQ0hdKFtDSDNdKVtDSDNdKUMoPU8pW05IXVtDQEBIXShbQ0gyXVtDSF0oW0NIM10pW0NIM10pQyg9TylbTkhdW0NAQEhdKFtDSDJdW0NIMl1DKD1PKVtPSF0pQyg9TylbTkhdW0NAQEhdKFtDSDJdW0NIXShbQ0gzXSlbQ0gzXSlDKD1PKVtOSF1bQ0BIXShDKD1PKVtPSF0pW0NIMl1DKD1PKVtOSDJd

> <s_epik_cmdline>
J2VwaWtfYXBwJywgJy1pbWFlJywgJ2xpZ2FuZF9wcm8ubWFlJywgJy1vbWFlJywgJ2xpZ2FuZF9wcmVwLm1hZScsICctbXMnLCAnMScsICctcGgnLCAnNycsICctcGh0JywgJzAuNScsICctbnQn

> <s_epik_pKa_notes>
Molecule size exceeds maximum supported for generating protonation states

> <s_epik_Chemistry_Notes>
This compound has an imine and may undergo hydrolysis.

$$$$
