1owd_ligand
                    3D
 Schrodinger Suite 2020-3.
 54 57  0  0  1  0            999 V2000
   29.9610   10.5100   33.5110 C   0  0  0  0  0  0
   28.5190   10.8440   33.1590 C   0  0  0  0  0  0
   28.3610   10.9620   31.6530 C   0  0  1  0  0  0
   28.8240    9.8200   30.7370 C   0  0  0  0  0  0
   29.2180   10.4030   29.4480 N   0  3  0  0  0  0
   28.2460   11.2590   28.7480 C   0  0  0  0  0  0
   27.3310   12.0620   29.6560 C   0  0  0  0  0  0
   27.2540   11.7970   31.0550 C   0  0  0  0  0  0
   26.1890   12.3400   31.8040 C   0  0  0  0  0  0
   25.3520   13.3140   31.2130 C   0  0  0  0  0  0
   24.2760   13.8910   31.8340 N   0  0  0  0  0  0
   24.3750   14.6380   32.9380 C   0  0  0  0  0  0
   25.3290   14.4670   33.6600 O   0  0  0  0  0  0
   23.3220   15.6590   33.2280 C   0  0  0  0  0  0
   23.6510   16.7190   34.1180 C   0  0  0  0  0  0
   22.7050   17.6950   34.4790 C   0  0  0  0  0  0
   21.4010   17.6640   33.9270 C   0  0  0  0  0  0
   20.4950   18.7210   34.1490 C   0  0  0  0  0  0
   19.2050   18.7230   33.5720 C   0  0  0  0  0  0
   18.8770   17.7140   32.6360 C   0  0  0  0  0  0
   19.7930   16.6790   32.3730 C   0  0  0  0  0  0
   21.0590   16.6360   33.0030 C   0  0  0  0  0  0
   22.0140   15.6320   32.6690 C   0  0  0  0  0  0
   18.2110   19.7350   33.9890 C   0  0  0  0  0  0
   18.5880   20.9290   34.4080 N   0  0  0  0  0  0
   16.9240   19.4960   33.9780 N   0  3  0  0  0  0
   25.6060   13.7230   29.8970 C   0  0  0  0  0  0
   26.5440   13.0830   29.0890 C   0  0  0  0  0  0
   30.0621   10.4274   34.6032 H   0  0  0  0  0  0
   30.6228   11.3068   33.1407 H   0  0  0  0  0  0
   30.2406    9.5543   33.0435 H   0  0  0  0  0  0
   27.8572   10.0472   33.5293 H   0  0  0  0  0  0
   28.2393   11.7996   33.6265 H   0  0  0  0  0  0
   29.1890   11.6861   31.6666 H   0  0  0  0  0  0
   29.6794    9.3042   31.1978 H   0  0  0  0  0  0
   27.9989    9.1066   30.5948 H   0  0  0  0  0  0
   30.1062   11.0366   29.5883 H   0  0  0  0  0  0
   29.4514    9.5968   28.7369 H   0  0  0  0  0  0
   28.7826   11.9843   28.1187 H   0  0  0  0  0  0
   27.5964   10.6354   28.1162 H   0  0  0  0  0  0
   26.0132   12.0118   32.8284 H   0  0  0  0  0  0
   23.2644   13.7498   31.4256 H   0  0  0  0  0  0
   24.6588   16.7760   34.5293 H   0  0  0  0  0  0
   22.9764   18.4785   35.1865 H   0  0  0  0  0  0
   20.7966   19.5565   34.7807 H   0  0  0  0  0  0
   17.9172   17.7384   32.1200 H   0  0  0  0  0  0
   19.5213   15.8930   31.6684 H   0  0  0  0  0  0
   21.7393   14.8351   31.9780 H   0  0  0  0  0  0
   19.6564   21.1887   34.4398 H   0  0  0  0  0  0
   17.8336   21.6640   34.7253 H   0  0  0  0  0  0
   16.5489   18.5190   33.6392 H   0  0  0  0  0  0
   25.0517   14.5696   29.4919 H   0  0  0  0  0  0
   26.6656   13.3659   28.0434 H   0  0  0  0  0  0
   16.2176   20.2721   34.3076 H   0  0  0  0  0  0
  1  2  1  0  0  0
  1 29  1  0  0  0
  1 30  1  0  0  0
  1 31  1  0  0  0
  2  3  1  0  0  0
  2 32  1  0  0  0
  2 33  1  0  0  0
  3  4  1  0  0  0
  3  8  1  0  0  0
  3 34  1  0  0  0
  4  5  1  0  0  0
  4 35  1  0  0  0
  4 36  1  0  0  0
  5  6  1  0  0  0
  5 37  1  0  0  0
  5 38  1  0  0  0
  6  7  1  0  0  0
  6 39  1  0  0  0
  6 40  1  0  0  0
  7  8  2  0  0  0
  7 28  1  0  0  0
  8  9  1  0  0  0
  9 10  2  0  0  0
  9 41  1  0  0  0
 10 11  1  0  0  0
 10 27  1  0  0  0
 11 12  1  0  0  0
 11 42  1  0  0  0
 12 13  2  0  0  0
 12 14  1  0  0  0
 14 15  2  0  0  0
 14 23  1  0  0  0
 15 16  1  0  0  0
 15 43  1  0  0  0
 16 17  2  0  0  0
 16 44  1  0  0  0
 17 18  1  0  0  0
 17 22  1  0  0  0
 18 19  2  0  0  0
 18 45  1  0  0  0
 19 20  1  0  0  0
 19 24  1  0  0  0
 20 21  2  0  0  0
 20 46  1  0  0  0
 21 22  1  0  0  0
 21 47  1  0  0  0
 22 23  2  0  0  0
 23 48  1  0  0  0
 24 25  1  0  0  0
 24 26  2  0  0  0
 25 49  1  0  0  0
 25 50  1  0  0  0
 26 51  1  0  0  0
 26 54  1  0  0  0
 27 28  2  0  0  0
 27 52  1  0  0  0
 28 53  1  0  0  0
M  CHG  2   5   1  26   1
M  END
> <s_m_source_file>
../1owd_ligand.sdf

> <i_m_source_file_index>
1

> <s_epik_input>
W0NIMl0xW05IMitdW0NIMl1bQ0BIXShbQ0gyXVtDSDNdKWMoYzEyKVtjSF1jKFtjSF1bY0hdMilbTkhdQyg9TyljKFtjSF1bY0hdMylbY0hdYyhjMzQpW2NIXVtjSF1jKFtjSF00KS9DKFtOSDJdKT1OXFtIXQ==

> <s_epik_cmdline>
J2VwaWtfYXBwJywgJy1pbWFlJywgJ2xpZ2FuZF9wcm8ubWFlJywgJy1vbWFlJywgJ2xpZ2FuZF9wcmVwLm1hZScsICctbXMnLCAnMScsICctcGgnLCAnNycsICctcGh0JywgJzAuNScsICctbnQn

> <r_epik_Ionization_Penalty>
  0.0102

> <r_epik_Ionization_Penalty_Charging>
  0.0102

> <r_epik_Ionization_Penalty_Neutral>
  0.0000

> <r_epik_State_Penalty>
  0.0075

> <r_epik_Charging_Adjusted_Penalty>
0.0176964948431764

> <i_epik_Tot_Q>
2

> <i_epik_Tot_abs_Q>
2

> <s_epik_Chemistry_Notes>
This compound has an imine and may undergo hydrolysis.

$$$$
