1owi_ligand
                    3D
 Schrodinger Suite 2020-3.
 52 55  0  0  1  0            999 V2000
   17.1460   19.5630   34.0330 N   0  3  0  0  0  0
   18.4370   19.6740   34.0900 C   0  0  0  0  0  0
   18.9670   20.8550   34.4390 N   0  0  0  0  0  0
   19.2930   18.5410   33.7320 C   0  0  0  0  0  0
   20.6190   18.5020   34.2910 C   0  0  0  0  0  0
   21.5790   17.5160   33.9250 C   0  0  0  0  0  0
   22.8780   17.5500   34.5090 C   0  0  0  0  0  0
   23.8840   16.6040   34.1530 C   0  0  0  0  0  0
   23.6000   15.5920   33.1820 C   0  0  0  0  0  0
   22.2620   15.5510   32.5840 C   0  0  0  0  0  0
   21.2320   16.4980   32.9410 C   0  0  0  0  0  0
   19.8860   16.5220   32.3900 C   0  0  0  0  0  0
   18.9060   17.5200   32.7710 C   0  0  0  0  0  0
   24.7200   14.6820   32.8550 C   0  0  0  0  0  0
   25.6970   14.5930   33.5810 O   0  0  0  0  0  0
   24.6130   13.9590   31.6980 N   0  0  0  0  0  0
   25.5790   13.1240   31.1960 C   0  0  0  0  0  0
   25.9280   11.9100   31.8250 C   0  0  0  0  0  0
   26.9330   11.0850   31.2780 C   0  0  0  0  0  0
   27.5790   11.4640   30.0960 C   0  0  0  0  0  0
   27.2350   12.6810   29.4580 C   0  0  0  0  0  0
   27.8420   13.2250   28.3150 O   0  0  0  0  0  0
   28.5880   12.3390   27.4780 C   0  0  0  0  0  0
   27.8360   12.1370   26.1280 C   0  0  0  0  0  0
   28.6730   12.8340   25.0470 C   0  0  0  0  0  0
   29.9700   13.3800   25.7140 C   0  0  0  0  0  0
   29.9990   12.9220   27.1930 C   0  0  0  0  0  0
   26.2310   13.4860   30.0120 C   0  0  0  0  0  0
   16.5080   20.4174   34.3031 H   0  0  0  0  0  0
   18.3095   21.6958   34.7051 H   0  0  0  0  0  0
   20.0593   20.9832   34.4593 H   0  0  0  0  0  0
   20.8996   19.2580   35.0243 H   0  0  0  0  0  0
   23.1088   18.3186   35.2466 H   0  0  0  0  0  0
   24.8678   16.6517   34.6198 H   0  0  0  0  0  0
   22.0375   14.7808   31.8461 H   0  0  0  0  0  0
   19.6035   15.7606   31.6630 H   0  0  0  0  0  0
   17.9020   17.5056   32.3470 H   0  0  0  0  0  0
   23.6972   14.0231   31.0921 H   0  0  0  0  0  0
   25.4177   11.6078   32.7395 H   0  0  0  0  0  0
   27.2058   10.1541   31.7751 H   0  0  0  0  0  0
   28.3477   10.8221   29.6658 H   0  0  0  0  0  0
   28.6518   11.4098   28.0632 H   0  0  0  0  0  0
   27.7431   11.0613   25.9174 H   0  0  0  0  0  0
   26.8338   12.5852   26.1959 H   0  0  0  0  0  0
   28.9286   12.1111   24.2583 H   0  0  0  0  0  0
   28.0939   13.6619   24.6119 H   0  0  0  0  0  0
   30.8491   12.9854   25.1836 H   0  0  0  0  0  0
   29.9738   14.4788   25.6632 H   0  0  0  0  0  0
   30.1902   13.7672   27.8705 H   0  0  0  0  0  0
   30.7577   12.1424   27.3562 H   0  0  0  0  0  0
   25.9522   14.4128   29.5107 H   0  0  0  0  0  0
   16.6891   18.6144   33.7146 H   0  0  0  0  0  0
  1  2  2  0  0  0
  1 29  1  0  0  0
  1 52  1  0  0  0
  2  3  1  0  0  0
  2  4  1  0  0  0
  3 30  1  0  0  0
  3 31  1  0  0  0
  4  5  2  0  0  0
  4 13  1  0  0  0
  5  6  1  0  0  0
  5 32  1  0  0  0
  6  7  2  0  0  0
  6 11  1  0  0  0
  7  8  1  0  0  0
  7 33  1  0  0  0
  8  9  2  0  0  0
  8 34  1  0  0  0
  9 10  1  0  0  0
  9 14  1  0  0  0
 10 11  2  0  0  0
 10 35  1  0  0  0
 11 12  1  0  0  0
 12 13  2  0  0  0
 12 36  1  0  0  0
 13 37  1  0  0  0
 14 15  2  0  0  0
 14 16  1  0  0  0
 16 17  1  0  0  0
 16 38  1  0  0  0
 17 18  2  0  0  0
 17 28  1  0  0  0
 18 19  1  0  0  0
 18 39  1  0  0  0
 19 20  2  0  0  0
 19 40  1  0  0  0
 20 21  1  0  0  0
 20 41  1  0  0  0
 21 22  1  0  0  0
 21 28  2  0  0  0
 22 23  1  0  0  0
 23 24  1  0  0  0
 23 27  1  0  0  0
 23 42  1  0  0  0
 24 25  1  0  0  0
 24 43  1  0  0  0
 24 44  1  0  0  0
 25 26  1  0  0  0
 25 45  1  0  0  0
 25 46  1  0  0  0
 26 27  1  0  0  0
 26 47  1  0  0  0
 26 48  1  0  0  0
 27 49  1  0  0  0
 27 50  1  0  0  0
 28 51  1  0  0  0
M  CHG  1   1   1
M  END
> <s_m_source_file>
../1owi_ligand.sdf

> <i_m_source_file_index>
1

> <s_epik_input>
W0hdL049QygvW05IMl0pYyhbY0hdMSlbY0hdW2NIXWMoYzEyKVtjSF1jKFtjSF1bY0hdMilDKD1PKVtOSF1jM1tjSF1bY0hdW2NIXWMoW2NIXTMpT1tDSF00W0NIMl1bQ0gyXVtDSDJdW0NIMl00

> <s_epik_cmdline>
J2VwaWtfYXBwJywgJy1pbWFlJywgJ2xpZ2FuZF9wcm8ubWFlJywgJy1vbWFlJywgJ2xpZ2FuZF9wcmVwLm1hZScsICctbXMnLCAnMScsICctcGgnLCAnNycsICctcGh0JywgJzAuNScsICctbnQn

> <r_lp_tautomer_probability>
1

> <r_epik_Ionization_Penalty>
  0.0003

> <r_epik_Ionization_Penalty_Charging>
  0.0003

> <r_epik_Ionization_Penalty_Neutral>
  0.0000

> <r_epik_State_Penalty>
 -0.0000

> <r_epik_Charging_Adjusted_Penalty>
0.0003115973184836

> <i_epik_Tot_Q>
1

> <i_epik_Tot_abs_Q>
1

> <s_epik_Chemistry_Notes>
This compound has an imine and may undergo hydrolysis.

$$$$
