1owk_ligand
                    3D
 Schrodinger Suite 2020-3.
 57 60  0  0  1  0            999 V2000
   16.8270   19.5210   33.8950 N   0  0  0  0  0  0
   18.1490   19.6460   34.0260 C   0  0  0  0  0  0
   18.6210   20.6980   34.6860 N   0  3  0  0  0  0
   19.0720   18.6300   33.4680 C   0  0  0  0  0  0
   20.3550   18.4680   34.0840 C   0  0  0  0  0  0
   21.3000   17.4730   33.6990 C   0  0  0  0  0  0
   22.5670   17.3690   34.3590 C   0  0  0  0  0  0
   23.5250   16.3790   33.9880 C   0  0  0  0  0  0
   23.2420   15.4560   32.9260 C   0  0  0  0  0  0
   21.9590   15.5450   32.2480 C   0  0  0  0  0  0
   20.9680   16.5530   32.6240 C   0  0  0  0  0  0
   19.6650   16.7340   31.9940 C   0  0  0  0  0  0
   18.7250   17.7480   32.3870 C   0  0  0  0  0  0
   24.3510   14.5100   32.6360 C   0  0  0  0  0  0
   25.1630   14.2110   33.5140 O   0  0  0  0  0  0
   24.4400   14.0100   31.3670 N   0  0  0  0  0  0
   25.5050   13.3080   30.8260 C   0  0  0  0  0  0
   26.3210   12.4060   31.5490 C   0  0  0  0  0  0
   27.3380   11.6730   30.9030 C   0  0  0  0  0  0
   27.4820   11.7860   29.4900 C   0  0  0  0  0  0
   26.6960   12.7020   28.7690 C   0  0  0  0  0  0
   25.7510   13.4800   29.4470 C   0  0  0  0  0  0
   28.4830   10.9230   28.7370 C   0  0  0  0  0  0
   28.9420    9.7200   29.5700 C   0  0  0  0  0  0
   29.4040   10.2470   30.8550 N   0  3  0  0  0  0
   28.3050   10.7780   31.6790 C   0  0  1  0  0  0
   28.9100   11.4320   32.9320 C   0  0  0  0  0  0
   29.9000   12.5830   32.6320 C   0  0  0  0  0  0
   29.4260   10.4000   33.9300 C   0  0  0  0  0  0
   16.1578   20.2858   34.3161 H   0  0  0  0  0  0
   16.4064   18.6532   33.3659 H   0  0  0  0  0  0
   17.9272   21.4465   35.0963 H   0  0  0  0  0  0
   20.6243   19.1452   34.8945 H   0  0  0  0  0  0
   22.8052   18.0634   35.1647 H   0  0  0  0  0  0
   24.4778   16.3233   34.5144 H   0  0  0  0  0  0
   21.7309   14.8463   31.4431 H   0  0  0  0  0  0
   19.3888   16.0634   31.1803 H   0  0  0  0  0  0
   17.7676   17.8463   31.8753 H   0  0  0  0  0  0
   23.6086   14.1510   30.6607 H   0  0  0  0  0  0
   26.1614   12.2760   32.6194 H   0  0  0  0  0  0
   26.8217   12.8052   27.6912 H   0  0  0  0  0  0
   25.1916   14.2368   28.8971 H   0  0  0  0  0  0
   28.0200   10.5456   27.8133 H   0  0  0  0  0  0
   29.3685   11.5246   28.4840 H   0  0  0  0  0  0
   28.0980    9.0289   29.7120 H   0  0  0  0  0  0
   29.7572    9.2002   29.0453 H   0  0  0  0  0  0
   29.8955    9.4447   31.4249 H   0  0  0  0  0  0
   30.1196   11.0640   30.6804 H   0  0  0  0  0  0
   27.6832    9.9191   31.9718 H   0  0  0  0  0  0
   28.0742   11.9283   33.4469 H   0  0  0  0  0  0
   29.4479   13.2759   31.9071 H   0  0  0  0  0  0
   30.8285   12.1681   32.2128 H   0  0  0  0  0  0
   30.1273   13.1231   33.5629 H   0  0  0  0  0  0
   28.6620    9.6235   34.0825 H   0  0  0  0  0  0
   29.6434   10.8938   34.8886 H   0  0  0  0  0  0
   30.3446    9.9387   33.5385 H   0  0  0  0  0  0
   19.7056   20.8205   34.8222 H   0  0  0  0  0  0
  1  2  1  0  0  0
  1 30  1  0  0  0
  1 31  1  0  0  0
  2  3  2  0  0  0
  2  4  1  0  0  0
  3 32  1  0  0  0
  3 57  1  0  0  0
  4  5  2  0  0  0
  4 13  1  0  0  0
  5  6  1  0  0  0
  5 33  1  0  0  0
  6  7  2  0  0  0
  6 11  1  0  0  0
  7  8  1  0  0  0
  7 34  1  0  0  0
  8  9  2  0  0  0
  8 35  1  0  0  0
  9 10  1  0  0  0
  9 14  1  0  0  0
 10 11  2  0  0  0
 10 36  1  0  0  0
 11 12  1  0  0  0
 12 13  2  0  0  0
 12 37  1  0  0  0
 13 38  1  0  0  0
 14 15  2  0  0  0
 14 16  1  0  0  0
 16 17  1  0  0  0
 16 39  1  0  0  0
 17 18  2  0  0  0
 17 22  1  0  0  0
 18 19  1  0  0  0
 18 40  1  0  0  0
 19 20  2  0  0  0
 19 26  1  0  0  0
 20 21  1  0  0  0
 20 23  1  0  0  0
 21 22  2  0  0  0
 21 41  1  0  0  0
 22 42  1  0  0  0
 23 24  1  0  0  0
 23 43  1  0  0  0
 23 44  1  0  0  0
 24 25  1  0  0  0
 24 45  1  0  0  0
 24 46  1  0  0  0
 25 26  1  0  0  0
 25 47  1  0  0  0
 25 48  1  0  0  0
 26 27  1  0  0  0
 26 49  1  0  0  0
 27 28  1  0  0  0
 27 29  1  0  0  0
 27 50  1  0  0  0
 28 51  1  0  0  0
 28 52  1  0  0  0
 28 53  1  0  0  0
 29 54  1  0  0  0
 29 55  1  0  0  0
 29 56  1  0  0  0
M  CHG  2   3   1  25   1
M  END
> <s_m_source_file>
../1owk_ligand.sdf

> <i_m_source_file_index>
1

> <s_epik_input>
W0hdXE49QyhcW05IMl0pYyhbY0hdMSlbY0hdW2NIXWMoYzEyKVtjSF1jKFtjSF1bY0hdMilDKD1PKVtOSF1jKFtjSF0zKVtjSF1bY0hdYyhjMzQpW0NIMl1bQ0gyXVtOSDIrXVtDQEhdNFtDSF0oW0NIM10pW0NIM10=

> <s_epik_cmdline>
J2VwaWtfYXBwJywgJy1pbWFlJywgJ2xpZ2FuZF9wcm8ubWFlJywgJy1vbWFlJywgJ2xpZ2FuZF9wcmVwLm1hZScsICctbXMnLCAnMScsICctcGgnLCAnNycsICctcGh0JywgJzAuNScsICctbnQn

> <r_lp_tautomer_probability>
1

> <r_epik_Ionization_Penalty>
  0.0077

> <r_epik_Ionization_Penalty_Charging>
  0.0077

> <r_epik_Ionization_Penalty_Neutral>
  0.0000

> <r_epik_State_Penalty>
 -0.0000

> <r_epik_Charging_Adjusted_Penalty>
0.00773257150686055

> <i_epik_Tot_Q>
2

> <i_epik_Tot_abs_Q>
2

> <s_epik_Chemistry_Notes>
This compound has an imine and may undergo hydrolysis.

$$$$
