1ox9_ligand
                    3D
 Schrodinger Suite 2020-3.
109109  0  0  1  0            999 V2000
   14.8000  -11.7210   47.7650 N   0  3  0  0  0  0
   13.4880  -11.5360   47.0890 C   0  0  2  0  0  0
   13.6510  -11.6380   45.5700 C   0  0  0  0  0  0
   14.7630  -11.7860   45.0570 O   0  0  0  0  0  0
   12.8950  -10.1810   47.4740 C   0  0  0  0  0  0
   12.5340  -11.5540   44.8570 N   0  0  0  0  0  0
   12.5390  -11.6450   43.4120 C   0  0  2  0  0  0
   13.1930  -10.4350   42.7910 C   0  0  0  0  0  0
   13.8830  -10.5580   41.7860 O   0  0  0  0  0  0
   11.1280  -11.7840   42.9040 C   0  0  0  0  0  0
   12.9760   -9.2660   43.3780 N   0  0  0  0  0  0
   13.5650   -8.0380   42.8500 C   0  0  2  0  0  0
   14.8970   -7.7500   43.5210 C   0  0  0  0  0  0
   15.1710   -8.2800   44.6010 O   0  0  0  0  0  0
   12.6200   -6.8570   43.0640 C   0  0  0  0  0  0
   12.2050   -6.6950   44.5160 C   0  0  0  0  0  0
   11.7080   -7.6330   45.1390 O   0  0  0  0  0  0
   12.3990   -5.4990   45.0580 N   0  0  0  0  0  0
   15.7190   -6.9050   42.8970 N   0  0  0  0  0  0
   17.0380   -6.5660   43.4520 C   0  0  2  0  0  0
   16.9800   -5.6770   44.7100 C   0  0  0  0  0  0
   15.9640   -5.0410   44.9930 O   0  0  0  0  0  0
   17.9060   -5.8970   42.3720 C   0  0  0  0  0  0
   18.0020   -6.7310   41.0930 C   0  0  0  0  0  0
   18.0970   -7.9730   41.2090 O   0  0  0  0  0  0
   17.9890   -6.1480   39.9760 O   0  5  0  0  0  0
   18.0740   -5.6310   45.4580 N   0  0  0  0  0  0
   18.1260   -4.8250   46.6700 C   0  0  2  0  0  0
   18.1220   -3.3130   46.4600 C   0  0  0  0  0  0
   17.7180   -2.5760   47.3390 O   0  0  0  0  0  0
   19.3590   -5.2050   47.4840 C   0  0  0  0  0  0
   19.2790   -6.5760   48.1140 C   0  0  0  0  0  0
   18.2300   -6.6410   49.1990 C   0  0  0  0  0  0
   18.3980   -5.9390   50.2250 O   0  5  0  0  0  0
   17.2430   -7.3910   49.0220 O   0  0  0  0  0  0
   18.5820   -2.8460   45.3080 N   0  0  0  0  0  0
   18.6280   -1.4100   45.0520 C   0  0  2  0  0  0
   18.0370   -1.0090   43.7110 C   0  0  0  0  0  0
   18.3930   -1.5670   42.6740 O   0  0  0  0  0  0
   20.0690   -0.9090   45.1210 C   0  0  0  0  0  0
   20.6570   -1.0180   46.5150 C   0  0  0  0  0  0
   20.3120   -0.2400   47.4040 O   0  0  0  0  0  0
   21.5380   -1.9960   46.7170 N   0  0  0  0  0  0
   17.1200   -0.0460   43.7550 N   0  0  0  0  0  0
   16.4800    0.4910   42.5660 C   0  0  2  0  0  0
   17.2420    1.7850   42.2430 C   0  0  0  0  0  0
   16.6920    2.7310   41.6970 O   0  0  0  0  0  0
   15.0000    0.7860   42.8480 C   0  0  0  0  0  0
   14.2090    1.2880   41.6480 C   0  0  0  0  0  0
   13.9090    0.4440   40.5820 C   0  0  0  0  0  0
   13.7840    2.6160   41.5720 C   0  0  0  0  0  0
   13.2060    0.9080   39.4660 C   0  0  0  0  0  0
   13.0850    3.0890   40.4640 C   0  0  0  0  0  0
   12.7990    2.2310   39.4130 C   0  0  0  0  0  0
   12.1160    2.6910   38.3110 O   0  0  0  0  0  0
   18.5190    1.8220   42.6060 N   0  0  0  0  0  0
   19.3720    2.9850   42.3510 C   0  0  2  0  0  0
   19.7160    3.1000   40.8600 C   0  0  0  0  0  0
   20.9280    3.0680   40.5180 O   0  5  0  0  0  0
   20.6610    2.8720   43.1720 C   0  0  0  0  0  0
   18.7650    3.2210   40.0540 O   0  0  0  0  0  0
   15.2224  -12.6972   47.4848 H   0  0  0  0  0  0
   14.6595  -11.6816   48.8553 H   0  0  0  0  0  0
   15.4883  -10.9210   47.4548 H   0  0  0  0  0  0
   12.8230  -12.3413   47.4343 H   0  0  0  0  0  0
   12.7853  -10.1260   48.5671 H   0  0  0  0  0  0
   11.9091  -10.0643   47.0003 H   0  0  0  0  0  0
   13.5638   -9.3775   47.1317 H   0  0  0  0  0  0
   11.5857  -11.4111   45.3958 H   0  0  0  0  0  0
   13.1272  -12.5420   43.1681 H   0  0  0  0  0  0
   10.6591  -12.6677   43.3613 H   0  0  0  0  0  0
   11.1419  -11.9009   41.8103 H   0  0  0  0  0  0
   10.5525  -10.8849   43.1694 H   0  0  0  0  0  0
   12.3415   -9.2299   44.2758 H   0  0  0  0  0  0
   13.7185   -8.2211   41.7763 H   0  0  0  0  0  0
   13.1176   -5.9277   42.7498 H   0  0  0  0  0  0
   11.7079   -7.0044   42.4671 H   0  0  0  0  0  0
   12.8470   -4.6908   44.4612 H   0  0  0  0  0  0
   12.1118   -5.3160   46.1040 H   0  0  0  0  0  0
   15.3909   -6.4586   41.9467 H   0  0  0  0  0  0
   17.4456   -7.5421   43.7539 H   0  0  0  0  0  0
   17.4735   -4.9210   42.1066 H   0  0  0  0  0  0
   18.9259   -5.7533   42.7583 H   0  0  0  0  0  0
   18.9526   -6.2160   45.1484 H   0  0  0  0  0  0
   17.1770   -5.0878   47.1602 H   0  0  0  0  0  0
   20.2451   -5.1978   46.8323 H   0  0  0  0  0  0
   19.4978   -4.4800   48.2995 H   0  0  0  0  0  0
   19.0228   -7.3188   47.3442 H   0  0  0  0  0  0
   20.2511   -6.8315   48.5609 H   0  0  0  0  0  0
   18.9312   -3.5529   44.5410 H   0  0  0  0  0  0
   17.9969   -0.9908   45.8495 H   0  0  0  0  0  0
   20.6970   -1.5040   44.4416 H   0  0  0  0  0  0
   20.1043    0.1487   44.8209 H   0  0  0  0  0  0
   21.8147   -2.6665   45.8900 H   0  0  0  0  0  0
   21.9890   -2.1334   47.7108 H   0  0  0  0  0  0
   16.8517    0.3443   44.7478 H   0  0  0  0  0  0
   16.5350   -0.2512   41.7560 H   0  0  0  0  0  0
   14.5026   -0.1321   43.1939 H   0  0  0  0  0  0
   14.9221    1.5604   43.6254 H   0  0  0  0  0  0
   14.2281   -0.5976   40.6182 H   0  0  0  0  0  0
   14.0035    3.2955   42.3956 H   0  0  0  0  0  0
   12.9793    0.2319   38.6416 H   0  0  0  0  0  0
   12.7640    4.1299   40.4233 H   0  0  0  0  0  0
   11.8907    2.0078   37.4789 H   0  0  0  0  0  0
   18.9316    0.9383   43.1147 H   0  0  0  0  0  0
   18.7839    3.8604   42.6639 H   0  0  0  0  0  0
   20.4096    2.7898   44.2397 H   0  0  0  0  0  0
   21.2794    3.7670   43.0087 H   0  0  0  0  0  0
   21.2192    1.9781   42.8569 H   0  0  0  0  0  0
  1  2  1  0  0  0
  1 62  1  0  0  0
  1 63  1  0  0  0
  1 64  1  0  0  0
  2  3  1  0  0  0
  2  5  1  0  0  0
  2 65  1  0  0  0
  3  4  2  0  0  0
  3  6  1  0  0  0
  5 66  1  0  0  0
  5 67  1  0  0  0
  5 68  1  0  0  0
  6  7  1  0  0  0
  6 69  1  0  0  0
  7  8  1  0  0  0
  7 10  1  0  0  0
  7 70  1  0  0  0
  8  9  2  0  0  0
  8 11  1  0  0  0
 10 71  1  0  0  0
 10 72  1  0  0  0
 10 73  1  0  0  0
 11 12  1  0  0  0
 11 74  1  0  0  0
 12 13  1  0  0  0
 12 15  1  0  0  0
 12 75  1  0  0  0
 13 14  2  0  0  0
 13 19  1  0  0  0
 15 16  1  0  0  0
 15 76  1  0  0  0
 15 77  1  0  0  0
 16 17  2  0  0  0
 16 18  1  0  0  0
 18 78  1  0  0  0
 18 79  1  0  0  0
 19 20  1  0  0  0
 19 80  1  0  0  0
 20 21  1  0  0  0
 20 23  1  0  0  0
 20 81  1  0  0  0
 21 22  2  0  0  0
 21 27  1  0  0  0
 23 24  1  0  0  0
 23 82  1  0  0  0
 23 83  1  0  0  0
 24 25  2  0  0  0
 24 26  1  0  0  0
 27 28  1  0  0  0
 27 84  1  0  0  0
 28 29  1  0  0  0
 28 31  1  0  0  0
 28 85  1  0  0  0
 29 30  2  0  0  0
 29 36  1  0  0  0
 31 32  1  0  0  0
 31 86  1  0  0  0
 31 87  1  0  0  0
 32 33  1  0  0  0
 32 88  1  0  0  0
 32 89  1  0  0  0
 33 34  1  0  0  0
 33 35  2  0  0  0
 36 37  1  0  0  0
 36 90  1  0  0  0
 37 38  1  0  0  0
 37 40  1  0  0  0
 37 91  1  0  0  0
 38 39  2  0  0  0
 38 44  1  0  0  0
 40 41  1  0  0  0
 40 92  1  0  0  0
 40 93  1  0  0  0
 41 42  2  0  0  0
 41 43  1  0  0  0
 43 94  1  0  0  0
 43 95  1  0  0  0
 44 45  1  0  0  0
 44 96  1  0  0  0
 45 46  1  0  0  0
 45 48  1  0  0  0
 45 97  1  0  0  0
 46 47  2  0  0  0
 46 56  1  0  0  0
 48 49  1  0  0  0
 48 98  1  0  0  0
 48 99  1  0  0  0
 49 50  2  0  0  0
 49 51  1  0  0  0
 50 52  1  0  0  0
 50100  1  0  0  0
 51 53  2  0  0  0
 51101  1  0  0  0
 52 54  2  0  0  0
 52102  1  0  0  0
 53 54  1  0  0  0
 53103  1  0  0  0
 54 55  1  0  0  0
 55104  1  0  0  0
 56 57  1  0  0  0
 56105  1  0  0  0
 57 58  1  0  0  0
 57 60  1  0  0  0
 57106  1  0  0  0
 58 59  1  0  0  0
 58 61  2  0  0  0
 60107  1  0  0  0
 60108  1  0  0  0
 60109  1  0  0  0
M  CHG  4   1   1  26  -1  34  -1  59  -1
M  END
> <s_m_source_file>
../1ox9_ligand.sdf

> <i_m_source_file_index>
1

> <s_epik_input>
W05IMytdW0NAQEhdKFtDSDNdKUMoPU8pW05IXVtDQEBIXShbQ0gzXSlDKD1PKVtOSF1bQ0BASF0oW0NIMl1DKD1PKVtOSDJdKUMoPU8pW05IXVtDQEBIXShbQ0gyXUMoPU8pW09IXSlDKD1PKVtOSF1bQ0BASF0oW0NIMl1bQ0gyXUMoPU8pW09IXSlDKD1PKVtOSF1bQ0BASF0oW0NIMl1DKD1PKVtOSDJdKUMoPU8pW05IXVtDQEhdKEMoPU8pW05IXVtDQEBIXShbQ0gzXSlDKD1PKVtPSF0pW0NIMl1jMVtjSF1bY0hdYyhbT0hdKVtjSF1bY0hdMQ==

> <s_epik_cmdline>
J2VwaWtfYXBwJywgJy1pbWFlJywgJ2xpZ2FuZF9wcm8ubWFlJywgJy1vbWFlJywgJ2xpZ2FuZF9wcmVwLm1hZScsICctbXMnLCAnMScsICctcGgnLCAnNycsICctcGh0JywgJzAuNScsICctbnQn

> <r_lp_tautomer_probability>
0.999999999997365

> <r_epik_Ionization_Penalty>
  0.1279

> <r_epik_Ionization_Penalty_Charging>
  0.1271

> <r_epik_Ionization_Penalty_Neutral>
  0.0009

> <r_epik_State_Penalty>
  0.1134

> <r_epik_Charging_Adjusted_Penalty>
0.240502751772242

> <i_epik_Tot_Q>
-2

> <i_epik_Tot_abs_Q>
4

$$$$
