1oxg_ligand
                    3D
 Schrodinger Suite 2020-3.
164169  0  0  1  0            999 V2000
   38.8620    2.0280   54.7500 N   0  3  0  0  0  0
   39.1020    2.4720   53.3900 C   0  0  0  0  0  0
   40.6090    2.5400   53.1190 C   0  0  0  0  0  0
   41.4060    1.8640   53.7740 O   0  0  0  0  0  0
   40.9690    3.3380   52.0960 N   0  0  0  0  0  0
   42.4110    3.5130   51.7960 C   0  0  0  0  0  0
   42.7940    4.0160   50.3640 C   0  0  0  0  0  0
   42.9180    3.2100   49.4400 O   0  0  0  0  0  0
   42.9680    5.3320   50.2330 N   0  0  0  0  0  0
   43.3160    5.9720   48.9820 C   0  0  0  0  0  0
   42.3870    7.1720   48.9250 C   0  0  0  0  0  0
   42.1800    7.8360   49.9270 O   0  0  0  0  0  0
   41.8030    7.4400   47.7680 N   0  0  0  0  0  0
   40.8860    8.5760   47.6750 C   0  0  0  0  0  0
   39.4540    8.0700   47.6120 C   0  0  0  0  0  0
   38.5990    8.7050   47.0130 O   0  0  0  0  0  0
   39.1870    6.8900   48.2160 N   0  0  0  0  0  0
   37.8760    6.2690   48.1800 C   0  0  0  0  0  0
   37.0540    6.8000   49.3040 C   0  0  0  0  0  0
   35.9230    6.3510   49.5490 O   0  0  0  0  0  0
   37.6110    7.7710   49.9860 N   0  0  0  0  0  0
   36.9180    8.3280   51.1210 C   0  0  0  0  0  0
   36.4640    9.7440   50.9380 C   0  0  0  0  0  0
   36.9240   10.6170   51.6670 O   0  0  0  0  0  0
   35.5980    9.9990   49.9990 N   0  0  0  0  0  0
   35.1780   11.3800   49.8810 C   0  0  2  0  0  0
   34.3320   11.7820   51.1230 C   0  0  0  0  0  0
   33.3880   11.0710   51.4720 O   0  0  0  0  0  0
   34.3550   11.5780   48.6150 C   0  0  0  0  0  0
   34.6430   12.9140   51.7720 N   0  0  0  0  0  0
   33.8800   13.4710   52.8320 C   0  0  2  0  0  0
   33.4940   14.9610   52.4920 C   0  0  0  0  0  0
   34.2860   15.9390   52.5000 O   0  0  0  0  0  0
   34.7000   13.3320   54.1940 C   0  0  0  0  0  0
   33.9230   14.0460   55.3130 C   0  0  0  0  0  0
   34.9930   11.9630   54.5810 C   0  0  0  0  0  0
   32.2840   14.7930   52.0230 N   0  0  0  0  0  0
   30.9570   14.7080   51.4960 C   0  0  2  0  0  0
   31.0110   13.7080   50.4110 C   0  0  0  0  0  0
   31.5510   13.9440   49.3310 O   0  0  0  0  0  0
   30.1490   15.9720   51.3350 C   0  0  0  0  0  0
   30.5780   16.6070   52.5360 C   0  0  0  0  0  0
   31.9810   16.1420   52.5830 C   0  0  0  0  0  0
   30.4630   12.5960   50.6880 N   0  0  0  0  0  0
   30.4750   11.6690   49.5860 C   0  0  0  0  0  0
   29.2420   11.9610   48.7360 C   0  0  0  0  0  0
   29.2440   11.6700   47.5400 O   0  0  0  0  0  0
   28.2120   12.5020   49.3370 N   0  0  0  0  0  0
   26.9770   12.8110   48.6260 C   0  0  2  0  0  0
   26.6150   14.2510   48.8710 C   0  0  0  0  0  0
   27.0740   14.8450   49.8530 O   0  0  0  0  0  0
   25.8270   11.9460   49.1160 C   0  0  0  0  0  0
   25.4770   12.2300   50.4460 O   0  0  0  0  0  0
   25.8040   14.8370   47.9650 N   0  0  0  0  0  0
   25.3700   16.1770   48.0750 C   0  0  2  0  0  0
   24.2150   16.4750   47.1680 C   0  0  0  0  0  0
   24.0550   15.8700   46.1180 O   0  0  0  0  0  0
   26.4910   17.0770   47.5410 C   0  0  0  0  0  0
   26.3820   18.4550   47.8070 C   0  0  0  0  0  0
   25.9670   19.4380   46.9730 C   0  0  0  0  0  0
   26.7450   19.0670   49.0060 C   0  0  0  0  0  0
   26.0530   20.6490   47.6010 N   0  0  0  0  0  0
   26.5380   20.4500   48.8580 C   0  0  0  0  0  0
   27.1980   18.5930   50.2050 C   0  0  0  0  0  0
   26.8010   21.3610   49.8790 C   0  0  0  0  0  0
   27.4780   19.4660   51.1940 C   0  0  0  0  0  0
   27.2830   20.8510   51.0420 C   0  0  0  0  0  0
   23.3390   17.3460   47.6050 N   0  0  0  0  0  0
   22.2340   17.8520   46.8090 C   0  0  2  0  0  0
   22.7530   18.4770   45.5930 C   0  0  0  0  0  0
   23.7620   19.1570   45.6490 O   0  0  0  0  0  0
   21.5810   18.8490   47.7420 C   0  0  0  0  0  0
   21.7640   18.1800   49.0500 C   0  0  0  0  0  0
   23.0770   17.5020   49.0390 C   0  0  0  0  0  0
   22.0840   18.2240   44.4830 N   0  0  0  0  0  0
   22.5670   18.7950   43.2740 C   0  0  2  0  0  0
   21.8720   20.0350   42.8920 C   0  0  0  0  0  0
   22.2150   20.7180   41.9560 O   0  0  0  0  0  0
   22.6410   17.7480   42.1930 C   0  0  0  0  0  0
   23.7900   16.7320   42.3420 C   0  0  0  0  0  0
   24.9500   16.8180   43.0450 C   0  0  0  0  0  0
   23.8510   15.5250   41.6020 C   0  0  0  0  0  0
   25.7560   15.7280   42.7550 N   0  0  0  0  0  0
   25.0940   14.9170   41.8700 C   0  0  0  0  0  0
   22.9580   14.8910   40.7270 C   0  0  0  0  0  0
   25.4550   13.7240   41.2830 C   0  0  0  0  0  0
   23.3210   13.7140   40.1760 C   0  0  0  0  0  0
   24.5610   13.1460   40.4650 C   0  0  0  0  0  0
   20.8201   20.4207   43.6086 O   0  0  0  0  0  0
   37.7786    1.9823   54.9350 H   0  0  0  0  0  0
   39.3247    2.7356   55.4537 H   0  0  0  0  0  0
   39.3007    1.0294   54.8925 H   0  0  0  0  0  0
   38.6393    1.7644   52.6863 H   0  0  0  0  0  0
   38.6633    3.4706   53.2475 H   0  0  0  0  0  0
   40.2137    3.8560   51.4868 H   0  0  0  0  0  0
   42.8428    4.2503   52.4888 H   0  0  0  0  0  0
   42.9298    2.5503   51.9150 H   0  0  0  0  0  0
   42.8331    5.9372   51.1416 H   0  0  0  0  0  0
   44.3761    6.2647   49.0024 H   0  0  0  0  0  0
   43.1450    5.2712   48.1516 H   0  0  0  0  0  0
   42.0009    6.8189   46.8819 H   0  0  0  0  0  0
   41.0083    9.2192   48.5589 H   0  0  0  0  0  0
   41.1100    9.1546   46.7667 H   0  0  0  0  0  0
   40.0136    6.3992   48.7507 H   0  0  0  0  0  0
   37.3869    6.5004   47.2223 H   0  0  0  0  0  0
   37.9836    5.1791   48.2829 H   0  0  0  0  0  0
   38.5986    8.1611   49.6989 H   0  0  0  0  0  0
   36.0200    7.7290   51.3324 H   0  0  0  0  0  0
   37.5818    8.3157   51.9981 H   0  0  0  0  0  0
   35.1876    9.2392   49.3177 H   0  0  0  0  0  0
   36.1088   11.9620   49.8109 H   0  0  0  0  0  0
   34.9558   11.2930   47.7388 H   0  0  0  0  0  0
   34.0612   12.6347   48.5302 H   0  0  0  0  0  0
   33.4535   10.9494   48.6617 H   0  0  0  0  0  0
   35.5598   13.4171   51.4309 H   0  0  0  0  0  0
   32.9637   12.8632   52.8611 H   0  0  0  0  0  0
   35.7175   13.7346   54.0816 H   0  0  0  0  0  0
   33.7078   15.0806   55.0074 H   0  0  0  0  0  0
   34.5275   14.0533   56.2320 H   0  0  0  0  0  0
   32.9781   13.5147   55.4998 H   0  0  0  0  0  0
   35.5482   11.4644   53.7729 H   0  0  0  0  0  0
   34.0516   11.4247   54.7655 H   0  0  0  0  0  0
   35.6010   11.9633   55.4977 H   0  0  0  0  0  0
   30.3161   14.3176   52.3002 H   0  0  0  0  0  0
   30.4433   16.4792   50.4043 H   0  0  0  0  0  0
   29.0790   15.7204   51.2929 H   0  0  0  0  0  0
   30.4709   17.6969   52.4329 H   0  0  0  0  0  0
   29.9617   16.2559   53.3768 H   0  0  0  0  0  0
   32.2580   16.1679   53.6472 H   0  0  0  0  0  0
   32.5559   16.9037   52.0359 H   0  0  0  0  0  0
   30.0081   12.3052   51.6464 H   0  0  0  0  0  0
   31.3931   11.8114   48.9971 H   0  0  0  0  0  0
   30.4432   10.6396   49.9724 H   0  0  0  0  0  0
   28.2985   12.7234   50.4110 H   0  0  0  0  0  0
   27.1807   12.6154   47.5629 H   0  0  0  0  0  0
   24.9425   12.1207   48.4858 H   0  0  0  0  0  0
   26.1149   10.8859   49.0580 H   0  0  0  0  0  0
   24.6584   11.6767   50.9295 H   0  0  0  0  0  0
   25.4805   14.2224   47.1120 H   0  0  0  0  0  0
   25.0964   16.2741   49.1360 H   0  0  0  0  0  0
   27.4511   16.7654   47.9783 H   0  0  0  0  0  0
   26.5413   16.9893   46.4457 H   0  0  0  0  0  0
   25.6164   19.2860   45.9522 H   0  0  0  0  0  0
   27.3314   17.5224   50.3601 H   0  0  0  0  0  0
   26.6285   22.4296   49.7508 H   0  0  0  0  0  0
   27.8669   19.0873   52.1392 H   0  0  0  0  0  0
   27.5214   21.5224   51.8669 H   0  0  0  0  0  0
   21.5518   17.0679   46.4486 H   0  0  0  0  0  0
   22.1011   19.8155   47.6681 H   0  0  0  0  0  0
   20.5256   18.9781   47.4602 H   0  0  0  0  0  0
   21.7317   18.9306   49.8534 H   0  0  0  0  0  0
   20.9594   17.4455   49.2019 H   0  0  0  0  0  0
   23.0509   16.5115   49.5168 H   0  0  0  0  0  0
   23.8748   18.1075   49.4938 H   0  0  0  0  0  0
   21.1814   17.5954   44.4722 H   0  0  0  0  0  0
   23.5839   19.1432   43.5080 H   0  0  0  0  0  0
   21.7076   17.1660   42.1817 H   0  0  0  0  0  0
   22.7798   18.2372   41.2176 H   0  0  0  0  0  0
   25.2078   17.6229   43.7333 H   0  0  0  0  0  0
   21.9914   15.3391   40.4967 H   0  0  0  0  0  0
   26.4264   13.2682   41.4748 H   0  0  0  0  0  0
   22.6379   13.2021   39.4981 H   0  0  0  0  0  0
   24.8159   12.1905   40.0066 H   0  0  0  0  0  0
   20.2830   21.3435   43.3442 H   0  0  0  0  0  0
  1  2  1  0  0  0
  1 90  1  0  0  0
  1 91  1  0  0  0
  1 92  1  0  0  0
  2  3  1  0  0  0
  2 93  1  0  0  0
  2 94  1  0  0  0
  3  4  2  0  0  0
  3  5  1  0  0  0
  5  6  1  0  0  0
  5 95  1  0  0  0
  6  7  1  0  0  0
  6 96  1  0  0  0
  6 97  1  0  0  0
  7  8  2  0  0  0
  7  9  1  0  0  0
  9 10  1  0  0  0
  9 98  1  0  0  0
 10 11  1  0  0  0
 10 99  1  0  0  0
 10100  1  0  0  0
 11 12  2  0  0  0
 11 13  1  0  0  0
 13 14  1  0  0  0
 13101  1  0  0  0
 14 15  1  0  0  0
 14102  1  0  0  0
 14103  1  0  0  0
 15 16  2  0  0  0
 15 17  1  0  0  0
 17 18  1  0  0  0
 17104  1  0  0  0
 18 19  1  0  0  0
 18105  1  0  0  0
 18106  1  0  0  0
 19 20  2  0  0  0
 19 21  1  0  0  0
 21 22  1  0  0  0
 21107  1  0  0  0
 22 23  1  0  0  0
 22108  1  0  0  0
 22109  1  0  0  0
 23 24  2  0  0  0
 23 25  1  0  0  0
 25 26  1  0  0  0
 25110  1  0  0  0
 26 29  1  0  0  0
 26 27  1  0  0  0
 26111  1  0  0  0
 27 28  2  0  0  0
 27 30  1  0  0  0
 29112  1  0  0  0
 29113  1  0  0  0
 29114  1  0  0  0
 30 31  1  0  0  0
 30115  1  0  0  0
 31 34  1  0  0  0
 31 32  1  0  0  0
 31116  1  0  0  0
 32 33  2  0  0  0
 32 37  1  0  0  0
 34 36  1  0  0  0
 34 35  1  0  0  0
 34117  1  0  0  0
 35118  1  0  0  0
 35119  1  0  0  0
 35120  1  0  0  0
 36121  1  0  0  0
 36122  1  0  0  0
 36123  1  0  0  0
 37 38  1  0  0  0
 37 43  1  0  0  0
 38 39  1  0  0  0
 38 41  1  0  0  0
 38124  1  0  0  0
 39 40  2  0  0  0
 39 44  1  0  0  0
 41 42  1  0  0  0
 41125  1  0  0  0
 41126  1  0  0  0
 42 43  1  0  0  0
 42127  1  0  0  0
 42128  1  0  0  0
 43129  1  0  0  0
 43130  1  0  0  0
 44 45  1  0  0  0
 44131  1  0  0  0
 45 46  1  0  0  0
 45132  1  0  0  0
 45133  1  0  0  0
 46 47  2  0  0  0
 46 48  1  0  0  0
 48 49  1  0  0  0
 48134  1  0  0  0
 49 52  1  0  0  0
 49 50  1  0  0  0
 49135  1  0  0  0
 50 51  2  0  0  0
 50 54  1  0  0  0
 52 53  1  0  0  0
 52136  1  0  0  0
 52137  1  0  0  0
 53138  1  0  0  0
 54 55  1  0  0  0
 54139  1  0  0  0
 55 58  1  0  0  0
 55 56  1  0  0  0
 55140  1  0  0  0
 56 57  2  0  0  0
 56 68  1  0  0  0
 58 59  1  0  0  0
 58141  1  0  0  0
 58142  1  0  0  0
 59 60  2  0  0  0
 59 61  1  0  0  0
 60 62  1  0  0  0
 60143  1  0  0  0
 61 64  2  0  0  0
 61 63  1  0  0  0
 62 63  1  0  0  0
 63 65  2  0  0  0
 64 66  1  0  0  0
 64144  1  0  0  0
 65 67  1  0  0  0
 65145  1  0  0  0
 66 67  2  0  0  0
 66146  1  0  0  0
 67147  1  0  0  0
 68 69  1  0  0  0
 68 74  1  0  0  0
 69 70  1  0  0  0
 69 72  1  0  0  0
 69148  1  0  0  0
 70 71  2  0  0  0
 70 75  1  0  0  0
 72 73  1  0  0  0
 72149  1  0  0  0
 72150  1  0  0  0
 73 74  1  0  0  0
 73151  1  0  0  0
 73152  1  0  0  0
 74153  1  0  0  0
 74154  1  0  0  0
 75 76  1  0  0  0
 75155  1  0  0  0
 76 79  1  0  0  0
 76 77  1  0  0  0
 76156  1  0  0  0
 77 78  2  0  0  0
 77 89  1  0  0  0
 79 80  1  0  0  0
 79157  1  0  0  0
 79158  1  0  0  0
 80 81  2  0  0  0
 80 82  1  0  0  0
 81 83  1  0  0  0
 81159  1  0  0  0
 82 85  2  0  0  0
 82 84  1  0  0  0
 83 84  1  0  0  0
 84 86  2  0  0  0
 85 87  1  0  0  0
 85160  1  0  0  0
 86 88  1  0  0  0
 86161  1  0  0  0
 87 88  2  0  0  0
 87162  1  0  0  0
 88163  1  0  0  0
 89164  1  0  0  0
M  CHG  1   1   1
M  END
> <s_m_source_file>
../1oxg_ligand.sdf

> <i_m_source_file_index>
1

> <s_epik_input>
W05IMytdW0NIMl1DKD1PKVtOSF1bQ0gyXUMoPU8pW05IXVtDSDJdQyg9TylbTkhdW0NIMl1DKD1PKVtOSF1bQ0gyXUMoPU8pW05IXVtDSDJdQyg9TylbTkhdW0NAQEhdKFtDSDNdKUMoPU8pW05IXVtDQEBIXShbQ0hdKFtDSDNdKVtDSDNdKUMoPU8pTjFbQ0BASF0oW0NIMl1bQ0gyXVtDSDJdMSlDKD1PKVtOSF1bQ0gyXUMoPU8pW05IXVtDQEBIXShbQ0gyXVtPSF0pQyg9TylbTkhdW0NAQEhdKFtDSDJdYzJbY0hdW25IXWMoYzIzKVtjSF1bY0hdW2NIXVtjSF0zKUMoPU8pTjRbQ0BASF0oW0NIMl1bQ0gyXVtDSDJdNClDKD1PKVtOSF1bQ0BIXShDKD1PKVtPSF0pW0NIMl1jNVtjSF1bbkhdYyhjNTYpW2NIXVtjSF1bY0hdW2NIXTY=

> <s_epik_cmdline>
J2VwaWtfYXBwJywgJy1pbWFlJywgJ2xpZ2FuZF9wcm8ubWFlJywgJy1vbWFlJywgJ2xpZ2FuZF9wcmVwLm1hZScsICctbXMnLCAnMScsICctcGgnLCAnNycsICctcGh0JywgJzAuNScsICctbnQn

> <s_epik_pKa_notes>
Molecule size exceeds maximum supported for generating protonation states

$$$$
