1oxn_ligand
                    3D
 Schrodinger Suite 2020-3.
 54 53  0  0  1  0            999 V2000
   22.3800   48.2560   -7.6980 N   0  3  0  0  0  0
   22.6610   47.9030   -6.2860 C   0  0  2  0  0  0
   22.0840   46.5380   -5.9750 C   0  0  0  0  0  0
   21.1330   46.1020   -6.6260 O   0  0  0  0  0  0
   22.0710   48.9410   -5.3520 C   0  0  0  0  0  0
   22.6680   45.8690   -4.9840 N   0  0  0  0  0  0
   22.1220   44.6230   -4.4610 C   0  0  2  0  0  0
   22.1700   44.5980   -2.9320 C   0  0  0  0  0  0
   23.0520   45.2130   -2.3170 O   0  0  0  0  0  0
   22.8480   43.4070   -5.0430 C   0  0  0  0  0  0
   24.3520   43.5600   -5.1660 C   0  0  0  0  0  0
   25.1050   42.3880   -4.5700 C   0  0  0  0  0  0
   25.2690   42.3550   -3.3270 O   0  0  0  0  0  0
   25.5290   41.5010   -5.3490 O   0  5  0  0  0  0
   21.2120   43.8930   -2.3320 N   0  0  0  0  0  0
   21.1440   43.7440   -0.8800 C   0  0  2  0  0  0
   22.3510   42.9700   -0.3710 C   0  0  0  0  0  0
   22.9460   42.1850   -1.1090 O   0  0  0  0  0  0
   19.8550   43.0480   -0.4810 C   0  0  0  0  0  0
   22.7310   43.2130    0.8780 N   0  0  0  0  0  0
   23.8300   42.4700    1.4910 C   0  0  2  0  0  0
   23.3010   41.2020    2.1740 C   0  0  0  0  0  0
   22.2170   41.1930    2.7640 O   0  0  0  0  0  0
   24.6810   43.3540    2.4590 C   0  0  0  0  0  0
   23.8660   43.8230    3.6580 C   0  0  0  0  0  0
   25.9520   42.6230    2.9070 C   0  0  0  0  0  0
   23.9883   40.1468    2.1316 O   0  5  0  0  0  0
   22.8010   49.2480   -7.9187 H   0  0  0  0  0  0
   21.2924   48.2745   -7.8618 H   0  0  0  0  0  0
   22.8380   47.5074   -8.3612 H   0  0  0  0  0  0
   23.7536   47.8834   -6.1600 H   0  0  0  0  0  0
   22.4960   49.9283   -5.5857 H   0  0  0  0  0  0
   22.3098   48.6759   -4.3115 H   0  0  0  0  0  0
   20.9790   48.9720   -5.4811 H   0  0  0  0  0  0
   23.5926   46.2859   -4.5582 H   0  0  0  0  0  0
   21.0747   44.6190   -4.7974 H   0  0  0  0  0  0
   22.6708   42.5320   -4.4004 H   0  0  0  0  0  0
   22.4674   43.2021   -6.0545 H   0  0  0  0  0  0
   24.6273   43.6345   -6.2284 H   0  0  0  0  0  0
   24.6722   44.4712   -4.6396 H   0  0  0  0  0  0
   20.4548   43.4139   -2.9701 H   0  0  0  0  0  0
   21.1548   44.7611   -0.4612 H   0  0  0  0  0  0
   18.9961   43.6227   -0.8580 H   0  0  0  0  0  0
   19.7986   42.9812    0.6155 H   0  0  0  0  0  0
   19.8364   42.0359   -0.9115 H   0  0  0  0  0  0
   22.2034   43.9885    1.4526 H   0  0  0  0  0  0
   24.4653   42.1765    0.6423 H   0  0  0  0  0  0
   24.9937   44.2613    1.9214 H   0  0  0  0  0  0
   22.9624   44.3427    3.3065 H   0  0  0  0  0  0
   24.4714   44.5110    4.2664 H   0  0  0  0  0  0
   23.5758   42.9539    4.2666 H   0  0  0  0  0  0
   26.5186   42.2970    2.0223 H   0  0  0  0  0  0
   25.6768   41.7453    3.5102 H   0  0  0  0  0  0
   26.5725   43.3023    3.5099 H   0  0  0  0  0  0
  1  2  1  0  0  0
  1 28  1  0  0  0
  1 29  1  0  0  0
  1 30  1  0  0  0
  2  5  1  0  0  0
  2  3  1  0  0  0
  2 31  1  0  0  0
  3  4  2  0  0  0
  3  6  1  0  0  0
  5 32  1  0  0  0
  5 33  1  0  0  0
  5 34  1  0  0  0
  6  7  1  0  0  0
  6 35  1  0  0  0
  7 10  1  0  0  0
  7  8  1  0  0  0
  7 36  1  0  0  0
  8  9  2  0  0  0
  8 15  1  0  0  0
 10 11  1  0  0  0
 10 37  1  0  0  0
 10 38  1  0  0  0
 11 12  1  0  0  0
 11 39  1  0  0  0
 11 40  1  0  0  0
 12 14  1  0  0  0
 12 13  2  0  0  0
 15 16  1  0  0  0
 15 41  1  0  0  0
 16 19  1  0  0  0
 16 17  1  0  0  0
 16 42  1  0  0  0
 17 18  2  0  0  0
 17 20  1  0  0  0
 19 43  1  0  0  0
 19 44  1  0  0  0
 19 45  1  0  0  0
 20 21  1  0  0  0
 20 46  1  0  0  0
 21 24  1  0  0  0
 21 22  1  0  0  0
 21 47  1  0  0  0
 22 23  2  0  0  0
 22 27  1  0  0  0
 24 26  1  0  0  0
 24 25  1  0  0  0
 24 48  1  0  0  0
 25 49  1  0  0  0
 25 50  1  0  0  0
 25 51  1  0  0  0
 26 52  1  0  0  0
 26 53  1  0  0  0
 26 54  1  0  0  0
M  CHG  3   1   1  14  -1  27  -1
M  END
> <s_m_source_file>
../1oxn_ligand.sdf

> <i_m_source_file_index>
1

> <s_epik_input>
W05IMytdW0NAQEhdKFtDSDNdKUMoPU8pW05IXVtDQEBIXShbQ0gyXVtDSDJdQyg9TylbT0hdKUMoPU8pW05IXVtDQEBIXShbQ0gzXSlDKD1PKVtOSF1bQ0BIXShDKD1PKVtPSF0pW0NIXShbQ0gzXSlbQ0gzXQ==

> <s_epik_cmdline>
J2VwaWtfYXBwJywgJy1pbWFlJywgJ2xpZ2FuZF9wcm8ubWFlJywgJy1vbWFlJywgJ2xpZ2FuZF9wcmVwLm1hZScsICctbXMnLCAnMScsICctcGgnLCAnNycsICctcGh0JywgJzAuNScsICctbnQn

> <r_epik_Ionization_Penalty>
  0.1199

> <r_epik_Ionization_Penalty_Charging>
  0.1199

> <r_epik_Ionization_Penalty_Neutral>
  0.0000

> <r_epik_State_Penalty>
  0.1077

> <r_epik_Charging_Adjusted_Penalty>
0.227604358278129

> <i_epik_Tot_Q>
-1

> <i_epik_Tot_abs_Q>
3

$$$$
