1oxq_ligand
                    3D
 Schrodinger Suite 2020-3.
 62 62  0  0  1  0            999 V2000
   22.2690   48.5480   -7.6420 N   0  3  0  0  0  0
   22.6620   48.1820   -6.2580 C   0  0  2  0  0  0
   21.9960   46.8720   -5.8630 C   0  0  0  0  0  0
   20.9800   46.4800   -6.4400 O   0  0  0  0  0  0
   22.2940   49.2960   -5.2770 C   0  0  0  0  0  0
   22.5740   46.2140   -4.8660 N   0  0  0  0  0  0
   22.1160   44.9170   -4.4070 C   0  0  2  0  0  0
   22.2050   44.9340   -2.8710 C   0  0  0  0  0  0
   23.0470   45.6550   -2.3290 O   0  0  0  0  0  0
   22.9730   43.7940   -5.1050 C   0  0  0  0  0  0
   22.7520   43.7160   -6.6300 C   0  0  0  0  0  0
   24.4340   43.8910   -4.7180 C   0  0  0  0  0  0
   21.3290   44.2180   -2.1560 N   0  0  0  0  0  0
   21.4480   44.1390   -0.6910 C   0  0  2  0  0  0
   22.7890   43.6040   -0.2330 C   0  0  0  0  0  0
   23.4190   42.8220   -0.9470 O   0  0  0  0  0  0
   20.3310   43.1710   -0.2980 C   0  0  0  0  0  0
   19.3260   43.3490   -1.3570 C   0  0  0  0  0  0
   20.1380   43.4900   -2.6330 C   0  0  0  0  0  0
   23.2330   44.0670    0.9340 N   0  0  0  0  0  0
   24.3870   43.4850    1.6090 C   0  0  2  0  0  0
   23.8790   42.2230    2.2870 C   0  0  0  0  0  0
   23.1160   42.3070    3.2530 O   0  0  0  0  0  0
   24.9930   44.4510    2.6690 C   0  0  2  0  0  0
   25.3380   45.8130    2.0580 C   0  0  0  0  0  0
   26.2200   43.8240    3.3300 C   0  0  0  0  0  0
   25.5220   46.9150    3.0920 C   0  0  0  0  0  0
   24.2368   41.0918    1.8628 O   0  5  0  0  0  0
   22.7530   49.4952   -7.9222 H   0  0  0  0  0  0
   21.1765   48.6650   -7.6941 H   0  0  0  0  0  0
   22.5863   47.7550   -8.3351 H   0  0  0  0  0  0
   23.7543   48.0519   -6.2519 H   0  0  0  0  0  0
   22.7862   50.2311   -5.5826 H   0  0  0  0  0  0
   22.6278   49.0194   -4.2660 H   0  0  0  0  0  0
   21.2033   49.4388   -5.2768 H   0  0  0  0  0  0
   23.4371   46.6952   -4.3827 H   0  0  0  0  0  0
   21.0631   44.7738   -4.6912 H   0  0  0  0  0  0
   22.6445   42.8144   -4.7276 H   0  0  0  0  0  0
   21.6747   43.6477   -6.8413 H   0  0  0  0  0  0
   23.2611   42.8264   -7.0292 H   0  0  0  0  0  0
   23.1627   44.6183   -7.1066 H   0  0  0  0  0  0
   24.5205   43.9431   -3.6226 H   0  0  0  0  0  0
   24.8721   44.7962   -5.1638 H   0  0  0  0  0  0
   24.9705   43.0042   -5.0865 H   0  0  0  0  0  0
   21.3737   45.1468   -0.2565 H   0  0  0  0  0  0
   20.7280   42.1456   -0.2684 H   0  0  0  0  0  0
   19.9428   43.4426    0.6947 H   0  0  0  0  0  0
   18.6650   42.4702   -1.3866 H   0  0  0  0  0  0
   18.7296   44.2496   -1.1489 H   0  0  0  0  0  0
   19.6292   44.0855   -3.4053 H   0  0  0  0  0  0
   20.4452   42.5233   -3.0586 H   0  0  0  0  0  0
   22.7003   44.9155    1.3882 H   0  0  0  0  0  0
   25.1485   43.2788    0.8425 H   0  0  0  0  0  0
   24.2429   44.6304    3.4533 H   0  0  0  0  0  0
   26.2777   45.7334    1.4917 H   0  0  0  0  0  0
   24.5286   46.1276    1.3828 H   0  0  0  0  0  0
   25.9468   42.8491    3.7601 H   0  0  0  0  0  0
   26.5858   44.4872    4.1277 H   0  0  0  0  0  0
   27.0105   43.6844    2.5779 H   0  0  0  0  0  0
   25.7664   47.8587    2.5825 H   0  0  0  0  0  0
   26.3408   46.6441    3.7748 H   0  0  0  0  0  0
   24.5917   47.0384    3.6659 H   0  0  0  0  0  0
  1  2  1  0  0  0
  1 29  1  0  0  0
  1 30  1  0  0  0
  1 31  1  0  0  0
  2  5  1  0  0  0
  2  3  1  0  0  0
  2 32  1  0  0  0
  3  4  2  0  0  0
  3  6  1  0  0  0
  5 33  1  0  0  0
  5 34  1  0  0  0
  5 35  1  0  0  0
  6  7  1  0  0  0
  6 36  1  0  0  0
  7 10  1  0  0  0
  7  8  1  0  0  0
  7 37  1  0  0  0
  8  9  2  0  0  0
  8 13  1  0  0  0
 10 12  1  0  0  0
 10 11  1  0  0  0
 10 38  1  0  0  0
 11 39  1  0  0  0
 11 40  1  0  0  0
 11 41  1  0  0  0
 12 42  1  0  0  0
 12 43  1  0  0  0
 12 44  1  0  0  0
 13 14  1  0  0  0
 13 19  1  0  0  0
 14 15  1  0  0  0
 14 17  1  0  0  0
 14 45  1  0  0  0
 15 16  2  0  0  0
 15 20  1  0  0  0
 17 18  1  0  0  0
 17 46  1  0  0  0
 17 47  1  0  0  0
 18 19  1  0  0  0
 18 48  1  0  0  0
 18 49  1  0  0  0
 19 50  1  0  0  0
 19 51  1  0  0  0
 20 21  1  0  0  0
 20 52  1  0  0  0
 21 24  1  0  0  0
 21 22  1  0  0  0
 21 53  1  0  0  0
 22 23  2  0  0  0
 22 28  1  0  0  0
 24 26  1  0  0  0
 24 25  1  0  0  0
 24 54  1  0  0  0
 25 27  1  0  0  0
 25 55  1  0  0  0
 25 56  1  0  0  0
 26 57  1  0  0  0
 26 58  1  0  0  0
 26 59  1  0  0  0
 27 60  1  0  0  0
 27 61  1  0  0  0
 27 62  1  0  0  0
M  CHG  2   1   1  28  -1
M  END
> <s_m_source_file>
../1oxq_ligand.sdf

> <i_m_source_file_index>
1

> <s_epik_input>
W05IMytdW0NAQEhdKFtDSDNdKUMoPU8pW05IXVtDQEBIXShbQ0hdKFtDSDNdKVtDSDNdKUMoPU8pTjFbQ0BASF0oW0NIMl1bQ0gyXVtDSDJdMSlDKD1PKVtOSF1bQ0BIXShDKD1PKVtPSF0pW0NAQEhdKFtDSDNdKVtDSDJdW0NIM10=

> <s_epik_cmdline>
J2VwaWtfYXBwJywgJy1pbWFlJywgJ2xpZ2FuZF9wcm8ubWFlJywgJy1vbWFlJywgJ2xpZ2FuZF9wcmVwLm1hZScsICctbXMnLCAnMScsICctcGgnLCAnNycsICctcGh0JywgJzAuNScsICctbnQn

> <r_epik_Ionization_Penalty>
  0.1187

> <r_epik_Ionization_Penalty_Charging>
  0.1187

> <r_epik_Ionization_Penalty_Neutral>
  0.0000

> <r_epik_State_Penalty>
  0.1080

> <r_epik_Charging_Adjusted_Penalty>
0.22668522275432

> <i_epik_Tot_Q>
0

> <i_epik_Tot_abs_Q>
2

$$$$
