1oxr_ligand
                    3D
 Schrodinger Suite 2020-3.
 20 20  0  0  1  0            999 V2000
   13.9070   16.1300    0.6240 O   0  5  0  0  0  0
   13.2540   15.7780    1.7230 C   0  0  0  0  0  0
   13.9110   15.7590    2.7490 O   0  0  0  0  0  0
   11.8300   15.3160    1.6640 C   0  0  0  0  0  0
   11.1140   15.3810    0.4560 C   0  0  0  0  0  0
    9.7740   15.0010    0.4290 C   0  0  0  0  0  0
    9.1200   14.6010    1.5800 C   0  0  0  0  0  0
    9.7520   14.5680    2.8020 C   0  0  0  0  0  0
   11.0880   14.9220    2.9230 C   0  0  0  0  0  0
   11.8230   14.9060    4.0900 O   0  0  0  0  0  0
   12.4770   13.7700    4.7690 C   0  0  0  0  0  0
   12.6860   13.8700    5.9710 O   0  0  0  0  0  0
   12.8900   12.5090    4.0560 C   0  0  0  0  0  0
   11.6043   15.7266   -0.4541 H   0  0  0  0  0  0
    9.2314   15.0193   -0.5161 H   0  0  0  0  0  0
    8.0733   14.3032    1.5175 H   0  0  0  0  0  0
    9.1954   14.2595    3.6869 H   0  0  0  0  0  0
   12.6296   12.5884    2.9902 H   0  0  0  0  0  0
   12.3658   11.6491    4.4985 H   0  0  0  0  0  0
   13.9762   12.3687    4.1586 H   0  0  0  0  0  0
  1  2  1  0  0  0
  2  3  2  0  0  0
  2  4  1  0  0  0
  4  5  2  0  0  0
  4  9  1  0  0  0
  5  6  1  0  0  0
  5 14  1  0  0  0
  6  7  2  0  0  0
  6 15  1  0  0  0
  7  8  1  0  0  0
  7 16  1  0  0  0
  8  9  2  0  0  0
  8 17  1  0  0  0
  9 10  1  0  0  0
 10 11  1  0  0  0
 11 12  2  0  0  0
 11 13  1  0  0  0
 13 18  1  0  0  0
 13 19  1  0  0  0
 13 20  1  0  0  0
M  CHG  1   1  -1
M  END
> <s_m_source_file>
../1oxr_ligand.sdf

> <i_m_source_file_index>
1

> <s_epik_input>
W09IXUMoPU8pYzFbY0hdW2NIXVtjSF1bY0hdYzFPQyg9TylbQ0gzXQ==

> <s_epik_cmdline>
J2VwaWtfYXBwJywgJy1pbWFlJywgJ2xpZ2FuZF9wcm8ubWFlJywgJy1vbWFlJywgJ2xpZ2FuZF9wcmVwLm1hZScsICctbXMnLCAnMScsICctcGgnLCAnNycsICctcGh0JywgJzAuNScsICctbnQn

> <r_lp_tautomer_probability>
1

> <r_epik_Ionization_Penalty>
  0.0002

> <r_epik_Ionization_Penalty_Charging>
  0.0002

> <r_epik_Ionization_Penalty_Neutral>
  0.0000

> <r_epik_State_Penalty>
 -0.0000

> <r_epik_Charging_Adjusted_Penalty>
0.000196158001288354

> <i_epik_Tot_Q>
-1

> <i_epik_Tot_abs_Q>
1

$$$$
