1oy7_ligand
                    3D
 Schrodinger Suite 2020-3.
 60 59  0  0  1  0            999 V2000
   22.4370   48.7420   -7.8020 N   0  3  0  0  0  0
   22.8640   48.4000   -6.4240 C   0  0  2  0  0  0
   22.2130   47.0990   -5.9830 C   0  0  0  0  0  0
   21.1540   46.7250   -6.4890 O   0  0  0  0  0  0
   22.5220   49.5310   -5.4610 C   0  0  0  0  0  0
   22.8600   46.4010   -5.0570 N   0  0  0  0  0  0
   22.3240   45.1550   -4.5120 C   0  0  2  0  0  0
   22.3740   45.1810   -3.0010 C   0  0  0  0  0  0
   23.2350   45.8280   -2.4080 O   0  0  0  0  0  0
   23.0750   43.9260   -5.0440 C   0  0  0  0  0  0
   24.5400   44.1580   -5.3730 C   0  0  0  0  0  0
   25.4520   43.0520   -4.8600 C   0  0  0  0  0  0
   25.5070   42.8320   -3.6210 O   0  5  0  0  0  0
   26.1210   42.4080   -5.7050 O   0  0  0  0  0  0
   21.4340   44.4790   -2.3840 N   0  0  0  0  0  0
   21.3520   44.3870   -0.9350 C   0  0  2  0  0  0
   22.5870   43.6920   -0.3850 C   0  0  0  0  0  0
   23.1140   42.7760   -1.0080 O   0  0  0  0  0  0
   20.0920   43.6230   -0.5230 C   0  0  0  0  0  0
   20.2400   43.0280    0.8610 C   0  0  0  0  0  0
   18.9000   44.5460   -0.5770 C   0  0  0  0  0  0
   23.0690   44.1510    0.7640 N   0  0  0  0  0  0
   24.1310   43.4350    1.4590 C   0  0  2  0  0  0
   23.4990   42.4760    2.4670 C   0  0  0  0  0  0
   22.9010   42.9250    3.4550 O   0  0  0  0  0  0
   25.2050   44.3760    2.1060 C   0  0  0  0  0  0
   24.5800   45.4350    3.0180 C   0  0  0  0  0  0
   26.2700   43.5570    2.8470 C   0  0  0  0  0  0
   23.5858   41.2310    2.2938 O   0  5  0  0  0  0
   22.6921   47.9149   -8.4808 H   0  0  0  0  0  0
   22.9525   49.6570   -8.1291 H   0  0  0  0  0  0
   21.3497   48.9078   -7.8184 H   0  0  0  0  0  0
   23.9558   48.2677   -6.4440 H   0  0  0  0  0  0
   23.0035   50.4599   -5.8006 H   0  0  0  0  0  0
   22.8843   49.2772   -4.4539 H   0  0  0  0  0  0
   21.4314   49.6721   -5.4336 H   0  0  0  0  0  0
   23.8267   46.7863   -4.7006 H   0  0  0  0  0  0
   21.2782   45.1214   -4.8515 H   0  0  0  0  0  0
   23.0454   43.1242   -4.2916 H   0  0  0  0  0  0
   22.5966   43.5768   -5.9709 H   0  0  0  0  0  0
   24.6664   44.2135   -6.4643 H   0  0  0  0  0  0
   24.8733   45.1019   -4.9168 H   0  0  0  0  0  0
   20.6983   43.9540   -3.0110 H   0  0  0  0  0  0
   21.3088   45.4224   -0.5661 H   0  0  0  0  0  0
   19.9273   42.7905   -1.2229 H   0  0  0  0  0  0
   21.1129   42.3589    0.8810 H   0  0  0  0  0  0
   19.3344   42.4569    1.1133 H   0  0  0  0  0  0
   20.3803   43.8358    1.5943 H   0  0  0  0  0  0
   18.8087   44.9681   -1.5887 H   0  0  0  0  0  0
   19.0341   45.3609    0.1496 H   0  0  0  0  0  0
   17.9881   43.9820   -0.3313 H   0  0  0  0  0  0
   22.6607   45.0790    1.1908 H   0  0  0  0  0  0
   24.6403   42.8616    0.6704 H   0  0  0  0  0  0
   25.7102   44.9346    1.3043 H   0  0  0  0  0  0
   23.8231   46.0020    2.4563 H   0  0  0  0  0  0
   25.3630   46.1210    3.3735 H   0  0  0  0  0  0
   24.1049   44.9428    3.8794 H   0  0  0  0  0  0
   26.6971   42.8077    2.1642 H   0  0  0  0  0  0
   25.8092   43.0490    3.7070 H   0  0  0  0  0  0
   27.0672   44.2271    3.2010 H   0  0  0  0  0  0
  1  2  1  0  0  0
  1 30  1  0  0  0
  1 31  1  0  0  0
  1 32  1  0  0  0
  2  3  1  0  0  0
  2  5  1  0  0  0
  2 33  1  0  0  0
  3  4  2  0  0  0
  3  6  1  0  0  0
  5 34  1  0  0  0
  5 35  1  0  0  0
  5 36  1  0  0  0
  6  7  1  0  0  0
  6 37  1  0  0  0
  7  8  1  0  0  0
  7 10  1  0  0  0
  7 38  1  0  0  0
  8  9  2  0  0  0
  8 15  1  0  0  0
 10 11  1  0  0  0
 10 39  1  0  0  0
 10 40  1  0  0  0
 11 12  1  0  0  0
 11 41  1  0  0  0
 11 42  1  0  0  0
 12 13  1  0  0  0
 12 14  2  0  0  0
 15 16  1  0  0  0
 15 43  1  0  0  0
 16 17  1  0  0  0
 16 19  1  0  0  0
 16 44  1  0  0  0
 17 18  2  0  0  0
 17 22  1  0  0  0
 19 20  1  0  0  0
 19 21  1  0  0  0
 19 45  1  0  0  0
 20 46  1  0  0  0
 20 47  1  0  0  0
 20 48  1  0  0  0
 21 49  1  0  0  0
 21 50  1  0  0  0
 21 51  1  0  0  0
 22 23  1  0  0  0
 22 52  1  0  0  0
 23 24  1  0  0  0
 23 26  1  0  0  0
 23 53  1  0  0  0
 24 25  2  0  0  0
 24 29  1  0  0  0
 26 27  1  0  0  0
 26 28  1  0  0  0
 26 54  1  0  0  0
 27 55  1  0  0  0
 27 56  1  0  0  0
 27 57  1  0  0  0
 28 58  1  0  0  0
 28 59  1  0  0  0
 28 60  1  0  0  0
M  CHG  3   1   1  13  -1  29  -1
M  END
> <s_m_source_file>
../1oy7_ligand.sdf

> <i_m_source_file_index>
1

> <s_epik_input>
W05IMytdW0NAQEhdKFtDSDNdKUMoPU8pW05IXVtDQEBIXShbQ0gyXVtDSDJdQyg9TylbT0hdKUMoPU8pW05IXVtDQEBIXShbQ0hdKFtDSDNdKVtDSDNdKUMoPU8pW05IXVtDQEhdKEMoPU8pW09IXSlbQ0hdKFtDSDNdKVtDSDNd

> <s_epik_cmdline>
J2VwaWtfYXBwJywgJy1pbWFlJywgJ2xpZ2FuZF9wcm8ubWFlJywgJy1vbWFlJywgJ2xpZ2FuZF9wcmVwLm1hZScsICctbXMnLCAnMScsICctcGgnLCAnNycsICctcGh0JywgJzAuNScsICctbnQn

> <r_epik_Ionization_Penalty>
  0.1200

> <r_epik_Ionization_Penalty_Charging>
  0.1200

> <r_epik_Ionization_Penalty_Neutral>
  0.0000

> <r_epik_State_Penalty>
  0.1077

> <r_epik_Charging_Adjusted_Penalty>
0.227621032620591

> <i_epik_Tot_Q>
-1

> <i_epik_Tot_abs_Q>
3

$$$$
