1oyn_ligand
                    3D
 Schrodinger Suite 2020-3.
 41 43  0  0  1  0            999 V2000
   21.2540   -3.2740   30.4680 C   0  0  0  0  0  0
   21.7400   -4.4480   31.0430 C   0  0  0  0  0  0
   22.0940   -4.4810   32.3930 C   0  0  0  0  0  0
   21.9610   -3.3420   33.1720 C   0  0  0  0  0  0
   21.4790   -2.1700   32.6060 C   0  0  0  0  0  0
   21.1300   -2.1420   31.2610 C   0  0  0  0  0  0
   20.8630   -3.2240   29.0110 C   0  0  2  0  0  0
   19.4400   -3.7790   28.8390 C   0  0  0  0  0  0
   19.4880   -5.0470   28.0610 C   0  0  0  0  0  0
   18.5410   -5.7940   27.8120 O   0  0  0  0  0  0
   20.7510   -5.2210   27.7150 N   0  0  0  0  0  0
   21.7150   -4.2220   28.1770 C   0  0  0  0  0  0
   22.5960   -5.6250   32.9860 O   0  0  0  0  0  0
   22.1190   -6.8220   32.3590 C   0  0  0  0  0  0
   21.2430   -7.5860   33.3500 C   0  0  0  0  0  0
   21.9100   -8.8930   33.7440 C   0  0  0  0  0  0
   23.2260   -8.9740   32.9780 C   0  0  0  0  0  0
   23.3160   -7.7340   32.1060 C   0  0  0  0  0  0
   22.2940   -3.3960   34.5130 O   0  0  0  0  0  0
   23.1470   -2.3210   34.8730 C   0  0  0  0  0  0
   21.8442   -5.3460   30.4341 H   0  0  0  0  0  0
   21.3743   -1.2725   33.2156 H   0  0  0  0  0  0
   20.7535   -1.2177   30.8228 H   0  0  0  0  0  0
   20.9812   -2.1712   28.7148 H   0  0  0  0  0  0
   19.0005   -3.9741   29.8283 H   0  0  0  0  0  0
   18.8223   -3.0442   28.3018 H   0  0  0  0  0  0
   21.0900   -6.0721   27.1061 H   0  0  0  0  0  0
   22.1892   -3.6888   27.3398 H   0  0  0  0  0  0
   22.4924   -4.6646   28.8172 H   0  0  0  0  0  0
   21.5877   -6.5031   31.4502 H   0  0  0  0  0  0
   21.0903   -6.9745   34.2516 H   0  0  0  0  0  0
   20.2698   -7.8048   32.8863 H   0  0  0  0  0  0
   22.0919   -8.8994   34.8288 H   0  0  0  0  0  0
   21.2538   -9.7346   33.4773 H   0  0  0  0  0  0
   24.0635   -9.0073   33.6904 H   0  0  0  0  0  0
   23.2347   -9.8834   32.3591 H   0  0  0  0  0  0
   23.3283   -8.0380   31.0489 H   0  0  0  0  0  0
   24.2447   -7.1944   32.3432 H   0  0  0  0  0  0
   23.3937   -2.3911   35.9427 H   0  0  0  0  0  0
   22.6370   -1.3665   34.6761 H   0  0  0  0  0  0
   24.0716   -2.3720   34.2793 H   0  0  0  0  0  0
  1  2  2  0  0  0
  1  6  1  0  0  0
  1  7  1  0  0  0
  2  3  1  0  0  0
  2 21  1  0  0  0
  3  4  2  0  0  0
  3 13  1  0  0  0
  4  5  1  0  0  0
  4 19  1  0  0  0
  5  6  2  0  0  0
  5 22  1  0  0  0
  6 23  1  0  0  0
  7  8  1  0  0  0
  7 12  1  0  0  0
  7 24  1  0  0  0
  8  9  1  0  0  0
  8 25  1  0  0  0
  8 26  1  0  0  0
  9 10  2  0  0  0
  9 11  1  0  0  0
 11 12  1  0  0  0
 11 27  1  0  0  0
 12 28  1  0  0  0
 12 29  1  0  0  0
 13 14  1  0  0  0
 14 15  1  0  0  0
 14 18  1  0  0  0
 14 30  1  0  0  0
 15 16  1  0  0  0
 15 31  1  0  0  0
 15 32  1  0  0  0
 16 17  1  0  0  0
 16 33  1  0  0  0
 16 34  1  0  0  0
 17 18  1  0  0  0
 17 35  1  0  0  0
 17 36  1  0  0  0
 18 37  1  0  0  0
 18 38  1  0  0  0
 19 20  1  0  0  0
 20 39  1  0  0  0
 20 40  1  0  0  0
 20 41  1  0  0  0
M  END
> <s_m_source_file>
../1oyn_ligand.sdf

> <i_m_source_file_index>
1

> <s_epik_input>
W0NIMl0xW05IXUMoPU8pW0NIMl1bQ0BIXTFjMltjSF1jKGMoW2NIXVtjSF0yKU9bQ0gzXSlPW0NIXTNbQ0gyXVtDSDJdW0NIMl1bQ0gyXTM=

> <s_epik_cmdline>
J2VwaWtfYXBwJywgJy1pbWFlJywgJ2xpZ2FuZF9wcm8ubWFlJywgJy1vbWFlJywgJ2xpZ2FuZF9wcmVwLm1hZScsICctbXMnLCAnMScsICctcGgnLCAnNycsICctcGh0JywgJzAuNScsICctbnQn

> <r_lp_tautomer_probability>
1

> <r_epik_Ionization_Penalty>
  0.0000

> <r_epik_Ionization_Penalty_Charging>
  0.0000

> <r_epik_Ionization_Penalty_Neutral>
  0.0000

> <r_epik_State_Penalty>
 -0.0000

> <r_epik_Charging_Adjusted_Penalty>
0

> <i_epik_Tot_Q>
0

> <i_epik_Tot_abs_Q>
0

$$$$
