1oyq_ligand
                    3D
 Schrodinger Suite 2020-3.
 71 75  0  0  1  0            999 V2000
   -5.0190   10.1310   19.8050 N   0  0  0  0  0  0
   -3.1090   10.8320   19.0180 N   0  3  0  0  0  0
   -3.7590    9.8110   19.5430 C   0  0  0  0  0  0
   -3.1990    8.5470   19.7670 C   0  0  0  0  0  0
   -3.9600    7.4910   20.3590 C   0  0  0  0  0  0
   -3.4050    6.2260   20.5810 C   0  0  0  0  0  0
   -2.0670    5.9600   20.2190 C   0  0  0  0  0  0
   -1.2860    6.9720   19.6350 C   0  0  0  0  0  0
   -1.8370    8.2440   19.4110 C   0  0  0  0  0  0
   -1.4620    4.6710   20.4280 N   0  0  0  0  0  0
   -1.9140    3.5810   21.3250 C   0  0  0  0  0  0
   -3.3210    4.2790   23.2760 N   0  0  0  0  0  0
   -2.0490    3.9470   22.8090 C   0  0  0  0  0  0
   -0.9360    3.9540   23.6790 N   0  0  0  0  0  0
   -1.6050    4.3430   24.8400 C   0  0  0  0  0  0
   -3.0180    4.5350   24.5940 C   0  0  0  0  0  0
   -1.0780    4.5600   26.1550 C   0  0  0  0  0  0
   -1.9480    4.9610   27.1810 C   0  0  0  0  0  0
   -3.3470    5.1540   26.9540 C   0  0  0  0  0  0
   -3.8870    4.9410   25.6560 C   0  0  0  0  0  0
    0.5100    3.6470   23.4490 C   0  0  0  0  0  0
   -5.7810    5.6030   28.0770 C   0  0  0  0  0  0
   -5.0300    6.9050   27.7080 C   0  0  0  0  0  0
   -4.2700    5.6670   28.1120 C   0  0  0  0  0  0
   -3.6240    5.2410   29.4620 C   0  0  0  0  0  0
   -3.7730    4.0090   29.8970 N   0  0  0  0  0  0
   -2.8060    6.2900   31.6930 N   0  0  0  0  0  0
   -2.7890    6.2830   30.2730 C   0  0  0  0  0  0
   -2.0000    7.2410   29.5940 C   0  0  0  0  0  0
   -1.2420    8.1850   30.3270 C   0  0  0  0  0  0
   -1.2610    8.1900   31.7450 C   0  0  0  0  0  0
   -2.0430    7.2420   32.4320 C   0  0  0  0  0  0
   -4.5710    3.0370   29.1000 O   0  0  0  0  0  0
   -4.6000    1.7620   29.7460 C   0  0  0  0  0  0
   -5.3700    0.7670   28.8600 C   0  0  0  0  0  0
   -6.0520   -0.1190   29.3960 O   0  0  0  0  0  0
   -5.2870    0.8810   27.4870 O   0  0  0  0  0  0
   -6.2810    0.2790   25.3430 C   0  0  0  0  0  0
   -6.0670   -0.1290   26.8150 C   0  0  0  0  0  0
   -5.3821   11.1488   19.5996 H   0  0  0  0  0  0
   -5.7011    9.3786   20.2277 H   0  0  0  0  0  0
   -3.6212   11.7948   18.8741 H   0  0  0  0  0  0
   -4.9958    7.6757   20.6437 H   0  0  0  0  0  0
   -4.0094    5.4414   21.0361 H   0  0  0  0  0  0
   -0.2520    6.7694   19.3558 H   0  0  0  0  0  0
   -1.2198    9.0195   18.9574 H   0  0  0  0  0  0
   -0.5562    4.5410   19.8176 H   0  0  0  0  0  0
   -2.9060    3.2301   21.0045 H   0  0  0  0  0  0
   -1.1977    2.7474   21.2790 H   0  0  0  0  0  0
   -0.0164    4.4157   26.3556 H   0  0  0  0  0  0
   -1.5457    5.1302   28.1798 H   0  0  0  0  0  0
   -4.9516    5.0854   25.4718 H   0  0  0  0  0  0
    0.6635    3.3732   22.3947 H   0  0  0  0  0  0
    0.8139    2.8090   24.0935 H   0  0  0  0  0  0
    1.1157    4.5331   23.6897 H   0  0  0  0  0  0
   -6.4429    5.7921   28.9350 H   0  0  0  0  0  0
   -6.3810    5.2696   27.2175 H   0  0  0  0  0  0
   -5.2742    7.1885   26.6736 H   0  0  0  0  0  0
   -5.3361    7.7110   28.3911 H   0  0  0  0  0  0
   -1.9758    7.2521   28.5043 H   0  0  0  0  0  0
   -0.6356    8.9178   29.7946 H   0  0  0  0  0  0
   -0.6743    8.9227   32.2991 H   0  0  0  0  0  0
   -2.0652    7.2356   33.5218 H   0  0  0  0  0  0
   -3.5709    1.4040   29.8969 H   0  0  0  0  0  0
   -5.1021    1.8559   30.7202 H   0  0  0  0  0  0
   -6.8760   -0.4920   24.8316 H   0  0  0  0  0  0
   -5.3054    0.3797   24.8449 H   0  0  0  0  0  0
   -6.8142    1.2403   25.3028 H   0  0  0  0  0  0
   -5.5341   -1.0905   26.8546 H   0  0  0  0  0  0
   -7.0429   -0.2300   27.3125 H   0  0  0  0  0  0
   -2.0549   10.7205   18.7242 H   0  0  0  0  0  0
  1  3  1  0  0  0
  1 40  1  0  0  0
  1 41  1  0  0  0
  2  3  2  0  0  0
  2 42  1  0  0  0
  2 71  1  0  0  0
  3  4  1  0  0  0
  4  5  2  0  0  0
  4  9  1  0  0  0
  5  6  1  0  0  0
  5 43  1  0  0  0
  6  7  2  0  0  0
  6 44  1  0  0  0
  7  8  1  0  0  0
  7 10  1  0  0  0
  8  9  2  0  0  0
  8 45  1  0  0  0
  9 46  1  0  0  0
 10 11  1  0  0  0
 10 47  1  0  0  0
 11 13  1  0  0  0
 11 48  1  0  0  0
 11 49  1  0  0  0
 12 16  1  0  0  0
 12 13  2  0  0  0
 13 14  1  0  0  0
 14 15  1  0  0  0
 14 21  1  0  0  0
 15 16  2  0  0  0
 15 17  1  0  0  0
 16 20  1  0  0  0
 17 18  2  0  0  0
 17 50  1  0  0  0
 18 19  1  0  0  0
 18 51  1  0  0  0
 19 20  2  0  0  0
 19 24  1  0  0  0
 20 52  1  0  0  0
 21 53  1  0  0  0
 21 54  1  0  0  0
 21 55  1  0  0  0
 22 23  1  0  0  0
 22 24  1  0  0  0
 22 56  1  0  0  0
 22 57  1  0  0  0
 23 24  1  0  0  0
 23 58  1  0  0  0
 23 59  1  0  0  0
 24 25  1  0  0  0
 25 26  2  0  0  0
 25 28  1  0  0  0
 26 33  1  0  0  0
 27 32  2  0  0  0
 27 28  1  0  0  0
 28 29  2  0  0  0
 29 30  1  0  0  0
 29 60  1  0  0  0
 30 31  2  0  0  0
 30 61  1  0  0  0
 31 32  1  0  0  0
 31 62  1  0  0  0
 32 63  1  0  0  0
 33 34  1  0  0  0
 34 35  1  0  0  0
 34 64  1  0  0  0
 34 65  1  0  0  0
 35 36  2  0  0  0
 35 37  1  0  0  0
 37 39  1  0  0  0
 38 39  1  0  0  0
 38 66  1  0  0  0
 38 67  1  0  0  0
 38 68  1  0  0  0
 39 69  1  0  0  0
 39 70  1  0  0  0
M  CHG  1   2   1
M  END
> <s_m_source_file>
../1oyq_ligand.sdf

> <i_m_source_file_index>
1

> <s_epik_input>
W0hdL049QygvW05IMl0pYzFbY0hdW2NIXWMoW2NIXVtjSF0xKVtOSF1bQ0gyXWMobjJbQ0gzXSluYyhjMjMpW2NIXWMoW2NIXVtjSF0zKUM0KFtDSDJdW0NIMl00KS9DKGM1bltjSF1bY0hdW2NIXVtjSF01KT1OXE9bQ0gyXUMoPU8pT1tDSDJdW0NIM10=

> <s_epik_cmdline>
J2VwaWtfYXBwJywgJy1pbWFlJywgJ2xpZ2FuZF9wcm8ubWFlJywgJy1vbWFlJywgJ2xpZ2FuZF9wcmVwLm1hZScsICctbXMnLCAnMScsICctcGgnLCAnNycsICctcGh0JywgJzAuNScsICctbnQn

> <r_epik_Ionization_Penalty>
  0.3880

> <r_epik_Ionization_Penalty_Charging>
  0.0003

> <r_epik_Ionization_Penalty_Neutral>
  0.3877

> <r_epik_State_Penalty>
  0.3759

> <r_epik_Charging_Adjusted_Penalty>
0.376251928829234

> <i_epik_Tot_Q>
1

> <i_epik_Tot_abs_Q>
1

> <s_epik_Chemistry_Notes>
This compound has an ester and may undergo hydrolysis at high or low pH. This compound has an imine and may undergo hydrolysis.

$$$$
