1ozv_ligand
                    3D
 Schrodinger Suite 2020-3.
 25 24  0  0  1  0            999 V2000
   69.6190  132.8230   63.0910 N   0  3  0  0  0  0
   69.7540  134.3000   62.9370 C   0  0  2  0  0  0
   69.1730  134.9860   64.1640 C   0  0  0  0  0  0
   68.9500  134.2750   65.1680 O   0  0  0  0  0  0
   69.0090  134.7830   61.6890 C   0  0  0  0  0  0
   69.3610  134.0410   60.4170 C   0  0  0  0  0  0
   68.6450  134.6420   59.2240 C   0  0  0  0  0  0
   68.8410  133.7990   57.9700 C   0  0  0  0  0  0
   68.3170  134.4910   56.7520 N   0  3  0  0  0  0
   68.9470  136.2170   64.1020 O   0  5  0  0  0  0
   70.1602  132.4973   63.9915 H   0  0  0  0  0  0
   70.0420  132.3221   62.2077 H   0  0  0  0  0  0
   68.5552  132.5601   63.1873 H   0  0  0  0  0  0
   70.8261  134.5260   62.8394 H   0  0  0  0  0  0
   67.9260  134.6622   61.8388 H   0  0  0  0  0  0
   69.2387  135.8442   61.5126 H   0  0  0  0  0  0
   70.4458  134.1016   60.2454 H   0  0  0  0  0  0
   69.0634  132.9864   60.5133 H   0  0  0  0  0  0
   67.5674  134.7039   59.4361 H   0  0  0  0  0  0
   69.0390  135.6505   59.0298 H   0  0  0  0  0  0
   69.9136  133.6039   57.8233 H   0  0  0  0  0  0
   68.3067  132.8441   58.0829 H   0  0  0  0  0  0
   68.4764  133.8526   55.8705 H   0  0  0  0  0  0
   68.8480  135.4445   56.6151 H   0  0  0  0  0  0
   67.2412  134.6847   56.8747 H   0  0  0  0  0  0
  1  2  1  0  0  0
  1 11  1  0  0  0
  1 12  1  0  0  0
  1 13  1  0  0  0
  2  3  1  0  0  0
  2  5  1  0  0  0
  2 14  1  0  0  0
  3  4  2  0  0  0
  3 10  1  0  0  0
  5  6  1  0  0  0
  5 15  1  0  0  0
  5 16  1  0  0  0
  6  7  1  0  0  0
  6 17  1  0  0  0
  6 18  1  0  0  0
  7  8  1  0  0  0
  7 19  1  0  0  0
  7 20  1  0  0  0
  8  9  1  0  0  0
  8 21  1  0  0  0
  8 22  1  0  0  0
  9 23  1  0  0  0
  9 24  1  0  0  0
  9 25  1  0  0  0
M  CHG  3   1   1   9   1  10  -1
M  END
> <s_m_source_file>
../1ozv_ligand.sdf

> <i_m_source_file_index>
1

> <s_epik_input>
Tz1DKFtPSF0pW0NAQEhdKFtOSDMrXSlbQ0gyXVtDSDJdW0NIMl1bQ0gyXVtOSDMrXQ==

> <s_epik_cmdline>
J2VwaWtfYXBwJywgJy1pbWFlJywgJ2xpZ2FuZF9wcm8ubWFlJywgJy1vbWFlJywgJ2xpZ2FuZF9wcmVwLm1hZScsICctbXMnLCAnMScsICctcGgnLCAnNycsICctcGh0JywgJzAuNScsICctbnQn

> <r_lp_tautomer_probability>
1

> <r_epik_Ionization_Penalty>
  0.0018

> <r_epik_Ionization_Penalty_Charging>
  0.0018

> <r_epik_Ionization_Penalty_Neutral>
  0.0000

> <r_epik_State_Penalty>
 -0.0000

> <r_epik_Charging_Adjusted_Penalty>
0.00179235442229703

> <i_epik_Tot_Q>
1

> <i_epik_Tot_abs_Q>
3

$$$$
