1p01_ligand
                    3D
 Schrodinger Suite 2020-3.
 59 59  0  0  1  0            999 V2000
   13.1720   39.3550   19.4720 O   0  0  0  0  0  0
   13.6320   39.4020   18.3460 C   0  0  0  0  0  0
   14.5250   40.4990   17.8750 O   0  0  0  0  0  0
   15.0140   41.4770   18.8990 C   0  0  0  0  0  0
   15.7880   40.6710   19.9350 C   0  0  0  0  0  0
   15.9310   42.4590   18.1580 C   0  0  0  0  0  0
   13.7970   42.1990   19.4380 C   0  0  0  0  0  0
   13.5280   38.3860   17.4830 N   0  0  0  0  0  0
   12.7720   37.2260   17.9180 C   0  0  2  0  0  0
   13.5690   36.0430   17.4680 C   0  0  0  0  0  0
   14.4720   36.2820   16.6650 O   0  0  0  0  0  0
   11.7340   36.9670   16.9100 C   0  0  0  0  0  0
   13.3800   34.8800   18.0750 N   0  0  0  0  0  0
   14.1290   33.6690   17.7300 C   0  0  2  0  0  0
   13.7980   33.2290   16.3080 C   0  0  0  0  0  0
   12.6410   33.4520   15.8930 O   0  0  0  0  0  0
   13.6850   32.6390   18.7570 C   0  0  0  0  0  0
   12.7960   33.3460   19.7220 C   0  0  0  0  0  0
   12.3030   34.6260   19.0520 C   0  0  0  0  0  0
   14.7500   32.6680   15.5680 N   0  0  0  0  0  0
   14.5240   32.1810   14.1950 C   0  0  1  0  0  0
   15.3400   32.9840   13.1360 C   0  0  0  0  0  0
   14.8440   34.4260   12.8980 C   0  0  0  0  0  0
   16.8340   33.0210   13.4810 C   0  0  0  0  0  0
   14.7560   30.6430   14.1350 B   0  0  0  0  0  0
   14.8520   30.0920   12.7150 O   0  0  0  0  0  0
   13.8680   29.7940   14.9910 O   0  0  0  0  0  0
   16.6493   40.1853   19.4530 H   0  0  0  0  0  0
   15.1300   39.9038   20.3690 H   0  0  0  0  0  0
   16.1435   41.3421   20.7308 H   0  0  0  0  0  0
   16.8095   41.9207   17.7727 H   0  0  0  0  0  0
   16.2591   43.2481   18.8506 H   0  0  0  0  0  0
   15.3817   42.9121   17.3196 H   0  0  0  0  0  0
   13.1499   41.4831   19.9659 H   0  0  0  0  0  0
   13.2398   42.6512   18.6043 H   0  0  0  0  0  0
   14.1172   42.9872   20.1353 H   0  0  0  0  0  0
   13.9844   38.4014   16.4823 H   0  0  0  0  0  0
   12.4862   37.3825   18.9686 H   0  0  0  0  0  0
   10.9446   37.7286   16.9925 H   0  0  0  0  0  0
   11.3006   35.9700   17.0778 H   0  0  0  0  0  0
   12.1800   37.0085   15.9054 H   0  0  0  0  0  0
   15.2129   33.8532   17.7656 H   0  0  0  0  0  0
   13.1431   31.8266   18.2508 H   0  0  0  0  0  0
   14.5674   32.2278   19.2691 H   0  0  0  0  0  0
   11.9451   32.6980   19.9791 H   0  0  0  0  0  0
   13.3623   33.5866   20.6338 H   0  0  0  0  0  0
   12.2271   35.4779   19.7438 H   0  0  0  0  0  0
   11.3483   34.4991   18.5206 H   0  0  0  0  0  0
   15.7451   32.5754   16.0276 H   0  0  0  0  0  0
   13.4644   32.3873   13.9837 H   0  0  0  0  0  0
   15.1928   32.4372   12.1929 H   0  0  0  0  0  0
   13.7725   34.4089   12.6498 H   0  0  0  0  0  0
   15.4061   34.8744   12.0656 H   0  0  0  0  0  0
   14.9999   35.0224   13.8091 H   0  0  0  0  0  0
   17.1962   31.9966   13.6524 H   0  0  0  0  0  0
   16.9855   33.6205   14.3908 H   0  0  0  0  0  0
   17.3917   33.4725   12.6473 H   0  0  0  0  0  0
   15.4698   30.6081   11.9654 H   0  0  0  0  0  0
   13.6986   30.0629   16.0441 H   0  0  0  0  0  0
  1  2  2  0  0  0
  2  3  1  0  0  0
  2  8  1  0  0  0
  3  4  1  0  0  0
  4  5  1  0  0  0
  4  6  1  0  0  0
  4  7  1  0  0  0
  5 28  1  0  0  0
  5 29  1  0  0  0
  5 30  1  0  0  0
  6 31  1  0  0  0
  6 32  1  0  0  0
  6 33  1  0  0  0
  7 34  1  0  0  0
  7 35  1  0  0  0
  7 36  1  0  0  0
  8  9  1  0  0  0
  8 37  1  0  0  0
  9 10  1  0  0  0
  9 12  1  0  0  0
  9 38  1  0  0  0
 10 11  2  0  0  0
 10 13  1  0  0  0
 12 39  1  0  0  0
 12 40  1  0  0  0
 12 41  1  0  0  0
 13 14  1  0  0  0
 13 19  1  0  0  0
 14 15  1  0  0  0
 14 17  1  0  0  0
 14 42  1  0  0  0
 15 16  2  0  0  0
 15 20  1  0  0  0
 17 18  1  0  0  0
 17 43  1  0  0  0
 17 44  1  0  0  0
 18 19  1  0  0  0
 18 45  1  0  0  0
 18 46  1  0  0  0
 19 47  1  0  0  0
 19 48  1  0  0  0
 20 21  1  0  0  0
 20 49  1  0  0  0
 21 22  1  0  0  0
 21 25  1  0  0  0
 21 50  1  0  0  0
 22 23  1  0  0  0
 22 24  1  0  0  0
 22 51  1  0  0  0
 23 52  1  0  0  0
 23 53  1  0  0  0
 23 54  1  0  0  0
 24 55  1  0  0  0
 24 56  1  0  0  0
 24 57  1  0  0  0
 25 26  1  0  0  0
 25 27  1  0  0  0
 26 58  1  0  0  0
 27 59  1  0  0  0
M  END
> <s_m_source_file>
../1p01_ligand.sdf

> <i_m_source_file_index>
1

> <s_epik_input>
W0NIM11DKFtDSDNdKShbQ0gzXSlPQyg9TylbTkhdW0NAQEhdKFtDSDNdKUMoPU8pTjFbQ0BASF0oW0NIMl1bQ0gyXVtDSDJdMSlDKD1PKVtOSF1bQ0BASF0oW0NIXShbQ0gzXSlbQ0gzXSlCKFtPSF0pW09IXQ==

> <s_epik_cmdline>
J2VwaWtfYXBwJywgJy1pbWFlJywgJ2xpZ2FuZF9wcm8ubWFlJywgJy1vbWFlJywgJ2xpZ2FuZF9wcmVwLm1hZScsICctbXMnLCAnMScsICctcGgnLCAnNycsICctcGh0JywgJzAuNScsICctbnQn

> <r_lp_tautomer_probability>
1

> <r_epik_Ionization_Penalty>
  0.0000

> <r_epik_Ionization_Penalty_Charging>
  0.0000

> <r_epik_Ionization_Penalty_Neutral>
  0.0000

> <r_epik_State_Penalty>
 -0.0000

> <r_epik_Charging_Adjusted_Penalty>
0

> <i_epik_Tot_Q>
0

> <i_epik_Tot_abs_Q>
0

> <s_epik_Chemistry_Notes>
This compound has an ester and may undergo hydrolysis at high or low pH. This compound contains a Lewis acid (boronic acid) which adds nucleophiles to form tetrahedral complexes, lowering the experimental pKa

$$$$
