1p02_ligand
                    3D
 Schrodinger Suite 2020-3.
 49 49  0  0  1  0            999 V2000
   13.4240   41.8680   18.7130 N   0  3  0  0  0  0
   14.0990   40.6170   18.3140 C   0  0  2  0  0  0
   13.2630   39.3680   18.5380 C   0  0  0  0  0  0
   12.5030   39.3170   19.5460 O   0  0  0  0  0  0
   15.3390   40.3300   19.1530 C   0  0  0  0  0  0
   13.4470   38.4380   17.6250 N   0  0  0  0  0  0
   12.6660   37.1760   17.7920 C   0  0  2  0  0  0
   13.6380   36.0520   17.4510 C   0  0  0  0  0  0
   14.5820   36.3620   16.7270 O   0  0  0  0  0  0
   11.4360   37.1970   16.9160 C   0  0  0  0  0  0
   13.4070   34.8820   18.0230 N   0  0  0  0  0  0
   14.2390   33.7100   17.7510 C   0  0  2  0  0  0
   14.0090   33.3250   16.2930 C   0  0  0  0  0  0
   12.8900   33.5880   15.8000 O   0  0  0  0  0  0
   13.7090   32.6390   18.6870 C   0  0  0  0  0  0
   12.8570   33.3650   19.7040 C   0  0  0  0  0  0
   12.2720   34.5680   18.9120 C   0  0  0  0  0  0
   15.0070   32.7620   15.6330 N   0  0  0  0  0  0
   14.8230   32.3550   14.2160 C   0  0  1  0  0  0
   15.8290   33.0630   13.3250 C   0  0  0  0  0  0
   14.8010   30.8470   14.0100 B   0  0  0  0  0  0
   14.8930   30.2570   12.6460 O   0  0  0  0  0  0
   14.0020   30.0750   14.9720 O   0  0  0  0  0  0
   12.5397   42.0260   18.0782 H   0  0  0  0  0  0
   14.1175   42.7133   18.5927 H   0  0  0  0  0  0
   13.1119   41.7967   19.7654 H   0  0  0  0  0  0
   14.2959   40.8241   17.2518 H   0  0  0  0  0  0
   16.0384   41.1754   19.0748 H   0  0  0  0  0  0
   15.8269   39.4153   18.7852 H   0  0  0  0  0  0
   15.0465   40.1922   20.2044 H   0  0  0  0  0  0
   14.1320   38.5521   16.7719 H   0  0  0  0  0  0
   12.2794   37.0585   18.8151 H   0  0  0  0  0  0
   10.7844   38.0299   17.2188 H   0  0  0  0  0  0
   10.8918   36.2473   17.0253 H   0  0  0  0  0  0
   11.7359   37.3290   15.8659 H   0  0  0  0  0  0
   15.3092   33.9009   17.9191 H   0  0  0  0  0  0
   13.1140   31.9128   18.1137 H   0  0  0  0  0  0
   14.5525   32.1229   19.1688 H   0  0  0  0  0  0
   12.0711   32.6896   20.0730 H   0  0  0  0  0  0
   13.4868   33.6891   20.5456 H   0  0  0  0  0  0
   12.0445   35.4427   19.5390 H   0  0  0  0  0  0
   11.3907   34.3126   18.3053 H   0  0  0  0  0  0
   15.9728   32.5949   16.1323 H   0  0  0  0  0  0
   13.8139   32.6945   13.9395 H   0  0  0  0  0  0
   15.7955   34.1448   13.5217 H   0  0  0  0  0  0
   15.5811   32.8743   12.2701 H   0  0  0  0  0  0
   16.8389   32.6827   13.5380 H   0  0  0  0  0  0
   15.4715   30.7692   11.8631 H   0  0  0  0  0  0
   13.8812   30.4381   16.0033 H   0  0  0  0  0  0
  1  2  1  0  0  0
  1 24  1  0  0  0
  1 25  1  0  0  0
  1 26  1  0  0  0
  2  3  1  0  0  0
  2  5  1  0  0  0
  2 27  1  0  0  0
  3  4  2  0  0  0
  3  6  1  0  0  0
  5 28  1  0  0  0
  5 29  1  0  0  0
  5 30  1  0  0  0
  6  7  1  0  0  0
  6 31  1  0  0  0
  7  8  1  0  0  0
  7 10  1  0  0  0
  7 32  1  0  0  0
  8  9  2  0  0  0
  8 11  1  0  0  0
 10 33  1  0  0  0
 10 34  1  0  0  0
 10 35  1  0  0  0
 11 12  1  0  0  0
 11 17  1  0  0  0
 12 13  1  0  0  0
 12 15  1  0  0  0
 12 36  1  0  0  0
 13 14  2  0  0  0
 13 18  1  0  0  0
 15 16  1  0  0  0
 15 37  1  0  0  0
 15 38  1  0  0  0
 16 17  1  0  0  0
 16 39  1  0  0  0
 16 40  1  0  0  0
 17 41  1  0  0  0
 17 42  1  0  0  0
 18 19  1  0  0  0
 18 43  1  0  0  0
 19 20  1  0  0  0
 19 21  1  0  0  0
 19 44  1  0  0  0
 20 45  1  0  0  0
 20 46  1  0  0  0
 20 47  1  0  0  0
 21 22  1  0  0  0
 21 23  1  0  0  0
 22 48  1  0  0  0
 23 49  1  0  0  0
M  CHG  1   1   1
M  END
> <s_m_source_file>
../1p02_ligand.sdf

> <i_m_source_file_index>
1

> <s_epik_input>
W05IMytdW0NAQEhdKFtDSDNdKUMoPU8pW05IXVtDQEBIXShbQ0gzXSlDKD1PKU4xW0NAQEhdKFtDSDJdW0NIMl1bQ0gyXTEpQyg9TylbTkhdW0NAQEhdKFtDSDNdKUIoW09IXSlbT0hd

> <s_epik_cmdline>
J2VwaWtfYXBwJywgJy1pbWFlJywgJ2xpZ2FuZF9wcm8ubWFlJywgJy1vbWFlJywgJ2xpZ2FuZF9wcmVwLm1hZScsICctbXMnLCAnMScsICctcGgnLCAnNycsICctcGh0JywgJzAuNScsICctbnQn

> <r_epik_Ionization_Penalty>
  0.1233

> <r_epik_Ionization_Penalty_Charging>
  0.1233

> <r_epik_Ionization_Penalty_Neutral>
  0.0000

> <r_epik_State_Penalty>
  0.1128

> <r_epik_Charging_Adjusted_Penalty>
0.236084207461101

> <i_epik_Tot_Q>
1

> <i_epik_Tot_abs_Q>
1

> <s_epik_Chemistry_Notes>
This compound contains a Lewis acid (boronic acid) which adds nucleophiles to form tetrahedral complexes, lowering the experimental pKa

$$$$
