1p03_ligand
                    3D
 Schrodinger Suite 2020-3.
 55 55  0  0  1  0            999 V2000
   13.2500   41.8640   18.7900 N   0  3  0  0  0  0
   14.0100   40.6380   18.4550 C   0  0  2  0  0  0
   13.1910   39.3690   18.6230 C   0  0  0  0  0  0
   12.3730   39.2650   19.5680 O   0  0  0  0  0  0
   15.2950   40.4300   19.2310 C   0  0  0  0  0  0
   13.4500   38.4300   17.7200 N   0  0  0  0  0  0
   12.7040   37.1450   17.8370 C   0  0  2  0  0  0
   13.6730   36.0320   17.4580 C   0  0  0  0  0  0
   14.5780   36.3450   16.6840 O   0  0  0  0  0  0
   11.4920   37.1340   16.9330 C   0  0  0  0  0  0
   13.4460   34.8540   18.0230 N   0  0  0  0  0  0
   14.2440   33.6670   17.6930 C   0  0  2  0  0  0
   13.8720   33.2060   16.2860 C   0  0  0  0  0  0
   12.6740   33.3740   15.9120 O   0  0  0  0  0  0
   13.6840   32.5920   18.6200 C   0  0  0  0  0  0
   12.7190   33.2380   19.5430 C   0  0  0  0  0  0
   12.3070   34.5500   18.9160 C   0  0  0  0  0  0
   14.8290   32.6550   15.5400 N   0  0  0  0  0  0
   14.5660   32.1940   14.1590 C   0  0  1  0  0  0
   15.3940   33.0160   13.1180 C   0  0  0  0  0  0
   14.8580   34.4260   12.8740 C   0  0  0  0  0  0
   16.9010   33.0550   13.4360 C   0  0  0  0  0  0
   14.6810   30.6750   14.0140 B   0  0  0  0  0  0
   14.8610   30.0850   12.6310 O   0  0  0  0  0  0
   13.9350   29.8410   15.0070 O   0  0  0  0  0  0
   12.3419   41.9130   18.1711 H   0  0  0  0  0  0
   13.8751   42.7478   18.5946 H   0  0  0  0  0  0
   12.9684   41.8418   19.8531 H   0  0  0  0  0  0
   14.2520   40.8446   17.4020 H   0  0  0  0  0  0
   15.9269   41.3258   19.1407 H   0  0  0  0  0  0
   15.8319   39.5601   18.8248 H   0  0  0  0  0  0
   15.0588   40.2531   20.2907 H   0  0  0  0  0  0
   14.1803   38.5701   16.9095 H   0  0  0  0  0  0
   12.3342   37.0266   18.8662 H   0  0  0  0  0  0
   10.8088   37.9448   17.2259 H   0  0  0  0  0  0
   10.9748   36.1675   17.0249 H   0  0  0  0  0  0
   11.8108   37.2816   15.8906 H   0  0  0  0  0  0
   15.3184   33.8837   17.7862 H   0  0  0  0  0  0
   13.1782   31.8195   18.0222 H   0  0  0  0  0  0
   14.5062   32.1347   19.1900 H   0  0  0  0  0  0
   11.8455   32.5831   19.6773 H   0  0  0  0  0  0
   13.2015   33.4099   20.5165 H   0  0  0  0  0  0
   12.1941   35.3577   19.6542 H   0  0  0  0  0  0
   11.3861   34.4665   18.3202 H   0  0  0  0  0  0
   15.8339   32.5465   15.9741 H   0  0  0  0  0  0
   13.4998   32.4026   13.9866 H   0  0  0  0  0  0
   15.2718   32.4802   12.1651 H   0  0  0  0  0  0
   13.7824   34.3755   12.6491 H   0  0  0  0  0  0
   15.3896   34.8783   12.0238 H   0  0  0  0  0  0
   15.0162   35.0391   13.7735 H   0  0  0  0  0  0
   17.2660   32.0317   13.6080 H   0  0  0  0  0  0
   17.0697   33.6610   14.3384 H   0  0  0  0  0  0
   17.4431   33.5002   12.5887 H   0  0  0  0  0  0
   15.4010   30.6509   11.8576 H   0  0  0  0  0  0
   13.7723   30.2159   16.0283 H   0  0  0  0  0  0
  1  2  1  0  0  0
  1 26  1  0  0  0
  1 27  1  0  0  0
  1 28  1  0  0  0
  2  3  1  0  0  0
  2  5  1  0  0  0
  2 29  1  0  0  0
  3  4  2  0  0  0
  3  6  1  0  0  0
  5 30  1  0  0  0
  5 31  1  0  0  0
  5 32  1  0  0  0
  6  7  1  0  0  0
  6 33  1  0  0  0
  7  8  1  0  0  0
  7 10  1  0  0  0
  7 34  1  0  0  0
  8  9  2  0  0  0
  8 11  1  0  0  0
 10 35  1  0  0  0
 10 36  1  0  0  0
 10 37  1  0  0  0
 11 12  1  0  0  0
 11 17  1  0  0  0
 12 13  1  0  0  0
 12 15  1  0  0  0
 12 38  1  0  0  0
 13 14  2  0  0  0
 13 18  1  0  0  0
 15 16  1  0  0  0
 15 39  1  0  0  0
 15 40  1  0  0  0
 16 17  1  0  0  0
 16 41  1  0  0  0
 16 42  1  0  0  0
 17 43  1  0  0  0
 17 44  1  0  0  0
 18 19  1  0  0  0
 18 45  1  0  0  0
 19 20  1  0  0  0
 19 23  1  0  0  0
 19 46  1  0  0  0
 20 21  1  0  0  0
 20 22  1  0  0  0
 20 47  1  0  0  0
 21 48  1  0  0  0
 21 49  1  0  0  0
 21 50  1  0  0  0
 22 51  1  0  0  0
 22 52  1  0  0  0
 22 53  1  0  0  0
 23 24  1  0  0  0
 23 25  1  0  0  0
 24 54  1  0  0  0
 25 55  1  0  0  0
M  CHG  1   1   1
M  END
> <s_m_source_file>
../1p03_ligand.sdf

> <i_m_source_file_index>
1

> <s_epik_input>
W05IMytdW0NAQEhdKFtDSDNdKUMoPU8pW05IXVtDQEBIXShbQ0gzXSlDKD1PKU4xW0NAQEhdKFtDSDJdW0NIMl1bQ0gyXTEpQyg9TylbTkhdW0NAQEhdKFtDSF0oW0NIM10pW0NIM10pQihbT0hdKVtPSF0=

> <s_epik_cmdline>
J2VwaWtfYXBwJywgJy1pbWFlJywgJ2xpZ2FuZF9wcm8ubWFlJywgJy1vbWFlJywgJ2xpZ2FuZF9wcmVwLm1hZScsICctbXMnLCAnMScsICctcGgnLCAnNycsICctcGh0JywgJzAuNScsICctbnQn

> <r_epik_Ionization_Penalty>
  0.1233

> <r_epik_Ionization_Penalty_Charging>
  0.1233

> <r_epik_Ionization_Penalty_Neutral>
  0.0000

> <r_epik_State_Penalty>
  0.1128

> <r_epik_Charging_Adjusted_Penalty>
0.236084207461101

> <i_epik_Tot_Q>
1

> <i_epik_Tot_abs_Q>
1

> <s_epik_Chemistry_Notes>
This compound contains a Lewis acid (boronic acid) which adds nucleophiles to form tetrahedral complexes, lowering the experimental pKa

$$$$
