1p04_ligand
                    3D
 Schrodinger Suite 2020-3.
 58 58  0  0  1  0            999 V2000
   13.2380   41.9020   18.6770 N   0  3  0  0  0  0
   13.9920   40.6470   18.5490 C   0  0  2  0  0  0
   13.1620   39.3840   18.7420 C   0  0  0  0  0  0
   12.3410   39.3140   19.6590 O   0  0  0  0  0  0
   15.1100   40.5100   19.5720 C   0  0  0  0  0  0
   13.4290   38.4260   17.8940 N   0  0  0  0  0  0
   12.7110   37.1310   17.9700 C   0  0  2  0  0  0
   13.7120   36.0360   17.6000 C   0  0  0  0  0  0
   14.6120   36.2890   16.8000 O   0  0  0  0  0  0
   11.4560   37.0520   17.1130 C   0  0  0  0  0  0
   13.4610   34.8800   18.1820 N   0  0  0  0  0  0
   14.2770   33.6860   17.8800 C   0  0  2  0  0  0
   13.9370   33.1980   16.4560 C   0  0  0  0  0  0
   12.7600   33.2410   16.0710 O   0  0  0  0  0  0
   13.9570   32.7670   19.0630 C   0  0  0  0  0  0
   12.8900   33.3930   19.8890 C   0  0  0  0  0  0
   12.3360   34.5560   19.0920 C   0  0  0  0  0  0
   14.9270   32.7400   15.7040 N   0  0  0  0  0  0
   14.6640   32.2470   14.3290 C   0  0  1  0  0  0
   15.4980   33.0330   13.2840 C   0  0  1  0  0  0
   15.0520   34.5140   13.2660 C   0  0  0  0  0  0
   17.0120   33.0280   13.4650 C   0  0  0  0  0  0
   13.7200   34.6550   12.5380 C   0  0  0  0  0  0
   14.7420   30.7050   14.1510 B   0  0  0  0  0  0
   14.8830   30.1810   12.7180 O   0  0  0  0  0  0
   13.8240   30.0190   15.0800 O   0  0  0  0  0  0
   12.4493   41.9356   17.9110 H   0  0  0  0  0  0
   13.9192   42.7547   18.5396 H   0  0  0  0  0  0
   12.7812   41.9550   19.6762 H   0  0  0  0  0  0
   14.3505   40.7585   17.5151 H   0  0  0  0  0  0
   15.7727   41.3858   19.5104 H   0  0  0  0  0  0
   15.6879   39.5975   19.3636 H   0  0  0  0  0  0
   14.6776   40.4476   20.5815 H   0  0  0  0  0  0
   14.1934   38.5864   17.1194 H   0  0  0  0  0  0
   12.3434   37.0351   19.0023 H   0  0  0  0  0  0
   10.7608   37.8524   17.4063 H   0  0  0  0  0  0
   10.9729   36.0747   17.2596 H   0  0  0  0  0  0
   11.7272   37.1718   16.0537 H   0  0  0  0  0  0
   15.3648   33.8430   17.8350 H   0  0  0  0  0  0
   13.6112   31.7927   18.6873 H   0  0  0  0  0  0
   14.8618   32.6249   19.6722 H   0  0  0  0  0  0
   12.1027   32.6525   20.0935 H   0  0  0  0  0  0
   13.3197   33.7432   20.8391 H   0  0  0  0  0  0
   12.1053   35.4319   19.7161 H   0  0  0  0  0  0
   11.4504   34.2854   18.4983 H   0  0  0  0  0  0
   15.9506   32.7271   16.1065 H   0  0  0  0  0  0
   13.5990   32.4854   14.1912 H   0  0  0  0  0  0
   15.3155   32.4950   12.3421 H   0  0  0  0  0  0
   14.9374   34.8750   14.2987 H   0  0  0  0  0  0
   15.8107   35.1192   12.7482 H   0  0  0  0  0  0
   17.3756   31.9900   13.4837 H   0  0  0  0  0  0
   17.2696   33.5239   14.4125 H   0  0  0  0  0  0
   17.4829   33.5665   12.6294 H   0  0  0  0  0  0
   13.4151   35.7119   12.5327 H   0  0  0  0  0  0
   12.9552   34.0553   13.0533 H   0  0  0  0  0  0
   13.8286   34.2995   11.5027 H   0  0  0  0  0  0
   15.5635   30.6819   12.0137 H   0  0  0  0  0  0
   13.7120   30.3834   16.1118 H   0  0  0  0  0  0
  1  2  1  0  0  0
  1 27  1  0  0  0
  1 28  1  0  0  0
  1 29  1  0  0  0
  2  3  1  0  0  0
  2  5  1  0  0  0
  2 30  1  0  0  0
  3  4  2  0  0  0
  3  6  1  0  0  0
  5 31  1  0  0  0
  5 32  1  0  0  0
  5 33  1  0  0  0
  6  7  1  0  0  0
  6 34  1  0  0  0
  7  8  1  0  0  0
  7 10  1  0  0  0
  7 35  1  0  0  0
  8  9  2  0  0  0
  8 11  1  0  0  0
 10 36  1  0  0  0
 10 37  1  0  0  0
 10 38  1  0  0  0
 11 12  1  0  0  0
 11 17  1  0  0  0
 12 13  1  0  0  0
 12 15  1  0  0  0
 12 39  1  0  0  0
 13 14  2  0  0  0
 13 18  1  0  0  0
 15 16  1  0  0  0
 15 40  1  0  0  0
 15 41  1  0  0  0
 16 17  1  0  0  0
 16 42  1  0  0  0
 16 43  1  0  0  0
 17 44  1  0  0  0
 17 45  1  0  0  0
 18 19  1  0  0  0
 18 46  1  0  0  0
 19 20  1  0  0  0
 19 24  1  0  0  0
 19 47  1  0  0  0
 20 21  1  0  0  0
 20 22  1  0  0  0
 20 48  1  0  0  0
 21 23  1  0  0  0
 21 49  1  0  0  0
 21 50  1  0  0  0
 22 51  1  0  0  0
 22 52  1  0  0  0
 22 53  1  0  0  0
 23 54  1  0  0  0
 23 55  1  0  0  0
 23 56  1  0  0  0
 24 25  1  0  0  0
 24 26  1  0  0  0
 25 57  1  0  0  0
 26 58  1  0  0  0
M  CHG  1   1   1
M  END
> <s_m_source_file>
../1p04_ligand.sdf

> <i_m_source_file_index>
1

> <s_epik_input>
W05IMytdW0NAQEhdKFtDSDNdKUMoPU8pW05IXVtDQEBIXShbQ0gzXSlDKD1PKU4xW0NAQEhdKFtDSDJdW0NIMl1bQ0gyXTEpQyg9TylbTkhdW0NASF0oQihbT0hdKVtPSF0pW0NASF0oW0NIM10pW0NIMl1bQ0gzXQ==

> <s_epik_cmdline>
J2VwaWtfYXBwJywgJy1pbWFlJywgJ2xpZ2FuZF9wcm8ubWFlJywgJy1vbWFlJywgJ2xpZ2FuZF9wcmVwLm1hZScsICctbXMnLCAnMScsICctcGgnLCAnNycsICctcGh0JywgJzAuNScsICctbnQn

> <r_epik_Ionization_Penalty>
  0.1233

> <r_epik_Ionization_Penalty_Charging>
  0.1233

> <r_epik_Ionization_Penalty_Neutral>
  0.0000

> <r_epik_State_Penalty>
  0.1128

> <r_epik_Charging_Adjusted_Penalty>
0.236084207461101

> <i_epik_Tot_Q>
1

> <i_epik_Tot_abs_Q>
1

> <s_epik_Chemistry_Notes>
This compound contains a Lewis acid (boronic acid) which adds nucleophiles to form tetrahedral complexes, lowering the experimental pKa

$$$$
