1p05_ligand
                    3D
 Schrodinger Suite 2020-3.
 58 58  0  0  1  0            999 V2000
   12.9440   41.7830   18.8940 N   0  3  0  0  0  0
   13.8150   40.5800   18.7510 C   0  0  2  0  0  0
   13.0200   39.2630   18.8870 C   0  0  0  0  0  0
   12.2360   39.1110   19.8630 O   0  0  0  0  0  0
   15.0450   40.3610   19.6210 C   0  0  0  0  0  0
   13.3140   38.3960   17.9150 N   0  0  0  0  0  0
   12.6170   37.0890   18.0380 C   0  0  2  0  0  0
   13.6330   36.0040   17.7400 C   0  0  0  0  0  0
   14.4910   36.3140   16.9110 O   0  0  0  0  0  0
   11.4930   36.9950   17.0470 C   0  0  0  0  0  0
   13.4070   34.8540   18.3470 N   0  0  0  0  0  0
   14.2080   33.6660   18.0300 C   0  0  2  0  0  0
   13.8360   33.2160   16.5940 C   0  0  0  0  0  0
   12.6360   33.2990   16.1740 O   0  0  0  0  0  0
   13.7770   32.7010   19.1590 C   0  0  0  0  0  0
   12.5430   33.1990   19.8550 C   0  0  0  0  0  0
   12.2860   34.5590   19.2530 C   0  0  0  0  0  0
   14.7770   32.7320   15.8430 N   0  0  0  0  0  0
   14.5460   32.2800   14.4540 C   0  0  1  0  0  0
   15.5140   33.1260   13.5360 C   0  0  0  0  0  0
   15.2110   34.5910   13.7810 C   0  0  0  0  0  0
   14.2560   35.0990   12.7050 C   0  0  0  0  0  0
   13.2090   35.9390   13.4870 C   0  0  0  0  0  0
   14.8100   30.7490   14.1940 B   0  0  0  0  0  0
   14.8120   30.2650   12.7610 O   0  0  0  0  0  0
   13.9420   30.0090   15.1760 O   0  0  0  0  0  0
   12.1210   41.7284   18.1662 H   0  0  0  0  0  0
   13.5381   42.6900   18.7084 H   0  0  0  0  0  0
   12.5308   41.8175   19.9129 H   0  0  0  0  0  0
   14.1917   40.8677   17.7584 H   0  0  0  0  0  0
   15.6818   41.2573   19.5880 H   0  0  0  0  0  0
   15.6104   39.4955   19.2453 H   0  0  0  0  0  0
   14.7315   40.1720   20.6583 H   0  0  0  0  0  0
   14.0009   38.5761   17.0749 H   0  0  0  0  0  0
   12.1950   36.9973   19.0497 H   0  0  0  0  0  0
   10.7518   37.7800   17.2577 H   0  0  0  0  0  0
   11.0146   36.0078   17.1278 H   0  0  0  0  0  0
   11.8892   37.1284   16.0295 H   0  0  0  0  0  0
   15.2971   33.8201   18.0232 H   0  0  0  0  0  0
   13.5642   31.7096   18.7326 H   0  0  0  0  0  0
   14.5873   32.6160   19.8980 H   0  0  0  0  0  0
   11.7106   32.5050   19.6667 H   0  0  0  0  0  0
   12.7317   33.2603   20.9370 H   0  0  0  0  0  0
   12.2381   35.3269   20.0392 H   0  0  0  0  0  0
   11.3448   34.5580   18.6836 H   0  0  0  0  0  0
   15.7830   32.6655   16.2829 H   0  0  0  0  0  0
   13.4705   32.4513   14.2989 H   0  0  0  0  0  0
   16.5582   32.9007   13.7985 H   0  0  0  0  0  0
   15.3373   32.8684   12.4813 H   0  0  0  0  0  0
   14.7449   34.7085   14.7704 H   0  0  0  0  0  0
   16.1457   35.1698   13.7449 H   0  0  0  0  0  0
   14.8132   35.7083   11.9782 H   0  0  0  0  0  0
   13.7957   34.2432   12.1896 H   0  0  0  0  0  0
   12.4701   36.3507   12.7838 H   0  0  0  0  0  0
   13.7166   36.7631   14.0097 H   0  0  0  0  0  0
   12.6990   35.2980   14.2212 H   0  0  0  0  0  0
   15.4314   30.7756   12.0089 H   0  0  0  0  0  0
   13.9092   30.3259   16.2288 H   0  0  0  0  0  0
  1  2  1  0  0  0
  1 27  1  0  0  0
  1 28  1  0  0  0
  1 29  1  0  0  0
  2  3  1  0  0  0
  2  5  1  0  0  0
  2 30  1  0  0  0
  3  4  2  0  0  0
  3  6  1  0  0  0
  5 31  1  0  0  0
  5 32  1  0  0  0
  5 33  1  0  0  0
  6  7  1  0  0  0
  6 34  1  0  0  0
  7  8  1  0  0  0
  7 10  1  0  0  0
  7 35  1  0  0  0
  8  9  2  0  0  0
  8 11  1  0  0  0
 10 36  1  0  0  0
 10 37  1  0  0  0
 10 38  1  0  0  0
 11 12  1  0  0  0
 11 17  1  0  0  0
 12 13  1  0  0  0
 12 15  1  0  0  0
 12 39  1  0  0  0
 13 14  2  0  0  0
 13 18  1  0  0  0
 15 16  1  0  0  0
 15 40  1  0  0  0
 15 41  1  0  0  0
 16 17  1  0  0  0
 16 42  1  0  0  0
 16 43  1  0  0  0
 17 44  1  0  0  0
 17 45  1  0  0  0
 18 19  1  0  0  0
 18 46  1  0  0  0
 19 20  1  0  0  0
 19 24  1  0  0  0
 19 47  1  0  0  0
 20 21  1  0  0  0
 20 48  1  0  0  0
 20 49  1  0  0  0
 21 22  1  0  0  0
 21 50  1  0  0  0
 21 51  1  0  0  0
 22 23  1  0  0  0
 22 52  1  0  0  0
 22 53  1  0  0  0
 23 54  1  0  0  0
 23 55  1  0  0  0
 23 56  1  0  0  0
 24 25  1  0  0  0
 24 26  1  0  0  0
 25 57  1  0  0  0
 26 58  1  0  0  0
M  CHG  1   1   1
M  END
> <s_m_source_file>
../1p05_ligand.sdf

> <i_m_source_file_index>
1

> <s_epik_input>
W05IMytdW0NAQEhdKFtDSDNdKUMoPU8pW05IXVtDQEBIXShbQ0gzXSlDKD1PKU4xW0NAQEhdKFtDSDJdW0NIMl1bQ0gyXTEpQyg9TylbTkhdW0NASF0oQihbT0hdKVtPSF0pW0NIMl1bQ0gyXVtDSDJdW0NIM10=

> <s_epik_cmdline>
J2VwaWtfYXBwJywgJy1pbWFlJywgJ2xpZ2FuZF9wcm8ubWFlJywgJy1vbWFlJywgJ2xpZ2FuZF9wcmVwLm1hZScsICctbXMnLCAnMScsICctcGgnLCAnNycsICctcGh0JywgJzAuNScsICctbnQn

> <r_epik_Ionization_Penalty>
  0.1233

> <r_epik_Ionization_Penalty_Charging>
  0.1233

> <r_epik_Ionization_Penalty_Neutral>
  0.0000

> <r_epik_State_Penalty>
  0.1128

> <r_epik_Charging_Adjusted_Penalty>
0.236084207461101

> <i_epik_Tot_Q>
1

> <i_epik_Tot_abs_Q>
1

> <s_epik_Chemistry_Notes>
This compound contains a Lewis acid (boronic acid) which adds nucleophiles to form tetrahedral complexes, lowering the experimental pKa

$$$$
