1p06_ligand
                    3D
 Schrodinger Suite 2020-3.
 57 58  0  0  1  0            999 V2000
   14.3190   42.3820   18.4820 N   0  3  0  0  0  0
   14.7690   40.9720   18.2970 C   0  0  2  0  0  0
   13.8500   39.7890   18.6350 C   0  0  0  0  0  0
   13.0900   39.8750   19.6270 O   0  0  0  0  0  0
   16.1020   40.7080   19.0330 C   0  0  0  0  0  0
   13.9170   38.7380   17.8140 N   0  0  0  0  0  0
   13.0440   37.5550   18.0760 C   0  0  2  0  0  0
   13.9450   36.3430   17.8010 C   0  0  0  0  0  0
   14.8410   36.5310   16.9660 O   0  0  0  0  0  0
   11.7250   37.4350   17.3850 C   0  0  0  0  0  0
   13.7090   35.2750   18.5340 N   0  0  0  0  0  0
   14.5420   34.1000   18.4170 C   0  0  2  0  0  0
   14.0280   33.1860   17.3510 C   0  0  0  0  0  0
   12.8120   32.9180   17.5410 O   0  0  0  0  0  0
   14.3890   33.5550   19.8540 C   0  0  0  0  0  0
   12.9360   33.7450   20.2350 C   0  0  0  0  0  0
   12.6430   35.1050   19.5440 C   0  0  0  0  0  0
   14.8310   32.7260   16.3640 N   0  0  0  0  0  0
   14.1730   31.7860   15.3820 C   0  0  1  0  0  0
   13.9510   32.2640   13.9600 C   0  0  0  0  0  0
   13.1510   33.5710   13.9970 C   0  0  0  0  0  0
   13.8560   34.7850   14.0700 C   0  0  0  0  0  0
   11.7550   33.5610   13.9850 C   0  0  0  0  0  0
   13.1360   35.9820   14.1450 C   0  0  0  0  0  0
   11.0620   34.7600   14.0090 C   0  0  0  0  0  0
   11.7560   35.9590   14.0880 C   0  0  0  0  0  0
   14.9020   30.4420   15.4400 B   0  0  0  0  0  0
   14.2540   29.1780   15.3420 O   0  0  0  0  0  0
   13.3702   42.5372   17.9474 H   0  0  0  0  0  0
   15.0818   43.0659   18.0813 H   0  0  0  0  0  0
   14.1732   42.5827   19.5537 H   0  0  0  0  0  0
   14.8004   41.0043   17.1979 H   0  0  0  0  0  0
   16.8040   41.5291   18.8259 H   0  0  0  0  0  0
   16.5334   39.7592   18.6812 H   0  0  0  0  0  0
   15.9173   40.6477   20.1157 H   0  0  0  0  0  0
   14.6031   38.7356   16.9542 H   0  0  0  0  0  0
   12.6643   37.6794   19.1009 H   0  0  0  0  0  0
   11.1124   38.3211   17.6078 H   0  0  0  0  0  0
   11.2063   36.5320   17.7394 H   0  0  0  0  0  0
   11.8851   37.3635   16.2991 H   0  0  0  0  0  0
   15.5715   34.2949   18.0821 H   0  0  0  0  0  0
   14.6640   32.4901   19.8735 H   0  0  0  0  0  0
   15.0492   34.1166   20.5314 H   0  0  0  0  0  0
   12.3410   32.9084   19.8401 H   0  0  0  0  0  0
   12.8451   33.7744   21.3308 H   0  0  0  0  0  0
   12.6829   35.9368   20.2627 H   0  0  0  0  0  0
   11.6627   35.0983   19.0450 H   0  0  0  0  0  0
   15.8922   32.9904   16.2458 H   0  0  0  0  0  0
   13.1297   31.7197   15.7241 H   0  0  0  0  0  0
   14.9232   32.4358   13.4750 H   0  0  0  0  0  0
   13.3916   31.5005   13.3996 H   0  0  0  0  0  0
   14.9460   34.7935   14.0682 H   0  0  0  0  0  0
   11.2137   32.6153   13.9569 H   0  0  0  0  0  0
   13.6627   36.9307   14.2482 H   0  0  0  0  0  0
    9.9729   34.7617   13.9659 H   0  0  0  0  0  0
   11.2031   36.8982   14.1054 H   0  0  0  0  0  0
   14.8450   28.2516   15.3921 H   0  0  0  0  0  0
  1  2  1  0  0  0
  1 29  1  0  0  0
  1 30  1  0  0  0
  1 31  1  0  0  0
  2  3  1  0  0  0
  2  5  1  0  0  0
  2 32  1  0  0  0
  3  4  2  0  0  0
  3  6  1  0  0  0
  5 33  1  0  0  0
  5 34  1  0  0  0
  5 35  1  0  0  0
  6  7  1  0  0  0
  6 36  1  0  0  0
  7  8  1  0  0  0
  7 10  1  0  0  0
  7 37  1  0  0  0
  8  9  2  0  0  0
  8 11  1  0  0  0
 10 38  1  0  0  0
 10 39  1  0  0  0
 10 40  1  0  0  0
 11 12  1  0  0  0
 11 17  1  0  0  0
 12 13  1  0  0  0
 12 15  1  0  0  0
 12 41  1  0  0  0
 13 14  2  0  0  0
 13 18  1  0  0  0
 15 16  1  0  0  0
 15 42  1  0  0  0
 15 43  1  0  0  0
 16 17  1  0  0  0
 16 44  1  0  0  0
 16 45  1  0  0  0
 17 46  1  0  0  0
 17 47  1  0  0  0
 18 19  1  0  0  0
 18 48  1  0  0  0
 19 20  1  0  0  0
 19 27  1  0  0  0
 19 49  1  0  0  0
 20 21  1  0  0  0
 20 50  1  0  0  0
 20 51  1  0  0  0
 21 22  2  0  0  0
 21 23  1  0  0  0
 22 24  1  0  0  0
 22 52  1  0  0  0
 23 25  2  0  0  0
 23 53  1  0  0  0
 24 26  2  0  0  0
 24 54  1  0  0  0
 25 26  1  0  0  0
 25 55  1  0  0  0
 26 56  1  0  0  0
 27 28  1  0  0  0
 28 57  1  0  0  0
M  CHG  1   1   1
M  END
> <s_m_source_file>
../1p06_ligand.sdf

> <i_m_source_file_index>
1

> <s_epik_input>
W05IMytdW0NAQEhdKFtDSDNdKUMoPU8pW05IXVtDQEBIXShbQ0gzXSlDKD1PKU4xW0NAQEhdKFtDSDJdW0NIMl1bQ0gyXTEpQyg9TylbTkhdW0NASF0oW0JIXVtPSF0pW0NIMl1jMltjSF1bY0hdW2NIXVtjSF1bY0hdMg==

> <s_epik_cmdline>
J2VwaWtfYXBwJywgJy1pbWFlJywgJ2xpZ2FuZF9wcm8ubWFlJywgJy1vbWFlJywgJ2xpZ2FuZF9wcmVwLm1hZScsICctbXMnLCAnMScsICctcGgnLCAnNycsICctcGh0JywgJzAuNScsICctbnQn

> <r_epik_Ionization_Penalty>
  0.1233

> <r_epik_Ionization_Penalty_Charging>
  0.1233

> <r_epik_Ionization_Penalty_Neutral>
  0.0000

> <r_epik_State_Penalty>
  0.1128

> <r_epik_Charging_Adjusted_Penalty>
0.236084207461101

> <i_epik_Tot_Q>
1

> <i_epik_Tot_abs_Q>
1

$$$$
