1p0y_ligand
                    3D
 Schrodinger Suite 2020-3.
 28 27  0  0  1  0            999 V2000
   68.8050  129.6650   64.1060 N   0  3  0  0  0  0
   69.2530  130.9650   63.6600 C   0  0  1  0  0  0
   69.4750  131.0500   62.1650 C   0  0  0  0  0  0
   68.2830  130.7680   61.2850 C   0  0  0  0  0  0
   68.6880  130.9460   59.8110 C   0  0  0  0  0  0
   67.5750  131.6170   59.0190 C   0  0  0  0  0  0
   66.9330  130.7390   58.0080 N   0  3  0  0  0  0
   67.2750  131.2090   56.6500 C   0  0  0  0  0  0
   68.4160  132.1790   64.1160 C   0  0  0  0  0  0
   67.4200  131.9690   64.8770 O   0  5  0  0  0  0
   68.7960  133.2510   63.7200 O   0  0  0  0  0  0
   69.4816  128.8903   63.7160 H   0  0  0  0  0  0
   67.7855  129.4816   63.7358 H   0  0  0  0  0  0
   68.8070  129.6338   65.2056 H   0  0  0  0  0  0
   70.2136  130.9659   64.1959 H   0  0  0  0  0  0
   69.8073  132.0648   61.9008 H   0  0  0  0  0  0
   70.2446  130.3229   61.8666 H   0  0  0  0  0  0
   67.9404  129.7361   61.4514 H   0  0  0  0  0  0
   67.4713  131.4682   61.5317 H   0  0  0  0  0  0
   69.5907  131.5717   59.7518 H   0  0  0  0  0  0
   68.8945  129.9615   59.3660 H   0  0  0  0  0  0
   66.7838  131.9488   59.7074 H   0  0  0  0  0  0
   67.9807  132.4862   58.4806 H   0  0  0  0  0  0
   67.2919  129.7073   58.1376 H   0  0  0  0  0  0
   65.8412  130.7665   58.1388 H   0  0  0  0  0  0
   66.7974  130.5558   55.9048 H   0  0  0  0  0  0
   68.3665  131.1809   56.5163 H   0  0  0  0  0  0
   66.9158  132.2402   56.5176 H   0  0  0  0  0  0
  1  2  1  0  0  0
  1 12  1  0  0  0
  1 13  1  0  0  0
  1 14  1  0  0  0
  2  3  1  0  0  0
  2  9  1  0  0  0
  2 15  1  0  0  0
  3  4  1  0  0  0
  3 16  1  0  0  0
  3 17  1  0  0  0
  4  5  1  0  0  0
  4 18  1  0  0  0
  4 19  1  0  0  0
  5  6  1  0  0  0
  5 20  1  0  0  0
  5 21  1  0  0  0
  6  7  1  0  0  0
  6 22  1  0  0  0
  6 23  1  0  0  0
  7  8  1  0  0  0
  7 24  1  0  0  0
  7 25  1  0  0  0
  8 26  1  0  0  0
  8 27  1  0  0  0
  8 28  1  0  0  0
  9 10  1  0  0  0
  9 11  2  0  0  0
M  CHG  3   1   1   7   1  10  -1
M  END
> <s_m_source_file>
../1p0y_ligand.sdf

> <i_m_source_file_index>
1

> <s_epik_input>
W09IXUMoPU8pW0NAQEhdKFtOSDMrXSlbQ0gyXVtDSDJdW0NIMl1bQ0gyXVtOSDIrXVtDSDNd

> <s_epik_cmdline>
J2VwaWtfYXBwJywgJy1pbWFlJywgJ2xpZ2FuZF9wcm8ubWFlJywgJy1vbWFlJywgJ2xpZ2FuZF9wcmVwLm1hZScsICctbXMnLCAnMScsICctcGgnLCAnNycsICctcGh0JywgJzAuNScsICctbnQn

> <r_lp_tautomer_probability>
1

> <r_epik_Ionization_Penalty>
  0.0016

> <r_epik_Ionization_Penalty_Charging>
  0.0016

> <r_epik_Ionization_Penalty_Neutral>
  0.0000

> <r_epik_State_Penalty>
 -0.0000

> <r_epik_Charging_Adjusted_Penalty>
0.00156520728045857

> <i_epik_Tot_Q>
1

> <i_epik_Tot_abs_Q>
3

$$$$
