1p10_ligand
                    3D
 Schrodinger Suite 2020-3.
 55 55  0  0  1  0            999 V2000
   14.0720   42.0480   18.5070 N   0  3  0  0  0  0
   14.4070   40.6540   18.1900 C   0  0  2  0  0  0
   13.4700   39.5060   18.5330 C   0  0  0  0  0  0
   12.7930   39.5190   19.5990 O   0  0  0  0  0  0
   15.5890   40.3420   19.1370 C   0  0  0  0  0  0
   13.5200   38.5140   17.6460 N   0  0  0  0  0  0
   12.7330   37.2720   17.8200 C   0  0  2  0  0  0
   13.6610   36.1210   17.3940 C   0  0  0  0  0  0
   14.5040   36.3760   16.5290 O   0  0  0  0  0  0
   11.5700   37.2130   16.8280 C   0  0  0  0  0  0
   13.3940   34.9750   17.9670 N   0  0  0  0  0  0
   14.1580   33.7570   17.6200 C   0  0  2  0  0  0
   13.8660   33.3220   16.1770 C   0  0  0  0  0  0
   12.6900   33.4870   15.7140 O   0  0  0  0  0  0
   13.7020   32.7660   18.6910 C   0  0  0  0  0  0
   12.9230   33.5090   19.7090 C   0  0  0  0  0  0
   12.2980   34.6720   18.9330 C   0  0  0  0  0  0
   14.8760   32.7910   15.5000 N   0  0  0  0  0  0
   14.6560   32.3270   14.1040 C   0  0  1  0  0  0
   15.4860   33.1040   13.0200 C   0  0  0  0  0  0
   14.9750   34.5190   12.7620 C   0  0  0  0  0  0
   16.9730   33.2230   13.3560 C   0  0  0  0  0  0
   14.7020   30.7590   14.0120 B   0  0  0  0  0  0
   14.9160   30.1800   12.6550 O   0  0  0  0  0  0
   13.8070   30.1390   15.0140 O   0  0  0  0  0  0
   13.2299   42.3746   17.8791 H   0  0  0  0  0  0
   14.9449   42.6883   18.3119 H   0  0  0  0  0  0
   13.7903   42.1253   19.5675 H   0  0  0  0  0  0
   14.4685   40.6991   17.0926 H   0  0  0  0  0  0
   16.3733   41.1022   19.0072 H   0  0  0  0  0  0
   15.9977   39.3490   18.8984 H   0  0  0  0  0  0
   15.2367   40.3528   20.1790 H   0  0  0  0  0  0
   14.1681   38.6356   16.7656 H   0  0  0  0  0  0
   12.3727   37.2511   18.8591 H   0  0  0  0  0  0
   10.8489   38.0105   17.0606 H   0  0  0  0  0  0
   11.0723   36.2350   16.9042 H   0  0  0  0  0  0
   11.9525   37.3511   15.8059 H   0  0  0  0  0  0
   15.2476   33.9069   17.6380 H   0  0  0  0  0  0
   13.0753   31.9892   18.2287 H   0  0  0  0  0  0
   14.5821   32.2982   19.1563 H   0  0  0  0  0  0
   12.1599   32.8459   20.1426 H   0  0  0  0  0  0
   13.5982   33.8597   20.5034 H   0  0  0  0  0  0
   12.0979   35.5599   19.5507 H   0  0  0  0  0  0
   11.3876   34.3972   18.3802 H   0  0  0  0  0  0
   15.8693   32.6924   15.9623 H   0  0  0  0  0  0
   13.6209   32.6358   13.8962 H   0  0  0  0  0  0
   15.3708   32.5069   12.1034 H   0  0  0  0  0  0
   13.9037   34.4826   12.5151 H   0  0  0  0  0  0
   15.5301   34.9618   11.9219 H   0  0  0  0  0  0
   15.1230   35.1323   13.6631 H   0  0  0  0  0  0
   17.3862   32.2223   13.5506 H   0  0  0  0  0  0
   17.0977   33.8514   14.2502 H   0  0  0  0  0  0
   17.5048   33.6809   12.5089 H   0  0  0  0  0  0
   15.5920   30.6785   11.9447 H   0  0  0  0  0  0
   13.6820   30.6047   16.0027 H   0  0  0  0  0  0
  1  2  1  0  0  0
  1 26  1  0  0  0
  1 27  1  0  0  0
  1 28  1  0  0  0
  2  3  1  0  0  0
  2  5  1  0  0  0
  2 29  1  0  0  0
  3  4  2  0  0  0
  3  6  1  0  0  0
  5 30  1  0  0  0
  5 31  1  0  0  0
  5 32  1  0  0  0
  6  7  1  0  0  0
  6 33  1  0  0  0
  7  8  1  0  0  0
  7 10  1  0  0  0
  7 34  1  0  0  0
  8  9  2  0  0  0
  8 11  1  0  0  0
 10 35  1  0  0  0
 10 36  1  0  0  0
 10 37  1  0  0  0
 11 12  1  0  0  0
 11 17  1  0  0  0
 12 13  1  0  0  0
 12 15  1  0  0  0
 12 38  1  0  0  0
 13 14  2  0  0  0
 13 18  1  0  0  0
 15 16  1  0  0  0
 15 39  1  0  0  0
 15 40  1  0  0  0
 16 17  1  0  0  0
 16 41  1  0  0  0
 16 42  1  0  0  0
 17 43  1  0  0  0
 17 44  1  0  0  0
 18 19  1  0  0  0
 18 45  1  0  0  0
 19 20  1  0  0  0
 19 23  1  0  0  0
 19 46  1  0  0  0
 20 21  1  0  0  0
 20 22  1  0  0  0
 20 47  1  0  0  0
 21 48  1  0  0  0
 21 49  1  0  0  0
 21 50  1  0  0  0
 22 51  1  0  0  0
 22 52  1  0  0  0
 22 53  1  0  0  0
 23 24  1  0  0  0
 23 25  1  0  0  0
 24 54  1  0  0  0
 25 55  1  0  0  0
M  CHG  1   1   1
M  END
> <s_m_source_file>
../1p10_ligand.sdf

> <i_m_source_file_index>
1

> <s_epik_input>
W05IMytdW0NAQEhdKFtDSDNdKUMoPU8pW05IXVtDQEBIXShbQ0gzXSlDKD1PKU4xW0NAQEhdKFtDSDJdW0NIMl1bQ0gyXTEpQyg9TylbTkhdW0NAQEhdKFtDSF0oW0NIM10pW0NIM10pQihbT0hdKVtPSF0=

> <s_epik_cmdline>
J2VwaWtfYXBwJywgJy1pbWFlJywgJ2xpZ2FuZF9wcm8ubWFlJywgJy1vbWFlJywgJ2xpZ2FuZF9wcmVwLm1hZScsICctbXMnLCAnMScsICctcGgnLCAnNycsICctcGh0JywgJzAuNScsICctbnQn

> <r_epik_Ionization_Penalty>
  0.1233

> <r_epik_Ionization_Penalty_Charging>
  0.1233

> <r_epik_Ionization_Penalty_Neutral>
  0.0000

> <r_epik_State_Penalty>
  0.1128

> <r_epik_Charging_Adjusted_Penalty>
0.236084207461101

> <i_epik_Tot_Q>
1

> <i_epik_Tot_abs_Q>
1

> <s_epik_Chemistry_Notes>
This compound contains a Lewis acid (boronic acid) which adds nucleophiles to form tetrahedral complexes, lowering the experimental pKa

$$$$
