1p17_ligand
                    3D
 Schrodinger Suite 2020-3.
 34 36  0  0  1  0            999 V2000
    8.5560   38.0610  -11.8730 P   0  0  0  0  0  0
    7.6930   38.3180  -13.0490 O   0  0  0  0  0  0
    8.3060   36.8300  -11.0790 O   0  5  0  0  0  0
    9.9920   38.1450  -12.2690 O   0  5  0  0  0  0
    8.2870   39.2930  -10.8870 O   0  0  0  0  0  0
    9.2390   39.6580   -9.8860 C   0  0  0  0  0  0
    8.5650   39.8380   -8.5410 C   0  0  1  0  0  0
    7.8490   41.1000   -8.4810 O   0  0  0  0  0  0
    7.5050   38.8170   -8.1750 C   0  0  1  0  0  0
    8.0930   37.5980   -7.7260 O   0  0  0  0  0  0
    6.7440   39.5390   -7.0580 C   0  0  1  0  0  0
    7.3720   39.4390   -5.7930 O   0  0  0  0  0  0
    6.8070   41.0010   -7.5190 C   0  0  2  0  0  0
    5.5700   41.5300   -8.0940 N   0  0  0  0  0  0
    5.1960   41.5100   -9.4150 C   0  0  0  0  0  0
    4.0400   42.0770   -9.6300 N   0  0  0  0  0  0
    3.6200   42.4920   -8.3750 C   0  0  0  0  0  0
    2.4410   43.1640   -7.9840 C   0  0  0  0  0  0
    1.4960   43.5290   -8.6910 O   0  0  0  0  0  0
    2.4160   43.4000   -6.6150 N   0  0  0  0  0  0
    3.3950   43.0320   -5.7360 C   0  0  0  0  0  0
    4.5010   42.3970   -6.0870 N   0  0  0  0  0  0
    4.5480   42.1610   -7.4140 C   0  0  0  0  0  0
    9.9996   38.8682   -9.7981 H   0  0  0  0  0  0
    9.7238   40.6041  -10.1686 H   0  0  0  0  0  0
    9.4090   39.7913   -7.8371 H   0  0  0  0  0  0
    6.8881   38.4526   -9.0096 H   0  0  0  0  0  0
    8.6704   36.9755   -8.4254 H   0  0  0  0  0  0
    5.7565   39.1037   -6.8451 H   0  0  0  0  0  0
    7.4332   38.4654   -5.2848 H   0  0  0  0  0  0
    7.0118   41.6631   -6.6648 H   0  0  0  0  0  0
    5.8028   41.0658  -10.2040 H   0  0  0  0  0  0
    1.5595   43.9209   -6.1622 H   0  0  0  0  0  0
    3.2564   43.2762   -4.6828 H   0  0  0  0  0  0
  1  2  2  0  0  0
  1  3  1  0  0  0
  1  4  1  0  0  0
  1  5  1  0  0  0
  5  6  1  0  0  0
  6  7  1  0  0  0
  6 24  1  0  0  0
  6 25  1  0  0  0
  7  8  1  0  0  0
  7  9  1  0  0  0
  7 26  1  0  0  0
  8 13  1  0  0  0
  9 10  1  0  0  0
  9 11  1  0  0  0
  9 27  1  0  0  0
 10 28  1  0  0  0
 11 12  1  0  0  0
 11 13  1  0  0  0
 11 29  1  0  0  0
 12 30  1  0  0  0
 13 14  1  0  0  0
 13 31  1  0  0  0
 14 15  1  0  0  0
 14 23  1  0  0  0
 15 16  2  0  0  0
 15 32  1  0  0  0
 16 17  1  0  0  0
 17 18  1  0  0  0
 17 23  2  0  0  0
 18 19  2  0  0  0
 18 20  1  0  0  0
 20 21  1  0  0  0
 20 33  1  0  0  0
 21 22  2  0  0  0
 21 34  1  0  0  0
 22 23  1  0  0  0
M  CHG  2   3  -1   4  -1
M  END
> <s_m_source_file>
../1p17_ligand.sdf

> <i_m_source_file_index>
1

> <s_epik_input>
Tz1QKFtPSF0pKFtPSF0pT1tDSDJdW0NASF0xT1tDQEhdKFtDQEhdKFtPSF0pW0NAQEhdMVtPSF0pbihbY0hdbjIpYyhjMjMpbltjSF1bbkhdYzM9Tw==

> <s_epik_cmdline>
J2VwaWtfYXBwJywgJy1pbWFlJywgJ2xpZ2FuZF9wcm8ubWFlJywgJy1vbWFlJywgJ2xpZ2FuZF9wcmVwLm1hZScsICctbXMnLCAnMScsICctcGgnLCAnNycsICctcGh0JywgJzAuNScsICctbnQn

> <r_lp_tautomer_probability>
1

> <r_epik_Ionization_Penalty>
  0.1134

> <r_epik_Ionization_Penalty_Charging>
  0.1134

> <r_epik_Ionization_Penalty_Neutral>
  0.0000

> <r_epik_State_Penalty>
 -0.0000

> <r_epik_Charging_Adjusted_Penalty>
0.113364628518096

> <i_epik_Tot_Q>
-2

> <i_epik_Tot_abs_Q>
2

> <s_epik_Chemistry_Notes>
This compound contains an acetal/aminal-like group ( X-CH(R)-Y where X, Y are N, S, or O) that may be acid/base labile, releasing an aldehyde.

$$$$
