1p19_ligand
                    3D
 Schrodinger Suite 2020-3.
 34 36  0  0  1  0            999 V2000
   70.3090   39.1240   36.1390 P   0  0  0  0  0  0
   70.6410   40.4980   36.6280 O   0  0  0  0  0  0
   71.0580   38.1060   36.9580 O   0  5  0  0  0  0
   68.7850   38.8370   36.2130 O   0  5  0  0  0  0
   70.7180   38.9220   34.5620 O   0  0  0  0  0  0
   69.9780   39.6720   33.5770 C   0  0  0  0  0  0
   70.3860   39.5600   32.1180 C   0  0  1  0  0  0
   70.8550   40.9170   31.8510 O   0  0  0  0  0  0
   71.5260   38.6750   31.6120 C   0  0  1  0  0  0
   71.1570   37.3580   31.2900 O   0  0  0  0  0  0
   72.0440   39.4210   30.3970 C   0  0  1  0  0  0
   71.2750   39.2470   29.2110 O   0  0  0  0  0  0
   71.9710   40.8610   30.9630 C   0  0  2  0  0  0
   73.1650   41.0940   31.8020 N   0  0  0  0  0  0
   73.3820   40.9260   33.1510 C   0  0  0  0  0  0
   74.5870   41.2510   33.4910 N   0  0  0  0  0  0
   75.1990   41.6500   32.3320 C   0  0  0  0  0  0
   76.5220   42.1170   32.0740 C   0  0  0  0  0  0
   77.4370   42.2690   32.8700 O   0  0  0  0  0  0
   76.7590   42.4310   30.7160 N   0  0  0  0  0  0
   75.7790   42.2890   29.7420 C   0  0  0  0  0  0
   74.5350   41.8470   29.9950 N   0  0  0  0  0  0
   74.3260   41.5570   31.2750 C   0  0  0  0  0  0
   68.9229   39.3615   33.5964 H   0  0  0  0  0  0
   70.0484   40.7458   33.8048 H   0  0  0  0  0  0
   69.5061   39.1321   31.6154 H   0  0  0  0  0  0
   72.2705   38.4391   32.3866 H   0  0  0  0  0  0
   70.7616   36.6912   32.0704 H   0  0  0  0  0  0
   72.9951   39.0573   29.9809 H   0  0  0  0  0  0
   71.2463   38.2666   28.7130 H   0  0  0  0  0  0
   71.8698   41.6322   30.1851 H   0  0  0  0  0  0
   72.6282   40.5624   33.8494 H   0  0  0  0  0  0
   77.7458   42.8013   30.4012 H   0  0  0  0  0  0
   76.0329   42.5507   28.7148 H   0  0  0  0  0  0
  1  2  2  0  0  0
  1  3  1  0  0  0
  1  4  1  0  0  0
  1  5  1  0  0  0
  5  6  1  0  0  0
  6  7  1  0  0  0
  6 24  1  0  0  0
  6 25  1  0  0  0
  7  8  1  0  0  0
  7  9  1  0  0  0
  7 26  1  0  0  0
  8 13  1  0  0  0
  9 10  1  0  0  0
  9 11  1  0  0  0
  9 27  1  0  0  0
 10 28  1  0  0  0
 11 12  1  0  0  0
 11 13  1  0  0  0
 11 29  1  0  0  0
 12 30  1  0  0  0
 13 14  1  0  0  0
 13 31  1  0  0  0
 14 15  1  0  0  0
 14 23  1  0  0  0
 15 16  2  0  0  0
 15 32  1  0  0  0
 16 17  1  0  0  0
 17 18  1  0  0  0
 17 23  2  0  0  0
 18 19  2  0  0  0
 18 20  1  0  0  0
 20 21  1  0  0  0
 20 33  1  0  0  0
 21 22  2  0  0  0
 21 34  1  0  0  0
 22 23  1  0  0  0
M  CHG  2   3  -1   4  -1
M  END
> <s_m_source_file>
../1p19_ligand.sdf

> <i_m_source_file_index>
1

> <s_epik_input>
Tz1QKFtPSF0pKFtPSF0pT1tDSDJdW0NASF0xT1tDQEhdKFtDQEhdKFtPSF0pW0NAQEhdMVtPSF0pbihbY0hdbjIpYyhjMjMpbltjSF1bbkhdYzM9Tw==

> <s_epik_cmdline>
J2VwaWtfYXBwJywgJy1pbWFlJywgJ2xpZ2FuZF9wcm8ubWFlJywgJy1vbWFlJywgJ2xpZ2FuZF9wcmVwLm1hZScsICctbXMnLCAnMScsICctcGgnLCAnNycsICctcGh0JywgJzAuNScsICctbnQn

> <r_lp_tautomer_probability>
1

> <r_epik_Ionization_Penalty>
  0.1134

> <r_epik_Ionization_Penalty_Charging>
  0.1134

> <r_epik_Ionization_Penalty_Neutral>
  0.0000

> <r_epik_State_Penalty>
 -0.0000

> <r_epik_Charging_Adjusted_Penalty>
0.113364628518096

> <i_epik_Tot_Q>
-2

> <i_epik_Tot_abs_Q>
2

> <s_epik_Chemistry_Notes>
This compound contains an acetal/aminal-like group ( X-CH(R)-Y where X, Y are N, S, or O) that may be acid/base labile, releasing an aldehyde.

$$$$
