1p28_ligand
                    3D
 Schrodinger Suite 2020-3.
 14 13  0  0  1  0            999 V2000
   11.0500    0.5970    3.2040 C   0  0  0  0  0  0
   10.7400    1.2830    1.8750 C   0  0  2  0  0  0
    9.8280    2.3420    2.1570 O   0  0  0  0  0  0
   10.1720    0.3310    0.8340 C   0  0  0  0  0  0
    8.8460   -0.3240    1.0680 C   0  0  0  0  0  0
   10.7870    0.1150   -0.2160 O   0  0  0  0  0  0
   11.4559    1.3349    3.9116 H   0  0  0  0  0  0
   11.7899   -0.2005    3.0411 H   0  0  0  0  0  0
   10.1274    0.1625    3.6163 H   0  0  0  0  0  0
   11.6435    1.7301    1.4348 H   0  0  0  0  0  0
   10.0940    3.1158    2.8921 H   0  0  0  0  0  0
    8.4526   -0.0157    2.0479 H   0  0  0  0  0  0
    8.9686   -1.4170    1.0495 H   0  0  0  0  0  0
    8.1427   -0.0205    0.2785 H   0  0  0  0  0  0
  1  2  1  0  0  0
  1  7  1  0  0  0
  1  8  1  0  0  0
  1  9  1  0  0  0
  2  3  1  0  0  0
  2  4  1  0  0  0
  2 10  1  0  0  0
  3 11  1  0  0  0
  4  5  1  0  0  0
  4  6  2  0  0  0
  5 12  1  0  0  0
  5 13  1  0  0  0
  5 14  1  0  0  0
M  END
> <s_m_source_file>
../1p28_ligand.sdf

> <i_m_source_file_index>
1

> <s_epik_input>
W0NIM11bQ0BIXShbT0hdKUMoPU8pW0NIM10=

> <s_epik_cmdline>
J2VwaWtfYXBwJywgJy1pbWFlJywgJ2xpZ2FuZF9wcm8ubWFlJywgJy1vbWFlJywgJ2xpZ2FuZF9wcmVwLm1hZScsICctbXMnLCAnMScsICctcGgnLCAnNycsICctcGh0JywgJzAuNScsICctbnQn

> <r_lp_tautomer_probability>
1

> <r_epik_Ionization_Penalty>
  0.0000

> <r_epik_Ionization_Penalty_Charging>
  0.0000

> <r_epik_Ionization_Penalty_Neutral>
  0.0000

> <r_epik_State_Penalty>
 -0.0000

> <r_epik_Charging_Adjusted_Penalty>
0

> <i_epik_Tot_Q>
0

> <i_epik_Tot_abs_Q>
0

$$$$
