1p2a_ligand
                    3D
 Schrodinger Suite 2020-3.
 38 41  0  0  1  0            999 V2000
   14.2480   -4.1650    8.4140 N   0  3  0  0  0  0
   14.5350   -5.2790    7.5030 C   0  0  0  0  0  0
   14.2350   -6.6630    8.1460 C   0  0  0  0  0  0
   14.6540   -6.8410    9.5790 N   0  0  0  0  0  0
   14.0580   -7.7190   10.5730 C   0  0  0  0  0  0
   12.8170   -8.3510   10.2070 C   0  0  0  0  0  0
   12.0310   -9.2810   11.0660 C   0  0  0  0  0  0
   10.7880   -9.8260   10.5560 C   0  0  0  0  0  0
   10.1780   -9.5910    9.2850 C   0  0  0  0  0  0
    8.9770  -10.3170    9.2160 C   0  0  0  0  0  0
    8.8440  -10.9860   10.4120 C   0  0  0  0  0  0
    9.9430  -10.6700   11.1860 N   0  0  0  0  0  0
   12.6380   -9.5240   12.3740 C   0  0  0  0  0  0
   12.2270  -10.3760   13.5550 C   0  0  0  0  0  0
   11.2490  -11.0870   13.6800 O   0  0  0  0  0  0
   13.2200  -10.1960   14.5470 N   0  0  0  0  0  0
   14.1860   -9.3060   14.0450 C   0  0  0  0  0  0
   15.3550   -8.7910   14.6060 C   0  0  0  0  0  0
   16.1590   -7.8850   13.8370 C   0  0  0  0  0  0
   15.8260   -7.4800   12.5230 C   0  0  0  0  0  0
   16.6540   -6.6250   11.8920 F   0  0  0  0  0  0
   14.6070   -7.9950   11.9020 C   0  0  0  0  0  0
   13.8310   -8.9020   12.7130 C   0  0  0  0  0  0
   14.4763   -3.2130    7.9124 H   0  0  0  0  0  0
   14.8679   -4.2613    9.3176 H   0  0  0  0  0  0
   13.1847   -4.1857    8.6949 H   0  0  0  0  0  0
   13.9151   -5.1827    6.5994 H   0  0  0  0  0  0
   15.5983   -5.2583    7.2221 H   0  0  0  0  0  0
   13.1513   -6.8504    8.1239 H   0  0  0  0  0  0
   14.7548   -7.4504    7.5806 H   0  0  0  0  0  0
   15.5032   -6.2676    9.9790 H   0  0  0  0  0  0
   12.4184   -8.1302    9.2168 H   0  0  0  0  0  0
   10.6648   -8.9268    8.5557 H   0  0  0  0  0  0
    8.2830  -10.3452    8.3759 H   0  0  0  0  0  0
    8.0724  -11.6652   10.8036 H   0  0  0  0  0  0
   13.1368  -10.7209   15.5101 H   0  0  0  0  0  0
   15.6537   -9.0733   15.6156 H   0  0  0  0  0  0
   17.0699   -7.4899   14.2867 H   0  0  0  0  0  0
  1  2  1  0  0  0
  1 24  1  0  0  0
  1 25  1  0  0  0
  1 26  1  0  0  0
  2  3  1  0  0  0
  2 27  1  0  0  0
  2 28  1  0  0  0
  3  4  1  0  0  0
  3 29  1  0  0  0
  3 30  1  0  0  0
  4  5  1  0  0  0
  4 31  1  0  0  0
  5  6  2  0  0  0
  5 22  1  0  0  0
  6  7  1  0  0  0
  6 32  1  0  0  0
  7  8  1  0  0  0
  7 13  2  0  0  0
  8  9  2  0  0  0
  8 12  1  0  0  0
  9 10  1  0  0  0
  9 33  1  0  0  0
 10 11  1  0  0  0
 10 34  1  0  0  0
 11 12  2  0  0  0
 11 35  1  0  0  0
 13 14  1  0  0  0
 13 23  1  0  0  0
 14 15  2  0  0  0
 14 16  1  0  0  0
 16 17  1  0  0  0
 16 36  1  0  0  0
 17 18  1  0  0  0
 17 23  2  0  0  0
 18 19  2  0  0  0
 18 37  1  0  0  0
 19 20  1  0  0  0
 19 38  1  0  0  0
 20 21  1  0  0  0
 20 22  2  0  0  0
 22 23  1  0  0  0
M  CHG  1   1   1
M  END
> <s_m_source_file>
../1p2a_ligand.sdf

> <i_m_source_file_index>
1

> <s_epik_input>
TjE9W0NIXVtDSDJdW0NIXT1DMWMyW2NIXWMoW05IXVtDSDJdW0NIMl1bTkgzK10pYzNjKEYpW2NIXVtjSF1jKGMzYzI0KVtOSF1DND1P

> <s_epik_cmdline>
J2VwaWtfYXBwJywgJy1pbWFlJywgJ2xpZ2FuZF9wcm8ubWFlJywgJy1vbWFlJywgJ2xpZ2FuZF9wcmVwLm1hZScsICctbXMnLCAnMScsICctcGgnLCAnNycsICctcGh0JywgJzAuNScsICctbnQn

> <r_lp_tautomer_probability>
1

> <r_epik_Ionization_Penalty>
  0.0004

> <r_epik_Ionization_Penalty_Charging>
  0.0004

> <r_epik_Ionization_Penalty_Neutral>
  0.0000

> <r_epik_State_Penalty>
 -0.0000

> <r_epik_Charging_Adjusted_Penalty>
0.000354624878080051

> <i_epik_Tot_Q>
1

> <i_epik_Tot_abs_Q>
1

> <s_epik_Chemistry_Notes>
This compound has an imine and may undergo hydrolysis.

$$$$
