1p2g_ligand
                    3D
 Schrodinger Suite 2020-3.
168176  0  0  1  0            999 V2000
   69.5670   19.3790   29.9450 C   0  0  2  0  0  0
   69.8360   20.8490   29.6030 C   0  0  1  0  0  0
   69.2100   21.7740   30.6420 C   0  0  2  0  0  0
   67.7690   21.3840   30.9770 C   0  0  1  0  0  0
   67.6040   19.8870   31.2370 C   0  0  1  0  0  0
   66.1340   19.5570   31.2530 C   0  0  0  0  0  0
   71.2490   21.0590   29.5990 O   0  0  0  0  0  0
   69.2020   23.1040   30.1250 O   0  0  0  0  0  0
   67.3500   22.1090   32.1510 O   0  0  0  0  0  0
   68.1740   19.1400   30.1460 O   0  0  0  0  0  0
   65.5580   19.8450   29.9790 O   0  0  0  0  0  0
   66.2690   22.9580   31.9290 C   0  0  2  0  0  0
   66.2610   24.0320   33.0170 C   0  0  1  0  0  0
   65.8690   23.4500   34.3640 C   0  0  2  0  0  0
   64.5780   22.6220   34.2680 C   0  0  1  0  0  0
   64.6510   21.6020   33.1300 C   0  0  1  0  0  0
   63.2700   21.0420   32.9140 C   0  0  0  0  0  0
   67.5730   24.5720   33.1340 O   0  0  0  0  0  0
   65.6740   24.5230   35.2770 O   0  0  0  0  0  0
   64.3570   21.9230   35.5130 O   0  0  0  0  0  0
   65.0250   22.2540   31.8860 O   0  0  0  0  0  0
   62.3540   22.1140   32.7120 O   0  0  0  0  0  0
   63.0920   22.0680   36.1010 C   0  0  2  0  0  0
   63.2090   23.0310   37.2750 C   0  0  1  0  0  0
   64.0630   22.4190   38.3770 C   0  0  2  0  0  0
   63.5950   21.0230   38.7390 C   0  0  1  0  0  0
   63.4550   20.1570   37.5010 C   0  0  1  0  0  0
   62.8580   18.8000   37.8070 C   0  0  0  0  0  0
   63.8140   24.2340   36.8320 O   0  0  0  0  0  0
   64.0160   23.2250   39.5480 O   0  0  0  0  0  0
   64.5400   20.4230   39.6440 O   0  0  0  0  0  0
   62.5840   20.8130   36.5630 O   0  0  0  0  0  0
   62.6000   18.0910   36.6040 O   0  0  0  0  0  0
   63.9840   20.0330   40.8660 C   0  0  2  0  0  0
   64.9090   20.4870   41.9870 C   0  0  1  0  0  0
   66.2180   19.7270   41.8750 C   0  0  2  0  0  0
   65.9750   18.2170   41.9170 C   0  0  1  0  0  0
   64.9900   17.8350   40.7980 C   0  0  1  0  0  0
   64.5680   16.3700   40.7860 C   0  0  0  0  0  0
   65.1560   21.8810   41.8430 O   0  0  0  0  0  0
   67.1000   20.1030   42.9240 O   0  0  0  0  0  0
   67.2390   17.5320   41.7340 O   0  0  0  0  0  0
   63.7820   18.6180   40.9310 O   0  0  0  0  0  0
   63.5780   16.1180   41.7810 O   0  0  0  0  0  0
   67.6950   16.7650   42.8240 C   0  0  2  0  0  0
   69.2310   16.7100   42.8020 C   0  0  1  0  0  0
   69.7140   15.9110   41.5840 C   0  0  2  0  0  0
   69.0190   14.5360   41.4720 C   0  0  1  0  0  0
   67.5070   14.7350   41.5560 C   0  0  1  0  0  0
   66.7280   13.4390   41.5380 C   0  0  0  0  0  0
   69.7530   18.0410   42.7180 O   0  0  0  0  0  0
   71.1200   15.7320   41.6640 O   0  0  0  0  0  0
   69.3400   13.9320   40.1900 O   0  0  0  0  0  0
   67.1740   15.4380   42.7720 O   0  0  0  0  0  0
   66.0260   13.2910   40.3010 O   0  0  0  0  0  0
   69.9240   12.6420   40.2320 C   0  0  2  0  0  0
   71.4110   12.7450   40.6130 C   0  0  1  0  0  0
   72.1740   13.4930   39.5070 C   0  0  2  0  0  0
   71.9620   12.8370   38.1440 C   0  0  1  0  0  0
   70.4550   12.6740   37.8740 C   0  0  1  0  0  0
   70.1220   11.8950   36.6160 C   0  0  0  0  0  0
   71.5380   13.4430   41.8500 O   0  0  0  0  0  0
   73.5710   13.5190   39.7910 O   0  0  0  0  0  0
   72.5460   13.7020   37.1450 O   0  0  0  0  0  0
   69.8160   11.9720   38.9720 O   0  0  0  0  0  0
   68.7080   11.7020   36.5210 O   0  0  0  0  0  0
   73.4020   13.0720   36.2310 C   0  0  2  0  0  0
   74.5290   14.0430   35.7940 C   0  0  1  0  0  0
   73.9670   15.1650   34.9180 C   0  0  2  0  0  0
   73.1800   14.5940   33.7560 C   0  0  1  0  0  0
   72.1010   13.6080   34.2450 C   0  0  1  0  0  0
   71.4840   12.8840   33.0660 C   0  0  0  0  0  0
   75.1380   14.6160   36.9480 O   0  0  0  0  0  0
   75.0340   15.9520   34.3850 O   0  0  0  0  0  0
   72.5680   15.6860   33.0310 O   0  0  0  0  0  0
   72.6940   12.5820   35.0850 O   0  0  0  0  0  0
   70.1060   13.2210   32.9190 O   0  0  0  0  0  0
   72.8510   15.7260   31.6570 C   0  0  2  0  0  0
   73.5360   17.0630   31.3080 C   0  0  1  0  0  0
   72.5470   18.2100   31.5750 C   0  0  2  0  0  0
   71.2830   17.9800   30.7590 C   0  0  1  0  0  0
   70.6690   16.6070   31.0650 C   0  0  1  0  0  0
   69.5060   16.2870   30.1370 C   0  0  0  0  0  0
   74.7080   17.2260   32.1130 O   0  0  0  0  0  0
   73.1230   19.4620   31.1920 O   0  0  0  0  0  0
   70.3310   19.0170   31.0530 O   0  0  0  0  0  0
   71.6630   15.5660   30.8710 O   0  0  0  0  0  0
   68.2550   16.6000   30.7470 O   0  0  0  0  0  0
   69.8605   18.6704   29.1565 H   0  0  0  0  0  0
   69.4584   21.0932   28.5991 H   0  0  0  0  0  0
   69.8248   21.7628   31.5541 H   0  0  0  0  0  0
   67.1166   21.6748   30.1404 H   0  0  0  0  0  0
   68.1155   19.5947   32.1660 H   0  0  0  0  0  0
   66.0005   18.4887   31.4786 H   0  0  0  0  0  0
   65.6312   20.1600   32.0234 H   0  0  0  0  0  0
   71.8887   20.4833   28.9138 H   0  0  0  0  0  0
   70.1449   23.5810   29.8194 H   0  0  0  0  0  0
   64.4867   19.6646   29.8063 H   0  0  0  0  0  0
   66.4068   23.3439   30.9082 H   0  0  0  0  0  0
   65.5802   24.8508   32.7411 H   0  0  0  0  0  0
   66.6875   22.8313   34.7605 H   0  0  0  0  0  0
   63.7188   23.2917   34.1154 H   0  0  0  0  0  0
   65.4014   20.8294   33.3537 H   0  0  0  0  0  0
   63.2735   20.3888   32.0290 H   0  0  0  0  0  0
   62.9677   20.4607   33.7976 H   0  0  0  0  0  0
   68.0519   25.0467   32.2649 H   0  0  0  0  0  0
   66.4927   25.2295   35.4783 H   0  0  0  0  0  0
   61.2890   21.9018   32.5365 H   0  0  0  0  0  0
   62.4210   22.4035   35.2965 H   0  0  0  0  0  0
   62.2148   23.3066   37.6565 H   0  0  0  0  0  0
   65.1121   22.4021   38.0467 H   0  0  0  0  0  0
   62.6306   21.0760   39.2655 H   0  0  0  0  0  0
   64.4494   20.0334   37.0472 H   0  0  0  0  0  0
   63.5622   18.2197   38.4212 H   0  0  0  0  0  0
   61.9137   18.9302   38.3560 H   0  0  0  0  0  0
   63.3420   24.8255   36.0336 H   0  0  0  0  0  0
   64.3181   24.2817   39.5009 H   0  0  0  0  0  0
   62.1636   17.0820   36.6430 H   0  0  0  0  0  0
   62.9799   20.4813   40.8943 H   0  0  0  0  0  0
   64.4540   20.3572   42.9800 H   0  0  0  0  0  0
   66.7345   20.0153   40.9476 H   0  0  0  0  0  0
   65.5943   17.8939   42.8972 H   0  0  0  0  0  0
   65.4863   18.0658   39.8439 H   0  0  0  0  0  0
   64.1512   16.1166   39.8001 H   0  0  0  0  0  0
   65.4429   15.7347   40.9885 H   0  0  0  0  0  0
   64.3216   22.5958   41.8960 H   0  0  0  0  0  0
   67.3889   21.1571   43.0484 H   0  0  0  0  0  0
   63.1663   15.1053   41.9031 H   0  0  0  0  0  0
   67.2651   17.2380   43.7192 H   0  0  0  0  0  0
   69.6191   16.2810   43.7376 H   0  0  0  0  0  0
   69.5379   16.4941   40.6680 H   0  0  0  0  0  0
   69.3737   13.8424   42.2486 H   0  0  0  0  0  0
   67.1980   15.3467   40.6956 H   0  0  0  0  0  0
   67.4208   12.5931   41.6580 H   0  0  0  0  0  0
   66.0005   13.4370   42.3631 H   0  0  0  0  0  0
   69.5184   18.7744   43.5035 H   0  0  0  0  0  0
   71.7818   16.6065   41.7491 H   0  0  0  0  0  0
   65.4075   12.3989   40.1229 H   0  0  0  0  0  0
   69.3061   12.0801   40.9478 H   0  0  0  0  0  0
   71.8515   11.7541   40.7975 H   0  0  0  0  0  0
   71.8520   14.5446   39.4864 H   0  0  0  0  0  0
   72.4713   11.8643   38.0767 H   0  0  0  0  0  0
   70.0425   13.6902   37.7892 H   0  0  0  0  0  0
   70.4712   12.4540   35.7354 H   0  0  0  0  0  0
   70.6199   10.9147   36.6491 H   0  0  0  0  0  0
   71.0532   13.0497   42.7557 H   0  0  0  0  0  0
   73.9325   13.9552   40.7339 H   0  0  0  0  0  0
   68.2839   11.1539   35.6668 H   0  0  0  0  0  0
   73.7533   12.1790   36.7687 H   0  0  0  0  0  0
   75.3296   13.5063   35.2640 H   0  0  0  0  0  0
   73.3426   15.8368   35.5253 H   0  0  0  0  0  0
   73.8609   14.0841   33.0586 H   0  0  0  0  0  0
   71.3491   14.1525   34.8351 H   0  0  0  0  0  0
   72.0147   13.1653   32.1445 H   0  0  0  0  0  0
   71.5656   11.7978   33.2191 H   0  0  0  0  0  0
   75.6028   13.9665   37.7044 H   0  0  0  0  0  0
   75.7336   16.4618   35.0637 H   0  0  0  0  0  0
   69.5147   12.7757   32.1053 H   0  0  0  0  0  0
   73.4674   14.8344   31.4696 H   0  0  0  0  0  0
   73.9023   17.0827   30.2710 H   0  0  0  0  0  0
   72.3265   18.3016   32.6488 H   0  0  0  0  0  0
   71.5118   18.0603   29.6861 H   0  0  0  0  0  0
   70.3417   16.5982   32.1152 H   0  0  0  0  0  0
   69.6017   16.8758   29.2128 H   0  0  0  0  0  0
   69.5171   15.2148   29.8915 H   0  0  0  0  0  0
   75.5250   16.4922   32.0499 H   0  0  0  0  0  0
   74.0495   19.8108   31.6715 H   0  0  0  0  0  0
   67.3170   16.4242   30.1999 H   0  0  0  0  0  0
  1  2  1  0  0  0
  1 10  1  0  0  0
  1 86  1  0  0  0
  1 89  1  0  0  0
  2  3  1  0  0  0
  2  7  1  0  0  0
  2 90  1  0  0  0
  3  4  1  0  0  0
  3  8  1  0  0  0
  3 91  1  0  0  0
  4  5  1  0  0  0
  4  9  1  0  0  0
  4 92  1  0  0  0
  5  6  1  0  0  0
  5 10  1  0  0  0
  5 93  1  0  0  0
  6 11  1  0  0  0
  6 94  1  0  0  0
  6 95  1  0  0  0
  7 96  1  0  0  0
  8 97  1  0  0  0
  9 12  1  0  0  0
 11 98  1  0  0  0
 12 13  1  0  0  0
 12 21  1  0  0  0
 12 99  1  0  0  0
 13 14  1  0  0  0
 13 18  1  0  0  0
 13100  1  0  0  0
 14 15  1  0  0  0
 14 19  1  0  0  0
 14101  1  0  0  0
 15 16  1  0  0  0
 15 20  1  0  0  0
 15102  1  0  0  0
 16 17  1  0  0  0
 16 21  1  0  0  0
 16103  1  0  0  0
 17 22  1  0  0  0
 17104  1  0  0  0
 17105  1  0  0  0
 18106  1  0  0  0
 19107  1  0  0  0
 20 23  1  0  0  0
 22108  1  0  0  0
 23 24  1  0  0  0
 23 32  1  0  0  0
 23109  1  0  0  0
 24 25  1  0  0  0
 24 29  1  0  0  0
 24110  1  0  0  0
 25 26  1  0  0  0
 25 30  1  0  0  0
 25111  1  0  0  0
 26 27  1  0  0  0
 26 31  1  0  0  0
 26112  1  0  0  0
 27 28  1  0  0  0
 27 32  1  0  0  0
 27113  1  0  0  0
 28 33  1  0  0  0
 28114  1  0  0  0
 28115  1  0  0  0
 29116  1  0  0  0
 30117  1  0  0  0
 31 34  1  0  0  0
 33118  1  0  0  0
 34 35  1  0  0  0
 34 43  1  0  0  0
 34119  1  0  0  0
 35 36  1  0  0  0
 35 40  1  0  0  0
 35120  1  0  0  0
 36 37  1  0  0  0
 36 41  1  0  0  0
 36121  1  0  0  0
 37 38  1  0  0  0
 37 42  1  0  0  0
 37122  1  0  0  0
 38 39  1  0  0  0
 38 43  1  0  0  0
 38123  1  0  0  0
 39 44  1  0  0  0
 39124  1  0  0  0
 39125  1  0  0  0
 40126  1  0  0  0
 41127  1  0  0  0
 42 45  1  0  0  0
 44128  1  0  0  0
 45 46  1  0  0  0
 45 54  1  0  0  0
 45129  1  0  0  0
 46 47  1  0  0  0
 46 51  1  0  0  0
 46130  1  0  0  0
 47 48  1  0  0  0
 47 52  1  0  0  0
 47131  1  0  0  0
 48 49  1  0  0  0
 48 53  1  0  0  0
 48132  1  0  0  0
 49 50  1  0  0  0
 49 54  1  0  0  0
 49133  1  0  0  0
 50 55  1  0  0  0
 50134  1  0  0  0
 50135  1  0  0  0
 51136  1  0  0  0
 52137  1  0  0  0
 53 56  1  0  0  0
 55138  1  0  0  0
 56 57  1  0  0  0
 56 65  1  0  0  0
 56139  1  0  0  0
 57 58  1  0  0  0
 57 62  1  0  0  0
 57140  1  0  0  0
 58 59  1  0  0  0
 58 63  1  0  0  0
 58141  1  0  0  0
 59 60  1  0  0  0
 59 64  1  0  0  0
 59142  1  0  0  0
 60 61  1  0  0  0
 60 65  1  0  0  0
 60143  1  0  0  0
 61 66  1  0  0  0
 61144  1  0  0  0
 61145  1  0  0  0
 62146  1  0  0  0
 63147  1  0  0  0
 64 67  1  0  0  0
 66148  1  0  0  0
 67 68  1  0  0  0
 67 76  1  0  0  0
 67149  1  0  0  0
 68 69  1  0  0  0
 68 73  1  0  0  0
 68150  1  0  0  0
 69 70  1  0  0  0
 69 74  1  0  0  0
 69151  1  0  0  0
 70 71  1  0  0  0
 70 75  1  0  0  0
 70152  1  0  0  0
 71 72  1  0  0  0
 71 76  1  0  0  0
 71153  1  0  0  0
 72 77  1  0  0  0
 72154  1  0  0  0
 72155  1  0  0  0
 73156  1  0  0  0
 74157  1  0  0  0
 75 78  1  0  0  0
 77158  1  0  0  0
 78 79  1  0  0  0
 78 87  1  0  0  0
 78159  1  0  0  0
 79 80  1  0  0  0
 79 84  1  0  0  0
 79160  1  0  0  0
 80 81  1  0  0  0
 80 85  1  0  0  0
 80161  1  0  0  0
 81 82  1  0  0  0
 81 86  1  0  0  0
 81162  1  0  0  0
 82 83  1  0  0  0
 82 87  1  0  0  0
 82163  1  0  0  0
 83 88  1  0  0  0
 83164  1  0  0  0
 83165  1  0  0  0
 84166  1  0  0  0
 85167  1  0  0  0
 88168  1  0  0  0
M  END
> <s_m_source_file>
../1p2g_ligand.sdf

> <i_m_source_file_index>
1

> <s_epik_input>
W0NAQEhdMTJbQ0BIXShbT0hdKVtDQEBIXShbT0hdKVtDQEBIXShbQ0BIXShPMSlbQ0gyXVtPSF0pT1tDQEBIXTNbQ0BIXShbT0hdKVtDQEBIXShbT0hdKVtDQEBIXShbQ0BIXShPMylbQ0gyXVtPSF0pT1tDQEBIXTRbQ0BIXShbT0hdKVtDQEBIXShbT0hdKVtDQEBIXShbQ0BIXShPNClbQ0gyXVtPSF0pT1tDQEBIXTVbQ0BIXShbT0hdKVtDQEBIXShbT0hdKVtDQEBIXShbQ0BIXShPNSlbQ0gyXVtPSF0pT1tDQEBIXTZbQ0BIXShbT0hdKVtDQEBIXShbT0hdKVtDQEBIXShbQ0BIXShPNilbQ0gyXVtPSF0pT1tDQEBIXTdbQ0BIXShbT0hdKVtDQEBIXShbT0hdKVtDQEBIXShbQ0BIXShPNylbQ0gyXVtPSF0pT1tDQEBIXThbQ0BIXShbT0hdKVtDQEBIXShbT0hdKVtDQEBIXShbQ0BIXShPOClbQ0gyXVtPSF0pT1tDQEBIXTlbQ0BIXShbT0hdKVtDQEBIXShbT0hdKVtDQEhdKE8yKVtDQEhdKE85KVtDSDJdW09IXQ==

> <s_epik_cmdline>
J2VwaWtfYXBwJywgJy1pbWFlJywgJ2xpZ2FuZF9wcm8ubWFlJywgJy1vbWFlJywgJ2xpZ2FuZF9wcmVwLm1hZScsICctbXMnLCAnMScsICctcGgnLCAnNycsICctcGh0JywgJzAuNScsICctbnQn

> <s_epik_pKa_notes>
Molecule size exceeds maximum supported for generating protonation states

> <s_epik_Chemistry_Notes>
This compound contains an acetal/aminal-like group ( X-CH(R)-Y where X, Y are N, S, or O) that may be acid/base labile, releasing an aldehyde.

$$$$
