1p4u_ligand
                    3D
 Schrodinger Suite 2020-3.
108109  0  0  1  0            999 V2000
   14.5640   70.0830   49.5450 N   0  3  0  0  0  0
   14.8040   69.2450   50.7600 C   0  0  2  0  0  0
   14.6850   67.7780   50.3530 C   0  0  0  0  0  0
   13.5840   67.2810   50.1120 O   0  0  0  0  0  0
   13.7800   69.6010   51.8570 C   0  0  0  0  0  0
   14.1340   69.0060   53.2290 C   0  0  0  0  0  0
   15.2460   68.4580   53.4010 O   0  5  0  0  0  0
   13.2950   69.0950   54.1510 O   0  0  0  0  0  0
   15.8330   67.1070   50.2580 N   0  0  0  0  0  0
   15.9020   65.6990   49.8730 C   0  0  2  0  0  0
   16.1920   64.7780   51.0480 C   0  0  0  0  0  0
   16.6540   65.2140   52.1000 O   0  0  0  0  0  0
   17.0000   65.4710   48.8330 C   0  0  0  0  0  0
   16.6120   65.8580   47.4420 C   0  0  0  0  0  0
   16.4820   67.1940   47.0860 C   0  0  0  0  0  0
   16.3770   64.8770   46.4780 C   0  0  0  0  0  0
   16.1220   67.5540   45.7870 C   0  0  0  0  0  0
   16.0170   65.2240   45.1800 C   0  0  0  0  0  0
   15.8890   66.5680   44.8330 C   0  0  0  0  0  0
   15.9160   63.4930   50.8590 N   0  0  0  0  0  0
   16.1910   62.5260   51.9020 C   0  0  0  0  0  0
   17.6240   62.0730   51.7040 C   0  0  0  0  0  0
   18.3330   62.6360   50.8680 O   0  0  0  0  0  0
   18.0860   61.0530   52.4360 N   0  0  0  0  0  0
   19.4680   60.5870   52.2730 C   0  0  2  0  0  0
   19.6440   59.7350   51.0190 C   0  0  0  0  0  0
   18.6650   59.3210   50.3920 O   0  0  0  0  0  0
   19.6910   59.7660   53.5300 C   0  0  0  0  0  0
   18.3460   59.0920   53.6820 C   0  0  0  0  0  0
   17.3720   60.2400   53.4370 C   0  0  0  0  0  0
   20.8970   59.4860   50.6500 N   0  0  0  0  0  0
   21.1690   58.6330   49.5060 C   0  0  2  0  0  0
   20.7070   57.2480   49.9340 C   0  0  0  0  0  0
   20.8490   56.8730   51.1020 O   0  0  0  0  0  0
   22.6660   58.5720   49.2070 C   0  0  0  0  0  0
   23.2540   59.4650   48.1170 C   0  0  0  0  0  0
   24.7550   59.1760   47.9980 C   0  0  0  0  0  0
   22.5520   59.1910   46.7970 C   0  0  0  0  0  0
   20.1440   56.4980   48.9980 N   0  0  0  0  0  0
   19.6800   55.1530   49.2880 C   0  0  2  0  0  0
   20.2630   54.1940   48.2720 C   0  0  0  0  0  0
   20.3310   54.4990   47.0810 O   0  0  0  0  0  0
   18.1330   55.0830   49.2630 C   0  0  0  0  0  0
   17.6590   53.6570   49.0450 C   0  0  0  0  0  0
   17.5900   55.5930   50.5810 C   0  0  0  0  0  0
   20.6970   53.0350   48.7510 N   0  0  0  0  0  0
   21.2710   52.0440   47.8630 C   0  0  0  0  0  0
   20.5710   50.7240   48.0710 C   0  0  0  0  0  0
   19.7460   50.5910   48.9700 O   0  0  0  0  0  0
   20.8890   49.7390   47.2480 N   0  0  0  0  0  0
   20.2520   48.4390   47.3880 C   0  0  2  0  0  0
   20.7310   47.7870   48.6870 C   0  0  0  0  0  0
   21.7510   48.2610   49.2400 O   0  0  0  0  0  0
   20.5910   47.5600   46.1880 C   0  0  0  0  0  0
   20.0852   46.7499   49.2126 O   0  5  0  0  0  0
   14.6443   71.1471   49.8118 H   0  0  0  0  0  0
   13.5573   69.8785   49.1516 H   0  0  0  0  0  0
   15.3139   69.8397   48.7779 H   0  0  0  0  0  0
   15.8153   69.4446   51.1439 H   0  0  0  0  0  0
   13.7299   70.6939   51.9710 H   0  0  0  0  0  0
   12.7895   69.2162   51.5728 H   0  0  0  0  0  0
   16.7558   67.6610   50.4849 H   0  0  0  0  0  0
   14.8953   65.5013   49.4761 H   0  0  0  0  0  0
   17.8864   66.0654   49.0993 H   0  0  0  0  0  0
   17.2673   64.4042   48.8098 H   0  0  0  0  0  0
   16.6632   67.9700   47.8297 H   0  0  0  0  0  0
   16.4768   63.8251   46.7456 H   0  0  0  0  0  0
   16.0234   68.6061   45.5198 H   0  0  0  0  0  0
   15.8356   64.4476   44.4367 H   0  0  0  0  0  0
   15.6072   66.8458   43.8174 H   0  0  0  0  0  0
   15.4768   63.1638   49.9057 H   0  0  0  0  0  0
   16.0618   63.0010   52.8857 H   0  0  0  0  0  0
   15.4952   61.6791   51.8095 H   0  0  0  0  0  0
   20.1587   61.4351   52.1564 H   0  0  0  0  0  0
   20.5182   59.0600   53.3649 H   0  0  0  0  0  0
   19.9419   60.4358   54.3657 H   0  0  0  0  0  0
   18.2531   58.2871   52.9380 H   0  0  0  0  0  0
   18.2605   58.6681   54.6934 H   0  0  0  0  0  0
   17.1887   60.8448   54.3373 H   0  0  0  0  0  0
   16.4115   59.9041   53.0191 H   0  0  0  0  0  0
   21.7296   59.9295   51.2157 H   0  0  0  0  0  0
   20.6439   59.0411   48.6298 H   0  0  0  0  0  0
   23.2317   58.8415   50.1111 H   0  0  0  0  0  0
   22.9365   57.5523   48.8956 H   0  0  0  0  0  0
   23.1005   60.5242   48.3709 H   0  0  0  0  0  0
   25.2451   59.3798   48.9615 H   0  0  0  0  0  0
   25.1919   59.8203   47.2208 H   0  0  0  0  0  0
   24.9048   58.1206   47.7263 H   0  0  0  0  0  0
   21.4779   59.4037   46.9019 H   0  0  0  0  0  0
   22.6915   58.1357   46.5197 H   0  0  0  0  0  0
   22.9786   59.8353   46.0142 H   0  0  0  0  0  0
   20.0310   56.9124   47.9853 H   0  0  0  0  0  0
   20.0576   54.9143   50.2932 H   0  0  0  0  0  0
   17.7454   55.7017   48.4402 H   0  0  0  0  0  0
   18.0514   53.2824   48.0881 H   0  0  0  0  0  0
   16.5594   53.6353   49.0241 H   0  0  0  0  0  0
   18.0228   53.0203   49.8649 H   0  0  0  0  0  0
   17.9311   56.6262   50.7429 H   0  0  0  0  0  0
   17.9539   54.9542   51.3993 H   0  0  0  0  0  0
   16.4905   55.5692   50.5584 H   0  0  0  0  0  0
   20.6191   52.8285   49.8286 H   0  0  0  0  0  0
   21.1431   52.3685   46.8198 H   0  0  0  0  0  0
   22.3428   51.9314   48.0831 H   0  0  0  0  0  0
   21.6357   49.9033   46.4572 H   0  0  0  0  0  0
   19.1660   48.6114   47.4186 H   0  0  0  0  0  0
   20.2387   48.0461   45.2663 H   0  0  0  0  0  0
   20.0983   46.5827   46.2985 H   0  0  0  0  0  0
   21.6804   47.4174   46.1341 H   0  0  0  0  0  0
  1  2  1  0  0  0
  1 56  1  0  0  0
  1 57  1  0  0  0
  1 58  1  0  0  0
  2  5  1  0  0  0
  2  3  1  0  0  0
  2 59  1  0  0  0
  3  4  2  0  0  0
  3  9  1  0  0  0
  5  6  1  0  0  0
  5 60  1  0  0  0
  5 61  1  0  0  0
  6  7  1  0  0  0
  6  8  2  0  0  0
  9 10  1  0  0  0
  9 62  1  0  0  0
 10 13  1  0  0  0
 10 11  1  0  0  0
 10 63  1  0  0  0
 11 12  2  0  0  0
 11 20  1  0  0  0
 13 14  1  0  0  0
 13 64  1  0  0  0
 13 65  1  0  0  0
 14 15  2  0  0  0
 14 16  1  0  0  0
 15 17  1  0  0  0
 15 66  1  0  0  0
 16 18  2  0  0  0
 16 67  1  0  0  0
 17 19  2  0  0  0
 17 68  1  0  0  0
 18 19  1  0  0  0
 18 69  1  0  0  0
 19 70  1  0  0  0
 20 21  1  0  0  0
 20 71  1  0  0  0
 21 22  1  0  0  0
 21 72  1  0  0  0
 21 73  1  0  0  0
 22 23  2  0  0  0
 22 24  1  0  0  0
 24 25  1  0  0  0
 24 30  1  0  0  0
 25 26  1  0  0  0
 25 28  1  0  0  0
 25 74  1  0  0  0
 26 27  2  0  0  0
 26 31  1  0  0  0
 28 29  1  0  0  0
 28 75  1  0  0  0
 28 76  1  0  0  0
 29 30  1  0  0  0
 29 77  1  0  0  0
 29 78  1  0  0  0
 30 79  1  0  0  0
 30 80  1  0  0  0
 31 32  1  0  0  0
 31 81  1  0  0  0
 32 35  1  0  0  0
 32 33  1  0  0  0
 32 82  1  0  0  0
 33 34  2  0  0  0
 33 39  1  0  0  0
 35 36  1  0  0  0
 35 83  1  0  0  0
 35 84  1  0  0  0
 36 37  1  0  0  0
 36 38  1  0  0  0
 36 85  1  0  0  0
 37 86  1  0  0  0
 37 87  1  0  0  0
 37 88  1  0  0  0
 38 89  1  0  0  0
 38 90  1  0  0  0
 38 91  1  0  0  0
 39 40  1  0  0  0
 39 92  1  0  0  0
 40 43  1  0  0  0
 40 41  1  0  0  0
 40 93  1  0  0  0
 41 42  2  0  0  0
 41 46  1  0  0  0
 43 45  1  0  0  0
 43 44  1  0  0  0
 43 94  1  0  0  0
 44 95  1  0  0  0
 44 96  1  0  0  0
 44 97  1  0  0  0
 45 98  1  0  0  0
 45 99  1  0  0  0
 45100  1  0  0  0
 46 47  1  0  0  0
 46101  1  0  0  0
 47 48  1  0  0  0
 47102  1  0  0  0
 47103  1  0  0  0
 48 49  2  0  0  0
 48 50  1  0  0  0
 50 51  1  0  0  0
 50104  1  0  0  0
 51 54  1  0  0  0
 51 52  1  0  0  0
 51105  1  0  0  0
 52 53  2  0  0  0
 52 55  1  0  0  0
 54106  1  0  0  0
 54107  1  0  0  0
 54108  1  0  0  0
M  CHG  3   1   1   7  -1  55  -1
M  END
> <s_m_source_file>
../1p4u_ligand.sdf

> <i_m_source_file_index>
1

> <s_epik_input>
W2NIXTFbY0hdW2NIXVtjSF1bY0hdYzFbQ0gyXVtDQEhdKFtOSF1DKD1PKVtDQEBIXShbTkgzK10pW0NIMl1DKD1PKVtPSF0pQyg9TylbTkhdW0NIMl1DKD1PKU4yW0NAQEhdKFtDSDJdW0NIMl1bQ0gyXTIpQyg9TylbTkhdW0NAQEhdKFtDSDJdW0NIXShbQ0gzXSlbQ0gzXSlDKD1PKVtOSF1bQ0BASF0oW0NIXShbQ0gzXSlbQ0gzXSlDKD1PKVtOSF1bQ0gyXUMoPU8pW05IXVtDQEBIXShbQ0gzXSlDKD1PKVtPSF0=

> <s_epik_cmdline>
J2VwaWtfYXBwJywgJy1pbWFlJywgJ2xpZ2FuZF9wcm8ubWFlJywgJy1vbWFlJywgJ2xpZ2FuZF9wcmVwLm1hZScsICctbXMnLCAnMScsICctcGgnLCAnNycsICctcGh0JywgJzAuNScsICctbnQn

> <r_epik_Ionization_Penalty>
  0.0211

> <r_epik_Ionization_Penalty_Charging>
  0.0211

> <r_epik_Ionization_Penalty_Neutral>
  0.0000

> <r_epik_State_Penalty>
  0.0167

> <r_epik_Charging_Adjusted_Penalty>
0.037848255615601

> <i_epik_Tot_Q>
-1

> <i_epik_Tot_abs_Q>
3

$$$$
