1p57_ligand
                    3D
 Schrodinger Suite 2020-3.
 32 34  0  0  1  0            999 V2000
   16.3700   -6.1580   25.2670 C   0  0  0  0  0  0
   15.4100   -5.1810   24.8180 C   0  0  0  0  0  0
   15.0090   -4.0920   25.6180 C   0  0  0  0  0  0
   15.5910   -4.0250   26.8490 C   0  0  0  0  0  0
   16.4990   -4.9170   27.3080 C   0  0  0  0  0  0
   16.9190   -5.9940   26.5610 C   0  0  0  0  0  0
   16.7520   -7.2370   24.4510 C   0  0  0  0  0  0
   17.8350   -7.9110   24.6850 N   0  0  0  0  0  0
   16.0360   -7.5980   23.4340 N   0  3  0  0  0  0
   15.4260   -3.1650   27.7850 N   0  0  0  0  0  0
   16.9240   -4.6450   28.5280 N   0  3  0  0  0  0
   16.2160   -3.5530   28.7520 C   0  0  0  0  0  0
   16.2960   -2.8690   29.9730 C   0  0  0  0  0  0
   17.2840   -3.1240   30.9470 C   0  0  0  0  0  0
   17.2930   -2.4500   32.1550 C   0  0  0  0  0  0
   16.3110   -1.4950   32.4270 C   0  0  0  0  0  0
   15.3260   -1.2210   31.4800 C   0  0  0  0  0  0
   15.3250   -1.9020   30.2670 C   0  0  0  0  0  0
   14.3680   -1.6370   29.3000 O   0  0  0  0  0  0
   14.9782   -5.2883   23.8230 H   0  0  0  0  0  0
   14.2834   -3.3541   25.2759 H   0  0  0  0  0  0
   17.6518   -6.6988   26.9539 H   0  0  0  0  0  0
   18.4765   -7.6426   25.5373 H   0  0  0  0  0  0
   18.1121   -8.7511   24.0312 H   0  0  0  0  0  0
   15.1085   -7.0572   23.1946 H   0  0  0  0  0  0
   18.0555   -3.8667   30.7438 H   0  0  0  0  0  0
   18.0655   -2.6640   32.8936 H   0  0  0  0  0  0
   16.3150   -0.9644   33.3791 H   0  0  0  0  0  0
   14.5588   -0.4755   31.6891 H   0  0  0  0  0  0
   14.3829   -2.1855   28.3466 H   0  0  0  0  0  0
   17.6660   -5.2983   29.0104 H   0  0  0  0  0  0
   16.3554   -8.4454   22.8096 H   0  0  0  0  0  0
  1  2  2  0  0  0
  1  6  1  0  0  0
  1  7  1  0  0  0
  2  3  1  0  0  0
  2 20  1  0  0  0
  3  4  2  0  0  0
  3 21  1  0  0  0
  4  5  1  0  0  0
  4 10  1  0  0  0
  5  6  2  0  0  0
  5 11  1  0  0  0
  6 22  1  0  0  0
  7  8  1  0  0  0
  7  9  2  0  0  0
  8 23  1  0  0  0
  8 24  1  0  0  0
  9 25  1  0  0  0
  9 32  1  0  0  0
 10 12  2  0  0  0
 11 12  1  0  0  0
 11 31  1  0  0  0
 12 13  1  0  0  0
 13 14  2  0  0  0
 13 18  1  0  0  0
 14 15  1  0  0  0
 14 26  1  0  0  0
 15 16  2  0  0  0
 15 27  1  0  0  0
 16 17  1  0  0  0
 16 28  1  0  0  0
 17 18  2  0  0  0
 17 29  1  0  0  0
 18 19  1  0  0  0
 19 30  1  0  0  0
M  CHG  2   9   1  11   1
M  END
> <s_m_source_file>
../1p57_ligand.sdf

> <i_m_source_file_index>
1

> <s_epik_input>
W0hdXE49QyhbTkgyXSlcYyhbY0hdW2NIXTEpW2NIXWMoYzEyKVtuSF1jKG4yKS1jM1tjSF1bY0hdW2NIXVtjSF1jM1tPSF0=

> <s_epik_cmdline>
J2VwaWtfYXBwJywgJy1pbWFlJywgJ2xpZ2FuZF9wcm8ubWFlJywgJy1vbWFlJywgJ2xpZ2FuZF9wcmVwLm1hZScsICctbXMnLCAnMScsICctcGgnLCAnNycsICctcGh0JywgJzAuNScsICctbnQn

> <r_epik_Ionization_Penalty>
  0.0014

> <r_epik_Ionization_Penalty_Charging>
  0.0003

> <r_epik_Ionization_Penalty_Neutral>
  0.0011

> <r_epik_State_Penalty>
  0.1712

> <r_epik_Charging_Adjusted_Penalty>
0.171486876075834

> <i_epik_Tot_Q>
2

> <i_epik_Tot_abs_Q>
2

> <s_epik_Chemistry_Notes>
This compound has an imine and may undergo hydrolysis.

$$$$
