1p5e_ligand
                    3D
 Schrodinger Suite 2020-3.
 14 15  0  0  1  0            999 V2000
    7.5360   44.8230   50.5680 C   0  0  0  0  0  0
    8.5410   45.5200   51.1720 C   0  0  0  0  0  0
    8.2050   46.4620   52.1060 C   0  0  0  0  0  0
    6.2100   45.0570   50.8820 C   0  0  0  0  0  0
    4.6190   46.4150   52.2920 N   0  0  0  0  0  0
    5.8490   46.0040   51.8170 C   0  0  0  0  0  0
    6.9050   46.7440   52.4640 C   0  0  0  0  0  0
    6.3710   47.6480   53.3620 N   0  0  0  0  0  0
    4.9620   47.4310   53.2410 N   0  3  0  0  0  0
    4.8580   44.0860   50.0300 Br  0  0  0  0  0  0
    8.0720   43.5450   49.3110 Br  0  0  0  0  0  0
   10.3490   45.1570   50.7170 Br  0  0  0  0  0  0
    9.5980   47.3860   52.9010 Br  0  0  0  0  0  0
    4.1698   47.9582   53.7928 H   0  0  0  0  0  0
  1  2  2  0  0  0
  1  4  1  0  0  0
  1 11  1  0  0  0
  2  3  1  0  0  0
  2 12  1  0  0  0
  3  7  2  0  0  0
  3 13  1  0  0  0
  4  6  2  0  0  0
  4 10  1  0  0  0
  5  9  1  0  0  0
  5  6  1  0  0  0
  6  7  1  0  0  0
  7  8  1  0  0  0
  8  9  2  0  0  0
  9 14  1  0  0  0
M  CHG  1   9   1
M  END
> <s_m_source_file>
../1p5e_ligand.sdf

> <i_m_source_file_index>
1

> <s_epik_input>
QnJjMWMoQnIpYyhCciljKEJyKWMoYzEyKW5uW25IXTI=

> <s_epik_cmdline>
J2VwaWtfYXBwJywgJy1pbWFlJywgJ2xpZ2FuZF9wcm8ubWFlJywgJy1vbWFlJywgJ2xpZ2FuZF9wcmVwLm1hZScsICctbXMnLCAnMScsICctcGgnLCAnNycsICctcGh0JywgJzAuNScsICctbnQn

> <r_lp_tautomer_probability>
1

> <r_epik_Ionization_Penalty>
  0.0105

> <r_epik_Ionization_Penalty_Charging>
  0.0105

> <r_epik_Ionization_Penalty_Neutral>
  0.0000

> <r_epik_State_Penalty>
 -0.0000

> <r_epik_Charging_Adjusted_Penalty>
0.0104732969402217

> <i_epik_Tot_Q>
1

> <i_epik_Tot_abs_Q>
1

$$$$
