1p6d_ligand
                    3D
 Schrodinger Suite 2020-3.
 72 71  0  0  1  0            999 V2000
   39.4560   20.9880   -6.2230 C   0  0  0  0  0  0
   40.5620   21.4080   -5.2260 C   0  0  0  0  0  0
   40.0910   21.2930   -3.7800 C   0  0  0  0  0  0
   40.8840   22.2780   -2.9190 C   0  0  0  0  0  0
   40.0390   22.7410   -1.7150 C   0  0  0  0  0  0
   40.7110   23.4330   -0.5040 C   0  0  0  0  0  0
   41.9210   23.7450   -0.5470 O   0  0  0  0  0  0
   39.9680   23.7460    0.7540 O   0  0  0  0  0  0
   40.4770   24.4210    1.9610 C   0  0  0  0  0  0
   39.3640   24.7110    3.0000 C   0  0  1  0  0  0
   38.1130   24.9980    2.3500 O   0  0  0  0  0  0
   37.7360   26.0540    1.4120 C   0  0  0  0  0  0
   38.5350   26.9790    1.1490 O   0  0  0  0  0  0
   36.3140   26.0330    0.8010 C   0  0  0  0  0  0
   36.2110   26.1580   -0.7230 C   0  0  0  0  0  0
   36.6370   24.8620   -1.4190 C   0  0  0  0  0  0
   36.9530   25.1600   -2.8860 C   0  0  0  0  0  0
   36.7870   23.9150   -3.7850 C   0  0  0  0  0  0
   39.1040   23.5080    3.8630 C   0  0  0  0  0  0
   39.1890   23.4250    5.4190 C   0  0  0  0  0  0
   40.8390   23.0800    6.0040 P   0  0  1  0  0  0
   41.6920   24.2240    6.1430 O   0  0  0  0  0  0
   40.9870   22.1960    7.2440 O   0  5  0  0  0  0
   41.3310   22.0570    4.7520 O   0  0  0  0  0  0
   42.6670   21.9460    4.1510 C   0  0  0  0  0  0
   43.0000   20.6480    3.3230 C   0  0  0  0  0  0
   42.1330   19.8840    2.2640 N   0  3  0  0  0  0
   41.1940   18.8540    2.8190 C   0  0  0  0  0  0
   41.2460   20.6820    1.3830 C   0  0  0  0  0  0
   43.0900   19.1690    1.3280 C   0  0  0  0  0  0
   39.8336   21.0847   -7.2516 H   0  0  0  0  0  0
   38.5783   21.6379   -6.0920 H   0  0  0  0  0  0
   39.1698   19.9428   -6.0342 H   0  0  0  0  0  0
   41.4397   20.7581   -5.3570 H   0  0  0  0  0  0
   40.8483   22.4532   -5.4148 H   0  0  0  0  0  0
   39.0185   21.5307   -3.7237 H   0  0  0  0  0  0
   40.2585   20.2671   -3.4203 H   0  0  0  0  0  0
   41.7970   21.7888   -2.5488 H   0  0  0  0  0  0
   41.1575   23.1555   -3.5233 H   0  0  0  0  0  0
   39.2909   23.4735   -2.0522 H   0  0  0  0  0  0
   39.5287   21.8740   -1.2701 H   0  0  0  0  0  0
   41.2323   23.7850    2.4458 H   0  0  0  0  0  0
   40.9328   25.3817    1.6792 H   0  0  0  0  0  0
   39.6530   25.5867    3.5997 H   0  0  0  0  0  0
   35.8201   25.0833    1.0542 H   0  0  0  0  0  0
   35.7280   26.8707    1.2071 H   0  0  0  0  0  0
   35.1706   26.3794   -1.0032 H   0  0  0  0  0  0
   36.8651   26.9718   -1.0692 H   0  0  0  0  0  0
   37.5315   24.4566   -0.9234 H   0  0  0  0  0  0
   35.8201   24.1278   -1.3589 H   0  0  0  0  0  0
   36.2727   25.9411   -3.2563 H   0  0  0  0  0  0
   37.9929   25.5078   -2.9738 H   0  0  0  0  0  0
   37.0247   24.1800   -4.8258 H   0  0  0  0  0  0
   35.7489   23.5559   -3.7259 H   0  0  0  0  0  0
   37.4692   23.1225   -3.4434 H   0  0  0  0  0  0
   38.0707   23.1634    3.7099 H   0  0  0  0  0  0
   39.8030   22.7034    3.5907 H   0  0  0  0  0  0
   38.8715   24.3836    5.8552 H   0  0  0  0  0  0
   38.5298   22.6217    5.7799 H   0  0  0  0  0  0
   42.8245   22.7797    3.4509 H   0  0  0  0  0  0
   43.4296   21.9832    4.9429 H   0  0  0  0  0  0
   43.8932   20.8257    2.7061 H   0  0  0  0  0  0
   43.1908   19.8123    4.0123 H   0  0  0  0  0  0
   40.4828   19.3378    3.5046 H   0  0  0  0  0  0
   41.7681   18.0907    3.3648 H   0  0  0  0  0  0
   40.6427   18.3783    1.9945 H   0  0  0  0  0  0
   40.5186   21.2330    1.9972 H   0  0  0  0  0  0
   40.7112   20.0101    0.6956 H   0  0  0  0  0  0
   41.8504   21.3947    0.8028 H   0  0  0  0  0  0
   43.7851   18.5516    1.9159 H   0  0  0  0  0  0
   43.6589   19.9109    0.7484 H   0  0  0  0  0  0
   42.5196   18.5263    0.6413 H   0  0  0  0  0  0
  1  2  1  0  0  0
  1 31  1  0  0  0
  1 32  1  0  0  0
  1 33  1  0  0  0
  2  3  1  0  0  0
  2 34  1  0  0  0
  2 35  1  0  0  0
  3  4  1  0  0  0
  3 36  1  0  0  0
  3 37  1  0  0  0
  4  5  1  0  0  0
  4 38  1  0  0  0
  4 39  1  0  0  0
  5  6  1  0  0  0
  5 40  1  0  0  0
  5 41  1  0  0  0
  6  7  2  0  0  0
  6  8  1  0  0  0
  8  9  1  0  0  0
  9 10  1  0  0  0
  9 42  1  0  0  0
  9 43  1  0  0  0
 10 11  1  0  0  0
 10 19  1  0  0  0
 10 44  1  0  0  0
 11 12  1  0  0  0
 12 13  2  0  0  0
 12 14  1  0  0  0
 14 15  1  0  0  0
 14 45  1  0  0  0
 14 46  1  0  0  0
 15 16  1  0  0  0
 15 47  1  0  0  0
 15 48  1  0  0  0
 16 17  1  0  0  0
 16 49  1  0  0  0
 16 50  1  0  0  0
 17 18  1  0  0  0
 17 51  1  0  0  0
 17 52  1  0  0  0
 18 53  1  0  0  0
 18 54  1  0  0  0
 18 55  1  0  0  0
 19 20  1  0  0  0
 19 56  1  0  0  0
 19 57  1  0  0  0
 20 21  1  0  0  0
 20 58  1  0  0  0
 20 59  1  0  0  0
 21 22  2  0  0  0
 21 23  1  0  0  0
 21 24  1  0  0  0
 24 25  1  0  0  0
 25 26  1  0  0  0
 25 60  1  0  0  0
 25 61  1  0  0  0
 26 27  1  0  0  0
 26 62  1  0  0  0
 26 63  1  0  0  0
 27 28  1  0  0  0
 27 29  1  0  0  0
 27 30  1  0  0  0
 28 64  1  0  0  0
 28 65  1  0  0  0
 28 66  1  0  0  0
 29 67  1  0  0  0
 29 68  1  0  0  0
 29 69  1  0  0  0
 30 70  1  0  0  0
 30 71  1  0  0  0
 30 72  1  0  0  0
M  CHG  2  23  -1  27   1
M  END
> <s_m_source_file>
../1p6d_ligand.sdf

> <i_m_source_file_index>
1

> <s_epik_input>
W0NIM11bQ0gyXVtDSDJdW0NIMl1bQ0gyXUMoPU8pT1tDSDJdW0NAQEhdKE9DKD1PKVtDSDJdW0NIMl1bQ0gyXVtDSDJdW0NIM10pW0NIMl1bQ0gyXVtQQEBdKD1PKShbT0hdKU9bQ0gyXVtDSDJdW04rXShbQ0gzXSkoW0NIM10pW0NIM10=

> <s_epik_cmdline>
J2VwaWtfYXBwJywgJy1pbWFlJywgJ2xpZ2FuZF9wcm8ubWFlJywgJy1vbWFlJywgJ2xpZ2FuZF9wcmVwLm1hZScsICctbXMnLCAnMScsICctcGgnLCAnNycsICctcGh0JywgJzAuNScsICctbnQn

> <r_lp_tautomer_probability>
1

> <r_epik_Ionization_Penalty>
  0.0000

> <r_epik_Ionization_Penalty_Charging>
  0.0000

> <r_epik_Ionization_Penalty_Neutral>
  0.0000

> <r_epik_State_Penalty>
 -0.0000

> <r_epik_Charging_Adjusted_Penalty>
2.20165673012702e-06

> <i_epik_Tot_Q>
0

> <i_epik_Tot_abs_Q>
2

> <s_epik_Chemistry_Notes>
This compound has an ester and may undergo hydrolysis at high or low pH.

$$$$
