1p6e_ligand
                    3D
 Schrodinger Suite 2020-3.
 64 63  0  0  1  0            999 V2000
   41.5130   21.3400   -4.8090 C   0  0  0  0  0  0
   41.1310   22.6980   -4.1460 C   0  0  0  0  0  0
   40.5620   22.5520   -2.7150 C   0  0  0  0  0  0
   41.3530   23.5270   -1.8280 C   0  0  0  0  0  0
   41.0450   23.6920   -0.3220 C   0  0  0  0  0  0
   41.8350   24.4190    0.3230 O   0  0  0  0  0  0
   39.8940   23.0260    0.4090 O   0  0  0  0  0  0
   39.5420   22.9120    1.8490 C   0  0  0  0  0  0
   39.2150   24.2070    2.6180 C   0  0  1  0  0  0
   38.0140   24.7400    1.9900 O   0  0  0  0  0  0
   37.9040   25.8290    0.9800 C   0  0  0  0  0  0
   38.7270   26.7760    1.0140 O   0  0  0  0  0  0
   36.5150   26.0380    0.2940 C   0  0  0  0  0  0
   36.4540   25.9970   -1.2460 C   0  0  0  0  0  0
   36.7440   24.5750   -1.7910 C   0  0  0  0  0  0
   37.0630   24.5790   -3.3080 C   0  0  0  0  0  0
   39.0260   24.2420    4.1780 C   0  0  0  0  0  0
   39.4480   23.1550    5.0690 O   0  0  0  0  0  0
   40.9100   22.9500    5.8300 P   0  0  1  0  0  0
   41.9920   24.3750    6.1020 S   0  5  0  0  0  0
   40.7560   21.9030    7.4600 S   0  0  0  0  0  0
   41.4750   21.9360    4.6340 O   0  0  0  0  0  0
   42.7790   21.9370    3.9290 C   0  0  0  0  0  0
   43.2030   20.5880    3.2400 C   0  0  0  0  0  0
   42.4160   19.8370    2.0870 N   0  3  0  0  0  0
   43.1230   18.5480    1.7160 C   0  0  0  0  0  0
   40.9950   19.3930    2.4450 C   0  0  0  0  0  0
   42.4610   20.5870    0.7590 C   0  0  0  0  0  0
   41.9080   21.5234   -5.8191 H   0  0  0  0  0  0
   40.6206   20.7003   -4.8748 H   0  0  0  0  0  0
   42.2800   20.8380   -4.2009 H   0  0  0  0  0  0
   42.0234   23.3377   -4.0802 H   0  0  0  0  0  0
   40.3640   23.2000   -4.7541 H   0  0  0  0  0  0
   39.4914   22.8046   -2.7186 H   0  0  0  0  0  0
   40.6929   21.5149   -2.3724 H   0  0  0  0  0  0
   42.4168   23.2472   -1.8336 H   0  0  0  0  0  0
   41.2409   24.5499   -2.2168 H   0  0  0  0  0  0
   38.6480   22.2806    1.9590 H   0  0  0  0  0  0
   40.3811   22.4582    2.3968 H   0  0  0  0  0  0
   40.1158   24.8231    2.4799 H   0  0  0  0  0  0
   35.8194   25.2541    0.6282 H   0  0  0  0  0  0
   36.1149   27.0250    0.5693 H   0  0  0  0  0  0
   35.4510   26.2994   -1.5814 H   0  0  0  0  0  0
   37.2031   26.6873   -1.6612 H   0  0  0  0  0  0
   37.6096   24.1492   -1.2624 H   0  0  0  0  0  0
   35.8646   23.9342   -1.6299 H   0  0  0  0  0  0
   37.2605   23.5503   -3.6438 H   0  0  0  0  0  0
   37.9500   25.2023   -3.4945 H   0  0  0  0  0  0
   36.2049   24.9872   -3.8620 H   0  0  0  0  0  0
   39.5680   25.1042    4.5937 H   0  0  0  0  0  0
   37.9558   24.3324    4.4158 H   0  0  0  0  0  0
   42.7627   22.6918    3.1290 H   0  0  0  0  0  0
   43.5814   22.1761    4.6424 H   0  0  0  0  0  0
   44.1869   20.7127    2.7643 H   0  0  0  0  0  0
   43.2600   19.7918    3.9968 H   0  0  0  0  0  0
   43.1686   17.8887    2.5953 H   0  0  0  0  0  0
   44.1437   18.7749    1.3744 H   0  0  0  0  0  0
   42.5695   18.0454    0.9091 H   0  0  0  0  0  0
   41.0092   18.8582    3.4061 H   0  0  0  0  0  0
   40.6106   18.7256    1.6596 H   0  0  0  0  0  0
   40.3444   20.2763    2.5264 H   0  0  0  0  0  0
   43.4970   20.8862    0.5418 H   0  0  0  0  0  0
   41.8261   21.4831    0.8223 H   0  0  0  0  0  0
   42.0923   19.9324   -0.0445 H   0  0  0  0  0  0
  1  2  1  0  0  0
  1 29  1  0  0  0
  1 30  1  0  0  0
  1 31  1  0  0  0
  2  3  1  0  0  0
  2 32  1  0  0  0
  2 33  1  0  0  0
  3  4  1  0  0  0
  3 34  1  0  0  0
  3 35  1  0  0  0
  4  5  1  0  0  0
  4 36  1  0  0  0
  4 37  1  0  0  0
  5  6  2  0  0  0
  5  7  1  0  0  0
  7  8  1  0  0  0
  8  9  1  0  0  0
  8 38  1  0  0  0
  8 39  1  0  0  0
  9 10  1  0  0  0
  9 17  1  0  0  0
  9 40  1  0  0  0
 10 11  1  0  0  0
 11 12  2  0  0  0
 11 13  1  0  0  0
 13 14  1  0  0  0
 13 41  1  0  0  0
 13 42  1  0  0  0
 14 15  1  0  0  0
 14 43  1  0  0  0
 14 44  1  0  0  0
 15 16  1  0  0  0
 15 45  1  0  0  0
 15 46  1  0  0  0
 16 47  1  0  0  0
 16 48  1  0  0  0
 16 49  1  0  0  0
 17 18  1  0  0  0
 17 50  1  0  0  0
 17 51  1  0  0  0
 18 19  1  0  0  0
 19 20  1  0  0  0
 19 21  2  0  0  0
 19 22  1  0  0  0
 22 23  1  0  0  0
 23 24  1  0  0  0
 23 52  1  0  0  0
 23 53  1  0  0  0
 24 25  1  0  0  0
 24 54  1  0  0  0
 24 55  1  0  0  0
 25 26  1  0  0  0
 25 27  1  0  0  0
 25 28  1  0  0  0
 26 56  1  0  0  0
 26 57  1  0  0  0
 26 58  1  0  0  0
 27 59  1  0  0  0
 27 60  1  0  0  0
 27 61  1  0  0  0
 28 62  1  0  0  0
 28 63  1  0  0  0
 28 64  1  0  0  0
M  CHG  2  20  -1  25   1
M  END
> <s_m_source_file>
../1p6e_ligand.sdf

> <i_m_source_file_index>
1

> <s_epik_input>
W0NIM11bQ0gyXVtDSDJdW0NIMl1DKD1PKU9bQ0gyXVtDQEBIXShPQyg9TylbQ0gyXVtDSDJdW0NIMl1bQ0gzXSlbQ0gyXU9bUEBdKD1TKShbU0hdKU9bQ0gyXVtDSDJdW04rXShbQ0gzXSkoW0NIM10pW0NIM10=

> <s_epik_cmdline>
J2VwaWtfYXBwJywgJy1pbWFlJywgJ2xpZ2FuZF9wcm8ubWFlJywgJy1vbWFlJywgJ2xpZ2FuZF9wcmVwLm1hZScsICctbXMnLCAnMScsICctcGgnLCAnNycsICctcGh0JywgJzAuNScsICctbnQn

> <r_lp_tautomer_probability>
1

> <r_epik_Ionization_Penalty>
  0.0000

> <r_epik_Ionization_Penalty_Charging>
  0.0000

> <r_epik_Ionization_Penalty_Neutral>
  0.0000

> <r_epik_State_Penalty>
 -0.0000

> <r_epik_Charging_Adjusted_Penalty>
1.748766515801e-06

> <i_epik_Tot_Q>
0

> <i_epik_Tot_abs_Q>
2

> <s_epik_Chemistry_Notes>
This compound has an ester and may undergo hydrolysis at high or low pH.

$$$$
