1p93_ligand
                    3D
 Schrodinger Suite 2020-3.
 57 60  0  0  1  0            999 V2000
   45.3620   11.6490    1.4280 C   0  0  0  0  0  0
   44.5080   11.6060    2.5580 C   0  0  0  0  0  0
   43.2750   10.7160    2.5210 C   0  0  0  0  0  0
   43.0340    9.8980    1.2260 C   0  0  0  0  0  0
   43.8680    9.9340    0.1110 C   0  0  0  0  0  0
   43.5710    9.0470   -1.2390 C   0  0  0  0  0  0
   43.6360    9.9620   -2.5010 C   0  0  0  0  0  0
   44.9910   10.8500   -2.6160 C   0  0  2  0  0  0
   45.2330   11.7580   -1.3120 C   0  0  1  0  0  0
   45.1930   10.8430    0.0490 C   0  0  1  0  0  0
   46.5450   12.6900   -1.4270 C   0  0  2  0  0  0
   46.5410   13.5010   -2.7560 C   0  0  0  0  0  0
   46.2500   12.7010   -4.1270 C   0  0  1  0  0  0
   44.9760   11.7950   -3.9210 C   0  0  1  0  0  0
   44.8000   11.1280   -5.3530 C   0  0  0  0  0  0
   44.8440   12.3550   -6.2390 C   0  0  2  0  0  0
   45.7500   13.4130   -5.4670 C   0  0  2  0  0  0
   47.6290   11.8760   -4.4420 C   0  0  0  0  0  0
   46.4090    9.8030    0.0310 C   0  0  0  0  0  0
   46.7980   14.1950   -6.3250 C   0  0  0  0  0  0
   47.6820   15.2200   -5.6550 C   0  0  0  0  0  0
   43.3910   12.8960   -6.5150 C   0  0  0  0  0  0
   44.1630   12.5830   -1.1720 F   0  0  0  0  0  0
   42.4370   10.6010    3.4880 O   0  0  0  0  0  0
   47.7590   12.0980   -1.3080 O   0  0  0  0  0  0
   45.0280   14.5770   -5.2180 O   0  0  0  0  0  0
   46.8780   13.9440   -7.5680 O   0  0  0  0  0  0
   48.5160   15.7820   -6.5820 O   0  0  0  0  0  0
   46.2568   12.2887    1.4389 H   0  0  0  0  0  0
   44.7406   12.2113    3.4465 H   0  0  0  0  0  0
   42.1383    9.2595    1.2225 H   0  0  0  0  0  0
   44.3256    8.2516   -1.3285 H   0  0  0  0  0  0
   42.5699    8.5965   -1.1689 H   0  0  0  0  0  0
   43.5813    9.3410   -3.4073 H   0  0  0  0  0  0
   42.7910   10.6661   -2.4874 H   0  0  0  0  0  0
   45.8244   10.1370   -2.7002 H   0  0  0  0  0  0
   46.6306   13.2884   -0.5080 H   0  0  0  0  0  0
   45.7656   14.2798   -2.7080 H   0  0  0  0  0  0
   47.5246   13.9715   -2.9014 H   0  0  0  0  0  0
   44.0754   12.3663   -3.6516 H   0  0  0  0  0  0
   45.6248   10.4228   -5.5329 H   0  0  0  0  0  0
   43.8419   10.5890   -5.3912 H   0  0  0  0  0  0
   45.2638   12.0907   -7.2208 H   0  0  0  0  0  0
   47.9792   11.3829   -3.5232 H   0  0  0  0  0  0
   48.4000   12.5739   -4.8004 H   0  0  0  0  0  0
   47.4340   11.1171   -5.2140 H   0  0  0  0  0  0
   46.3809    9.1902    0.9441 H   0  0  0  0  0  0
   47.3609   10.3526   -0.0126 H   0  0  0  0  0  0
   46.3211    9.1513   -0.8508 H   0  0  0  0  0  0
   47.0567   16.0039   -5.2027 H   0  0  0  0  0  0
   48.2812   14.7319   -4.8723 H   0  0  0  0  0  0
   42.8095   12.1294   -7.0481 H   0  0  0  0  0  0
   43.4493   13.8059   -7.1303 H   0  0  0  0  0  0
   42.8994   13.1305   -5.5593 H   0  0  0  0  0  0
   47.9812   11.4699   -0.4327 H   0  0  0  0  0  0
   44.1178   14.5384   -4.6015 H   0  0  0  0  0  0
   49.2366   16.5550   -6.2766 H   0  0  0  0  0  0
  1  2  2  0  0  0
  1 10  1  0  0  0
  1 29  1  0  0  0
  2  3  1  0  0  0
  2 30  1  0  0  0
  3  4  1  0  0  0
  3 24  2  0  0  0
  4  5  2  0  0  0
  4 31  1  0  0  0
  5  6  1  0  0  0
  5 10  1  0  0  0
  6  7  1  0  0  0
  6 32  1  0  0  0
  6 33  1  0  0  0
  7  8  1  0  0  0
  7 34  1  0  0  0
  7 35  1  0  0  0
  8  9  1  0  0  0
  8 14  1  0  0  0
  8 36  1  0  0  0
  9 10  1  0  0  0
  9 11  1  0  0  0
  9 23  1  0  0  0
 10 19  1  0  0  0
 11 12  1  0  0  0
 11 25  1  0  0  0
 11 37  1  0  0  0
 12 13  1  0  0  0
 12 38  1  0  0  0
 12 39  1  0  0  0
 13 14  1  0  0  0
 13 17  1  0  0  0
 13 18  1  0  0  0
 14 15  1  0  0  0
 14 40  1  0  0  0
 15 16  1  0  0  0
 15 41  1  0  0  0
 15 42  1  0  0  0
 16 17  1  0  0  0
 16 22  1  0  0  0
 16 43  1  0  0  0
 17 20  1  0  0  0
 17 26  1  0  0  0
 18 44  1  0  0  0
 18 45  1  0  0  0
 18 46  1  0  0  0
 19 47  1  0  0  0
 19 48  1  0  0  0
 19 49  1  0  0  0
 20 21  1  0  0  0
 20 27  2  0  0  0
 21 28  1  0  0  0
 21 50  1  0  0  0
 21 51  1  0  0  0
 22 52  1  0  0  0
 22 53  1  0  0  0
 22 54  1  0  0  0
 25 55  1  0  0  0
 26 56  1  0  0  0
 28 57  1  0  0  0
M  END
> <s_m_source_file>
../1p93_ligand.sdf

> <i_m_source_file_index>
1

> <s_epik_input>
W0NIXT0xQyg9TylbQ0hdPVtDSF1bQ0BAXTIoW0NIM10pQzFbQ0gyXVtDSDJdW0NASF0oW0NAQF0yM0YpW0NASF00W0NAXShbQ0gzXSkoW0NIMl1bQ0BASF0zW09IXSlbQ0BdKFtPSF0pKFtDQEBIXShbQ0gyXTQpW0NIM10pQyg9TylbQ0gyXVtPSF0=

> <s_epik_cmdline>
J2VwaWtfYXBwJywgJy1pbWFlJywgJ2xpZ2FuZF9wcm8ubWFlJywgJy1vbWFlJywgJ2xpZ2FuZF9wcmVwLm1hZScsICctbXMnLCAnMScsICctcGgnLCAnNycsICctcGh0JywgJzAuNScsICctbnQn

> <r_lp_tautomer_probability>
1

> <r_epik_Ionization_Penalty>
  0.0000

> <r_epik_Ionization_Penalty_Charging>
  0.0000

> <r_epik_Ionization_Penalty_Neutral>
  0.0000

> <r_epik_State_Penalty>
 -0.0000

> <r_epik_Charging_Adjusted_Penalty>
0

> <i_epik_Tot_Q>
0

> <i_epik_Tot_abs_Q>
0

$$$$
