1pau_ligand
                    3D
 Schrodinger Suite 2020-3.
 64 63  0  0  1  0            999 V2000
   41.7980   98.3890   26.8380 C   0  0  0  0  0  0
   40.5880   98.4010   26.6070 O   0  0  0  0  0  0
   42.3080   98.5960   28.2510 C   0  0  0  0  0  0
   42.7160   98.1890   25.9010 N   0  0  0  0  0  0
   42.3630   97.9900   24.5040 C   0  0  2  0  0  0
   41.8710   96.5740   24.2070 C   0  0  0  0  0  0
   42.4600   95.5900   24.6730 O   0  0  0  0  0  0
   43.5540   98.3380   23.6060 C   0  0  0  0  0  0
   43.9000   99.8220   23.6320 C   0  0  0  0  0  0
   43.0170  100.6550   23.9260 O   0  5  0  0  0  0
   45.0610  100.1610   23.3410 O   0  0  0  0  0  0
   40.8040   96.4900   23.4150 N   0  0  0  0  0  0
   40.1920   95.2280   23.0130 C   0  0  2  0  0  0
   39.7660   95.3490   21.5530 C   0  0  0  0  0  0
   39.6060   96.4590   21.0530 O   0  0  0  0  0  0
   38.9780   94.9250   23.8920 C   0  0  0  0  0  0
   39.3260   94.6850   25.3530 C   0  0  0  0  0  0
   38.1240   94.3360   26.2100 C   0  0  0  0  0  0
   37.2110   93.6300   25.7320 O   0  5  0  0  0  0
   38.1000   94.7580   27.3810 O   0  0  0  0  0  0
   39.5800   94.2180   20.8750 N   0  0  0  0  0  0
   39.1860   94.2150   19.4640 C   0  0  2  0  0  0
   37.7060   93.8930   19.2350 C   0  0  0  0  0  0
   37.0550   93.3210   20.1050 O   0  0  0  0  0  0
   40.0460   93.2320   18.6560 C   0  0  0  0  0  0
   41.4810   93.7320   18.5650 C   0  0  0  0  0  0
   40.0030   91.8520   19.2950 C   0  0  0  0  0  0
   37.1930   94.2630   18.0610 N   0  0  0  0  0  0
   35.7910   94.0450   17.6710 C   0  0  2  0  0  0
   35.6730   93.2430   16.3870 C   0  0  0  0  0  0
   35.3140   91.8900   16.7020 O   0  0  0  0  0  0
   35.0860   95.3760   17.4430 C   0  0  0  0  0  0
   34.3850   95.8750   18.6600 C   0  0  0  0  0  0
   34.0670   95.0600   19.5500 O   0  5  0  0  0  0
   34.1280   97.0890   18.7140 O   0  0  0  0  0  0
   41.4560   98.7502   28.9294 H   0  0  0  0  0  0
   42.9632   99.4792   28.2786 H   0  0  0  0  0  0
   42.8748   97.7088   28.5699 H   0  0  0  0  0  0
   43.7720   98.1765   26.2086 H   0  0  0  0  0  0
   41.5241   98.6830   24.3429 H   0  0  0  0  0  0
   44.4411   97.7805   23.9411 H   0  0  0  0  0  0
   43.3210   98.0657   22.5660 H   0  0  0  0  0  0
   40.3836   97.4427   23.0605 H   0  0  0  0  0  0
   40.9450   94.4369   23.1441 H   0  0  0  0  0  0
   38.2790   95.7736   23.8569 H   0  0  0  0  0  0
   38.4744   94.0196   23.5223 H   0  0  0  0  0  0
   40.0382   93.8501   25.4279 H   0  0  0  0  0  0
   39.7801   95.5933   25.7758 H   0  0  0  0  0  0
   39.7310   93.2665   21.4059 H   0  0  0  0  0  0
   39.3670   95.2578   19.1644 H   0  0  0  0  0  0
   39.6452   93.1544   17.6345 H   0  0  0  0  0  0
   41.4930   94.7294   18.1013 H   0  0  0  0  0  0
   42.0737   93.0360   17.9532 H   0  0  0  0  0  0
   41.9131   93.7919   19.5748 H   0  0  0  0  0  0
   38.9601   91.5070   19.3526 H   0  0  0  0  0  0
   40.4286   91.9036   20.3080 H   0  0  0  0  0  0
   40.5892   91.1477   18.6864 H   0  0  0  0  0  0
   37.8867   94.7583   17.3656 H   0  0  0  0  0  0
   35.3569   93.4849   18.5123 H   0  0  0  0  0  0
   34.8983   93.6890   15.7460 H   0  0  0  0  0  0
   36.6374   93.2537   15.8580 H   0  0  0  0  0  0
   35.1818   91.1540   15.8953 H   0  0  0  0  0  0
   35.8240   96.1356   17.1455 H   0  0  0  0  0  0
   34.3359   95.2619   16.6466 H   0  0  0  0  0  0
  1  2  2  0  0  0
  1  3  1  0  0  0
  1  4  1  0  0  0
  3 36  1  0  0  0
  3 37  1  0  0  0
  3 38  1  0  0  0
  4  5  1  0  0  0
  4 39  1  0  0  0
  5  6  1  0  0  0
  5  8  1  0  0  0
  5 40  1  0  0  0
  6  7  2  0  0  0
  6 12  1  0  0  0
  8  9  1  0  0  0
  8 41  1  0  0  0
  8 42  1  0  0  0
  9 10  1  0  0  0
  9 11  2  0  0  0
 12 13  1  0  0  0
 12 43  1  0  0  0
 13 14  1  0  0  0
 13 16  1  0  0  0
 13 44  1  0  0  0
 14 15  2  0  0  0
 14 21  1  0  0  0
 16 17  1  0  0  0
 16 45  1  0  0  0
 16 46  1  0  0  0
 17 18  1  0  0  0
 17 47  1  0  0  0
 17 48  1  0  0  0
 18 19  1  0  0  0
 18 20  2  0  0  0
 21 22  1  0  0  0
 21 49  1  0  0  0
 22 23  1  0  0  0
 22 25  1  0  0  0
 22 50  1  0  0  0
 23 24  2  0  0  0
 23 28  1  0  0  0
 25 26  1  0  0  0
 25 27  1  0  0  0
 25 51  1  0  0  0
 26 52  1  0  0  0
 26 53  1  0  0  0
 26 54  1  0  0  0
 27 55  1  0  0  0
 27 56  1  0  0  0
 27 57  1  0  0  0
 28 29  1  0  0  0
 28 58  1  0  0  0
 29 30  1  0  0  0
 29 32  1  0  0  0
 29 59  1  0  0  0
 30 31  1  0  0  0
 30 60  1  0  0  0
 30 61  1  0  0  0
 31 62  1  0  0  0
 32 33  1  0  0  0
 32 63  1  0  0  0
 32 64  1  0  0  0
 33 34  1  0  0  0
 33 35  2  0  0  0
M  CHG  3  10  -1  19  -1  34  -1
M  END
> <s_m_source_file>
../1pau_ligand.sdf

> <i_m_source_file_index>
1

> <s_epik_input>
Tz1DKFtDSDNdKVtOSF1bQ0BASF0oW0NIMl1DKD1PKVtPSF0pQyg9TylbTkhdW0NAQEhdKFtDSDJdW0NIMl1DKD1PKVtPSF0pQyg9TylbTkhdW0NAQEhdKFtDSF0oW0NIM10pW0NIM10pQyg9TylbTkhdW0NASF0oW0NIMl1bT0hdKVtDSDJdQyg9TylbT0hd

> <s_epik_cmdline>
J2VwaWtfYXBwJywgJy1pbWFlJywgJ2xpZ2FuZF9wcm8ubWFlJywgJy1vbWFlJywgJ2xpZ2FuZF9wcmVwLm1hZScsICctbXMnLCAnMScsICctcGgnLCAnNycsICctcGh0JywgJzAuNScsICctbnQn

> <r_lp_tautomer_probability>
1

> <r_epik_Ionization_Penalty>
  0.0047

> <r_epik_Ionization_Penalty_Charging>
  0.0047

> <r_epik_Ionization_Penalty_Neutral>
  0.0000

> <r_epik_State_Penalty>
 -0.0000

> <r_epik_Charging_Adjusted_Penalty>
0.00467056323236051

> <i_epik_Tot_Q>
-3

> <i_epik_Tot_abs_Q>
3

$$$$
