1pbk_ligand
                    3D
 Schrodinger Suite 2020-3.
144147  0  0  1  0            999 V2000
   15.6590   25.8130   26.1970 C   0  0  0  0  0  0
   16.7240   24.8830   26.4370 O   0  0  0  0  0  0
   14.5120   25.3960   26.1200 O   0  0  0  0  0  0
   15.8700   27.3020   26.0400 C   0  0  2  0  0  0
   15.2480   27.7640   24.7380 C   0  0  0  0  0  0
   16.0780   27.4440   23.5060 C   0  0  0  0  0  0
   17.5260   27.9050   23.7140 C   0  0  0  0  0  0
   18.0920   27.2770   24.9830 C   0  0  0  0  0  0
   17.2610   27.7670   26.0830 N   0  0  0  0  0  0
   17.7790   28.3080   27.2080 C   0  0  0  0  0  0
   17.0480   28.5800   28.1730 O   0  0  0  0  0  0
   19.1080   28.7520   27.2870 C   0  0  0  0  0  0
   19.3830   29.8040   26.7010 O   0  0  0  0  0  0
   20.2250   27.9190   27.9440 C   0  0  1  0  0  0
   20.7010   27.1770   26.8340 O   0  0  0  0  0  0
   21.2210   28.7270   28.5550 O   0  0  0  0  0  0
   19.7080   27.0300   29.0780 C   0  0  1  0  0  0
   20.6390   25.8680   29.3280 C   0  0  0  0  0  0
   21.0510   25.1430   28.0440 C   0  0  0  0  0  0
   21.5810   26.0930   26.9710 C   0  0  1  0  0  0
   21.6540   25.3910   25.6260 C   0  0  0  0  0  0
   22.8310   24.4140   25.5050 C   0  0  2  0  0  0
   23.9340   25.2050   25.2720 O   0  0  0  0  0  0
   22.6600   23.4200   24.3650 C   0  0  0  0  0  0
   22.3750   22.1630   24.6600 C   0  0  0  0  0  0
   22.1400   21.0950   23.6790 C   0  0  0  0  0  0
   21.8680   19.8560   24.0780 C   0  0  0  0  0  0
   21.5240   18.8640   23.0580 C   0  0  0  0  0  0
   21.1810   17.6330   23.3730 C   0  0  0  0  0  0
   20.7160   16.5740   22.3740 C   0  0  2  0  0  0
   19.2870   16.2110   22.7150 C   0  0  0  0  0  0
   18.2660   17.3200   22.7380 C   0  0  2  0  0  0
   16.9950   16.7810   23.3800 C   0  0  0  0  0  0
   16.2070   16.0930   22.7320 O   0  0  0  0  0  0
   16.7550   17.0760   24.8580 C   0  0  2  0  0  0
   15.6700   16.3050   25.2300 O   0  0  0  0  0  0
   16.3280   18.5260   25.1920 C   0  0  2  0  0  0
   15.2060   18.8110   24.3600 O   0  0  0  0  0  0
   17.4210   19.6000   25.0150 C   0  0  0  0  0  0
   17.3780   20.5060   24.0270 C   0  0  0  0  0  0
   18.3520   21.6520   23.8170 C   0  0  2  0  0  0
   17.8390   22.9330   24.5010 C   0  0  0  0  0  0
   17.4220   23.9100   23.8720 O   0  0  0  0  0  0
   17.8620   22.9860   26.0150 C   0  0  0  0  0  0
   16.5790   23.5180   26.6020 C   0  0  1  0  0  0
   16.3650   23.2880   28.1120 C   0  0  1  0  0  0
   15.8670   21.8950   28.4260 C   0  0  0  0  0  0
   14.4120   21.5040   28.3120 C   0  0  1  0  0  0
   14.2740   19.9860   28.2690 C   0  0  0  0  0  0
   12.8300   19.5430   28.0340 C   0  0  1  0  0  0
   12.7320   18.1790   28.1680 O   0  0  0  0  0  0
   11.8320   20.1280   29.0430 C   0  0  2  0  0  0
   10.5710   19.9000   28.4180 O   0  0  0  0  0  0
   12.0550   21.6320   29.3210 C   0  0  0  0  0  0
   13.5350   22.0380   29.4580 C   0  0  0  0  0  0
   19.4920   27.7870   30.3880 C   0  0  0  0  0  0
   22.8490   23.9510   22.9370 C   0  0  0  0  0  0
   21.4920   15.2950   22.5320 C   0  0  0  0  0  0
   17.9600   17.8530   21.3370 C   0  0  0  0  0  0
   18.5380   19.5120   26.0500 C   0  0  0  0  0  0
   18.4990   21.8900   22.3260 C   0  0  0  0  0  0
   17.6380   23.4870   28.9040 C   0  0  0  0  0  0
   25.1480   24.7410   25.7220 C   0  0  0  0  0  0
   16.0680   15.3510   26.1250 C   0  0  0  0  0  0
   12.6250   17.5260   26.9490 C   0  0  0  0  0  0
   15.4177   27.7575   26.9333 H   0  0  0  0  0  0
   14.2707   27.2768   24.6054 H   0  0  0  0  0  0
   15.1132   28.8554   24.7630 H   0  0  0  0  0  0
   16.0661   26.3586   23.3277 H   0  0  0  0  0  0
   15.6548   27.9636   22.6337 H   0  0  0  0  0  0
   18.1364   27.5964   22.8525 H   0  0  0  0  0  0
   17.5521   29.0007   23.8081 H   0  0  0  0  0  0
   18.0401   26.1810   24.9043 H   0  0  0  0  0  0
   19.1400   27.5863   25.1093 H   0  0  0  0  0  0
   21.7674   29.4720   27.9579 H   0  0  0  0  0  0
   18.7334   26.6471   28.7410 H   0  0  0  0  0  0
   21.5560   26.2311   29.8150 H   0  0  0  0  0  0
   20.1430   25.1346   29.9807 H   0  0  0  0  0  0
   21.8454   24.4169   28.2717 H   0  0  0  0  0  0
   20.1812   24.6156   27.6255 H   0  0  0  0  0  0
   22.5555   26.5070   27.2691 H   0  0  0  0  0  0
   20.7313   24.8149   25.4626 H   0  0  0  0  0  0
   21.7653   26.1392   24.8274 H   0  0  0  0  0  0
   23.0116   23.8434   26.4279 H   0  0  0  0  0  0
   22.2980   21.8486   25.7113 H   0  0  0  0  0  0
   22.1908   21.3284   22.6052 H   0  0  0  0  0  0
   21.9053   19.6020   25.1476 H   0  0  0  0  0  0
   21.5581   19.1725   22.0027 H   0  0  0  0  0  0
   21.2181   17.3030   24.4217 H   0  0  0  0  0  0
   20.8438   16.9703   21.3558 H   0  0  0  0  0  0
   18.9075   15.4859   21.9800 H   0  0  0  0  0  0
   19.2515   15.7665   23.7206 H   0  0  0  0  0  0
   18.6818   18.1538   23.3228 H   0  0  0  0  0  0
   17.6655   16.8011   25.4106 H   0  0  0  0  0  0
   16.0161   18.5973   26.2444 H   0  0  0  0  0  0
   14.3336   18.1410   24.3645 H   0  0  0  0  0  0
   16.5805   20.4578   23.2709 H   0  0  0  0  0  0
   19.3258   21.3809   24.2509 H   0  0  0  0  0  0
   18.0193   21.9734   26.4150 H   0  0  0  0  0  0
   18.6801   23.6424   26.3466 H   0  0  0  0  0  0
   15.7191   23.0909   26.0651 H   0  0  0  0  0  0
   15.6090   24.0249   28.4208 H   0  0  0  0  0  0
   16.3615   21.1705   27.7622 H   0  0  0  0  0  0
   16.0985   21.6502   29.4731 H   0  0  0  0  0  0
   14.0720   21.9622   27.3716 H   0  0  0  0  0  0
   14.8914   19.5847   27.4518 H   0  0  0  0  0  0
   14.6103   19.5600   29.2258 H   0  0  0  0  0  0
   12.5679   19.7961   26.9961 H   0  0  0  0  0  0
   11.8609   19.6287   30.0227 H   0  0  0  0  0  0
   10.2644   18.8768   28.1553 H   0  0  0  0  0  0
   11.6338   22.2239   28.4950 H   0  0  0  0  0  0
   11.5567   21.9088   30.2618 H   0  0  0  0  0  0
   13.9031   21.6426   30.4162 H   0  0  0  0  0  0
   13.5805   23.1370   29.4731 H   0  0  0  0  0  0
   18.8142   28.6356   30.2136 H   0  0  0  0  0  0
   20.4579   28.1595   30.7597 H   0  0  0  0  0  0
   19.0484   27.1106   31.1335 H   0  0  0  0  0  0
   23.0776   25.0264   22.9730 H   0  0  0  0  0  0
   21.9253   23.7916   22.3613 H   0  0  0  0  0  0
   23.6794   23.4155   22.4536 H   0  0  0  0  0  0
   22.5514   15.4778   22.2993 H   0  0  0  0  0  0
   21.0912   14.5357   21.8444 H   0  0  0  0  0  0
   21.4007   14.9363   23.5679 H   0  0  0  0  0  0
   18.8838   18.2398   20.8820 H   0  0  0  0  0  0
   17.2186   18.6626   21.4066 H   0  0  0  0  0  0
   17.5576   17.0398   20.7151 H   0  0  0  0  0  0
   18.3303   18.6843   26.7441 H   0  0  0  0  0  0
   18.5929   20.4564   26.6114 H   0  0  0  0  0  0
   19.4963   19.3318   25.5408 H   0  0  0  0  0  0
   18.8655   20.9724   21.8426 H   0  0  0  0  0  0
   19.2158   22.7065   22.1540 H   0  0  0  0  0  0
   17.5223   22.1637   21.9004 H   0  0  0  0  0  0
   18.0393   24.4920   28.7067 H   0  0  0  0  0  0
   18.3785   22.7310   28.6038 H   0  0  0  0  0  0
   17.4220   23.3827   29.9775 H   0  0  0  0  0  0
   25.9345   25.4675   25.4699 H   0  0  0  0  0  0
   25.3724   23.7766   25.2429 H   0  0  0  0  0  0
   25.1080   24.6078   26.8132 H   0  0  0  0  0  0
   15.2020   14.7396   26.4186 H   0  0  0  0  0  0
   16.4919   15.8379   27.0156 H   0  0  0  0  0  0
   16.8303   14.7080   25.6608 H   0  0  0  0  0  0
   12.5501   16.4418   27.1192 H   0  0  0  0  0  0
   13.5146   17.7408   26.3387 H   0  0  0  0  0  0
   11.7255   17.8776   26.4225 H   0  0  0  0  0  0
  1  4  1  0  0  0
  1  3  2  0  0  0
  1  2  1  0  0  0
  2 45  1  0  0  0
  4  9  1  0  0  0
  4  5  1  0  0  0
  4 66  1  0  0  0
  5  6  1  0  0  0
  5 67  1  0  0  0
  5 68  1  0  0  0
  6  7  1  0  0  0
  6 69  1  0  0  0
  6 70  1  0  0  0
  7  8  1  0  0  0
  7 71  1  0  0  0
  7 72  1  0  0  0
  8  9  1  0  0  0
  8 73  1  0  0  0
  8 74  1  0  0  0
  9 10  1  0  0  0
 10 12  1  0  0  0
 10 11  2  0  0  0
 12 14  1  0  0  0
 12 13  2  0  0  0
 14 15  1  0  0  0
 14 17  1  0  0  0
 14 16  1  0  0  0
 15 20  1  0  0  0
 16 75  1  0  0  0
 17 56  1  0  0  0
 17 18  1  0  0  0
 17 76  1  0  0  0
 18 19  1  0  0  0
 18 77  1  0  0  0
 18 78  1  0  0  0
 19 20  1  0  0  0
 19 79  1  0  0  0
 19 80  1  0  0  0
 20 21  1  0  0  0
 20 81  1  0  0  0
 21 22  1  0  0  0
 21 82  1  0  0  0
 21 83  1  0  0  0
 22 24  1  0  0  0
 22 23  1  0  0  0
 22 84  1  0  0  0
 23 63  1  0  0  0
 24 25  2  0  0  0
 24 57  1  0  0  0
 25 26  1  0  0  0
 25 85  1  0  0  0
 26 27  2  0  0  0
 26 86  1  0  0  0
 27 28  1  0  0  0
 27 87  1  0  0  0
 28 29  2  0  0  0
 28 88  1  0  0  0
 29 30  1  0  0  0
 29 89  1  0  0  0
 30 31  1  0  0  0
 30 58  1  0  0  0
 30 90  1  0  0  0
 31 32  1  0  0  0
 31 91  1  0  0  0
 31 92  1  0  0  0
 32 33  1  0  0  0
 32 59  1  0  0  0
 32 93  1  0  0  0
 33 35  1  0  0  0
 33 34  2  0  0  0
 35 37  1  0  0  0
 35 36  1  0  0  0
 35 94  1  0  0  0
 36 64  1  0  0  0
 37 39  1  0  0  0
 37 38  1  0  0  0
 37 95  1  0  0  0
 38 96  1  0  0  0
 39 40  2  0  0  0
 39 60  1  0  0  0
 40 41  1  0  0  0
 40 97  1  0  0  0
 41 42  1  0  0  0
 41 61  1  0  0  0
 41 98  1  0  0  0
 42 44  1  0  0  0
 42 43  2  0  0  0
 44 45  1  0  0  0
 44 99  1  0  0  0
 44100  1  0  0  0
 45 46  1  0  0  0
 45101  1  0  0  0
 46 62  1  0  0  0
 46 47  1  0  0  0
 46102  1  0  0  0
 47 48  1  0  0  0
 47103  1  0  0  0
 47104  1  0  0  0
 48 55  1  0  0  0
 48 49  1  0  0  0
 48105  1  0  0  0
 49 50  1  0  0  0
 49106  1  0  0  0
 49107  1  0  0  0
 50 52  1  0  0  0
 50 51  1  0  0  0
 50108  1  0  0  0
 51 65  1  0  0  0
 52 54  1  0  0  0
 52 53  1  0  0  0
 52109  1  0  0  0
 53110  1  0  0  0
 54 55  1  0  0  0
 54111  1  0  0  0
 54112  1  0  0  0
 55113  1  0  0  0
 55114  1  0  0  0
 56115  1  0  0  0
 56116  1  0  0  0
 56117  1  0  0  0
 57118  1  0  0  0
 57119  1  0  0  0
 57120  1  0  0  0
 58121  1  0  0  0
 58122  1  0  0  0
 58123  1  0  0  0
 59124  1  0  0  0
 59125  1  0  0  0
 59126  1  0  0  0
 60127  1  0  0  0
 60128  1  0  0  0
 60129  1  0  0  0
 61130  1  0  0  0
 61131  1  0  0  0
 61132  1  0  0  0
 62133  1  0  0  0
 62134  1  0  0  0
 62135  1  0  0  0
 63136  1  0  0  0
 63137  1  0  0  0
 63138  1  0  0  0
 64139  1  0  0  0
 64140  1  0  0  0
 64141  1  0  0  0
 65142  1  0  0  0
 65143  1  0  0  0
 65144  1  0  0  0
M  END
> <s_m_source_file>
../1pbk_ligand.sdf

> <i_m_source_file_index>
1

> <s_epik_input>
W09IXVtDQEBdMTJDKD1PKUMoPU8pTjNbQ0BASF0oW0NIMl1bQ0gyXVtDSDJdW0NIMl0zKUMoPU8pT1tDQEhdKFtDQEhdKFtDSDNdKVtDSDJdW0NASF00W0NIMl1bQ0BASF0oT1tDSDNdKVtDQEhdKFtPSF0pW0NIMl1bQ0gyXTQpW0NIMl1DKD1PKVtDQEhdKFtDSDNdKVxbQ0hdPUMoW0NIM10pXFtDQEBIXShbT0hdKVtDQEBIXShPW0NIM10pQyg9TylbQ0BIXShbQ0gzXSlbQ0gyXVtDQEhdKFtDSDNdKVxbQ0hdPVtDSF1cW0NIXT1bQ0hdXFtDSF09QyhbQ0gzXSlcW0NAQEhdKE9bQ0gzXSlbQ0gyXVtDQEBIXShPMSlbQ0gyXVtDSDJdW0NASF0yW0NIM10=

> <s_epik_cmdline>
J2VwaWtfYXBwJywgJy1pbWFlJywgJ2xpZ2FuZF9wcm8ubWFlJywgJy1vbWFlJywgJ2xpZ2FuZF9wcmVwLm1hZScsICctbXMnLCAnMScsICctcGgnLCAnNycsICctcGh0JywgJzAuNScsICctbnQn

> <r_lp_tautomer_probability>
1

> <r_epik_Ionization_Penalty>
  0.0021

> <r_epik_Ionization_Penalty_Charging>
  0.0000

> <r_epik_Ionization_Penalty_Neutral>
  0.0021

> <r_epik_State_Penalty>
 -0.0000

> <r_epik_Charging_Adjusted_Penalty>
0

> <i_epik_Tot_Q>
0

> <i_epik_Tot_abs_Q>
0

> <s_epik_Chemistry_Notes>
This compound has an ester and may undergo hydrolysis at high or low pH.

$$$$
