1pcg_ligand
                    3D
 Schrodinger Suite 2020-3.
164163  0  0  1  0            999 V2000
    7.4970   42.9440   -1.0000 N   0  3  0  0  0  0
    6.4070   42.0830   -0.4680 C   0  0  2  0  0  0
    6.1670   40.9230   -1.4040 C   0  0  0  0  0  0
    5.7520   41.1200   -2.5420 O   0  0  0  0  0  0
    5.0830   42.8400   -0.3560 C   0  0  0  0  0  0
    5.0790   44.0400    0.5570 C   0  0  0  0  0  0
    3.6970   44.6700    0.5710 C   0  0  0  0  0  0
    3.6530   45.9110    1.4460 C   0  0  0  0  0  0
    2.2810   46.5020    1.4840 N   0  3  0  0  0  0
    6.4280   39.7110   -0.9260 N   0  0  0  0  0  0
    6.1870   38.5250   -1.7300 C   0  0  1  0  0  0
    7.4410   37.9080   -2.3340 C   0  0  0  0  0  0
    7.4460   36.7680   -2.7770 O   0  0  0  0  0  0
    5.3320   37.5210   -0.9330 C   0  0  0  0  0  0
    6.2230   36.4020    0.1840 S   0  0  0  0  0  0
    8.4920   38.7200   -2.3840 N   0  0  0  0  0  0
    9.7700   38.3470   -2.9800 C   0  0  2  0  0  0
   10.2660   36.9870   -2.5210 C   0  0  0  0  0  0
   10.7850   36.1960   -3.3040 O   0  0  0  0  0  0
   10.8270   39.4370   -2.6780 C   0  0  2  0  0  0
   10.2620   40.8130   -3.0700 C   0  0  0  0  0  0
   12.1180   39.1350   -3.4160 C   0  0  0  0  0  0
   11.1950   41.9610   -2.7430 C   0  0  0  0  0  0
   10.0750   36.7110   -1.2420 N   0  0  0  0  0  0
   10.5160   35.4500   -0.6780 C   0  0  2  0  0  0
    9.8150   34.2200   -1.2320 C   0  0  0  0  0  0
   10.4620   33.2140   -1.5750 O   0  0  0  0  0  0
   10.4060   35.4790    0.8490 C   0  0  0  0  0  0
   10.9410   34.2600    1.6120 C   0  0  0  0  0  0
   12.4430   34.1500    1.4460 C   0  0  0  0  0  0
   10.6190   34.3600    3.0900 C   0  0  0  0  0  0
    8.4930   34.2590   -1.3170 N   0  0  0  0  0  0
    7.7730   33.0980   -1.8430 C   0  0  2  0  0  0
    8.1850   32.7710   -3.2850 C   0  0  0  0  0  0
    8.0550   31.6310   -3.7220 O   0  0  0  0  0  0
    6.2810   33.3690   -1.8390 C   0  0  0  0  0  0
    5.5990   33.8290   -0.2390 S   0  0  0  0  0  0
    8.6610   33.7760   -4.0190 N   0  0  0  0  0  0
    9.0590   33.5910   -5.4210 C   0  0  2  0  0  0
   10.4440   33.0010   -5.4890 C   0  0  0  0  0  0
   10.6810   32.0710   -6.2480 O   0  0  0  0  0  0
    8.9830   34.9170   -6.1810 C   0  0  0  0  0  0
    7.8410   35.7650   -5.6970 C   0  0  0  0  0  0
    7.0840   36.4700   -6.7690 C   0  0  0  0  0  0
    5.9510   37.1730   -6.1770 N   0  0  0  0  0  0
    5.0650   37.8540   -6.8890 C   0  0  0  0  0  0
    5.1960   37.9120   -8.2110 N   0  0  0  0  0  0
    4.0580   38.4760   -6.2940 N   0  0  0  0  0  0
   11.3570   33.5270   -4.6850 N   0  0  0  0  0  0
   12.7200   33.0060   -4.6700 C   0  0  2  0  0  0
   12.7470   31.5320   -4.2480 C   0  0  0  0  0  0
   13.5590   30.7490   -4.7390 O   0  0  0  0  0  0
   13.5930   33.8530   -3.7410 C   0  0  0  0  0  0
   14.0890   35.1160   -4.4350 C   0  0  0  0  0  0
   14.8610   35.9720   -3.4750 C   0  0  0  0  0  0
   14.9770   34.7380   -5.5980 C   0  0  0  0  0  0
   11.8460   31.1530   -3.3500 N   0  0  0  0  0  0
   11.7770   29.7710   -2.8880 C   0  0  2  0  0  0
   11.0740   28.9140   -3.9360 C   0  0  0  0  0  0
   11.1010   27.6830   -3.8730 O   0  0  0  0  0  0
   11.0280   29.7000   -1.5520 C   0  0  0  0  0  0
   11.8060   30.2170   -0.3440 C   0  0  0  0  0  0
   10.9200   30.2290    0.8730 C   0  0  0  0  0  0
   13.0070   29.3390   -0.0750 C   0  0  0  0  0  0
   10.4530   29.5950   -4.8970 N   0  0  0  0  0  0
    9.7220   28.9480   -5.9740 C   0  0  2  0  0  0
   10.7090   28.3560   -6.9540 C   0  0  0  0  0  0
   11.5390   29.1360   -7.5030 O   0  0  0  0  0  0
    8.8080   29.9630   -6.6860 C   0  0  0  0  0  0
    7.9680   29.4140   -7.8430 C   0  0  0  0  0  0
    7.0520   28.2720   -7.4290 C   0  0  0  0  0  0
    7.5100   27.2580   -6.8990 O   0  0  0  0  0  0
    5.7560   28.4290   -7.6770 N   0  0  0  0  0  0
   10.6370   27.1240   -7.1320 O   0  0  0  0  0  0
    8.4273   42.3605   -1.0634 H   0  0  0  0  0  0
    7.6474   43.8020   -0.3283 H   0  0  0  0  0  0
    7.2223   43.3062   -2.0017 H   0  0  0  0  0  0
    6.7528   41.7488    0.5213 H   0  0  0  0  0  0
    4.7883   43.2121   -1.3483 H   0  0  0  0  0  0
    4.3051   42.1635    0.0278 H   0  0  0  0  0  0
    5.3462   43.7257    1.5767 H   0  0  0  0  0  0
    5.8116   44.7773    0.1968 H   0  0  0  0  0  0
    3.4151   44.9583   -0.4524 H   0  0  0  0  0  0
    2.9676   43.9453    0.9618 H   0  0  0  0  0  0
    3.9481   45.6467    2.4722 H   0  0  0  0  0  0
    4.3474   46.6654    1.0476 H   0  0  0  0  0  0
    2.2846   47.3963    2.1245 H   0  0  0  0  0  0
    1.5746   45.7630    1.8901 H   0  0  0  0  0  0
    1.9739   46.7817    0.4654 H   0  0  0  0  0  0
    6.8316   39.6123    0.0925 H   0  0  0  0  0  0
    5.6292   38.9041   -2.5990 H   0  0  0  0  0  0
    4.6173   38.0686   -0.3010 H   0  0  0  0  0  0
    4.7822   36.8724   -1.6309 H   0  0  0  0  0  0
    5.6677   35.6628    0.7800 H   0  0  0  0  0  0
    8.3610   39.7199   -1.9446 H   0  0  0  0  0  0
    9.5521   38.2654   -4.0551 H   0  0  0  0  0  0
   11.0747   39.4490   -1.6063 H   0  0  0  0  0  0
   10.0750   40.8374   -4.1537 H   0  0  0  0  0  0
    9.3193   40.9894   -2.5312 H   0  0  0  0  0  0
   12.4917   38.1462   -3.1115 H   0  0  0  0  0  0
   12.8680   39.9017   -3.1716 H   0  0  0  0  0  0
   11.9301   39.1382   -4.4998 H   0  0  0  0  0  0
   10.7299   42.9099   -3.0485 H   0  0  0  0  0  0
   12.1441   41.8273   -3.2828 H   0  0  0  0  0  0
   11.3884   41.9793   -1.6603 H   0  0  0  0  0  0
    9.5738   37.4536   -0.6038 H   0  0  0  0  0  0
   11.5605   35.3999   -1.0192 H   0  0  0  0  0  0
   10.9664   36.3407    1.2407 H   0  0  0  0  0  0
    9.3485   35.5669    1.1389 H   0  0  0  0  0  0
   10.4604   33.3591    1.2029 H   0  0  0  0  0  0
   12.6893   34.0767    0.3764 H   0  0  0  0  0  0
   12.8048   33.2518    1.9679 H   0  0  0  0  0  0
   12.9254   35.0416    1.8731 H   0  0  0  0  0  0
    9.5301   34.4404    3.2234 H   0  0  0  0  0  0
   11.1069   35.2509    3.5121 H   0  0  0  0  0  0
   10.9863   33.4612    3.6069 H   0  0  0  0  0  0
    7.9368   35.1524   -0.9969 H   0  0  0  0  0  0
    8.0411   32.2752   -1.1639 H   0  0  0  0  0  0
    6.0569   34.1968   -2.5278 H   0  0  0  0  0  0
    5.7434   32.4660   -2.1638 H   0  0  0  0  0  0
    4.5248   34.0443   -0.1403 H   0  0  0  0  0  0
    8.7523   34.7655   -3.5473 H   0  0  0  0  0  0
    8.3518   32.8760   -5.8666 H   0  0  0  0  0  0
    9.9184   35.4772   -6.0354 H   0  0  0  0  0  0
    8.8382   34.7174   -7.2530 H   0  0  0  0  0  0
    7.1165   35.1335   -5.1620 H   0  0  0  0  0  0
    8.2229   36.5412   -5.0175 H   0  0  0  0  0  0
    7.7448   37.1928   -7.2698 H   0  0  0  0  0  0
    6.7193   35.7367   -7.5033 H   0  0  0  0  0  0
    5.8001   37.1537   -5.0876 H   0  0  0  0  0  0
    6.0325   37.3951   -8.7040 H   0  0  0  0  0  0
    4.4678   38.4768   -8.8116 H   0  0  0  0  0  0
    3.9506   38.4273   -5.2003 H   0  0  0  0  0  0
   11.0804   34.3628   -4.0256 H   0  0  0  0  0  0
   13.0792   33.0882   -5.7064 H   0  0  0  0  0  0
   13.0084   34.1490   -2.8574 H   0  0  0  0  0  0
   14.4669   33.2657   -3.4226 H   0  0  0  0  0  0
   13.2281   35.6966   -4.7981 H   0  0  0  0  0  0
   14.2151   36.2474   -2.6283 H   0  0  0  0  0  0
   15.2012   36.8834   -3.9884 H   0  0  0  0  0  0
   15.7328   35.4128   -3.1045 H   0  0  0  0  0  0
   14.4114   34.1103   -6.3023 H   0  0  0  0  0  0
   15.8487   34.1790   -5.2271 H   0  0  0  0  0  0
   15.3172   35.6496   -6.1110 H   0  0  0  0  0  0
   11.1439   31.9012   -2.9535 H   0  0  0  0  0  0
   12.8147   29.4303   -2.7574 H   0  0  0  0  0  0
   10.1092   30.3016   -1.6143 H   0  0  0  0  0  0
   10.7672   28.6541   -1.3330 H   0  0  0  0  0  0
   12.1490   31.2416   -0.5500 H   0  0  0  0  0  0
   10.0442   30.8667    0.6826 H   0  0  0  0  0  0
   11.4820   30.6248    1.7318 H   0  0  0  0  0  0
   10.5865   29.2043    1.0938 H   0  0  0  0  0  0
   13.6581   29.3267   -0.9615 H   0  0  0  0  0  0
   12.6706   28.3155    0.1471 H   0  0  0  0  0  0
   13.5661   29.7360    0.7851 H   0  0  0  0  0  0
   10.5097   30.6926   -4.8526 H   0  0  0  0  0  0
    9.1216   28.1489   -5.5147 H   0  0  0  0  0  0
   12.2725   28.7413   -8.2215 H   0  0  0  0  0  0
    8.0937   30.3835   -5.9628 H   0  0  0  0  0  0
    9.4198   30.7728   -7.1103 H   0  0  0  0  0  0
    7.3354   30.2166   -8.2499 H   0  0  0  0  0  0
    8.6341   29.0362   -8.6327 H   0  0  0  0  0  0
    5.3950   29.3530   -8.1523 H   0  0  0  0  0  0
    5.0442   27.6350   -7.4070 H   0  0  0  0  0  0
  1  2  1  0  0  0
  1 75  1  0  0  0
  1 76  1  0  0  0
  1 77  1  0  0  0
  2  3  1  0  0  0
  2  5  1  0  0  0
  2 78  1  0  0  0
  3  4  2  0  0  0
  3 10  1  0  0  0
  5  6  1  0  0  0
  5 79  1  0  0  0
  5 80  1  0  0  0
  6  7  1  0  0  0
  6 81  1  0  0  0
  6 82  1  0  0  0
  7  8  1  0  0  0
  7 83  1  0  0  0
  7 84  1  0  0  0
  8  9  1  0  0  0
  8 85  1  0  0  0
  8 86  1  0  0  0
  9 87  1  0  0  0
  9 88  1  0  0  0
  9 89  1  0  0  0
 10 11  1  0  0  0
 10 90  1  0  0  0
 11 12  1  0  0  0
 11 14  1  0  0  0
 11 91  1  0  0  0
 12 13  2  0  0  0
 12 16  1  0  0  0
 14 15  1  0  0  0
 14 92  1  0  0  0
 14 93  1  0  0  0
 15 94  1  0  0  0
 16 17  1  0  0  0
 16 95  1  0  0  0
 17 18  1  0  0  0
 17 20  1  0  0  0
 17 96  1  0  0  0
 18 19  2  0  0  0
 18 24  1  0  0  0
 20 21  1  0  0  0
 20 22  1  0  0  0
 20 97  1  0  0  0
 21 23  1  0  0  0
 21 98  1  0  0  0
 21 99  1  0  0  0
 22100  1  0  0  0
 22101  1  0  0  0
 22102  1  0  0  0
 23103  1  0  0  0
 23104  1  0  0  0
 23105  1  0  0  0
 24 25  1  0  0  0
 24106  1  0  0  0
 25 26  1  0  0  0
 25 28  1  0  0  0
 25107  1  0  0  0
 26 27  2  0  0  0
 26 32  1  0  0  0
 28 29  1  0  0  0
 28108  1  0  0  0
 28109  1  0  0  0
 29 30  1  0  0  0
 29 31  1  0  0  0
 29110  1  0  0  0
 30111  1  0  0  0
 30112  1  0  0  0
 30113  1  0  0  0
 31114  1  0  0  0
 31115  1  0  0  0
 31116  1  0  0  0
 32 33  1  0  0  0
 32117  1  0  0  0
 33 34  1  0  0  0
 33 36  1  0  0  0
 33118  1  0  0  0
 34 35  2  0  0  0
 34 38  1  0  0  0
 36 37  1  0  0  0
 36119  1  0  0  0
 36120  1  0  0  0
 37121  1  0  0  0
 38 39  1  0  0  0
 38122  1  0  0  0
 39 40  1  0  0  0
 39 42  1  0  0  0
 39123  1  0  0  0
 40 41  2  0  0  0
 40 49  1  0  0  0
 42 43  1  0  0  0
 42124  1  0  0  0
 42125  1  0  0  0
 43 44  1  0  0  0
 43126  1  0  0  0
 43127  1  0  0  0
 44 45  1  0  0  0
 44128  1  0  0  0
 44129  1  0  0  0
 45 46  1  0  0  0
 45130  1  0  0  0
 46 47  1  0  0  0
 46 48  2  0  0  0
 47131  1  0  0  0
 47132  1  0  0  0
 48133  1  0  0  0
 49 50  1  0  0  0
 49134  1  0  0  0
 50 51  1  0  0  0
 50 53  1  0  0  0
 50135  1  0  0  0
 51 52  2  0  0  0
 51 57  1  0  0  0
 53 54  1  0  0  0
 53136  1  0  0  0
 53137  1  0  0  0
 54 55  1  0  0  0
 54 56  1  0  0  0
 54138  1  0  0  0
 55139  1  0  0  0
 55140  1  0  0  0
 55141  1  0  0  0
 56142  1  0  0  0
 56143  1  0  0  0
 56144  1  0  0  0
 57 58  1  0  0  0
 57145  1  0  0  0
 58 59  1  0  0  0
 58 61  1  0  0  0
 58146  1  0  0  0
 59 60  2  0  0  0
 59 65  1  0  0  0
 61 62  1  0  0  0
 61147  1  0  0  0
 61148  1  0  0  0
 62 63  1  0  0  0
 62 64  1  0  0  0
 62149  1  0  0  0
 63150  1  0  0  0
 63151  1  0  0  0
 63152  1  0  0  0
 64153  1  0  0  0
 64154  1  0  0  0
 64155  1  0  0  0
 65 66  1  0  0  0
 65156  1  0  0  0
 66 67  1  0  0  0
 66 69  1  0  0  0
 66157  1  0  0  0
 67 68  1  0  0  0
 67 74  2  0  0  0
 68158  1  0  0  0
 69 70  1  0  0  0
 69159  1  0  0  0
 69160  1  0  0  0
 70 71  1  0  0  0
 70161  1  0  0  0
 70162  1  0  0  0
 71 72  2  0  0  0
 71 73  1  0  0  0
 73163  1  0  0  0
 73164  1  0  0  0
M  CHG  2   1   1   9   1
M  END
> <s_m_source_file>
../1pcg_ligand.sdf

> <i_m_source_file_index>
1

> <s_epik_input>
W05IMytdW0NIMl1bQ0gyXVtDSDJdW0NIMl1bQ0BIXShbTkgzK10pQyg9TylbTkhdW0NASF0oW0NIMl1bU0hdKUMoPU8pW05IXVtDQEBIXShbQ0BASF0oW0NIM10pW0NIMl1bQ0gzXSlDKD1PKVtOSF1bQ0BASF0oW0NIMl1bQ0hdKFtDSDNdKVtDSDNdKUMoPU8pW05IXVtDQEBIXShbQ0gyXVtTSF0pQyg9TylbTkhdW0NAQEhdKFtDSDJdW0NIMl1bQ0gyXVtOSF0vQyhbTkgyXSk9TlxbSF0pQyg9TylbTkhdW0NAQEhdKFtDSDJdW0NIXShbQ0gzXSlbQ0gzXSlDKD1PKVtOSF1bQ0BASF0oW0NIMl1bQ0hdKFtDSDNdKVtDSDNdKUMoPU8pW05IXVtDQEhdKEMoPU8pW09IXSlbQ0gyXVtDSDJdQyg9TylbTkgyXQ==

> <s_epik_cmdline>
J2VwaWtfYXBwJywgJy1pbWFlJywgJ2xpZ2FuZF9wcm8ubWFlJywgJy1vbWFlJywgJ2xpZ2FuZF9wcmVwLm1hZScsICctbXMnLCAnMScsICctcGgnLCAnNycsICctcGh0JywgJzAuNScsICctbnQn

> <s_epik_pKa_notes>
Molecule size exceeds maximum supported for generating protonation states

> <s_epik_Chemistry_Notes>
This compound has an imine and may undergo hydrolysis.

$$$$
