1pdq_ligand
                    3D
 Schrodinger Suite 2020-3.
154153  0  0  1  0            999 V2000
   11.4690   36.0520   15.9720 N   0  3  0  0  0  0
   10.2860   35.7130   15.1320 C   0  0  2  0  0  0
    9.6090   34.4350   15.6130 C   0  0  0  0  0  0
    8.3930   34.2870   15.4920 O   0  0  0  0  0  0
   10.7060   35.5450   13.6680 C   0  0  0  0  0  0
   11.8650   34.5820   13.3790 C   0  0  0  0  0  0
   11.8300   34.1530   11.9210 C   0  0  0  0  0  0
   13.1860   35.2540   13.7110 C   0  0  0  0  0  0
   10.4010   33.5150   16.1560 N   0  0  0  0  0  0
    9.8730   32.2500   16.6580 C   0  0  2  0  0  0
    9.3870   32.4130   18.0930 C   0  0  0  0  0  0
    8.5190   31.6690   18.5550 O   0  0  0  0  0  0
   10.9440   31.1700   16.5890 C   0  0  0  0  0  0
    9.9530   33.3920   18.7900 N   0  0  0  0  0  0
    9.5820   33.6630   20.1720 C   0  0  2  0  0  0
    8.1300   34.1310   20.2400 C   0  0  0  0  0  0
    7.7150   34.9980   19.4780 O   0  0  0  0  0  0
   10.4850   34.7470   20.7800 C   0  0  2  0  0  0
   11.8570   34.3610   20.6350 O   0  0  0  0  0  0
   10.1730   34.9320   22.2580 C   0  0  0  0  0  0
    7.3640   33.5450   21.1570 N   0  0  0  0  0  0
    5.9580   33.8900   21.3330 C   0  0  2  0  0  0
    5.7210   34.3680   22.7630 C   0  0  0  0  0  0
    5.8140   33.5940   23.7090 O   0  0  0  0  0  0
    5.0910   32.6680   21.0470 C   0  0  0  0  0  0
    5.3240   32.0470   19.6880 C   0  0  0  0  0  0
    4.6060   30.7170   19.5770 C   0  0  0  0  0  0
    5.0430   29.9570   18.3350 C   0  0  0  0  0  0
    6.4990   29.6210   18.4030 N   0  3  0  0  0  0
    5.3980   35.6440   22.9160 N   0  0  0  0  0  0
    5.1820   36.2230   24.2340 C   0  0  2  0  0  0
    3.8530   35.8470   24.8880 C   0  0  0  0  0  0
    2.8420   35.6450   24.2200 O   0  0  0  0  0  0
    5.2920   37.7440   24.1420 C   0  0  0  0  0  0
    3.8780   35.7740   26.2120 N   0  0  0  0  0  0
    2.6960   35.4700   27.0010 C   0  0  2  0  0  0
    2.9430   36.0330   28.3980 C   0  0  0  0  0  0
    4.0820   36.1090   28.8600 O   0  0  0  0  0  0
    2.4660   33.9600   27.0520 C   0  0  0  0  0  0
    1.8720   36.4470   29.0580 N   0  0  0  0  0  0
    1.9670   37.0130   30.3940 C   0  0  2  0  0  0
    1.7970   35.9140   31.4460 C   0  0  0  0  0  0
    0.9730   35.0160   31.2800 O   0  0  0  0  0  0
    0.8720   38.0700   30.5580 C   0  0  0  0  0  0
    1.1010   39.0780   31.6600 C   0  0  0  0  0  0
   -0.0400   40.0890   31.7200 C   0  0  0  0  0  0
   -0.1420   40.9020   30.5110 N   0  0  0  0  0  0
    0.7300   41.8430   30.1630 C   0  0  0  0  0  0
    1.7810   42.0930   30.9330 N   0  0  0  0  0  0
    0.5460   42.5430   29.0520 N   0  0  0  0  0  0
    2.5810   35.9790   32.5200 N   0  0  0  0  0  0
    2.4710   34.9880   33.5900 C   0  0  1  0  0  0
    3.8500   34.4670   34.0020 C   0  0  0  0  0  0
    3.7820   33.1360   34.7570 C   0  0  0  0  0  0
    5.1130   32.7070   35.3750 C   0  0  0  0  0  0
    6.2190   32.5820   34.3340 C   0  0  0  0  0  0
    7.3170   31.6620   34.8060 N   0  3  0  0  0  0
    1.7890   35.6380   34.7930 C   0  0  0  0  0  0
    2.3530   36.5260   35.4310 O   0  0  0  0  0  0
    8.1210   31.2060   33.6400 C   0  0  0  0  0  0
    6.9190   30.4040   35.4950 C   0  0  0  0  0  0
    8.2300   32.4040   35.7270 C   0  0  0  0  0  0
    0.5780   35.1800   35.0970 N   0  0  0  0  0  0
   -0.2100   35.7150   36.2060 C   0  0  2  0  0  0
    0.2770   35.2620   37.5830 C   0  0  0  0  0  0
    1.2980   34.5870   37.7060 O   0  0  0  0  0  0
   -1.6810   35.3240   36.0330 C   0  0  0  0  0  0
   -1.8410   33.9150   36.0190 O   0  0  0  0  0  0
   -0.4152   35.6036   38.6661 O   0  0  0  0  0  0
   11.9317   36.9770   15.5975 H   0  0  0  0  0  0
   12.1998   35.2312   15.9244 H   0  0  0  0  0  0
   11.1489   36.1980   17.0142 H   0  0  0  0  0  0
    9.5837   36.5526   15.2405 H   0  0  0  0  0  0
    9.8549   35.1652   13.0837 H   0  0  0  0  0  0
   11.0235   36.5175   13.2637 H   0  0  0  0  0  0
   11.7702   33.6817   14.0038 H   0  0  0  0  0  0
   10.8659   33.6698   11.7040 H   0  0  0  0  0  0
   12.6477   33.4430   11.7280 H   0  0  0  0  0  0
   11.9510   35.0358   11.2760 H   0  0  0  0  0  0
   13.1884   35.5552   14.7689 H   0  0  0  0  0  0
   13.3148   36.1431   13.0763 H   0  0  0  0  0  0
   14.0115   34.5503   13.5282 H   0  0  0  0  0  0
   11.4785   33.7261   16.2219 H   0  0  0  0  0  0
    9.0294   31.9862   16.0032 H   0  0  0  0  0  0
   11.2877   31.0604   15.5499 H   0  0  0  0  0  0
   10.5249   30.2152   16.9393 H   0  0  0  0  0  0
   11.7930   31.4542   17.2280 H   0  0  0  0  0  0
   10.7208   34.0057   18.2962 H   0  0  0  0  0  0
    9.7149   32.7067   20.6991 H   0  0  0  0  0  0
   10.3686   35.6997   20.2425 H   0  0  0  0  0  0
   12.2743   34.1792   19.6336 H   0  0  0  0  0  0
    9.1204   35.2286   22.3762 H   0  0  0  0  0  0
   10.8236   35.7149   22.6749 H   0  0  0  0  0  0
   10.3495   33.9862   22.7912 H   0  0  0  0  0  0
    7.8257   32.7765   21.7944 H   0  0  0  0  0  0
    5.7347   34.6950   20.6174 H   0  0  0  0  0  0
    5.2957   31.8896   21.7968 H   0  0  0  0  0  0
    4.0294   32.9524   21.0941 H   0  0  0  0  0  0
    4.9450   32.7221   18.9066 H   0  0  0  0  0  0
    6.4015   31.8829   19.5397 H   0  0  0  0  0  0
    4.8325   30.1032   20.4613 H   0  0  0  0  0  0
    3.5212   30.8897   19.5186 H   0  0  0  0  0  0
    4.4669   29.0233   18.2549 H   0  0  0  0  0  0
    4.8632   30.5764   17.4439 H   0  0  0  0  0  0
    6.7915   29.0725   17.4955 H   0  0  0  0  0  0
    6.6899   28.9952   19.2872 H   0  0  0  0  0  0
    7.0862   30.5482   18.4763 H   0  0  0  0  0  0
    5.2939   36.2691   22.0169 H   0  0  0  0  0  0
    5.9829   35.7711   24.8376 H   0  0  0  0  0  0
    6.2486   38.0146   23.6712 H   0  0  0  0  0  0
    5.2451   38.1768   25.1522 H   0  0  0  0  0  0
    4.4615   38.1357   23.5363 H   0  0  0  0  0  0
    4.8414   35.9541   26.7115 H   0  0  0  0  0  0
    1.8236   35.9379   26.5215 H   0  0  0  0  0  0
    2.2909   33.5812   26.0342 H   0  0  0  0  0  0
    1.5889   33.7437   27.6797 H   0  0  0  0  0  0
    3.3526   33.4683   27.4788 H   0  0  0  0  0  0
    0.8912   36.3535   28.5688 H   0  0  0  0  0  0
    2.9680   37.4605   30.4823 H   0  0  0  0  0  0
    0.7758   38.6459   29.6258 H   0  0  0  0  0  0
   -0.0842   37.5754   30.7837 H   0  0  0  0  0  0
    1.1623   38.5568   32.6267 H   0  0  0  0  0  0
    2.0415   39.6174   31.4740 H   0  0  0  0  0  0
   -0.9945   39.5575   31.8482 H   0  0  0  0  0  0
    0.1175   40.7697   32.5696 H   0  0  0  0  0  0
   -0.9833   40.7540   29.8180 H   0  0  0  0  0  0
    1.9371   41.5144   31.8554 H   0  0  0  0  0  0
    2.4964   42.8789   30.6490 H   0  0  0  0  0  0
   -0.3242   42.3387   28.4110 H   0  0  0  0  0  0
    3.3186   36.7914   32.5965 H   0  0  0  0  0  0
    1.8729   34.1579   33.1861 H   0  0  0  0  0  0
    4.4667   34.3123   33.1044 H   0  0  0  0  0  0
    4.3379   35.2013   34.6599 H   0  0  0  0  0  0
    3.0528   33.2163   35.5767 H   0  0  0  0  0  0
    3.4710   32.3382   34.0665 H   0  0  0  0  0  0
    5.4285   33.4523   36.1200 H   0  0  0  0  0  0
    4.9922   31.7288   35.8634 H   0  0  0  0  0  0
    5.8004   32.1763   33.4012 H   0  0  0  0  0  0
    6.6537   33.5737   34.1399 H   0  0  0  0  0  0
    7.4742   30.6546   32.9417 H   0  0  0  0  0  0
    8.9305   30.5474   33.9879 H   0  0  0  0  0  0
    8.5527   32.0789   33.1285 H   0  0  0  0  0  0
    6.2436   29.8280   34.8453 H   0  0  0  0  0  0
    6.4032   30.6484   36.4354 H   0  0  0  0  0  0
    7.8160   29.8060   35.7135 H   0  0  0  0  0  0
    8.5468   33.3436   35.2507 H   0  0  0  0  0  0
    9.1140   31.7862   35.9432 H   0  0  0  0  0  0
    7.7012   32.6285   36.6651 H   0  0  0  0  0  0
    0.1732   34.3668   34.4766 H   0  0  0  0  0  0
   -0.0556   36.8015   36.1311 H   0  0  0  0  0  0
   -2.2700   35.7349   36.8662 H   0  0  0  0  0  0
   -2.0586   35.7286   35.0824 H   0  0  0  0  0  0
   -2.8429   33.4764   35.9018 H   0  0  0  0  0  0
   -0.0733   35.2828   39.6612 H   0  0  0  0  0  0
  1  2  1  0  0  0
  1 70  1  0  0  0
  1 71  1  0  0  0
  1 72  1  0  0  0
  2  5  1  0  0  0
  2  3  1  0  0  0
  2 73  1  0  0  0
  3  4  2  0  0  0
  3  9  1  0  0  0
  5  6  1  0  0  0
  5 74  1  0  0  0
  5 75  1  0  0  0
  6  7  1  0  0  0
  6  8  1  0  0  0
  6 76  1  0  0  0
  7 77  1  0  0  0
  7 78  1  0  0  0
  7 79  1  0  0  0
  8 80  1  0  0  0
  8 81  1  0  0  0
  8 82  1  0  0  0
  9 10  1  0  0  0
  9 83  1  0  0  0
 10 13  1  0  0  0
 10 11  1  0  0  0
 10 84  1  0  0  0
 11 12  2  0  0  0
 11 14  1  0  0  0
 13 85  1  0  0  0
 13 86  1  0  0  0
 13 87  1  0  0  0
 14 15  1  0  0  0
 14 88  1  0  0  0
 15 18  1  0  0  0
 15 16  1  0  0  0
 15 89  1  0  0  0
 16 17  2  0  0  0
 16 21  1  0  0  0
 18 20  1  0  0  0
 18 19  1  0  0  0
 18 90  1  0  0  0
 19 91  1  0  0  0
 20 92  1  0  0  0
 20 93  1  0  0  0
 20 94  1  0  0  0
 21 22  1  0  0  0
 21 95  1  0  0  0
 22 25  1  0  0  0
 22 23  1  0  0  0
 22 96  1  0  0  0
 23 24  2  0  0  0
 23 30  1  0  0  0
 25 26  1  0  0  0
 25 97  1  0  0  0
 25 98  1  0  0  0
 26 27  1  0  0  0
 26 99  1  0  0  0
 26100  1  0  0  0
 27 28  1  0  0  0
 27101  1  0  0  0
 27102  1  0  0  0
 28 29  1  0  0  0
 28103  1  0  0  0
 28104  1  0  0  0
 29105  1  0  0  0
 29106  1  0  0  0
 29107  1  0  0  0
 30 31  1  0  0  0
 30108  1  0  0  0
 31 34  1  0  0  0
 31 32  1  0  0  0
 31109  1  0  0  0
 32 33  2  0  0  0
 32 35  1  0  0  0
 34110  1  0  0  0
 34111  1  0  0  0
 34112  1  0  0  0
 35 36  1  0  0  0
 35113  1  0  0  0
 36 39  1  0  0  0
 36 37  1  0  0  0
 36114  1  0  0  0
 37 38  2  0  0  0
 37 40  1  0  0  0
 39115  1  0  0  0
 39116  1  0  0  0
 39117  1  0  0  0
 40 41  1  0  0  0
 40118  1  0  0  0
 41 44  1  0  0  0
 41 42  1  0  0  0
 41119  1  0  0  0
 42 43  2  0  0  0
 42 51  1  0  0  0
 44 45  1  0  0  0
 44120  1  0  0  0
 44121  1  0  0  0
 45 46  1  0  0  0
 45122  1  0  0  0
 45123  1  0  0  0
 46 47  1  0  0  0
 46124  1  0  0  0
 46125  1  0  0  0
 47 48  1  0  0  0
 47126  1  0  0  0
 48 50  2  0  0  0
 48 49  1  0  0  0
 49127  1  0  0  0
 49128  1  0  0  0
 50129  1  0  0  0
 51 52  1  0  0  0
 51130  1  0  0  0
 52 53  1  0  0  0
 52 58  1  0  0  0
 52131  1  0  0  0
 53 54  1  0  0  0
 53132  1  0  0  0
 53133  1  0  0  0
 54 55  1  0  0  0
 54134  1  0  0  0
 54135  1  0  0  0
 55 56  1  0  0  0
 55136  1  0  0  0
 55137  1  0  0  0
 56 57  1  0  0  0
 56138  1  0  0  0
 56139  1  0  0  0
 57 60  1  0  0  0
 57 61  1  0  0  0
 57 62  1  0  0  0
 58 59  2  0  0  0
 58 63  1  0  0  0
 60140  1  0  0  0
 60141  1  0  0  0
 60142  1  0  0  0
 61143  1  0  0  0
 61144  1  0  0  0
 61145  1  0  0  0
 62146  1  0  0  0
 62147  1  0  0  0
 62148  1  0  0  0
 63 64  1  0  0  0
 63149  1  0  0  0
 64 67  1  0  0  0
 64 65  1  0  0  0
 64150  1  0  0  0
 65 66  2  0  0  0
 65 69  1  0  0  0
 67 68  1  0  0  0
 67151  1  0  0  0
 67152  1  0  0  0
 68153  1  0  0  0
 69154  1  0  0  0
M  CHG  3   1   1  29   1  57   1
M  END
> <s_m_source_file>
../1pdq_ligand.sdf

> <i_m_source_file_index>
1

> <s_epik_input>
W0NIM11bQ0hdKFtDSDNdKVtDSDJdW0NASF0oW05IMytdKUMoPU8pW05IXVtDQEBIXShbQ0gzXSlDKD1PKVtOSF1bQ0BASF0oW0NASF0oW09IXSlbQ0gzXSlDKD1PKVtOSF1bQ0BASF0oW0NIMl1bQ0gyXVtDSDJdW0NIMl1bTkgzK10pQyg9TylbTkhdW0NAQEhdKFtDSDNdKUMoPU8pW05IXVtDQEBIXShbQ0gzXSlDKD1PKVtOSF1bQ0BASF0oW0NIMl1bQ0gyXVtDSDJdW05IXS9DKFtOSDJdKT1OXFtIXSlDKD1PKVtOSF1bQ0BIXShDKD1PKVtOSF1bQ0BIXShDKD1PKVtPSF0pW0NIMl1bT0hdKVtDSDJdW0NIMl1bQ0gyXVtDSDJdW04rXShbQ0gzXSkoW0NIM10pW0NIM10=

> <s_epik_cmdline>
J2VwaWtfYXBwJywgJy1pbWFlJywgJ2xpZ2FuZF9wcm8ubWFlJywgJy1vbWFlJywgJ2xpZ2FuZF9wcmVwLm1hZScsICctbXMnLCAnMScsICctcGgnLCAnNycsICctcGh0JywgJzAuNScsICctbnQn

> <s_epik_pKa_notes>
Molecule size exceeds maximum supported for generating protonation states

> <s_epik_Chemistry_Notes>
This compound has an imine and may undergo hydrolysis.

$$$$
