1pdz_ligand
                    3D
 Schrodinger Suite 2020-3.
 11 10  0  0  1  0            999 V2000
   31.8840   69.4060   13.7090 P   0  0  0  0  0  0
   31.1470   70.2090   12.5440 O   0  0  0  0  0  0
   31.1700   69.8960   14.8920 O   0  0  0  0  0  0
   31.6660   67.9750   13.3100 O   0  5  0  0  0  0
   33.2970   69.8230   13.6570 O   0  5  0  0  0  0
   29.7460   70.1730   12.5240 C   0  0  0  0  0  0
   29.2060   70.4510   11.1440 C   0  0  0  0  0  0
   29.8860   70.0780   10.1620 O   0  0  0  0  0  0
   28.0760   70.9870   11.0390 O   0  5  0  0  0  0
   29.4003   69.1774   12.8392 H   0  0  0  0  0  0
   29.3498   70.9337   13.2127 H   0  0  0  0  0  0
  1  2  1  0  0  0
  1  3  2  0  0  0
  1  4  1  0  0  0
  1  5  1  0  0  0
  2  6  1  0  0  0
  6  7  1  0  0  0
  6 10  1  0  0  0
  6 11  1  0  0  0
  7  8  2  0  0  0
  7  9  1  0  0  0
M  CHG  3   4  -1   5  -1   9  -1
M  END
> <s_m_source_file>
../1pdz_ligand.sdf

> <i_m_source_file_index>
1

> <s_epik_input>
Tz1QKFtPSF0pKFtPSF0pT1tDSDJdQyg9TylbT0hd

> <s_epik_cmdline>
J2VwaWtfYXBwJywgJy1pbWFlJywgJ2xpZ2FuZF9wcm8ubWFlJywgJy1vbWFlJywgJ2xpZ2FuZF9wcmVwLm1hZScsICctbXMnLCAnMScsICctcGgnLCAnNycsICctcGh0JywgJzAuNScsICctbnQn

> <r_epik_Ionization_Penalty>
  0.1459

> <r_epik_Ionization_Penalty_Charging>
  0.1459

> <r_epik_Ionization_Penalty_Neutral>
  0.0000

> <r_epik_State_Penalty>
  0.1346

> <r_epik_Charging_Adjusted_Penalty>
0.280492608850728

> <i_epik_Tot_Q>
-3

> <i_epik_Tot_abs_Q>
3

$$$$
