1pf7_ligand
                    3D
 Schrodinger Suite 2020-3.
 33 35  0  0  1  0            999 V2000
   50.7250   49.1780   30.2700 O   0  0  0  0  0  0
   49.9610   48.4690   31.2770 C   0  0  0  0  0  0
   50.4620   47.0280   31.5790 C   0  0  1  0  0  0
   50.5330   46.4580   30.2090 N   0  0  1  0  0  0
   51.9050   46.8660   32.1680 C   0  0  1  0  0  0
   51.9490   46.0500   33.4030 O   0  0  0  0  0  0
   52.8020   46.2210   31.0060 C   0  0  1  0  0  0
   53.4170   44.9330   31.3720 O   0  0  0  0  0  0
   51.8770   46.0030   29.8050 C   0  0  2  0  0  0
   52.2990   46.8140   28.4380 C   0  0  0  0  0  0
   51.4230   47.4420   27.6030 C   0  0  0  0  0  0
   52.1450   48.0550   26.5000 N   0  3  0  0  0  0
   53.5140   47.7290   26.7660 C   0  0  0  0  0  0
   54.6950   48.1150   25.9440 C   0  0  0  0  0  0
   54.7180   48.7860   24.8860 O   0  0  0  0  0  0
   55.8760   47.6050   26.5400 N   0  0  0  0  0  0
   55.9600   46.8450   27.7290 C   0  0  0  0  0  0
   54.8430   46.5420   28.4090 N   0  0  0  0  0  0
   53.6470   46.9970   27.9030 C   0  0  0  0  0  0
   50.4457   50.2042   29.9891 H   0  0  0  0  0  0
   50.0006   49.0243   32.2257 H   0  0  0  0  0  0
   48.9152   48.3792   30.9481 H   0  0  0  0  0  0
   49.7841   46.5535   32.3038 H   0  0  0  0  0  0
   49.8658   45.5862   30.1396 H   0  0  0  0  0  0
   52.2768   47.8281   32.5502 H   0  0  0  0  0  0
   51.3815   46.3653   34.2910 H   0  0  0  0  0  0
   53.6765   46.8448   30.7691 H   0  0  0  0  0  0
   54.1189   44.8791   32.2172 H   0  0  0  0  0  0
   51.8748   44.9169   29.6308 H   0  0  0  0  0  0
   50.3455   47.4268   27.8239 H   0  0  0  0  0  0
   56.8533   47.7906   26.0705 H   0  0  0  0  0  0
   56.9298   46.5057   28.0929 H   0  0  0  0  0  0
   51.5965   48.6085   25.7236 H   0  0  0  0  0  0
  1  2  1  0  0  0
  1 20  1  0  0  0
  2  3  1  0  0  0
  2 21  1  0  0  0
  2 22  1  0  0  0
  3  4  1  0  0  0
  3  5  1  0  0  0
  3 23  1  0  0  0
  4  9  1  0  0  0
  4 24  1  0  0  0
  5  6  1  0  0  0
  5  7  1  0  0  0
  5 25  1  0  0  0
  6 26  1  0  0  0
  7  8  1  0  0  0
  7  9  1  0  0  0
  7 27  1  0  0  0
  8 28  1  0  0  0
  9 10  1  0  0  0
  9 29  1  0  0  0
 10 11  2  0  0  0
 10 19  1  0  0  0
 11 12  1  0  0  0
 11 30  1  0  0  0
 12 13  1  0  0  0
 12 33  1  0  0  0
 13 14  1  0  0  0
 13 19  2  0  0  0
 14 15  2  0  0  0
 14 16  1  0  0  0
 16 17  1  0  0  0
 16 31  1  0  0  0
 17 18  2  0  0  0
 17 32  1  0  0  0
 18 19  1  0  0  0
M  CHG  1  12   1
M  END
> <s_m_source_file>
../1pf7_ligand.sdf

> <i_m_source_file_index>
1

> <s_epik_input>
W09IXVtDSDJdW0NASF0xW05IMitdW0NASF0oW0NASF0oW09IXSlbQ0BASF0xW09IXSljKFtjSF1bbkhdMiljKGMyMyluW2NIXVtuSF1jMz1P

> <s_epik_cmdline>
J2VwaWtfYXBwJywgJy1pbWFlJywgJ2xpZ2FuZF9wcm8ubWFlJywgJy1vbWFlJywgJ2xpZ2FuZF9wcmVwLm1hZScsICctbXMnLCAnMScsICctcGgnLCAnNycsICctcGh0JywgJzAuNScsICctbnQn

> <r_epik_Ionization_Penalty>
  0.0679

> <r_epik_Ionization_Penalty_Charging>
  0.0000

> <r_epik_Ionization_Penalty_Neutral>
  0.0679

> <r_epik_State_Penalty>
  0.0590

> <r_epik_Charging_Adjusted_Penalty>
0.0590486943449857

> <i_epik_Tot_Q>
1

> <i_epik_Tot_abs_Q>
1

$$$$
