1pf8_ligand
                    3D
 Schrodinger Suite 2020-3.
 29 31  0  0  1  0            999 V2000
    3.9010   30.3180    7.2150 N   0  3  0  0  0  0
    5.0560   29.6930    6.6410 C   0  0  0  0  0  0
    5.1700   28.2990    7.2690 N   0  0  0  0  0  0
    4.1160   28.2410    8.3880 C   0  0  0  0  0  0
    3.2290   29.4650    8.1890 C   0  0  0  0  0  0
    2.3110   29.6900    8.8500 C   0  0  0  0  0  0
    1.5050   30.8550    8.6340 C   0  0  0  0  0  0
    1.6200   31.9830    7.7530 C   0  0  0  0  0  0
    2.4970   32.1600    6.9410 O   0  0  0  0  0  0
    0.6670   32.8760    7.8810 N   0  0  0  0  0  0
   -0.1540   32.3890    8.8880 C   0  0  0  0  0  0
   -1.3500   32.9570    9.4550 C   0  0  0  0  0  0
   -2.0130   32.2650   10.4960 C   0  0  0  0  0  0
   -1.5600   31.0620   10.9950 C   0  0  0  0  0  0
   -2.1500   30.4340   11.9360 O   0  0  0  0  0  0
   -1.7770   29.3650   12.4060 C   0  0  0  0  0  0
   -0.2420   30.4020   10.3910 C   0  0  0  0  0  0
    0.3260   31.1690    9.3710 C   0  0  0  0  0  0
    5.7262   30.1265    5.8988 H   0  0  0  0  0  0
    4.0225   27.4810    9.1637 H   0  0  0  0  0  0
    2.0588   28.9891    9.6594 H   0  0  0  0  0  0
    0.6640   33.7724    7.2435 H   0  0  0  0  0  0
   -1.7389   33.9066    9.0873 H   0  0  0  0  0  0
   -2.9178   32.7002   10.9203 H   0  0  0  0  0  0
   -2.4694   29.0528   13.2017 H   0  0  0  0  0  0
   -0.7662   29.4811   12.8241 H   0  0  0  0  0  0
   -1.7607   28.6019   11.6139 H   0  0  0  0  0  0
    0.1718   29.4545   10.7362 H   0  0  0  0  0  0
    3.6140   31.3337    6.9050 H   0  0  0  0  0  0
  1  2  2  0  0  0
  1  5  1  0  0  0
  1 29  1  0  0  0
  2  3  1  0  0  0
  2 19  1  0  0  0
  3  4  1  0  0  0
  4  5  2  0  0  0
  4 20  1  0  0  0
  5  6  1  0  0  0
  6  7  2  0  0  0
  6 21  1  0  0  0
  7  8  1  0  0  0
  7 18  1  0  0  0
  8  9  2  0  0  0
  8 10  1  0  0  0
 10 11  1  0  0  0
 10 22  1  0  0  0
 11 12  2  0  0  0
 11 18  1  0  0  0
 12 13  1  0  0  0
 12 23  1  0  0  0
 13 14  2  0  0  0
 13 24  1  0  0  0
 14 15  1  0  0  0
 14 17  1  0  0  0
 15 16  1  0  0  0
 16 25  1  0  0  0
 16 26  1  0  0  0
 16 27  1  0  0  0
 17 18  2  0  0  0
 17 28  1  0  0  0
M  CHG  1   1   1
M  END
> <s_m_source_file>
../1pf8_ligand.sdf

> <i_m_source_file_index>
1

> <s_epik_input>
W2NIXTFbbkhdW2NIXW5jMS9bQ0hdPUMoXEMoPU8pW05IXTIpYyhjMjMpW2NIXWMoW2NIXVtjSF0zKU9bQ0gzXQ==

> <s_epik_cmdline>
J2VwaWtfYXBwJywgJy1pbWFlJywgJ2xpZ2FuZF9wcm8ubWFlJywgJy1vbWFlJywgJ2xpZ2FuZF9wcmVwLm1hZScsICctbXMnLCAnMScsICctcGgnLCAnNycsICctcGh0JywgJzAuNScsICctbnQn

> <r_epik_Ionization_Penalty>
  0.5236

> <r_epik_Ionization_Penalty_Charging>
  0.0000

> <r_epik_Ionization_Penalty_Neutral>
  0.5236

> <r_epik_State_Penalty>
  0.0000

> <r_epik_Charging_Adjusted_Penalty>
5.85877627464684e-06

> <i_epik_Tot_Q>
1

> <i_epik_Tot_abs_Q>
1

$$$$
