1pgp_ligand
                    3D
 Schrodinger Suite 2020-3.
 27 26  0  0  1  0            999 V2000
   20.2160   29.9130   38.8060 C   0  0  0  0  0  0
   20.3270   28.4720   39.3500 C   0  0  1  0  0  0
   21.8460   27.9720   39.4820 C   0  0  2  0  0  0
   22.8470   28.5740   40.5780 C   0  0  1  0  0  0
   24.4050   28.2270   40.2800 C   0  0  1  0  0  0
   25.2040   29.0020   39.1600 C   0  0  0  0  0  0
   21.2790   30.6310   38.5290 O   0  5  0  0  0  0
   19.1050   30.4010   38.5710 O   0  0  0  0  0  0
   19.6830   28.3710   40.6190 O   0  0  0  0  0  0
   22.3540   28.1650   38.1800 O   0  0  0  0  0  0
   22.7960   29.9890   40.7620 O   0  0  0  0  0  0
   25.1860   28.3860   41.4580 O   0  0  0  0  0  0
   25.7830   30.3680   39.4700 O   0  0  0  0  0  0
   27.3900   30.6110   39.6170 P   0  0  0  0  0  0
   27.7430   30.0220   40.9760 O   0  5  0  0  0  0
   27.7890   32.0490   39.7730 O   0  0  0  0  0  0
   28.2410   29.8860   38.4890 O   0  5  0  0  0  0
   19.7362   27.8225   38.6873 H   0  0  0  0  0  0
   21.8542   26.9077   39.7598 H   0  0  0  0  0  0
   22.4471   28.2057   41.5343 H   0  0  0  0  0  0
   24.3868   27.1673   39.9855 H   0  0  0  0  0  0
   26.0722   28.4030   38.8480 H   0  0  0  0  0  0
   24.5476   29.1748   38.2944 H   0  0  0  0  0  0
   18.6301   28.6705   40.7268 H   0  0  0  0  0  0
   21.7850   27.8078   37.3090 H   0  0  0  0  0  0
   21.8367   30.4811   40.9801 H   0  0  0  0  0  0
   24.8517   27.9359   42.4044 H   0  0  0  0  0  0
  1  2  1  0  0  0
  1  7  1  0  0  0
  1  8  2  0  0  0
  2  3  1  0  0  0
  2  9  1  0  0  0
  2 18  1  0  0  0
  3  4  1  0  0  0
  3 10  1  0  0  0
  3 19  1  0  0  0
  4  5  1  0  0  0
  4 11  1  0  0  0
  4 20  1  0  0  0
  5  6  1  0  0  0
  5 12  1  0  0  0
  5 21  1  0  0  0
  6 13  1  0  0  0
  6 22  1  0  0  0
  6 23  1  0  0  0
  9 24  1  0  0  0
 10 25  1  0  0  0
 11 26  1  0  0  0
 12 27  1  0  0  0
 13 14  1  0  0  0
 14 15  1  0  0  0
 14 16  2  0  0  0
 14 17  1  0  0  0
M  CHG  3   7  -1  15  -1  17  -1
M  END
> <s_m_source_file>
../1pgp_ligand.sdf

> <i_m_source_file_index>
1

> <s_epik_input>
W09IXUMoPU8pW0NASF0oW09IXSlbQ0BASF0oW09IXSlbQ0BIXShbT0hdKVtDQEhdKFtPSF0pW0NIMl1PUCg9TykoW09IXSlbT0hd

> <s_epik_cmdline>
J2VwaWtfYXBwJywgJy1pbWFlJywgJ2xpZ2FuZF9wcm8ubWFlJywgJy1vbWFlJywgJ2xpZ2FuZF9wcmVwLm1hZScsICctbXMnLCAnMScsICctcGgnLCAnNycsICctcGh0JywgJzAuNScsICctbnQn

> <r_epik_Ionization_Penalty>
  0.1165

> <r_epik_Ionization_Penalty_Charging>
  0.1165

> <r_epik_Ionization_Penalty_Neutral>
  0.0000

> <r_epik_State_Penalty>
  0.1060

> <r_epik_Charging_Adjusted_Penalty>
0.222488398628737

> <i_epik_Tot_Q>
-3

> <i_epik_Tot_abs_Q>
3

$$$$
