1phw_ligand
                    3D
 Schrodinger Suite 2020-3.
 22 22  0  0  1  0            999 V2000
    6.7200   -9.2370   43.1190 C   0  0  0  0  0  0
    5.6870  -10.1770   42.8500 O   0  0  0  0  0  0
    6.0070   -8.2400   44.0600 C   0  0  1  0  0  0
    6.7360   -6.9930   44.1230 O   0  0  0  0  0  0
    4.6630   -8.0810   43.3510 C   0  0  2  0  0  0
    3.6650   -7.4540   44.0940 O   0  0  0  0  0  0
    4.3510   -9.5630   43.0090 C   0  0  1  0  0  0
    3.5470   -9.9180   41.7050 C   0  0  0  0  0  0
    2.6750   -8.8990   41.2190 O   0  0  0  0  0  0
    3.1220   -7.6760   40.2330 P   0  0  0  0  0  0
    4.3040   -8.1030   39.2380 O   0  5  0  0  0  0
    3.6150   -6.4910   41.1100 O   0  0  0  0  0  0
    1.8540   -7.1410   39.4320 O   0  5  0  0  0  0
    7.5677   -9.7504   43.5963 H   0  0  0  0  0  0
    7.0529   -8.7782   42.1763 H   0  0  0  0  0  0
    5.9413   -8.5140   45.1233 H   0  0  0  0  0  0
    7.7232   -6.9569   44.6069 H   0  0  0  0  0  0
    4.6381   -7.3393   42.5391 H   0  0  0  0  0  0
    3.7808   -6.4017   44.3928 H   0  0  0  0  0  0
    3.7296   -9.9407   43.8343 H   0  0  0  0  0  0
    4.2508  -10.1366   40.8884 H   0  0  0  0  0  0
    2.9166  -10.7999   41.8916 H   0  0  0  0  0  0
  1  2  1  0  0  0
  1  3  1  0  0  0
  1 14  1  0  0  0
  1 15  1  0  0  0
  2  7  1  0  0  0
  3  4  1  0  0  0
  3  5  1  0  0  0
  3 16  1  0  0  0
  4 17  1  0  0  0
  5  6  1  0  0  0
  5  7  1  0  0  0
  5 18  1  0  0  0
  6 19  1  0  0  0
  7  8  1  0  0  0
  7 20  1  0  0  0
  8  9  1  0  0  0
  8 21  1  0  0  0
  8 22  1  0  0  0
  9 10  1  0  0  0
 10 11  1  0  0  0
 10 12  2  0  0  0
 10 13  1  0  0  0
M  CHG  2  11  -1  13  -1
M  END
> <s_m_source_file>
../1phw_ligand.sdf

> <i_m_source_file_index>
1

> <s_epik_input>
W09IXVtDQEBIXTFbQ0gyXU9bQ0BASF0oW0NASF0xW09IXSlbQ0gyXU9QKD1PKShbT0hdKVtPSF0=

> <s_epik_cmdline>
J2VwaWtfYXBwJywgJy1pbWFlJywgJ2xpZ2FuZF9wcm8ubWFlJywgJy1vbWFlJywgJ2xpZ2FuZF9wcmVwLm1hZScsICctbXMnLCAnMScsICctcGgnLCAnNycsICctcGh0JywgJzAuNScsICctbnQn

> <r_epik_Ionization_Penalty>
  0.1080

> <r_epik_Ionization_Penalty_Charging>
  0.1080

> <r_epik_Ionization_Penalty_Neutral>
  0.0000

> <r_epik_State_Penalty>
  0.0978

> <r_epik_Charging_Adjusted_Penalty>
0.205883500971996

> <i_epik_Tot_Q>
-2

> <i_epik_Tot_abs_Q>
2

$$$$
