1pi5_ligand
                    3D
 Schrodinger Suite 2020-3.
 35 36  0  0  1  0            999 V2000
   22.0130    5.0210   11.1100 C   0  0  0  0  0  0
   20.8260    5.7340   11.4250 C   0  0  0  0  0  0
   20.7500    6.1050   12.7160 C   0  0  0  0  0  0
   22.1220    5.6010   13.5930 S   0  0  0  0  0  0
   22.8230    4.8710   12.2060 C   0  0  0  0  0  0
   24.1840    4.1630   12.2910 C   0  0  0  0  0  0
   25.2050    5.1340   12.9000 C   0  0  0  0  0  0
   25.6580    6.0770   12.2290 O   0  0  0  0  0  0
   25.5620    4.9210   14.2140 N   0  0  0  0  0  0
   26.4930    5.7710   14.9710 C   0  0  2  0  0  0
   27.0480    5.0170   16.2990 B   0  0  0  0  0  0
   26.0040    4.1510   16.8580 O   0  0  0  0  0  0
   27.4550    6.0130   17.3130 O   0  0  0  0  0  0
   25.7760    7.0930   15.2680 C   0  0  0  0  0  0
   24.4160    7.1440   15.7370 C   0  0  0  0  0  0
   26.4430    8.3030   14.9600 C   0  0  0  0  0  0
   25.7470    9.5300   15.0740 C   0  0  0  0  0  0
   24.4040    9.5730   15.5060 C   0  0  0  0  0  0
   23.7310    8.3800   15.8450 C   0  0  0  0  0  0
   22.2980    8.4030   16.3180 C   0  0  0  0  0  0
   21.4130    7.9290   15.5710 O   0  5  0  0  0  0
   22.0420    8.8950   17.4380 O   0  0  0  0  0  0
   22.2513    4.6392   10.1172 H   0  0  0  0  0  0
   20.0514    5.9589   10.6918 H   0  0  0  0  0  0
   19.9157    6.6584   13.1471 H   0  0  0  0  0  0
   24.0932    3.2690   12.9255 H   0  0  0  0  0  0
   24.5062    3.8655   11.2822 H   0  0  0  0  0  0
   25.0994    4.0470   14.6959 H   0  0  0  0  0  0
   27.3373    5.9888   14.3005 H   0  0  0  0  0  0
   25.5734    3.3440   16.2470 H   0  0  0  0  0  0
   28.2328    6.7537   17.0752 H   0  0  0  0  0  0
   23.9067    6.2205   16.0125 H   0  0  0  0  0  0
   27.4842    8.2898   14.6377 H   0  0  0  0  0  0
   26.2579   10.4596   14.8234 H   0  0  0  0  0  0
   23.8859   10.5293   15.5779 H   0  0  0  0  0  0
  1  2  1  0  0  0
  1  5  2  0  0  0
  1 23  1  0  0  0
  2  3  2  0  0  0
  2 24  1  0  0  0
  3  4  1  0  0  0
  3 25  1  0  0  0
  4  5  1  0  0  0
  5  6  1  0  0  0
  6  7  1  0  0  0
  6 26  1  0  0  0
  6 27  1  0  0  0
  7  8  2  0  0  0
  7  9  1  0  0  0
  9 10  1  0  0  0
  9 28  1  0  0  0
 10 11  1  0  0  0
 10 14  1  0  0  0
 10 29  1  0  0  0
 11 12  1  0  0  0
 11 13  1  0  0  0
 12 30  1  0  0  0
 13 31  1  0  0  0
 14 15  2  0  0  0
 14 16  1  0  0  0
 15 19  1  0  0  0
 15 32  1  0  0  0
 16 17  2  0  0  0
 16 33  1  0  0  0
 17 18  1  0  0  0
 17 34  1  0  0  0
 18 19  2  0  0  0
 18 35  1  0  0  0
 19 20  1  0  0  0
 20 21  1  0  0  0
 20 22  2  0  0  0
M  CHG  1  21  -1
M  END
> <s_m_source_file>
../1pi5_ligand.sdf

> <i_m_source_file_index>
1

> <s_epik_input>
czFbY0hdW2NIXVtjSF1jMVtDSDJdQyg9TylbTkhdW0NASF0oQihbT0hdKVtPSF0pYzJbY0hdYyhDKD1PKVtPSF0pW2NIXVtjSF1bY0hdMg==

> <s_epik_cmdline>
J2VwaWtfYXBwJywgJy1pbWFlJywgJ2xpZ2FuZF9wcm8ubWFlJywgJy1vbWFlJywgJ2xpZ2FuZF9wcmVwLm1hZScsICctbXMnLCAnMScsICctcGgnLCAnNycsICctcGh0JywgJzAuNScsICctbnQn

> <r_lp_tautomer_probability>
1

> <r_epik_Ionization_Penalty>
  0.0009

> <r_epik_Ionization_Penalty_Charging>
  0.0009

> <r_epik_Ionization_Penalty_Neutral>
  0.0000

> <r_epik_State_Penalty>
 -0.0000

> <r_epik_Charging_Adjusted_Penalty>
0.000872034526607298

> <i_epik_Tot_Q>
-1

> <i_epik_Tot_abs_Q>
1

> <s_epik_Chemistry_Notes>
This compound contains a Lewis acid (boronic acid) which adds nucleophiles to form tetrahedral complexes, lowering the experimental pKa

$$$$
