1pig_ligand
                    3D
 Schrodinger Suite 2020-3.
131136  0  0  1  0            999 V2000
   31.1640   19.4360   62.9480 C   0  0  2  0  0  0
   31.3900   20.3290   64.1530 C   0  0  1  0  0  0
   32.5680   19.8100   64.9590 C   0  0  2  0  0  0
   32.3190   18.3690   65.3990 C   0  0  1  0  0  0
   32.0610   17.5350   64.1340 C   0  0  1  0  0  0
   31.6980   16.0910   64.4340 C   0  0  0  0  0  0
   31.6570   21.6510   63.7300 O   0  0  0  0  0  0
   32.7570   20.6270   66.0980 O   0  0  0  0  0  0
   33.2190   17.8640   66.2420 N   0  3  0  0  0  0
   30.9640   18.0940   63.3800 O   0  0  0  0  0  0
   32.3980   20.6640   57.9240 C   0  0  2  0  0  0
   32.5430   21.7770   58.9870 C   0  0  1  0  0  0
   32.9040   21.2340   60.3780 C   0  0  2  0  0  0
   31.9360   20.1060   60.7530 C   0  0  1  0  0  0
   32.0600   19.0340   59.6860 C   0  0  1  0  0  0
   31.2400   17.7890   59.9710 C   0  0  0  0  0  0
   33.5450   22.6940   58.5730 O   0  0  0  0  0  0
   32.8340   22.2850   61.3330 O   0  0  0  0  0  0
   32.2470   19.5580   62.0570 O   0  0  0  0  0  0
   31.6290   19.5680   58.4120 O   0  0  0  0  0  0
   29.8870   18.1100   60.2460 O   0  0  0  0  0  0
   35.9770   20.0930   54.2750 C   0  0  2  0  0  0
   34.6580   20.7910   53.8760 C   0  0  2  0  0  0
   34.8680   21.8980   53.0220 O   0  0  0  0  0  0
   33.9720   21.1780   55.2030 C   0  0  1  0  0  0
   32.7250   21.8060   54.9510 O   0  0  0  0  0  0
   33.7920   19.8860   56.1020 C   0  0  2  0  0  0
   33.6630   20.2740   57.4410 O   0  0  0  0  0  0
   34.8690   18.7750   56.0490 C   0  0  0  0  0  0
   35.9030   18.8840   55.1900 C   0  0  0  0  0  0
   34.7570   17.5630   56.9690 C   0  0  0  0  0  0
   33.8750   16.6550   56.3670 O   0  0  0  0  0  0
   40.2830   21.1060   57.3990 C   0  0  2  0  0  0
   40.1680   19.9470   56.4110 C   0  0  1  0  0  0
   39.2120   20.2560   55.2510 C   0  0  2  0  0  0
   37.8550   20.7480   55.7780 C   0  0  1  0  0  0
   38.1450   21.9800   56.6640 C   0  0  1  0  0  0
   36.9090   22.6060   57.2950 C   0  0  0  0  0  0
   41.4500   19.6520   55.8880 O   0  0  0  0  0  0
   39.0350   19.0830   54.4700 O   0  0  0  0  0  0
   36.9680   21.1080   54.6700 N   0  3  0  0  0  0
   39.0050   21.6110   57.7590 O   0  0  0  0  0  0
   44.4520   24.2080   58.4510 C   0  0  2  0  0  0
   44.7270   22.8750   57.7670 C   0  0  1  0  0  0
   43.5410   22.4230   56.9180 C   0  0  2  0  0  0
   42.2580   22.4670   57.7330 C   0  0  1  0  0  0
   42.0850   23.8800   58.2810 C   0  0  1  0  0  0
   40.8480   24.0610   59.1320 C   0  0  0  0  0  0
   45.8710   23.0060   56.9400 O   0  0  0  0  0  0
   43.7590   21.1000   56.4610 O   0  0  0  0  0  0
   41.1340   22.1000   56.8960 O   0  0  0  0  0  0
   43.2020   24.2000   59.1180 O   0  0  0  0  0  0
   40.9880   23.3720   60.3650 O   0  0  0  0  0  0
   46.5630   28.9230   57.4410 C   0  0  2  0  0  0
   47.3930   27.6390   57.3160 C   0  0  1  0  0  0
   46.4980   26.5100   56.8430 C   0  0  2  0  0  0
   45.4270   26.3210   57.8970 C   0  0  1  0  0  0
   44.6500   27.6270   58.0810 C   0  0  1  0  0  0
   43.6400   27.5170   59.2070 C   0  0  0  0  0  0
   47.3840   29.9010   57.9900 O   0  0  0  0  0  0
   48.4660   27.8100   56.4090 O   0  0  0  0  0  0
   47.2660   25.3240   56.6900 O   0  0  0  0  0  0
   44.5420   25.2470   57.5180 O   0  0  0  0  0  0
   45.5550   28.6970   58.4340 O   0  0  0  0  0  0
   44.2230   26.8900   60.3420 O   0  0  0  0  0  0
   30.2774   19.6974   62.3516 H   0  0  0  0  0  0
   30.4797   20.3962   64.7668 H   0  0  0  0  0  0
   33.4986   19.8889   64.3779 H   0  0  0  0  0  0
   31.5311   18.2788   66.1613 H   0  0  0  0  0  0
   32.9723   17.5737   63.5191 H   0  0  0  0  0  0
   32.5087   15.6213   65.0103 H   0  0  0  0  0  0
   31.5554   15.5450   63.4898 H   0  0  0  0  0  0
   30.7671   16.0610   65.0192 H   0  0  0  0  0  0
   30.9143   22.1970   63.1298 H   0  0  0  0  0  0
   32.9501   21.7031   65.9770 H   0  0  0  0  0  0
   33.3272   18.5342   67.1075 H   0  0  0  0  0  0
   34.1876   17.7675   65.7296 H   0  0  0  0  0  0
   32.8851   16.8735   66.5847 H   0  0  0  0  0  0
   31.8557   20.9796   57.0205 H   0  0  0  0  0  0
   31.6043   22.3466   59.0533 H   0  0  0  0  0  0
   33.9467   20.8867   60.4235 H   0  0  0  0  0  0
   30.9024   20.4685   60.8547 H   0  0  0  0  0  0
   33.1223   18.7551   59.6257 H   0  0  0  0  0  0
   31.2689   17.1227   59.0962 H   0  0  0  0  0  0
   31.6582   17.2664   60.8439 H   0  0  0  0  0  0
   33.4641   23.1930   57.5960 H   0  0  0  0  0  0
   33.4661   23.1776   61.2159 H   0  0  0  0  0  0
   29.1669   17.3098   60.4722 H   0  0  0  0  0  0
   36.3732   19.5962   53.3771 H   0  0  0  0  0  0
   34.0188   20.1874   53.2148 H   0  0  0  0  0  0
   35.3496   21.7542   52.0436 H   0  0  0  0  0  0
   34.5323   21.9727   55.7172 H   0  0  0  0  0  0
   32.6828   22.7191   54.3391 H   0  0  0  0  0  0
   32.8529   19.4123   55.7798 H   0  0  0  0  0  0
   36.6773   18.1033   55.1595 H   0  0  0  0  0  0
   35.7497   17.1065   57.0966 H   0  0  0  0  0  0
   34.3709   17.8808   57.9488 H   0  0  0  0  0  0
   33.6453   15.7003   56.8628 H   0  0  0  0  0  0
   40.7418   20.8182   58.3564 H   0  0  0  0  0  0
   39.8295   19.0466   56.9445 H   0  0  0  0  0  0
   39.6471   21.0013   54.5689 H   0  0  0  0  0  0
   37.3095   19.9584   56.3156 H   0  0  0  0  0  0
   38.6506   22.7201   56.0263 H   0  0  0  0  0  0
   36.2081   22.9111   56.5040 H   0  0  0  0  0  0
   37.2041   23.4873   57.8834 H   0  0  0  0  0  0
   36.4217   21.8719   57.9535 H   0  0  0  0  0  0
   42.2777   19.4031   56.5685 H   0  0  0  0  0  0
   39.9054   18.5913   54.0110 H   0  0  0  0  0  0
   37.6243   21.3315   53.8160 H   0  0  0  0  0  0
   36.4483   22.0256   54.9830 H   0  0  0  0  0  0
   45.1823   24.4572   59.2349 H   0  0  0  0  0  0
   44.9671   22.1084   58.5184 H   0  0  0  0  0  0
   43.4503   23.0426   56.0137 H   0  0  0  0  0  0
   42.2683   21.7278   58.5475 H   0  0  0  0  0  0
   42.0451   24.5667   57.4226 H   0  0  0  0  0  0
   40.6966   25.1313   59.3359 H   0  0  0  0  0  0
   39.9734   23.6623   58.5971 H   0  0  0  0  0  0
   46.8300   23.3248   57.3743 H   0  0  0  0  0  0
   44.6438   20.8679   55.8501 H   0  0  0  0  0  0
   40.1753   23.3995   61.1058 H   0  0  0  0  0  0
   46.1329   29.2789   56.4932 H   0  0  0  0  0  0
   47.8872   27.3919   58.2672 H   0  0  0  0  0  0
   46.0685   26.6885   55.8462 H   0  0  0  0  0  0
   45.8771   26.0004   58.8481 H   0  0  0  0  0  0
   44.1570   27.8808   57.1310 H   0  0  0  0  0  0
   43.2976   28.5228   59.4919 H   0  0  0  0  0  0
   42.7803   26.9184   58.8713 H   0  0  0  0  0  0
   46.9903   30.9123   58.1697 H   0  0  0  0  0  0
   49.2213   28.5887   56.5911 H   0  0  0  0  0  0
   48.0890   25.2919   55.9609 H   0  0  0  0  0  0
   43.6241   26.7314   61.2510 H   0  0  0  0  0  0
  1 10  1  0  0  0
  1  2  1  0  0  0
  1 19  1  0  0  0
  1 66  1  0  0  0
  2  7  1  0  0  0
  2  3  1  0  0  0
  2 67  1  0  0  0
  3  8  1  0  0  0
  3  4  1  0  0  0
  3 68  1  0  0  0
  4  9  1  0  0  0
  4  5  1  0  0  0
  4 69  1  0  0  0
  5 10  1  0  0  0
  5  6  1  0  0  0
  5 70  1  0  0  0
  6 71  1  0  0  0
  6 72  1  0  0  0
  6 73  1  0  0  0
  7 74  1  0  0  0
  8 75  1  0  0  0
  9 76  1  0  0  0
  9 77  1  0  0  0
  9 78  1  0  0  0
 11 20  1  0  0  0
 11 12  1  0  0  0
 11 28  1  0  0  0
 11 79  1  0  0  0
 12 17  1  0  0  0
 12 13  1  0  0  0
 12 80  1  0  0  0
 13 18  1  0  0  0
 13 14  1  0  0  0
 13 81  1  0  0  0
 14 19  1  0  0  0
 14 15  1  0  0  0
 14 82  1  0  0  0
 15 20  1  0  0  0
 15 16  1  0  0  0
 15 83  1  0  0  0
 16 21  1  0  0  0
 16 84  1  0  0  0
 16 85  1  0  0  0
 17 86  1  0  0  0
 18 87  1  0  0  0
 21 88  1  0  0  0
 22 30  1  0  0  0
 22 23  1  0  0  0
 22 41  1  0  0  0
 22 89  1  0  0  0
 23 25  1  0  0  0
 23 24  1  0  0  0
 23 90  1  0  0  0
 24 91  1  0  0  0
 25 27  1  0  0  0
 25 26  1  0  0  0
 25 92  1  0  0  0
 26 93  1  0  0  0
 27 29  1  0  0  0
 27 28  1  0  0  0
 27 94  1  0  0  0
 29 31  1  0  0  0
 29 30  2  0  0  0
 30 95  1  0  0  0
 31 32  1  0  0  0
 31 96  1  0  0  0
 31 97  1  0  0  0
 32 98  1  0  0  0
 33 42  1  0  0  0
 33 34  1  0  0  0
 33 51  1  0  0  0
 33 99  1  0  0  0
 34 39  1  0  0  0
 34 35  1  0  0  0
 34100  1  0  0  0
 35 40  1  0  0  0
 35 36  1  0  0  0
 35101  1  0  0  0
 36 41  1  0  0  0
 36 37  1  0  0  0
 36102  1  0  0  0
 37 42  1  0  0  0
 37 38  1  0  0  0
 37103  1  0  0  0
 38104  1  0  0  0
 38105  1  0  0  0
 38106  1  0  0  0
 39107  1  0  0  0
 40108  1  0  0  0
 41109  1  0  0  0
 41110  1  0  0  0
 43 52  1  0  0  0
 43 44  1  0  0  0
 43 63  1  0  0  0
 43111  1  0  0  0
 44 49  1  0  0  0
 44 45  1  0  0  0
 44112  1  0  0  0
 45 50  1  0  0  0
 45 46  1  0  0  0
 45113  1  0  0  0
 46 51  1  0  0  0
 46 47  1  0  0  0
 46114  1  0  0  0
 47 52  1  0  0  0
 47 48  1  0  0  0
 47115  1  0  0  0
 48 53  1  0  0  0
 48116  1  0  0  0
 48117  1  0  0  0
 49118  1  0  0  0
 50119  1  0  0  0
 53120  1  0  0  0
 54 64  1  0  0  0
 54 60  1  0  0  0
 54 55  1  0  0  0
 54121  1  0  0  0
 55 61  1  0  0  0
 55 56  1  0  0  0
 55122  1  0  0  0
 56 62  1  0  0  0
 56 57  1  0  0  0
 56123  1  0  0  0
 57 63  1  0  0  0
 57 58  1  0  0  0
 57124  1  0  0  0
 58 64  1  0  0  0
 58 59  1  0  0  0
 58125  1  0  0  0
 59 65  1  0  0  0
 59126  1  0  0  0
 59127  1  0  0  0
 60128  1  0  0  0
 61129  1  0  0  0
 62130  1  0  0  0
 65131  1  0  0  0
M  CHG  2   9   1  41   1
M  END
> <s_m_source_file>
../1pig_ligand.sdf

> <i_m_source_file_index>
1

> <s_epik_input>
W0NIM11bQ0BASF0oTzEpW0NAQEhdKFtOSDMrXSlbQ0BIXShbT0hdKVtDQEBIXShbT0hdKVtDQEhdMU9bQ0BIXShbQ0BIXShPMilbQ0gyXVtPSF0pW0NASF0oW09IXSlbQ0BASF0oW09IXSlbQ0BIXTJPW0NASF0oQyg9W0NIXTMpW0NIMl1bT0hdKVtDQEhdKFtPSF0pW0NAQEhdKFtPSF0pW0NASF0zW05IMitdW0NASF0oW0NASF0oTzQpW0NIM10pW0NASF0oW09IXSlbQ0BASF0oW09IXSlbQ0BIXTRPW0NASF0oW0NASF0oTzUpW0NIMl1bT0hdKVtDQEhdKFtPSF0pW0NAQEhdKFtPSF0pW0NASF01T1tDQEhdKFtDQEhdKE82KVtDSDJdW09IXSlbQ0BIXShbT0hdKVtDQEBIXShbT0hdKVtDQEBIXTZbT0hd

> <s_epik_cmdline>
J2VwaWtfYXBwJywgJy1pbWFlJywgJ2xpZ2FuZF9wcm8ubWFlJywgJy1vbWFlJywgJ2xpZ2FuZF9wcmVwLm1hZScsICctbXMnLCAnMScsICctcGgnLCAnNycsICctcGh0JywgJzAuNScsICctbnQn

> <r_lp_tautomer_probability>
1

> <r_epik_Ionization_Penalty>
  0.1702

> <r_epik_Ionization_Penalty_Charging>
  0.1701

> <r_epik_Ionization_Penalty_Neutral>
  0.0001

> <r_epik_State_Penalty>
 -0.0000

> <r_epik_Charging_Adjusted_Penalty>
0.170138233845672

> <i_epik_Tot_Q>
2

> <i_epik_Tot_abs_Q>
2

> <s_epik_Chemistry_Notes>
This compound contains an acetal/aminal-like group ( X-CH(R)-Y where X, Y are N, S, or O) that may be acid/base labile, releasing an aldehyde.

$$$$
