1pip_ligand
                    3D
 Schrodinger Suite 2020-3.
 95 95  0  0  1  0            999 V2000
   59.2760   58.8230   18.5060 C   0  0  0  0  0  0
   60.1470   58.8340   19.3580 O   0  5  0  0  0  0
   59.0200   59.8150   17.8640 O   0  0  0  0  0  0
   58.4920   57.5190   18.2210 C   0  0  0  0  0  0
   57.3980   57.5010   17.0980 C   0  0  0  0  0  0
   56.1920   56.5100   17.1850 C   0  0  0  0  0  0
   55.8080   56.1790   18.2830 O   0  0  0  0  0  0
   56.6960   55.6500   16.2660 N   0  0  0  0  0  0
   56.0070   54.3620   16.1980 C   0  0  2  0  0  0
   56.9730   53.5410   16.9990 C   0  0  0  0  0  0
   58.1590   53.7550   16.7490 O   0  0  0  0  0  0
   55.9560   53.7110   14.8060 C   0  0  0  0  0  0
   55.3620   52.2770   14.7840 C   0  0  0  0  0  0
   55.5650   51.4950   13.4910 C   0  0  0  0  0  0
   56.2390   50.4720   13.5140 O   0  0  0  0  0  0
   55.0530   51.8430   12.3170 N   0  0  0  0  0  0
   56.3960   52.6720   17.8540 N   0  0  0  0  0  0
   56.9750   51.7310   18.8350 C   0  0  2  0  0  0
   56.7010   52.2570   20.2620 C   0  0  0  0  0  0
   56.7910   53.4440   20.5980 O   0  0  0  0  0  0
   58.4780   51.5040   18.4790 C   0  0  0  0  0  0
   59.5030   51.4210   19.5940 C   0  0  0  0  0  0
   58.3270   50.2260   17.6540 C   0  0  0  0  0  0
   56.1020   51.2530   20.9270 N   0  0  0  0  0  0
   55.3130   51.3350   22.1680 C   0  0  2  0  0  0
   55.0710   49.8700   22.6340 C   0  0  0  0  0  0
   55.4370   48.9650   21.8870 O   0  0  0  0  0  0
   53.9790   52.0370   21.7880 C   0  0  0  0  0  0
   53.2530   51.0510   20.8320 C   0  0  0  0  0  0
   53.1120   52.4220   22.9990 C   0  0  0  0  0  0
   54.4160   49.5650   23.7670 N   0  0  0  0  0  0
   54.1270   48.2130   24.2860 C   0  0  2  0  0  0
   53.8190   46.9100   23.4790 C   0  0  0  0  0  0
   52.7120   46.3460   23.5760 O   0  0  0  0  0  0
   53.0020   48.4090   25.3250 C   0  0  0  0  0  0
   54.8770   46.4220   22.7950 N   0  0  0  0  0  0
   55.0550   45.1740   22.0100 C   0  0  2  0  0  0
   55.3220   45.4510   20.5170 C   0  0  0  0  0  0
   54.4890   46.0640   19.8250 O   0  0  0  0  0  0
   53.8600   44.1780   22.0080 C   0  0  0  0  0  0
   55.9100   44.3510   19.8450 N   0  0  0  0  0  0
   57.1900   44.4220   19.4760 C   0  0  0  0  0  0
   57.6950   45.4980   18.7310 C   0  0  0  0  0  0
   59.0430   45.5790   18.3500 C   0  0  0  0  0  0
   59.9790   44.5750   18.6510 C   0  0  0  0  0  0
   61.2590   44.6690   18.2960 N   0  3  0  0  0  0
   61.6710   45.7540   17.6410 O   0  5  0  0  0  0
   62.0920   43.6780   18.6070 O   0  0  0  0  0  0
   59.4680   43.4580   19.3340 C   0  0  0  0  0  0
   58.1200   43.3900   19.7230 C   0  0  0  0  0  0
   59.1946   56.7260   17.9250 H   0  0  0  0  0  0
   57.9517   57.2103   19.1281 H   0  0  0  0  0  0
   56.9204   58.4899   17.0355 H   0  0  0  0  0  0
   57.8671   57.2587   16.1330 H   0  0  0  0  0  0
   57.5492   55.8531   15.6020 H   0  0  0  0  0  0
   54.9674   54.4813   16.5370 H   0  0  0  0  0  0
   55.3339   54.3239   14.1372 H   0  0  0  0  0  0
   56.9746   53.6403   14.3967 H   0  0  0  0  0  0
   55.8233   51.6768   15.5820 H   0  0  0  0  0  0
   54.2751   52.3278   14.9452 H   0  0  0  0  0  0
   54.4388   52.7516   12.2324 H   0  0  0  0  0  0
   55.2429   51.2228   11.4286 H   0  0  0  0  0  0
   55.3046   52.7400   17.7350 H   0  0  0  0  0  0
   56.4654   50.7587   18.7644 H   0  0  0  0  0  0
   58.9556   52.3650   17.9885 H   0  0  0  0  0  0
   59.5413   52.3813   20.1291 H   0  0  0  0  0  0
   60.4922   51.1995   19.1669 H   0  0  0  0  0  0
   59.2188   50.6220   20.2946 H   0  0  0  0  0  0
   57.5665   50.3806   16.8744 H   0  0  0  0  0  0
   58.0162   49.4002   18.3108 H   0  0  0  0  0  0
   59.2896   49.9777   17.1832 H   0  0  0  0  0  0
   56.2559   50.2806   20.4363 H   0  0  0  0  0  0
   55.8431   51.9041   22.9459 H   0  0  0  0  0  0
   54.1725   53.0104   21.3136 H   0  0  0  0  0  0
   53.9126   50.8080   19.9859 H   0  0  0  0  0  0
   52.3306   51.5174   20.4557 H   0  0  0  0  0  0
   53.0018   50.1294   21.3775 H   0  0  0  0  0  0
   53.6694   53.1188   23.6423 H   0  0  0  0  0  0
   52.8589   51.5173   23.5712 H   0  0  0  0  0  0
   52.1877   52.9052   22.6494 H   0  0  0  0  0  0
   54.0831   50.4517   24.3265 H   0  0  0  0  0  0
   55.1716   47.9893   24.5481 H   0  0  0  0  0  0
   53.1958   49.3218   25.9075 H   0  0  0  0  0  0
   52.9723   47.5419   26.0012 H   0  0  0  0  0  0
   52.0364   48.5030   24.8066 H   0  0  0  0  0  0
   55.7083   47.1363   22.8883 H   0  0  0  0  0  0
   55.9137   44.7633   22.5613 H   0  0  0  0  0  0
   53.5959   43.9201   23.0442 H   0  0  0  0  0  0
   54.1444   43.2652   21.4640 H   0  0  0  0  0  0
   52.9947   44.6445   21.5143 H   0  0  0  0  0  0
   55.3121   43.4523   19.6334 H   0  0  0  0  0  0
   57.0165   46.2991   18.4378 H   0  0  0  0  0  0
   59.3780   46.4570   17.7977 H   0  0  0  0  0  0
   60.1325   42.6260   19.5670 H   0  0  0  0  0  0
   57.7752   42.4954   20.2415 H   0  0  0  0  0  0
  1  4  1  0  0  0
  1  3  2  0  0  0
  1  2  1  0  0  0
  4  5  1  0  0  0
  4 51  1  0  0  0
  4 52  1  0  0  0
  5  6  1  0  0  0
  5 53  1  0  0  0
  5 54  1  0  0  0
  6  7  2  0  0  0
  6  8  1  0  0  0
  8  9  1  0  0  0
  8 55  1  0  0  0
  9 10  1  0  0  0
  9 12  1  0  0  0
  9 56  1  0  0  0
 10 11  2  0  0  0
 10 17  1  0  0  0
 12 13  1  0  0  0
 12 57  1  0  0  0
 12 58  1  0  0  0
 13 14  1  0  0  0
 13 59  1  0  0  0
 13 60  1  0  0  0
 14 15  2  0  0  0
 14 16  1  0  0  0
 16 61  1  0  0  0
 16 62  1  0  0  0
 17 18  1  0  0  0
 17 63  1  0  0  0
 18 19  1  0  0  0
 18 21  1  0  0  0
 18 64  1  0  0  0
 19 20  2  0  0  0
 19 24  1  0  0  0
 21 22  1  0  0  0
 21 23  1  0  0  0
 21 65  1  0  0  0
 22 66  1  0  0  0
 22 67  1  0  0  0
 22 68  1  0  0  0
 23 69  1  0  0  0
 23 70  1  0  0  0
 23 71  1  0  0  0
 24 25  1  0  0  0
 24 72  1  0  0  0
 25 26  1  0  0  0
 25 28  1  0  0  0
 25 73  1  0  0  0
 26 27  2  0  0  0
 26 31  1  0  0  0
 28 29  1  0  0  0
 28 30  1  0  0  0
 28 74  1  0  0  0
 29 75  1  0  0  0
 29 76  1  0  0  0
 29 77  1  0  0  0
 30 78  1  0  0  0
 30 79  1  0  0  0
 30 80  1  0  0  0
 31 32  1  0  0  0
 31 81  1  0  0  0
 32 33  1  0  0  0
 32 35  1  0  0  0
 32 82  1  0  0  0
 33 34  2  0  0  0
 33 36  1  0  0  0
 35 83  1  0  0  0
 35 84  1  0  0  0
 35 85  1  0  0  0
 36 37  1  0  0  0
 36 86  1  0  0  0
 37 38  1  0  0  0
 37 40  1  0  0  0
 37 87  1  0  0  0
 38 39  2  0  0  0
 38 41  1  0  0  0
 40 88  1  0  0  0
 40 89  1  0  0  0
 40 90  1  0  0  0
 41 42  1  0  0  0
 41 91  1  0  0  0
 42 50  2  0  0  0
 42 43  1  0  0  0
 43 44  2  0  0  0
 43 92  1  0  0  0
 44 45  1  0  0  0
 44 93  1  0  0  0
 45 49  2  0  0  0
 45 46  1  0  0  0
 46 48  2  0  0  0
 46 47  1  0  0  0
 49 50  1  0  0  0
 49 94  1  0  0  0
 50 95  1  0  0  0
M  CHG  3   2  -1  46   1  47  -1
M  END
> <s_m_source_file>
../1pip_ligand.sdf

> <i_m_source_file_index>
1

> <s_epik_input>
W09IXUMoPU8pW0NIMl1bQ0gyXUMoPU8pW05IXVtDQEBIXShbQ0gyXVtDSDJdQyg9TylbTkgyXSlDKD1PKVtOSF1bQ0BASF0oW0NIXShbQ0gzXSlbQ0gzXSlDKD1PKVtOSF1bQ0BASF0oW0NIXShbQ0gzXSlbQ0gzXSlDKD1PKVtOSF1bQ0BASF0oW0NIM10pQyg9TylbTkhdW0NAQEhdKFtDSDNdKUMoPU8pW05IXWMxW2NIXVtjSF1jKFtOK10oW08tXSk9TylbY0hdW2NIXTE=

> <s_epik_cmdline>
J2VwaWtfYXBwJywgJy1pbWFlJywgJ2xpZ2FuZF9wcm8ubWFlJywgJy1vbWFlJywgJ2xpZ2FuZF9wcmVwLm1hZScsICctbXMnLCAnMScsICctcGgnLCAnNycsICctcGh0JywgJzAuNScsICctbnQn

> <r_lp_tautomer_probability>
1

> <r_epik_Ionization_Penalty>
  0.0044

> <r_epik_Ionization_Penalty_Charging>
  0.0044

> <r_epik_Ionization_Penalty_Neutral>
  0.0000

> <r_epik_State_Penalty>
 -0.0000

> <r_epik_Charging_Adjusted_Penalty>
0.00438455355776972

> <i_epik_Tot_Q>
-1

> <i_epik_Tot_abs_Q>
3

$$$$
