1pk0_ligand
                    3D
 Schrodinger Suite 2020-3.
 36 37  0  0  1  0            999 V2000
   31.8310   72.3580   44.6520 P   0  0  0  0  0  0
   30.6500   71.5090   44.8280 O   0  0  0  0  0  0
   32.5140   72.7120   45.9040 O   0  5  0  0  0  0
   31.5690   73.4940   43.6980 O   0  5  0  0  0  0
   33.0080   70.5340   42.5560 P   0  0  1  0  0  0
   31.6760   69.8730   42.3120 O   0  5  0  0  0  0
   33.5120   71.4410   41.5240 O   0  0  0  0  0  0
   32.9580   71.3470   44.0090 O   0  0  0  0  0  0
   34.1100   68.0690   43.6200 P   0  0  1  0  0  0
   34.0740   68.4610   45.0350 O   0  0  0  0  0  0
   33.0750   67.1140   43.1360 O   0  5  0  0  0  0
   34.0580   69.4140   42.8250 O   0  0  0  0  0  0
   35.6010   67.5400   43.3490 C   0  0  0  0  0  0
   36.1030   66.9960   42.1030 O   0  0  0  0  0  0
   35.1390   65.9460   41.7350 C   0  0  0  0  0  0
   35.5920   64.7750   40.8530 C   0  0  0  0  0  0
   36.9850   64.6300   40.3220 N   0  0  0  0  0  0
   37.6780   65.3810   39.3950 C   0  0  0  0  0  0
   38.8760   64.9470   39.1140 N   0  0  0  0  0  0
   38.9530   63.8190   39.8850 C   0  0  0  0  0  0
   40.0270   62.8550   40.0700 C   0  0  0  0  0  0
   41.1110   62.9700   39.3620 N   0  0  0  0  0  0
   39.8090   61.8460   40.9160 N   0  0  0  0  0  0
   38.6660   61.7440   41.6040 C   0  0  0  0  0  0
   37.6050   62.5970   41.5370 N   0  0  0  0  0  0
   37.8370   63.6110   40.6420 C   0  0  0  0  0  0
   36.3164   68.3591   43.5145 H   0  0  0  0  0  0
   35.8268   66.7115   44.0365 H   0  0  0  0  0  0
   34.7560   65.4641   42.6466 H   0  0  0  0  0  0
   34.3029   66.3946   41.1785 H   0  0  0  0  0  0
   35.4547   63.8301   41.3992 H   0  0  0  0  0  0
   34.9917   64.7564   39.9315 H   0  0  0  0  0  0
   37.2554   66.2722   38.9310 H   0  0  0  0  0  0
   41.2348   63.8246   38.6806 H   0  0  0  0  0  0
   41.9046   62.2127   39.4443 H   0  0  0  0  0  0
   38.5745   60.8969   42.2838 H   0  0  0  0  0  0
  1  2  2  0  0  0
  1  3  1  0  0  0
  1  4  1  0  0  0
  1  8  1  0  0  0
  5  6  1  0  0  0
  5  7  2  0  0  0
  5  8  1  0  0  0
  5 12  1  0  0  0
  9 10  2  0  0  0
  9 11  1  0  0  0
  9 12  1  0  0  0
  9 13  1  0  0  0
 13 14  1  0  0  0
 13 27  1  0  0  0
 13 28  1  0  0  0
 14 15  1  0  0  0
 15 16  1  0  0  0
 15 29  1  0  0  0
 15 30  1  0  0  0
 16 17  1  0  0  0
 16 31  1  0  0  0
 16 32  1  0  0  0
 17 18  1  0  0  0
 17 26  1  0  0  0
 18 19  2  0  0  0
 18 33  1  0  0  0
 19 20  1  0  0  0
 20 21  2  0  0  0
 20 26  1  0  0  0
 21 22  1  0  0  0
 21 23  1  0  0  0
 22 34  1  0  0  0
 22 35  1  0  0  0
 23 24  2  0  0  0
 24 25  1  0  0  0
 24 36  1  0  0  0
 25 26  2  0  0  0
M  CHG  4   3  -1   4  -1   6  -1  11  -1
M  END
> <s_m_source_file>
../1pk0_ligand.sdf

> <i_m_source_file_index>
1

> <s_epik_input>
Tz1QKFtPSF0pKFtPSF0pT1tQQF0oPU8pKFtPSF0pT1tQQEBdKD1PKShbT0hdKVtDSDJdT1tDSDJdW0NIMl1uKFtjSF1uMSljKGMxMiluW2NIXW5jMltOSDJd

> <s_epik_cmdline>
J2VwaWtfYXBwJywgJy1pbWFlJywgJ2xpZ2FuZF9wcm8ubWFlJywgJy1vbWFlJywgJ2xpZ2FuZF9wcmVwLm1hZScsICctbXMnLCAnMScsICctcGgnLCAnNycsICctcGh0JywgJzAuNScsICctbnQn

> <r_lp_tautomer_probability>
0.999997216410988

> <r_epik_Ionization_Penalty>
  0.0840

> <r_epik_Ionization_Penalty_Charging>
  0.0830

> <r_epik_Ionization_Penalty_Neutral>
  0.0010

> <r_epik_State_Penalty>
  0.0725

> <r_epik_Charging_Adjusted_Penalty>
0.155520908348907

> <i_epik_Tot_Q>
-4

> <i_epik_Tot_abs_Q>
4

$$$$
