1pme_ligand
                    3D
 Schrodinger Suite 2020-3.
 42 45  0  0  1  0            999 V2000
  -13.7810   13.9180   41.3640 N   0  0  0  0  0  0
  -12.5420   14.0610   40.9510 C   0  0  0  0  0  0
  -12.3530   13.5720   39.7460 N   0  0  0  0  0  0
  -13.5270   12.7880   39.4470 C   0  0  3  0  0  0
  -14.4120   13.0090   40.4400 C   0  0  0  0  0  0
  -16.8120   13.2360   41.1220 C   0  0  0  0  0  0
  -15.7510   12.4420   40.6940 C   0  0  0  0  0  0
  -15.9960   11.0900   40.5670 C   0  0  0  0  0  0
  -17.2620   10.6060   40.8780 C   0  0  0  0  0  0
  -18.2890   11.3480   41.2940 N   0  0  0  0  0  0
  -18.0460   12.6460   41.4050 C   0  0  0  0  0  0
  -14.6710   10.9760   36.3520 C   0  0  0  0  0  0
  -13.6740   10.0510   36.2350 C   0  0  0  0  0  0
  -12.6080   10.0390   37.1000 C   0  0  0  0  0  0
  -12.5730   10.9480   38.1180 C   0  0  0  0  0  0
  -13.5780   11.8760   38.2880 C   0  0  0  0  0  0
  -14.6220   11.8850   37.3820 C   0  0  0  0  0  0
  -11.4170   14.6840   41.7310 C   0  0  0  0  0  0
  -10.5340   15.5730   41.1320 C   0  0  0  0  0  0
   -9.5200   16.1780   41.8690 C   0  0  0  0  0  0
   -9.3690   15.9000   43.2120 C   0  0  0  0  0  0
  -10.2160   14.9850   43.7800 C   0  0  0  0  0  0
  -11.2350   14.3990   43.0680 C   0  0  0  0  0  0
   -8.2360   16.7430   44.1980 S   0  0  3  0  0  0
   -8.3020   18.2160   43.9820 O   0  0  0  0  0  0
   -7.1180   16.0940   45.3480 C   0  0  0  0  0  0
  -13.8960    9.0150   35.4600 F   0  0  0  0  0  0
  -16.6802   14.3120   41.2355 H   0  0  0  0  0  0
  -15.2111   10.4134   40.2289 H   0  0  0  0  0  0
  -17.4283    9.5339   40.7733 H   0  0  0  0  0  0
  -18.8583   13.2924   41.7373 H   0  0  0  0  0  0
  -15.4948   10.9936   35.6384 H   0  0  0  0  0  0
  -11.8024    9.3153   36.9760 H   0  0  0  0  0  0
  -11.7321   10.9398   38.8114 H   0  0  0  0  0  0
  -15.4173   12.6231   37.4858 H   0  0  0  0  0  0
  -10.6364   15.7999   40.0708 H   0  0  0  0  0  0
   -8.8401   16.8767   41.3815 H   0  0  0  0  0  0
  -10.0776   14.7141   44.8267 H   0  0  0  0  0  0
  -11.9075   13.7005   43.5660 H   0  0  0  0  0  0
   -7.2107   14.9982   45.3713 H   0  0  0  0  0  0
   -7.3395   16.5020   46.3452 H   0  0  0  0  0  0
   -6.0931   16.3692   45.0585 H   0  0  0  0  0  0
  1  5  2  0  0  0
  1  2  1  0  0  0
  2 18  1  0  0  0
  2  3  2  0  0  0
  3  4  1  0  0  0
  4 16  1  0  0  0
  4  5  1  0  0  0
  5  7  1  0  0  0
  6  7  2  0  0  0
  6 11  1  0  0  0
  6 28  1  0  0  0
  7  8  1  0  0  0
  8  9  2  0  0  0
  8 29  1  0  0  0
  9 10  1  0  0  0
  9 30  1  0  0  0
 10 11  2  0  0  0
 11 31  1  0  0  0
 12 13  2  0  0  0
 12 17  1  0  0  0
 12 32  1  0  0  0
 13 27  1  0  0  0
 13 14  1  0  0  0
 14 15  2  0  0  0
 14 33  1  0  0  0
 15 16  1  0  0  0
 15 34  1  0  0  0
 16 17  2  0  0  0
 17 35  1  0  0  0
 18 23  2  0  0  0
 18 19  1  0  0  0
 19 20  2  0  0  0
 19 36  1  0  0  0
 20 21  1  0  0  0
 20 37  1  0  0  0
 21 24  1  0  0  0
 21 22  2  0  0  0
 22 23  1  0  0  0
 22 38  1  0  0  0
 23 39  1  0  0  0
 24 26  1  0  0  0
 24 25  2  0  0  0
 26 40  1  0  0  0
 26 41  1  0  0  0
 26 42  1  0  0  0
M  END
> <s_m_source_file>
../1pme_ligand.sdf

> <i_m_source_file_index>
1

> <s_epik_input>
W2NIXTFbY0hdbltjSF1bY0hdYzFDKD1OMilbQ0hdKGMoW2NIXVtjSF0zKVtjSF1bY0hdYzNGKU49QzJjNFtjSF1bY0hdYyhbY0hdW2NIXTQpUyg9TylbQ0gzXQ==

> <s_epik_cmdline>
J2VwaWtfYXBwJywgJy1pbWFlJywgJ2xpZ2FuZF9wcm8ubWFlJywgJy1vbWFlJywgJ2xpZ2FuZF9wcmVwLm1hZScsICctbXMnLCAnMScsICctcGgnLCAnNycsICctcGh0JywgJzAuNScsICctbnQn

> <r_epik_Ionization_Penalty>
  0.5662

> <r_epik_Ionization_Penalty_Charging>
  0.0000

> <r_epik_Ionization_Penalty_Neutral>
  0.5662

> <r_epik_State_Penalty>
  0.4617

> <r_epik_Charging_Adjusted_Penalty>
0.461714872116904

> <i_epik_Tot_Q>
0

> <i_epik_Tot_abs_Q>
0

> <s_epik_Chemistry_Notes>
This compound has an imine and may undergo hydrolysis.

$$$$
