1pmu_ligand
                    3D
 Schrodinger Suite 2020-3.
 33 36  0  0  1  0            999 V2000
   22.3110   23.4790   47.0970 C   0  0  0  0  0  0
   23.5300   23.4880   47.9300 C   0  0  0  0  0  0
   23.5400   22.8160   49.1950 C   0  0  0  0  0  0
   22.3640   22.1630   49.6050 C   0  0  0  0  0  0
   21.2220   22.1490   48.8470 N   0  0  0  0  0  0
   21.1770   22.7770   47.6340 C   0  0  0  0  0  0
   22.3530   24.1910   45.8060 C   0  0  0  0  0  0
   23.6340   24.8330   45.4700 C   0  0  0  0  0  0
   24.7770   24.8190   46.3080 C   0  0  0  0  0  0
   24.7410   24.1450   47.5380 C   0  0  0  0  0  0
   21.2800   24.2860   44.8610 C   0  0  0  0  0  0
   21.4180   24.9880   43.6460 C   0  0  0  0  0  0
   22.6670   25.5900   43.3760 C   0  0  0  0  0  0
   23.7040   25.5090   44.2620 N   0  0  0  0  0  0
   18.4540   24.1920   41.3030 C   0  0  0  0  0  0
   19.5380   24.0020   42.2010 C   0  0  0  0  0  0
   20.2770   25.1130   42.6790 C   0  0  0  0  0  0
   19.9130   26.4000   42.2440 C   0  0  0  0  0  0
   18.8510   26.6010   41.3630 C   0  0  0  0  0  0
   18.1130   25.5110   40.8900 C   0  0  0  0  0  0
   17.0730   25.7590   40.0360 O   0  0  0  0  0  0
   24.4323   22.8110   49.8210 H   0  0  0  0  0  0
   22.3604   21.6468   50.5650 H   0  0  0  0  0  0
   20.2534   22.7447   47.0561 H   0  0  0  0  0  0
   25.6861   25.3331   45.9961 H   0  0  0  0  0  0
   25.6188   24.1217   48.1837 H   0  0  0  0  0  0
   20.3302   23.8018   45.0879 H   0  0  0  0  0  0
   22.8066   26.1311   42.4402 H   0  0  0  0  0  0
   17.8888   23.3363   40.9337 H   0  0  0  0  0  0
   19.8032   22.9955   42.5245 H   0  0  0  0  0  0
   20.4749   27.2616   42.6045 H   0  0  0  0  0  0
   18.5951   27.6107   41.0419 H   0  0  0  0  0  0
   16.4717   24.9251   39.6449 H   0  0  0  0  0  0
  1  2  1  0  0  0
  1  6  2  0  0  0
  1  7  1  0  0  0
  2  3  2  0  0  0
  2 10  1  0  0  0
  3  4  1  0  0  0
  3 22  1  0  0  0
  4  5  2  0  0  0
  4 23  1  0  0  0
  5  6  1  0  0  0
  6 24  1  0  0  0
  7  8  2  0  0  0
  7 11  1  0  0  0
  8  9  1  0  0  0
  8 14  1  0  0  0
  9 10  2  0  0  0
  9 25  1  0  0  0
 10 26  1  0  0  0
 11 12  2  0  0  0
 11 27  1  0  0  0
 12 13  1  0  0  0
 12 17  1  0  0  0
 13 14  2  0  0  0
 13 28  1  0  0  0
 15 16  2  0  0  0
 15 20  1  0  0  0
 15 29  1  0  0  0
 16 17  1  0  0  0
 16 30  1  0  0  0
 17 18  2  0  0  0
 18 19  1  0  0  0
 18 31  1  0  0  0
 19 20  2  0  0  0
 19 32  1  0  0  0
 20 21  1  0  0  0
 21 33  1  0  0  0
M  END
> <s_m_source_file>
../1pmu_ligand.sdf

> <i_m_source_file_index>
1

> <s_epik_input>
W2NIXTFuW2NIXVtjSF1jKGMxMilbY0hdW2NIXWMzYzJbY0hdYyhbY0hdbjMpLWM0W2NIXVtjSF1jKFtPSF0pW2NIXVtjSF00

> <s_epik_cmdline>
J2VwaWtfYXBwJywgJy1pbWFlJywgJ2xpZ2FuZF9wcm8ubWFlJywgJy1vbWFlJywgJ2xpZ2FuZF9wcmVwLm1hZScsICctbXMnLCAnMScsICctcGgnLCAnNycsICctcGh0JywgJzAuNScsICctbnQn

> <r_lp_tautomer_probability>
1

> <r_epik_Ionization_Penalty>
  0.0021

> <r_epik_Ionization_Penalty_Charging>
  0.0000

> <r_epik_Ionization_Penalty_Neutral>
  0.0021

> <r_epik_State_Penalty>
 -0.0000

> <r_epik_Charging_Adjusted_Penalty>
0

> <i_epik_Tot_Q>
0

> <i_epik_Tot_abs_Q>
0

$$$$
