1pmx_ligand
                    3D
 Schrodinger Suite 2020-3.
254256  0  0  1  0            999 V2000
   -1.2580    2.8560    2.7870 N   0  3  0  0  0  0
    0.1480    2.8190    2.3070 C   0  0  2  0  0  0
    0.2380    3.2140    0.8370 C   0  0  0  0  0  0
   -0.7620    3.5710    0.2160 O   0  0  0  0  0  0
    0.6930    1.4030    2.5080 C   0  0  0  0  0  0
   -0.1540    0.3250    1.8510 C   0  0  0  0  0  0
    0.6990   -0.8410    1.3760 C   0  0  0  0  0  0
    1.5630   -1.3570    2.4380 N   0  0  0  0  0  0
    2.6720   -2.0710    2.2260 C   0  0  0  0  0  0
    3.0690   -2.3630    0.9910 N   0  0  0  0  0  0
    3.3880   -2.4940    3.2580 N   0  0  0  0  0  0
    1.4460    3.1500    0.2860 N   0  0  0  0  0  0
    1.6700    3.5000   -1.1120 C   0  0  2  0  0  0
    0.9500    2.5280   -2.0410 C   0  0  0  0  0  0
    1.0160    1.3120   -1.8540 O   0  0  0  0  0  0
    3.1680    3.5080   -1.4230 C   0  0  0  0  0  0
    3.8460    4.7850   -0.9660 C   0  0  0  0  0  0
    3.9130    5.7660   -1.7060 O   0  0  0  0  0  0
    4.3550    4.7780    0.2620 N   0  0  0  0  0  0
    0.2630    3.0700   -3.0410 N   0  0  0  0  0  0
   -0.4680    2.2480   -3.9990 C   0  0  2  0  0  0
    0.4590    1.7350   -5.0960 C   0  0  0  0  0  0
    0.3720    0.5780   -5.5050 O   0  0  0  0  0  0
   -1.6140    3.0490   -4.6190 C   0  0  0  0  0  0
   -3.1600    3.0080   -3.6520 S   0  0  0  0  0  0
    1.3480    2.6050   -5.5680 N   0  0  0  0  0  0
    2.2900    2.2380   -6.6180 C   0  0  2  0  0  0
    3.4940    1.5000   -6.0350 C   0  0  0  0  0  0
    4.6000    2.0400   -5.9680 O   0  0  0  0  0  0
    2.7470    3.4860   -7.3820 C   0  0  0  0  0  0
    1.6630    4.1250   -8.2080 C   0  0  0  0  0  0
    0.7990    3.3490   -8.9660 C   0  0  0  0  0  0
    1.5120    5.5010   -8.2300 C   0  0  0  0  0  0
   -0.1940    3.9330   -9.7280 C   0  0  0  0  0  0
    0.5200    6.0920   -8.9900 C   0  0  0  0  0  0
   -0.3350    5.3060   -9.7400 C   0  0  0  0  0  0
    3.2680    0.2590   -5.6180 N   0  0  0  0  0  0
    4.3270   -0.5620   -5.0400 C   0  0  2  0  0  0
    4.4410   -1.8910   -5.7800 C   0  0  0  0  0  0
    5.5400   -2.3370   -6.1140 O   0  0  0  0  0  0
    4.0550   -0.8150   -3.5560 C   0  0  0  0  0  0
    5.3090   -1.1150   -2.7510 C   0  0  0  0  0  0
    6.2480    0.0730   -2.6710 C   0  0  0  0  0  0
    7.0610    0.2500   -3.6020 O   0  0  0  0  0  0
    6.1720    0.8250   -1.6760 O   0  0  0  0  0  0
    3.2980   -2.5180   -6.0360 N   0  0  0  0  0  0
    3.2640   -3.7950   -6.7390 C   0  0  2  0  0  0
    2.0320   -3.8880   -7.6340 C   0  0  0  0  0  0
    1.1750   -3.0040   -7.6190 O   0  0  0  0  0  0
    3.2710   -4.9530   -5.7390 C   0  0  0  0  0  0
    2.3060   -4.7540   -4.7200 O   0  0  0  0  0  0
    1.9480   -4.9620   -8.4110 N   0  0  0  0  0  0
    0.8190   -5.1670   -9.3120 C   0  0  2  0  0  0
   -0.4650   -5.4410   -8.5310 C   0  0  0  0  0  0
   -1.5590   -5.0990   -8.9770 O   0  0  0  0  0  0
    1.0880   -6.3330  -10.2870 C   0  0  0  0  0  0
   -0.0290   -6.4470  -11.3170 C   0  0  0  0  0  0
    2.4360   -6.1510  -10.9690 C   0  0  0  0  0  0
   -0.3220   -6.0610   -7.3630 N   0  0  0  0  0  0
   -1.4700   -6.3810   -6.5220 C   0  0  2  0  0  0
   -2.0350   -5.1300   -5.8580 C   0  0  0  0  0  0
   -3.2510   -4.9740   -5.7380 O   0  0  0  0  0  0
   -1.0800   -7.4090   -5.4710 C   0  0  0  0  0  0
   -1.1450   -4.2440   -5.4230 N   0  0  0  0  0  0
   -1.5490   -3.0060   -4.7630 C   0  0  2  0  0  0
   -2.4820   -2.1740   -5.6390 C   0  0  0  0  0  0
   -3.4470   -1.5860   -5.1490 O   0  0  0  0  0  0
   -0.3220   -2.1910   -4.3800 C   0  0  0  0  0  0
   -2.1900   -2.1230   -6.9350 N   0  0  0  0  0  0
   -3.0060   -1.3570   -7.8710 C   0  0  2  0  0  0
   -4.4490   -1.8630   -7.8810 C   0  0  0  0  0  0
   -5.3940   -1.0750   -7.8760 O   0  0  0  0  0  0
   -2.4000   -1.4200   -9.2810 C   0  0  0  0  0  0
   -2.2750   -0.0680   -9.9900 C   0  0  0  0  0  0
   -1.2500   -0.1410  -11.1110 C   0  0  0  0  0  0
   -3.6260    0.3770  -10.5310 C   0  0  0  0  0  0
   -4.6060   -3.1840   -7.8960 N   0  0  0  0  0  0
   -5.9310   -3.7940   -7.9070 C   0  0  2  0  0  0
   -6.6820   -3.4880   -6.6150 C   0  0  0  0  0  0
   -7.8240   -3.0280   -6.6430 O   0  0  0  0  0  0
   -5.8150   -5.3070   -8.0960 C   0  0  0  0  0  0
   -5.5960   -5.7240   -9.5410 C   0  0  0  0  0  0
   -5.8790   -7.2040   -9.7430 C   0  0  0  0  0  0
   -4.7680   -8.0410   -9.2900 N   0  0  0  0  0  0
   -4.8760   -9.3420   -9.0020 C   0  0  0  0  0  0
   -6.0410   -9.9720   -9.1140 N   0  0  0  0  0  0
   -3.8070  -10.0150   -8.5990 N   0  0  0  0  0  0
   -6.0350   -3.7480   -5.4840 N   0  0  0  0  0  0
   -6.6420   -3.5000   -4.1810 C   0  0  2  0  0  0
   -7.0050   -2.0290   -4.0150 C   0  0  0  0  0  0
   -8.0600   -1.6960   -3.4740 O   0  0  0  0  0  0
   -5.6920   -3.9320   -3.0620 C   0  0  0  0  0  0
   -5.5610   -5.4400   -2.9230 C   0  0  0  0  0  0
   -5.1450   -5.8340   -1.5150 C   0  0  0  0  0  0
   -3.7250   -5.5790   -1.2700 N   0  0  0  0  0  0
   -3.1630   -5.5520   -0.0580 C   0  0  0  0  0  0
   -3.8890   -5.7630    1.0360 N   0  0  0  0  0  0
   -1.8650   -5.3100    0.0590 N   0  0  0  0  0  0
   -6.1230   -1.1500   -4.4820 N   0  0  0  0  0  0
   -6.3510    0.2880   -4.3840 C   0  0  2  0  0  0
   -7.5860    0.7010   -5.1800 C   0  0  0  0  0  0
   -8.4360    1.4420   -4.6840 O   0  0  0  0  0  0
   -5.1260    1.0550   -4.8860 C   0  0  0  0  0  0
   -3.7240    1.0590   -3.7230 S   0  0  0  0  0  0
   -7.6780    0.2180   -6.4140 N   0  0  0  0  0  0
   -8.8080    0.5390   -7.2780 C   0  0  2  0  0  0
  -10.0700   -0.1900   -6.8220 C   0  0  0  0  0  0
  -11.1170    0.4260   -6.6280 O   0  0  0  0  0  0
   -8.4910    0.1700   -8.7290 C   0  0  0  0  0  0
   -9.4440    0.7910   -9.7360 C   0  0  0  0  0  0
   -9.1860    0.1690  -11.4080 S   0  0  0  0  0  0
  -10.3360   -1.2040  -11.4410 C   0  0  0  0  0  0
   -9.9600   -1.5030   -6.6560 N   0  0  0  0  0  0
  -11.0910   -2.3160   -6.2250 C   0  0  2  0  0  0
  -11.3920   -2.0890   -4.7430 C   0  0  0  0  0  0
  -11.1490   -2.9580   -3.9040 O   0  0  0  0  0  0
  -10.8100   -3.7990   -6.4900 C   0  0  0  0  0  0
  -10.9930   -4.2000   -7.9370 C   0  0  0  0  0  0
  -12.2600   -4.4370   -8.4570 C   0  0  0  0  0  0
   -9.8990   -4.3440   -8.7810 C   0  0  0  0  0  0
  -12.4310   -4.8030   -9.7780 C   0  0  0  0  0  0
  -10.0630   -4.7100  -10.1050 C   0  0  0  0  0  0
  -11.3300   -4.9390  -10.5970 C   0  0  0  0  0  0
  -11.4980   -5.3040  -11.9130 O   0  0  0  0  0  0
  -11.9230   -0.9120   -4.4290 N   0  0  0  0  0  0
  -12.2480   -0.5870   -3.0540 C   0  0  0  0  0  0
  -13.4330    0.3540   -2.9430 C   0  0  0  0  0  0
  -14.3550    0.2470   -3.7780 O   0  0  0  0  0  0
  -13.4360    1.1980   -2.0230 O   0  0  0  0  0  0
   -1.6658    3.8683    2.6496 H   0  0  0  0  0  0
   -1.2883    2.5901    3.8540 H   0  0  0  0  0  0
   -1.8605    2.1369    2.2127 H   0  0  0  0  0  0
    0.7217    3.5512    2.8941 H   0  0  0  0  0  0
    1.7030    1.3344    2.0777 H   0  0  0  0  0  0
    0.7365    1.1760    3.5835 H   0  0  0  0  0  0
   -0.8906   -0.0543    2.5746 H   0  0  0  0  0  0
   -0.6785    0.7495    0.9823 H   0  0  0  0  0  0
    0.0461   -1.6588    1.0370 H   0  0  0  0  0  0
    1.3379   -0.5125    0.5429 H   0  0  0  0  0  0
    1.3142   -1.1638    3.4919 H   0  0  0  0  0  0
    2.4815   -2.0164    0.1280 H   0  0  0  0  0  0
    3.9849   -2.9511    0.8323 H   0  0  0  0  0  0
    3.0678   -2.2575    4.2834 H   0  0  0  0  0  0
    2.2886    2.8230    0.9129 H   0  0  0  0  0  0
    1.2453    4.5074   -1.2331 H   0  0  0  0  0  0
    3.6532    2.6638   -0.9113 H   0  0  0  0  0  0
    3.3176    3.4136   -2.5087 H   0  0  0  0  0  0
    4.2707    3.8769    0.8872 H   0  0  0  0  0  0
    4.8605    5.6733    0.6530 H   0  0  0  0  0  0
    0.2539    4.1658   -3.1368 H   0  0  0  0  0  0
   -0.8594    1.3994   -3.4188 H   0  0  0  0  0  0
   -1.3168    4.1042   -4.7095 H   0  0  0  0  0  0
   -1.8453    2.6464   -5.6162 H   0  0  0  0  0  0
    1.3617    3.6213   -5.1474 H   0  0  0  0  0  0
    1.7364    1.5628   -7.2871 H   0  0  0  0  0  0
    3.1020    4.2436   -6.6678 H   0  0  0  0  0  0
    3.5639    3.2174   -8.0679 H   0  0  0  0  0  0
    0.9049    2.2642   -8.9604 H   0  0  0  0  0  0
    2.1834    6.1259   -7.6410 H   0  0  0  0  0  0
   -0.8655    3.3103  -10.3192 H   0  0  0  0  0  0
    0.4120    7.1766   -8.9979 H   0  0  0  0  0  0
   -1.1186    5.7695  -10.3394 H   0  0  0  0  0  0
    2.2503   -0.1464   -5.7178 H   0  0  0  0  0  0
    5.2535    0.0173   -5.1664 H   0  0  0  0  0  0
    3.5847    0.0750   -3.1125 H   0  0  0  0  0  0
    3.3811   -1.6778   -3.4486 H   0  0  0  0  0  0
    5.0279   -1.3933   -1.7246 H   0  0  0  0  0  0
    5.8554   -1.9467   -3.2198 H   0  0  0  0  0  0
    6.8406    1.6944   -1.5913 H   0  0  0  0  0  0
    2.3607   -2.0487   -5.7024 H   0  0  0  0  0  0
    4.1741   -3.8149   -7.3565 H   0  0  0  0  0  0
    3.0398   -5.8918   -6.2636 H   0  0  0  0  0  0
    4.2643   -5.0287   -5.2725 H   0  0  0  0  0  0
    2.1869   -5.5014   -3.9218 H   0  0  0  0  0  0
    2.7562   -5.7067   -8.3637 H   0  0  0  0  0  0
    0.7312   -4.2154   -9.8568 H   0  0  0  0  0  0
    1.1171   -7.2771   -9.7232 H   0  0  0  0  0  0
   -0.9916   -6.5776  -10.8010 H   0  0  0  0  0  0
    0.1591   -7.3140  -11.9674 H   0  0  0  0  0  0
   -0.0608   -5.5317  -11.9262 H   0  0  0  0  0  0
    3.2249   -6.0713  -10.2065 H   0  0  0  0  0  0
    2.4189   -5.2339  -11.5762 H   0  0  0  0  0  0
    2.6387   -7.0162  -11.6173 H   0  0  0  0  0  0
    0.6924   -6.3331   -7.0358 H   0  0  0  0  0  0
   -2.2258   -6.8028   -7.2009 H   0  0  0  0  0  0
   -0.6749   -8.3039   -5.9660 H   0  0  0  0  0  0
   -1.9668   -7.6856   -4.8819 H   0  0  0  0  0  0
   -0.3163   -6.9809   -4.8051 H   0  0  0  0  0  0
   -0.0778   -4.4648   -5.5722 H   0  0  0  0  0  0
   -2.0941   -3.3254   -3.8625 H   0  0  0  0  0  0
    0.3414   -2.8013   -3.7496 H   0  0  0  0  0  0
   -0.6357   -1.2958   -3.8231 H   0  0  0  0  0  0
    0.2150   -1.8869   -5.2906 H   0  0  0  0  0  0
   -1.3103   -2.6755   -7.2968 H   0  0  0  0  0  0
   -2.9897   -0.3230   -7.4961 H   0  0  0  0  0  0
   -1.3860   -1.8428   -9.2257 H   0  0  0  0  0  0
   -3.0281   -2.0561   -9.9220 H   0  0  0  0  0  0
   -1.9304    0.6809   -9.2617 H   0  0  0  0  0  0
   -0.2814   -0.4638  -10.7017 H   0  0  0  0  0  0
   -1.1406    0.8513  -11.5729 H   0  0  0  0  0  0
   -1.5867   -0.8633  -11.8692 H   0  0  0  0  0  0
   -4.3534    0.4239   -9.7072 H   0  0  0  0  0  0
   -3.9736   -0.3430  -11.2865 H   0  0  0  0  0  0
   -3.5275    1.3717  -10.9903 H   0  0  0  0  0  0
   -3.7080   -3.8193   -7.9000 H   0  0  0  0  0  0
   -6.4581   -3.3379   -8.7580 H   0  0  0  0  0  0
   -4.9629   -5.6852   -7.5121 H   0  0  0  0  0  0
   -6.7401   -5.7917   -7.7507 H   0  0  0  0  0  0
   -6.2683   -5.1487  -10.1945 H   0  0  0  0  0  0
   -4.5517   -5.5274   -9.8251 H   0  0  0  0  0  0
   -6.7766   -7.4867   -9.1734 H   0  0  0  0  0  0
   -6.0453   -7.4030  -10.8120 H   0  0  0  0  0  0
   -3.7655   -7.6052   -9.1673 H   0  0  0  0  0  0
   -6.9336   -9.4225   -9.4475 H   0  0  0  0  0  0
   -6.1125  -11.0429   -8.8732 H   0  0  0  0  0  0
   -2.8384   -9.5026   -8.5031 H   0  0  0  0  0  0
   -5.0171   -4.1602   -5.5471 H   0  0  0  0  0  0
   -7.5590   -4.1075   -4.1672 H   0  0  0  0  0  0
   -4.6866   -3.5319   -3.2598 H   0  0  0  0  0  0
   -6.0582   -3.5442   -2.1000 H   0  0  0  0  0  0
   -6.5281   -5.9142   -3.1464 H   0  0  0  0  0  0
   -4.8006   -5.8085   -3.6273 H   0  0  0  0  0  0
   -5.7285   -5.2544   -0.7846 H   0  0  0  0  0  0
   -5.3316   -6.9075   -1.3644 H   0  0  0  0  0  0
   -3.0458   -5.3932   -2.1151 H   0  0  0  0  0  0
   -4.9669   -5.9647    0.9503 H   0  0  0  0  0  0
   -3.4116   -5.7358    2.0266 H   0  0  0  0  0  0
   -1.2551   -5.1341   -0.8394 H   0  0  0  0  0  0
   -5.2036   -1.5304   -4.9511 H   0  0  0  0  0  0
   -6.5180    0.4856   -3.3148 H   0  0  0  0  0  0
   -4.7686    0.6024   -5.8227 H   0  0  0  0  0  0
   -5.3996    2.1049   -5.0671 H   0  0  0  0  0  0
   -6.8751   -0.4388   -6.7799 H   0  0  0  0  0  0
   -8.9496    1.6252   -7.1777 H   0  0  0  0  0  0
   -7.4768    0.5132   -8.9814 H   0  0  0  0  0  0
   -8.5496   -0.9216   -8.8509 H   0  0  0  0  0  0
  -10.4810    0.5645   -9.4474 H   0  0  0  0  0  0
   -9.2984    1.8812   -9.7547 H   0  0  0  0  0  0
  -10.2916   -1.6959  -12.4239 H   0  0  0  0  0  0
  -11.3559   -0.8324  -11.2627 H   0  0  0  0  0  0
  -10.0667   -1.9267  -10.6567 H   0  0  0  0  0  0
   -8.9861   -1.9754   -6.8520 H   0  0  0  0  0  0
  -11.9449   -1.9755   -6.8291 H   0  0  0  0  0  0
   -9.7707   -4.0303   -6.2137 H   0  0  0  0  0  0
  -11.4950   -4.4151   -5.8890 H   0  0  0  0  0  0
  -13.1326   -4.3324   -7.8122 H   0  0  0  0  0  0
   -8.8957   -4.1658   -8.3940 H   0  0  0  0  0  0
  -13.4315   -4.9834  -10.1711 H   0  0  0  0  0  0
   -9.1950   -4.8167  -10.7556 H   0  0  0  0  0  0
  -12.5080   -5.4874  -12.3083 H   0  0  0  0  0  0
  -12.1156   -0.1802   -5.2274 H   0  0  0  0  0  0
  -12.4960   -1.5092   -2.5081 H   0  0  0  0  0  0
  -11.3839   -0.1004   -2.5781 H   0  0  0  0  0  0
  -15.2271    0.9152   -3.7230 H   0  0  0  0  0  0
  1  2  1  0  0  0
  1130  1  0  0  0
  1131  1  0  0  0
  1132  1  0  0  0
  2  3  1  0  0  0
  2  5  1  0  0  0
  2133  1  0  0  0
  3  4  2  0  0  0
  3 12  1  0  0  0
  5  6  1  0  0  0
  5134  1  0  0  0
  5135  1  0  0  0
  6  7  1  0  0  0
  6136  1  0  0  0
  6137  1  0  0  0
  7  8  1  0  0  0
  7138  1  0  0  0
  7139  1  0  0  0
  8  9  1  0  0  0
  8140  1  0  0  0
  9 10  1  0  0  0
  9 11  2  0  0  0
 10141  1  0  0  0
 10142  1  0  0  0
 11143  1  0  0  0
 12 13  1  0  0  0
 12144  1  0  0  0
 13 14  1  0  0  0
 13 16  1  0  0  0
 13145  1  0  0  0
 14 15  2  0  0  0
 14 20  1  0  0  0
 16 17  1  0  0  0
 16146  1  0  0  0
 16147  1  0  0  0
 17 18  2  0  0  0
 17 19  1  0  0  0
 19148  1  0  0  0
 19149  1  0  0  0
 20 21  1  0  0  0
 20150  1  0  0  0
 21 22  1  0  0  0
 21 24  1  0  0  0
 21151  1  0  0  0
 22 23  2  0  0  0
 22 26  1  0  0  0
 24 25  1  0  0  0
 24152  1  0  0  0
 24153  1  0  0  0
 25104  1  0  0  0
 26 27  1  0  0  0
 26154  1  0  0  0
 27 28  1  0  0  0
 27 30  1  0  0  0
 27155  1  0  0  0
 28 29  2  0  0  0
 28 37  1  0  0  0
 30 31  1  0  0  0
 30156  1  0  0  0
 30157  1  0  0  0
 31 32  2  0  0  0
 31 33  1  0  0  0
 32 34  1  0  0  0
 32158  1  0  0  0
 33 35  2  0  0  0
 33159  1  0  0  0
 34 36  2  0  0  0
 34160  1  0  0  0
 35 36  1  0  0  0
 35161  1  0  0  0
 36162  1  0  0  0
 37 38  1  0  0  0
 37163  1  0  0  0
 38 39  1  0  0  0
 38 41  1  0  0  0
 38164  1  0  0  0
 39 40  2  0  0  0
 39 46  1  0  0  0
 41 42  1  0  0  0
 41165  1  0  0  0
 41166  1  0  0  0
 42 43  1  0  0  0
 42167  1  0  0  0
 42168  1  0  0  0
 43 44  2  0  0  0
 43 45  1  0  0  0
 45169  1  0  0  0
 46 47  1  0  0  0
 46170  1  0  0  0
 47 48  1  0  0  0
 47 50  1  0  0  0
 47171  1  0  0  0
 48 49  2  0  0  0
 48 52  1  0  0  0
 50 51  1  0  0  0
 50172  1  0  0  0
 50173  1  0  0  0
 51174  1  0  0  0
 52 53  1  0  0  0
 52175  1  0  0  0
 53 54  1  0  0  0
 53 56  1  0  0  0
 53176  1  0  0  0
 54 55  2  0  0  0
 54 59  1  0  0  0
 56 57  1  0  0  0
 56 58  1  0  0  0
 56177  1  0  0  0
 57178  1  0  0  0
 57179  1  0  0  0
 57180  1  0  0  0
 58181  1  0  0  0
 58182  1  0  0  0
 58183  1  0  0  0
 59 60  1  0  0  0
 59184  1  0  0  0
 60 61  1  0  0  0
 60 63  1  0  0  0
 60185  1  0  0  0
 61 62  2  0  0  0
 61 64  1  0  0  0
 63186  1  0  0  0
 63187  1  0  0  0
 63188  1  0  0  0
 64 65  1  0  0  0
 64189  1  0  0  0
 65 66  1  0  0  0
 65 68  1  0  0  0
 65190  1  0  0  0
 66 67  2  0  0  0
 66 69  1  0  0  0
 68191  1  0  0  0
 68192  1  0  0  0
 68193  1  0  0  0
 69 70  1  0  0  0
 69194  1  0  0  0
 70 71  1  0  0  0
 70 73  1  0  0  0
 70195  1  0  0  0
 71 72  2  0  0  0
 71 77  1  0  0  0
 73 74  1  0  0  0
 73196  1  0  0  0
 73197  1  0  0  0
 74 75  1  0  0  0
 74 76  1  0  0  0
 74198  1  0  0  0
 75199  1  0  0  0
 75200  1  0  0  0
 75201  1  0  0  0
 76202  1  0  0  0
 76203  1  0  0  0
 76204  1  0  0  0
 77 78  1  0  0  0
 77205  1  0  0  0
 78 79  1  0  0  0
 78 81  1  0  0  0
 78206  1  0  0  0
 79 80  2  0  0  0
 79 88  1  0  0  0
 81 82  1  0  0  0
 81207  1  0  0  0
 81208  1  0  0  0
 82 83  1  0  0  0
 82209  1  0  0  0
 82210  1  0  0  0
 83 84  1  0  0  0
 83211  1  0  0  0
 83212  1  0  0  0
 84 85  1  0  0  0
 84213  1  0  0  0
 85 86  1  0  0  0
 85 87  2  0  0  0
 86214  1  0  0  0
 86215  1  0  0  0
 87216  1  0  0  0
 88 89  1  0  0  0
 88217  1  0  0  0
 89 90  1  0  0  0
 89 92  1  0  0  0
 89218  1  0  0  0
 90 91  2  0  0  0
 90 99  1  0  0  0
 92 93  1  0  0  0
 92219  1  0  0  0
 92220  1  0  0  0
 93 94  1  0  0  0
 93221  1  0  0  0
 93222  1  0  0  0
 94 95  1  0  0  0
 94223  1  0  0  0
 94224  1  0  0  0
 95 96  1  0  0  0
 95225  1  0  0  0
 96 97  1  0  0  0
 96 98  2  0  0  0
 97226  1  0  0  0
 97227  1  0  0  0
 98228  1  0  0  0
 99100  1  0  0  0
 99229  1  0  0  0
100101  1  0  0  0
100103  1  0  0  0
100230  1  0  0  0
101102  2  0  0  0
101105  1  0  0  0
103104  1  0  0  0
103231  1  0  0  0
103232  1  0  0  0
105106  1  0  0  0
105233  1  0  0  0
106107  1  0  0  0
106109  1  0  0  0
106234  1  0  0  0
107108  2  0  0  0
107113  1  0  0  0
109110  1  0  0  0
109235  1  0  0  0
109236  1  0  0  0
110111  1  0  0  0
110237  1  0  0  0
110238  1  0  0  0
111112  1  0  0  0
112239  1  0  0  0
112240  1  0  0  0
112241  1  0  0  0
113114  1  0  0  0
113242  1  0  0  0
114115  1  0  0  0
114117  1  0  0  0
114243  1  0  0  0
115116  2  0  0  0
115125  1  0  0  0
117118  1  0  0  0
117244  1  0  0  0
117245  1  0  0  0
118119  2  0  0  0
118120  1  0  0  0
119121  1  0  0  0
119246  1  0  0  0
120122  2  0  0  0
120247  1  0  0  0
121123  2  0  0  0
121248  1  0  0  0
122123  1  0  0  0
122249  1  0  0  0
123124  1  0  0  0
124250  1  0  0  0
125126  1  0  0  0
125251  1  0  0  0
126127  1  0  0  0
126252  1  0  0  0
126253  1  0  0  0
127128  1  0  0  0
127129  2  0  0  0
128254  1  0  0  0
M  CHG  1   1   1
M  END
> <s_m_source_file>
../1pmx_ligand.sdf

> <i_m_source_file_index>
1

> <s_epik_input>
W0hdL049QyhbTkgyXSlcW05IXVtDSDJdW0NIMl1bQ0gyXVtDQEhdKFtOSDMrXSlDKD1PKVtOSF1bQ0BASF0oW0NIMl1DKD1PKVtOSDJdKUMoPU8pW05IXVtDQEBIXTFDKD1PKVtOSF1bQ0BASF0oW0NIMl1jMltjSF1bY0hdW2NIXVtjSF1bY0hdMilDKD1PKVtOSF1bQ0BASF0oW0NIMl1bQ0gyXUMoPU8pW09IXSlDKD1PKVtOSF1bQ0BASF0oW0NIMl1bT0hdKUMoPU8pW05IXVtDQEBIXShbQ0hdKFtDSDNdKVtDSDNdKUMoPU8pW05IXVtDQEBIXShbQ0gzXSlDKD1PKVtOSF1bQ0BASF0oW0NIM10pQyg9TylbTkhdW0NAQEhdKFtDSDJdW0NIXShbQ0gzXSlbQ0gzXSlDKD1PKVtOSF1bQ0BASF0oW0NIMl1bQ0gyXVtDSDJdW05IXS9DKFtOSDJdKT1OXFtIXSlDKD1PKVtOSF1bQ0BASF0oW0NIMl1bQ0gyXVtDSDJdW05IXS9DKFtOSDJdKT1OXFtIXSlDKD1PKVtOSF1bQ0BASF0oW0NIMl1TU1tDSDJdMSlDKD1PKVtOSF1bQ0BASF0oW0NIMl1bQ0gyXVNbQ0gzXSlDKD1PKVtOSF1bQ0BIXShDKD1PKVtOSF1bQ0gyXUMoPU8pW09IXSlbQ0gyXWMzW2NIXVtjSF1jKFtPSF0pW2NIXVtjSF0z

> <s_epik_cmdline>
J2VwaWtfYXBwJywgJy1pbWFlJywgJ2xpZ2FuZF9wcm8ubWFlJywgJy1vbWFlJywgJ2xpZ2FuZF9wcmVwLm1hZScsICctbXMnLCAnMScsICctcGgnLCAnNycsICctcGh0JywgJzAuNScsICctbnQn

> <s_epik_pKa_notes>
Molecule size exceeds maximum supported for generating protonation states

> <s_epik_Chemistry_Notes>
This compound has an imine and may undergo hydrolysis.

$$$$
