1pop_ligand
                    3D
 Schrodinger Suite 2020-3.
 71 70  0  0  1  0            999 V2000
   18.1090   68.4890   20.9420 C   0  0  0  0  0  0
   18.4260   68.6970   19.7590 O   0  0  0  0  0  0
   17.2150   67.3360   21.3560 C   0  0  0  0  0  0
   18.4390   69.2520   21.9840 N   0  0  0  0  0  0
   19.3980   70.3440   21.8930 C   0  0  2  0  0  0
   20.8050   69.7210   21.9520 C   0  0  0  0  0  0
   21.0500   68.7570   22.7010 O   0  0  0  0  0  0
   19.2100   71.3170   23.0690 C   0  0  0  0  0  0
   18.4410   72.5990   22.7690 C   0  0  0  0  0  0
   17.0440   72.3170   22.2550 C   0  0  0  0  0  0
   18.3480   73.3840   24.0720 C   0  0  0  0  0  0
   21.7030   70.2520   21.1320 N   0  0  0  0  0  0
   23.0830   69.7930   21.0930 C   0  0  2  0  0  0
   23.8410   70.9130   21.7800 C   0  0  0  0  0  0
   23.4470   72.0710   21.6410 O   0  0  0  0  0  0
   23.5640   69.6140   19.6350 C   0  0  0  0  0  0
   22.9140   68.5270   18.7280 C   0  0  0  0  0  0
   22.8360   67.2150   19.5150 C   0  0  0  0  0  0
   21.4890   68.9040   18.3240 C   0  0  0  0  0  0
   24.8150   70.4970   22.5850 N   0  0  0  0  0  0
   25.7070   71.3740   23.3310 C   0  0  2  0  0  0
   27.1860   71.1710   22.9740 C   0  0  0  0  0  0
   28.0600   72.1980   23.4900 O   0  0  0  0  0  0
   25.5290   71.1390   24.8290 C   0  0  0  0  0  0
   24.4710   72.0230   25.4630 C   0  0  0  0  0  0
   23.2980   71.2940   26.0920 C   0  0  0  0  0  0
   23.6370   70.5240   27.2910 N   0  0  0  0  0  0
   23.2540   69.2280   27.4570 C   0  0  0  0  0  0
   22.5280   68.5910   26.5020 N   0  0  0  0  0  0
   23.5910   68.5640   28.5830 N   0  3  0  0  0  0
   16.9645   66.7307   20.4724 H   0  0  0  0  0  0
   16.2911   67.7309   21.8038 H   0  0  0  0  0  0
   17.7409   66.7102   22.0921 H   0  0  0  0  0  0
   17.9516   69.0266   22.9440 H   0  0  0  0  0  0
   19.2125   70.8735   20.9468 H   0  0  0  0  0  0
   18.6567   70.8143   23.8759 H   0  0  0  0  0  0
   20.1945   71.6353   23.4425 H   0  0  0  0  0  0
   18.9625   73.1625   21.9813 H   0  0  0  0  0  0
   17.1069   71.7503   21.3143 H   0  0  0  0  0  0
   16.5203   73.2676   22.0761 H   0  0  0  0  0  0
   16.4906   71.7283   23.0014 H   0  0  0  0  0  0
   19.3606   73.5908   24.4485 H   0  0  0  0  0  0
   17.7933   72.7942   24.8166 H   0  0  0  0  0  0
   17.8230   74.3336   23.8913 H   0  0  0  0  0  0
   21.3747   71.0648   20.4674 H   0  0  0  0  0  0
   23.1808   68.8221   21.6007 H   0  0  0  0  0  0
   23.4084   70.5509   19.0800 H   0  0  0  0  0  0
   24.6339   69.3586   19.6306 H   0  0  0  0  0  0
   23.5178   68.4194   17.8149 H   0  0  0  0  0  0
   23.8474   66.9118   19.8234 H   0  0  0  0  0  0
   22.3961   66.4320   18.8798 H   0  0  0  0  0  0
   22.2085   67.3592   20.4069 H   0  0  0  0  0  0
   21.5061   69.8451   17.7547 H   0  0  0  0  0  0
   20.8739   69.0327   19.2268 H   0  0  0  0  0  0
   21.0615   68.1055   17.6997 H   0  0  0  0  0  0
   24.9223   69.4053   22.6664 H   0  0  0  0  0  0
   25.3930   72.3837   23.0277 H   0  0  0  0  0  0
   27.5340   70.2117   23.3846 H   0  0  0  0  0  0
   27.3017   71.1652   21.8801 H   0  0  0  0  0  0
   29.1411   72.1503   23.2928 H   0  0  0  0  0  0
   25.2309   70.0946   25.0034 H   0  0  0  0  0  0
   26.4781   71.3408   25.3472 H   0  0  0  0  0  0
   24.9269   72.6238   26.2637 H   0  0  0  0  0  0
   24.0462   72.6915   24.6997 H   0  0  0  0  0  0
   22.5282   72.0228   26.3857 H   0  0  0  0  0  0
   22.8740   70.5857   25.3650 H   0  0  0  0  0  0
   24.2211   70.9910   28.0977 H   0  0  0  0  0  0
   22.2470   69.1209   25.5799 H   0  0  0  0  0  0
   22.2211   67.5452   26.6506 H   0  0  0  0  0  0
   24.1787   69.0686   29.3640 H   0  0  0  0  0  0
   23.2779   67.5184   28.7195 H   0  0  0  0  0  0
  1  2  2  0  0  0
  1  3  1  0  0  0
  1  4  1  0  0  0
  3 31  1  0  0  0
  3 32  1  0  0  0
  3 33  1  0  0  0
  4  5  1  0  0  0
  4 34  1  0  0  0
  5  6  1  0  0  0
  5  8  1  0  0  0
  5 35  1  0  0  0
  6  7  2  0  0  0
  6 12  1  0  0  0
  8  9  1  0  0  0
  8 36  1  0  0  0
  8 37  1  0  0  0
  9 10  1  0  0  0
  9 11  1  0  0  0
  9 38  1  0  0  0
 10 39  1  0  0  0
 10 40  1  0  0  0
 10 41  1  0  0  0
 11 42  1  0  0  0
 11 43  1  0  0  0
 11 44  1  0  0  0
 12 13  1  0  0  0
 12 45  1  0  0  0
 13 14  1  0  0  0
 13 16  1  0  0  0
 13 46  1  0  0  0
 14 15  2  0  0  0
 14 20  1  0  0  0
 16 17  1  0  0  0
 16 47  1  0  0  0
 16 48  1  0  0  0
 17 18  1  0  0  0
 17 19  1  0  0  0
 17 49  1  0  0  0
 18 50  1  0  0  0
 18 51  1  0  0  0
 18 52  1  0  0  0
 19 53  1  0  0  0
 19 54  1  0  0  0
 19 55  1  0  0  0
 20 21  1  0  0  0
 20 56  1  0  0  0
 21 22  1  0  0  0
 21 24  1  0  0  0
 21 57  1  0  0  0
 22 23  1  0  0  0
 22 58  1  0  0  0
 22 59  1  0  0  0
 23 60  1  0  0  0
 24 25  1  0  0  0
 24 61  1  0  0  0
 24 62  1  0  0  0
 25 26  1  0  0  0
 25 63  1  0  0  0
 25 64  1  0  0  0
 26 27  1  0  0  0
 26 65  1  0  0  0
 26 66  1  0  0  0
 27 28  1  0  0  0
 27 67  1  0  0  0
 28 29  1  0  0  0
 28 30  2  0  0  0
 29 68  1  0  0  0
 29 69  1  0  0  0
 30 70  1  0  0  0
 30 71  1  0  0  0
M  CHG  1  30   1
M  END
> <s_m_source_file>
../1pop_ligand.sdf

> <i_m_source_file_index>
1

> <s_epik_input>
Tz1DKFtDSDNdKVtOSF1bQ0BASF0oW0NIMl1bQ0hdKFtDSDNdKVtDSDNdKUMoPU8pW05IXVtDQEBIXShbQ0gyXVtDSF0oW0NIM10pW0NIM10pQyg9TylbTkhdW0NASF0oW0NIMl1bT0hdKVtDSDJdW0NIMl1bQ0gyXVtOSF0vQyhbTkgyXSk9TlxbSF0=

> <s_epik_cmdline>
J2VwaWtfYXBwJywgJy1pbWFlJywgJ2xpZ2FuZF9wcm8ubWFlJywgJy1vbWFlJywgJ2xpZ2FuZF9wcmVwLm1hZScsICctbXMnLCAnMScsICctcGgnLCAnNycsICctcGh0JywgJzAuNScsICctbnQn

> <r_lp_tautomer_probability>
1

> <r_epik_Ionization_Penalty>
  0.0000

> <r_epik_Ionization_Penalty_Charging>
  0.0000

> <r_epik_Ionization_Penalty_Neutral>
  0.0000

> <r_epik_State_Penalty>
 -0.0000

> <r_epik_Charging_Adjusted_Penalty>
2.41654511826174e-06

> <i_epik_Tot_Q>
1

> <i_epik_Tot_abs_Q>
1

> <s_epik_Chemistry_Notes>
This compound has an imine and may undergo hydrolysis.

$$$$
