1pot_ligand
                    3D
 Schrodinger Suite 2020-3.
 32 31  0  0  1  0            999 V2000
   66.7990   40.4000    4.7550 N   0  3  0  0  0  0
   65.9220   39.7940    5.8220 C   0  0  0  0  0  0
   66.4670   40.2840    7.1960 C   0  0  0  0  0  0
   65.8930   41.6730    7.3910 C   0  0  0  0  0  0
   65.9020   42.1410    8.8050 C   0  0  0  0  0  0
   65.0520   43.2980    8.8800 N   0  3  0  0  0  0
   64.8010   44.0790   10.0130 C   0  0  0  0  0  0
   65.9350   45.0240   10.2850 C   0  0  0  0  0  0
   65.7540   45.7360   11.5500 C   0  0  0  0  0  0
   66.5480   47.0270   11.5690 N   0  3  0  0  0  0
   66.4467   40.0776    3.7641 H   0  0  0  0  0  0
   67.8373   40.0674    4.9012 H   0  0  0  0  0  0
   66.7526   41.4970    4.8216 H   0  0  0  0  0  0
   64.8837   40.1266    5.6758 H   0  0  0  0  0  0
   65.9684   38.6970    5.7554 H   0  0  0  0  0  0
   66.1336   39.5978    7.9885 H   0  0  0  0  0  0
   67.5664   40.3052    7.1680 H   0  0  0  0  0  0
   66.4791   42.3973    6.8063 H   0  0  0  0  0  0
   64.8469   41.6885    7.0513 H   0  0  0  0  0  0
   65.5228   41.3413    9.4583 H   0  0  0  0  0  0
   66.9301   42.3985    9.0995 H   0  0  0  0  0  0
   65.4204   44.0691    8.1874 H   0  0  0  0  0  0
   64.0251   43.0171    8.6034 H   0  0  0  0  0  0
   63.8846   44.6672    9.8572 H   0  0  0  0  0  0
   64.6725   43.4250   10.8881 H   0  0  0  0  0  0
   66.8779   44.4599   10.3370 H   0  0  0  0  0  0
   65.9960   45.7663    9.4755 H   0  0  0  0  0  0
   64.6893   45.9762   11.6864 H   0  0  0  0  0  0
   66.0959   45.1008   12.3805 H   0  0  0  0  0  0
   66.3925   47.5390   12.5301 H   0  0  0  0  0  0
   66.2105   47.6771   10.7484 H   0  0  0  0  0  0
   67.6172   46.8017   11.4423 H   0  0  0  0  0  0
  1  2  1  0  0  0
  1 11  1  0  0  0
  1 12  1  0  0  0
  1 13  1  0  0  0
  2  3  1  0  0  0
  2 14  1  0  0  0
  2 15  1  0  0  0
  3  4  1  0  0  0
  3 16  1  0  0  0
  3 17  1  0  0  0
  4  5  1  0  0  0
  4 18  1  0  0  0
  4 19  1  0  0  0
  5  6  1  0  0  0
  5 20  1  0  0  0
  5 21  1  0  0  0
  6  7  1  0  0  0
  6 22  1  0  0  0
  6 23  1  0  0  0
  7  8  1  0  0  0
  7 24  1  0  0  0
  7 25  1  0  0  0
  8  9  1  0  0  0
  8 26  1  0  0  0
  8 27  1  0  0  0
  9 10  1  0  0  0
  9 28  1  0  0  0
  9 29  1  0  0  0
 10 30  1  0  0  0
 10 31  1  0  0  0
 10 32  1  0  0  0
M  CHG  3   1   1   6   1  10   1
M  END
> <s_m_source_file>
../1pot_ligand.sdf

> <i_m_source_file_index>
1

> <s_epik_input>
W05IMytdW0NIMl1bQ0gyXVtDSDJdW0NIMl1bTkgyK11bQ0gyXVtDSDJdW0NIMl1bTkgzK10=

> <s_epik_cmdline>
J2VwaWtfYXBwJywgJy1pbWFlJywgJ2xpZ2FuZF9wcm8ubWFlJywgJy1vbWFlJywgJ2xpZ2FuZF9wcmVwLm1hZScsICctbXMnLCAnMScsICctcGgnLCAnNycsICctcGh0JywgJzAuNScsICctbnQn

> <r_lp_tautomer_probability>
1

> <r_epik_Ionization_Penalty>
  0.0057

> <r_epik_Ionization_Penalty_Charging>
  0.0057

> <r_epik_Ionization_Penalty_Neutral>
  0.0000

> <r_epik_State_Penalty>
 -0.0000

> <r_epik_Charging_Adjusted_Penalty>
0.00565241797034212

> <i_epik_Tot_Q>
3

> <i_epik_Tot_abs_Q>
3

$$$$
