1ppc_ligand
                    3D
 Schrodinger Suite 2020-3.
 69 72  0  0  1  0            999 V2000
   -5.8270    4.7820   25.9170 S   0  0  0  0  0  0
   -6.8830    5.7670   26.4350 O   0  0  0  0  0  0
   -6.3850    3.3620   25.9520 O   0  0  0  0  0  0
   -3.7610    3.9040   27.5800 C   0  0  0  0  0  0
   -4.3660    4.9560   26.9430 C   0  0  0  0  0  0
   -3.8740    6.2180   27.1290 C   0  0  0  0  0  0
   -2.8230    6.4310   27.9910 C   0  0  0  0  0  0
   -1.1660    5.6080   29.4710 C   0  0  0  0  0  0
   -0.5380    4.5410   30.0870 C   0  0  0  0  0  0
   -1.0030    3.2540   29.8900 C   0  0  0  0  0  0
   -2.0960    3.0180   29.0710 C   0  0  0  0  0  0
   -2.6860    4.0860   28.4240 C   0  0  0  0  0  0
   -2.2320    5.3650   28.6300 C   0  0  0  0  0  0
   -5.5520    5.0200   24.2980 N   0  0  3  0  0  0
   -4.6090    4.0870   23.7300 C   0  0  0  0  0  0
   -3.2810    4.7140   23.3230 C   0  0  0  0  0  0
   -2.9600    5.8630   23.6500 O   0  0  0  0  0  0
   -0.4280    2.9070   22.1940 C   0  0  0  0  0  0
   -1.2700    4.1600   21.9520 C   0  0  1  0  0  0
   -1.3330    4.4800   20.4500 C   0  0  0  0  0  0
   -2.0020    5.8060   20.1500 C   0  0  0  0  0  0
   -3.3810    5.9010   20.0920 C   0  0  0  0  0  0
   -1.2360    6.9410   20.0230 C   0  0  0  0  0  0
   -3.9930    7.1200   19.8710 C   0  0  0  0  0  0
   -1.8530    8.1550   19.7970 C   0  0  0  0  0  0
   -3.2370    8.2680   19.7390 C   0  0  0  0  0  0
   -3.8330    9.5270   19.5790 C   0  0  0  0  0  0
   -0.2020    2.1160   21.2720 O   0  0  0  0  0  0
   -2.5950    3.9030   22.4990 N   0  0  0  0  0  0
   -5.1270    9.7230   19.8940 N   0  0  0  0  0  0
   -3.0670   10.5440   19.1670 N   0  3  0  0  0  0
    0.0740    2.6870   23.4200 N   0  0  0  0  0  0
    0.0190    3.6720   24.4880 C   0  0  0  0  0  0
   -0.7040    3.0330   25.6500 C   0  0  0  0  0  0
    0.1550    1.8800   26.1460 C   0  0  0  0  0  0
    0.3010    0.9040   24.9820 C   0  0  0  0  0  0
    0.9050    1.5360   23.7450 C   0  0  0  0  0  0
   -4.1402    2.8955   27.4148 H   0  0  0  0  0  0
   -4.3157    7.0579   26.5928 H   0  0  0  0  0  0
   -2.4588    7.4431   28.1676 H   0  0  0  0  0  0
   -0.8232    6.6275   29.6477 H   0  0  0  0  0  0
    0.3254    4.7150   30.7292 H   0  0  0  0  0  0
   -0.5061    2.4183   30.3827 H   0  0  0  0  0  0
   -2.4830    2.0075   28.9399 H   0  0  0  0  0  0
   -5.8850    5.8901   23.7132 H   0  0  0  0  0  0
   -4.3835    3.3003   24.4651 H   0  0  0  0  0  0
   -5.0421    3.6319   22.8271 H   0  0  0  0  0  0
   -0.8671    5.0380   22.4781 H   0  0  0  0  0  0
   -0.3127    4.5226   20.0411 H   0  0  0  0  0  0
   -1.9034    3.6952   19.9315 H   0  0  0  0  0  0
   -3.9901    5.0064   20.2218 H   0  0  0  0  0  0
   -0.1503    6.8825   20.1002 H   0  0  0  0  0  0
   -5.0793    7.1758   19.8004 H   0  0  0  0  0  0
   -1.2402    9.0461   19.6608 H   0  0  0  0  0  0
   -3.1245    2.9732   22.2438 H   0  0  0  0  0  0
   -5.7451    8.8779   20.2313 H   0  0  0  0  0  0
   -5.5663   10.7283   19.8141 H   0  0  0  0  0  0
   -2.0111   10.3694   18.9129 H   0  0  0  0  0  0
    1.0414    3.9559   24.7779 H   0  0  0  0  0  0
   -0.5235    4.5626   24.1379 H   0  0  0  0  0  0
   -0.8457    3.7771   26.4476 H   0  0  0  0  0  0
   -1.6845    2.6645   25.3140 H   0  0  0  0  0  0
    1.1374    2.2630   26.4592 H   0  0  0  0  0  0
   -0.3394    1.3958   27.0011 H   0  0  0  0  0  0
    0.9538    0.0709   25.2817 H   0  0  0  0  0  0
   -0.6891    0.5127   24.7052 H   0  0  0  0  0  0
    0.9003    0.8304   22.9011 H   0  0  0  0  0  0
    1.9351    1.8702   23.9377 H   0  0  0  0  0  0
   -3.4933   11.5545   19.0825 H   0  0  0  0  0  0
  1  2  2  0  0  0
  1  3  2  0  0  0
  1  5  1  0  0  0
  1 14  1  0  0  0
  4 12  2  0  0  0
  4  5  1  0  0  0
  4 38  1  0  0  0
  5  6  2  0  0  0
  6  7  1  0  0  0
  6 39  1  0  0  0
  7 13  2  0  0  0
  7 40  1  0  0  0
  8  9  2  0  0  0
  8 13  1  0  0  0
  8 41  1  0  0  0
  9 10  1  0  0  0
  9 42  1  0  0  0
 10 11  2  0  0  0
 10 43  1  0  0  0
 11 12  1  0  0  0
 11 44  1  0  0  0
 12 13  1  0  0  0
 14 15  1  0  0  0
 14 45  1  0  0  0
 15 16  1  0  0  0
 15 46  1  0  0  0
 15 47  1  0  0  0
 16 17  2  0  0  0
 16 29  1  0  0  0
 18 19  1  0  0  0
 18 28  2  0  0  0
 18 32  1  0  0  0
 19 20  1  0  0  0
 19 29  1  0  0  0
 19 48  1  0  0  0
 20 21  1  0  0  0
 20 49  1  0  0  0
 20 50  1  0  0  0
 21 22  2  0  0  0
 21 23  1  0  0  0
 22 24  1  0  0  0
 22 51  1  0  0  0
 23 25  2  0  0  0
 23 52  1  0  0  0
 24 26  2  0  0  0
 24 53  1  0  0  0
 25 26  1  0  0  0
 25 54  1  0  0  0
 26 27  1  0  0  0
 27 30  1  0  0  0
 27 31  2  0  0  0
 29 55  1  0  0  0
 30 56  1  0  0  0
 30 57  1  0  0  0
 31 58  1  0  0  0
 31 69  1  0  0  0
 32 33  1  0  0  0
 32 37  1  0  0  0
 33 34  1  0  0  0
 33 59  1  0  0  0
 33 60  1  0  0  0
 34 35  1  0  0  0
 34 61  1  0  0  0
 34 62  1  0  0  0
 35 36  1  0  0  0
 35 63  1  0  0  0
 35 64  1  0  0  0
 36 37  1  0  0  0
 36 65  1  0  0  0
 36 66  1  0  0  0
 37 67  1  0  0  0
 37 68  1  0  0  0
M  CHG  1  31   1
M  END
> <s_m_source_file>
../1ppc_ligand.sdf

> <i_m_source_file_index>
1

> <s_epik_input>
W2NIXTFbY0hdW2NIXVtjSF1jKGMxMilbY0hdW2NIXWMoW2NIXTIpUyg9TykoPU8pW05IXVtDSDJdQyg9TylbTkhdW0NAQEhdKEMoPU8pTjNbQ0gyXVtDSDJdW0NIMl1bQ0gyXVtDSDJdMylbQ0gyXWM0W2NIXVtjSF1jKFtjSF1bY0hdNCkvQyhbTkgyXSk9TlxbSF0=

> <s_epik_cmdline>
J2VwaWtfYXBwJywgJy1pbWFlJywgJ2xpZ2FuZF9wcm8ubWFlJywgJy1vbWFlJywgJ2xpZ2FuZF9wcmVwLm1hZScsICctbXMnLCAnMScsICctcGgnLCAnNycsICctcGh0JywgJzAuNScsICctbnQn

> <r_lp_tautomer_probability>
1

> <r_epik_Ionization_Penalty>
  0.0005

> <r_epik_Ionization_Penalty_Charging>
  0.0002

> <r_epik_Ionization_Penalty_Neutral>
  0.0003

> <r_epik_State_Penalty>
 -0.0000

> <r_epik_Charging_Adjusted_Penalty>
0.000162947685306239

> <i_epik_Tot_Q>
1

> <i_epik_Tot_abs_Q>
1

> <s_epik_Chemistry_Notes>
This compound has an imine and may undergo hydrolysis.

$$$$
