1pph_ligand
                    3D
 Schrodinger Suite 2020-3.
 59 61  0  0  1  0            999 V2000
   -5.9300    4.1070   23.9760 S   0  0  0  0  0  0
   -4.8070    4.0070   25.3830 C   0  0  0  0  0  0
   -4.2000    2.8170   25.7530 C   0  0  0  0  0  0
   -3.2240    2.8500   26.7350 C   0  0  0  0  0  0
   -2.8870    4.0670   27.3290 C   0  0  0  0  0  0
   -1.7820    4.1410   28.3860 C   0  0  0  0  0  0
   -3.5280    5.2410   26.9810 C   0  0  0  0  0  0
   -4.4930    5.2050   26.0050 C   0  0  0  0  0  0
   -7.0380    5.0670   24.3810 O   0  0  0  0  0  0
   -6.4450    2.7280   23.5830 O   0  0  0  0  0  0
   -2.6780    4.5080   22.8020 C   0  0  0  0  0  0
   -2.5950    5.6420   23.3040 O   0  0  0  0  0  0
   -3.9800    4.1220   22.0690 C   0  0  1  0  0  0
   -5.1570    4.7810   22.6350 N   0  0  3  0  0  0
   -3.8870    4.4550   20.5690 C   0  0  0  0  0  0
   -3.0970    5.7160   20.1980 C   0  0  0  0  0  0
   -1.7560    5.6350   19.8730 C   0  0  0  0  0  0
   -1.0870    6.7790   19.5080 C   0  0  0  0  0  0
   -1.7150    8.0070   19.4520 C   0  0  0  0  0  0
   -3.0700    8.1220   19.7700 C   0  0  0  0  0  0
   -3.7400    9.3550   19.6970 C   0  0  0  0  0  0
   -5.0450    9.4360   20.0230 N   0  0  0  0  0  0
   -3.0570   10.4510   19.3200 N   0  3  0  0  0  0
   -3.7080    6.9530   20.1380 C   0  0  0  0  0  0
   -1.6380    3.6540   22.8470 N   0  0  0  0  0  0
   -0.3530    4.0580   23.3900 C   0  0  0  0  0  0
   -0.0730    3.1140   24.5260 C   0  0  0  0  0  0
    0.0540    1.7490   23.9040 C   0  0  0  0  0  0
   -1.2340    1.3360   23.2080 C   0  0  0  0  0  0
   -1.6090    2.3590   22.1590 C   0  0  0  0  0  0
   -4.4845    1.8763   25.2816 H   0  0  0  0  0  0
   -2.7227    1.9320   27.0417 H   0  0  0  0  0  0
   -1.3692    3.1357   28.5558 H   0  0  0  0  0  0
   -2.1997    4.5296   29.3265 H   0  0  0  0  0  0
   -0.9832    4.8109   28.0351 H   0  0  0  0  0  0
   -3.2718    6.1793   27.4729 H   0  0  0  0  0  0
   -5.0126    6.1195   25.7191 H   0  0  0  0  0  0
   -4.1501    3.0466   22.2259 H   0  0  0  0  0  0
   -5.4383    5.7894   22.2974 H   0  0  0  0  0  0
   -3.3965    3.6252   20.0389 H   0  0  0  0  0  0
   -4.8985    4.6027   20.1628 H   0  0  0  0  0  0
   -1.2363    4.6774   19.9057 H   0  0  0  0  0  0
   -0.0287    6.7145   19.2552 H   0  0  0  0  0  0
   -1.1503    8.8917   19.1580 H   0  0  0  0  0  0
   -5.5924    8.5325   20.3297 H   0  0  0  0  0  0
   -5.5629   10.4056   19.9824 H   0  0  0  0  0  0
   -1.9920   10.3717   19.0563 H   0  0  0  0  0  0
   -4.7648    7.0111   20.3985 H   0  0  0  0  0  0
    0.4164    3.9802   22.6077 H   0  0  0  0  0  0
   -0.4143    5.0984   23.7418 H   0  0  0  0  0  0
    0.8591    3.4115   25.0287 H   0  0  0  0  0  0
   -0.9046    3.1488   25.2451 H   0  0  0  0  0  0
    0.8652    1.7586   23.1612 H   0  0  0  0  0  0
    0.2815    1.0095   24.6859 H   0  0  0  0  0  0
   -1.0921    0.3583   22.7243 H   0  0  0  0  0  0
   -2.0443    1.2646   23.9485 H   0  0  0  0  0  0
   -2.6015    2.1469   21.7348 H   0  0  0  0  0  0
   -0.8637    2.3899   21.3505 H   0  0  0  0  0  0
   -3.5635   11.4264   19.2754 H   0  0  0  0  0  0
  1  2  1  0  0  0
  1  9  2  0  0  0
  1 10  2  0  0  0
  1 14  1  0  0  0
  2  3  2  0  0  0
  2  8  1  0  0  0
  3  4  1  0  0  0
  3 31  1  0  0  0
  4  5  2  0  0  0
  4 32  1  0  0  0
  5  6  1  0  0  0
  5  7  1  0  0  0
  6 33  1  0  0  0
  6 34  1  0  0  0
  6 35  1  0  0  0
  7  8  2  0  0  0
  7 36  1  0  0  0
  8 37  1  0  0  0
 11 12  2  0  0  0
 11 13  1  0  0  0
 11 25  1  0  0  0
 13 14  1  0  0  0
 13 15  1  0  0  0
 13 38  1  0  0  0
 14 39  1  0  0  0
 15 16  1  0  0  0
 15 40  1  0  0  0
 15 41  1  0  0  0
 16 17  2  0  0  0
 16 24  1  0  0  0
 17 18  1  0  0  0
 17 42  1  0  0  0
 18 19  2  0  0  0
 18 43  1  0  0  0
 19 20  1  0  0  0
 19 44  1  0  0  0
 20 21  1  0  0  0
 20 24  2  0  0  0
 21 22  1  0  0  0
 21 23  2  0  0  0
 22 45  1  0  0  0
 22 46  1  0  0  0
 23 47  1  0  0  0
 23 59  1  0  0  0
 24 48  1  0  0  0
 25 26  1  0  0  0
 25 30  1  0  0  0
 26 27  1  0  0  0
 26 49  1  0  0  0
 26 50  1  0  0  0
 27 28  1  0  0  0
 27 51  1  0  0  0
 27 52  1  0  0  0
 28 29  1  0  0  0
 28 53  1  0  0  0
 28 54  1  0  0  0
 29 30  1  0  0  0
 29 55  1  0  0  0
 29 56  1  0  0  0
 30 57  1  0  0  0
 30 58  1  0  0  0
M  CHG  1  23   1
M  END
> <s_m_source_file>
../1pph_ligand.sdf

> <i_m_source_file_index>
1

> <s_epik_input>
W2NIXTFbY0hdYyhbQ0gzXSlbY0hdW2NIXWMxUyg9TykoPU8pW05IXVtDQEhdKEMoPU8pTjJbQ0gyXVtDSDJdW0NIMl1bQ0gyXVtDSDJdMilbQ0gyXWMzW2NIXVtjSF1bY0hdYyhbY0hdMykvQyhbTkgyXSk9TlxbSF0=

> <s_epik_cmdline>
J2VwaWtfYXBwJywgJy1pbWFlJywgJ2xpZ2FuZF9wcm8ubWFlJywgJy1vbWFlJywgJ2xpZ2FuZF9wcmVwLm1hZScsICctbXMnLCAnMScsICctcGgnLCAnNycsICctcGh0JywgJzAuNScsICctbnQn

> <r_lp_tautomer_probability>
1

> <r_epik_Ionization_Penalty>
  0.0008

> <r_epik_Ionization_Penalty_Charging>
  0.0002

> <r_epik_Ionization_Penalty_Neutral>
  0.0006

> <r_epik_State_Penalty>
 -0.0000

> <r_epik_Charging_Adjusted_Penalty>
0.000184009597780671

> <i_epik_Tot_Q>
1

> <i_epik_Tot_abs_Q>
1

> <s_epik_Chemistry_Notes>
This compound has an imine and may undergo hydrolysis.

$$$$
