1ppl_ligand
                    3D
 Schrodinger Suite 2020-3.
 91 91  0  0  1  0            999 V2000
   15.9420    4.1260   17.4870 C   0  0  0  0  0  0
   14.6430    3.6540   18.1870 C   0  0  0  0  0  0
   14.3150    4.8410   19.0870 C   0  0  0  0  0  0
   13.4600    3.5320   17.2680 C   0  0  0  0  0  0
   17.0680    4.4480   18.4850 C   0  0  0  0  0  0
   17.1950    3.6450   19.4790 O   0  0  0  0  0  0
   17.8820    5.4490   18.3940 N   0  0  0  0  0  0
   19.0160    5.6420   19.2870 C   0  0  2  0  0  0
   18.9210    6.9900   19.9870 C   0  0  0  0  0  0
   18.1180    7.8830   19.5600 O   0  0  0  0  0  0
   20.2910    5.6330   18.3540 C   0  0  0  0  0  0
   20.4610    4.2100   17.8010 C   0  0  0  0  0  0
   20.2290    6.5910   17.1820 C   0  0  0  0  0  0
   19.6870    7.0590   21.0610 N   0  0  0  0  0  0
   19.6540    8.3980   21.7970 C   0  0  2  0  0  0
   21.1900    8.6890   21.9870 C   0  0  0  0  0  0
   21.7700    8.0720   22.8770 O   0  0  0  0  0  0
   18.9620    8.2550   23.1180 C   0  0  0  0  0  0
   18.8480    9.6640   23.8070 C   0  0  0  0  0  0
   17.5350    7.7840   22.8850 C   0  0  0  0  0  0
   23.1040    9.9030   21.1450 C   0  0  2  0  0  0
   23.8890    9.3340   19.9240 C   0  0  0  0  0  0
   23.7360    7.8390   19.5170 C   0  0  0  0  0  0
   24.1350    7.6160   18.0600 C   0  0  0  0  0  0
   24.1760    6.8870   20.5840 C   0  0  0  0  0  0
   21.7090    9.5240   21.1100 N   0  0  0  0  0  0
   23.3210   11.6840   21.2810 P   0  0  2  0  0  0
   22.4510   12.2770   20.2720 O   0  0  0  0  0  0
   24.7520   12.0150   21.1000 O   0  5  0  0  0  0
   23.5860   13.0410   23.4660 C   0  0  1  0  0  0
   22.5800   14.0210   24.1290 C   0  0  0  0  0  0
   21.6400   13.4480   25.1720 C   0  0  0  0  0  0
   21.9520   13.5400   26.5200 C   0  0  0  0  0  0
   20.4620   12.7950   24.7960 C   0  0  0  0  0  0
   21.0920   12.9630   27.4590 C   0  0  0  0  0  0
   19.6880   12.1630   25.7410 C   0  0  0  0  0  0
   19.9430   12.2840   27.0690 C   0  0  0  0  0  0
   24.3990   12.3760   24.6000 C   0  0  0  0  0  0
   25.9890   12.6670   26.3900 C   0  0  0  0  0  0
   22.9280   11.9630   22.7000 O   0  0  0  0  0  0
   25.1990   13.2320   25.3720 O   0  0  0  0  0  0
   24.3280   11.1650   24.8400 O   0  0  0  0  0  0
   16.3036    3.3352   16.8133 H   0  0  0  0  0  0
   15.7352    5.0366   16.9057 H   0  0  0  0  0  0
   14.7794    2.6653   18.6495 H   0  0  0  0  0  0
   15.1390    5.0008   19.7979 H   0  0  0  0  0  0
   13.3873    4.6356   19.6412 H   0  0  0  0  0  0
   14.1822    5.7426   18.4709 H   0  0  0  0  0  0
   13.6170    2.6898   16.5780 H   0  0  0  0  0  0
   13.3461    4.4619   16.6916 H   0  0  0  0  0  0
   12.5511    3.3550   17.8618 H   0  0  0  0  0  0
   17.6834    6.1755   17.5923 H   0  0  0  0  0  0
   18.9845    4.8577   20.0576 H   0  0  0  0  0  0
   21.1570    5.9714   18.9418 H   0  0  0  0  0  0
   20.5086    3.4954   18.6359 H   0  0  0  0  0  0
   21.3907    4.1527   17.2159 H   0  0  0  0  0  0
   19.6055    3.9630   17.1552 H   0  0  0  0  0  0
   20.1071    7.6188   17.5546 H   0  0  0  0  0  0
   19.3748    6.3300   16.5399 H   0  0  0  0  0  0
   21.1600    6.5197   16.6006 H   0  0  0  0  0  0
   20.3187    6.2405   21.4364 H   0  0  0  0  0  0
   19.0763    9.1826   21.2865 H   0  0  0  0  0  0
   19.5370    7.5228   23.7039 H   0  0  0  0  0  0
   19.8558   10.0593   24.0022 H   0  0  0  0  0  0
   18.3028    9.5645   24.7572 H   0  0  0  0  0  0
   18.3057   10.3538   23.1436 H   0  0  0  0  0  0
   17.5493    6.7960   22.4017 H   0  0  0  0  0  0
   17.0132    8.5023   22.2356 H   0  0  0  0  0  0
   17.0103    7.7130   23.8492 H   0  0  0  0  0  0
   23.4021    9.2711   21.9946 H   0  0  0  0  0  0
   23.6022    9.8836   19.0153 H   0  0  0  0  0  0
   24.9692    9.4493   20.0966 H   0  0  0  0  0  0
   22.6893    7.5013   19.4991 H   0  0  0  0  0  0
   23.7151    8.4200   17.4377 H   0  0  0  0  0  0
   23.7456    6.6459   17.7176 H   0  0  0  0  0  0
   25.2317    7.6215   17.9752 H   0  0  0  0  0  0
   23.7875    7.2219   21.5571 H   0  0  0  0  0  0
   25.2751    6.8574   20.6185 H   0  0  0  0  0  0
   23.7890    5.8818   20.3609 H   0  0  0  0  0  0
   21.0465    9.9358   20.3344 H   0  0  0  0  0  0
   24.1941   13.5863   22.7292 H   0  0  0  0  0  0
   23.1324   14.8232   24.6402 H   0  0  0  0  0  0
   21.9304   14.4580   23.3563 H   0  0  0  0  0  0
   22.8563   14.0556   26.8433 H   0  0  0  0  0  0
   20.1560   12.7869   23.7499 H   0  0  0  0  0  0
   21.3273   13.0472   28.5200 H   0  0  0  0  0  0
   18.8482   11.5492   25.4154 H   0  0  0  0  0  0
   19.2650   11.8601   27.8098 H   0  0  0  0  0  0
   26.5533   13.4617   26.8999 H   0  0  0  0  0  0
   26.6909   11.9432   25.9503 H   0  0  0  0  0  0
   25.3404   12.1544   27.1156 H   0  0  0  0  0  0
  1  2  1  0  0  0
  1  5  1  0  0  0
  1 43  1  0  0  0
  1 44  1  0  0  0
  2  3  1  0  0  0
  2  4  1  0  0  0
  2 45  1  0  0  0
  3 46  1  0  0  0
  3 47  1  0  0  0
  3 48  1  0  0  0
  4 49  1  0  0  0
  4 50  1  0  0  0
  4 51  1  0  0  0
  5  6  2  0  0  0
  5  7  1  0  0  0
  7  8  1  0  0  0
  7 52  1  0  0  0
  8 11  1  0  0  0
  8  9  1  0  0  0
  8 53  1  0  0  0
  9 10  2  0  0  0
  9 14  1  0  0  0
 11 13  1  0  0  0
 11 12  1  0  0  0
 11 54  1  0  0  0
 12 55  1  0  0  0
 12 56  1  0  0  0
 12 57  1  0  0  0
 13 58  1  0  0  0
 13 59  1  0  0  0
 13 60  1  0  0  0
 14 15  1  0  0  0
 14 61  1  0  0  0
 15 18  1  0  0  0
 15 16  1  0  0  0
 15 62  1  0  0  0
 16 17  2  0  0  0
 16 26  1  0  0  0
 18 20  1  0  0  0
 18 19  1  0  0  0
 18 63  1  0  0  0
 19 64  1  0  0  0
 19 65  1  0  0  0
 19 66  1  0  0  0
 20 67  1  0  0  0
 20 68  1  0  0  0
 20 69  1  0  0  0
 21 22  1  0  0  0
 21 26  1  0  0  0
 21 27  1  0  0  0
 21 70  1  0  0  0
 22 23  1  0  0  0
 22 71  1  0  0  0
 22 72  1  0  0  0
 23 24  1  0  0  0
 23 25  1  0  0  0
 23 73  1  0  0  0
 24 74  1  0  0  0
 24 75  1  0  0  0
 24 76  1  0  0  0
 25 77  1  0  0  0
 25 78  1  0  0  0
 25 79  1  0  0  0
 26 80  1  0  0  0
 27 28  2  0  0  0
 27 29  1  0  0  0
 27 40  1  0  0  0
 30 31  1  0  0  0
 30 38  1  0  0  0
 30 40  1  0  0  0
 30 81  1  0  0  0
 31 32  1  0  0  0
 31 82  1  0  0  0
 31 83  1  0  0  0
 32 33  2  0  0  0
 32 34  1  0  0  0
 33 35  1  0  0  0
 33 84  1  0  0  0
 34 36  2  0  0  0
 34 85  1  0  0  0
 35 37  2  0  0  0
 35 86  1  0  0  0
 36 37  1  0  0  0
 36 87  1  0  0  0
 37 88  1  0  0  0
 38 41  1  0  0  0
 38 42  2  0  0  0
 39 41  1  0  0  0
 39 89  1  0  0  0
 39 90  1  0  0  0
 39 91  1  0  0  0
M  CHG  1  29  -1
M  END
> <s_m_source_file>
../1ppl_ligand.sdf

> <i_m_source_file_index>
1

> <s_epik_input>
W0NIM11bQ0hdKFtDSDNdKVtDSDJdQyg9TylbTkhdW0NAQEhdKFtDSF0oW0NIM10pW0NIM10pQyg9TylbTkhdW0NAQEhdKFtDSF0oW0NIM10pW0NIM10pQyg9TylbTkhdW0NAQEhdKFtDSDJdW0NIXShbQ0gzXSlbQ0gzXSlbUEBdKD1PKShbT0hdKU9bQ0BIXShDKD1PKU9bQ0gzXSlbQ0gyXWMxW2NIXVtjSF1bY0hdW2NIXVtjSF0x

> <s_epik_cmdline>
J2VwaWtfYXBwJywgJy1pbWFlJywgJ2xpZ2FuZF9wcm8ubWFlJywgJy1vbWFlJywgJ2xpZ2FuZF9wcmVwLm1hZScsICctbXMnLCAnMScsICctcGgnLCAnNycsICctcGh0JywgJzAuNScsICctbnQn

> <r_lp_tautomer_probability>
1

> <r_epik_Ionization_Penalty>
  0.0000

> <r_epik_Ionization_Penalty_Charging>
  0.0000

> <r_epik_Ionization_Penalty_Neutral>
  0.0000

> <r_epik_State_Penalty>
 -0.0000

> <r_epik_Charging_Adjusted_Penalty>
1.09770495470867e-06

> <i_epik_Tot_Q>
-1

> <i_epik_Tot_abs_Q>
1

> <s_epik_Chemistry_Notes>
This compound has an ester and may undergo hydrolysis at high or low pH.

$$$$
