1ppm_ligand
                    3D
 Schrodinger Suite 2020-3.
 81 82  0  0  1  0            999 V2000
   16.9610    5.0560   18.8390 C   0  0  0  0  0  0
   16.7860    4.7930   20.0630 O   0  0  0  0  0  0
   15.8380    4.9040   17.9920 O   0  0  0  0  0  0
   14.5710    4.8710   18.7050 C   0  0  0  0  0  0
   13.9910    3.4940   18.5040 C   0  0  0  0  0  0
   13.3750    2.8280   19.5820 C   0  0  0  0  0  0
   14.0800    2.9530   17.2440 C   0  0  0  0  0  0
   12.8490    1.5710   19.3880 C   0  0  0  0  0  0
   13.5460    1.6690   17.0360 C   0  0  0  0  0  0
   12.9150    1.0010   18.1120 C   0  0  0  0  0  0
   18.0710    5.5250   18.3860 N   0  0  0  0  0  0
   19.2050    5.7540   19.2480 C   0  0  2  0  0  0
   19.0300    7.1030   20.0120 C   0  0  0  0  0  0
   18.1610    7.9500   19.6020 O   0  0  0  0  0  0
   20.3620    5.9450   18.2560 C   0  0  0  0  0  0
   19.8180    7.2450   21.0460 N   0  0  0  0  0  0
   19.7870    8.4860   21.8200 C   0  0  2  0  0  0
   21.2480    8.8500   22.0540 C   0  0  0  0  0  0
   21.8100    8.4710   23.0590 O   0  0  0  0  0  0
   18.9120    8.3850   23.0900 C   0  0  0  0  0  0
   23.2710    9.9450   21.1250 C   0  0  2  0  0  0
   24.0340    9.3730   19.8660 C   0  0  0  0  0  0
   23.7680    7.8770   19.5290 C   0  0  0  0  0  0
   24.4990    7.6050   18.2160 C   0  0  0  0  0  0
   24.2550    6.9510   20.6750 C   0  0  0  0  0  0
   21.8890    9.5680   21.0820 N   0  0  0  0  0  0
   23.4550   11.7720   21.2390 P   0  0  2  0  0  0
   22.5280   12.3220   20.3070 O   0  5  0  0  0  0
   24.8350   12.0870   21.2500 O   0  0  0  0  0  0
   23.5110   13.0420   23.5140 C   0  0  1  0  0  0
   22.3440   13.9090   24.0380 C   0  0  0  0  0  0
   21.3350   13.1520   24.8640 C   0  0  0  0  0  0
   21.4040   13.3650   26.2640 C   0  0  0  0  0  0
   20.3830   12.2980   24.3600 C   0  0  0  0  0  0
   20.5450   12.7340   27.1390 C   0  0  0  0  0  0
   19.5110   11.6810   25.2220 C   0  0  0  0  0  0
   19.6040   11.8740   26.5980 C   0  0  0  0  0  0
   24.2320   12.4970   24.7390 C   0  0  0  0  0  0
   25.7140   12.9990   26.6300 C   0  0  0  0  0  0
   22.9550   11.9420   22.7180 O   0  0  0  0  0  0
   24.7390   13.3130   25.7410 O   0  0  0  0  0  0
   24.4070   11.3200   24.9200 O   0  0  0  0  0  0
   14.7460    5.0680   19.7730 H   0  0  0  0  0  0
   13.8997    5.6402   18.2955 H   0  0  0  0  0  0
   13.3155    3.3039   20.5608 H   0  0  0  0  0  0
   14.5509    3.5033   16.4294 H   0  0  0  0  0  0
   12.3890    1.0290   20.2142 H   0  0  0  0  0  0
   13.6173    1.1939   16.0576 H   0  0  0  0  0  0
   12.4703    0.0203   17.9430 H   0  0  0  0  0  0
   18.1417    5.7522   17.3120 H   0  0  0  0  0  0
   19.3027    4.9115   19.9485 H   0  0  0  0  0  0
   20.5202    5.0131   17.6934 H   0  0  0  0  0  0
   21.2790    6.2009   18.8071 H   0  0  0  0  0  0
   20.1153    6.7578   17.5571 H   0  0  0  0  0  0
   20.5030    6.4340   21.3342 H   0  0  0  0  0  0
   19.2907    9.2727   21.2328 H   0  0  0  0  0  0
   17.8831    8.1188   22.8062 H   0  0  0  0  0  0
   18.9096    9.3535   23.6115 H   0  0  0  0  0  0
   19.3206    7.6108   23.7561 H   0  0  0  0  0  0
   23.5817    9.3178   21.9736 H   0  0  0  0  0  0
   23.7446    9.9438   18.9713 H   0  0  0  0  0  0
   25.1191    9.4625   20.0229 H   0  0  0  0  0  0
   22.6963    7.6618   19.4062 H   0  0  0  0  0  0
   24.1199    8.2838   17.4379 H   0  0  0  0  0  0
   24.3263    6.5628   17.9093 H   0  0  0  0  0  0
   25.5772    7.7725   18.3552 H   0  0  0  0  0  0
   23.7007    7.1848   21.5959 H   0  0  0  0  0  0
   25.3302    7.1107   20.8436 H   0  0  0  0  0  0
   24.0793    5.9011   20.3978 H   0  0  0  0  0  0
   21.2663    9.8580   20.2228 H   0  0  0  0  0  0
   24.2057   13.5814   22.8533 H   0  0  0  0  0  0
   22.7419   14.7145   24.6727 H   0  0  0  0  0  0
   21.8016   14.3468   23.1870 H   0  0  0  0  0  0
   22.1570   14.0465   26.6597 H   0  0  0  0  0  0
   20.3213   12.1128   23.2876 H   0  0  0  0  0  0
   20.6043   12.9054   28.2138 H   0  0  0  0  0  0
   18.7334   11.0296   24.8231 H   0  0  0  0  0  0
   18.9242   11.3387   27.2609 H   0  0  0  0  0  0
   25.8923   13.8558   27.2964 H   0  0  0  0  0  0
   26.6402   12.7570   26.0881 H   0  0  0  0  0  0
   25.4002   12.1296   27.2264 H   0  0  0  0  0  0
  1  2  2  0  0  0
  1  3  1  0  0  0
  1 11  1  0  0  0
  3  4  1  0  0  0
  4  5  1  0  0  0
  4 43  1  0  0  0
  4 44  1  0  0  0
  5  6  2  0  0  0
  5  7  1  0  0  0
  6  8  1  0  0  0
  6 45  1  0  0  0
  7  9  2  0  0  0
  7 46  1  0  0  0
  8 10  2  0  0  0
  8 47  1  0  0  0
  9 10  1  0  0  0
  9 48  1  0  0  0
 10 49  1  0  0  0
 11 12  1  0  0  0
 11 50  1  0  0  0
 12 15  1  0  0  0
 12 13  1  0  0  0
 12 51  1  0  0  0
 13 14  2  0  0  0
 13 16  1  0  0  0
 15 52  1  0  0  0
 15 53  1  0  0  0
 15 54  1  0  0  0
 16 17  1  0  0  0
 16 55  1  0  0  0
 17 20  1  0  0  0
 17 18  1  0  0  0
 17 56  1  0  0  0
 18 19  2  0  0  0
 18 26  1  0  0  0
 20 57  1  0  0  0
 20 58  1  0  0  0
 20 59  1  0  0  0
 21 22  1  0  0  0
 21 26  1  0  0  0
 21 27  1  0  0  0
 21 60  1  0  0  0
 22 23  1  0  0  0
 22 61  1  0  0  0
 22 62  1  0  0  0
 23 24  1  0  0  0
 23 25  1  0  0  0
 23 63  1  0  0  0
 24 64  1  0  0  0
 24 65  1  0  0  0
 24 66  1  0  0  0
 25 67  1  0  0  0
 25 68  1  0  0  0
 25 69  1  0  0  0
 26 70  1  0  0  0
 27 28  1  0  0  0
 27 29  2  0  0  0
 27 40  1  0  0  0
 30 31  1  0  0  0
 30 38  1  0  0  0
 30 40  1  0  0  0
 30 71  1  0  0  0
 31 32  1  0  0  0
 31 72  1  0  0  0
 31 73  1  0  0  0
 32 33  2  0  0  0
 32 34  1  0  0  0
 33 35  1  0  0  0
 33 74  1  0  0  0
 34 36  2  0  0  0
 34 75  1  0  0  0
 35 37  2  0  0  0
 35 76  1  0  0  0
 36 37  1  0  0  0
 36 77  1  0  0  0
 37 78  1  0  0  0
 38 41  1  0  0  0
 38 42  2  0  0  0
 39 41  1  0  0  0
 39 79  1  0  0  0
 39 80  1  0  0  0
 39 81  1  0  0  0
M  CHG  1  28  -1
M  END
> <s_m_source_file>
../1ppm_ligand.sdf

> <i_m_source_file_index>
1

> <s_epik_input>
W2NIXTFbY0hdW2NIXVtjSF1bY0hdYzFbQ0gyXU9DKD1PKVtOSF1bQ0BASF0oW0NIM10pQyg9TylbTkhdW0NAQEhdKFtDSDNdKUMoPU8pW05IXVtDQEBIXShbQ0gyXVtDSF0oW0NIM10pW0NIM10pW1BAQF0oPU8pKFtPSF0pT1tDQEhdKEMoPU8pT1tDSDNdKVtDSDJdYzJbY0hdW2NIXVtjSF1bY0hdW2NIXTI=

> <s_epik_cmdline>
J2VwaWtfYXBwJywgJy1pbWFlJywgJ2xpZ2FuZF9wcm8ubWFlJywgJy1vbWFlJywgJ2xpZ2FuZF9wcmVwLm1hZScsICctbXMnLCAnMScsICctcGgnLCAnNycsICctcGh0JywgJzAuNScsICctbnQn

> <r_lp_tautomer_probability>
1

> <r_epik_Ionization_Penalty>
  0.0000

> <r_epik_Ionization_Penalty_Charging>
  0.0000

> <r_epik_Ionization_Penalty_Neutral>
  0.0000

> <r_epik_State_Penalty>
 -0.0000

> <r_epik_Charging_Adjusted_Penalty>
1.07844854075904e-06

> <i_epik_Tot_Q>
-1

> <i_epik_Tot_abs_Q>
1

> <s_epik_Chemistry_Notes>
This compound has an ester and may undergo hydrolysis at high or low pH.

$$$$
