1ppw_ligand
                    3D
 Schrodinger Suite 2020-3.
 24 23  0  0  1  0            999 V2000
   11.2270    2.6850   10.0370 O   0  5  0  0  0  0
    9.1480    1.9570   10.7360 O   0  0  0  0  0  0
   10.9260    1.9840   12.2930 O   0  5  0  0  0  0
   10.2220    2.6630   11.1510 P   0  0  0  0  0  0
    9.8740    4.1140   11.4970 O   0  0  0  0  0  0
   11.6990    5.7100   11.4100 O   0  0  0  0  0  0
   11.5510    4.1770   13.2020 O   0  5  0  0  0  0
   10.8420    5.0610   12.2130 P   0  0  2  0  0  0
    9.9930    5.9890   13.0710 O   0  0  0  0  0  0
    9.7570    7.2420   12.4170 C   0  0  0  0  0  0
   10.2520    8.4700   13.1950 C   0  0  0  0  0  0
    9.3250    8.8550   14.1840 C   0  0  0  0  0  0
    9.4570    9.9480   15.0940 C   0  0  0  0  0  0
    8.0500    8.0230   14.3050 C   0  0  0  0  0  0
    9.1930    9.1950   16.5120 O   0  0  0  0  0  0
   10.2715    7.2508   11.4448 H   0  0  0  0  0  0
    8.6764    7.3765   12.2612 H   0  0  0  0  0  0
   11.1866    9.0358   13.0671 H   0  0  0  0  0  0
   10.4647   10.3799   15.0046 H   0  0  0  0  0  0
    8.7065   10.7161   14.8558 H   0  0  0  0  0  0
    8.0655    7.2174   13.5562 H   0  0  0  0  0  0
    7.1746    8.6665   14.1333 H   0  0  0  0  0  0
    7.9917    7.5859   15.3127 H   0  0  0  0  0  0
    9.2226    9.7659   17.4518 H   0  0  0  0  0  0
  1  4  1  0  0  0
  2  4  2  0  0  0
  3  4  1  0  0  0
  4  5  1  0  0  0
  5  8  1  0  0  0
  6  8  2  0  0  0
  7  8  1  0  0  0
  8  9  1  0  0  0
  9 10  1  0  0  0
 10 11  1  0  0  0
 10 16  1  0  0  0
 10 17  1  0  0  0
 11 12  2  0  0  0
 11 18  1  0  0  0
 12 13  1  0  0  0
 12 14  1  0  0  0
 13 15  1  0  0  0
 13 19  1  0  0  0
 13 20  1  0  0  0
 14 21  1  0  0  0
 14 22  1  0  0  0
 14 23  1  0  0  0
 15 24  1  0  0  0
M  CHG  3   1  -1   3  -1   7  -1
M  END
> <s_m_source_file>
../1ppw_ligand.sdf

> <i_m_source_file_index>
1

> <s_epik_input>
W09IXVAoPU8pKFtPSF0pT1tQQF0oPU8pKFtPSF0pT1tDSDJdL1tDSF09QyhbQ0gzXSkvW0NIMl1bT0hd

> <s_epik_cmdline>
J2VwaWtfYXBwJywgJy1pbWFlJywgJ2xpZ2FuZF9wcm8ubWFlJywgJy1vbWFlJywgJ2xpZ2FuZF9wcmVwLm1hZScsICctbXMnLCAnMScsICctcGgnLCAnNycsICctcGh0JywgJzAuNScsICctbnQn

> <r_epik_Ionization_Penalty>
  0.0880

> <r_epik_Ionization_Penalty_Charging>
  0.0880

> <r_epik_Ionization_Penalty_Neutral>
  0.0000

> <r_epik_State_Penalty>
  0.0773

> <r_epik_Charging_Adjusted_Penalty>
0.165295033473943

> <i_epik_Tot_Q>
-3

> <i_epik_Tot_abs_Q>
3

$$$$
