1ppx_ligand
                    3D
 Schrodinger Suite 2020-3.
 36 38  0  0  1  0            999 V2000
   -8.5000   -3.9720   -7.0250 O   0  5  0  0  0  0
   -7.9180   -5.0660   -5.9970 P   0  0  0  0  0  0
   -6.5520   -5.4370   -6.4290 O   0  0  0  0  0  0
   -8.9340   -6.1300   -5.8350 O   0  5  0  0  0  0
   -7.8150   -4.2240   -4.6290 O   0  0  0  0  0  0
   -6.9920   -4.6780   -3.5510 C   0  0  0  0  0  0
   -7.6710   -5.7800   -2.7340 C   0  0  1  0  0  0
   -8.9150   -5.5010   -2.0830 O   0  0  0  0  0  0
   -8.0000   -7.0280   -3.5550 C   0  0  1  0  0  0
   -7.2520   -8.1620   -3.1070 O   0  0  0  0  0  0
   -9.5080   -7.2650   -3.4280 C   0  0  0  0  0  0
  -10.0990   -6.1740   -2.5290 C   0  0  2  0  0  0
  -11.3400   -5.5210   -3.0030 N   0  0  0  0  0  0
  -11.4120   -4.9220   -4.2330 C   0  0  0  0  0  0
  -12.6900   -4.4330   -4.3020 N   0  0  0  0  0  0
  -13.3930   -4.7140   -3.1610 C   0  0  0  0  0  0
  -14.6490   -4.4680   -2.7250 C   0  0  0  0  0  0
  -15.4470   -3.8260   -3.4930 O   0  0  0  0  0  0
  -15.1140   -4.8820   -1.4820 N   0  0  0  0  0  0
  -14.2440   -5.5670   -0.6760 C   0  0  0  0  0  0
  -14.6960   -5.9660    0.5210 N   0  0  0  0  0  0
  -12.9260   -5.8730   -1.0330 N   0  0  0  0  0  0
  -12.5460   -5.4080   -2.3210 C   0  0  0  0  0  0
  -10.4910   -4.8330   -5.1170 O   0  0  0  0  0  0
   -6.0502   -5.0799   -3.9528 H   0  0  0  0  0  0
   -6.7735   -3.8366   -2.8769 H   0  0  0  0  0  0
   -6.9362   -5.8893   -1.9228 H   0  0  0  0  0  0
   -7.6766   -6.9357   -4.6023 H   0  0  0  0  0  0
   -6.1526   -8.1425   -3.1370 H   0  0  0  0  0  0
   -9.9713   -7.2212   -4.4247 H   0  0  0  0  0  0
   -9.6874   -8.2551   -2.9835 H   0  0  0  0  0  0
  -10.6353   -6.4100   -1.5980 H   0  0  0  0  0  0
  -13.0249   -3.8941   -5.2006 H   0  0  0  0  0  0
  -16.1468   -4.6564   -1.1781 H   0  0  0  0  0  0
  -15.7285   -5.7369    0.8233 H   0  0  0  0  0  0
  -14.0344   -6.5226    1.2011 H   0  0  0  0  0  0
  1  2  1  0  0  0
  2  3  2  0  0  0
  2  4  1  0  0  0
  2  5  1  0  0  0
  5  6  1  0  0  0
  6  7  1  0  0  0
  6 25  1  0  0  0
  6 26  1  0  0  0
  7  8  1  0  0  0
  7  9  1  0  0  0
  7 27  1  0  0  0
  8 12  1  0  0  0
  9 10  1  0  0  0
  9 11  1  0  0  0
  9 28  1  0  0  0
 10 29  1  0  0  0
 11 12  1  0  0  0
 11 30  1  0  0  0
 11 31  1  0  0  0
 12 13  1  0  0  0
 12 32  1  0  0  0
 13 14  1  0  0  0
 13 23  1  0  0  0
 14 15  1  0  0  0
 14 24  2  0  0  0
 15 16  1  0  0  0
 15 33  1  0  0  0
 16 17  1  0  0  0
 16 23  2  0  0  0
 17 18  2  0  0  0
 17 19  1  0  0  0
 19 20  1  0  0  0
 19 34  1  0  0  0
 20 21  1  0  0  0
 20 22  2  0  0  0
 21 35  1  0  0  0
 21 36  1  0  0  0
 22 23  1  0  0  0
M  CHG  2   1  -1   4  -1
M  END
> <s_m_source_file>
../1ppx_ligand.sdf

> <i_m_source_file_index>
1

> <s_epik_input>
W09IXVAoPU8pKFtPSF0pT1tDSDJdW0NASF0xT1tDQEhdKFtDSDJdW0NAQEhdMVtPSF0pbihjKD1PKVtuSF0yKWMoYzIzKW5jKFtOSDJdKVtuSF1jMz1P

> <s_epik_cmdline>
J2VwaWtfYXBwJywgJy1pbWFlJywgJ2xpZ2FuZF9wcm8ubWFlJywgJy1vbWFlJywgJ2xpZ2FuZF9wcmVwLm1hZScsICctbXMnLCAnMScsICctcGgnLCAnNycsICctcGh0JywgJzAuNScsICctbnQn

> <r_epik_Ionization_Penalty>
  0.1033

> <r_epik_Ionization_Penalty_Charging>
  0.1033

> <r_epik_Ionization_Penalty_Neutral>
  0.0000

> <r_epik_State_Penalty>
  0.0932

> <r_epik_Charging_Adjusted_Penalty>
0.196502162930934

> <i_epik_Tot_Q>
-2

> <i_epik_Tot_abs_Q>
2

> <s_epik_Chemistry_Notes>
This compound contains an acetal/aminal-like group ( X-CH(R)-Y where X, Y are N, S, or O) that may be acid/base labile, releasing an aldehyde.

$$$$
