1pq6_ligand
                    3D
 Schrodinger Suite 2020-3.
 72 75  0  0  1  0            999 V2000
   45.9280   22.4830   41.9660 O   0  0  0  0  0  0
   46.0060   22.9220   43.1170 C   0  0  0  0  0  0
   46.1540   24.1370   43.3520 O   0  5  0  0  0  0
   45.9910   22.0480   44.3360 C   0  0  0  0  0  0
   45.0900   20.8430   44.1200 C   0  0  0  0  0  0
   43.7290   20.9850   44.3850 C   0  0  0  0  0  0
   42.8480   19.9350   44.1450 C   0  0  0  0  0  0
   43.3330   18.7340   43.6340 C   0  0  0  0  0  0
   44.6910   18.5920   43.3610 C   0  0  0  0  0  0
   45.1450   17.3970   42.8930 O   0  0  0  0  0  0
   44.6170   16.8430   41.7080 C   0  0  0  0  0  0
   44.9200   15.3770   41.7030 C   0  0  0  0  0  0
   44.1000   14.6790   40.6300 C   0  0  0  0  0  0
   43.5910   13.3960   41.1190 N   0  3  2  0  0  0
   44.5040   12.5210   41.8260 C   0  0  0  0  0  0
   43.8830   11.8270   42.9990 C   0  0  0  0  0  0
   43.1380   12.4980   43.9500 C   0  0  0  0  0  0
   42.5800   11.7950   45.0150 C   0  0  0  0  0  0
   42.7420   10.4150   45.1750 C   0  0  0  0  0  0
   43.4790    9.6620   44.2660 C   0  0  0  0  0  0
   44.0860   10.3810   43.1320 C   0  0  0  0  0  0
   45.0460    9.5000   41.9130 Cl  0  0  0  0  0  0
   43.6720    8.1640   44.3680 C   0  0  0  0  0  0
   43.0970    7.6170   43.2920 F   0  0  0  0  0  0
   43.1460    7.6810   45.4810 F   0  0  0  0  0  0
   44.9580    7.8540   44.3740 F   0  0  0  0  0  0
   42.3410   12.8510   40.5950 C   0  0  0  0  0  0
   41.1590   13.8370   40.5850 C   0  0  0  0  0  0
   40.1170   13.4550   39.5870 C   0  0  0  0  0  0
   39.8390   12.1220   39.2590 C   0  0  0  0  0  0
   38.8640   11.7950   38.3180 C   0  0  0  0  0  0
   38.1420   12.8000   37.6930 C   0  0  0  0  0  0
   38.4280   14.1250   37.9970 C   0  0  0  0  0  0
   39.3930   14.4610   38.9490 C   0  0  0  0  0  0
   40.5620   13.9380   41.9350 C   0  0  0  0  0  0
   40.0380   12.8110   42.5720 C   0  0  0  0  0  0
   39.5020   12.9050   43.8580 C   0  0  0  0  0  0
   39.4570   14.1470   44.4890 C   0  0  0  0  0  0
   39.9780   15.2600   43.8430 C   0  0  0  0  0  0
   40.5300   15.1630   42.5700 C   0  0  0  0  0  0
   45.5770   19.6360   43.6050 C   0  0  0  0  0  0
   47.0115   21.6962   44.5475 H   0  0  0  0  0  0
   45.6161   22.6235   45.1952 H   0  0  0  0  0  0
   43.3515   21.9266   44.7837 H   0  0  0  0  0  0
   41.7850   20.0519   44.3557 H   0  0  0  0  0  0
   42.6499   17.9053   43.4478 H   0  0  0  0  0  0
   43.5293   17.0047   41.6806 H   0  0  0  0  0  0
   45.0820   17.3285   40.8373 H   0  0  0  0  0  0
   45.9897   15.2244   41.4969 H   0  0  0  0  0  0
   44.6709   14.9477   42.6847 H   0  0  0  0  0  0
   43.2479   15.3149   40.3481 H   0  0  0  0  0  0
   44.7302   14.4977   39.7468 H   0  0  0  0  0  0
   43.0889   13.7959   42.0123 H   0  0  0  0  0  0
   44.8706   11.7427   41.1406 H   0  0  0  0  0  0
   45.3547   13.1070   42.2041 H   0  0  0  0  0  0
   42.9875   13.5744   43.8669 H   0  0  0  0  0  0
   41.9937   12.3421   45.7532 H   0  0  0  0  0  0
   42.2814    9.9191   46.0294 H   0  0  0  0  0  0
   42.4904   12.5256   39.5549 H   0  0  0  0  0  0
   42.0307   11.9913   41.2071 H   0  0  0  0  0  0
   41.5194   14.8363   40.2995 H   0  0  0  0  0  0
   40.3964   11.3241   39.7496 H   0  0  0  0  0  0
   38.6695   10.7506   38.0739 H   0  0  0  0  0  0
   37.3611   12.5541   36.9734 H   0  0  0  0  0  0
   37.8878   14.9192   37.4816 H   0  0  0  0  0  0
   39.5795   15.5070   39.1925 H   0  0  0  0  0  0
   40.0475   11.8486   42.0603 H   0  0  0  0  0  0
   39.1228   12.0166   44.3630 H   0  0  0  0  0  0
   39.0165   14.2436   45.4813 H   0  0  0  0  0  0
   39.9540   16.2283   44.3429 H   0  0  0  0  0  0
   40.9342   16.0475   42.0777 H   0  0  0  0  0  0
   46.6402   19.5154   43.3972 H   0  0  0  0  0  0
  1  2  2  0  0  0
  2  3  1  0  0  0
  2  4  1  0  0  0
  4  5  1  0  0  0
  4 42  1  0  0  0
  4 43  1  0  0  0
  5  6  2  0  0  0
  5 41  1  0  0  0
  6  7  1  0  0  0
  6 44  1  0  0  0
  7  8  2  0  0  0
  7 45  1  0  0  0
  8  9  1  0  0  0
  8 46  1  0  0  0
  9 10  1  0  0  0
  9 41  2  0  0  0
 10 11  1  0  0  0
 11 12  1  0  0  0
 11 47  1  0  0  0
 11 48  1  0  0  0
 12 13  1  0  0  0
 12 49  1  0  0  0
 12 50  1  0  0  0
 13 14  1  0  0  0
 13 51  1  0  0  0
 13 52  1  0  0  0
 14 15  1  0  0  0
 14 27  1  0  0  0
 14 53  1  0  0  0
 15 16  1  0  0  0
 15 54  1  0  0  0
 15 55  1  0  0  0
 16 17  2  0  0  0
 16 21  1  0  0  0
 17 18  1  0  0  0
 17 56  1  0  0  0
 18 19  2  0  0  0
 18 57  1  0  0  0
 19 20  1  0  0  0
 19 58  1  0  0  0
 20 21  2  0  0  0
 20 23  1  0  0  0
 21 22  1  0  0  0
 23 24  1  0  0  0
 23 25  1  0  0  0
 23 26  1  0  0  0
 27 28  1  0  0  0
 27 59  1  0  0  0
 27 60  1  0  0  0
 28 29  1  0  0  0
 28 35  1  0  0  0
 28 61  1  0  0  0
 29 30  2  0  0  0
 29 34  1  0  0  0
 30 31  1  0  0  0
 30 62  1  0  0  0
 31 32  2  0  0  0
 31 63  1  0  0  0
 32 33  1  0  0  0
 32 64  1  0  0  0
 33 34  2  0  0  0
 33 65  1  0  0  0
 34 66  1  0  0  0
 35 36  2  0  0  0
 35 40  1  0  0  0
 36 37  1  0  0  0
 36 67  1  0  0  0
 37 38  2  0  0  0
 37 68  1  0  0  0
 38 39  1  0  0  0
 38 69  1  0  0  0
 39 40  2  0  0  0
 39 70  1  0  0  0
 40 71  1  0  0  0
 41 72  1  0  0  0
M  CHG  2   3  -1  14   1
M  END
> <s_m_source_file>
../1pq6_ligand.sdf

> <i_m_source_file_index>
1

> <s_epik_input>
Tz1DKFtPSF0pW0NIMl1jMVtjSF1bY0hdW2NIXWMoW2NIXTEpT1tDSDJdW0NIMl1bQ0gyXVtOQEgrXShbQ0gyXWMyW2NIXVtjSF1bY0hdYyhjMkNsKUMoRikoRilGKVtDSDJdW0NIXShjM1tjSF1bY0hdW2NIXVtjSF1bY0hdMyljNFtjSF1bY0hdW2NIXVtjSF1bY0hdNA==

> <s_epik_cmdline>
J2VwaWtfYXBwJywgJy1pbWFlJywgJ2xpZ2FuZF9wcm8ubWFlJywgJy1vbWFlJywgJ2xpZ2FuZF9wcmVwLm1hZScsICctbXMnLCAnMScsICctcGgnLCAnNycsICctcGh0JywgJzAuNScsICctbnQn

> <r_lp_tautomer_probability>
1

> <r_epik_Ionization_Penalty>
  0.1510

> <r_epik_Ionization_Penalty_Charging>
  0.1510

> <r_epik_Ionization_Penalty_Neutral>
  0.0000

> <r_epik_State_Penalty>
  0.1392

> <r_epik_Charging_Adjusted_Penalty>
0.290236470074803

> <i_epik_Tot_Q>
0

> <i_epik_Tot_abs_Q>
2

$$$$
