1pr1_ligand
                    3D
 Schrodinger Suite 2020-3.
 31 33  0  0  1  0            999 V2000
   87.4890   65.9250   17.7080 N   0  0  0  0  0  0
   88.1440   64.8000   18.2760 C   0  0  0  0  0  0
   89.2540   64.9770   19.0850 N   0  0  0  0  0  0
   89.6470   66.2750   19.3090 C   0  0  0  0  0  0
   89.0050   67.4310   18.7950 C   0  0  0  0  0  0
   87.8710   67.2660   17.9260 C   0  0  0  0  0  0
   87.2530   68.1700   17.3840 O   0  0  0  0  0  0
   89.6040   68.5870   19.2210 N   0  0  0  0  0  0
   90.6690   68.1320   19.9920 N   0  3  0  0  0  0
   90.7400   66.7270   20.0430 C   0  0  0  0  0  0
   91.8340   66.0780   20.7670 C   0  0  1  0  0  0
   91.6940   64.5840   21.1650 C   0  0  2  0  0  0
   91.8850   64.5630   22.5730 O   0  0  0  0  0  0
   92.7660   63.8050   20.3850 C   0  0  2  0  0  0
   93.8180   63.2550   21.2060 O   0  0  0  0  0  0
   93.4550   64.8110   19.4940 C   0  0  2  0  0  0
   92.9400   66.1140   19.8240 O   0  0  0  0  0  0
   93.2720   64.4190   18.0160 C   0  0  0  0  0  0
   93.3410   65.5160   17.1070 O   0  0  0  0  0  0
   86.6209   65.7807   17.0480 H   0  0  0  0  0  0
   87.7723   63.7953   18.0748 H   0  0  0  0  0  0
   91.9272   66.6672   21.6912 H   0  0  0  0  0  0
   90.7185   64.1015   21.0051 H   0  0  0  0  0  0
   91.1777   65.0880   23.2319 H   0  0  0  0  0  0
   92.2984   62.9418   19.8888 H   0  0  0  0  0  0
   93.5846   62.4853   21.9564 H   0  0  0  0  0  0
   94.5341   64.8849   19.6940 H   0  0  0  0  0  0
   94.0599   63.7087   17.7248 H   0  0  0  0  0  0
   92.2866   63.9493   17.8805 H   0  0  0  0  0  0
   93.2228   65.3437   16.0270 H   0  0  0  0  0  0
   91.3422   68.8524   20.4797 H   0  0  0  0  0  0
  1  2  1  0  0  0
  1  6  1  0  0  0
  1 20  1  0  0  0
  2  3  2  0  0  0
  2 21  1  0  0  0
  3  4  1  0  0  0
  4  5  2  0  0  0
  4 10  1  0  0  0
  5  6  1  0  0  0
  5  8  1  0  0  0
  6  7  2  0  0  0
  8  9  1  0  0  0
  9 10  2  0  0  0
  9 31  1  0  0  0
 10 11  1  0  0  0
 11 12  1  0  0  0
 11 17  1  0  0  0
 11 22  1  0  0  0
 12 13  1  0  0  0
 12 14  1  0  0  0
 12 23  1  0  0  0
 13 24  1  0  0  0
 14 15  1  0  0  0
 14 16  1  0  0  0
 14 25  1  0  0  0
 15 26  1  0  0  0
 16 17  1  0  0  0
 16 18  1  0  0  0
 16 27  1  0  0  0
 18 19  1  0  0  0
 18 28  1  0  0  0
 18 29  1  0  0  0
 19 30  1  0  0  0
M  CHG  1   9   1
M  END
> <s_m_source_file>
../1pr1_ligand.sdf

> <i_m_source_file_index>
1

> <s_epik_input>
bjFbY0hdW25IXWMoPU8pYyhjMTIpW25IXW5jMltDQEhdM1tDQEhdKFtPSF0pW0NASF0oW09IXSlbQ0BIXShPMylbQ0gyXVtPSF0=

> <s_epik_cmdline>
J2VwaWtfYXBwJywgJy1pbWFlJywgJ2xpZ2FuZF9wcm8ubWFlJywgJy1vbWFlJywgJ2xpZ2FuZF9wcmVwLm1hZScsICctbXMnLCAnMScsICctcGgnLCAnNycsICctcGh0JywgJzAuNScsICctbnQn

> <r_lp_tautomer_probability>
1

> <r_epik_Ionization_Penalty>
  0.0013

> <r_epik_Ionization_Penalty_Charging>
  0.0013

> <r_epik_Ionization_Penalty_Neutral>
  0.0000

> <r_epik_State_Penalty>
 -0.0000

> <r_epik_Charging_Adjusted_Penalty>
0.00129023265841574

> <i_epik_Tot_Q>
1

> <i_epik_Tot_abs_Q>
1

$$$$
