1pr5_ligand
                    3D
 Schrodinger Suite 2020-3.
 33 35  0  0  1  0            999 V2000
   93.1020   65.3430   17.0350 O   0  0  0  0  0  0
   92.9520   64.2410   17.9490 C   0  0  0  0  0  0
   93.3630   64.6330   19.3910 C   0  0  1  0  0  0
   93.0510   65.9980   19.6980 O   0  0  0  0  0  0
   91.8750   66.0560   20.5210 C   0  0  1  0  0  0
   90.8320   66.7750   19.7220 N   0  0  0  0  0  0
   90.7280   68.1580   19.5650 C   0  0  0  0  0  0
   89.6670   68.4780   18.7670 C   0  0  0  0  0  0
   89.0920   67.2960   18.4130 C   0  0  0  0  0  0
   87.9540   67.1120   17.5810 C   0  0  0  0  0  0
   87.6000   65.7900   17.3980 N   0  0  0  0  0  0
   88.3190   64.7970   17.9910 C   0  0  0  0  0  0
   89.4130   64.9040   18.7920 N   0  0  0  0  0  0
   89.7640   66.2270   18.9720 C   0  0  0  0  0  0
   87.2630   68.1100   17.0060 N   0  0  0  0  0  0
   91.6160   64.6470   21.0890 C   0  0  2  0  0  0
   91.8140   64.7190   22.5020 O   0  0  0  0  0  0
   92.6290   63.7410   20.3970 C   0  0  2  0  0  0
   93.5020   63.0550   21.3100 O   0  0  0  0  0  0
   92.8480   65.2148   15.9724 H   0  0  0  0  0  0
   91.9007   63.9178   17.9642 H   0  0  0  0  0  0
   93.5879   63.4049   17.6228 H   0  0  0  0  0  0
   94.4570   64.5722   19.4879 H   0  0  0  0  0  0
   91.9817   66.6896   21.4138 H   0  0  0  0  0  0
   91.4025   68.8845   20.0181 H   0  0  0  0  0  0
   89.3457   69.4772   18.4731 H   0  0  0  0  0  0
   87.9717   63.7820   17.7981 H   0  0  0  0  0  0
   87.5671   69.1545   17.1687 H   0  0  0  0  0  0
   86.3930   67.8828   16.3724 H   0  0  0  0  0  0
   90.5964   64.2482   20.9829 H   0  0  0  0  0  0
   91.1487   65.3402   23.1196 H   0  0  0  0  0  0
   92.1609   62.8646   19.9249 H   0  0  0  0  0  0
   94.2745   62.3731   20.9249 H   0  0  0  0  0  0
  1  2  1  0  0  0
  1 20  1  0  0  0
  2  3  1  0  0  0
  2 21  1  0  0  0
  2 22  1  0  0  0
  3  4  1  0  0  0
  3 18  1  0  0  0
  3 23  1  0  0  0
  4  5  1  0  0  0
  5  6  1  0  0  0
  5 16  1  0  0  0
  5 24  1  0  0  0
  6  7  1  0  0  0
  6 14  1  0  0  0
  7  8  2  0  0  0
  7 25  1  0  0  0
  8  9  1  0  0  0
  8 26  1  0  0  0
  9 10  2  0  0  0
  9 14  1  0  0  0
 10 11  1  0  0  0
 10 15  1  0  0  0
 11 12  2  0  0  0
 12 13  1  0  0  0
 12 27  1  0  0  0
 13 14  2  0  0  0
 15 28  1  0  0  0
 15 29  1  0  0  0
 16 17  1  0  0  0
 16 18  1  0  0  0
 16 30  1  0  0  0
 17 31  1  0  0  0
 18 19  1  0  0  0
 18 32  1  0  0  0
 19 33  1  0  0  0
M  END
> <s_m_source_file>
../1pr5_ligand.sdf

> <i_m_source_file_index>
1

> <s_epik_input>
W09IXVtDSDJdW0NASF0xT1tDQEhdKFtDQEhdKFtPSF0pW0NAQEhdMVtPSF0pbihbY0hdW2NIXTIpYyhjMjMpbltjSF1uYzNbTkgyXQ==

> <s_epik_cmdline>
J2VwaWtfYXBwJywgJy1pbWFlJywgJ2xpZ2FuZF9wcm8ubWFlJywgJy1vbWFlJywgJ2xpZ2FuZF9wcmVwLm1hZScsICctbXMnLCAnMScsICctcGgnLCAnNycsICctcGh0JywgJzAuNScsICctbnQn

> <r_lp_tautomer_probability>
1

> <r_epik_Ionization_Penalty>
  0.0009

> <r_epik_Ionization_Penalty_Charging>
  0.0000

> <r_epik_Ionization_Penalty_Neutral>
  0.0009

> <r_epik_State_Penalty>
 -0.0000

> <r_epik_Charging_Adjusted_Penalty>
0

> <i_epik_Tot_Q>
0

> <i_epik_Tot_abs_Q>
0

> <s_epik_Chemistry_Notes>
This compound contains an acetal/aminal-like group ( X-CH(R)-Y where X, Y are N, S, or O) that may be acid/base labile, releasing an aldehyde.

$$$$
