1prl_ligand
                    3D
 Schrodinger Suite 2020-3.
151154  0  0  1  0            999 V2000
    2.1760   16.4660    9.4510 N   0  3  0  0  0  0
    3.1570   15.7660   10.3280 C   0  0  2  0  0  0
    3.5830   14.4530    9.6680 C   0  0  0  0  0  0
    3.1400   14.1180    8.5870 O   0  0  0  0  0  0
    2.5100   15.4700   11.6820 C   0  0  0  0  0  0
    4.4380   13.7070   10.3100 N   0  0  0  0  0  0
    4.8900   12.4160    9.7180 C   0  0  2  0  0  0
    5.5750   12.6840    8.3760 C   0  0  0  0  0  0
    5.0600   12.3480    7.3290 O   0  0  0  0  0  0
    3.6820   11.5040    9.5000 C   0  0  0  0  0  0
    3.6760   10.4020   10.5620 C   0  0  0  0  0  0
    4.5950    9.3710   10.5080 C   0  0  0  0  0  0
    2.7500   10.4250   11.5900 C   0  0  0  0  0  0
    4.5890    8.3790   11.4670 C   0  0  0  0  0  0
    2.7450    9.4320   12.5470 C   0  0  0  0  0  0
    3.6640    8.4090   12.4860 C   0  0  0  0  0  0
    6.7320   13.2860    8.3980 N   0  0  0  0  0  0
    7.4450   13.5730    7.1220 C   0  0  2  0  0  0
    7.5720   12.2760    6.3110 C   0  0  0  0  0  0
    7.9280   11.2500    6.8530 O   0  0  0  0  0  0
    8.8410   14.1170    7.4320 C   0  0  0  0  0  0
    7.2780   12.3600    5.0350 N   0  0  0  0  0  0
    7.3550   11.1930    4.1340 C   0  0  2  0  0  0
    8.7980   10.6750    4.0540 C   0  0  0  0  0  0
    9.6460   11.3150    3.4650 O   0  0  0  0  0  0
    6.9040   11.7240    2.7660 C   0  0  0  0  0  0
    6.5830   13.2320    2.9260 C   0  0  0  0  0  0
    6.8530   13.6150    4.3890 C   0  0  0  0  0  0
    9.0360    9.5280    4.6430 N   0  0  0  0  0  0
   10.3770    8.9150    4.6450 C   0  0  2  0  0  0
   10.8270    8.6230    3.2100 C   0  0  0  0  0  0
   10.0410    8.2300    2.3720 O   0  0  0  0  0  0
   10.2120    7.6090    5.4340 C   0  0  0  0  0  0
    8.7300    7.5120    5.8810 C   0  0  0  0  0  0
    7.9970    8.7510    5.3440 C   0  0  0  0  0  0
   12.0860    8.8180    2.9210 N   0  0  0  0  0  0
   12.5830    8.5510    1.5420 C   0  0  2  0  0  0
   11.9900    7.2260    1.0390 C   0  0  0  0  0  0
   12.2290    6.1910    1.6290 O   0  0  0  0  0  0
   14.1100    8.4450    1.5650 C   0  0  0  0  0  0
   14.7040    9.7640    2.0610 C   0  0  0  0  0  0
   16.2190    9.6140    2.2190 C   0  0  0  0  0  0
   14.4060   10.8710    1.0480 C   0  0  0  0  0  0
   11.2000    7.3010   -0.0100 N   0  0  0  0  0  0
   10.5570    6.1100   -0.6050 C   0  0  2  0  0  0
   11.5480    5.3150   -1.4670 C   0  0  0  0  0  0
   11.2380    4.9290   -2.5770 O   0  0  0  0  0  0
    9.4420    6.6780   -1.4900 C   0  0  0  0  0  0
    9.6500    8.2140   -1.5750 C   0  0  0  0  0  0
   10.8110    8.5780   -0.6340 C   0  0  0  0  0  0
   12.7230    5.0580   -0.9610 N   0  0  0  0  0  0
   13.7400    4.2890   -1.7400 C   0  0  2  0  0  0
   13.6640    4.6630   -3.2230 C   0  0  0  0  0  0
   13.4070    3.8290   -4.0690 O   0  0  0  0  0  0
   13.4770    2.7900   -1.5830 C   0  0  0  0  0  0
   14.6510    2.0030   -2.1720 C   0  0  0  0  0  0
   14.8980    0.7480   -1.3330 C   0  0  0  0  0  0
   15.4130   -0.3420   -2.2090 N   0  0  0  0  0  0
   16.6480   -0.3140   -2.6350 C   0  0  0  0  0  0
   17.4380    0.6680   -2.2920 N   0  0  0  0  0  0
   17.0940   -1.2700   -3.4030 N   0  0  0  0  0  0
   13.8810    5.9080   -3.5470 N   0  0  0  0  0  0
   13.8190    6.3240   -4.9750 C   0  0  2  0  0  0
   12.4610    5.9330   -5.5620 C   0  0  0  0  0  0
   12.4390    5.0990   -6.4530 O   0  0  0  0  0  0
   14.9330    5.6260   -5.7580 C   0  0  0  0  0  0
   16.2920    6.0470   -5.1950 C   0  0  0  0  0  0
   16.5140    7.5360   -5.4670 C   0  0  0  0  0  0
   17.9590    7.8620   -5.2970 N   0  0  0  0  0  0
   18.3530    9.1070   -5.2890 C   0  0  0  0  0  0
   17.4840   10.0720   -5.4270 N   0  0  0  0  0  0
   19.6190    9.3880   -5.1420 N   0  0  0  0  0  0
   11.4650    6.4760   -5.1130 O   0  0  0  0  0  0
    2.6413   16.6789    8.4773 H   0  0  0  0  0  0
    1.8689   17.4100    9.9249 H   0  0  0  0  0  0
    1.2938   15.8257    9.3037 H   0  0  0  0  0  0
    4.0280   16.4247   10.4606 H   0  0  0  0  0  0
    2.2038   16.4141   12.1563 H   0  0  0  0  0  0
    3.2337   14.9525   12.3289 H   0  0  0  0  0  0
    1.6272   14.8305   11.5345 H   0  0  0  0  0  0
    4.8258   14.0295   11.2876 H   0  0  0  0  0  0
    5.5962   11.9474   10.4192 H   0  0  0  0  0  0
    2.7575   12.0947    9.5796 H   0  0  0  0  0  0
    3.7416   11.0492    8.5002 H   0  0  0  0  0  0
    5.3291    9.3414    9.7028 H   0  0  0  0  0  0
    2.0202   11.2328   11.6437 H   0  0  0  0  0  0
    5.3180    7.5702   11.4176 H   0  0  0  0  0  0
    2.0119    9.4573   13.3533 H   0  0  0  0  0  0
    3.6593    7.6246   13.2428 H   0  0  0  0  0  0
    7.1812   13.5817    9.3576 H   0  0  0  0  0  0
    6.8623   14.3211    6.5645 H   0  0  0  0  0  0
    8.7515   15.0466    8.0132 H   0  0  0  0  0  0
    9.3717   14.3227    6.4907 H   0  0  0  0  0  0
    9.4034   13.3728    8.0149 H   0  0  0  0  0  0
    6.7221   10.3768    4.5124 H   0  0  0  0  0  0
    7.7116   11.5812    2.0329 H   0  0  0  0  0  0
    6.0089   11.1759    2.4369 H   0  0  0  0  0  0
    7.2264   13.8173    2.2526 H   0  0  0  0  0  0
    5.5277   13.4112    2.6724 H   0  0  0  0  0  0
    5.9472   13.9941    4.8848 H   0  0  0  0  0  0
    7.6568   14.3612    4.4732 H   0  0  0  0  0  0
   11.1109    9.5995    5.0953 H   0  0  0  0  0  0
   10.4740    6.7562    4.7904 H   0  0  0  0  0  0
   10.8758    7.6240    6.3110 H   0  0  0  0  0  0
    8.2823    6.5951    5.4700 H   0  0  0  0  0  0
    8.6794    7.4842    6.9795 H   0  0  0  0  0  0
    7.5715    9.3576    6.1570 H   0  0  0  0  0  0
    7.2015    8.4789    4.6347 H   0  0  0  0  0  0
   12.7791    9.1791    3.6951 H   0  0  0  0  0  0
   12.2697    9.3855    0.8975 H   0  0  0  0  0  0
   14.4108    7.6301    2.2399 H   0  0  0  0  0  0
   14.4783    8.2352    0.5500 H   0  0  0  0  0  0
   14.2564   10.0241    3.0316 H   0  0  0  0  0  0
   16.4347    8.8183    2.9472 H   0  0  0  0  0  0
   16.6462   10.5629    2.5755 H   0  0  0  0  0  0
   16.6649    9.3530    1.2479 H   0  0  0  0  0  0
   13.3174   10.9799    0.9335 H   0  0  0  0  0  0
   14.8525   10.6096    0.0773 H   0  0  0  0  0  0
   14.8338   11.8195    1.4049 H   0  0  0  0  0  0
   10.1978    5.4428    0.1923 H   0  0  0  0  0  0
    9.5024    6.2261   -2.4911 H   0  0  0  0  0  0
    8.4644    6.4469   -1.0418 H   0  0  0  0  0  0
    9.8931    8.4943   -2.6105 H   0  0  0  0  0  0
    8.7281    8.7267   -1.2631 H   0  0  0  0  0  0
   10.4977    9.2870    0.1465 H   0  0  0  0  0  0
   11.6682    8.9935   -1.1841 H   0  0  0  0  0  0
   12.9608    5.4149    0.0519 H   0  0  0  0  0  0
   14.7312    4.5492   -1.3402 H   0  0  0  0  0  0
   13.3701    2.5463   -0.5157 H   0  0  0  0  0  0
   12.5519    2.5224   -2.1146 H   0  0  0  0  0  0
   14.4149    1.7114   -3.2060 H   0  0  0  0  0  0
   15.5539    2.6313   -2.1653 H   0  0  0  0  0  0
   15.6384    0.9700   -0.5504 H   0  0  0  0  0  0
   13.9551    0.4280   -0.8655 H   0  0  0  0  0  0
   14.7530   -1.1730   -2.4986 H   0  0  0  0  0  0
   17.0636    1.4747   -1.6446 H   0  0  0  0  0  0
   18.4777    0.6883   -2.6505 H   0  0  0  0  0  0
   16.4300   -2.0977   -3.6928 H   0  0  0  0  0  0
   14.1094    6.6497   -2.7675 H   0  0  0  0  0  0
   13.9510    7.4152   -5.0171 H   0  0  0  0  0  0
   11.4801    4.7945   -6.8978 H   0  0  0  0  0  0
   14.8190    4.5359   -5.6649 H   0  0  0  0  0  0
   14.8705    5.9120   -6.8183 H   0  0  0  0  0  0
   16.3121    5.8642   -4.1105 H   0  0  0  0  0  0
   17.0871    5.4619   -5.6802 H   0  0  0  0  0  0
   16.2035    7.7711   -6.4958 H   0  0  0  0  0  0
   15.9181    8.1309   -4.7592 H   0  0  0  0  0  0
   18.6950    7.0532   -5.1781 H   0  0  0  0  0  0
   16.4165    9.8373   -5.5510 H   0  0  0  0  0  0
   17.8195   11.1196   -5.4192 H   0  0  0  0  0  0
   20.3526    8.5766   -5.0256 H   0  0  0  0  0  0
  1  2  1  0  0  0
  1 74  1  0  0  0
  1 75  1  0  0  0
  1 76  1  0  0  0
  2  3  1  0  0  0
  2  5  1  0  0  0
  2 77  1  0  0  0
  3  4  2  0  0  0
  3  6  1  0  0  0
  5 78  1  0  0  0
  5 79  1  0  0  0
  5 80  1  0  0  0
  6  7  1  0  0  0
  6 81  1  0  0  0
  7  8  1  0  0  0
  7 10  1  0  0  0
  7 82  1  0  0  0
  8  9  2  0  0  0
  8 17  1  0  0  0
 10 11  1  0  0  0
 10 83  1  0  0  0
 10 84  1  0  0  0
 11 12  2  0  0  0
 11 13  1  0  0  0
 12 14  1  0  0  0
 12 85  1  0  0  0
 13 15  2  0  0  0
 13 86  1  0  0  0
 14 16  2  0  0  0
 14 87  1  0  0  0
 15 16  1  0  0  0
 15 88  1  0  0  0
 16 89  1  0  0  0
 17 18  1  0  0  0
 17 90  1  0  0  0
 18 19  1  0  0  0
 18 21  1  0  0  0
 18 91  1  0  0  0
 19 20  2  0  0  0
 19 22  1  0  0  0
 21 92  1  0  0  0
 21 93  1  0  0  0
 21 94  1  0  0  0
 22 23  1  0  0  0
 22 28  1  0  0  0
 23 24  1  0  0  0
 23 26  1  0  0  0
 23 95  1  0  0  0
 24 25  2  0  0  0
 24 29  1  0  0  0
 26 27  1  0  0  0
 26 96  1  0  0  0
 26 97  1  0  0  0
 27 28  1  0  0  0
 27 98  1  0  0  0
 27 99  1  0  0  0
 28100  1  0  0  0
 28101  1  0  0  0
 29 30  1  0  0  0
 29 35  1  0  0  0
 30 31  1  0  0  0
 30 33  1  0  0  0
 30102  1  0  0  0
 31 32  2  0  0  0
 31 36  1  0  0  0
 33 34  1  0  0  0
 33103  1  0  0  0
 33104  1  0  0  0
 34 35  1  0  0  0
 34105  1  0  0  0
 34106  1  0  0  0
 35107  1  0  0  0
 35108  1  0  0  0
 36 37  1  0  0  0
 36109  1  0  0  0
 37 38  1  0  0  0
 37 40  1  0  0  0
 37110  1  0  0  0
 38 39  2  0  0  0
 38 44  1  0  0  0
 40 41  1  0  0  0
 40111  1  0  0  0
 40112  1  0  0  0
 41 42  1  0  0  0
 41 43  1  0  0  0
 41113  1  0  0  0
 42114  1  0  0  0
 42115  1  0  0  0
 42116  1  0  0  0
 43117  1  0  0  0
 43118  1  0  0  0
 43119  1  0  0  0
 44 45  1  0  0  0
 44 50  1  0  0  0
 45 46  1  0  0  0
 45 48  1  0  0  0
 45120  1  0  0  0
 46 47  2  0  0  0
 46 51  1  0  0  0
 48 49  1  0  0  0
 48121  1  0  0  0
 48122  1  0  0  0
 49 50  1  0  0  0
 49123  1  0  0  0
 49124  1  0  0  0
 50125  1  0  0  0
 50126  1  0  0  0
 51 52  1  0  0  0
 51127  1  0  0  0
 52 53  1  0  0  0
 52 55  1  0  0  0
 52128  1  0  0  0
 53 54  2  0  0  0
 53 62  1  0  0  0
 55 56  1  0  0  0
 55129  1  0  0  0
 55130  1  0  0  0
 56 57  1  0  0  0
 56131  1  0  0  0
 56132  1  0  0  0
 57 58  1  0  0  0
 57133  1  0  0  0
 57134  1  0  0  0
 58 59  1  0  0  0
 58135  1  0  0  0
 59 60  1  0  0  0
 59 61  2  0  0  0
 60136  1  0  0  0
 60137  1  0  0  0
 61138  1  0  0  0
 62 63  1  0  0  0
 62139  1  0  0  0
 63 64  1  0  0  0
 63 66  1  0  0  0
 63140  1  0  0  0
 64 65  1  0  0  0
 64 73  2  0  0  0
 65141  1  0  0  0
 66 67  1  0  0  0
 66142  1  0  0  0
 66143  1  0  0  0
 67 68  1  0  0  0
 67144  1  0  0  0
 67145  1  0  0  0
 68 69  1  0  0  0
 68146  1  0  0  0
 68147  1  0  0  0
 69 70  1  0  0  0
 69148  1  0  0  0
 70 71  1  0  0  0
 70 72  2  0  0  0
 71149  1  0  0  0
 71150  1  0  0  0
 72151  1  0  0  0
M  CHG  1   1   1
M  END
> <s_m_source_file>
../1prl_ligand.sdf

> <i_m_source_file_index>
1

> <s_epik_input>
W2NIXTFbY0hdW2NIXVtjSF1bY0hdYzFbQ0gyXVtDQEhdKFtOSF1DKD1PKVtDQEBIXShbTkgzK10pW0NIM10pQyg9TylbTkhdW0NAQEhdKFtDSDNdKUMoPU8pTjJbQ0BASF0oW0NIMl1bQ0gyXVtDSDJdMilDKD1PKU4zW0NAQEhdKFtDSDJdW0NIMl1bQ0gyXTMpQyg9TylbTkhdW0NAQEhdKFtDSDJdW0NIXShbQ0gzXSlbQ0gzXSlDKD1PKU40W0NAQEhdKFtDSDJdW0NIMl1bQ0gyXTQpQyg9TylbTkhdW0NAQEhdKFtDSDJdW0NIMl1bQ0gyXVtOSF0vQyhbTkgyXSk9TlxbSF0pQyg9TylbTkhdW0NASF0oQyg9TylbT0hdKVtDSDJdW0NIMl1bQ0gyXVtOSF0vQyhbTkgyXSk9TlxbSF0=

> <s_epik_cmdline>
J2VwaWtfYXBwJywgJy1pbWFlJywgJ2xpZ2FuZF9wcm8ubWFlJywgJy1vbWFlJywgJ2xpZ2FuZF9wcmVwLm1hZScsICctbXMnLCAnMScsICctcGgnLCAnNycsICctcGh0JywgJzAuNScsICctbnQn

> <s_epik_pKa_notes>
Molecule size exceeds maximum supported for generating protonation states

> <s_epik_Chemistry_Notes>
This compound has an imine and may undergo hydrolysis.

$$$$
