1prm_ligand
                    3D
 Schrodinger Suite 2020-3.
151154  0  0  1  0            999 V2000
    7.2430   16.9750   13.0560 N   0  3  0  0  0  0
    8.6620   16.9490   13.5100 C   0  0  2  0  0  0
    9.4720   16.0220   12.5980 C   0  0  0  0  0  0
   10.5560   16.3580   12.1650 O   0  0  0  0  0  0
    8.7250   16.4410   14.9540 C   0  0  0  0  0  0
    8.9580   14.8600   12.2990 N   0  0  0  0  0  0
    9.7070   13.9200   11.4140 C   0  0  2  0  0  0
    9.2460   14.1060    9.9670 C   0  0  0  0  0  0
    8.0960   13.8920    9.6400 O   0  0  0  0  0  0
    9.4380   12.4760   11.8470 C   0  0  0  0  0  0
   10.6890   11.8950   12.5100 C   0  0  0  0  0  0
   11.7940   11.5570   11.7500 C   0  0  0  0  0  0
   10.7260   11.6900   13.8780 C   0  0  0  0  0  0
   12.9170   11.0230   12.3490 C   0  0  0  0  0  0
   11.8490   11.1560   14.4750 C   0  0  0  0  0  0
   12.9450   10.8220   13.7110 C   0  0  0  0  0  0
   10.1320   14.5050    9.0950 N   0  0  0  0  0  0
    9.7350   14.6990    7.6730 C   0  0  2  0  0  0
    9.2100   13.3740    7.1130 C   0  0  0  0  0  0
    9.5170   12.3200    7.6330 O   0  0  0  0  0  0
   10.9460   15.1550    6.8560 C   0  0  0  0  0  0
    8.4350   13.4660    6.0630 N   0  0  0  0  0  0
    7.8540   12.2800    5.4110 C   0  0  2  0  0  0
    8.9660   11.2960    5.0200 C   0  0  0  0  0  0
   10.0160   11.7040    4.5690 O   0  0  0  0  0  0
    7.1400   12.8280    4.1670 C   0  0  0  0  0  0
    7.2300   14.3770    4.2200 C   0  0  0  0  0  0
    8.0890   14.7540    5.4360 C   0  0  0  0  0  0
    8.6990   10.0250    5.2000 N   0  0  0  0  0  0
    9.6710    8.9680    4.8720 C   0  0  2  0  0  0
   10.0740    9.0550    3.3970 C   0  0  0  0  0  0
    9.2490    8.9660    2.5100 O   0  0  0  0  0  0
    8.9370    7.6510    5.1610 C   0  0  0  0  0  0
    7.5330    8.0080    5.7170 C   0  0  0  0  0  0
    7.4090    9.5410    5.7250 C   0  0  0  0  0  0
   11.3410    9.2290    3.1320 N   0  0  0  0  0  0
   11.8010    9.3220    1.7180 C   0  0  2  0  0  0
   11.1950    8.1700    0.9040 C   0  0  0  0  0  0
   11.3130    7.0230    1.2860 O   0  0  0  0  0  0
   13.3270    9.2220    1.6730 C   0  0  0  0  0  0
   13.9400   10.4480    2.3510 C   0  0  0  0  0  0
   15.4320   10.2070    2.5920 C   0  0  0  0  0  0
   13.7600   11.6720    1.4500 C   0  0  0  0  0  0
   10.5610    8.5060   -0.1950 N   0  0  0  0  0  0
    9.9320    7.5020   -1.0720 C   0  0  2  0  0  0
   10.9980    6.5630   -1.6460 C   0  0  0  0  0  0
   12.1820    6.7850   -1.4880 O   0  0  0  0  0  0
    9.2720    8.3160   -2.1930 C   0  0  0  0  0  0
    9.5840    9.8130   -1.9350 C   0  0  0  0  0  0
   10.4160    9.9020   -0.6460 C   0  0  0  0  0  0
   10.5890    5.5170   -2.3110 N   0  0  0  0  0  0
   11.5830    4.5710   -2.8910 C   0  0  2  0  0  0
   12.0390    5.0870   -4.2590 C   0  0  0  0  0  0
   11.2490    5.5680   -5.0460 O   0  0  0  0  0  0
   10.9440    3.1890   -3.0530 C   0  0  0  0  0  0
   12.0340    2.1160   -3.0060 C   0  0  0  0  0  0
   11.8230    1.2260   -1.7790 C   0  0  0  0  0  0
   12.4000   -0.1240   -2.0380 N   0  0  0  0  0  0
   13.6930   -0.3070   -1.9860 C   0  0  0  0  0  0
   14.4870    0.6890   -1.6980 N   0  0  0  0  0  0
   14.1930   -1.4900   -2.2200 N   0  0  0  0  0  0
   13.3090    4.9900   -4.5490 N   0  0  0  0  0  0
   13.8120    5.4760   -5.8660 C   0  0  2  0  0  0
   13.3530    4.5230   -6.9710 C   0  0  0  0  0  0
   14.1870    3.7900   -7.4770 O   0  0  0  0  0  0
   15.3410    5.5310   -5.8430 C   0  0  0  0  0  0
   15.8030    6.5680   -4.8170 C   0  0  0  0  0  0
   17.1310    7.1750   -5.2740 C   0  0  0  0  0  0
   17.9860    7.4620   -4.0870 N   0  0  0  0  0  0
   19.0350    8.2310   -4.2070 C   0  0  0  0  0  0
   19.3310    8.7640   -5.3630 N   0  0  0  0  0  0
   19.7890    8.4720   -3.1700 N   0  0  0  0  0  0
   12.1770    4.5420   -7.2920 O   0  0  0  0  0  0
    7.1964   17.3396   12.0192 H   0  0  0  0  0  0
    6.6620   17.6450   13.7068 H   0  0  0  0  0  0
    6.8231   15.9596   13.1068 H   0  0  0  0  0  0
    9.0589   17.9733   13.4533 H   0  0  0  0  0  0
    8.1420   17.1102   15.6038 H   0  0  0  0  0  0
    9.7719   16.4231   15.2910 H   0  0  0  0  0  0
    8.3063   15.4250   15.0038 H   0  0  0  0  0  0
    7.9740   14.5732   12.6984 H   0  0  0  0  0  0
   10.7785   14.1504   11.5075 H   0  0  0  0  0  0
    8.6035   12.4575   12.5634 H   0  0  0  0  0  0
    9.1781   11.8713   10.9657 H   0  0  0  0  0  0
   11.7779   11.7133   10.6714 H   0  0  0  0  0  0
    9.8617   11.9523   14.4881 H   0  0  0  0  0  0
   13.7836   10.7598   11.7426 H   0  0  0  0  0  0
   11.8689   10.9981   15.5533 H   0  0  0  0  0  0
   13.8321   10.3997   14.1830 H   0  0  0  0  0  0
   11.1688   14.6978    9.4078 H   0  0  0  0  0  0
    8.9503   15.4692    7.6404 H   0  0  0  0  0  0
   11.3226   16.1068    7.2588 H   0  0  0  0  0  0
   10.6489   15.2931    5.8059 H   0  0  0  0  0  0
   11.7369   14.3928    6.9161 H   0  0  0  0  0  0
    7.1712   11.7569    6.0966 H   0  0  0  0  0  0
    7.6347   12.4455    3.2620 H   0  0  0  0  0  0
    6.0888   12.5040    4.1750 H   0  0  0  0  0  0
    7.6933   14.7492    3.2944 H   0  0  0  0  0  0
    6.2194   14.7998    4.3199 H   0  0  0  0  0  0
    7.5313   15.3732    6.1540 H   0  0  0  0  0  0
    9.0103   15.2766    5.1392 H   0  0  0  0  0  0
   10.5841    9.0892    5.4733 H   0  0  0  0  0  0
    8.8448    7.0709    4.2309 H   0  0  0  0  0  0
    9.5057    7.0690    5.9012 H   0  0  0  0  0  0
    6.7598    7.5651    5.0721 H   0  0  0  0  0  0
    7.4309    7.6107    6.7376 H   0  0  0  0  0  0
    7.2567    9.9327    6.7415 H   0  0  0  0  0  0
    6.5942    9.8879    5.0725 H   0  0  0  0  0  0
   12.0686    9.3069    3.9533 H   0  0  0  0  0  0
   11.4694   10.2915    1.3179 H   0  0  0  0  0  0
   13.6505    8.3122    2.1999 H   0  0  0  0  0  0
   13.6608    9.1775    0.6258 H   0  0  0  0  0  0
   13.4371   10.6228    3.3136 H   0  0  0  0  0  0
   15.5614    9.3273    3.2396 H   0  0  0  0  0  0
   15.8718   11.0893    3.0799 H   0  0  0  0  0  0
   15.9351   10.0312    1.6297 H   0  0  0  0  0  0
   12.6876   11.8452    1.2768 H   0  0  0  0  0  0
   14.2632   11.4961    0.4878 H   0  0  0  0  0  0
   14.1998   12.5543    1.9379 H   0  0  0  0  0  0
    9.2138    6.8921   -0.5044 H   0  0  0  0  0  0
    9.6817    8.0017   -3.1643 H   0  0  0  0  0  0
    8.1856    8.1439   -2.1803 H   0  0  0  0  0  0
   10.1507   10.2212   -2.7848 H   0  0  0  0  0  0
    8.6420   10.3696   -1.8213 H   0  0  0  0  0  0
    9.9026   10.4870    0.1313 H   0  0  0  0  0  0
   11.4110   10.3326   -0.8317 H   0  0  0  0  0  0
    9.5126    5.3333   -2.4435 H   0  0  0  0  0  0
   12.4378    4.5129   -2.2011 H   0  0  0  0  0  0
   10.2261    3.0191   -2.2371 H   0  0  0  0  0  0
   10.4201    3.1382   -4.0189 H   0  0  0  0  0  0
   11.9833    1.5017   -3.9171 H   0  0  0  0  0  0
   13.0207    2.5981   -2.9434 H   0  0  0  0  0  0
   12.3223    1.6770   -0.9087 H   0  0  0  0  0  0
   10.7461    1.1312   -1.5755 H   0  0  0  0  0  0
   11.7370   -0.9695   -2.2737 H   0  0  0  0  0  0
   14.0683    1.6868   -1.5004 H   0  0  0  0  0  0
   15.5745    0.5301   -1.6530 H   0  0  0  0  0  0
   13.5264   -2.3306   -2.4628 H   0  0  0  0  0  0
   14.0074    4.5499   -3.8219 H   0  0  0  0  0  0
   13.4000    6.4816   -6.0367 H   0  0  0  0  0  0
   13.8938    3.0914   -8.2745 H   0  0  0  0  0  0
   15.7393    4.5431   -5.5684 H   0  0  0  0  0  0
   15.7128    5.8123   -6.8393 H   0  0  0  0  0  0
   15.0458    7.3613   -4.7310 H   0  0  0  0  0  0
   15.9374    6.0820   -3.8394 H   0  0  0  0  0  0
   17.6503    6.4654   -5.9349 H   0  0  0  0  0  0
   16.9381    8.1104   -5.8197 H   0  0  0  0  0  0
   17.7337    7.0260   -3.1091 H   0  0  0  0  0  0
   18.6976    8.5631   -6.2396 H   0  0  0  0  0  0
   20.2135    9.4135   -5.4594 H   0  0  0  0  0  0
   19.5430    8.0252   -2.1954 H   0  0  0  0  0  0
  1  2  1  0  0  0
  1 74  1  0  0  0
  1 75  1  0  0  0
  1 76  1  0  0  0
  2  3  1  0  0  0
  2  5  1  0  0  0
  2 77  1  0  0  0
  3  4  2  0  0  0
  3  6  1  0  0  0
  5 78  1  0  0  0
  5 79  1  0  0  0
  5 80  1  0  0  0
  6  7  1  0  0  0
  6 81  1  0  0  0
  7  8  1  0  0  0
  7 10  1  0  0  0
  7 82  1  0  0  0
  8  9  2  0  0  0
  8 17  1  0  0  0
 10 11  1  0  0  0
 10 83  1  0  0  0
 10 84  1  0  0  0
 11 12  2  0  0  0
 11 13  1  0  0  0
 12 14  1  0  0  0
 12 85  1  0  0  0
 13 15  2  0  0  0
 13 86  1  0  0  0
 14 16  2  0  0  0
 14 87  1  0  0  0
 15 16  1  0  0  0
 15 88  1  0  0  0
 16 89  1  0  0  0
 17 18  1  0  0  0
 17 90  1  0  0  0
 18 19  1  0  0  0
 18 21  1  0  0  0
 18 91  1  0  0  0
 19 20  2  0  0  0
 19 22  1  0  0  0
 21 92  1  0  0  0
 21 93  1  0  0  0
 21 94  1  0  0  0
 22 23  1  0  0  0
 22 28  1  0  0  0
 23 24  1  0  0  0
 23 26  1  0  0  0
 23 95  1  0  0  0
 24 25  2  0  0  0
 24 29  1  0  0  0
 26 27  1  0  0  0
 26 96  1  0  0  0
 26 97  1  0  0  0
 27 28  1  0  0  0
 27 98  1  0  0  0
 27 99  1  0  0  0
 28100  1  0  0  0
 28101  1  0  0  0
 29 30  1  0  0  0
 29 35  1  0  0  0
 30 31  1  0  0  0
 30 33  1  0  0  0
 30102  1  0  0  0
 31 32  2  0  0  0
 31 36  1  0  0  0
 33 34  1  0  0  0
 33103  1  0  0  0
 33104  1  0  0  0
 34 35  1  0  0  0
 34105  1  0  0  0
 34106  1  0  0  0
 35107  1  0  0  0
 35108  1  0  0  0
 36 37  1  0  0  0
 36109  1  0  0  0
 37 38  1  0  0  0
 37 40  1  0  0  0
 37110  1  0  0  0
 38 39  2  0  0  0
 38 44  1  0  0  0
 40 41  1  0  0  0
 40111  1  0  0  0
 40112  1  0  0  0
 41 42  1  0  0  0
 41 43  1  0  0  0
 41113  1  0  0  0
 42114  1  0  0  0
 42115  1  0  0  0
 42116  1  0  0  0
 43117  1  0  0  0
 43118  1  0  0  0
 43119  1  0  0  0
 44 45  1  0  0  0
 44 50  1  0  0  0
 45 46  1  0  0  0
 45 48  1  0  0  0
 45120  1  0  0  0
 46 47  2  0  0  0
 46 51  1  0  0  0
 48 49  1  0  0  0
 48121  1  0  0  0
 48122  1  0  0  0
 49 50  1  0  0  0
 49123  1  0  0  0
 49124  1  0  0  0
 50125  1  0  0  0
 50126  1  0  0  0
 51 52  1  0  0  0
 51127  1  0  0  0
 52 53  1  0  0  0
 52 55  1  0  0  0
 52128  1  0  0  0
 53 54  2  0  0  0
 53 62  1  0  0  0
 55 56  1  0  0  0
 55129  1  0  0  0
 55130  1  0  0  0
 56 57  1  0  0  0
 56131  1  0  0  0
 56132  1  0  0  0
 57 58  1  0  0  0
 57133  1  0  0  0
 57134  1  0  0  0
 58 59  1  0  0  0
 58135  1  0  0  0
 59 60  1  0  0  0
 59 61  2  0  0  0
 60136  1  0  0  0
 60137  1  0  0  0
 61138  1  0  0  0
 62 63  1  0  0  0
 62139  1  0  0  0
 63 64  1  0  0  0
 63 66  1  0  0  0
 63140  1  0  0  0
 64 65  1  0  0  0
 64 73  2  0  0  0
 65141  1  0  0  0
 66 67  1  0  0  0
 66142  1  0  0  0
 66143  1  0  0  0
 67 68  1  0  0  0
 67144  1  0  0  0
 67145  1  0  0  0
 68 69  1  0  0  0
 68146  1  0  0  0
 68147  1  0  0  0
 69 70  1  0  0  0
 69148  1  0  0  0
 70 71  1  0  0  0
 70 72  2  0  0  0
 71149  1  0  0  0
 71150  1  0  0  0
 72151  1  0  0  0
M  CHG  1   1   1
M  END
> <s_m_source_file>
../1prm_ligand.sdf

> <i_m_source_file_index>
1

> <s_epik_input>
W2NIXTFbY0hdW2NIXVtjSF1bY0hdYzFbQ0gyXVtDQEhdKFtOSF1DKD1PKVtDQEBIXShbTkgzK10pW0NIM10pQyg9TylbTkhdW0NAQEhdKFtDSDNdKUMoPU8pTjJbQ0BASF0oW0NIMl1bQ0gyXVtDSDJdMilDKD1PKU4zW0NAQEhdKFtDSDJdW0NIMl1bQ0gyXTMpQyg9TylbTkhdW0NAQEhdKFtDSDJdW0NIXShbQ0gzXSlbQ0gzXSlDKD1PKU40W0NAQEhdKFtDSDJdW0NIMl1bQ0gyXTQpQyg9TylbTkhdW0NAQEhdKFtDSDJdW0NIMl1bQ0gyXVtOSF0vQyhbTkgyXSk9TlxbSF0pQyg9TylbTkhdW0NASF0oQyg9TylbT0hdKVtDSDJdW0NIMl1bQ0gyXVtOSF0vQyhbTkgyXSk9TlxbSF0=

> <s_epik_cmdline>
J2VwaWtfYXBwJywgJy1pbWFlJywgJ2xpZ2FuZF9wcm8ubWFlJywgJy1vbWFlJywgJ2xpZ2FuZF9wcmVwLm1hZScsICctbXMnLCAnMScsICctcGgnLCAnNycsICctcGh0JywgJzAuNScsICctbnQn

> <s_epik_pKa_notes>
Molecule size exceeds maximum supported for generating protonation states

> <s_epik_Chemistry_Notes>
This compound has an imine and may undergo hydrolysis.

$$$$
