1pu7_ligand
                    3D
 Schrodinger Suite 2020-3.
 22 23  0  0  1  0            999 V2000
  121.4080    9.0630   46.2260 N   0  0  0  0  0  0
  120.1280    8.8610   46.6300 C   0  0  0  0  0  0
  119.1820    9.6610   46.0500 C   0  0  0  0  0  0
  119.2500   10.6740   45.0980 N   0  0  0  0  0  0
  117.8290    9.4640   46.4620 C   0  0  3  0  0  0
  117.0850   10.3170   45.8000 N   0  0  0  0  0  0
  117.9280   11.0250   44.9910 C   0  0  0  0  0  0
  115.6230   10.3360   46.0290 C   0  0  0  0  0  0
  117.4830    8.4900   47.4270 N   0  0  0  0  0  0
  116.0870    8.3100   47.8690 C   0  0  0  0  0  0
  118.4790    7.7520   47.9560 C   0  0  0  0  0  0
  119.7550    7.9360   47.5650 N   0  0  0  0  0  0
  121.6311    9.8276   45.4673 H   0  0  0  0  0  0
  122.2222    8.4621   46.6573 H   0  0  0  0  0  0
  117.6247   11.8200   44.2939 H   0  0  0  0  0  0
  115.3604    9.5808   46.7844 H   0  0  0  0  0  0
  115.1014   10.1096   45.0874 H   0  0  0  0  0  0
  115.3206   11.3318   46.3854 H   0  0  0  0  0  0
  115.4354    9.0037   47.3174 H   0  0  0  0  0  0
  116.0141    8.5171   48.9469 H   0  0  0  0  0  0
  115.7707    7.2750   47.6723 H   0  0  0  0  0  0
  118.2405    6.9925   48.7152 H   0  0  0  0  0  0
  1  2  1  0  0  0
  1 13  1  0  0  0
  1 14  1  0  0  0
  2  3  2  0  0  0
  2 12  1  0  0  0
  3  4  1  0  0  0
  3  5  1  0  0  0
  4  7  2  0  0  0
  5  6  1  0  0  0
  5  9  1  0  0  0
  6  7  1  0  0  0
  6  8  1  0  0  0
  7 15  1  0  0  0
  8 16  1  0  0  0
  8 17  1  0  0  0
  8 18  1  0  0  0
  9 10  1  0  0  0
  9 11  1  0  0  0
 10 19  1  0  0  0
 10 20  1  0  0  0
 10 21  1  0  0  0
 11 12  2  0  0  0
 11 22  1  0  0  0
M  END
> <s_m_source_file>
../1pu7_ligand.sdf

> <i_m_source_file_index>
1

> <s_epik_input>
W05IMl1DPTFOPVtDSF1OKFtDSDNdKVtDSF0oQzEyKU4oW0NIXT1OMilbQ0gzXQ==

> <s_epik_cmdline>
J2VwaWtfYXBwJywgJy1pbWFlJywgJ2xpZ2FuZF9wcm8ubWFlJywgJy1vbWFlJywgJ2xpZ2FuZF9wcmVwLm1hZScsICctbXMnLCAnMScsICctcGgnLCAnNycsICctcGh0JywgJzAuNScsICctbnQn

> <r_lp_tautomer_probability>
1

> <r_epik_Ionization_Penalty>
  0.0002

> <r_epik_Ionization_Penalty_Charging>
  0.0000

> <r_epik_Ionization_Penalty_Neutral>
  0.0002

> <r_epik_State_Penalty>
 -0.0000

> <r_epik_Charging_Adjusted_Penalty>
0

> <i_epik_Tot_Q>
0

> <i_epik_Tot_abs_Q>
0

> <s_epik_Chemistry_Notes>
This compound has an imine and may undergo hydrolysis.

$$$$
