1pu8_ligand
                    3D
 Schrodinger Suite 2020-3.
 16 18  0  0  1  0            999 V2000
  116.4870    8.4370   47.6550 N   0  0  0  0  0  0
  115.4050    9.1350   47.1680 C   0  0  0  0  0  0
  117.5520    8.9510   47.0190 C   0  0  0  0  0  0
  117.0420    9.9930   46.1250 C   0  0  0  0  0  0
  117.9000   10.7780   45.2700 N   0  0  0  0  0  0
  115.7280   10.0880   46.2320 N   0  0  0  0  0  0
  118.9270    8.7880   46.9610 C   0  0  0  0  0  0
  119.6880    7.9170   47.6610 N   0  0  0  0  0  0
  121.0970    8.0960   47.2860 C   0  0  0  0  0  0
  119.7190    9.5860   46.1160 N   0  0  0  0  0  0
  121.0220    9.2130   46.2540 C   0  0  0  0  0  0
  119.2230   10.5400   45.2990 C   0  0  0  0  0  0
  114.3824    8.9483   47.4958 H   0  0  0  0  0  0
  121.9743    7.5638   47.6536 H   0  0  0  0  0  0
  121.8678    9.6417   45.7165 H   0  0  0  0  0  0
  119.8948   11.1168   44.6634 H   0  0  0  0  0  0
  1  2  2  0  0  0
  1  3  1  0  0  0
  2  6  1  0  0  0
  2 13  1  0  0  0
  3  4  2  0  0  0
  3  7  1  0  0  0
  4  5  1  0  0  0
  4  6  1  0  0  0
  5 12  2  0  0  0
  7  8  2  0  0  0
  7 10  1  0  0  0
  8  9  1  0  0  0
  9 11  2  0  0  0
  9 14  1  0  0  0
 10 11  1  0  0  0
 10 12  1  0  0  0
 11 15  1  0  0  0
 12 16  1  0  0  0
M  END
> <s_m_source_file>
../1pu8_ligand.sdf

> <i_m_source_file_index>
1

> <s_epik_input>
bjFbY0hdW25IXWMoYzEyKW5bY0hdbjNjMm5bY0hdW2NIXTM=

> <s_epik_cmdline>
J2VwaWtfYXBwJywgJy1pbWFlJywgJ2xpZ2FuZF9wcm8ubWFlJywgJy1vbWFlJywgJ2xpZ2FuZF9wcmVwLm1hZScsICctbXMnLCAnMScsICctcGgnLCAnNycsICctcGh0JywgJzAuNScsICctbnQn

> <r_lp_tautomer_probability>
1

> <r_epik_Ionization_Penalty>
  0.2001

> <r_epik_Ionization_Penalty_Charging>
  0.0000

> <r_epik_Ionization_Penalty_Neutral>
  0.2001

> <r_epik_State_Penalty>
 -0.0000

> <r_epik_Charging_Adjusted_Penalty>
8.12033210862511e-08

> <i_epik_Tot_Q>
0

> <i_epik_Tot_abs_Q>
0

$$$$
