1puq_ligand
                    3D
 Schrodinger Suite 2020-3.
 36 38  0  0  1  0            999 V2000
   -6.9730    3.5010   -2.9930 O   0  5  0  0  0  0
   -8.2530    3.0460   -2.1290 P   0  0  0  0  0  0
   -9.3440    2.7010   -3.0670 O   0  0  0  0  0  0
   -8.4920    4.0670   -1.0840 O   0  5  0  0  0  0
   -7.7220    1.6980   -1.4270 O   0  0  0  0  0  0
   -8.4330    1.1020   -0.3390 C   0  0  0  0  0  0
   -9.8870    0.7950   -0.7050 C   0  0  1  0  0  0
  -10.6870   -0.0170    0.1630 O   0  0  0  0  0  0
  -10.7530    2.0450   -0.8730 C   0  0  1  0  0  0
  -11.1870    2.2090   -2.2250 O   0  0  0  0  0  0
  -11.9440    1.8980    0.0800 C   0  0  0  0  0  0
  -11.8150    0.5670    0.8270 C   0  0  2  0  0  0
  -12.0540    0.6020    2.2880 N   0  0  0  0  0  0
  -11.3840    1.4570    3.1220 C   0  0  0  0  0  0
  -11.8890    1.1900    4.3670 N   0  0  0  0  0  0
  -12.8430    0.2070    4.3190 C   0  0  0  0  0  0
  -13.6290   -0.4120    5.2260 C   0  0  0  0  0  0
  -13.5370   -0.0630    6.4540 O   0  0  0  0  0  0
  -14.5380   -1.4080    4.8880 N   0  0  0  0  0  0
  -14.6250   -1.7640    3.5680 C   0  0  0  0  0  0
  -15.4970   -2.7290    3.2450 N   0  0  0  0  0  0
  -13.8570   -1.1840    2.5520 N   0  0  0  0  0  0
  -12.9600   -0.1790    2.9980 C   0  0  0  0  0  0
  -10.4910    2.3220    2.8150 O   0  0  0  0  0  0
   -7.9438    0.1589   -0.0541 H   0  0  0  0  0  0
   -8.4325    1.7894    0.5198 H   0  0  0  0  0  0
   -9.7100    0.1731   -1.5949 H   0  0  0  0  0  0
  -10.1836    2.9700   -0.6997 H   0  0  0  0  0  0
  -10.4466    2.3276   -3.0298 H   0  0  0  0  0  0
  -11.9436    2.7309    0.7985 H   0  0  0  0  0  0
  -12.8799    1.9126   -0.4978 H   0  0  0  0  0  0
  -12.5808   -0.2210    0.7766 H   0  0  0  0  0  0
  -11.5172    1.7438    5.2417 H   0  0  0  0  0  0
  -15.1539   -1.8785    5.6686 H   0  0  0  0  0  0
  -16.1113   -3.1994    4.0269 H   0  0  0  0  0  0
  -15.5984   -3.0507    2.1980 H   0  0  0  0  0  0
  1  2  1  0  0  0
  2  3  2  0  0  0
  2  4  1  0  0  0
  2  5  1  0  0  0
  5  6  1  0  0  0
  6  7  1  0  0  0
  6 25  1  0  0  0
  6 26  1  0  0  0
  7  8  1  0  0  0
  7  9  1  0  0  0
  7 27  1  0  0  0
  8 12  1  0  0  0
  9 10  1  0  0  0
  9 11  1  0  0  0
  9 28  1  0  0  0
 10 29  1  0  0  0
 11 12  1  0  0  0
 11 30  1  0  0  0
 11 31  1  0  0  0
 12 13  1  0  0  0
 12 32  1  0  0  0
 13 14  1  0  0  0
 13 23  1  0  0  0
 14 15  1  0  0  0
 14 24  2  0  0  0
 15 16  1  0  0  0
 15 33  1  0  0  0
 16 17  1  0  0  0
 16 23  2  0  0  0
 17 18  2  0  0  0
 17 19  1  0  0  0
 19 20  1  0  0  0
 19 34  1  0  0  0
 20 21  1  0  0  0
 20 22  2  0  0  0
 21 35  1  0  0  0
 21 36  1  0  0  0
 22 23  1  0  0  0
M  CHG  2   1  -1   4  -1
M  END
> <s_m_source_file>
../1puq_ligand.sdf

> <i_m_source_file_index>
1

> <s_epik_input>
W09IXVAoPU8pKFtPSF0pT1tDSDJdW0NASF0xT1tDQEhdKFtDSDJdW0NAQEhdMVtPSF0pbihjKD1PKVtuSF0yKWMoYzIzKW5jKFtOSDJdKVtuSF1jMz1P

> <s_epik_cmdline>
J2VwaWtfYXBwJywgJy1pbWFlJywgJ2xpZ2FuZF9wcm8ubWFlJywgJy1vbWFlJywgJ2xpZ2FuZF9wcmVwLm1hZScsICctbXMnLCAnMScsICctcGgnLCAnNycsICctcGh0JywgJzAuNScsICctbnQn

> <r_epik_Ionization_Penalty>
  0.1033

> <r_epik_Ionization_Penalty_Charging>
  0.1033

> <r_epik_Ionization_Penalty_Neutral>
  0.0000

> <r_epik_State_Penalty>
  0.0932

> <r_epik_Charging_Adjusted_Penalty>
0.196502162930934

> <i_epik_Tot_Q>
-2

> <i_epik_Tot_abs_Q>
2

> <s_epik_Chemistry_Notes>
This compound contains an acetal/aminal-like group ( X-CH(R)-Y where X, Y are N, S, or O) that may be acid/base labile, releasing an aldehyde.

$$$$
