1pus_ligand
                    3D
 Schrodinger Suite 2020-3.
 36 38  0  0  1  0            999 V2000
   -8.8290    5.2470   -4.3040 O   0  5  0  0  0  0
   -9.7020    3.8970   -4.3770 P   0  0  0  0  0  0
   -8.7850    2.7380   -4.2910 O   0  0  0  0  0  0
  -10.6210    4.0020   -5.5330 O   0  5  0  0  0  0
  -10.5660    3.9770   -3.0210 O   0  0  0  0  0  0
  -11.3510    2.8570   -2.6040 C   0  0  0  0  0  0
  -10.4660    1.6280   -2.3810 C   0  0  1  0  0  0
   -9.4000    1.6730   -1.4260 O   0  0  0  0  0  0
  -11.2510    0.3930   -1.9350 C   0  0  1  0  0  0
  -11.2300   -0.6310   -2.9330 O   0  0  0  0  0  0
  -10.6290   -0.0870   -0.6200 C   0  0  0  0  0  0
   -9.4700    0.8460   -0.2570 C   0  0  2  0  0  0
   -9.4160    1.3000    1.1510 N   0  0  0  0  0  0
  -10.5000    1.8580    1.7760 C   0  0  0  0  0  0
  -10.0720    2.1000    3.0540 N   0  0  0  0  0  0
   -8.7710    1.7080    3.2280 C   0  0  0  0  0  0
   -7.8960    1.7200    4.2580 C   0  0  0  0  0  0
   -8.2840    2.1880    5.3840 O   0  0  0  0  0  0
   -6.5940    1.2440    4.1510 N   0  0  0  0  0  0
   -6.2000    0.7430    2.9390 C   0  0  0  0  0  0
   -4.9450    0.2840    2.8390 N   0  0  0  0  0  0
   -7.0280    0.6850    1.8130 N   0  0  0  0  0  0
   -8.3370    1.1950    2.0220 C   0  0  0  0  0  0
  -11.6590    2.0900    1.2850 O   0  0  0  0  0  0
  -11.8653    3.0999   -1.6625 H   0  0  0  0  0  0
  -12.0959    2.6225   -3.3787 H   0  0  0  0  0  0
   -9.9643    1.5956   -3.3594 H   0  0  0  0  0  0
  -12.3278    0.5958   -1.8377 H   0  0  0  0  0  0
  -11.6436   -0.4331   -3.9329 H   0  0  0  0  0  0
  -11.3894   -0.0656    0.1746 H   0  0  0  0  0  0
  -10.2571   -1.1148   -0.7439 H   0  0  0  0  0  0
   -8.4340    0.4977   -0.1329 H   0  0  0  0  0  0
  -10.7551    2.5560    3.7857 H   0  0  0  0  0  0
   -5.9225    1.2786    5.0215 H   0  0  0  0  0  0
   -4.2754    0.3192    3.7110 H   0  0  0  0  0  0
   -4.5844   -0.1280    1.8849 H   0  0  0  0  0  0
  1  2  1  0  0  0
  2  3  2  0  0  0
  2  4  1  0  0  0
  2  5  1  0  0  0
  5  6  1  0  0  0
  6  7  1  0  0  0
  6 25  1  0  0  0
  6 26  1  0  0  0
  7  8  1  0  0  0
  7  9  1  0  0  0
  7 27  1  0  0  0
  8 12  1  0  0  0
  9 10  1  0  0  0
  9 11  1  0  0  0
  9 28  1  0  0  0
 10 29  1  0  0  0
 11 12  1  0  0  0
 11 30  1  0  0  0
 11 31  1  0  0  0
 12 13  1  0  0  0
 12 32  1  0  0  0
 13 14  1  0  0  0
 13 23  1  0  0  0
 14 15  1  0  0  0
 14 24  2  0  0  0
 15 16  1  0  0  0
 15 33  1  0  0  0
 16 17  1  0  0  0
 16 23  2  0  0  0
 17 18  2  0  0  0
 17 19  1  0  0  0
 19 20  1  0  0  0
 19 34  1  0  0  0
 20 21  1  0  0  0
 20 22  2  0  0  0
 21 35  1  0  0  0
 21 36  1  0  0  0
 22 23  1  0  0  0
M  CHG  2   1  -1   4  -1
M  END
> <s_m_source_file>
../1pus_ligand.sdf

> <i_m_source_file_index>
1

> <s_epik_input>
W09IXVAoPU8pKFtPSF0pT1tDSDJdW0NASF0xT1tDQEhdKFtDSDJdW0NAQEhdMVtPSF0pbihjKD1PKVtuSF0yKWMoYzIzKW5jKFtOSDJdKVtuSF1jMz1P

> <s_epik_cmdline>
J2VwaWtfYXBwJywgJy1pbWFlJywgJ2xpZ2FuZF9wcm8ubWFlJywgJy1vbWFlJywgJ2xpZ2FuZF9wcmVwLm1hZScsICctbXMnLCAnMScsICctcGgnLCAnNycsICctcGh0JywgJzAuNScsICctbnQn

> <r_epik_Ionization_Penalty>
  0.1033

> <r_epik_Ionization_Penalty_Charging>
  0.1033

> <r_epik_Ionization_Penalty_Neutral>
  0.0000

> <r_epik_State_Penalty>
  0.0932

> <r_epik_Charging_Adjusted_Penalty>
0.196502162930934

> <i_epik_Tot_Q>
-2

> <i_epik_Tot_abs_Q>
2

> <s_epik_Chemistry_Notes>
This compound contains an acetal/aminal-like group ( X-CH(R)-Y where X, Y are N, S, or O) that may be acid/base labile, releasing an aldehyde.

$$$$
