1pw6_ligand
                    3D
 Schrodinger Suite 2020-3.
 70 73  0  0  1  0            999 V2000
   94.3120   19.3070    9.3370 N   0  3  0  0  0  0
   94.1410   20.5630    8.9540 C   0  0  0  0  0  0
   94.7950   21.0120    7.8880 N   0  0  0  0  0  0
   93.3170   21.3460    9.6520 N   0  0  0  0  0  0
   92.4610   22.3590    9.0540 C   0  0  2  0  0  0
   92.6020   23.6300    9.8870 C   0  0  0  0  0  0
   94.0150   24.2080    9.7580 C   0  0  0  0  0  0
   94.2020   25.4860   10.5810 C   0  0  0  0  0  0
   93.1310   26.5340   10.2690 C   0  0  0  0  0  0
   91.7220   25.9530   10.3780 C   0  0  0  0  0  0
   91.5740   24.6990    9.5150 C   0  0  0  0  0  0
   91.0340   21.8870    8.9540 C   0  0  0  0  0  0
   90.4700   21.4000    9.9200 O   0  0  0  0  0  0
   90.4370   22.0170    7.7690 N   0  0  0  0  0  0
   89.2010   22.5140    7.6720 C   0  0  0  0  0  0
   88.8210   23.1870    6.5700 C   0  0  0  0  0  0
   89.6680   23.7400    5.8830 O   0  0  0  0  0  0
   87.4500   23.2590    6.1900 N   0  0  0  0  0  0
   86.4610   22.3660    6.8150 C   0  0  0  0  0  0
   85.7200   21.6190    5.7070 C   0  0  0  0  0  0
   86.9920   24.2010    5.1450 C   0  0  0  0  0  0
   86.2460   23.4400    4.0420 C   0  0  0  0  0  0
   85.1420   22.5630    4.6440 C   0  0  0  0  0  0
   84.3660   21.7350    3.6740 C   0  0  0  0  0  0
   83.1890   21.1160    3.8770 N   0  3  0  0  0  0
   82.8400   20.4790    2.7940 N   0  0  0  0  0  0
   84.8440   21.4970    2.3840 C   0  0  0  0  0  0
   83.8090   20.7060    1.9070 C   0  0  0  0  0  0
   83.6820   20.1190    0.6450 C   0  0  0  0  0  0
   84.8190   19.5150   -0.1040 C   0  0  0  0  0  0
   86.5010   19.5270    0.5070 Cl  0  0  0  0  0  0
   82.4080   20.0420    0.0720 C   0  0  0  0  0  0
   82.1900   19.4470   -1.1740 C   0  0  0  0  0  0
   83.2320   18.8840   -1.9120 C   0  0  0  0  0  0
   84.5350   18.8940   -1.4240 C   0  0  0  0  0  0
   85.8690   18.1590   -2.3690 Cl  0  0  0  0  0  0
   94.9878   18.6472    8.7731 H   0  0  0  0  0  0
   95.4678   20.3418    7.3329 H   0  0  0  0  0  0
   94.6636   22.0539    7.5607 H   0  0  0  0  0  0
   93.3080   21.1914   10.7410 H   0  0  0  0  0  0
   92.7953   22.5254    8.0193 H   0  0  0  0  0  0
   92.4113   23.3361   10.9297 H   0  0  0  0  0  0
   94.7477   23.4673   10.1108 H   0  0  0  0  0  0
   94.2171   24.4506    8.7043 H   0  0  0  0  0  0
   94.1425   25.2441   11.6524 H   0  0  0  0  0  0
   95.1857   25.9249   10.3583 H   0  0  0  0  0  0
   93.2168   27.3689   10.9801 H   0  0  0  0  0  0
   93.2723   26.9089    9.2446 H   0  0  0  0  0  0
   91.5157   25.6855   11.4248 H   0  0  0  0  0  0
   90.9898   26.7009   10.0396 H   0  0  0  0  0  0
   91.7087   24.9864    8.4618 H   0  0  0  0  0  0
   90.5598   24.2982    9.6589 H   0  0  0  0  0  0
   90.9781   21.7077    6.8626 H   0  0  0  0  0  0
   88.4699   21.6952    7.7431 H   0  0  0  0  0  0
   89.0290   23.2310    8.4883 H   0  0  0  0  0  0
   86.9768   21.6504    7.4722 H   0  0  0  0  0  0
   85.7513   22.9622    7.4074 H   0  0  0  0  0  0
   86.4124   20.9277    5.2044 H   0  0  0  0  0  0
   84.8857   21.0498    6.1430 H   0  0  0  0  0  0
   86.3157   24.9443    5.5923 H   0  0  0  0  0  0
   87.8612   24.7131    4.7065 H   0  0  0  0  0  0
   85.7901   24.1584    3.3448 H   0  0  0  0  0  0
   86.9534   22.7981    3.4965 H   0  0  0  0  0  0
   84.4153   23.2808    5.0522 H   0  0  0  0  0  0
   85.7591   21.8330    1.8963 H   0  0  0  0  0  0
   81.5591   20.4589    0.6139 H   0  0  0  0  0  0
   81.1788   19.4221   -1.5801 H   0  0  0  0  0  0
   83.0229   18.4315   -2.8813 H   0  0  0  0  0  0
   82.6833   21.2014    4.8501 H   0  0  0  0  0  0
   93.7783   18.9235   10.2191 H   0  0  0  0  0  0
  1  2  2  0  0  0
  1 37  1  0  0  0
  1 70  1  0  0  0
  2  3  1  0  0  0
  2  4  1  0  0  0
  3 38  1  0  0  0
  3 39  1  0  0  0
  4  5  1  0  0  0
  4 40  1  0  0  0
  5  6  1  0  0  0
  5 12  1  0  0  0
  5 41  1  0  0  0
  6  7  1  0  0  0
  6 11  1  0  0  0
  6 42  1  0  0  0
  7  8  1  0  0  0
  7 43  1  0  0  0
  7 44  1  0  0  0
  8  9  1  0  0  0
  8 45  1  0  0  0
  8 46  1  0  0  0
  9 10  1  0  0  0
  9 47  1  0  0  0
  9 48  1  0  0  0
 10 11  1  0  0  0
 10 49  1  0  0  0
 10 50  1  0  0  0
 11 51  1  0  0  0
 11 52  1  0  0  0
 12 13  2  0  0  0
 12 14  1  0  0  0
 14 15  1  0  0  0
 14 53  1  0  0  0
 15 16  1  0  0  0
 15 54  1  0  0  0
 15 55  1  0  0  0
 16 17  2  0  0  0
 16 18  1  0  0  0
 18 19  1  0  0  0
 18 21  1  0  0  0
 19 20  1  0  0  0
 19 56  1  0  0  0
 19 57  1  0  0  0
 20 23  1  0  0  0
 20 58  1  0  0  0
 20 59  1  0  0  0
 21 22  1  0  0  0
 21 60  1  0  0  0
 21 61  1  0  0  0
 22 23  1  0  0  0
 22 62  1  0  0  0
 22 63  1  0  0  0
 23 24  1  0  0  0
 23 64  1  0  0  0
 24 25  2  0  0  0
 24 27  1  0  0  0
 25 26  1  0  0  0
 25 69  1  0  0  0
 26 28  1  0  0  0
 27 28  2  0  0  0
 27 65  1  0  0  0
 28 29  1  0  0  0
 29 30  2  0  0  0
 29 32  1  0  0  0
 30 31  1  0  0  0
 30 35  1  0  0  0
 32 33  2  0  0  0
 32 66  1  0  0  0
 33 34  1  0  0  0
 33 67  1  0  0  0
 34 35  2  0  0  0
 34 68  1  0  0  0
 35 36  1  0  0  0
M  CHG  2   1   1  25   1
M  END
> <s_m_source_file>
../1pw6_ligand.sdf

> <i_m_source_file_index>
1

> <s_epik_input>
W0NIMl0xW0NIMl1bQ0gyXVtDSDJdW0NIMl1bQ0hdMVtDQEBIXShbTkhdQyg9TlxbSF0pL1tOSDJdKUMoPU8pW05IXVtDSDJdQyg9TylOMltDSDJdW0NIMl1bQ0hdKFtDSDJdW0NIMl0yKWMzbltuSF1jKFtjSF0zKS1jNGMoQ2wpYyhDbClbY0hdW2NIXVtjSF00

> <s_epik_cmdline>
J2VwaWtfYXBwJywgJy1pbWFlJywgJ2xpZ2FuZF9wcm8ubWFlJywgJy1vbWFlJywgJ2xpZ2FuZF9wcmVwLm1hZScsICctbXMnLCAnMScsICctcGgnLCAnNycsICctcGh0JywgJzAuNScsICctbnQn

> <r_epik_Ionization_Penalty>
  0.0000

> <r_epik_Ionization_Penalty_Charging>
  0.0000

> <r_epik_Ionization_Penalty_Neutral>
  0.0000

> <r_epik_State_Penalty>
  0.3127

> <r_epik_Charging_Adjusted_Penalty>
0.312743756484765

> <i_epik_Tot_Q>
2

> <i_epik_Tot_abs_Q>
2

> <s_epik_Chemistry_Notes>
This compound has an imine and may undergo hydrolysis.

$$$$
