1pwp_ligand
                    3D
 Schrodinger Suite 2020-3.
 50 53  0  0  1  0            999 V2000
   86.5010   37.8380  135.8300 C   0  0  0  0  0  0
   87.1650   37.0570  134.8560 C   0  0  0  0  0  0
   88.4970   37.3280  134.4960 C   0  0  0  0  0  0
   89.1700   38.3190  135.0860 N   0  0  0  0  0  0
   89.1190   36.5490  133.5040 C   0  0  0  0  0  0
   88.4000   35.5100  132.8860 C   0  0  0  0  0  0
   89.0620   34.6590  131.7990 C   0  0  0  0  0  0
   87.1110   35.2610  133.2490 N   0  3  0  0  0  0
   86.4800   35.9970  134.2060 C   0  0  0  0  0  0
   85.1410   35.7210  134.5360 C   0  0  0  0  0  0
   84.4790   36.5020  135.5050 C   0  0  0  0  0  0
   85.1460   37.5650  136.1560 C   0  0  0  0  0  0
   84.4550   38.2960  137.0620 N   0  0  0  0  0  0
   84.9220   39.3400  137.7740 C   0  0  0  0  0  0
   86.0810   39.7560  137.6570 O   0  0  0  0  0  0
   84.0270   39.9120  138.6070 N   0  0  0  0  0  0
   84.2500   40.9560  139.4400 C   0  0  0  0  0  0
   85.5420   41.5190  139.6380 C   0  0  0  0  0  0
   85.7340   42.5280  140.6110 C   0  0  0  0  0  0
   87.0050   43.0810  140.8490 C   0  0  0  0  0  0
   88.0620   42.6830  140.1420 N   0  0  0  0  0  0
   87.1610   44.0620  141.8430 C   0  0  0  0  0  0
   86.0430   44.4780  142.5860 C   0  0  0  0  0  0
   86.2000   45.5460  143.6720 C   0  0  0  0  0  0
   84.8200   43.9330  142.3410 N   0  3  0  0  0  0
   84.6380   42.9810  141.3850 C   0  0  0  0  0  0
   83.3630   42.4280  141.1790 C   0  0  0  0  0  0
   83.1700   41.4220  140.2150 C   0  0  0  0  0  0
   87.0291   38.6495  136.3306 H   0  0  0  0  0  0
   88.6837   38.9284  135.8619 H   0  0  0  0  0  0
   90.2107   38.5259  134.7961 H   0  0  0  0  0  0
   90.1511   36.7490  133.2161 H   0  0  0  0  0  0
   90.0947   35.0036  131.6417 H   0  0  0  0  0  0
   88.4958   34.7571  130.8610 H   0  0  0  0  0  0
   89.0711   33.6049  132.1133 H   0  0  0  0  0  0
   84.6153   34.9035  134.0427 H   0  0  0  0  0  0
   83.4408   36.2838  135.7552 H   0  0  0  0  0  0
   83.4032   38.0553  137.2758 H   0  0  0  0  0  0
   82.9965   39.5299  138.6535 H   0  0  0  0  0  0
   86.3845   41.1725  139.0394 H   0  0  0  0  0  0
   87.9451   41.9154  139.3628 H   0  0  0  0  0  0
   89.0514   43.1220  140.3375 H   0  0  0  0  0  0
   88.1416   44.4969  142.0363 H   0  0  0  0  0  0
   87.2517   45.8643  143.7239 H   0  0  0  0  0  0
   85.8948   45.1291  144.6431 H   0  0  0  0  0  0
   85.5664   46.4118  143.4292 H   0  0  0  0  0  0
   82.5179   42.7808  141.7700 H   0  0  0  0  0  0
   82.1763   40.9994  140.0664 H   0  0  0  0  0  0
   86.5509   34.4470  132.7656 H   0  0  0  0  0  0
   83.9456   44.2601  142.9227 H   0  0  0  0  0  0
  1  2  2  0  0  0
  1 12  1  0  0  0
  1 29  1  0  0  0
  2  3  1  0  0  0
  2  9  1  0  0  0
  3  4  1  0  0  0
  3  5  2  0  0  0
  4 30  1  0  0  0
  4 31  1  0  0  0
  5  6  1  0  0  0
  5 32  1  0  0  0
  6  7  1  0  0  0
  6  8  2  0  0  0
  7 33  1  0  0  0
  7 34  1  0  0  0
  7 35  1  0  0  0
  8  9  1  0  0  0
  8 49  1  0  0  0
  9 10  2  0  0  0
 10 11  1  0  0  0
 10 36  1  0  0  0
 11 12  2  0  0  0
 11 37  1  0  0  0
 12 13  1  0  0  0
 13 14  1  0  0  0
 13 38  1  0  0  0
 14 15  2  0  0  0
 14 16  1  0  0  0
 16 17  1  0  0  0
 16 39  1  0  0  0
 17 18  2  0  0  0
 17 28  1  0  0  0
 18 19  1  0  0  0
 18 40  1  0  0  0
 19 20  2  0  0  0
 19 26  1  0  0  0
 20 21  1  0  0  0
 20 22  1  0  0  0
 21 41  1  0  0  0
 21 42  1  0  0  0
 22 23  2  0  0  0
 22 43  1  0  0  0
 23 24  1  0  0  0
 23 25  1  0  0  0
 24 44  1  0  0  0
 24 45  1  0  0  0
 24 46  1  0  0  0
 25 26  2  0  0  0
 25 50  1  0  0  0
 26 27  1  0  0  0
 27 28  2  0  0  0
 27 47  1  0  0  0
 28 48  1  0  0  0
M  CHG  2   8   1  25   1
M  END
> <s_m_source_file>
../1pwp_ligand.sdf

> <i_m_source_file_index>
1

> <s_epik_input>
W05IMl1jMVtjSF1jKFtDSDNdKW5jKGMxMilbY0hdW2NIXWMoW2NIXTIpW05IXUMoPU8pW05IXWMoW2NIXTMpW2NIXVtjSF1jKGMzNCluYyhbQ0gzXSlbY0hdYzRbTkgyXQ==

> <s_epik_cmdline>
J2VwaWtfYXBwJywgJy1pbWFlJywgJ2xpZ2FuZF9wcm8ubWFlJywgJy1vbWFlJywgJ2xpZ2FuZF9wcmVwLm1hZScsICctbXMnLCAnMScsICctcGgnLCAnNycsICctcGh0JywgJzAuNScsICctbnQn

> <r_lp_tautomer_probability>
1

> <r_epik_Ionization_Penalty>
  0.0036

> <r_epik_Ionization_Penalty_Charging>
  0.0036

> <r_epik_Ionization_Penalty_Neutral>
  0.0000

> <r_epik_State_Penalty>
 -0.0000

> <r_epik_Charging_Adjusted_Penalty>
0.00357004680761933

> <i_epik_Tot_Q>
2

> <i_epik_Tot_abs_Q>
2

$$$$
