1pwq_ligand
                    3D
 Schrodinger Suite 2020-3.
 62 63  0  0  1  0            999 V2000
   83.7610   36.0930  128.6780 C   0  0  0  0  0  0
   82.2840   35.2840  128.0820 S   0  0  0  0  0  0
   81.7350   34.2010  129.4330 C   0  0  0  0  0  0
   82.4670   33.0750  129.7270 C   0  0  0  0  0  0
   82.0390   32.1700  130.8760 C   0  0  1  0  0  0
   82.7660   30.8350  130.6920 C   0  0  0  0  0  0
   84.0040   30.7710  130.7620 O   0  0  0  0  0  0
   81.9820   29.7920  130.4610 N   0  0  0  0  0  0
   82.6900   32.8260  131.9590 N   0  0  0  0  0  0
   82.3920   33.2210  133.1730 C   0  0  0  0  0  0
   81.3580   33.0930  133.8210 O   0  0  0  0  0  0
   83.6330   33.8680  133.7270 C   0  0  2  0  0  0
   84.7050   32.7810  133.8640 C   0  0  0  0  0  0
   85.4210   33.1050  135.1630 C   0  0  0  0  0  0
   84.3380   33.7200  136.0450 C   0  0  0  0  0  0
   83.4810   34.3890  135.0650 N   0  0  0  0  0  0
   82.7760   35.4920  135.3120 C   0  0  0  0  0  0
   82.2080   36.0600  134.3810 O   0  0  0  0  0  0
   82.6360   36.0290  136.7370 C   0  0  1  0  0  0
   83.0350   37.4480  136.7800 N   0  0  0  0  0  0
   83.4060   38.0410  137.9170 C   0  0  0  0  0  0
   83.4450   37.4730  139.0090 O   0  0  0  0  0  0
   83.7810   39.5160  137.7920 C   0  0  0  0  0  0
   82.9520   40.5070  139.0970 S   0  0  0  0  0  0
   81.1750   35.8690  137.2100 C   0  0  0  0  0  0
   80.8590   34.4110  137.5650 C   0  0  0  0  0  0
   80.8480   34.0140  138.9110 C   0  0  0  0  0  0
   80.6730   32.6610  139.2480 C   0  0  0  0  0  0
   80.5030   31.7030  138.2360 C   0  0  0  0  0  0
   80.3900   30.3830  138.5580 O   0  0  0  0  0  0
   80.5000   32.1040  136.8900 C   0  0  0  0  0  0
   80.6730   33.4580  136.5560 C   0  0  0  0  0  0
   84.1477   36.7689  127.9011 H   0  0  0  0  0  0
   84.5224   35.3361  128.9176 H   0  0  0  0  0  0
   83.5224   36.6721  129.5823 H   0  0  0  0  0  0
   81.7161   34.7699  130.3743 H   0  0  0  0  0  0
   80.7258   33.8228  129.2128 H   0  0  0  0  0  0
   82.4807   32.4079  128.8525 H   0  0  0  0  0  0
   83.4968   33.3638  129.9840 H   0  0  0  0  0  0
   80.9577   32.0347  131.0257 H   0  0  0  0  0  0
   80.8910   29.9241  130.4124 H   0  0  0  0  0  0
   82.4221   28.7941  130.3179 H   0  0  0  0  0  0
   83.7413   33.1351  131.8629 H   0  0  0  0  0  0
   83.8599   34.7253  133.0761 H   0  0  0  0  0  0
   84.2228   31.7929  133.8994 H   0  0  0  0  0  0
   85.3854   32.8262  133.0009 H   0  0  0  0  0  0
   85.8304   32.1806  135.5965 H   0  0  0  0  0  0
   86.2408   33.8108  134.9637 H   0  0  0  0  0  0
   83.8176   32.9229  136.5962 H   0  0  0  0  0  0
   84.7992   34.4185  136.7588 H   0  0  0  0  0  0
   83.3201   35.4933  137.4115 H   0  0  0  0  0  0
   83.0322   38.0483  135.8582 H   0  0  0  0  0  0
   84.8702   39.6276  137.8979 H   0  0  0  0  0  0
   83.4680   39.8917  136.8067 H   0  0  0  0  0  0
   83.1155   41.5935  139.1498 H   0  0  0  0  0  0
   81.0086   36.4898  138.1027 H   0  0  0  0  0  0
   80.4930   36.1890  136.4085 H   0  0  0  0  0  0
   80.9756   34.7576  139.6977 H   0  0  0  0  0  0
   80.6693   32.3556  140.2943 H   0  0  0  0  0  0
   80.3927   30.0721  139.6131 H   0  0  0  0  0  0
   80.3631   31.3630  136.1024 H   0  0  0  0  0  0
   80.6624   33.7667  135.5107 H   0  0  0  0  0  0
  1  2  1  0  0  0
  1 33  1  0  0  0
  1 34  1  0  0  0
  1 35  1  0  0  0
  2  3  1  0  0  0
  3  4  1  0  0  0
  3 36  1  0  0  0
  3 37  1  0  0  0
  4  5  1  0  0  0
  4 38  1  0  0  0
  4 39  1  0  0  0
  5  6  1  0  0  0
  5  9  1  0  0  0
  5 40  1  0  0  0
  6  7  2  0  0  0
  6  8  1  0  0  0
  8 41  1  0  0  0
  8 42  1  0  0  0
  9 10  1  0  0  0
  9 43  1  0  0  0
 10 11  2  0  0  0
 10 12  1  0  0  0
 12 13  1  0  0  0
 12 16  1  0  0  0
 12 44  1  0  0  0
 13 14  1  0  0  0
 13 45  1  0  0  0
 13 46  1  0  0  0
 14 15  1  0  0  0
 14 47  1  0  0  0
 14 48  1  0  0  0
 15 16  1  0  0  0
 15 49  1  0  0  0
 15 50  1  0  0  0
 16 17  1  0  0  0
 17 18  2  0  0  0
 17 19  1  0  0  0
 19 20  1  0  0  0
 19 25  1  0  0  0
 19 51  1  0  0  0
 20 21  1  0  0  0
 20 52  1  0  0  0
 21 22  2  0  0  0
 21 23  1  0  0  0
 23 24  1  0  0  0
 23 53  1  0  0  0
 23 54  1  0  0  0
 24 55  1  0  0  0
 25 26  1  0  0  0
 25 56  1  0  0  0
 25 57  1  0  0  0
 26 27  2  0  0  0
 26 32  1  0  0  0
 27 28  1  0  0  0
 27 58  1  0  0  0
 28 29  2  0  0  0
 28 59  1  0  0  0
 29 30  1  0  0  0
 29 31  1  0  0  0
 30 60  1  0  0  0
 31 32  2  0  0  0
 31 61  1  0  0  0
 32 62  1  0  0  0
M  END
> <s_m_source_file>
../1pwq_ligand.sdf

> <i_m_source_file_index>
1

> <s_epik_input>
W0NIM11TW0NIMl1bQ0gyXVtDQEBIXShDKD1PKVtOSDJdKVtOSF1DKD1PKVtDQEBIXTFbQ0gyXVtDSDJdW0NIMl1OMUMoPU8pW0NAQEhdKFtOSF1DKD1PKVtDSDJdW1NIXSlbQ0gyXWMyW2NIXVtjSF1jKFtPSF0pW2NIXVtjSF0y

> <s_epik_cmdline>
J2VwaWtfYXBwJywgJy1pbWFlJywgJ2xpZ2FuZF9wcm8ubWFlJywgJy1vbWFlJywgJ2xpZ2FuZF9wcmVwLm1hZScsICctbXMnLCAnMScsICctcGgnLCAnNycsICctcGh0JywgJzAuNScsICctbnQn

> <r_lp_tautomer_probability>
0.999999999997365

> <r_epik_Ionization_Penalty>
  0.0316

> <r_epik_Ionization_Penalty_Charging>
  0.0000

> <r_epik_Ionization_Penalty_Neutral>
  0.0316

> <r_epik_State_Penalty>
  0.0252

> <r_epik_Charging_Adjusted_Penalty>
0.0251827981894442

> <i_epik_Tot_Q>
0

> <i_epik_Tot_abs_Q>
0

$$$$
