1pwu_ligand
                    3D
 Schrodinger Suite 2020-3.
 56 57  0  0  1  0            999 V2000
   83.0400   40.3340  139.6050 O   0  0  0  0  0  0
   82.8470   39.7140  138.4090 N   0  0  0  0  0  0
   83.4510   38.5590  138.1410 C   0  0  0  0  0  0
   84.2060   37.9780  138.9180 O   0  0  0  0  0  0
   83.1440   37.9800  136.7580 C   0  0  0  0  0  0
   83.0880   36.4500  136.7520 C   0  0  2  0  0  0
   82.9290   35.9770  135.3050 C   0  0  0  0  0  0
   81.9300   36.2720  134.6480 O   0  0  0  0  0  0
   83.9380   35.2420  134.8450 N   0  0  0  0  0  0
   84.0040   34.7120  133.4740 C   0  0  2  0  0  0
   82.8580   33.7340  133.1990 C   0  0  0  0  0  0
   82.7720   32.6730  133.8090 O   0  0  0  0  0  0
   81.9870   34.1380  132.2750 N   0  0  0  0  0  0
   82.2120   33.6980  130.8910 C   0  0  0  0  0  0
   85.3460   34.0060  133.2670 C   0  0  0  0  0  0
   86.5130   34.9570  133.5530 C   0  0  0  0  0  0
   87.2120   35.0510  134.6840 C   0  0  0  0  0  0
   88.1280   36.0140  134.5890 N   0  3  0  0  0  0
   88.0720   36.5930  133.3890 C   0  0  0  0  0  0
   88.7810   37.6230  132.7800 C   0  0  0  0  0  0
   88.4640   37.9950  131.4760 C   0  0  0  0  0  0
   87.4440   37.3330  130.7970 C   0  0  0  0  0  0
   86.7420   36.3060  131.4170 C   0  0  0  0  0  0
   87.0520   35.9260  132.7260 C   0  0  0  0  0  0
   81.9410   35.9560  137.6390 C   0  0  0  0  0  0
   82.0860   34.4710  137.9870 C   0  0  0  0  0  0
   81.7850   33.5750  136.7830 C   0  0  0  0  0  0
   81.1490   34.1110  139.1410 C   0  0  0  0  0  0
   82.5363   41.2886  139.8173 H   0  0  0  0  0  0
   82.1873   40.1674  137.6546 H   0  0  0  0  0  0
   82.1682   38.3524  136.4130 H   0  0  0  0  0  0
   83.9261   38.2895  136.0491 H   0  0  0  0  0  0
   84.0179   36.0312  137.1641 H   0  0  0  0  0  0
   84.7535   35.0364  135.5540 H   0  0  0  0  0  0
   83.9062   35.5800  132.8054 H   0  0  0  0  0  0
   81.1246   34.7770  132.5157 H   0  0  0  0  0  0
   81.4209   34.1046  130.2438 H   0  0  0  0  0  0
   82.1923   32.5990  130.8479 H   0  0  0  0  0  0
   83.1912   34.0610  130.5455 H   0  0  0  0  0  0
   85.4162   33.1449  133.9479 H   0  0  0  0  0  0
   85.4203   33.6575  132.2263 H   0  0  0  0  0  0
   86.9883   34.3797  135.5262 H   0  0  0  0  0  0
   89.5782   38.1349  133.3190 H   0  0  0  0  0  0
   89.0121   38.8013  130.9886 H   0  0  0  0  0  0
   87.1953   37.6213  129.7757 H   0  0  0  0  0  0
   85.9445   35.7936  130.8789 H   0  0  0  0  0  0
   81.9298   36.5299  138.5773 H   0  0  0  0  0  0
   80.9849   36.0945  137.1130 H   0  0  0  0  0  0
   83.1300   34.2981  138.2874 H   0  0  0  0  0  0
   82.4598   33.8355  135.9543 H   0  0  0  0  0  0
   80.7419   33.7237  136.4670 H   0  0  0  0  0  0
   81.9370   32.5220  137.0625 H   0  0  0  0  0  0
   81.3669   34.7559  140.0051 H   0  0  0  0  0  0
   81.3006   33.0583  139.4217 H   0  0  0  0  0  0
   80.1056   34.2599  138.8262 H   0  0  0  0  0  0
   88.7927   36.2266  135.4393 H   0  0  0  0  0  0
  1  2  1  0  0  0
  1 29  1  0  0  0
  2  3  1  0  0  0
  2 30  1  0  0  0
  3  4  2  0  0  0
  3  5  1  0  0  0
  5  6  1  0  0  0
  5 31  1  0  0  0
  5 32  1  0  0  0
  6  7  1  0  0  0
  6 25  1  0  0  0
  6 33  1  0  0  0
  7  8  2  0  0  0
  7  9  1  0  0  0
  9 10  1  0  0  0
  9 34  1  0  0  0
 10 11  1  0  0  0
 10 15  1  0  0  0
 10 35  1  0  0  0
 11 12  2  0  0  0
 11 13  1  0  0  0
 13 14  1  0  0  0
 13 36  1  0  0  0
 14 37  1  0  0  0
 14 38  1  0  0  0
 14 39  1  0  0  0
 15 16  1  0  0  0
 15 40  1  0  0  0
 15 41  1  0  0  0
 16 17  2  0  0  0
 16 24  1  0  0  0
 17 18  1  0  0  0
 17 42  1  0  0  0
 18 19  1  0  0  0
 18 56  1  0  0  0
 19 20  1  0  0  0
 19 24  2  0  0  0
 20 21  2  0  0  0
 20 43  1  0  0  0
 21 22  1  0  0  0
 21 44  1  0  0  0
 22 23  2  0  0  0
 22 45  1  0  0  0
 23 24  1  0  0  0
 23 46  1  0  0  0
 25 26  1  0  0  0
 25 47  1  0  0  0
 25 48  1  0  0  0
 26 27  1  0  0  0
 26 28  1  0  0  0
 26 49  1  0  0  0
 27 50  1  0  0  0
 27 51  1  0  0  0
 27 52  1  0  0  0
 28 53  1  0  0  0
 28 54  1  0  0  0
 28 55  1  0  0  0
M  CHG  1  18   1
M  END
> <s_m_source_file>
../1pwu_ligand.sdf

> <i_m_source_file_index>
1

> <s_epik_input>
W09IXVtOSF1DKD1PKVtDSDJdW0NAQEhdKFtDSDJdW0NIXShbQ0gzXSlbQ0gzXSlDKD1PKVtOSF1bQ0BIXShDKD1PKVtOSF1bQ0gzXSlbQ0gyXWMoW2NIXVtuSF0xKWMoYzEyKVtjSF1bY0hdW2NIXVtjSF0y

> <s_epik_cmdline>
J2VwaWtfYXBwJywgJy1pbWFlJywgJ2xpZ2FuZF9wcm8ubWFlJywgJy1vbWFlJywgJ2xpZ2FuZF9wcmVwLm1hZScsICctbXMnLCAnMScsICctcGgnLCAnNycsICctcGh0JywgJzAuNScsICctbnQn

> <r_lp_tautomer_probability>
1

> <r_epik_Ionization_Penalty>
  0.0054

> <r_epik_Ionization_Penalty_Charging>
  0.0000

> <r_epik_Ionization_Penalty_Neutral>
  0.0054

> <r_epik_State_Penalty>
 -0.0000

> <r_epik_Charging_Adjusted_Penalty>
0

> <i_epik_Tot_Q>
1

> <i_epik_Tot_abs_Q>
1

> <s_epik_Chemistry_Notes>
This compound has a N-S or N-O group and may undergo hydrolysis at high or low pH.

$$$$
