1pxh_ligand
                    3D
 Schrodinger Suite 2020-3.
 78 79  0  0  1  0            999 V2000
   14.7290   14.8620   14.5110 P   0  0  0  0  0  0
   14.6030   13.8680   13.3440 O   0  5  0  0  0  0
   16.1540   14.9230   15.0570 O   0  0  0  0  0  0
   13.7560   14.4630   15.6400 O   0  5  0  0  0  0
   14.3590   16.4800   13.8470 C   0  0  0  0  0  0
   14.4480   17.4640   14.8380 F   0  0  0  0  0  0
   15.3080   16.7110   12.8630 F   0  0  0  0  0  0
   12.9450   16.6840   13.2170 C   0  0  0  0  0  0
   12.7730   16.4770   11.6300 C   0  0  0  0  0  0
   11.4820   16.6870   11.0430 C   0  0  0  0  0  0
   10.3020   17.1000   11.9380 C   0  0  0  0  0  0
   10.4040   17.2960   13.3880 C   0  0  0  0  0  0
   11.7040   17.1010   14.0970 C   0  0  0  0  0  0
    9.1800   17.2910   11.2320 C   0  0  0  0  0  0
    8.4950   18.6790   11.1340 C   0  0  2  0  0  0
    7.2630   18.7410   10.3730 N   0  0  0  0  0  0
    9.3060   19.8910   10.5740 C   0  0  0  0  0  0
    9.6890   19.6750    9.2540 N   0  0  0  0  0  0
   10.3630   20.0960   11.4240 O   0  0  0  0  0  0
   11.1620   19.6760    8.7400 C   0  0  0  0  0  0
   10.9940   19.1390    7.1910 C   0  0  0  0  0  0
   12.2210   18.1990    6.8070 C   0  0  0  0  0  0
   11.8130   17.2350    5.6170 C   0  0  0  0  0  0
   13.0250   16.2960    5.2160 C   0  0  0  0  0  0
    3.8570   19.2820   10.4170 N   0  0  0  0  0  0
    5.1550   19.4810    9.7890 C   0  0  3  0  0  0
    5.4240   19.6840    8.2880 C   0  0  0  0  0  0
    4.3620   19.6930    7.2320 C   0  0  0  0  0  0
    3.9630   20.7930    6.7620 O   0  0  0  0  0  0
    3.9340   18.5560    6.8650 O   0  5  0  0  0  0
    6.2700   19.5190   10.8030 C   0  0  0  0  0  0
    6.1980   20.2130   11.7720 O   0  0  0  0  0  0
    3.2370   18.1200   10.5230 C   0  0  0  0  0  0
    3.7690   17.0630   10.7370 O   0  0  0  0  0  0
   -4.3070   16.9490    8.9060 P   0  0  0  0  0  0
   -4.4830   18.5710    9.0470 O   0  5  0  0  0  0
   -5.4620   16.4340    8.0020 O   0  0  0  0  0  0
   -4.4710   16.3000   10.4620 O   0  5  0  0  0  0
   -2.7980   16.4550    8.0600 C   0  0  0  0  0  0
   -2.7060   15.0530    7.9660 F   0  0  0  0  0  0
   -2.5480   16.9190    6.7430 F   0  0  0  0  0  0
   -0.9780   18.4390    8.8460 C   0  0  0  0  0  0
   -1.5460   16.9630    8.9640 C   0  0  0  0  0  0
   -0.8360   15.9610   10.0320 C   0  0  0  0  0  0
    0.3340   16.4360   10.8790 C   0  0  0  0  0  0
    1.8890   18.3700   11.4330 C   0  0  0  0  0  0
    0.1930   18.9030    9.6980 C   0  0  0  0  0  0
    0.8400   17.9130   10.7000 C   0  0  0  0  0  0
   13.6221   16.1827   11.0132 H   0  0  0  0  0  0
   11.3381   16.5549    9.9706 H   0  0  0  0  0  0
    9.5201   17.5876   13.9552 H   0  0  0  0  0  0
   11.7913   17.2406   15.1745 H   0  0  0  0  0  0
    9.3614   17.0326   10.1783 H   0  0  0  0  0  0
    8.3805   16.6513   11.6340 H   0  0  0  0  0  0
    8.2639   18.7788   12.2048 H   0  0  0  0  0  0
    7.1553   18.1499    9.4516 H   0  0  0  0  0  0
    8.8617   19.4939    8.5521 H   0  0  0  0  0  0
   11.5699   20.6959    8.7980 H   0  0  0  0  0  0
   11.7684   19.0026    9.3635 H   0  0  0  0  0  0
   10.0578   18.5687    7.1002 H   0  0  0  0  0  0
   10.9674   19.9990    6.5056 H   0  0  0  0  0  0
   13.0741   18.8191    6.4944 H   0  0  0  0  0  0
   12.5074   17.5948    7.6804 H   0  0  0  0  0  0
   10.9648   16.6074    5.9279 H   0  0  0  0  0  0
   11.5236   17.8351    4.7417 H   0  0  0  0  0  0
   12.7203   15.6366    4.3899 H   0  0  0  0  0  0
   13.3186   15.6859    6.0830 H   0  0  0  0  0  0
   13.8774   16.9137    4.8968 H   0  0  0  0  0  0
    3.3178   20.1381   10.8486 H   0  0  0  0  0  0
    4.5999   19.2099    8.8789 H   0  0  0  0  0  0
    5.9008   20.6626    8.1300 H   0  0  0  0  0  0
    6.0906   18.8883    7.9240 H   0  0  0  0  0  0
   -1.4353   19.1335    8.1413 H   0  0  0  0  0  0
   -1.2025   14.9403   10.1411 H   0  0  0  0  0  0
    0.8113   15.7667   11.5947 H   0  0  0  0  0  0
    1.9781   17.8172   12.3798 H   0  0  0  0  0  0
    1.7832   19.4443   11.6442 H   0  0  0  0  0  0
    0.5731   19.9203    9.6051 H   0  0  0  0  0  0
  1  2  1  0  0  0
  1  3  2  0  0  0
  1  4  1  0  0  0
  1  5  1  0  0  0
  5  6  1  0  0  0
  5  7  1  0  0  0
  5  8  1  0  0  0
  8  9  2  0  0  0
  8 13  1  0  0  0
  9 10  1  0  0  0
  9 49  1  0  0  0
 10 11  2  0  0  0
 10 50  1  0  0  0
 11 12  1  0  0  0
 11 14  1  0  0  0
 12 13  2  0  0  0
 12 51  1  0  0  0
 13 52  1  0  0  0
 14 15  1  0  0  0
 14 53  1  0  0  0
 14 54  1  0  0  0
 15 16  1  0  0  0
 15 17  1  0  0  0
 15 55  1  0  0  0
 16 31  1  0  0  0
 16 56  1  0  0  0
 17 18  1  0  0  0
 17 19  2  0  0  0
 18 20  1  0  0  0
 18 57  1  0  0  0
 20 21  1  0  0  0
 20 58  1  0  0  0
 20 59  1  0  0  0
 21 22  1  0  0  0
 21 60  1  0  0  0
 21 61  1  0  0  0
 22 23  1  0  0  0
 22 62  1  0  0  0
 22 63  1  0  0  0
 23 24  1  0  0  0
 23 64  1  0  0  0
 23 65  1  0  0  0
 24 66  1  0  0  0
 24 67  1  0  0  0
 24 68  1  0  0  0
 25 26  1  0  0  0
 25 33  1  0  0  0
 25 69  1  0  0  0
 26 27  1  0  0  0
 26 31  1  0  0  0
 26 70  1  0  0  0
 27 28  1  0  0  0
 27 71  1  0  0  0
 27 72  1  0  0  0
 28 29  2  0  0  0
 28 30  1  0  0  0
 31 32  2  0  0  0
 33 34  2  0  0  0
 33 46  1  0  0  0
 35 36  1  0  0  0
 35 37  2  0  0  0
 35 38  1  0  0  0
 35 39  1  0  0  0
 39 40  1  0  0  0
 39 41  1  0  0  0
 39 43  1  0  0  0
 42 47  2  0  0  0
 42 43  1  0  0  0
 42 73  1  0  0  0
 43 44  2  0  0  0
 44 45  1  0  0  0
 44 74  1  0  0  0
 45 48  2  0  0  0
 45 75  1  0  0  0
 46 48  1  0  0  0
 46 76  1  0  0  0
 46 77  1  0  0  0
 47 48  1  0  0  0
 47 78  1  0  0  0
M  CHG  5   2  -1   4  -1  30  -1  36  -1  38  -1
M  END
> <s_m_source_file>
../1pxh_ligand.sdf

> <i_m_source_file_index>
1

> <s_epik_input>
W09IXVAoPU8pKFtPSF0pQyhGKShGKWMxW2NIXVtjSF1jKFtjSF1bY0hdMSlbQ0gyXVtDQEBIXShDKD1PKVtOSF1bQ0gyXVtDSDJdW0NIMl1bQ0gyXVtDSDNdKVtOSF1DKD1PKVtDSF0oW0NIMl1DKD1PKVtPSF0pW05IXUMoPU8pW0NIMl1jKFtjSF1bY0hdMilbY0hdW2NIXWMyQyhGKShGKVAoPU8pKFtPSF0pW09IXQ==

> <s_epik_cmdline>
J2VwaWtfYXBwJywgJy1pbWFlJywgJ2xpZ2FuZF9wcm8ubWFlJywgJy1vbWFlJywgJ2xpZ2FuZF9wcmVwLm1hZScsICctbXMnLCAnMScsICctcGgnLCAnNycsICctcGh0JywgJzAuNScsICctbnQn

> <r_epik_Ionization_Penalty>
  0.0301

> <r_epik_Ionization_Penalty_Charging>
  0.0301

> <r_epik_Ionization_Penalty_Neutral>
  0.0000

> <r_epik_State_Penalty>
  0.0222

> <r_epik_Charging_Adjusted_Penalty>
0.0523430665740797

> <i_epik_Tot_Q>
-5

> <i_epik_Tot_abs_Q>
5

$$$$
