1pxi_ligand
                    3D
 Schrodinger Suite 2020-3.
 19 20  0  0  1  0            999 V2000
   14.1710   44.2750   29.7290 Cl  0  0  0  0  0  0
   13.9210   43.8330   28.1520 C   0  0  0  0  0  0
   13.5610   44.8640   27.1930 C   0  0  0  0  0  0
   14.0410   42.2850   27.5350 S   0  0  0  0  0  0
   13.6360   42.9200   26.0360 C   0  0  0  0  0  0
   13.5570   41.8900   24.8440 Cl  0  0  0  0  0  0
   13.3880   44.2500   25.9070 C   0  0  0  0  0  0
   13.0440   45.0630   24.7370 C   0  0  0  0  0  0
   13.6210   44.9160   23.5010 N   0  0  0  0  0  0
   12.0360   46.0840   24.8510 C   0  0  0  0  0  0
   11.7180   46.8850   23.7250 C   0  0  0  0  0  0
   12.3890   46.5950   22.5350 N   0  0  0  0  0  0
   13.3000   45.6930   22.5060 C   0  0  0  0  0  0
   13.8560   45.4570   21.3100 N   0  0  0  0  0  0
   13.4423   45.9249   27.4132 H   0  0  0  0  0  0
   11.5197   46.2407   25.7981 H   0  0  0  0  0  0
   10.9845   47.6890   23.7853 H   0  0  0  0  0  0
   14.6443   44.6963   21.2104 H   0  0  0  0  0  0
   13.5241   46.0239   20.4277 H   0  0  0  0  0  0
  1  2  1  0  0  0
  2  3  2  0  0  0
  2  4  1  0  0  0
  3  7  1  0  0  0
  3 15  1  0  0  0
  4  5  1  0  0  0
  5  6  1  0  0  0
  5  7  2  0  0  0
  7  8  1  0  0  0
  8  9  2  0  0  0
  8 10  1  0  0  0
  9 13  1  0  0  0
 10 11  2  0  0  0
 10 16  1  0  0  0
 11 12  1  0  0  0
 11 17  1  0  0  0
 12 13  2  0  0  0
 13 14  1  0  0  0
 14 18  1  0  0  0
 14 19  1  0  0  0
M  END
> <s_m_source_file>
../1pxi_ligand.sdf

> <i_m_source_file_index>
1

> <s_epik_input>
Q2xjMVtjSF1jKGMoczEpQ2wpLWMybmMoW05IMl0pbltjSF1bY0hdMg==

> <s_epik_cmdline>
J2VwaWtfYXBwJywgJy1pbWFlJywgJ2xpZ2FuZF9wcm8ubWFlJywgJy1vbWFlJywgJ2xpZ2FuZF9wcmVwLm1hZScsICctbXMnLCAnMScsICctcGgnLCAnNycsICctcGh0JywgJzAuNScsICctbnQn

> <r_lp_tautomer_probability>
1

> <r_epik_Ionization_Penalty>
  0.0012

> <r_epik_Ionization_Penalty_Charging>
  0.0000

> <r_epik_Ionization_Penalty_Neutral>
  0.0012

> <r_epik_State_Penalty>
 -0.0000

> <r_epik_Charging_Adjusted_Penalty>
0

> <i_epik_Tot_Q>
0

> <i_epik_Tot_abs_Q>
0

$$$$
