1pxj_ligand
                    3D
 Schrodinger Suite 2020-3.
 24 25  0  0  1  0            999 V2000
   14.4000   43.3310   29.0850 C   0  0  0  0  0  0
   13.9480   43.7450   27.6850 C   0  0  0  0  0  0
   13.4540   45.2330   27.1460 S   0  0  0  0  0  0
   13.8950   42.9200   26.7630 N   0  0  0  0  0  0
   13.4850   43.3560   25.5740 C   0  0  0  0  0  0
   13.4950   42.3130   24.6240 C   0  0  0  0  0  0
   13.2010   44.6390   25.5290 C   0  0  0  0  0  0
   12.7490   45.4560   24.4000 C   0  0  0  0  0  0
   13.2620   45.2730   23.1870 N   0  0  0  0  0  0
   11.8000   46.4490   24.6390 C   0  0  0  0  0  0
   11.4150   47.1810   23.5420 C   0  0  0  0  0  0
   11.9380   46.9580   22.3100 N   0  0  0  0  0  0
   12.8270   45.9970   22.2500 C   0  0  0  0  0  0
   13.3040   45.7030   21.0790 N   0  0  0  0  0  0
   14.3763   44.2057   29.7516 H   0  0  0  0  0  0
   15.4248   42.9342   29.0370 H   0  0  0  0  0  0
   13.7242   42.5551   29.4740 H   0  0  0  0  0  0
   13.8040   41.3764   25.1111 H   0  0  0  0  0  0
   14.2024   42.5579   23.8180 H   0  0  0  0  0  0
   12.4864   42.1915   24.2022 H   0  0  0  0  0  0
   11.3900   46.6327   25.6321 H   0  0  0  0  0  0
   10.6671   47.9643   23.6650 H   0  0  0  0  0  0
   14.0528   44.9040   20.9749 H   0  0  0  0  0  0
   12.9594   46.2529   20.1908 H   0  0  0  0  0  0
  1  2  1  0  0  0
  1 15  1  0  0  0
  1 16  1  0  0  0
  1 17  1  0  0  0
  2  3  1  0  0  0
  2  4  2  0  0  0
  3  7  1  0  0  0
  4  5  1  0  0  0
  5  6  1  0  0  0
  5  7  2  0  0  0
  6 18  1  0  0  0
  6 19  1  0  0  0
  6 20  1  0  0  0
  7  8  1  0  0  0
  8  9  2  0  0  0
  8 10  1  0  0  0
  9 13  1  0  0  0
 10 11  2  0  0  0
 10 21  1  0  0  0
 11 12  1  0  0  0
 11 22  1  0  0  0
 12 13  2  0  0  0
 13 14  1  0  0  0
 14 23  1  0  0  0
 14 24  1  0  0  0
M  END
> <s_m_source_file>
../1pxj_ligand.sdf

> <i_m_source_file_index>
1

> <s_epik_input>
W0NIM11jMXNjKGMobjEpW0NIM10pLWMybmMoW05IMl0pbltjSF1bY0hdMg==

> <s_epik_cmdline>
J2VwaWtfYXBwJywgJy1pbWFlJywgJ2xpZ2FuZF9wcm8ubWFlJywgJy1vbWFlJywgJ2xpZ2FuZF9wcmVwLm1hZScsICctbXMnLCAnMScsICctcGgnLCAnNycsICctcGh0JywgJzAuNScsICctbnQn

> <r_lp_tautomer_probability>
1

> <r_epik_Ionization_Penalty>
  0.0001

> <r_epik_Ionization_Penalty_Charging>
  0.0000

> <r_epik_Ionization_Penalty_Neutral>
  0.0001

> <r_epik_State_Penalty>
 -0.0000

> <r_epik_Charging_Adjusted_Penalty>
0

> <i_epik_Tot_Q>
0

> <i_epik_Tot_abs_Q>
0

$$$$
