1pxk_ligand
                    3D
 Schrodinger Suite 2020-3.
 28 29  0  0  1  0            999 V2000
   14.3120   42.2420   26.9790 C   0  0  0  0  0  0
   14.1550   42.9920   25.6730 C   0  0  0  0  0  0
   12.9300   44.1670   25.5040 S   0  0  0  0  0  0
   14.9270   42.8010   24.6050 N   0  0  0  0  0  0
   14.5260   43.6310   23.5830 C   0  0  0  0  0  0
   15.3100   43.5460   22.2780 C   0  0  0  0  0  0
   13.4530   44.4740   23.8750 C   0  0  0  0  0  0
   12.7070   45.4480   23.1360 C   0  0  0  0  0  0
   11.8370   46.2260   23.7930 N   0  0  0  0  0  0
   12.8570   45.6250   21.7350 C   0  0  0  0  0  0
   12.0590   46.6050   21.1130 C   0  0  0  0  0  0
   11.2110   47.3410   21.8190 N   0  0  0  0  0  0
   11.1510   47.1320   23.1280 C   0  0  0  0  0  0
   10.2460   47.8900   23.9440 N   0  0  0  0  0  0
    9.2070   47.4280   24.7980 C   0  0  0  0  0  0
    8.4810   48.2310   25.4580 N   0  0  0  0  0  0
    8.5260   49.5430   25.4850 O   0  0  0  0  0  0
   13.5511   42.5878   27.6942 H   0  0  0  0  0  0
   15.3145   42.4293   27.3911 H   0  0  0  0  0  0
   14.1844   41.1641   26.8004 H   0  0  0  0  0  0
   16.0946   42.7806   22.3708 H   0  0  0  0  0  0
   15.7723   44.5209   22.0638 H   0  0  0  0  0  0
   14.6287   43.2752   21.4580 H   0  0  0  0  0  0
   13.5636   45.0246   21.1621 H   0  0  0  0  0  0
   12.1394   46.7606   20.0372 H   0  0  0  0  0  0
   10.3078   48.9881   23.9597 H   0  0  0  0  0  0
    9.0407   46.3436   24.8779 H   0  0  0  0  0  0
    7.8208   50.1047   26.1152 H   0  0  0  0  0  0
  1  2  1  0  0  0
  1 18  1  0  0  0
  1 19  1  0  0  0
  1 20  1  0  0  0
  2  3  1  0  0  0
  2  4  2  0  0  0
  3  7  1  0  0  0
  4  5  1  0  0  0
  5  6  1  0  0  0
  5  7  2  0  0  0
  6 21  1  0  0  0
  6 22  1  0  0  0
  6 23  1  0  0  0
  7  8  1  0  0  0
  8  9  2  0  0  0
  8 10  1  0  0  0
  9 13  1  0  0  0
 10 11  2  0  0  0
 10 24  1  0  0  0
 11 12  1  0  0  0
 11 25  1  0  0  0
 12 13  2  0  0  0
 13 14  1  0  0  0
 14 15  1  0  0  0
 14 26  1  0  0  0
 15 16  2  0  0  0
 15 27  1  0  0  0
 16 17  1  0  0  0
 17 28  1  0  0  0
M  END
> <s_m_source_file>
../1pxk_ligand.sdf

> <i_m_source_file_index>
1

> <s_epik_input>
W0NIM11jMXNjKGMobjEpW0NIM10pLWMybmMobltjSF1bY0hdMilbTkhdL1tDSF09TlxbT0hd

> <s_epik_cmdline>
J2VwaWtfYXBwJywgJy1pbWFlJywgJ2xpZ2FuZF9wcm8ubWFlJywgJy1vbWFlJywgJ2xpZ2FuZF9wcmVwLm1hZScsICctbXMnLCAnMScsICctcGgnLCAnNycsICctcGh0JywgJzAuNScsICctbnQn

> <r_lp_tautomer_probability>
1

> <r_epik_Ionization_Penalty>
  0.0001

> <r_epik_Ionization_Penalty_Charging>
  0.0000

> <r_epik_Ionization_Penalty_Neutral>
  0.0001

> <r_epik_State_Penalty>
 -0.0000

> <r_epik_Charging_Adjusted_Penalty>
0

> <i_epik_Tot_Q>
0

> <i_epik_Tot_abs_Q>
0

> <s_epik_Chemistry_Notes>
This compound has an imine and may undergo hydrolysis.

$$$$
