1pxl_ligand
                    3D
 Schrodinger Suite 2020-3.
 37 39  0  0  1  0            999 V2000
    8.5860   45.8700   30.4820 F   0  0  0  0  0  0
    7.4920   45.9380   29.5940 C   0  0  0  0  0  0
    6.6520   47.0090   29.9800 F   0  0  0  0  0  0
    6.7780   44.7360   29.6220 F   0  0  0  0  0  0
    8.0710   46.1830   28.1180 C   0  0  0  0  0  0
    7.4150   47.1130   27.2140 C   0  0  0  0  0  0
    7.9630   47.3440   25.9040 C   0  0  0  0  0  0
    9.2760   45.4860   27.6780 C   0  0  0  0  0  0
    9.8190   45.7110   26.3930 C   0  0  0  0  0  0
    9.2100   46.6290   25.4760 C   0  0  0  0  0  0
    9.8050   46.8810   24.1400 N   0  0  0  0  0  0
   10.9180   46.5200   23.2800 C   0  0  0  0  0  0
   10.9680   47.0990   22.0930 N   0  0  0  0  0  0
   12.0090   46.7930   21.2420 C   0  0  0  0  0  0
   13.0550   45.8810   21.5460 C   0  0  0  0  0  0
   11.8620   45.6440   23.6600 N   0  0  0  0  0  0
   12.9530   45.2710   22.8570 C   0  0  0  0  0  0
   13.8620   44.3090   23.4280 C   0  0  0  0  0  0
   13.4400   43.7410   25.0860 S   0  0  0  0  0  0
   15.0560   43.6450   23.0360 C   0  0  0  0  0  0
   15.8070   43.7990   21.6860 C   0  0  0  0  0  0
   15.5950   42.7590   23.9940 N   0  0  0  0  0  0
   14.8030   42.7540   25.0980 C   0  0  0  0  0  0
   14.9890   41.9640   26.3620 C   0  0  0  0  0  0
    6.5104   47.6340   27.5277 H   0  0  0  0  0  0
    7.4719   48.0387   25.2225 H   0  0  0  0  0  0
    9.7643   44.7812   28.3510 H   0  0  0  0  0  0
   10.7196   45.1754   26.0929 H   0  0  0  0  0  0
    9.3195   47.5819   23.4450 H   0  0  0  0  0  0
   12.0308   47.2846   20.2694 H   0  0  0  0  0  0
   13.8657   45.6588   20.8521 H   0  0  0  0  0  0
   15.2710   44.5172   21.0481 H   0  0  0  0  0  0
   15.8549   42.8236   21.1798 H   0  0  0  0  0  0
   16.8271   44.1653   21.8736 H   0  0  0  0  0  0
   14.1691   42.1901   27.0596 H   0  0  0  0  0  0
   15.9495   42.2340   26.8251 H   0  0  0  0  0  0
   14.9845   40.8895   26.1268 H   0  0  0  0  0  0
  1  2  1  0  0  0
  2  3  1  0  0  0
  2  4  1  0  0  0
  2  5  1  0  0  0
  5  6  2  0  0  0
  5  8  1  0  0  0
  6  7  1  0  0  0
  6 25  1  0  0  0
  7 10  2  0  0  0
  7 26  1  0  0  0
  8  9  2  0  0  0
  8 27  1  0  0  0
  9 10  1  0  0  0
  9 28  1  0  0  0
 10 11  1  0  0  0
 11 12  1  0  0  0
 11 29  1  0  0  0
 12 13  2  0  0  0
 12 16  1  0  0  0
 13 14  1  0  0  0
 14 15  2  0  0  0
 14 30  1  0  0  0
 15 17  1  0  0  0
 15 31  1  0  0  0
 16 17  2  0  0  0
 17 18  1  0  0  0
 18 19  1  0  0  0
 18 20  2  0  0  0
 19 23  1  0  0  0
 20 21  1  0  0  0
 20 22  1  0  0  0
 21 32  1  0  0  0
 21 33  1  0  0  0
 21 34  1  0  0  0
 22 23  2  0  0  0
 23 24  1  0  0  0
 24 35  1  0  0  0
 24 36  1  0  0  0
 24 37  1  0  0  0
M  END
> <s_m_source_file>
../1pxl_ligand.sdf

> <i_m_source_file_index>
1

> <s_epik_input>
RkMoRikoRiljMVtjSF1bY0hdYyhbY0hdW2NIXTEpW05IXWMybltjSF1bY0hdYyhuMiktYzNzYyhbQ0gzXSluYzNbQ0gzXQ==

> <s_epik_cmdline>
J2VwaWtfYXBwJywgJy1pbWFlJywgJ2xpZ2FuZF9wcm8ubWFlJywgJy1vbWFlJywgJ2xpZ2FuZF9wcmVwLm1hZScsICctbXMnLCAnMScsICctcGgnLCAnNycsICctcGh0JywgJzAuNScsICctbnQn

> <r_lp_tautomer_probability>
1

> <r_epik_Ionization_Penalty>
  0.0000

> <r_epik_Ionization_Penalty_Charging>
  0.0000

> <r_epik_Ionization_Penalty_Neutral>
  0.0000

> <r_epik_State_Penalty>
 -0.0000

> <r_epik_Charging_Adjusted_Penalty>
0

> <i_epik_Tot_Q>
0

> <i_epik_Tot_abs_Q>
0

$$$$
