1pxm_ligand
                    3D
 Schrodinger Suite 2020-3.
 35 37  0  0  1  0            999 V2000
   17.3240   44.2610    8.6060 O   0  0  0  0  0  0
   17.6000   45.2300    9.5260 C   0  0  0  0  0  0
   16.8520   45.3760   10.7270 C   0  0  0  0  0  0
   17.1670   46.4200   11.6750 C   0  0  0  0  0  0
   18.2390   47.2920   11.3720 C   0  0  0  0  0  0
   18.9920   47.1490   10.1780 C   0  0  0  0  0  0
   18.6650   46.1180    9.2610 C   0  0  0  0  0  0
   16.4860   46.6860   12.9470 N   0  0  0  0  0  0
   15.3970   46.0000   13.5540 C   0  0  0  0  0  0
   15.2400   46.2990   14.8440 N   0  0  0  0  0  0
   14.2560   45.7080   15.5500 C   0  0  0  0  0  0
   14.6440   45.1440   12.9070 N   0  0  0  0  0  0
   13.6330   44.5040   13.5490 C   0  0  0  0  0  0
   13.3940   44.7700   14.9350 C   0  0  0  0  0  0
   12.8660   43.5650   12.7860 C   0  0  0  0  0  0
   11.6170   42.9260   12.8830 C   0  0  0  0  0  0
   10.5430   43.0470   13.9610 C   0  0  0  0  0  0
   13.6190   43.0010   11.3280 S   0  0  0  0  0  0
   12.3360   42.0210   10.9520 C   0  0  0  0  0  0
   11.3470   42.0570   11.8280 N   0  0  0  0  0  0
   12.3820   41.1970    9.7010 C   0  0  0  0  0  0
   16.5006   43.5534    8.7827 H   0  0  0  0  0  0
   16.0300   44.6910   10.9350 H   0  0  0  0  0  0
   18.4916   48.0901   12.0701 H   0  0  0  0  0  0
   19.8178   47.8283    9.9666 H   0  0  0  0  0  0
   19.2417   46.0100    8.3424 H   0  0  0  0  0  0
   16.8111   47.5248   13.5800 H   0  0  0  0  0  0
   14.1232   45.9547   16.6034 H   0  0  0  0  0  0
   12.5927   44.2774   15.4857 H   0  0  0  0  0  0
   10.8753   43.7584   14.7314 H   0  0  0  0  0  0
   10.3721   42.0623   14.4204 H   0  0  0  0  0  0
    9.6077   43.4076   13.5079 H   0  0  0  0  0  0
   13.3321   41.3784    9.1772 H   0  0  0  0  0  0
   11.5433   41.4769    9.0466 H   0  0  0  0  0  0
   12.3043   40.1310    9.9610 H   0  0  0  0  0  0
  1  2  1  0  0  0
  1 22  1  0  0  0
  2  3  2  0  0  0
  2  7  1  0  0  0
  3  4  1  0  0  0
  3 23  1  0  0  0
  4  5  2  0  0  0
  4  8  1  0  0  0
  5  6  1  0  0  0
  5 24  1  0  0  0
  6  7  2  0  0  0
  6 25  1  0  0  0
  7 26  1  0  0  0
  8  9  1  0  0  0
  8 27  1  0  0  0
  9 10  2  0  0  0
  9 12  1  0  0  0
 10 11  1  0  0  0
 11 14  2  0  0  0
 11 28  1  0  0  0
 12 13  2  0  0  0
 13 14  1  0  0  0
 13 15  1  0  0  0
 14 29  1  0  0  0
 15 16  2  0  0  0
 15 18  1  0  0  0
 16 17  1  0  0  0
 16 20  1  0  0  0
 17 30  1  0  0  0
 17 31  1  0  0  0
 17 32  1  0  0  0
 18 19  1  0  0  0
 19 20  2  0  0  0
 19 21  1  0  0  0
 21 33  1  0  0  0
 21 34  1  0  0  0
 21 35  1  0  0  0
M  END
> <s_m_source_file>
../1pxm_ligand.sdf

> <i_m_source_file_index>
1

> <s_epik_input>
W09IXWMxW2NIXWMoW2NIXVtjSF1bY0hdMSlbTkhdYzJuW2NIXVtjSF1jKG4yKS1jM2MoW0NIM10pbmMoczMpW0NIM10=

> <s_epik_cmdline>
J2VwaWtfYXBwJywgJy1pbWFlJywgJ2xpZ2FuZF9wcm8ubWFlJywgJy1vbWFlJywgJ2xpZ2FuZF9wcmVwLm1hZScsICctbXMnLCAnMScsICctcGgnLCAnNycsICctcGh0JywgJzAuNScsICctbnQn

> <r_lp_tautomer_probability>
1

> <r_epik_Ionization_Penalty>
  0.0009

> <r_epik_Ionization_Penalty_Charging>
  0.0000

> <r_epik_Ionization_Penalty_Neutral>
  0.0009

> <r_epik_State_Penalty>
 -0.0000

> <r_epik_Charging_Adjusted_Penalty>
0

> <i_epik_Tot_Q>
0

> <i_epik_Tot_abs_Q>
0

$$$$
