1pxo_ligand
                    3D
 Schrodinger Suite 2020-3.
 35 37  0  0  1  0            999 V2000
   14.7020   -5.2550   10.1310 N   0  0  0  0  0  0
   14.7660   -5.9900   11.4310 C   0  0  0  0  0  0
   15.4960   -5.8690   12.5650 N   0  0  0  0  0  0
   15.1960   -6.8040   13.5350 C   0  0  0  0  0  0
   15.8970   -6.8110   14.8620 C   0  0  0  0  0  0
   13.6990   -7.2760   11.4070 S   0  0  0  0  0  0
   14.1890   -7.7700   12.9130 C   0  0  0  0  0  0
   13.2790   -8.8080   13.4660 C   0  0  0  0  0  0
   12.3730   -9.3710   12.6010 N   0  0  0  0  0  0
   13.3580   -9.2110   14.7900 C   0  0  0  0  0  0
   12.4300  -10.1380   15.1760 C   0  0  0  0  0  0
   11.5250  -10.6350   14.2790 N   0  0  0  0  0  0
   11.5050  -10.2940   13.0070 C   0  0  0  0  0  0
   10.5780  -10.8880   12.2810 N   0  0  0  0  0  0
   10.0520  -10.2350   11.0800 C   0  0  0  0  0  0
    8.8050  -10.6350   10.5230 C   0  0  0  0  0  0
   10.7100   -9.1400   10.4320 C   0  0  0  0  0  0
   10.1840   -8.4610    9.2830 C   0  0  0  0  0  0
   10.7800   -7.3830    8.6140 N   0  3  0  0  0  0
   10.4450   -6.2070    8.8780 O   0  5  0  0  0  0
   11.6570   -7.5990    7.7480 O   0  0  0  0  0  0
    8.9600   -8.8910    8.7530 C   0  0  0  0  0  0
    8.2690   -9.9550    9.3830 C   0  0  0  0  0  0
   13.9926   -5.5740    9.3532 H   0  0  0  0  0  0
   15.3643   -4.3952    9.9521 H   0  0  0  0  0  0
   16.5522   -5.9305   14.9352 H   0  0  0  0  0  0
   16.5008   -7.7260   14.9529 H   0  0  0  0  0  0
   15.1517   -6.7817   15.6705 H   0  0  0  0  0  0
   14.1078   -8.8163   15.4757 H   0  0  0  0  0  0
   12.4113  -10.4845   16.2093 H   0  0  0  0  0  0
   10.1975  -11.8768   12.5768 H   0  0  0  0  0  0
    8.2546  -11.4643   10.9672 H   0  0  0  0  0  0
   11.6652   -8.8034   10.8351 H   0  0  0  0  0  0
    8.5445   -8.4122    7.8663 H   0  0  0  0  0  0
    7.3013  -10.2649    8.9884 H   0  0  0  0  0  0
  1  2  1  0  0  0
  1 24  1  0  0  0
  1 25  1  0  0  0
  2  6  1  0  0  0
  2  3  2  0  0  0
  3  4  1  0  0  0
  4  7  2  0  0  0
  4  5  1  0  0  0
  5 26  1  0  0  0
  5 27  1  0  0  0
  5 28  1  0  0  0
  6  7  1  0  0  0
  7  8  1  0  0  0
  8 10  2  0  0  0
  8  9  1  0  0  0
  9 13  2  0  0  0
 10 11  1  0  0  0
 10 29  1  0  0  0
 11 12  2  0  0  0
 11 30  1  0  0  0
 12 13  1  0  0  0
 13 14  1  0  0  0
 14 15  1  0  0  0
 14 31  1  0  0  0
 15 17  2  0  0  0
 15 16  1  0  0  0
 16 23  2  0  0  0
 16 32  1  0  0  0
 17 18  1  0  0  0
 17 33  1  0  0  0
 18 22  2  0  0  0
 18 19  1  0  0  0
 19 21  2  0  0  0
 19 20  1  0  0  0
 22 23  1  0  0  0
 22 34  1  0  0  0
 23 35  1  0  0  0
M  CHG  2  19   1  20  -1
M  END
> <s_m_source_file>
../1pxo_ligand.sdf

> <i_m_source_file_index>
1

> <s_epik_input>
W05IMl1jMW5jKFtDSDNdKWMoczEpLWMybmMobltjSF1bY0hdMilbTkhdYzNbY0hdW2NIXVtjSF1jKFtjSF0zKVtOK10oW08tXSk9Tw==

> <s_epik_cmdline>
J2VwaWtfYXBwJywgJy1pbWFlJywgJ2xpZ2FuZF9wcm8ubWFlJywgJy1vbWFlJywgJ2xpZ2FuZF9wcmVwLm1hZScsICctbXMnLCAnMScsICctcGgnLCAnNycsICctcGh0JywgJzAuNScsICctbnQn

> <r_lp_tautomer_probability>
1

> <r_epik_Ionization_Penalty>
  0.0014

> <r_epik_Ionization_Penalty_Charging>
  0.0000

> <r_epik_Ionization_Penalty_Neutral>
  0.0014

> <r_epik_State_Penalty>
 -0.0000

> <r_epik_Charging_Adjusted_Penalty>
0

> <i_epik_Tot_Q>
0

> <i_epik_Tot_abs_Q>
2

$$$$
