1pxp_ligand
                    3D
 Schrodinger Suite 2020-3.
 42 44  0  0  1  0            999 V2000
   25.8400   38.9330    7.6930 C   0  0  0  0  0  0
   24.8070   39.6250    7.1580 N   0  0  0  0  0  0
   24.6340   40.8890    7.5400 C   0  0  0  0  0  0
   25.4070   41.5310    8.4140 N   0  0  0  0  0  0
   26.4580   40.9120    8.9870 C   0  0  0  0  0  0
   26.7260   39.5300    8.6380 C   0  0  0  0  0  0
   27.2300   41.7030    9.9210 C   0  0  0  0  0  0
   28.4880   41.5580   10.5510 C   0  0  0  0  0  0
   28.8380   42.5880   11.3930 N   0  0  0  0  0  0
   27.8800   43.5160   11.4230 C   0  0  0  0  0  0
   26.5200   43.2120   10.4510 S   0  0  0  0  0  0
   29.4860   40.4140   10.4090 C   0  0  0  0  0  0
   27.9500   44.7810   12.2540 C   0  0  0  0  0  0
   23.5220   41.5710    6.9430 N   0  0  0  0  0  0
   22.9310   42.8980    7.0440 C   0  0  0  0  0  0
   23.4270   43.9110    7.9250 C   0  0  0  0  0  0
   22.8120   45.1810    7.9760 C   0  0  0  0  0  0
   21.6760   45.4890    7.1470 C   0  0  0  0  0  0
   21.1900   44.4540    6.2710 C   0  0  0  0  0  0
   21.8070   43.1830    6.2250 C   0  0  0  0  0  0
   21.0260   46.8450    7.1980 N   0  0  0  0  0  0
   19.8470   47.2080    6.3560 C   0  0  0  0  0  0
   21.5130   47.9360    8.0960 C   0  0  0  0  0  0
   25.9983   37.8965    7.3950 H   0  0  0  0  0  0
   27.5587   38.9780    9.0739 H   0  0  0  0  0  0
   29.0859   39.6628    9.7121 H   0  0  0  0  0  0
   29.6538   39.9497   11.3920 H   0  0  0  0  0  0
   30.4382   40.8043   10.0205 H   0  0  0  0  0  0
   28.8979   44.8013   12.8117 H   0  0  0  0  0  0
   27.1078   44.8021   12.9613 H   0  0  0  0  0  0
   27.8951   45.6579   11.5922 H   0  0  0  0  0  0
   22.8881   41.0519    6.2090 H   0  0  0  0  0  0
   24.2863   43.7004    8.5616 H   0  0  0  0  0  0
   23.2034   45.9399    8.6535 H   0  0  0  0  0  0
   20.3303   44.6546    5.6316 H   0  0  0  0  0  0
   21.4169   42.4161    5.5558 H   0  0  0  0  0  0
   19.5628   46.3474    5.7326 H   0  0  0  0  0  0
   20.1064   48.0593    5.7095 H   0  0  0  0  0  0
   19.0036   47.4846    7.0058 H   0  0  0  0  0  0
   22.3782   47.5773    8.6729 H   0  0  0  0  0  0
   20.7083   48.2295    8.7861 H   0  0  0  0  0  0
   21.8110   48.8042    7.4898 H   0  0  0  0  0  0
  1  2  2  0  0  0
  1  6  1  0  0  0
  1 24  1  0  0  0
  2  3  1  0  0  0
  3  4  2  0  0  0
  3 14  1  0  0  0
  4  5  1  0  0  0
  5  6  2  0  0  0
  5  7  1  0  0  0
  6 25  1  0  0  0
  7  8  2  0  0  0
  7 11  1  0  0  0
  8  9  1  0  0  0
  8 12  1  0  0  0
  9 10  2  0  0  0
 10 11  1  0  0  0
 10 13  1  0  0  0
 12 26  1  0  0  0
 12 27  1  0  0  0
 12 28  1  0  0  0
 13 29  1  0  0  0
 13 30  1  0  0  0
 13 31  1  0  0  0
 14 15  1  0  0  0
 14 32  1  0  0  0
 15 16  2  0  0  0
 15 20  1  0  0  0
 16 17  1  0  0  0
 16 33  1  0  0  0
 17 18  2  0  0  0
 17 34  1  0  0  0
 18 19  1  0  0  0
 18 21  1  0  0  0
 19 20  2  0  0  0
 19 35  1  0  0  0
 20 36  1  0  0  0
 21 22  1  0  0  0
 21 23  1  0  0  0
 22 37  1  0  0  0
 22 38  1  0  0  0
 22 39  1  0  0  0
 23 40  1  0  0  0
 23 41  1  0  0  0
 23 42  1  0  0  0
M  END
> <s_m_source_file>
../1pxp_ligand.sdf

> <i_m_source_file_index>
1

> <s_epik_input>
czFjKFtDSDNdKW5jKFtDSDNdKWMxLWMobjIpW2NIXVtjSF1uYzJbTkhdYzNbY0hdW2NIXWMoW2NIXVtjSF0zKU4oW0NIM10pW0NIM10=

> <s_epik_cmdline>
J2VwaWtfYXBwJywgJy1pbWFlJywgJ2xpZ2FuZF9wcm8ubWFlJywgJy1vbWFlJywgJ2xpZ2FuZF9wcmVwLm1hZScsICctbXMnLCAnMScsICctcGgnLCAnNycsICctcGh0JywgJzAuNScsICctbnQn

> <r_lp_tautomer_probability>
0.999999987636

> <r_epik_Ionization_Penalty>
  0.1125

> <r_epik_Ionization_Penalty_Charging>
  0.0000

> <r_epik_Ionization_Penalty_Neutral>
  0.1125

> <r_epik_State_Penalty>
  0.1021

> <r_epik_Charging_Adjusted_Penalty>
0.102117378330242

> <i_epik_Tot_Q>
0

> <i_epik_Tot_abs_Q>
0

$$$$
