1py1_ligand
                    3D
 Schrodinger Suite 2020-3.
120119  0  0  1  0            999 V2000
   29.7750   33.0520   66.8410 N   0  3  0  0  0  0
   28.8110   33.8690   67.6270 C   0  0  2  0  0  0
   27.3790   33.5030   67.1580 C   0  0  0  0  0  0
   27.2010   32.5510   66.3980 O   0  0  0  0  0  0
   29.0890   35.3670   67.4050 C   0  0  0  0  0  0
   28.7550   36.2280   68.6370 C   0  0  0  0  0  0
   27.5840   36.2250   69.0850 O   0  5  0  0  0  0
   29.6660   36.9140   69.1560 O   0  0  0  0  0  0
   26.3840   34.2610   67.6180 N   0  0  0  0  0  0
   24.9700   34.0030   67.2650 C   0  0  2  0  0  0
   24.2030   35.2960   66.9450 C   0  0  0  0  0  0
   24.5260   36.3440   67.4420 O   0  0  0  0  0  0
   24.2760   33.2490   68.4210 C   0  0  0  0  0  0
   22.8160   32.9070   68.1260 C   0  0  0  0  0  0
   22.4910   32.6110   66.9500 O   0  5  0  0  0  0
   21.9980   32.9070   69.0750 O   0  0  0  0  0  0
   23.1910   35.1960   66.0980 N   0  0  0  0  0  0
   22.4110   36.3660   65.7440 C   0  0  2  0  0  0
   21.2120   36.5270   66.6680 C   0  0  0  0  0  0
   20.9180   35.6520   67.4560 O   0  0  0  0  0  0
   21.9160   36.2660   64.3140 C   0  0  2  0  0  0
   20.8550   35.1760   64.2130 C   0  0  0  0  0  0
   23.0810   35.9310   63.4070 C   0  0  0  0  0  0
   20.3340   34.9690   62.8280 C   0  0  0  0  0  0
   20.5300   37.6590   66.5460 N   0  0  0  0  0  0
   19.3610   37.9660   67.3880 C   0  0  1  0  0  0
   19.0810   39.4810   67.3020 C   0  0  0  0  0  0
   18.9320   40.0510   66.2810 O   0  0  0  0  0  0
   18.0960   37.1770   66.9690 C   0  0  0  0  0  0
   17.9930   36.6560   65.8630 O   0  0  0  0  0  0
   19.3840   41.5170   66.6440 P   0  0  0  0  0  0
   18.5720   42.4440   67.6220 O   0  0  0  0  0  0
   19.1170   42.0130   65.1350 O   0  5  0  0  0  0
   20.9370   41.4210   66.9800 O   0  5  0  0  0  0
   17.1550   37.0830   67.8980 N   0  0  0  0  0  0
   15.9050   36.3830   67.6310 C   0  0  2  0  0  0
   15.1090   37.0800   66.5340 C   0  0  0  0  0  0
   14.9980   38.2880   66.5160 O   0  0  0  0  0  0
   15.0400   36.3060   68.8960 C   0  0  0  0  0  0
   13.5540   35.9740   68.6820 C   0  0  0  0  0  0
   13.3960   34.5810   68.1140 C   0  0  0  0  0  0
   12.8140   36.0870   69.9950 C   0  0  0  0  0  0
   14.5780   36.2860   65.6170 N   0  0  0  0  0  0
   13.7610   36.8090   64.5350 C   0  0  2  0  0  0
   12.4880   37.4480   65.1400 C   0  0  0  0  0  0
   12.0070   37.0130   66.1820 O   0  0  0  0  0  0
   13.4070   35.6650   63.5800 C   0  0  0  0  0  0
   12.7790   35.9870   62.2260 C   0  0  0  0  0  0
   13.6610   36.9830   61.4890 C   0  0  0  0  0  0
   12.6020   34.7070   61.4110 C   0  0  0  0  0  0
   11.9770   38.4900   64.4960 N   0  0  0  0  0  0
   10.7840   39.1830   64.9980 C   0  0  2  0  0  0
    9.4690   38.5270   64.5290 C   0  0  0  0  0  0
    9.4910   37.8130   63.5020 O   0  5  0  0  0  0
   10.8120   40.6450   64.5510 C   0  0  0  0  0  0
   10.3490   41.6300   65.6150 C   0  0  0  0  0  0
   11.1870   41.4810   66.8860 C   0  0  0  0  0  0
   10.8410   42.5290   67.9460 C   0  0  0  0  0  0
   11.2030   43.9230   67.5370 N   0  3  0  0  0  0
    8.4400   38.7560   65.1960 O   0  0  0  0  0  0
   29.5696   31.9839   67.0051 H   0  0  0  0  0  0
   30.8006   33.2822   67.1653 H   0  0  0  0  0  0
   29.6674   33.2860   65.7716 H   0  0  0  0  0  0
   28.9483   33.6414   68.6944 H   0  0  0  0  0  0
   30.1547   35.5119   67.1743 H   0  0  0  0  0  0
   28.4792   35.7327   66.5657 H   0  0  0  0  0  0
   26.6411   35.1009   68.2801 H   0  0  0  0  0  0
   25.0061   33.3909   66.3518 H   0  0  0  0  0  0
   24.8061   32.3045   68.6132 H   0  0  0  0  0  0
   24.2947   33.8711   69.3280 H   0  0  0  0  0  0
   22.9431   34.2171   65.6618 H   0  0  0  0  0  0
   23.1067   37.2101   65.8597 H   0  0  0  0  0  0
   21.4808   37.2286   64.0074 H   0  0  0  0  0  0
   21.2799   34.2185   64.5488 H   0  0  0  0  0  0
   19.9969   35.4395   64.8489 H   0  0  0  0  0  0
   23.8437   36.7200   63.4832 H   0  0  0  0  0  0
   22.7281   35.8613   62.3675 H   0  0  0  0  0  0
   23.5176   34.9683   63.7113 H   0  0  0  0  0  0
   19.5767   34.1712   62.8366 H   0  0  0  0  0  0
   21.1623   34.6812   62.1639 H   0  0  0  0  0  0
   19.8794   35.9022   62.4640 H   0  0  0  0  0  0
   20.8642   38.3796   65.7851 H   0  0  0  0  0  0
   19.6443   37.6503   68.4029 H   0  0  0  0  0  0
   18.1486   39.7125   67.8378 H   0  0  0  0  0  0
   19.9141   40.0344   67.7599 H   0  0  0  0  0  0
   17.3284   37.5430   68.8820 H   0  0  0  0  0  0
   16.2169   35.3812   67.3008 H   0  0  0  0  0  0
   15.4332   35.5238   69.5620 H   0  0  0  0  0  0
   15.0629   37.2753   69.4155 H   0  0  0  0  0  0
   13.1143   36.6829   67.9649 H   0  0  0  0  0  0
   13.9381   34.5106   67.1595 H   0  0  0  0  0  0
   12.3291   34.3724   67.9460 H   0  0  0  0  0  0
   13.8059   33.8471   68.8235 H   0  0  0  0  0  0
   12.9358   37.1031   70.3983 H   0  0  0  0  0  0
   13.2222   35.3574   70.7099 H   0  0  0  0  0  0
   11.7454   35.8827   69.8324 H   0  0  0  0  0  0
   14.7689   35.2051   65.6891 H   0  0  0  0  0  0
   14.3552   37.5631   63.9980 H   0  0  0  0  0  0
   14.3177   35.1008   63.3303 H   0  0  0  0  0  0
   12.6815   34.9946   64.0639 H   0  0  0  0  0  0
   11.7867   36.4381   62.3734 H   0  0  0  0  0  0
   13.7721   37.8936   62.0960 H   0  0  0  0  0  0
   13.1980   37.2394   60.5247 H   0  0  0  0  0  0
   14.6508   36.5364   61.3133 H   0  0  0  0  0  0
   11.9615   34.0051   61.9652 H   0  0  0  0  0  0
   13.5849   34.2457   61.2348 H   0  0  0  0  0  0
   12.1321   34.9487   60.4462 H   0  0  0  0  0  0
   12.4635   38.8325   63.5708 H   0  0  0  0  0  0
   10.8565   39.0958   66.0921 H   0  0  0  0  0  0
   11.8398   40.9249   64.2766 H   0  0  0  0  0  0
   10.1519   40.7751   63.6808 H   0  0  0  0  0  0
   10.4560   42.6569   65.2354 H   0  0  0  0  0  0
    9.2938   41.4373   65.8588 H   0  0  0  0  0  0
   11.0140   40.4873   67.3249 H   0  0  0  0  0  0
   12.2529   41.5915   66.6375 H   0  0  0  0  0  0
    9.7585   42.5103   68.1405 H   0  0  0  0  0  0
   11.3844   42.3037   68.8755 H   0  0  0  0  0  0
   10.9291   44.6234   68.3397 H   0  0  0  0  0  0
   10.6599   44.1881   66.6179 H   0  0  0  0  0  0
   12.2859   43.9816   67.3529 H   0  0  0  0  0  0
  1  2  1  0  0  0
  1 61  1  0  0  0
  1 62  1  0  0  0
  1 63  1  0  0  0
  2  3  1  0  0  0
  2  5  1  0  0  0
  2 64  1  0  0  0
  3  4  2  0  0  0
  3  9  1  0  0  0
  5  6  1  0  0  0
  5 65  1  0  0  0
  5 66  1  0  0  0
  6  7  1  0  0  0
  6  8  2  0  0  0
  9 10  1  0  0  0
  9 67  1  0  0  0
 10 11  1  0  0  0
 10 13  1  0  0  0
 10 68  1  0  0  0
 11 12  2  0  0  0
 11 17  1  0  0  0
 13 14  1  0  0  0
 13 69  1  0  0  0
 13 70  1  0  0  0
 14 15  1  0  0  0
 14 16  2  0  0  0
 17 18  1  0  0  0
 17 71  1  0  0  0
 18 19  1  0  0  0
 18 21  1  0  0  0
 18 72  1  0  0  0
 19 20  2  0  0  0
 19 25  1  0  0  0
 21 22  1  0  0  0
 21 23  1  0  0  0
 21 73  1  0  0  0
 22 24  1  0  0  0
 22 74  1  0  0  0
 22 75  1  0  0  0
 23 76  1  0  0  0
 23 77  1  0  0  0
 23 78  1  0  0  0
 24 79  1  0  0  0
 24 80  1  0  0  0
 24 81  1  0  0  0
 25 26  1  0  0  0
 25 82  1  0  0  0
 26 27  1  0  0  0
 26 29  1  0  0  0
 26 83  1  0  0  0
 27 28  1  0  0  0
 27 84  1  0  0  0
 27 85  1  0  0  0
 28 31  1  0  0  0
 29 30  2  0  0  0
 29 35  1  0  0  0
 31 32  2  0  0  0
 31 33  1  0  0  0
 31 34  1  0  0  0
 35 36  1  0  0  0
 35 86  1  0  0  0
 36 37  1  0  0  0
 36 39  1  0  0  0
 36 87  1  0  0  0
 37 38  2  0  0  0
 37 43  1  0  0  0
 39 40  1  0  0  0
 39 88  1  0  0  0
 39 89  1  0  0  0
 40 41  1  0  0  0
 40 42  1  0  0  0
 40 90  1  0  0  0
 41 91  1  0  0  0
 41 92  1  0  0  0
 41 93  1  0  0  0
 42 94  1  0  0  0
 42 95  1  0  0  0
 42 96  1  0  0  0
 43 44  1  0  0  0
 43 97  1  0  0  0
 44 45  1  0  0  0
 44 47  1  0  0  0
 44 98  1  0  0  0
 45 46  2  0  0  0
 45 51  1  0  0  0
 47 48  1  0  0  0
 47 99  1  0  0  0
 47100  1  0  0  0
 48 49  1  0  0  0
 48 50  1  0  0  0
 48101  1  0  0  0
 49102  1  0  0  0
 49103  1  0  0  0
 49104  1  0  0  0
 50105  1  0  0  0
 50106  1  0  0  0
 50107  1  0  0  0
 51 52  1  0  0  0
 51108  1  0  0  0
 52 53  1  0  0  0
 52 55  1  0  0  0
 52109  1  0  0  0
 53 54  1  0  0  0
 53 60  2  0  0  0
 55 56  1  0  0  0
 55110  1  0  0  0
 55111  1  0  0  0
 56 57  1  0  0  0
 56112  1  0  0  0
 56113  1  0  0  0
 57 58  1  0  0  0
 57114  1  0  0  0
 57115  1  0  0  0
 58 59  1  0  0  0
 58116  1  0  0  0
 58117  1  0  0  0
 59118  1  0  0  0
 59119  1  0  0  0
 59120  1  0  0  0
M  CHG  7   1   1   7  -1  15  -1  33  -1  34  -1  54  -1  59   1
M  END
> <s_m_source_file>
../1py1_ligand.sdf

> <i_m_source_file_index>
1

> <s_epik_input>
W09IXUMoPU8pW0NIMl1bQ0BIXShbTkgzK10pQyg9TylbTkhdW0NAQEhdKFtDSDJdQyg9TylbT0hdKUMoPU8pW05IXVtDQEBIXShbQ0BASF0oW0NIM10pW0NIMl1bQ0gzXSlDKD1PKVtOSF1bQ0BASF0oW0NIMl1PUCg9TykoW09IXSlbT0hdKUMoPU8pW05IXVtDQEBIXShbQ0gyXVtDSF0oW0NIM10pW0NIM10pQyg9TylbTkhdW0NAQEhdKFtDSDJdW0NIXShbQ0gzXSlbQ0gzXSlDKD1PKVtOSF1bQ0BIXShDKD1PKVtPSF0pW0NIMl1bQ0gyXVtDSDJdW0NIMl1bTkgzK10=

> <s_epik_cmdline>
J2VwaWtfYXBwJywgJy1pbWFlJywgJ2xpZ2FuZF9wcm8ubWFlJywgJy1vbWFlJywgJ2xpZ2FuZF9wcmVwLm1hZScsICctbXMnLCAnMScsICctcGgnLCAnNycsICctcGh0JywgJzAuNScsICctbnQn

> <r_epik_Ionization_Penalty>
  0.1123

> <r_epik_Ionization_Penalty_Charging>
  0.1123

> <r_epik_Ionization_Penalty_Neutral>
  0.0000

> <r_epik_State_Penalty>
  0.0928

> <r_epik_Charging_Adjusted_Penalty>
0.205045807134998

> <i_epik_Tot_Q>
-3

> <i_epik_Tot_abs_Q>
7

$$$$
