1py2_ligand
                    3D
 Schrodinger Suite 2020-3.
 82 85  0  0  1  0            999 V2000
   32.9680    9.6610   -1.9130 O   0  0  0  0  0  0
   31.8850    9.9750   -1.4400 C   0  0  0  0  0  0
   30.6210    9.7410   -2.2190 C   0  0  1  0  0  0
   30.5590   10.6210   -3.4650 C   0  0  0  0  0  0
   29.8830   11.9670   -3.2190 C   0  0  0  0  0  0
   28.3680   11.8410   -3.1050 C   0  0  0  0  0  0
   30.2460   12.9520   -4.3230 C   0  0  0  0  0  0
   30.5140    8.3500   -2.6090 N   0  0  0  0  0  0
   29.3820    7.6640   -2.5070 C   0  0  0  0  0  0
   28.6530    7.7260   -1.3930 N   0  0  0  0  0  0
   28.9840    6.9080   -3.5280 N   0  3  0  0  0  0
   31.7320   10.5240   -0.2330 N   0  0  0  0  0  0
   32.7470   10.4860    0.8080 C   0  0  0  0  0  0
   32.6950   11.7260    1.6750 C   0  0  0  0  0  0
   31.6500   12.3560    1.7400 O   0  0  0  0  0  0
   33.8020   12.0990    2.3360 N   0  0  0  0  0  0
   33.8440   13.3520    3.0990 C   0  0  0  0  0  0
   34.1670   12.9970    4.5520 C   0  0  0  0  0  0
   35.4970   12.2480    4.6220 C   0  0  0  0  0  0
   35.3770   10.9760    3.7830 C   0  0  0  0  0  0
   35.0410   11.3140    2.3300 C   0  0  0  0  0  0
   35.9030   11.9190    6.0400 C   0  0  0  0  0  0
   35.2610   11.8040    7.1290 C   0  0  0  0  0  0
   36.0200   11.4880    8.1020 C   0  0  0  0  0  0
   37.2340   11.2320    7.6190 N   0  0  0  0  0  0
   37.1570   11.6680    6.3950 N   0  0  0  0  0  0
   38.3830   11.8280    5.6230 C   0  0  0  0  0  0
   35.7840   11.3790    9.5850 C   0  0  0  0  0  0
   36.7530   11.8850   10.4520 C   0  0  0  0  0  0
   34.6400   10.7810   10.1100 C   0  0  0  0  0  0
   33.3630   10.1100    9.0430 Cl  0  0  0  0  0  0
   34.4690   10.6990   11.4850 C   0  0  0  0  0  0
   32.9910    9.9310   12.1570 Cl  0  0  0  0  0  0
   35.4320   11.2010   12.3490 C   0  0  0  0  0  0
   36.5800   11.8010   11.8310 C   0  0  0  0  0  0
   35.2310   11.1050   13.7040 O   0  0  0  0  0  0
   36.2900   10.8010   14.6130 C   0  0  0  0  0  0
   36.3560   11.9000   15.6460 C   0  0  0  0  0  0
   36.7620   11.7960   16.8380 C   0  0  0  0  0  0
   35.9500   13.2720   15.4550 O   0  0  0  0  0  0
   35.8680   13.7580   16.8070 C   0  0  0  0  0  0
   36.3860   12.7720   17.5610 C   0  0  0  0  0  0
   35.3220   15.0400   17.2490 C   0  0  0  0  0  0
   34.6100   15.6920   16.4540 O   0  0  0  0  0  0
   35.5770   15.4550   18.4020 O   0  5  0  0  0  0
   29.7715    9.9559   -1.5541 H   0  0  0  0  0  0
   31.5795   10.8228   -3.8225 H   0  0  0  0  0  0
   29.9906   10.1032   -4.2517 H   0  0  0  0  0  0
   30.2540   12.3466   -2.2556 H   0  0  0  0  0  0
   28.1185   11.1279   -2.3055 H   0  0  0  0  0  0
   27.9572   11.4802   -4.0595 H   0  0  0  0  0  0
   27.9352   12.8240   -2.8678 H   0  0  0  0  0  0
   31.3405   13.0344   -4.3956 H   0  0  0  0  0  0
   29.8187   13.9383   -4.0894 H   0  0  0  0  0  0
   29.8408   12.5945   -5.2811 H   0  0  0  0  0  0
   31.3924    7.8215   -3.0078 H   0  0  0  0  0  0
   28.9859    8.3520   -0.5520 H   0  0  0  0  0  0
   27.7184    7.1511   -1.3146 H   0  0  0  0  0  0
   29.5890    6.8600   -4.4454 H   0  0  0  0  0  0
   30.7715   11.0266   -0.0465 H   0  0  0  0  0  0
   32.5838    9.6058    1.4473 H   0  0  0  0  0  0
   33.7435   10.4242    0.3464 H   0  0  0  0  0  0
   34.6217   14.0090    2.6824 H   0  0  0  0  0  0
   32.8671   13.8535    3.0345 H   0  0  0  0  0  0
   34.2385   13.9191    5.1475 H   0  0  0  0  0  0
   33.3694   12.3583    4.9594 H   0  0  0  0  0  0
   36.2942   12.8986    4.2333 H   0  0  0  0  0  0
   36.3308   10.4287    3.8084 H   0  0  0  0  0  0
   34.5785   10.3402    4.1930 H   0  0  0  0  0  0
   34.8894   10.3941    1.7462 H   0  0  0  0  0  0
   35.8487   11.9072    1.8764 H   0  0  0  0  0  0
   34.1858   11.9577    7.2208 H   0  0  0  0  0  0
   38.1374   12.2024    4.6182 H   0  0  0  0  0  0
   38.8922   10.8567    5.5381 H   0  0  0  0  0  0
   39.0446   12.5457    6.1301 H   0  0  0  0  0  0
   37.6520   12.3495   10.0468 H   0  0  0  0  0  0
   37.3385   12.2024   12.5031 H   0  0  0  0  0  0
   36.0888    9.8357   15.1007 H   0  0  0  0  0  0
   37.2405   10.7425   14.0623 H   0  0  0  0  0  0
   37.3651   10.9652   17.2043 H   0  0  0  0  0  0
   36.4720   12.8052   18.6471 H   0  0  0  0  0  0
   28.0502    6.3314   -3.4542 H   0  0  0  0  0  0
  1  2  2  0  0  0
  2  3  1  0  0  0
  2 12  1  0  0  0
  3  4  1  0  0  0
  3  8  1  0  0  0
  3 46  1  0  0  0
  4  5  1  0  0  0
  4 47  1  0  0  0
  4 48  1  0  0  0
  5  6  1  0  0  0
  5  7  1  0  0  0
  5 49  1  0  0  0
  6 50  1  0  0  0
  6 51  1  0  0  0
  6 52  1  0  0  0
  7 53  1  0  0  0
  7 54  1  0  0  0
  7 55  1  0  0  0
  8  9  1  0  0  0
  8 56  1  0  0  0
  9 10  1  0  0  0
  9 11  2  0  0  0
 10 57  1  0  0  0
 10 58  1  0  0  0
 11 59  1  0  0  0
 11 82  1  0  0  0
 12 13  1  0  0  0
 12 60  1  0  0  0
 13 14  1  0  0  0
 13 61  1  0  0  0
 13 62  1  0  0  0
 14 15  2  0  0  0
 14 16  1  0  0  0
 16 17  1  0  0  0
 16 21  1  0  0  0
 17 18  1  0  0  0
 17 63  1  0  0  0
 17 64  1  0  0  0
 18 19  1  0  0  0
 18 65  1  0  0  0
 18 66  1  0  0  0
 19 20  1  0  0  0
 19 22  1  0  0  0
 19 67  1  0  0  0
 20 21  1  0  0  0
 20 68  1  0  0  0
 20 69  1  0  0  0
 21 70  1  0  0  0
 21 71  1  0  0  0
 22 23  2  0  0  0
 22 26  1  0  0  0
 23 24  1  0  0  0
 23 72  1  0  0  0
 24 25  2  0  0  0
 24 28  1  0  0  0
 25 26  1  0  0  0
 26 27  1  0  0  0
 27 73  1  0  0  0
 27 74  1  0  0  0
 27 75  1  0  0  0
 28 29  2  0  0  0
 28 30  1  0  0  0
 29 35  1  0  0  0
 29 76  1  0  0  0
 30 31  1  0  0  0
 30 32  2  0  0  0
 32 33  1  0  0  0
 32 34  1  0  0  0
 34 35  2  0  0  0
 34 36  1  0  0  0
 35 77  1  0  0  0
 36 37  1  0  0  0
 37 38  1  0  0  0
 37 78  1  0  0  0
 37 79  1  0  0  0
 38 39  2  0  0  0
 38 40  1  0  0  0
 39 42  1  0  0  0
 39 80  1  0  0  0
 40 41  1  0  0  0
 41 42  2  0  0  0
 41 43  1  0  0  0
 42 81  1  0  0  0
 43 44  2  0  0  0
 43 45  1  0  0  0
M  CHG  2  11   1  45  -1
M  END
> <s_m_source_file>
../1py2_ligand.sdf

> <i_m_source_file_index>
1

> <s_epik_input>
W0hdL049QyhbTkgyXSlcW05IXVtDQEhdKFtDSDJdW0NIXShbQ0gzXSlbQ0gzXSlDKD1PKVtOSF1bQ0gyXUMoPU8pTjFbQ0gyXVtDSDJdW0NIXShbQ0gyXVtDSDJdMSljMltjSF1jKG5uMltDSDNdKS1jM1tjSF1bY0hdYyhjKENsKWMzQ2wpT1tDSDJdYzRbY0hdW2NIXWMobzQpQyg9TylbT0hd

> <s_epik_cmdline>
J2VwaWtfYXBwJywgJy1pbWFlJywgJ2xpZ2FuZF9wcm8ubWFlJywgJy1vbWFlJywgJ2xpZ2FuZF9wcmVwLm1hZScsICctbXMnLCAnMScsICctcGgnLCAnNycsICctcGh0JywgJzAuNScsICctbnQn

> <r_lp_tautomer_probability>
1

> <r_epik_Ionization_Penalty>
  0.0006

> <r_epik_Ionization_Penalty_Charging>
  0.0001

> <r_epik_Ionization_Penalty_Neutral>
  0.0005

> <r_epik_State_Penalty>
 -0.0000

> <r_epik_Charging_Adjusted_Penalty>
7.87539663043311e-05

> <i_epik_Tot_Q>
0

> <i_epik_Tot_abs_Q>
2

> <s_epik_Chemistry_Notes>
This compound has an imine and may undergo hydrolysis.

$$$$
