1pyg_ligand
                    3D
 Schrodinger Suite 2020-3.
 35 37  0  0  1  0            999 V2000
   59.7410   24.8920   43.7380 P   0  0  0  0  0  0
   59.7440   24.7550   45.2190 O   0  5  0  0  0  0
   58.8020   24.0120   43.0100 O   0  0  0  0  0  0
   59.7400   26.2830   43.2100 O   0  5  0  0  0  0
   61.1910   24.2820   43.3290 O   0  0  0  0  0  0
   62.3590   24.3570   44.1290 C   0  0  0  0  0  0
   63.2040   23.1040   43.9710 C   0  0  1  0  0  0
   62.4590   21.9700   44.3870 O   0  0  0  0  0  0
   63.5910   22.8440   42.5180 C   0  0  1  0  0  0
   64.8430   23.4550   42.1590 O   0  0  0  0  0  0
   63.6990   21.3480   42.4400 C   0  0  1  0  0  0
   65.0060   20.8930   42.8060 O   0  0  0  0  0  0
   62.6760   20.8950   43.4710 C   0  0  2  0  0  0
   61.4200   20.5220   42.8260 N   0  0  0  0  0  0
   60.4120   21.3350   42.3840 C   0  0  0  0  0  0
   59.3910   20.6960   41.8940 N   0  0  0  0  0  0
   59.7550   19.3570   42.0250 C   0  0  0  0  0  0
   59.0900   18.1640   41.6990 C   0  0  0  0  0  0
   57.8890   18.1490   41.1410 N   0  0  0  0  0  0
   59.7140   17.0210   42.0120 N   0  0  0  0  0  0
   60.9050   17.0760   42.6040 C   0  0  0  0  0  0
   61.6700   18.1190   42.8600 N   0  0  0  0  0  0
   60.9930   19.2460   42.5980 C   0  0  0  0  0  0
   62.9571   25.2283   43.8238 H   0  0  0  0  0  0
   62.0733   24.4605   45.1862 H   0  0  0  0  0  0
   64.0882   23.2076   44.6171 H   0  0  0  0  0  0
   62.8957   23.2906   41.7920 H   0  0  0  0  0  0
   64.9414   24.5506   42.1626 H   0  0  0  0  0  0
   63.5778   20.9431   41.4244 H   0  0  0  0  0  0
   65.8701   21.1322   42.1687 H   0  0  0  0  0  0
   63.0164   20.0212   44.0460 H   0  0  0  0  0  0
   60.4606   22.4226   42.4379 H   0  0  0  0  0  0
   57.3878   19.0952   40.8890 H   0  0  0  0  0  0
   57.3927   17.1904   40.9295 H   0  0  0  0  0  0
   61.3080   16.1155   42.9250 H   0  0  0  0  0  0
  1  2  1  0  0  0
  1  3  2  0  0  0
  1  4  1  0  0  0
  1  5  1  0  0  0
  5  6  1  0  0  0
  6  7  1  0  0  0
  6 24  1  0  0  0
  6 25  1  0  0  0
  7  8  1  0  0  0
  7  9  1  0  0  0
  7 26  1  0  0  0
  8 13  1  0  0  0
  9 10  1  0  0  0
  9 11  1  0  0  0
  9 27  1  0  0  0
 10 28  1  0  0  0
 11 12  1  0  0  0
 11 13  1  0  0  0
 11 29  1  0  0  0
 12 30  1  0  0  0
 13 14  1  0  0  0
 13 31  1  0  0  0
 14 15  1  0  0  0
 14 23  1  0  0  0
 15 16  2  0  0  0
 15 32  1  0  0  0
 16 17  1  0  0  0
 17 18  2  0  0  0
 17 23  1  0  0  0
 18 19  1  0  0  0
 18 20  1  0  0  0
 19 33  1  0  0  0
 19 34  1  0  0  0
 20 21  2  0  0  0
 21 22  1  0  0  0
 21 35  1  0  0  0
 22 23  2  0  0  0
M  CHG  2   2  -1   4  -1
M  END
> <s_m_source_file>
../1pyg_ligand.sdf

> <i_m_source_file_index>
1

> <s_epik_input>
W09IXVAoPU8pKFtPSF0pT1tDSDJdW0NASF0xT1tDQEhdKFtDQEhdKFtPSF0pW0NAQEhdMVtPSF0pbihbY0hdbjIpYyhjMjMpbltjSF1uYzNbTkgyXQ==

> <s_epik_cmdline>
J2VwaWtfYXBwJywgJy1pbWFlJywgJ2xpZ2FuZF9wcm8ubWFlJywgJy1vbWFlJywgJ2xpZ2FuZF9wcmVwLm1hZScsICctbXMnLCAnMScsICctcGgnLCAnNycsICctcGh0JywgJzAuNScsICctbnQn

> <r_lp_tautomer_probability>
0.999997216410988

> <r_epik_Ionization_Penalty>
  0.1025

> <r_epik_Ionization_Penalty_Charging>
  0.1020

> <r_epik_Ionization_Penalty_Neutral>
  0.0004

> <r_epik_State_Penalty>
  0.0920

> <r_epik_Charging_Adjusted_Penalty>
0.194024004396068

> <i_epik_Tot_Q>
-2

> <i_epik_Tot_abs_Q>
2

> <s_epik_Chemistry_Notes>
This compound contains an acetal/aminal-like group ( X-CH(R)-Y where X, Y are N, S, or O) that may be acid/base labile, releasing an aldehyde.

$$$$
