1pyn_ligand
                    3D
 Schrodinger Suite 2020-3.
 77 78  0  0  1  0            999 V2000
   34.4630   29.7880   19.7570 C   0  0  0  0  0  0
   33.7860   29.1070   20.8760 C   0  0  0  0  0  0
   32.4210   29.4120   21.1260 C   0  0  0  0  0  0
   31.7080   30.3500   20.3190 C   0  0  0  0  0  0
   32.3570   31.0120   19.2290 C   0  0  0  0  0  0
   33.7460   30.7210   18.9570 C   0  0  0  0  0  0
   31.1420   31.3540   16.9830 C   0  0  2  0  0  0
   30.3840   32.3590   16.2500 N   0  0  0  0  0  0
   30.3740   32.6090   14.9360 C   0  0  0  0  0  0
   30.4560   29.9660   17.2050 C   0  0  0  0  0  0
   29.1490   30.0250   17.4950 N   0  0  0  0  0  0
   28.2950   28.8480   17.7780 C   0  0  0  0  0  0
   27.1690   29.3100   18.7450 C   0  0  0  0  0  0
   26.6180   30.7920   20.7650 C   0  0  0  0  0  0
   27.6880   30.3150   19.8110 C   0  0  0  0  0  0
   26.2160   29.6980   21.5980 O   0  0  0  0  0  0
   31.0650   31.9610   14.1930 O   0  0  0  0  0  0
   29.5560   33.5920   14.5160 O   0  0  0  0  0  0
   35.6430   27.6650   21.7500 C   0  0  0  0  0  0
   31.1300   28.9180   17.1360 O   0  0  0  0  0  0
   31.5700   31.9910   18.3610 C   0  0  0  0  0  0
   36.6830   28.7280   22.1950 C   0  0  0  0  0  0
   35.6440   26.4290   22.6740 C   0  0  0  0  0  0
   34.9400   26.2740   23.6170 O   0  0  0  0  0  0
   36.5590   25.4910   22.3070 O   0  5  0  0  0  0
   24.9130   29.6800   22.1840 C   0  0  0  0  0  0
   24.1570   30.9050   22.4990 C   0  0  0  0  0  0
   22.8560   30.8330   23.0900 C   0  0  0  0  0  0
   22.2770   29.5560   23.3800 C   0  0  0  0  0  0
   22.9850   28.3490   23.0850 C   0  0  0  0  0  0
   24.3060   28.3890   22.4870 C   0  0  0  0  0  0
   25.0030   27.0990   22.2030 C   0  0  0  0  0  0
   25.2850   26.3340   23.1060 O   0  0  0  0  0  0
   25.2800   26.8540   20.9010 O   0  0  0  0  0  0
   25.9500   25.6260   20.4810 C   0  0  0  0  0  0
   22.3480   27.1750   23.4010 O   0  0  0  0  0  0
   36.4360   29.6970   22.8330 O   0  0  0  0  0  0
   37.9350   28.4390   21.7610 O   0  5  0  0  0  0
   34.2900   28.1630   21.7740 O   0  0  0  0  0  0
   28.3520   33.4330   13.6200 C   0  0  0  0  0  0
   27.6080   32.0830   13.9080 C   0  0  0  0  0  0
   28.8000   33.4540   12.1410 C   0  0  0  0  0  0
   27.3190   34.5760   13.8600 C   0  0  0  0  0  0
   35.5108   29.5771   19.5431 H   0  0  0  0  0  0
   31.9070   28.9195   21.9514 H   0  0  0  0  0  0
   30.6611   30.5633   20.5351 H   0  0  0  0  0  0
   34.2499   31.2216   18.1302 H   0  0  0  0  0  0
   31.9640   31.1485   16.2815 H   0  0  0  0  0  0
   29.7078   33.0391   16.7887 H   0  0  0  0  0  0
   28.7162   31.0361   17.5148 H   0  0  0  0  0  0
   27.8645   28.4728   16.8378 H   0  0  0  0  0  0
   28.9021   28.0580   18.2442 H   0  0  0  0  0  0
   26.3712   29.8029   18.1700 H   0  0  0  0  0  0
   26.7559   28.4365   19.2708 H   0  0  0  0  0  0
   25.7503   31.1583   20.1967 H   0  0  0  0  0  0
   27.0148   31.6039   21.3922 H   0  0  0  0  0  0
   28.4750   29.8372   20.4129 H   0  0  0  0  0  0
   28.0991   31.2029   19.3084 H   0  0  0  0  0  0
   35.8774   27.4208   20.7034 H   0  0  0  0  0  0
   30.6579   32.3007   18.8923 H   0  0  0  0  0  0
   32.1900   32.8750   18.1509 H   0  0  0  0  0  0
   24.5946   31.8787   22.2789 H   0  0  0  0  0  0
   22.3077   31.7469   23.3186 H   0  0  0  0  0  0
   21.2859   29.5032   23.8305 H   0  0  0  0  0  0
   26.0755   25.6321   19.3882 H   0  0  0  0  0  0
   25.3423   24.7577   20.7755 H   0  0  0  0  0  0
   26.9368   25.5634   20.9631 H   0  0  0  0  0  0
   21.3456   27.1976   23.8535 H   0  0  0  0  0  0
   28.2999   31.2424   13.7512 H   0  0  0  0  0  0
   26.7505   31.9842   13.2261 H   0  0  0  0  0  0
   27.2517   32.0755   14.9487 H   0  0  0  0  0  0
   29.5291   32.6489   11.9673 H   0  0  0  0  0  0
   29.2642   34.4247   11.9123 H   0  0  0  0  0  0
   27.9256   33.3034   11.4909 H   0  0  0  0  0  0
   26.9974   34.5646   14.9119 H   0  0  0  0  0  0
   26.4461   34.4242   13.2080 H   0  0  0  0  0  0
   27.7847   35.5455   13.6294 H   0  0  0  0  0  0
  1  2  2  0  0  0
  1  6  1  0  0  0
  1 44  1  0  0  0
  2  3  1  0  0  0
  2 39  1  0  0  0
  3  4  2  0  0  0
  3 45  1  0  0  0
  4  5  1  0  0  0
  4 46  1  0  0  0
  5  6  2  0  0  0
  5 21  1  0  0  0
  6 47  1  0  0  0
  7  8  1  0  0  0
  7 10  1  0  0  0
  7 21  1  0  0  0
  7 48  1  0  0  0
  8  9  1  0  0  0
  8 49  1  0  0  0
  9 17  2  0  0  0
  9 18  1  0  0  0
 10 11  1  0  0  0
 10 20  2  0  0  0
 11 12  1  0  0  0
 11 50  1  0  0  0
 12 13  1  0  0  0
 12 51  1  0  0  0
 12 52  1  0  0  0
 13 15  1  0  0  0
 13 53  1  0  0  0
 13 54  1  0  0  0
 14 16  1  0  0  0
 14 15  1  0  0  0
 14 55  1  0  0  0
 14 56  1  0  0  0
 15 57  1  0  0  0
 15 58  1  0  0  0
 16 26  1  0  0  0
 18 40  1  0  0  0
 19 39  1  0  0  0
 19 23  1  0  0  0
 19 22  1  0  0  0
 19 59  1  0  0  0
 21 60  1  0  0  0
 21 61  1  0  0  0
 22 37  2  0  0  0
 22 38  1  0  0  0
 23 24  2  0  0  0
 23 25  1  0  0  0
 26 27  2  0  0  0
 26 31  1  0  0  0
 27 28  1  0  0  0
 27 62  1  0  0  0
 28 29  2  0  0  0
 28 63  1  0  0  0
 29 30  1  0  0  0
 29 64  1  0  0  0
 30 31  2  0  0  0
 30 36  1  0  0  0
 31 32  1  0  0  0
 32 33  2  0  0  0
 32 34  1  0  0  0
 34 35  1  0  0  0
 35 65  1  0  0  0
 35 66  1  0  0  0
 35 67  1  0  0  0
 36 68  1  0  0  0
 40 41  1  0  0  0
 40 42  1  0  0  0
 40 43  1  0  0  0
 41 69  1  0  0  0
 41 70  1  0  0  0
 41 71  1  0  0  0
 42 72  1  0  0  0
 42 73  1  0  0  0
 42 74  1  0  0  0
 43 75  1  0  0  0
 43 76  1  0  0  0
 43 77  1  0  0  0
M  CHG  2  25  -1  38  -1
M  END
> <s_m_source_file>
../1pyn_ligand.sdf

> <i_m_source_file_index>
1

> <s_epik_input>
Tz1DKFtPSF0pW0NIXShDKD1PKVtPSF0pT2MxW2NIXVtjSF1jKFtjSF1bY0hdMSlbQ0gyXVtDQEhdKFtOSF1DKD1PKU9DKFtDSDNdKShbQ0gzXSlbQ0gzXSlDKD1PKVtOSF1bQ0gyXVtDSDJdW0NIMl1bQ0gyXU9jMltjSF1bY0hdW2NIXWMoW09IXSljMkMoPU8pT1tDSDNd

> <s_epik_cmdline>
J2VwaWtfYXBwJywgJy1pbWFlJywgJ2xpZ2FuZF9wcm8ubWFlJywgJy1vbWFlJywgJ2xpZ2FuZF9wcmVwLm1hZScsICctbXMnLCAnMScsICctcGgnLCAnNycsICctcGh0JywgJzAuNScsICctbnQn

> <r_lp_tautomer_probability>
1

> <r_epik_Ionization_Penalty>
  0.0797

> <r_epik_Ionization_Penalty_Charging>
  0.0004

> <r_epik_Ionization_Penalty_Neutral>
  0.0793

> <r_epik_State_Penalty>
  0.0702

> <r_epik_Charging_Adjusted_Penalty>
0.070568766950003

> <i_epik_Tot_Q>
-2

> <i_epik_Tot_abs_Q>
2

> <s_epik_Chemistry_Notes>
This compound has an ester and may undergo hydrolysis at high or low pH.

$$$$
