1pyw_ligand
                    3D
 Schrodinger Suite 2020-3.
148148  0  0  1  0            999 V2000
  -25.1730   61.6680   17.3530 C   0  0  0  0  0  0
  -25.6460   60.6640   17.8910 O   0  0  0  0  0  0
  -24.1350   62.5130   18.1030 C   0  0  0  0  0  0
  -25.5740   62.0880   16.1540 N   0  0  0  0  0  0
  -26.5550   61.3010   15.4180 C   0  0  2  0  0  0
  -26.0320   59.9010   15.1300 C   0  0  0  0  0  0
  -24.8410   59.7060   14.9640 O   0  0  0  0  0  0
  -26.8790   61.9740   14.0830 C   0  0  0  0  0  0
  -27.6030   63.2800   14.2110 C   0  0  0  0  0  0
  -28.9280   63.3190   14.6340 C   0  0  0  0  0  0
  -26.9680   64.4740   13.8760 C   0  0  0  0  0  0
  -29.6170   64.5360   14.7220 C   0  0  0  0  0  0
  -27.6450   65.6950   13.9580 C   0  0  0  0  0  0
  -28.9730   65.7240   14.3820 C   0  0  0  0  0  0
  -26.9400   58.9350   15.0650 N   0  0  0  0  0  0
  -26.5800   57.5610   14.7630 C   0  0  2  0  0  0
  -27.4520   57.0960   13.6050 C   0  0  0  0  0  0
  -28.5970   57.5280   13.4630 O   0  0  0  0  0  0
  -26.8130   56.6180   15.9810 C   0  0  0  0  0  0
  -25.9590   57.0630   17.1570 C   0  0  0  0  0  0
  -28.2830   56.6180   16.3670 C   0  0  0  0  0  0
  -26.9170   56.2110   12.7780 N   0  0  0  0  0  0
  -27.6630   55.7090   11.6380 C   0  0  2  0  0  0
  -28.2480   54.3290   11.8870 C   0  0  0  0  0  0
  -27.8530   53.6250   12.8140 O   0  0  0  0  0  0
  -26.7530   55.5990   10.4130 C   0  0  0  0  0  0
  -25.6450   54.5370   10.5390 C   0  0  0  0  0  0
  -25.1530   54.1020    9.1590 C   0  0  0  0  0  0
  -23.7230   53.5660    9.1590 C   0  0  0  0  0  0
  -23.4220   52.4890   10.1330 N   0  3  0  0  0  0
  -29.2060   53.9610   11.0440 N   0  0  0  0  0  0
  -29.7790   52.6270   11.0780 C   0  0  2  0  0  0
  -28.9110   51.9170   10.0360 C   0  0  0  0  0  0
  -28.6380   52.4810    8.9700 O   0  0  0  0  0  0
  -31.2380   52.6420   10.6160 C   0  0  0  0  0  0
  -32.2720   52.7650   11.7450 C   0  0  0  0  0  0
  -32.2560   51.5640   12.6880 C   0  0  0  0  0  0
  -31.4180   51.4740   13.5770 O   0  0  0  0  0  0
  -33.1780   50.6320   12.4790 N   0  0  0  0  0  0
  -28.4490   50.7100   10.3470 N   0  0  0  0  0  0
  -27.6220   49.9580    9.4120 C   0  0  2  0  0  0
  -28.5120   49.4050    8.3000 C   0  0  0  0  0  0
  -29.6590   49.0200    8.5400 O   0  0  0  0  0  0
  -26.8970   48.8030   10.1290 C   0  0  0  0  0  0
  -25.8510   49.2950   11.1370 C   0  0  0  0  0  0
  -25.3140   50.3930   11.0010 O   0  0  0  0  0  0
  -25.5540   48.4760   12.1410 N   0  0  0  0  0  0
  -27.9890   49.3770    7.0800 N   0  0  0  0  0  0
  -28.7530   48.8680    5.9460 C   0  0  2  0  0  0
  -28.8570   47.3370    6.0060 C   0  0  0  0  0  0
  -27.8500   46.6620    6.2250 O   0  0  0  0  0  0
  -28.0870   49.2960    4.6290 C   0  0  0  0  0  0
  -30.0520   46.7740    5.8160 N   0  0  0  0  0  0
  -31.1330   47.5320    5.4900 C   0  0  0  0  0  0
  -30.1570   45.3120    5.8480 C   0  0  1  0  0  0
  -31.5480   44.8610    6.3140 C   0  0  0  0  0  0
  -29.8580   44.7360    4.4650 C   0  0  0  0  0  0
  -30.3810   45.2140    3.4560 O   0  0  0  0  0  0
  -29.0080   43.7190    4.4270 N   0  0  0  0  0  0
  -28.6380   43.0700    3.1770 C   0  0  2  0  0  0
  -29.7520   42.1270    2.7230 C   0  0  0  0  0  0
  -30.3540   41.4380    3.5490 O   0  0  0  0  0  0
  -27.3330   42.2860    3.3600 C   0  0  0  0  0  0
  -30.0150   42.1180    1.4140 N   0  0  0  0  0  0
  -31.0360   41.2670    0.7950 C   0  0  2  0  0  0
  -30.4240   39.9150    0.4740 C   0  0  0  0  0  0
  -29.1810   39.8000    0.5550 O   0  0  0  0  0  0
  -31.5190   41.8560   -0.5320 C   0  0  0  0  0  0
  -32.2400   43.1910   -0.6460 C   0  0  0  0  0  0
  -32.1910   43.6230   -2.0940 C   0  0  0  0  0  0
  -33.6730   43.0710   -0.1710 C   0  0  0  0  0  0
  -31.1459   38.9390    0.1365 O   0  5  0  0  0  0
  -23.9069   62.0404   19.0698 H   0  0  0  0  0  0
  -24.5382   63.5220   18.2742 H   0  0  0  0  0  0
  -23.2158   62.5823   17.5028 H   0  0  0  0  0  0
  -25.1745   63.0157   15.7184 H   0  0  0  0  0  0
  -27.4336   61.2563   16.0784 H   0  0  0  0  0  0
  -25.9451   62.1757   13.5379 H   0  0  0  0  0  0
  -27.5177   61.3093   13.4827 H   0  0  0  0  0  0
  -29.4360   62.3920   14.9000 H   0  0  0  0  0  0
  -25.9295   64.4563   13.5455 H   0  0  0  0  0  0
  -30.6545   64.5533   15.0557 H   0  0  0  0  0  0
  -27.1360   66.6212   13.6912 H   0  0  0  0  0  0
  -29.5056   66.6728   14.4473 H   0  0  0  0  0  0
  -27.9917   59.2005   15.2480 H   0  0  0  0  0  0
  -25.5124   57.5858   14.4992 H   0  0  0  0  0  0
  -26.5284   55.5867   15.7254 H   0  0  0  0  0  0
  -24.8990   57.0580   16.8630 H   0  0  0  0  0  0
  -26.1088   56.3732   18.0007 H   0  0  0  0  0  0
  -26.2512   58.0798   17.4583 H   0  0  0  0  0  0
  -28.8879   56.2943   15.5071 H   0  0  0  0  0  0
  -28.5837   57.6331   16.6654 H   0  0  0  0  0  0
  -28.4413   55.9266   17.2078 H   0  0  0  0  0  0
  -25.8926   55.8563   12.9643 H   0  0  0  0  0  0
  -28.4664   56.4502   11.5150 H   0  0  0  0  0  0
  -27.3550   55.3324    9.5318 H   0  0  0  0  0  0
  -26.2549   56.5641   10.2384 H   0  0  0  0  0  0
  -24.7980   54.9558   11.1023 H   0  0  0  0  0  0
  -26.0388   53.6573   11.0692 H   0  0  0  0  0  0
  -25.8027   53.3026    8.7733 H   0  0  0  0  0  0
  -25.1812   54.9608    8.4722 H   0  0  0  0  0  0
  -23.4871   53.1506    8.1681 H   0  0  0  0  0  0
  -23.0247   54.3842    9.3892 H   0  0  0  0  0  0
  -22.3678   52.1905   10.0354 H   0  0  0  0  0  0
  -24.0687   51.6221    9.9325 H   0  0  0  0  0  0
  -23.6063   52.8556   11.1536 H   0  0  0  0  0  0
  -29.5645   54.6950   10.3073 H   0  0  0  0  0  0
  -29.7671   52.2050   12.0938 H   0  0  0  0  0  0
  -31.4009   53.4971    9.9435 H   0  0  0  0  0  0
  -31.4630   51.7072   10.0816 H   0  0  0  0  0  0
  -32.0594   53.6652   12.3404 H   0  0  0  0  0  0
  -33.2803   52.8415   11.3120 H   0  0  0  0  0  0
  -33.9109   50.7555   11.6681 H   0  0  0  0  0  0
  -33.2090   49.7363   13.1167 H   0  0  0  0  0  0
  -28.7001   50.2801   11.3279 H   0  0  0  0  0  0
  -26.8846   50.6687    9.0106 H   0  0  0  0  0  0
  -27.6308   48.1929   10.6760 H   0  0  0  0  0  0
  -26.3806   48.1770    9.3864 H   0  0  0  0  0  0
  -26.0590   47.5023   12.2243 H   0  0  0  0  0  0
  -24.8032   48.7719   12.8885 H   0  0  0  0  0  0
  -26.9632   49.7453    6.9312 H   0  0  0  0  0  0
  -29.7533   49.3161    6.0388 H   0  0  0  0  0  0
  -28.0162   50.3931    4.5936 H   0  0  0  0  0  0
  -28.6899   48.9399    3.7806 H   0  0  0  0  0  0
  -27.0782   48.8613    4.5701 H   0  0  0  0  0  0
  -30.8572   48.5964    5.5210 H   0  0  0  0  0  0
  -31.9440   47.3422    6.2085 H   0  0  0  0  0  0
  -31.4721   47.2704    4.4768 H   0  0  0  0  0  0
  -29.4013   44.9789    6.5746 H   0  0  0  0  0  0
  -31.7548   45.2800    7.3098 H   0  0  0  0  0  0
  -31.5795   43.7626    6.3646 H   0  0  0  0  0  0
  -32.3067   45.2171    5.6016 H   0  0  0  0  0  0
  -28.5790   43.3678    5.3771 H   0  0  0  0  0  0
  -28.5038   43.8782    2.4430 H   0  0  0  0  0  0
  -26.5366   42.9709    3.6866 H   0  0  0  0  0  0
  -27.0478   41.8207    2.4049 H   0  0  0  0  0  0
  -27.4785   41.5040    4.1198 H   0  0  0  0  0  0
  -29.4150   42.7984    0.7918 H   0  0  0  0  0  0
  -31.8544   41.2044    1.5273 H   0  0  0  0  0  0
  -30.6597   42.0009   -1.2032 H   0  0  0  0  0  0
  -32.2372   41.1663   -0.9995 H   0  0  0  0  0  0
  -31.7510   43.9456   -0.0124 H   0  0  0  0  0  0
  -31.1427   43.7036   -2.4173 H   0  0  0  0  0  0
  -32.6842   44.6003   -2.2019 H   0  0  0  0  0  0
  -32.7105   42.8794   -2.7162 H   0  0  0  0  0  0
  -33.6848   42.7562    0.8829 H   0  0  0  0  0  0
  -34.2007   42.3244   -0.7826 H   0  0  0  0  0  0
  -34.1743   44.0453   -0.2683 H   0  0  0  0  0  0
  1  2  2  0  0  0
  1  3  1  0  0  0
  1  4  1  0  0  0
  3 73  1  0  0  0
  3 74  1  0  0  0
  3 75  1  0  0  0
  4  5  1  0  0  0
  4 76  1  0  0  0
  5  6  1  0  0  0
  5  8  1  0  0  0
  5 77  1  0  0  0
  6  7  2  0  0  0
  6 15  1  0  0  0
  8  9  1  0  0  0
  8 78  1  0  0  0
  8 79  1  0  0  0
  9 10  2  0  0  0
  9 11  1  0  0  0
 10 12  1  0  0  0
 10 80  1  0  0  0
 11 13  2  0  0  0
 11 81  1  0  0  0
 12 14  2  0  0  0
 12 82  1  0  0  0
 13 14  1  0  0  0
 13 83  1  0  0  0
 14 84  1  0  0  0
 15 16  1  0  0  0
 15 85  1  0  0  0
 16 17  1  0  0  0
 16 19  1  0  0  0
 16 86  1  0  0  0
 17 18  2  0  0  0
 17 22  1  0  0  0
 19 20  1  0  0  0
 19 21  1  0  0  0
 19 87  1  0  0  0
 20 88  1  0  0  0
 20 89  1  0  0  0
 20 90  1  0  0  0
 21 91  1  0  0  0
 21 92  1  0  0  0
 21 93  1  0  0  0
 22 23  1  0  0  0
 22 94  1  0  0  0
 23 24  1  0  0  0
 23 26  1  0  0  0
 23 95  1  0  0  0
 24 25  2  0  0  0
 24 31  1  0  0  0
 26 27  1  0  0  0
 26 96  1  0  0  0
 26 97  1  0  0  0
 27 28  1  0  0  0
 27 98  1  0  0  0
 27 99  1  0  0  0
 28 29  1  0  0  0
 28100  1  0  0  0
 28101  1  0  0  0
 29 30  1  0  0  0
 29102  1  0  0  0
 29103  1  0  0  0
 30104  1  0  0  0
 30105  1  0  0  0
 30106  1  0  0  0
 31 32  1  0  0  0
 31107  1  0  0  0
 32 33  1  0  0  0
 32 35  1  0  0  0
 32108  1  0  0  0
 33 34  2  0  0  0
 33 40  1  0  0  0
 35 36  1  0  0  0
 35109  1  0  0  0
 35110  1  0  0  0
 36 37  1  0  0  0
 36111  1  0  0  0
 36112  1  0  0  0
 37 38  2  0  0  0
 37 39  1  0  0  0
 39113  1  0  0  0
 39114  1  0  0  0
 40 41  1  0  0  0
 40115  1  0  0  0
 41 42  1  0  0  0
 41 44  1  0  0  0
 41116  1  0  0  0
 42 43  2  0  0  0
 42 48  1  0  0  0
 44 45  1  0  0  0
 44117  1  0  0  0
 44118  1  0  0  0
 45 46  2  0  0  0
 45 47  1  0  0  0
 47119  1  0  0  0
 47120  1  0  0  0
 48 49  1  0  0  0
 48121  1  0  0  0
 49 50  1  0  0  0
 49 52  1  0  0  0
 49122  1  0  0  0
 50 51  2  0  0  0
 50 53  1  0  0  0
 52123  1  0  0  0
 52124  1  0  0  0
 52125  1  0  0  0
 53 54  1  0  0  0
 53 55  1  0  0  0
 54126  1  0  0  0
 54127  1  0  0  0
 54128  1  0  0  0
 55 56  1  0  0  0
 55 57  1  0  0  0
 55129  1  0  0  0
 56130  1  0  0  0
 56131  1  0  0  0
 56132  1  0  0  0
 57 58  2  0  0  0
 57 59  1  0  0  0
 59 60  1  0  0  0
 59133  1  0  0  0
 60 61  1  0  0  0
 60 63  1  0  0  0
 60134  1  0  0  0
 61 62  2  0  0  0
 61 64  1  0  0  0
 63135  1  0  0  0
 63136  1  0  0  0
 63137  1  0  0  0
 64 65  1  0  0  0
 64138  1  0  0  0
 65 66  1  0  0  0
 65 68  1  0  0  0
 65139  1  0  0  0
 66 67  2  0  0  0
 66 72  1  0  0  0
 68 69  1  0  0  0
 68140  1  0  0  0
 68141  1  0  0  0
 69 70  1  0  0  0
 69 71  1  0  0  0
 69142  1  0  0  0
 70143  1  0  0  0
 70144  1  0  0  0
 70145  1  0  0  0
 71146  1  0  0  0
 71147  1  0  0  0
 71148  1  0  0  0
M  CHG  2  30   1  72  -1
M  END
> <s_m_source_file>
../1pyw_ligand.sdf

> <i_m_source_file_index>
1

> <s_epik_input>
W2NIXTFbY0hdW2NIXVtjSF1bY0hdYzFbQ0gyXVtDQEhdKFtOSF1DKD1PKVtDSDNdKUMoPU8pW05IXVtDQEBIXShbQ0hdKFtDSDNdKVtDSDNdKUMoPU8pW05IXVtDQEBIXShbQ0gyXVtDSDJdW0NIMl1bQ0gyXVtOSDMrXSlDKD1PKVtOSF1bQ0BASF0oW0NIMl1bQ0gyXUMoPU8pW05IMl0pQyg9TylbTkhdW0NAQEhdKFtDSDJdQyg9TylbTkgyXSlDKD1PKVtOSF1bQ0BASF0oW0NIM10pQyg9TylOKFtDSDNdKVtDQEBIXShbQ0gzXSlDKD1PKVtOSF1bQ0BASF0oW0NIM10pQyg9TylbTkhdW0NASF0oQyg9TylbT0hdKVtDSDJdW0NIXShbQ0gzXSlbQ0gzXQ==

> <s_epik_cmdline>
J2VwaWtfYXBwJywgJy1pbWFlJywgJ2xpZ2FuZF9wcm8ubWFlJywgJy1vbWFlJywgJ2xpZ2FuZF9wcmVwLm1hZScsICctbXMnLCAnMScsICctcGgnLCAnNycsICctcGh0JywgJzAuNScsICctbnQn

> <r_lp_tautomer_probability>
1

> <r_epik_Ionization_Penalty>
  0.0006

> <r_epik_Ionization_Penalty_Charging>
  0.0006

> <r_epik_Ionization_Penalty_Neutral>
  0.0000

> <r_epik_State_Penalty>
 -0.0000

> <r_epik_Charging_Adjusted_Penalty>
0.000639136986192388

> <i_epik_Tot_Q>
0

> <i_epik_Tot_abs_Q>
2

$$$$
