1pzi_ligand
                    3D
 Schrodinger Suite 2020-3.
 40 41  0  0  1  0            999 V2000
   53.1120   23.4760   33.0890 C   0  0  0  0  0  0
   53.6590   24.0000   34.0510 O   0  0  0  0  0  0
   52.7570   21.9970   33.1180 C   0  0  0  0  0  0
   53.0540   21.1930   34.2190 C   0  0  0  0  0  0
   52.1330   21.4610   32.0080 C   0  0  0  0  0  0
   51.7910   20.1200   31.9920 C   0  0  0  0  0  0
   51.1680   19.6300   30.9150 N   0  3  0  0  0  0
   51.0000   20.3680   29.9400 O   0  0  0  0  0  0
   50.7550   18.4660   30.9130 O   0  5  0  0  0  0
   52.0840   19.3170   33.0890 C   0  0  0  0  0  0
   52.7110   19.8410   34.2130 C   0  0  0  0  0  0
   52.9960   19.0290   35.2800 O   0  0  0  0  0  0
   51.9690   18.9770   36.2850 C   0  0  1  0  0  0
   50.7470   18.3950   35.7900 O   0  0  0  0  0  0
   50.9300   17.0310   35.3950 C   0  0  2  0  0  0
   49.6080   16.5440   34.8000 C   0  0  0  0  0  0
   49.2670   17.3850   33.6810 O   0  0  0  0  0  0
   51.4010   16.1700   36.5670 C   0  0  2  0  0  0
   50.3980   16.1370   37.6040 O   0  0  0  0  0  0
   52.6980   16.7200   37.1430 C   0  0  2  0  0  0
   53.0470   15.9880   38.3240 O   0  0  0  0  0  0
   52.5070   18.1990   37.4940 C   0  0  1  0  0  0
   53.7630   18.7340   37.8440 O   0  0  0  0  0  0
   52.1493   23.9730   32.8990 H   0  0  0  0  0  0
   53.7562   23.5737   32.2028 H   0  0  0  0  0  0
   53.9131   25.0699   34.0238 H   0  0  0  0  0  0
   53.5555   21.6226   35.0862 H   0  0  0  0  0  0
   51.9108   22.0922   31.1476 H   0  0  0  0  0  0
   51.8177   18.2603   33.0668 H   0  0  0  0  0  0
   51.6962   20.0172   36.5164 H   0  0  0  0  0  0
   51.7314   17.0186   34.6416 H   0  0  0  0  0  0
   49.7187   15.5024   34.4643 H   0  0  0  0  0  0
   48.8189   16.6010   35.5642 H   0  0  0  0  0  0
   48.3438   17.1974   33.1132 H   0  0  0  0  0  0
   51.5346   15.1301   36.2342 H   0  0  0  0  0  0
   49.3866   15.7675   37.3793 H   0  0  0  0  0  0
   53.5333   16.5755   36.4419 H   0  0  0  0  0  0
   53.2246   14.9039   38.2668 H   0  0  0  0  0  0
   51.8502   18.3189   38.3682 H   0  0  0  0  0  0
   53.8491   19.7920   38.1326 H   0  0  0  0  0  0
  1  2  1  0  0  0
  1  3  1  0  0  0
  1 24  1  0  0  0
  1 25  1  0  0  0
  2 26  1  0  0  0
  3  4  2  0  0  0
  3  5  1  0  0  0
  4 11  1  0  0  0
  4 27  1  0  0  0
  5  6  2  0  0  0
  5 28  1  0  0  0
  6  7  1  0  0  0
  6 10  1  0  0  0
  7  8  2  0  0  0
  7  9  1  0  0  0
 10 11  2  0  0  0
 10 29  1  0  0  0
 11 12  1  0  0  0
 12 13  1  0  0  0
 13 14  1  0  0  0
 13 22  1  0  0  0
 13 30  1  0  0  0
 14 15  1  0  0  0
 15 16  1  0  0  0
 15 18  1  0  0  0
 15 31  1  0  0  0
 16 17  1  0  0  0
 16 32  1  0  0  0
 16 33  1  0  0  0
 17 34  1  0  0  0
 18 19  1  0  0  0
 18 20  1  0  0  0
 18 35  1  0  0  0
 19 36  1  0  0  0
 20 21  1  0  0  0
 20 22  1  0  0  0
 20 37  1  0  0  0
 21 38  1  0  0  0
 22 23  1  0  0  0
 22 39  1  0  0  0
 23 40  1  0  0  0
M  CHG  2   7   1   9  -1
M  END
> <s_m_source_file>
../1pzi_ligand.sdf

> <i_m_source_file_index>
1

> <s_epik_input>
W09IXVtDSDJdYzFbY0hdYyhbY0hdYyhbY0hdMSlbTitdKD1PKVtPLV0pT1tDQEhdMk9bQ0BIXShbQ0gyXVtPSF0pW0NASF0oW09IXSlbQ0BIXShbT0hdKVtDQEhdMltPSF0=

> <s_epik_cmdline>
J2VwaWtfYXBwJywgJy1pbWFlJywgJ2xpZ2FuZF9wcm8ubWFlJywgJy1vbWFlJywgJ2xpZ2FuZF9wcmVwLm1hZScsICctbXMnLCAnMScsICctcGgnLCAnNycsICctcGh0JywgJzAuNScsICctbnQn

> <r_lp_tautomer_probability>
1

> <r_epik_Ionization_Penalty>
  0.0000

> <r_epik_Ionization_Penalty_Charging>
  0.0000

> <r_epik_Ionization_Penalty_Neutral>
  0.0000

> <r_epik_State_Penalty>
 -0.0000

> <r_epik_Charging_Adjusted_Penalty>
0

> <i_epik_Tot_Q>
0

> <i_epik_Tot_abs_Q>
2

> <s_epik_Chemistry_Notes>
This compound contains an acetal/aminal-like group ( X-CH(R)-Y where X, Y are N, S, or O) that may be acid/base labile, releasing an aldehyde.

$$$$
