1pzj_ligand
                    3D
 Schrodinger Suite 2020-3.
 76 78  0  0  1  0            999 V2000
  -10.9760   19.6570    1.9860 C   0  0  1  0  0  0
  -10.4630   19.4050    0.7320 O   0  0  0  0  0  0
  -10.9520   20.2910   -0.2710 C   0  0  0  0  0  0
  -10.6500   19.9520   -1.5700 C   0  0  0  0  0  0
  -11.1150   20.7800   -2.5730 C   0  0  0  0  0  0
  -10.8150   20.4610   -3.8340 N   0  3  0  0  0  0
  -11.2060   21.1640   -4.7400 O   0  0  0  0  0  0
  -10.1370   19.4710   -4.0820 O   0  5  0  0  0  0
  -11.8880   21.9110   -2.2760 C   0  0  0  0  0  0
  -12.2010   22.2330   -0.9470 C   0  0  0  0  0  0
  -11.7250   21.4040    0.0650 C   0  0  0  0  0  0
  -12.9540   23.3550   -0.5700 C   0  0  0  0  0  0
  -12.9790   24.3220   -1.3500 N   0  0  0  0  0  0
  -13.7200   25.5440   -1.1160 C   0  0  0  0  0  0
  -14.8290   25.4360   -2.1560 C   0  0  0  0  0  0
  -16.2040   25.1670   -1.5850 C   0  0  0  0  0  0
  -17.1010   25.8600   -2.1590 N   0  3  2  0  0  0
  -16.6480   27.2360   -2.3500 C   0  0  0  0  0  0
  -17.7300   28.0990   -2.9730 C   0  0  0  0  0  0
  -18.8690   28.1620   -2.0810 N   0  0  1  0  0  0
  -19.6530   29.0580   -2.3660 C   0  0  0  0  0  0
  -19.4070   30.1630   -1.7890 C   0  0  0  0  0  0
  -18.7040   31.2090   -2.6420 C   0  0  0  0  0  0
  -19.1070   32.5640   -2.2970 N   0  3  0  0  0  0
  -19.4290   26.8090   -2.0160 C   0  0  0  0  0  0
  -18.3840   25.8290   -1.4570 C   0  0  0  0  0  0
  -13.5190   23.4470    0.5270 O   0  0  0  0  0  0
  -10.6960   18.4020    2.7780 C   0  0  2  0  0  0
  -11.4640   17.3440    2.2180 O   0  0  0  0  0  0
  -11.0570   18.6920    4.2280 C   0  0  1  0  0  0
  -10.7090   17.5600    5.0010 O   0  0  0  0  0  0
  -10.3460   19.9500    4.7380 C   0  0  1  0  0  0
   -8.9530   19.6760    4.8630 O   0  0  0  0  0  0
  -10.6330   21.1250    3.8190 C   0  0  1  0  0  0
   -9.8630   22.3850    4.1990 C   0  0  0  0  0  0
  -10.2800   23.4870    3.3870 O   0  0  0  0  0  0
  -10.2610   20.7680    2.4880 O   0  0  0  0  0  0
  -12.0396   19.9363    1.9578 H   0  0  0  0  0  0
  -10.0646   19.0616   -1.7993 H   0  0  0  0  0  0
  -12.2491   22.5460   -3.0850 H   0  0  0  0  0  0
  -11.9533   21.6215    1.1084 H   0  0  0  0  0  0
  -12.3866   24.2055   -2.2695 H   0  0  0  0  0  0
  -14.0947   25.5533   -0.0818 H   0  0  0  0  0  0
  -13.0596   26.4093   -1.2745 H   0  0  0  0  0  0
  -14.8965   26.3784   -2.7193 H   0  0  0  0  0  0
  -14.6040   24.6108   -2.8477 H   0  0  0  0  0  0
  -16.4542   24.1039   -1.7167 H   0  0  0  0  0  0
  -16.2111   25.4153   -0.5134 H   0  0  0  0  0  0
  -17.1591   25.2942   -3.1005 H   0  0  0  0  0  0
  -16.3747   27.6704   -1.3771 H   0  0  0  0  0  0
  -15.7715   27.2446   -3.0146 H   0  0  0  0  0  0
  -17.3387   29.1132   -3.1409 H   0  0  0  0  0  0
  -18.0399   27.6619   -3.9337 H   0  0  0  0  0  0
  -19.6198   29.2433   -3.4498 H   0  0  0  0  0  0
  -20.6714   28.7601   -2.0760 H   0  0  0  0  0  0
  -20.3501   30.6200   -1.4548 H   0  0  0  0  0  0
  -18.7570   29.9859   -0.9194 H   0  0  0  0  0  0
  -17.6165   31.1296   -2.4972 H   0  0  0  0  0  0
  -18.9460   31.0409   -3.7018 H   0  0  0  0  0  0
  -18.5731   33.2800   -2.9391 H   0  0  0  0  0  0
  -18.8615   32.7625   -1.2433 H   0  0  0  0  0  0
  -20.1911   32.6737   -2.4479 H   0  0  0  0  0  0
  -20.3112   26.8085   -1.3590 H   0  0  0  0  0  0
  -19.7233   26.4851   -3.0252 H   0  0  0  0  0  0
  -18.8162   24.8199   -1.5274 H   0  0  0  0  0  0
  -18.2296   26.0888   -0.3993 H   0  0  0  0  0  0
   -9.6586   18.0434    2.7058 H   0  0  0  0  0  0
  -11.2987   17.0369    1.1748 H   0  0  0  0  0  0
  -12.1424   18.8174    4.3556 H   0  0  0  0  0  0
  -11.1384   16.5763    4.7601 H   0  0  0  0  0  0
  -10.6545   20.2288    5.7564 H   0  0  0  0  0  0
   -8.6104   18.8481    5.5011 H   0  0  0  0  0  0
  -11.7133   21.3306    3.8432 H   0  0  0  0  0  0
  -10.0526   22.6259    5.2554 H   0  0  0  0  0  0
   -8.7865   22.2161    4.0490 H   0  0  0  0  0  0
   -9.8242   24.4780    3.5287 H   0  0  0  0  0  0
  1  2  1  0  0  0
  1 28  1  0  0  0
  1 37  1  0  0  0
  1 38  1  0  0  0
  2  3  1  0  0  0
  3  4  2  0  0  0
  3 11  1  0  0  0
  4  5  1  0  0  0
  4 39  1  0  0  0
  5  6  1  0  0  0
  5  9  2  0  0  0
  6  7  2  0  0  0
  6  8  1  0  0  0
  9 10  1  0  0  0
  9 40  1  0  0  0
 10 11  2  0  0  0
 10 12  1  0  0  0
 11 41  1  0  0  0
 12 13  1  0  0  0
 12 27  2  0  0  0
 13 14  1  0  0  0
 13 42  1  0  0  0
 14 15  1  0  0  0
 14 43  1  0  0  0
 14 44  1  0  0  0
 15 16  1  0  0  0
 15 45  1  0  0  0
 15 46  1  0  0  0
 16 17  1  0  0  0
 16 47  1  0  0  0
 16 48  1  0  0  0
 17 18  1  0  0  0
 17 26  1  0  0  0
 17 49  1  0  0  0
 18 19  1  0  0  0
 18 50  1  0  0  0
 18 51  1  0  0  0
 19 20  1  0  0  0
 19 52  1  0  0  0
 19 53  1  0  0  0
 20 21  1  0  0  0
 20 25  1  0  0  0
 21 22  1  0  0  0
 21 54  1  0  0  0
 21 55  1  0  0  0
 22 23  1  0  0  0
 22 56  1  0  0  0
 22 57  1  0  0  0
 23 24  1  0  0  0
 23 58  1  0  0  0
 23 59  1  0  0  0
 24 60  1  0  0  0
 24 61  1  0  0  0
 24 62  1  0  0  0
 25 26  1  0  0  0
 25 63  1  0  0  0
 25 64  1  0  0  0
 26 65  1  0  0  0
 26 66  1  0  0  0
 28 29  1  0  0  0
 28 30  1  0  0  0
 28 67  1  0  0  0
 29 68  1  0  0  0
 30 31  1  0  0  0
 30 32  1  0  0  0
 30 69  1  0  0  0
 31 70  1  0  0  0
 32 33  1  0  0  0
 32 34  1  0  0  0
 32 71  1  0  0  0
 33 72  1  0  0  0
 34 35  1  0  0  0
 34 37  1  0  0  0
 34 73  1  0  0  0
 35 36  1  0  0  0
 35 74  1  0  0  0
 35 75  1  0  0  0
 36 76  1  0  0  0
M  CHG  4   6   1   8  -1  17   1  24   1
M  END
> <s_m_source_file>
../1pzj_ligand.sdf

> <i_m_source_file_index>
1

> <s_epik_input>
W09IXVtDSDJdW0NAQEhdKE8xKVtDQEhdKFtPSF0pW0NASF0oW09IXSlbQ0BASF0oW09IXSlbQ0BASF0xT2MyW2NIXWMoW04rXSg9TylbTy1dKVtjSF1jKFtjSF0yKUMoPU8pW05IXVtDSDJdW0NIMl1bQ0gyXVtOQEBIK10zW0NIMl1bQ0gyXVtOQEgrXShbQ0gyXVtDSDJdMylbQ0gyXVtDSDJdW0NIMl1bTkgzK10=

> <s_epik_cmdline>
J2VwaWtfYXBwJywgJy1pbWFlJywgJ2xpZ2FuZF9wcm8ubWFlJywgJy1vbWFlJywgJ2xpZ2FuZF9wcmVwLm1hZScsICctbXMnLCAnMScsICctcGgnLCAnNycsICctcGh0JywgJzAuNScsICctbnQn

> <r_lp_tautomer_probability>
1

> <r_epik_Ionization_Penalty>
  0.1111

> <r_epik_Ionization_Penalty_Charging>
  0.1108

> <r_epik_Ionization_Penalty_Neutral>
  0.0003

> <r_epik_State_Penalty>
  0.2503

> <r_epik_Charging_Adjusted_Penalty>
0.361115595157921

> <i_epik_Tot_Q>
2

> <i_epik_Tot_abs_Q>
4

> <s_epik_Chemistry_Notes>
This compound contains an acetal/aminal-like group ( X-CH(R)-Y where X, Y are N, S, or O) that may be acid/base labile, releasing an aldehyde.

$$$$
