1pzo_ligand
                    3D
 Schrodinger Suite 2020-3.
 35 37  0  0  1  0            999 V2000
    9.1350    8.4530   25.2140 Cl  0  0  0  0  0  0
    8.8000    9.4700   26.2660 C   0  0  0  0  0  0
    9.6450    9.6520   27.3900 C   0  0  0  0  0  0
    9.3940   10.7350   28.2740 C   0  0  0  0  0  0
    7.6900   10.3120   26.0430 C   0  0  0  0  0  0
    7.4660   11.3690   26.9360 C   0  0  0  0  0  0
    8.2870   11.5950   28.0490 C   0  0  0  0  0  0
    7.8910   12.6850   29.0640 C   0  0  0  0  0  0
    9.0410   13.1520   29.8690 N   0  0  0  0  0  0
    9.3430   12.5810   31.0400 C   0  0  0  0  0  0
   10.2850   13.0250   31.8840 N   0  0  0  0  0  0
   10.1760   12.2960   33.0710 N   0  0  0  0  0  0
    9.1100   11.3920   32.9230 N   0  0  0  0  0  0
    8.6300   11.6160   31.6310 N   0  3  0  0  0  0
    9.8450   14.2850   29.3500 C   0  0  0  0  0  0
    9.0720   15.6100   29.3930 C   0  0  0  0  0  0
    8.0720   15.8560   30.3550 C   0  0  0  0  0  0
    7.4740   17.1340   30.4050 C   0  0  0  0  0  0
    7.8170   18.1780   29.5270 C   0  0  0  0  0  0
    7.1960   19.5650   29.6790 Cl  0  0  0  0  0  0
    8.7760   17.9170   28.5480 C   0  0  0  0  0  0
    9.3960   16.6410   28.4970 C   0  0  0  0  0  0
   10.4756    8.9703   27.5731 H   0  0  0  0  0  0
   10.0519   10.9060   29.1260 H   0  0  0  0  0  0
    7.0231   10.1447   25.1972 H   0  0  0  0  0  0
    6.6242   12.0383   26.7586 H   0  0  0  0  0  0
    7.4775   13.5521   28.5282 H   0  0  0  0  0  0
    7.1336   12.2854   29.7544 H   0  0  0  0  0  0
   10.7538   14.3991   29.9592 H   0  0  0  0  0  0
   10.1264   14.0867   28.3053 H   0  0  0  0  0  0
    7.7655   15.0730   31.0486 H   0  0  0  0  0  0
    6.7102   17.3205   31.1599 H   0  0  0  0  0  0
    9.0475   18.6879   27.8268 H   0  0  0  0  0  0
   10.1517   16.4548   27.7338 H   0  0  0  0  0  0
    7.8040   11.1322   31.0891 H   0  0  0  0  0  0
  1  2  1  0  0  0
  2  3  2  0  0  0
  2  5  1  0  0  0
  3  4  1  0  0  0
  3 23  1  0  0  0
  4  7  2  0  0  0
  4 24  1  0  0  0
  5  6  2  0  0  0
  5 25  1  0  0  0
  6  7  1  0  0  0
  6 26  1  0  0  0
  7  8  1  0  0  0
  8  9  1  0  0  0
  8 27  1  0  0  0
  8 28  1  0  0  0
  9 10  1  0  0  0
  9 15  1  0  0  0
 10 11  2  0  0  0
 10 14  1  0  0  0
 11 12  1  0  0  0
 12 13  1  0  0  0
 13 14  2  0  0  0
 14 35  1  0  0  0
 15 16  1  0  0  0
 15 29  1  0  0  0
 15 30  1  0  0  0
 16 17  2  0  0  0
 16 22  1  0  0  0
 17 18  1  0  0  0
 17 31  1  0  0  0
 18 19  2  0  0  0
 18 32  1  0  0  0
 19 20  1  0  0  0
 19 21  1  0  0  0
 21 22  2  0  0  0
 21 33  1  0  0  0
 22 34  1  0  0  0
M  CHG  1  14   1
M  END
> <s_m_source_file>
../1pzo_ligand.sdf

> <i_m_source_file_index>
1

> <s_epik_input>
Q2xjMVtjSF1bY0hdYyhbY0hdW2NIXTEpW0NIMl1OKGMybltuSF1ubjIpW0NIMl1jM1tjSF1bY0hdYyhDbClbY0hdW2NIXTM=

> <s_epik_cmdline>
J2VwaWtfYXBwJywgJy1pbWFlJywgJ2xpZ2FuZF9wcm8ubWFlJywgJy1vbWFlJywgJ2xpZ2FuZF9wcmVwLm1hZScsICctbXMnLCAnMScsICctcGgnLCAnNycsICctcGh0JywgJzAuNScsICctbnQn

> <r_lp_tautomer_probability>
1

> <r_epik_Ionization_Penalty>
  0.0070

> <r_epik_Ionization_Penalty_Charging>
  0.0070

> <r_epik_Ionization_Penalty_Neutral>
  0.0000

> <r_epik_State_Penalty>
 -0.0000

> <r_epik_Charging_Adjusted_Penalty>
0.00696055728271699

> <i_epik_Tot_Q>
1

> <i_epik_Tot_abs_Q>
1

$$$$
