1pzp_ligand
                    3D
 Schrodinger Suite 2020-3.
 39 41  0  0  1  0            999 V2000
    1.4740   11.1940   20.3890 N   0  0  0  0  0  0
    2.2840   10.2420   21.0790 C   0  0  0  0  0  0
    3.6520   10.2270   20.9430 C   0  0  0  0  0  0
    4.3610    9.1780   21.4970 C   0  0  0  0  0  0
    3.7480    8.1610   22.2090 C   0  0  0  0  0  0
    2.3900    8.1850   22.3840 C   0  0  0  0  0  0
    1.6690    9.2440   21.8210 C   0  0  0  0  0  0
    1.9590   12.2360   19.5580 C   0  0  0  0  0  0
    1.3260   12.6180   18.3780 C   0  0  0  0  0  0
    1.6910   13.7760   17.6780 C   0  0  0  0  0  0
    2.9970   13.0220   20.0260 C   0  0  0  0  0  0
    3.3650   14.1810   19.3540 C   0  0  0  0  0  0
    2.7210   14.5700   18.1760 C   0  0  0  0  0  0
    2.9960   15.8650   17.6580 N   0  0  0  0  0  0
    4.2140   16.3070   17.2900 C   0  0  0  0  0  0
    4.3000   17.3120   16.3960 C   0  0  1  0  0  0
    5.0840   18.4900   16.6990 C   0  0  0  0  0  0
    5.7030   19.4010   17.1010 N   0  0  0  0  0  0
    3.5990   17.1930   15.0970 C   0  0  0  0  0  0
    4.0740   17.6320   13.8630 N   0  0  0  0  0  0
    3.0900   17.3690   12.9190 N   0  3  0  0  0  0
    2.0050   16.7740   13.5460 N   0  0  0  0  0  0
    2.3230   16.6540   14.8950 N   0  3  0  0  0  0
    0.3786   11.1534   20.4808 H   0  0  0  0  0  0
    4.1668   11.0259   20.4093 H   0  0  0  0  0  0
    5.4431    9.1503   21.3686 H   0  0  0  0  0  0
    4.3415    7.3478   22.6269 H   0  0  0  0  0  0
    1.8843    7.4003   22.9467 H   0  0  0  0  0  0
    0.5901    9.2861   21.9702 H   0  0  0  0  0  0
    0.5208   11.9965   17.9862 H   0  0  0  0  0  0
    1.1763   14.0511   16.7574 H   0  0  0  0  0  0
    3.5309   12.7293   20.9301 H   0  0  0  0  0  0
    4.1703   14.7980   19.7526 H   0  0  0  0  0  0
    2.1207   16.5249   17.5667 H   0  0  0  0  0  0
    4.7525   16.6771   18.1749 H   0  0  0  0  0  0
    4.7812   15.4821   16.8342 H   0  0  0  0  0  0
    3.4143   17.7862   16.8439 H   0  0  0  0  0  0
    3.2396   17.6106   11.9602 H   0  0  0  0  0  0
    1.6060   16.1928   15.5902 H   0  0  0  0  0  0
  1  2  1  0  0  0
  1  8  1  0  0  0
  1 24  1  0  0  0
  2  3  2  0  0  0
  2  7  1  0  0  0
  3  4  1  0  0  0
  3 25  1  0  0  0
  4  5  2  0  0  0
  4 26  1  0  0  0
  5  6  1  0  0  0
  5 27  1  0  0  0
  6  7  2  0  0  0
  6 28  1  0  0  0
  7 29  1  0  0  0
  8  9  2  0  0  0
  8 11  1  0  0  0
  9 10  1  0  0  0
  9 30  1  0  0  0
 10 13  2  0  0  0
 10 31  1  0  0  0
 11 12  2  0  0  0
 11 32  1  0  0  0
 12 13  1  0  0  0
 12 33  1  0  0  0
 13 14  1  0  0  0
 14 15  1  0  0  0
 14 34  1  0  0  0
 15 16  1  0  0  0
 15 35  1  0  0  0
 15 36  1  0  0  0
 16 17  1  0  0  0
 16 19  1  0  0  0
 16 37  1  0  0  0
 17 18  3  0  0  0
 19 20  2  0  0  0
 19 23  1  0  0  0
 20 21  1  0  0  0
 21 22  1  0  0  0
 21 38  1  0  0  0
 22 23  2  0  0  0
 23 39  1  0  0  0
M  CHG  2  21   1  23   1
M  END
> <s_m_source_file>
../1pzp_ligand.sdf

> <i_m_source_file_index>
1

> <s_epik_input>
W2NIXTFbY0hdW2NIXVtjSF1bY0hdYzFbTkhdYzJbY0hdW2NIXWMoW2NIXVtjSF0yKVtOSF1bQ0gyXVtDQEBIXShDI04pYzNuW25IXW5uMw==

> <s_epik_cmdline>
J2VwaWtfYXBwJywgJy1pbWFlJywgJ2xpZ2FuZF9wcm8ubWFlJywgJy1vbWFlJywgJ2xpZ2FuZF9wcmVwLm1hZScsICctbXMnLCAnMScsICctcGgnLCAnNycsICctcGh0JywgJzAuNScsICctbnQn

> <r_epik_Ionization_Penalty>
 13.4134

> <r_epik_Ionization_Penalty_Charging>
 13.4090

> <r_epik_Ionization_Penalty_Neutral>
  0.0044

> <r_epik_State_Penalty>
  0.0112

> <r_epik_Charging_Adjusted_Penalty>
13.4202551571851

> <i_epik_Tot_Q>
2

> <i_epik_Tot_abs_Q>
2

> <s_epik_Chemistry_Notes>
This compound has an imine and may undergo hydrolysis.

$$$$
