1q0b_ligand
                    3D
 Schrodinger Suite 2020-3.
 36 37  0  0  1  0            999 V2000
   18.9440   14.0740  112.2220 C   0  0  0  0  0  0
   17.9470   13.4400  111.3640 C   0  0  0  0  0  0
   16.9050   12.6140  111.9150 C   0  0  0  0  0  0
   16.8720   12.4480  113.3610 C   0  0  0  0  0  0
   17.8400   13.1070  114.2080 C   0  0  0  0  0  0
   18.9120   13.9210  113.6650 C   0  0  0  0  0  0
   18.0230   13.6040  109.8900 C   0  0  2  0  0  0
   19.3220   13.1940  109.3440 N   0  0  0  0  0  0
   20.2140   14.0440  108.7860 C   0  0  0  0  0  0
   19.8820   15.3390  108.6480 N   0  0  0  0  0  0
   18.5380   15.8290  108.9490 C   0  0  0  0  0  0
   17.6030   14.9940  109.4580 C   0  0  0  0  0  0
   15.9420   11.6470  113.9240 O   0  0  0  0  0  0
   16.1700   15.3890  109.6840 C   0  0  0  0  0  0
   15.8650   16.7060  109.6070 O   0  0  0  0  0  0
   14.5240   17.3280  109.7240 C   0  0  0  0  0  0
   14.6040   18.8410  109.4300 C   0  0  0  0  0  0
   18.3510   17.2970  108.6310 C   0  0  0  0  0  0
   15.3490   14.5470  109.9340 O   0  0  0  0  0  0
   21.6940   13.5190  108.2240 S   0  0  0  0  0  0
   19.7309   14.6764  111.7681 H   0  0  0  0  0  0
   16.1680   12.1307  111.2736 H   0  0  0  0  0  0
   17.7626   12.9890  115.2888 H   0  0  0  0  0  0
   19.6549   14.3932  114.3079 H   0  0  0  0  0  0
   17.3150   12.8846  109.4527 H   0  0  0  0  0  0
   19.6220   12.1361  109.3738 H   0  0  0  0  0  0
   20.6315   16.0648  108.2994 H   0  0  0  0  0  0
   15.1987   11.1387  113.2922 H   0  0  0  0  0  0
   13.8382   16.8592  109.0030 H   0  0  0  0  0  0
   14.1396   17.1816  110.7442 H   0  0  0  0  0  0
   13.6020   19.2857  109.5211 H   0  0  0  0  0  0
   14.9828   18.9966  108.4091 H   0  0  0  0  0  0
   15.2842   19.3190  110.1503 H   0  0  0  0  0  0
   19.2893   17.7077  108.2299 H   0  0  0  0  0  0
   18.0761   17.8387  109.5481 H   0  0  0  0  0  0
   17.5517   17.4114  107.8840 H   0  0  0  0  0  0
  1  6  2  0  0  0
  1  2  1  0  0  0
  1 21  1  0  0  0
  2  7  1  0  0  0
  2  3  2  0  0  0
  3  4  1  0  0  0
  3 22  1  0  0  0
  4 13  1  0  0  0
  4  5  2  0  0  0
  5  6  1  0  0  0
  5 23  1  0  0  0
  6 24  1  0  0  0
  7 12  1  0  0  0
  7  8  1  0  0  0
  7 25  1  0  0  0
  8  9  1  0  0  0
  8 26  1  0  0  0
  9 20  2  0  0  0
  9 10  1  0  0  0
 10 11  1  0  0  0
 10 27  1  0  0  0
 11 18  1  0  0  0
 11 12  2  0  0  0
 12 14  1  0  0  0
 13 28  1  0  0  0
 14 19  2  0  0  0
 14 15  1  0  0  0
 15 16  1  0  0  0
 16 17  1  0  0  0
 16 29  1  0  0  0
 16 30  1  0  0  0
 17 31  1  0  0  0
 17 32  1  0  0  0
 17 33  1  0  0  0
 18 34  1  0  0  0
 18 35  1  0  0  0
 18 36  1  0  0  0
M  END
> <s_m_source_file>
../1q0b_ligand.sdf

> <i_m_source_file_index>
1

> <s_epik_input>
W2NIXTFjKFtPSF0pW2NIXVtjSF1bY0hdYzFbQ0BASF0yW05IXUMoPVMpW05IXUMoW0NIM10pPUMyQyg9TylPW0NIMl1bQ0gzXQ==

> <s_epik_cmdline>
J2VwaWtfYXBwJywgJy1pbWFlJywgJ2xpZ2FuZF9wcm8ubWFlJywgJy1vbWFlJywgJ2xpZ2FuZF9wcmVwLm1hZScsICctbXMnLCAnMScsICctcGgnLCAnNycsICctcGh0JywgJzAuNScsICctbnQn

> <r_lp_tautomer_probability>
1

> <r_epik_Ionization_Penalty>
  0.0024

> <r_epik_Ionization_Penalty_Charging>
  0.0000

> <r_epik_Ionization_Penalty_Neutral>
  0.0024

> <r_epik_State_Penalty>
 -0.0000

> <r_epik_Charging_Adjusted_Penalty>
0

> <i_epik_Tot_Q>
0

> <i_epik_Tot_abs_Q>
0

> <s_epik_Chemistry_Notes>
This compound has an ester and may undergo hydrolysis at high or low pH.

$$$$
