1q1g_ligand
                    3D
 Schrodinger Suite 2020-3.
 36 38  0  0  1  0            999 V2000
   10.0600    1.4930   95.8060 C   0  0  0  0  0  0
    9.1690    0.7520   94.4400 S   0  0  0  0  0  0
    8.4420    2.2270   93.6690 C   0  0  0  0  0  0
    8.2100    2.0730   92.1670 C   0  0  1  0  0  0
    7.2450    3.0960   91.7510 N   0  0  1  0  0  0
    9.3560    3.7780   90.8520 C   0  0  2  0  0  0
    9.7040    3.9350   89.4300 O   0  0  0  0  0  0
    9.4870    2.2590   91.3320 C   0  0  2  0  0  0
    9.4770    1.3230   90.1740 O   0  0  0  0  0  0
    7.8870    4.2530   91.1400 C   0  0  2  0  0  0
    7.7120    5.4680   92.1150 C   0  0  0  0  0  0
    6.4840    5.9820   92.5230 C   0  0  0  0  0  0
    6.5410    7.0010   93.3410 N   0  3  0  0  0  0
    7.8920    7.2270   93.5320 C   0  0  0  0  0  0
    8.5660    8.2330   94.3350 C   0  0  0  0  0  0
    8.0270    9.1020   95.0270 O   0  0  0  0  0  0
    9.9960    8.1590   94.2860 N   0  0  0  0  0  0
   10.7160    7.2090   93.5330 C   0  0  0  0  0  0
   10.0740    6.2510   92.7650 N   0  0  0  0  0  0
    8.6570    6.3040   92.7940 C   0  0  0  0  0  0
   10.5668    0.7057   96.3833 H   0  0  0  0  0  0
    9.3534    2.0281   96.4574 H   0  0  0  0  0  0
   10.8069    2.2002   95.4160 H   0  0  0  0  0  0
    7.4684    2.4415   94.1338 H   0  0  0  0  0  0
    9.1144    3.0855   93.8135 H   0  0  0  0  0  0
    7.8081    1.0660   91.9816 H   0  0  0  0  0  0
    6.5497    2.6664   91.0148 H   0  0  0  0  0  0
   10.0911    4.4366   91.3376 H   0  0  0  0  0  0
   10.7029    3.6441   89.0729 H   0  0  0  0  0  0
   10.4170    1.9986   91.8586 H   0  0  0  0  0  0
    9.5596    0.2391   90.3422 H   0  0  0  0  0  0
    7.4124    4.5565   90.1952 H   0  0  0  0  0  0
    5.5499    5.5306   92.1573 H   0  0  0  0  0  0
   10.6037    8.8736   94.8605 H   0  0  0  0  0  0
   11.8056    7.2287   93.5556 H   0  0  0  0  0  0
    5.6133    7.4652   93.7068 H   0  0  0  0  0  0
  1  2  1  0  0  0
  1 21  1  0  0  0
  1 22  1  0  0  0
  1 23  1  0  0  0
  2  3  1  0  0  0
  3  4  1  0  0  0
  3 24  1  0  0  0
  3 25  1  0  0  0
  4  5  1  0  0  0
  4  8  1  0  0  0
  4 26  1  0  0  0
  5 10  1  0  0  0
  5 27  1  0  0  0
  6  7  1  0  0  0
  6  8  1  0  0  0
  6 10  1  0  0  0
  6 28  1  0  0  0
  7 29  1  0  0  0
  8  9  1  0  0  0
  8 30  1  0  0  0
  9 31  1  0  0  0
 10 11  1  0  0  0
 10 32  1  0  0  0
 11 12  2  0  0  0
 11 20  1  0  0  0
 12 13  1  0  0  0
 12 33  1  0  0  0
 13 14  1  0  0  0
 13 36  1  0  0  0
 14 15  1  0  0  0
 14 20  2  0  0  0
 15 16  2  0  0  0
 15 17  1  0  0  0
 17 18  1  0  0  0
 17 34  1  0  0  0
 18 19  2  0  0  0
 18 35  1  0  0  0
 19 20  1  0  0  0
M  CHG  1  13   1
M  END
> <s_m_source_file>
../1q1g_ligand.sdf

> <i_m_source_file_index>
1

> <s_epik_input>
W0NIM11TW0NIMl1bQ0BIXTFbTkgyK11bQ0BIXShbQ0BIXShbT0hdKVtDQEBIXTFbT0hdKWMoW2NIXVtuSF0yKWMoYzIzKW5bY0hdW25IXWMzPU8=

> <s_epik_cmdline>
J2VwaWtfYXBwJywgJy1pbWFlJywgJ2xpZ2FuZF9wcm8ubWFlJywgJy1vbWFlJywgJ2xpZ2FuZF9wcmVwLm1hZScsICctbXMnLCAnMScsICctcGgnLCAnNycsICctcGh0JywgJzAuNScsICctbnQn

> <r_epik_Ionization_Penalty>
  0.0442

> <r_epik_Ionization_Penalty_Charging>
  0.0000

> <r_epik_Ionization_Penalty_Neutral>
  0.0442

> <r_epik_State_Penalty>
  0.0372

> <r_epik_Charging_Adjusted_Penalty>
0.037170317773725

> <i_epik_Tot_Q>
1

> <i_epik_Tot_abs_Q>
1

$$$$
