1q1y_ligand
                    3D
 Schrodinger Suite 2020-3.
 60 60  0  0  1  0            999 V2000
  -17.7270  144.2480   43.5130 C   0  0  0  0  0  0
  -18.6200  143.4310   42.5920 C   0  0  0  0  0  0
  -19.8200  143.6990   42.5520 O   0  0  0  0  0  0
  -18.0370  142.4380   41.9150 N   0  0  0  0  0  0
  -18.6800  141.6450   41.1490 O   0  0  0  0  0  0
  -17.4860  143.6490   44.9310 C   0  0  2  0  0  0
  -16.7950  144.8090   45.6770 C   0  0  0  0  0  0
  -15.6450  145.1960   45.4100 O   0  0  0  0  0  0
  -16.6810  142.3310   44.8230 C   0  0  0  0  0  0
  -15.5580  141.8030   45.7250 C   0  0  0  0  0  0
  -15.9960  141.5950   47.1760 C   0  0  0  0  0  0
  -16.5630  140.2510   47.6350 C   0  0  0  0  0  0
  -16.9280  140.0640   49.1050 C   0  0  0  0  0  0
  -17.6040  145.3820   46.5740 N   0  0  0  0  0  0
  -17.3240  146.5820   47.3590 C   0  0  1  0  0  0
  -18.6180  147.3930   47.5810 C   0  0  0  0  0  0
  -19.4220  147.7030   46.3220 C   0  0  0  0  0  0
  -18.6370  148.5750   48.5620 C   0  0  0  0  0  0
  -16.4970  146.3220   48.6230 C   0  0  0  0  0  0
  -17.0430  145.6030   49.4690 O   0  0  0  0  0  0
  -15.3310  147.0020   48.8300 N   0  0  0  0  0  0
  -14.5450  147.0910   50.0710 C   0  0  1  0  0  0
  -14.6330  147.7740   47.7710 C   0  0  0  0  0  0
  -13.3660  148.3460   48.3630 C   0  0  0  0  0  0
  -13.2870  147.9190   49.7920 C   0  0  0  0  0  0
  -15.2650  147.7540   51.2560 C   0  0  0  0  0  0
  -15.9827  148.7778   51.0999 O   0  5  0  0  0  0
  -15.1347  147.2629   52.4090 O   0  0  0  0  0  0
  -16.7335  144.3615   43.0546 H   0  0  0  0  0  0
  -18.1735  145.2408   43.6708 H   0  0  0  0  0  0
  -16.9507  142.3202   42.0415 H   0  0  0  0  0  0
  -18.1478  140.8438   40.6153 H   0  0  0  0  0  0
  -18.3812  143.3344   45.4874 H   0  0  0  0  0  0
  -17.3686  141.4749   44.8894 H   0  0  0  0  0  0
  -16.1519  142.3024   43.8590 H   0  0  0  0  0  0
  -15.2058  140.8336   45.3427 H   0  0  0  0  0  0
  -14.7239  142.5201   45.7299 H   0  0  0  0  0  0
  -15.1375  141.7557   47.8447 H   0  0  0  0  0  0
  -16.7934  142.3108   47.4245 H   0  0  0  0  0  0
  -17.4958  140.0415   47.0909 H   0  0  0  0  0  0
  -15.8320  139.4552   47.4294 H   0  0  0  0  0  0
  -17.3178  139.0470   49.2595 H   0  0  0  0  0  0
  -17.6966  140.7982   49.3882 H   0  0  0  0  0  0
  -16.0327  140.2119   49.7268 H   0  0  0  0  0  0
  -18.5633  144.8574   46.6944 H   0  0  0  0  0  0
  -16.6464  147.1707   46.7231 H   0  0  0  0  0  0
  -19.1536  146.6185   48.1496 H   0  0  0  0  0  0
  -19.3878  146.8383   45.6429 H   0  0  0  0  0  0
  -18.9915  148.5815   45.8191 H   0  0  0  0  0  0
  -20.4664  147.9127   46.5963 H   0  0  0  0  0  0
  -18.0497  148.3189   49.4561 H   0  0  0  0  0  0
  -19.6749  148.7919   48.8548 H   0  0  0  0  0  0
  -18.2000  149.4606   48.0775 H   0  0  0  0  0  0
  -14.3585  146.0366   50.3229 H   0  0  0  0  0  0
  -14.3906  147.1070   46.9305 H   0  0  0  0  0  0
  -15.2861  148.5858   47.4183 H   0  0  0  0  0  0
  -12.4970  147.9664   47.8056 H   0  0  0  0  0  0
  -13.3932  149.4437   48.2966 H   0  0  0  0  0  0
  -13.2663  148.7915   50.4616 H   0  0  0  0  0  0
  -12.3945  147.3006   49.9679 H   0  0  0  0  0  0
  1  2  1  0  0  0
  1  6  1  0  0  0
  1 29  1  0  0  0
  1 30  1  0  0  0
  2  3  2  0  0  0
  2  4  1  0  0  0
  4  5  1  0  0  0
  4 31  1  0  0  0
  5 32  1  0  0  0
  6  7  1  0  0  0
  6  9  1  0  0  0
  6 33  1  0  0  0
  7  8  2  0  0  0
  7 14  1  0  0  0
  9 10  1  0  0  0
  9 34  1  0  0  0
  9 35  1  0  0  0
 10 11  1  0  0  0
 10 36  1  0  0  0
 10 37  1  0  0  0
 11 12  1  0  0  0
 11 38  1  0  0  0
 11 39  1  0  0  0
 12 13  1  0  0  0
 12 40  1  0  0  0
 12 41  1  0  0  0
 13 42  1  0  0  0
 13 43  1  0  0  0
 13 44  1  0  0  0
 14 15  1  0  0  0
 14 45  1  0  0  0
 15 16  1  0  0  0
 15 19  1  0  0  0
 15 46  1  0  0  0
 16 17  1  0  0  0
 16 18  1  0  0  0
 16 47  1  0  0  0
 17 48  1  0  0  0
 17 49  1  0  0  0
 17 50  1  0  0  0
 18 51  1  0  0  0
 18 52  1  0  0  0
 18 53  1  0  0  0
 19 20  2  0  0  0
 19 21  1  0  0  0
 21 22  1  0  0  0
 21 23  1  0  0  0
 22 25  1  0  0  0
 22 26  1  0  0  0
 22 54  1  0  0  0
 23 24  1  0  0  0
 23 55  1  0  0  0
 23 56  1  0  0  0
 24 25  1  0  0  0
 24 57  1  0  0  0
 24 58  1  0  0  0
 25 59  1  0  0  0
 25 60  1  0  0  0
 26 27  1  0  0  0
 26 28  2  0  0  0
M  CHG  1  27  -1
M  END
> <s_m_source_file>
../1q1y_ligand.sdf

> <i_m_source_file_index>
1

> <s_epik_input>
W0NIM11bQ0gyXVtDSDJdW0NIMl1bQ0gyXVtDQEhdKFtDSDJdQyg9TylbTkhdW09IXSlDKD1PKVtOSF1bQ0BASF0oW0NIXShbQ0gzXSlbQ0gzXSlDKD1PKU4xW0NASF0oQyg9TylbT0hdKVtDSDJdW0NIMl1bQ0gyXTE=

> <s_epik_cmdline>
J2VwaWtfYXBwJywgJy1pbWFlJywgJ2xpZ2FuZF9wcm8ubWFlJywgJy1vbWFlJywgJ2xpZ2FuZF9wcmVwLm1hZScsICctbXMnLCAnMScsICctcGgnLCAnNycsICctcGh0JywgJzAuNScsICctbnQn

> <r_lp_tautomer_probability>
1

> <r_epik_Ionization_Penalty>
  0.0059

> <r_epik_Ionization_Penalty_Charging>
  0.0004

> <r_epik_Ionization_Penalty_Neutral>
  0.0055

> <r_epik_State_Penalty>
 -0.0000

> <r_epik_Charging_Adjusted_Penalty>
0.000377853892407772

> <i_epik_Tot_Q>
-1

> <i_epik_Tot_abs_Q>
1

> <s_epik_Chemistry_Notes>
This compound has a N-S or N-O group and may undergo hydrolysis at high or low pH.

$$$$
