1q3d_ligand
                    3D
 Schrodinger Suite 2020-3.
 62 69  0  0  1  0            999 V2000
   37.4110   11.3740   33.2760 C   0  0  0  0  0  0
   36.4690   11.9420   32.4000 C   0  0  0  0  0  0
   36.2810   11.4040   31.0730 C   0  0  0  0  0  0
   37.0320   10.3000   30.6100 C   0  0  0  0  0  0
   38.0110    9.6980   31.4950 C   0  0  0  0  0  0
   38.8810    8.5890   31.3470 N   0  0  0  0  0  0
   39.5630    8.4540   32.5410 C   0  0  0  0  0  0
   40.5000    7.4290   32.9490 C   0  0  0  0  0  0
   41.0170    6.3890   32.2050 N   0  0  0  0  0  0
   41.8630    5.6530   33.0380 C   0  0  0  0  0  0
   42.6520    4.4930   32.6490 C   0  0  0  0  0  0
   43.4490    3.9950   33.7140 C   0  0  0  0  0  0
   43.4700    4.5600   35.0160 C   0  0  0  0  0  0
   42.6940    5.6880   35.3840 C   0  0  0  0  0  0
   41.8700    6.2410   34.3300 C   0  0  0  0  0  0
   41.0080    7.3750   34.2620 C   0  0  0  0  0  0
   40.5750    8.3860   35.1900 C   0  0  0  0  0  0
   40.9550    8.6580   36.5920 C   0  0  0  0  0  0
   40.1490    9.6710   37.0110 N   0  0  0  0  0  0
   39.3860   10.2770   35.9720 C   0  0  0  0  0  0
   39.6690    9.3810   34.7880 C   0  0  0  0  0  0
   39.1580    9.4250   33.4730 C   0  0  0  0  0  0
   38.1890   10.2330   32.8200 C   0  0  0  0  0  0
   39.0100    7.6130   30.1950 C   0  0  2  0  0  0
   38.0210    6.3510   30.3680 C   0  0  1  0  0  0
   38.5770    4.9940   29.7840 C   0  0  1  0  0  0
   39.9570    4.7650   30.4360 C   0  0  0  0  0  0
   40.7830    6.0300   30.8000 C   0  0  1  0  0  0
   40.4260    7.2110   30.1210 O   0  0  0  0  0  0
   41.8680    8.0920   37.2510 O   0  0  0  0  0  0
   37.5720    3.9090   29.9630 N   0  3  0  0  0  0
   36.4640    3.8880   28.9580 C   0  0  0  0  0  0
   37.9400    6.1060   31.8040 O   0  0  0  0  0  0
   36.6650    6.3720   32.4410 C   0  0  0  0  0  0
   38.8300    8.2060   28.7750 C   0  0  0  0  0  0
   37.5552   11.7808   34.2769 H   0  0  0  0  0  0
   35.8753   12.7962   32.7255 H   0  0  0  0  0  0
   35.5428   11.8600   30.4133 H   0  0  0  0  0  0
   36.8782    9.9075   29.6048 H   0  0  0  0  0  0
   42.6332    4.0552   31.6510 H   0  0  0  0  0  0
   44.0813    3.1285   33.5202 H   0  0  0  0  0  0
   44.1135    4.1049   35.7689 H   0  0  0  0  0  0
   42.7162    6.1090   36.3892 H   0  0  0  0  0  0
   40.0541   10.0325   38.0456 H   0  0  0  0  0  0
   38.3230   10.2856   36.2549 H   0  0  0  0  0  0
   39.7325   11.3094   35.8170 H   0  0  0  0  0  0
   37.0445    6.5778   29.9151 H   0  0  0  0  0  0
   38.7165    4.9609   28.6934 H   0  0  0  0  0  0
   39.8299    4.2131   31.3790 H   0  0  0  0  0  0
   40.5931    4.1826   29.7532 H   0  0  0  0  0  0
   41.7750    5.7425   30.4216 H   0  0  0  0  0  0
   38.0718    2.9315   29.8954 H   0  0  0  0  0  0
   37.0954    4.0097   30.9493 H   0  0  0  0  0  0
   35.7828    3.0535   29.1807 H   0  0  0  0  0  0
   36.8855    3.7584   27.9503 H   0  0  0  0  0  0
   35.9091    4.8367   29.0042 H   0  0  0  0  0  0
   36.7382    6.1482   33.5155 H   0  0  0  0  0  0
   35.8889    5.7386   31.9866 H   0  0  0  0  0  0
   36.4006    7.4310   32.3042 H   0  0  0  0  0  0
   37.7971    8.5649   28.6558 H   0  0  0  0  0  0
   39.0372    7.4292   28.0243 H   0  0  0  0  0  0
   39.5279    9.0449   28.6368 H   0  0  0  0  0  0
  1  2  2  0  0  0
  1 23  1  0  0  0
  1 36  1  0  0  0
  2  3  1  0  0  0
  2 37  1  0  0  0
  3  4  2  0  0  0
  3 38  1  0  0  0
  4  5  1  0  0  0
  4 39  1  0  0  0
  5  6  1  0  0  0
  5 23  2  0  0  0
  6  7  1  0  0  0
  6 24  1  0  0  0
  7  8  1  0  0  0
  7 22  2  0  0  0
  8  9  1  0  0  0
  8 16  2  0  0  0
  9 10  1  0  0  0
  9 28  1  0  0  0
 10 11  1  0  0  0
 10 15  2  0  0  0
 11 12  2  0  0  0
 11 40  1  0  0  0
 12 13  1  0  0  0
 12 41  1  0  0  0
 13 14  2  0  0  0
 13 42  1  0  0  0
 14 15  1  0  0  0
 14 43  1  0  0  0
 15 16  1  0  0  0
 16 17  1  0  0  0
 17 18  1  0  0  0
 17 21  2  0  0  0
 18 19  1  0  0  0
 18 30  2  0  0  0
 19 20  1  0  0  0
 19 44  1  0  0  0
 20 21  1  0  0  0
 20 45  1  0  0  0
 20 46  1  0  0  0
 21 22  1  0  0  0
 22 23  1  0  0  0
 24 25  1  0  0  0
 24 29  1  0  0  0
 24 35  1  0  0  0
 25 26  1  0  0  0
 25 33  1  0  0  0
 25 47  1  0  0  0
 26 27  1  0  0  0
 26 31  1  0  0  0
 26 48  1  0  0  0
 27 28  1  0  0  0
 27 49  1  0  0  0
 27 50  1  0  0  0
 28 29  1  0  0  0
 28 51  1  0  0  0
 31 32  1  0  0  0
 31 52  1  0  0  0
 31 53  1  0  0  0
 32 54  1  0  0  0
 32 55  1  0  0  0
 32 56  1  0  0  0
 33 34  1  0  0  0
 34 57  1  0  0  0
 34 58  1  0  0  0
 34 59  1  0  0  0
 35 60  1  0  0  0
 35 61  1  0  0  0
 35 62  1  0  0  0
M  CHG  1  31   1
M  END
> <s_m_source_file>
../1q3d_ligand.sdf

> <i_m_source_file_index>
1

> <s_epik_input>
W2NIXTFbY0hdW2NIXVtjSF1jKGMxbjJbQ0BdMzRbQ0gzXSljNWMyYzZuKFtDQEhdKE80KVtDSDJdW0NAQEhdKFtOSDIrXVtDSDNdKVtDQEhdM09bQ0gzXSljN2MoW2NIXVtjSF1bY0hdW2NIXTcpYzZjOGM1W0NIMl1bTkhdQzg9Tw==

> <s_epik_cmdline>
J2VwaWtfYXBwJywgJy1pbWFlJywgJ2xpZ2FuZF9wcm8ubWFlJywgJy1vbWFlJywgJ2xpZ2FuZF9wcmVwLm1hZScsICctbXMnLCAnMScsICctcGgnLCAnNycsICctcGh0JywgJzAuNScsICctbnQn

> <r_epik_Ionization_Penalty>
  0.0560

> <r_epik_Ionization_Penalty_Charging>
  0.0560

> <r_epik_Ionization_Penalty_Neutral>
  0.0000

> <r_epik_State_Penalty>
  0.0482

> <r_epik_Charging_Adjusted_Penalty>
0.104192696511962

> <i_epik_Tot_Q>
1

> <i_epik_Tot_abs_Q>
1

> <s_epik_Chemistry_Notes>
This compound contains an acetal/aminal-like group ( X-CH(R)-Y where X, Y are N, S, or O) that may be acid/base labile, releasing an aldehyde.

$$$$
