1q3w_ligand
                    3D
 Schrodinger Suite 2020-3.
 33 36  0  0  1  0            999 V2000
   24.1660  -19.5740    7.2620 N   0  0  0  0  0  0
   22.8120  -19.5350    7.1670 C   0  0  0  0  0  0
   21.9550  -19.2230    8.3870 C   0  0  0  0  0  0
   22.2480  -19.7300    6.0920 O   0  0  0  0  0  0
   24.8840  -18.1630    9.1830 C   0  0  0  0  0  0
   25.1210  -19.0570    8.0570 C   0  0  0  0  0  0
   26.3990  -19.7170    7.9560 C   0  0  0  0  0  0
   27.4280  -19.5100    8.9340 C   0  0  0  0  0  0
   27.1890  -18.6230   10.0500 C   0  0  0  0  0  0
   25.9240  -17.9590   10.1640 C   0  0  0  0  0  0
   23.4500  -16.2270    9.9560 N   0  3  0  0  0  0
   22.3050  -17.9560    9.1650 C   0  0  0  0  0  0
   23.6730  -17.4840    9.3890 C   0  0  0  0  0  0
   21.2910  -16.9330    9.4990 C   0  0  0  0  0  0
   22.1120  -15.7700   10.0390 C   0  0  0  0  0  0
   21.4350  -14.5800   10.4680 C   0  0  0  0  0  0
   20.0090  -14.4980   10.3860 C   0  0  0  0  0  0
   19.2200  -15.5950    9.8750 C   0  0  0  0  0  0
   19.8730  -16.8060    9.4370 C   0  0  0  0  0  0
   17.7250  -15.4840    9.7960 N   0  3  0  0  0  0
   17.1340  -14.4820   10.1540 O   0  0  0  0  0  0
   17.0590  -16.3970    9.3680 O   0  5  0  0  0  0
   24.7513  -20.1619    6.5396 H   0  0  0  0  0  0
   20.9062  -19.1034    8.0775 H   0  0  0  0  0  0
   22.0320  -20.0484    9.1100 H   0  0  0  0  0  0
   26.5875  -20.3881    7.1180 H   0  0  0  0  0  0
   28.3865  -20.0197    8.8359 H   0  0  0  0  0  0
   27.9644  -18.4605   10.7986 H   0  0  0  0  0  0
   25.7440  -17.2891   11.0048 H   0  0  0  0  0  0
   22.0075  -13.7378   10.8567 H   0  0  0  0  0  0
   19.5072  -13.5884   10.7161 H   0  0  0  0  0  0
   19.2744  -17.6327    9.0545 H   0  0  0  0  0  0
   24.2704  -15.5976   10.3312 H   0  0  0  0  0  0
  1  2  1  0  0  0
  1  6  1  0  0  0
  1 23  1  0  0  0
  2  3  1  0  0  0
  2  4  2  0  0  0
  3 12  1  0  0  0
  3 24  1  0  0  0
  3 25  1  0  0  0
  5 13  1  0  0  0
  5 10  2  0  0  0
  5  6  1  0  0  0
  6  7  2  0  0  0
  7  8  1  0  0  0
  7 26  1  0  0  0
  8  9  2  0  0  0
  8 27  1  0  0  0
  9 10  1  0  0  0
  9 28  1  0  0  0
 10 29  1  0  0  0
 11 15  1  0  0  0
 11 13  1  0  0  0
 11 33  1  0  0  0
 12 13  2  0  0  0
 12 14  1  0  0  0
 14 15  2  0  0  0
 14 19  1  0  0  0
 15 16  1  0  0  0
 16 17  2  0  0  0
 16 30  1  0  0  0
 17 18  1  0  0  0
 17 31  1  0  0  0
 18 19  2  0  0  0
 18 20  1  0  0  0
 19 32  1  0  0  0
 20 21  2  0  0  0
 20 22  1  0  0  0
M  CHG  3  11   1  20   1  22  -1
M  END
> <s_m_source_file>
../1q3w_ligand.sdf

> <i_m_source_file_index>
1

> <s_epik_input>
W2NIXTFbY0hdW2NIXVtjSF1jKGMxMilbTkhdQyg9TylbQ0gyXWMzYzJbbkhdYzRjM1tjSF1jKFtOK10oPU8pW08tXSlbY0hdW2NIXTQ=

> <s_epik_cmdline>
J2VwaWtfYXBwJywgJy1pbWFlJywgJ2xpZ2FuZF9wcm8ubWFlJywgJy1vbWFlJywgJ2xpZ2FuZF9wcmVwLm1hZScsICctbXMnLCAnMScsICctcGgnLCAnNycsICctcGh0JywgJzAuNScsICctbnQn

> <r_lp_tautomer_probability>
1

> <r_epik_Ionization_Penalty>
  0.0001

> <r_epik_Ionization_Penalty_Charging>
  0.0000

> <r_epik_Ionization_Penalty_Neutral>
  0.0001

> <r_epik_State_Penalty>
 -0.0000

> <r_epik_Charging_Adjusted_Penalty>
0

> <i_epik_Tot_Q>
1

> <i_epik_Tot_abs_Q>
3

$$$$
