1q4k_ligand
                    3D
 Schrodinger Suite 2020-3.
 98 98  0  0  1  0            999 V2000
   34.9380    3.8680  -44.4760 N   0  3  0  0  0  0
   33.6010    4.3520  -43.9920 C   0  0  2  0  0  0
   33.7660    5.3340  -42.8300 C   0  0  0  0  0  0
   34.7060    5.2240  -42.0540 O   0  0  0  0  0  0
   32.7790    3.1720  -43.5030 C   0  0  0  0  0  0
   32.0110    2.4230  -44.5500 C   0  0  0  0  0  0
   30.6480    1.5520  -43.7340 S   0  0  0  0  0  0
   29.4550    2.9190  -43.5180 C   0  0  0  0  0  0
   32.8350    6.2740  -42.7130 N   0  0  0  0  0  0
   32.8920    7.3390  -41.7090 C   0  0  2  0  0  0
   31.4920    7.6260  -41.1630 C   0  0  0  0  0  0
   30.4950    7.3220  -41.8110 O   0  0  0  0  0  0
   33.4500    8.6190  -42.3210 C   0  0  0  0  0  0
   32.6060    9.1390  -43.4760 C   0  0  0  0  0  0
   33.0380   10.5000  -44.0040 C   0  0  0  0  0  0
   32.2870   11.1290  -44.7530 O   0  0  0  0  0  0
   34.2480   10.9470  -43.6400 N   0  0  0  0  0  0
   31.4250    8.2440  -39.9890 N   0  0  0  0  0  0
   30.1500    8.5250  -39.3730 C   0  0  2  0  0  0
   29.5570    9.6860  -40.1900 C   0  0  0  0  0  0
   30.1870   10.1280  -41.1470 O   0  0  0  0  0  0
   30.3000    8.8220  -37.8670 C   0  0  0  0  0  0
   30.9920   10.0340  -37.6120 O   0  0  0  0  0  0
   28.3640   10.1550  -39.8270 N   0  0  0  0  0  0
   27.5940   11.1180  -40.6030 C   0  0  1  0  0  0
   26.2880   11.2140  -39.8170 C   0  0  1  0  0  0
   25.2910   12.1370  -40.4970 C   0  0  0  0  0  0
   25.7770    9.8780  -39.6770 O   0  0  0  0  0  0
   25.1750    9.2320  -38.3170 P   0  0  0  0  0  0
   24.4760   10.5580  -37.5410 O   0  5  0  0  0  0
   26.8050    8.9130  -38.0280 O   0  5  0  0  0  0
   24.2450    8.0580  -39.0800 O   0  0  0  0  0  0
   28.2950   12.4730  -40.7990 C   0  0  0  0  0  0
   28.7130   13.0820  -39.5910 O   0  0  0  0  0  0
   28.4680   13.0070  -42.0230 N   0  0  0  0  0  0
   29.1750   14.2930  -42.2390 C   0  0  2  0  0  0
   28.3920   15.5490  -41.8470 C   0  0  0  0  0  0
   27.1740   15.5010  -41.6770 O   0  0  0  0  0  0
   29.4380   14.2940  -43.7480 C   0  0  0  0  0  0
   28.3020   13.5050  -44.3210 C   0  0  0  0  0  0
   28.0300   12.4210  -43.3070 C   0  0  0  0  0  0
   29.1110   16.6590  -41.6930 N   0  0  0  0  0  0
   28.5220   17.9430  -41.3190 C   0  0  2  0  0  0
   27.6190   18.5090  -42.4280 C   0  0  0  0  0  0
   27.0550   17.7660  -43.2360 O   0  0  0  0  0  0
   29.6240   18.9670  -40.9920 C   0  0  0  0  0  0
   30.4160   18.7420  -39.7030 C   0  0  0  0  0  0
   31.7540   19.4620  -39.7570 C   0  0  0  0  0  0
   29.6390   19.1750  -38.4620 C   0  0  0  0  0  0
   27.4519   19.7550  -42.5132 O   0  5  0  0  0  0
   34.7936    3.1649  -45.3096 H   0  0  0  0  0  0
   35.4633    3.3594  -43.6542 H   0  0  0  0  0  0
   35.5361    4.7252  -44.8187 H   0  0  0  0  0  0
   33.1066    4.8478  -44.8404 H   0  0  0  0  0  0
   33.4426    2.4349  -43.0273 H   0  0  0  0  0  0
   32.0350    3.5212  -42.7719 H   0  0  0  0  0  0
   31.6167    3.1320  -45.2929 H   0  0  0  0  0  0
   32.6767    1.7026  -45.0480 H   0  0  0  0  0  0
   28.5490    2.5401  -43.0224 H   0  0  0  0  0  0
   29.1890    3.3324  -44.5020 H   0  0  0  0  0  0
   29.9088    3.7074  -42.8995 H   0  0  0  0  0  0
   31.9912    6.2265  -43.4171 H   0  0  0  0  0  0
   33.5579    6.9671  -40.9164 H   0  0  0  0  0  0
   33.4889    9.4058  -41.5533 H   0  0  0  0  0  0
   34.4636    8.4305  -42.7046 H   0  0  0  0  0  0
   32.6632    8.4340  -44.3184 H   0  0  0  0  0  0
   31.5599    9.2373  -43.1505 H   0  0  0  0  0  0
   34.8778   10.3447  -42.9687 H   0  0  0  0  0  0
   34.6113   11.9161  -44.0125 H   0  0  0  0  0  0
   32.3566    8.5424  -39.4859 H   0  0  0  0  0  0
   29.5159    7.6279  -39.4286 H   0  0  0  0  0  0
   29.3035    8.9010  -37.4079 H   0  0  0  0  0  0
   30.8614    8.0071  -37.3867 H   0  0  0  0  0  0
   31.1655   10.3608  -36.5761 H   0  0  0  0  0  0
   27.9654    9.7699  -38.8768 H   0  0  0  0  0  0
   27.4697   10.7503  -41.6322 H   0  0  0  0  0  0
   26.4429   11.6043  -38.8003 H   0  0  0  0  0  0
   25.7235   13.1448  -40.5823 H   0  0  0  0  0  0
   24.3681   12.1833  -39.9002 H   0  0  0  0  0  0
   25.0596   11.7511  -41.5008 H   0  0  0  0  0  0
   30.0615   14.3140  -41.5881 H   0  0  0  0  0  0
   29.4482   15.3300  -44.1177 H   0  0  0  0  0  0
   30.4110   13.8227  -43.9510 H   0  0  0  0  0  0
   27.4306   14.1624  -44.4566 H   0  0  0  0  0  0
   28.6002   13.0862  -45.2935 H   0  0  0  0  0  0
   28.6111   11.5096  -43.5113 H   0  0  0  0  0  0
   26.9608   12.1689  -43.2492 H   0  0  0  0  0  0
   30.1952   16.5792  -41.8607 H   0  0  0  0  0  0
   27.9167   17.7080  -40.4311 H   0  0  0  0  0  0
   30.3693   18.9745  -41.8010 H   0  0  0  0  0  0
   29.1777   19.9677  -40.8954 H   0  0  0  0  0  0
   30.5974   17.6600  -39.6229 H   0  0  0  0  0  0
   32.3058   19.1436  -40.6538 H   0  0  0  0  0  0
   32.3397   19.2152  -38.8592 H   0  0  0  0  0  0
   31.5845   20.5481  -39.7971 H   0  0  0  0  0  0
   28.6733   18.6491  -38.4320 H   0  0  0  0  0  0
   29.4644   20.2604  -38.4989 H   0  0  0  0  0  0
   30.2195   18.9274  -37.5611 H   0  0  0  0  0  0
  1  2  1  0  0  0
  1 51  1  0  0  0
  1 52  1  0  0  0
  1 53  1  0  0  0
  2  5  1  0  0  0
  2  3  1  0  0  0
  2 54  1  0  0  0
  3  4  2  0  0  0
  3  9  1  0  0  0
  5  6  1  0  0  0
  5 55  1  0  0  0
  5 56  1  0  0  0
  6  7  1  0  0  0
  6 57  1  0  0  0
  6 58  1  0  0  0
  7  8  1  0  0  0
  8 59  1  0  0  0
  8 60  1  0  0  0
  8 61  1  0  0  0
  9 10  1  0  0  0
  9 62  1  0  0  0
 10 13  1  0  0  0
 10 11  1  0  0  0
 10 63  1  0  0  0
 11 12  2  0  0  0
 11 18  1  0  0  0
 13 14  1  0  0  0
 13 64  1  0  0  0
 13 65  1  0  0  0
 14 15  1  0  0  0
 14 66  1  0  0  0
 14 67  1  0  0  0
 15 17  1  0  0  0
 15 16  2  0  0  0
 17 68  1  0  0  0
 17 69  1  0  0  0
 18 19  1  0  0  0
 18 70  1  0  0  0
 19 22  1  0  0  0
 19 20  1  0  0  0
 19 71  1  0  0  0
 20 21  2  0  0  0
 20 24  1  0  0  0
 22 23  1  0  0  0
 22 72  1  0  0  0
 22 73  1  0  0  0
 23 74  1  0  0  0
 24 25  1  0  0  0
 24 75  1  0  0  0
 25 26  1  0  0  0
 25 33  1  0  0  0
 25 76  1  0  0  0
 26 27  1  0  0  0
 26 28  1  0  0  0
 26 77  1  0  0  0
 27 78  1  0  0  0
 27 79  1  0  0  0
 27 80  1  0  0  0
 28 29  1  0  0  0
 29 30  1  0  0  0
 29 31  1  0  0  0
 29 32  2  0  0  0
 33 34  2  0  0  0
 33 35  1  0  0  0
 35 36  1  0  0  0
 35 41  1  0  0  0
 36 37  1  0  0  0
 36 39  1  0  0  0
 36 81  1  0  0  0
 37 38  2  0  0  0
 37 42  1  0  0  0
 39 40  1  0  0  0
 39 82  1  0  0  0
 39 83  1  0  0  0
 40 41  1  0  0  0
 40 84  1  0  0  0
 40 85  1  0  0  0
 41 86  1  0  0  0
 41 87  1  0  0  0
 42 43  1  0  0  0
 42 88  1  0  0  0
 43 46  1  0  0  0
 43 44  1  0  0  0
 43 89  1  0  0  0
 44 45  2  0  0  0
 44 50  1  0  0  0
 46 47  1  0  0  0
 46 90  1  0  0  0
 46 91  1  0  0  0
 47 48  1  0  0  0
 47 49  1  0  0  0
 47 92  1  0  0  0
 48 93  1  0  0  0
 48 94  1  0  0  0
 48 95  1  0  0  0
 49 96  1  0  0  0
 49 97  1  0  0  0
 49 98  1  0  0  0
M  CHG  4   1   1  30  -1  31  -1  50  -1
M  END
> <s_m_source_file>
../1q4k_ligand.sdf

> <i_m_source_file_index>
1

> <s_epik_input>
W0NIM11TW0NIMl1bQ0gyXVtDQEhdKFtOSDMrXSlDKD1PKVtOSF1bQ0BASF0oW0NIMl1bQ0gyXUMoPU8pW05IMl0pQyg9TylbTkhdW0NAQEhdKFtDSDJdW09IXSlDKD1PKVtOSF1bQ0BASF0oW0NAQEhdKFtDSDNdKU9QKD1PKShbT0hdKVtPSF0pQyg9TylOMVtDQEBIXShbQ0gyXVtDSDJdW0NIMl0xKUMoPU8pW05IXVtDQEhdKEMoPU8pW09IXSlbQ0gyXVtDSF0oW0NIM10pW0NIM10=

> <s_epik_cmdline>
J2VwaWtfYXBwJywgJy1pbWFlJywgJ2xpZ2FuZF9wcm8ubWFlJywgJy1vbWFlJywgJ2xpZ2FuZF9wcmVwLm1hZScsICctbXMnLCAnMScsICctcGgnLCAnNycsICctcGh0JywgJzAuNScsICctbnQn

> <r_lp_tautomer_probability>
1

> <r_epik_Ionization_Penalty>
  0.2465

> <r_epik_Ionization_Penalty_Charging>
  0.2465

> <r_epik_Ionization_Penalty_Neutral>
  0.0000

> <r_epik_State_Penalty>
 -0.0000

> <r_epik_Charging_Adjusted_Penalty>
0.246534707676404

> <i_epik_Tot_Q>
-2

> <i_epik_Tot_abs_Q>
4

$$$$
