1q4w_ligand
                    3D
 Schrodinger Suite 2020-3.
 21 22  0  0  1  0            999 V2000
   18.6410   17.3940   19.0900 C   0  0  0  0  0  0
   19.6860   17.6400   18.0540 N   0  0  0  0  0  0
   17.3550   16.9100   18.7030 C   0  0  0  0  0  0
   16.3530   16.6710   19.6710 C   0  0  0  0  0  0
   16.6130   16.9090   21.0600 C   0  0  0  0  0  0
   15.6060   16.6680   21.9970 N   0  0  0  0  0  0
   15.8180   16.8800   23.2760 C   0  0  0  0  0  0
   14.8440   16.6520   24.2460 N   0  0  0  0  0  0
   17.0830   17.3690   23.7750 N   0  0  0  0  0  0
   18.1780   17.6440   22.8740 C   0  0  0  0  0  0
   19.2450   18.0620   23.3400 O   0  0  0  0  0  0
   17.9170   17.4020   21.4480 C   0  0  0  0  0  0
   18.9190   17.6360   20.4540 C   0  0  0  0  0  0
   19.4645   17.4500   16.9934 H   0  0  0  0  0  0
   20.6780   18.0114   18.3507 H   0  0  0  0  0  0
   17.1435   16.7228   17.6502 H   0  0  0  0  0  0
   15.3757   16.3031   19.3587 H   0  0  0  0  0  0
   13.8517   16.2791   23.9521 H   0  0  0  0  0  0
   15.0673   16.8449   25.3057 H   0  0  0  0  0  0
   17.2212   17.5363   24.8534 H   0  0  0  0  0  0
   19.9017   18.0028   20.7504 H   0  0  0  0  0  0
  1  2  1  0  0  0
  1  3  2  0  0  0
  1 13  1  0  0  0
  2 14  1  0  0  0
  2 15  1  0  0  0
  3  4  1  0  0  0
  3 16  1  0  0  0
  4  5  2  0  0  0
  4 17  1  0  0  0
  5  6  1  0  0  0
  5 12  1  0  0  0
  6  7  2  0  0  0
  7  8  1  0  0  0
  7  9  1  0  0  0
  8 18  1  0  0  0
  8 19  1  0  0  0
  9 10  1  0  0  0
  9 20  1  0  0  0
 10 11  2  0  0  0
 10 12  1  0  0  0
 12 13  2  0  0  0
 13 21  1  0  0  0
M  END
> <s_m_source_file>
../1q4w_ligand.sdf

> <i_m_source_file_index>
1

> <s_epik_input>
W2NIXTFbY0hdYyhbTkgyXSlbY0hdYyhjMTIpYyg9TylbbkhdYyhuMilbTkgyXQ==

> <s_epik_cmdline>
J2VwaWtfYXBwJywgJy1pbWFlJywgJ2xpZ2FuZF9wcm8ubWFlJywgJy1vbWFlJywgJ2xpZ2FuZF9wcmVwLm1hZScsICctbXMnLCAnMScsICctcGgnLCAnNycsICctcGh0JywgJzAuNScsICctbnQn

> <r_lp_tautomer_probability>
1

> <r_epik_Ionization_Penalty>
  0.0075

> <r_epik_Ionization_Penalty_Charging>
  0.0073

> <r_epik_Ionization_Penalty_Neutral>
  0.0002

> <r_epik_State_Penalty>
 -0.0000

> <r_epik_Charging_Adjusted_Penalty>
0.00728768029766915

> <i_epik_Tot_Q>
0

> <i_epik_Tot_abs_Q>
0

$$$$
