1q4x_ligand
                    3D
 Schrodinger Suite 2020-3.
 51 53  0  0  1  0            999 V2000
   12.2610   25.0350   41.9740 C   0  0  0  0  0  0
   11.8490   23.9260   41.2090 C   0  0  0  0  0  0
   10.4950   23.5450   41.1850 C   0  0  0  0  0  0
    9.5510   24.2760   41.9330 C   0  0  0  0  0  0
    9.9600   25.3880   42.7010 C   0  0  0  0  0  0
   11.3220   25.7660   42.7210 C   0  0  0  0  0  0
   11.7900   26.9620   43.5630 C   0  0  0  0  0  0
   12.0580   26.4560   44.9790 C   0  0  0  0  0  0
   13.3650   26.0290   45.2950 C   0  0  0  0  0  0
   11.0620   26.3660   45.9430 C   0  0  0  0  0  0
    9.8160   26.8060   45.6220 O   0  0  0  0  0  0
   11.3450   25.8400   47.2250 C   0  0  0  0  0  0
   12.6590   25.4070   47.5420 C   0  0  0  0  0  0
   13.6730   25.5050   46.5700 C   0  0  0  0  0  0
   15.1510   25.1080   46.8520 C   0  0  0  0  0  0
   15.3310   23.8170   47.6910 C   0  0  0  0  0  0
   15.6600   23.8770   49.0750 C   0  0  0  0  0  0
   15.8330   25.2290   49.7750 C   0  0  0  0  0  0
   15.8420   22.7100   49.8270 C   0  0  0  0  0  0
   15.1950   22.5220   47.1100 C   0  0  0  0  0  0
   14.8310   22.3710   45.6230 C   0  0  0  0  0  0
   15.3830   21.3550   47.8790 C   0  0  0  0  0  0
   15.7040   21.4410   49.2330 C   0  0  0  0  0  0
   15.8690   20.2840   49.9540 O   0  0  0  0  0  0
   16.8550   20.4300   51.0060 C   0  0  0  0  0  0
   16.8960   19.1740   51.8690 C   0  0  0  0  0  0
   15.8770   18.8900   52.5430 O   0  5  0  0  0  0
   17.9490   18.4970   51.8570 O   0  0  0  0  0  0
   13.3112   25.3267   41.9864 H   0  0  0  0  0  0
   12.5822   23.3610   40.6335 H   0  0  0  0  0  0
   10.1777   22.6883   40.5905 H   0  0  0  0  0  0
    8.5015   23.9821   41.9188 H   0  0  0  0  0  0
    9.2275   25.9535   43.2769 H   0  0  0  0  0  0
   12.7085   27.3810   43.1261 H   0  0  0  0  0  0
   11.0048   27.7323   43.5741 H   0  0  0  0  0  0
   14.1501   26.1047   44.5427 H   0  0  0  0  0  0
    9.6174   27.2116   44.6190 H   0  0  0  0  0  0
   10.5531   25.7671   47.9704 H   0  0  0  0  0  0
   12.8812   25.0021   48.5293 H   0  0  0  0  0  0
   15.6740   24.9410   45.8988 H   0  0  0  0  0  0
   15.6487   25.9173   47.4065 H   0  0  0  0  0  0
   15.6579   26.0406   49.0534 H   0  0  0  0  0  0
   16.8551   25.3072   50.1739 H   0  0  0  0  0  0
   15.1102   25.3098   50.6002 H   0  0  0  0  0  0
   16.0935   22.7849   50.8849 H   0  0  0  0  0  0
   14.7202   23.3671   45.1697 H   0  0  0  0  0  0
   13.8839   21.8191   45.5316 H   0  0  0  0  0  0
   15.6287   21.8188   45.1045 H   0  0  0  0  0  0
   15.2764   20.3766   47.4105 H   0  0  0  0  0  0
   17.8470   20.5916   50.5589 H   0  0  0  0  0  0
   16.5927   21.2917   51.6374 H   0  0  0  0  0  0
  1  2  2  0  0  0
  1  6  1  0  0  0
  1 29  1  0  0  0
  2  3  1  0  0  0
  2 30  1  0  0  0
  3  4  2  0  0  0
  3 31  1  0  0  0
  4  5  1  0  0  0
  4 32  1  0  0  0
  5  6  2  0  0  0
  5 33  1  0  0  0
  6  7  1  0  0  0
  7  8  1  0  0  0
  7 34  1  0  0  0
  7 35  1  0  0  0
  8  9  2  0  0  0
  8 10  1  0  0  0
  9 14  1  0  0  0
  9 36  1  0  0  0
 10 11  1  0  0  0
 10 12  2  0  0  0
 11 37  1  0  0  0
 12 13  1  0  0  0
 12 38  1  0  0  0
 13 14  2  0  0  0
 13 39  1  0  0  0
 14 15  1  0  0  0
 15 16  1  0  0  0
 15 40  1  0  0  0
 15 41  1  0  0  0
 16 17  2  0  0  0
 16 20  1  0  0  0
 17 18  1  0  0  0
 17 19  1  0  0  0
 18 42  1  0  0  0
 18 43  1  0  0  0
 18 44  1  0  0  0
 19 23  2  0  0  0
 19 45  1  0  0  0
 20 21  1  0  0  0
 20 22  2  0  0  0
 21 46  1  0  0  0
 21 47  1  0  0  0
 21 48  1  0  0  0
 22 23  1  0  0  0
 22 49  1  0  0  0
 23 24  1  0  0  0
 24 25  1  0  0  0
 25 26  1  0  0  0
 25 50  1  0  0  0
 25 51  1  0  0  0
 26 27  1  0  0  0
 26 28  2  0  0  0
M  CHG  1  27  -1
M  END
> <s_m_source_file>
../1q4x_ligand.sdf

> <i_m_source_file_index>
1

> <s_epik_input>
W2NIXTFbY0hdW2NIXVtjSF1bY0hdYzFbQ0gyXWMyW2NIXWMoW2NIXVtjSF1jMltPSF0pW0NIMl1jM2MoW0NIM10pW2NIXWMoW2NIXWMzW0NIM10pT1tDSDJdQyg9TylbT0hd

> <s_epik_cmdline>
J2VwaWtfYXBwJywgJy1pbWFlJywgJ2xpZ2FuZF9wcm8ubWFlJywgJy1vbWFlJywgJ2xpZ2FuZF9wcmVwLm1hZScsICctbXMnLCAnMScsICctcGgnLCAnNycsICctcGh0JywgJzAuNScsICctbnQn

> <r_lp_tautomer_probability>
1

> <r_epik_Ionization_Penalty>
  0.0002

> <r_epik_Ionization_Penalty_Charging>
  0.0001

> <r_epik_Ionization_Penalty_Neutral>
  0.0002

> <r_epik_State_Penalty>
 -0.0000

> <r_epik_Charging_Adjusted_Penalty>
5.44951621730664e-05

> <i_epik_Tot_Q>
-1

> <i_epik_Tot_abs_Q>
1

$$$$
