1q54_ligand
                    3D
 Schrodinger Suite 2020-3.
 26 25  0  0  1  0            999 V2000
    9.3570   10.2090   13.0290 O   0  0  0  0  0  0
   11.8560    2.8650   10.9670 O   0  0  0  0  0  0
    9.8540    1.6410   10.8650 O   0  5  0  0  0  0
   10.9590    2.0290   12.9380 O   0  5  0  0  0  0
   10.6890    2.6520   11.6000 P   0  0  0  0  0  0
    9.9440    3.9800   11.7780 O   0  0  0  0  0  0
   11.0340    6.1220   11.5380 O   0  0  0  0  0  0
   11.7170    4.5940   13.2600 O   0  5  0  0  0  0
   10.6270    5.2160   12.4240 P   0  0  2  0  0  0
   10.3350    9.4300   15.3610 C   0  0  0  0  0  0
   11.0890    8.2680   13.3380 C   0  0  0  0  0  0
    8.8750    6.8560   13.0410 C   0  0  0  0  0  0
    8.7600    7.8970   14.1700 C   0  0  0  0  0  0
    9.8540    8.9860   13.9510 C   0  0  2  0  0  0
    9.6200    5.7080   13.4550 O   0  0  0  0  0  0
    8.7290    9.3740   16.2740 Br  0  0  0  0  0  0
   10.0408   11.0403   12.8025 H   0  0  0  0  0  0
   10.7408   10.4519   15.3952 H   0  0  0  0  0  0
   11.0481    8.7364   15.8305 H   0  0  0  0  0  0
   11.8909    9.0009   13.1652 H   0  0  0  0  0  0
   10.8056    7.8025   12.3825 H   0  0  0  0  0  0
   11.4444    7.4926   14.0325 H   0  0  0  0  0  0
    7.8689    6.5268   12.7420 H   0  0  0  0  0  0
    9.3851    7.3069   12.1770 H   0  0  0  0  0  0
    7.7613    8.3572   14.1440 H   0  0  0  0  0  0
    8.9108    7.4029   15.1411 H   0  0  0  0  0  0
  1 14  1  0  0  0
  1 17  1  0  0  0
  2  5  2  0  0  0
  3  5  1  0  0  0
  4  5  1  0  0  0
  5  6  1  0  0  0
  6  9  1  0  0  0
  7  9  2  0  0  0
  8  9  1  0  0  0
  9 15  1  0  0  0
 10 16  1  0  0  0
 10 14  1  0  0  0
 10 18  1  0  0  0
 10 19  1  0  0  0
 11 14  1  0  0  0
 11 20  1  0  0  0
 11 21  1  0  0  0
 11 22  1  0  0  0
 12 13  1  0  0  0
 12 15  1  0  0  0
 12 23  1  0  0  0
 12 24  1  0  0  0
 13 14  1  0  0  0
 13 25  1  0  0  0
 13 26  1  0  0  0
M  CHG  3   3  -1   4  -1   8  -1
M  END
> <s_m_source_file>
../1q54_ligand.sdf

> <i_m_source_file_index>
1

> <s_epik_input>
QnJbQ0gyXVtDQEBdKFtPSF0pKFtDSDNdKVtDSDJdW0NIMl1PW1BAQF0oPU8pKFtPSF0pT1AoPU8pKFtPSF0pW09IXQ==

> <s_epik_cmdline>
J2VwaWtfYXBwJywgJy1pbWFlJywgJ2xpZ2FuZF9wcm8ubWFlJywgJy1vbWFlJywgJ2xpZ2FuZF9wcmVwLm1hZScsICctbXMnLCAnMScsICctcGgnLCAnNycsICctcGh0JywgJzAuNScsICctbnQn

> <r_epik_Ionization_Penalty>
  0.0863

> <r_epik_Ionization_Penalty_Charging>
  0.0863

> <r_epik_Ionization_Penalty_Neutral>
  0.0000

> <r_epik_State_Penalty>
  0.0755

> <r_epik_Charging_Adjusted_Penalty>
0.161817728482781

> <i_epik_Tot_Q>
-3

> <i_epik_Tot_abs_Q>
3

$$$$
