1q5l_ligand
                    3D
 Schrodinger Suite 2020-3.
119118  0  0  1  0            999 V2000
   -6.6990    3.8330   11.8530 N   0  3  0  0  0  0
   -5.7250    4.9490   11.7270 C   0  0  2  0  0  0
   -5.3310    5.1730   10.2700 C   0  0  0  0  0  0
   -4.8900    6.2610    9.8970 O   0  0  0  0  0  0
   -4.4850    4.6140   12.5600 C   0  0  0  0  0  0
   -4.8100    4.3810   14.0240 C   0  0  0  0  0  0
   -5.9380    4.5970   14.4650 O   0  0  0  0  0  0
   -3.8150    3.9380   14.7860 N   0  0  0  0  0  0
   -5.4900    4.1370    9.4530 N   0  0  0  0  0  0
   -5.1490    4.2220    8.0380 C   0  0  2  0  0  0
   -6.1750    3.4860    7.1820 C   0  0  0  0  0  0
   -6.4000    2.2880    7.3570 O   0  0  0  0  0  0
   -3.7550    3.6400    7.7930 C   0  0  0  0  0  0
   -2.6260    4.5380    8.2750 C   0  0  0  0  0  0
   -2.1570    4.1440    9.6670 C   0  0  0  0  0  0
   -1.5700    5.2720   10.3870 N   0  0  0  0  0  0
   -0.2630    5.5190   10.4370 C   0  0  0  0  0  0
    0.5920    4.7250    9.8050 N   0  3  0  0  0  0
    0.1900    6.5640   11.1180 N   0  0  0  0  0  0
   -6.7940    4.2140    6.2580 N   0  0  0  0  0  0
   -7.7980    3.6360    5.3720 C   0  0  2  0  0  0
   -7.1840    3.2780    4.0190 C   0  0  0  0  0  0
   -6.0270    2.8710    3.9460 O   0  0  0  0  0  0
   -8.9640    4.6120    5.1880 C   0  0  0  0  0  0
  -10.2740    4.1940    5.8630 C   0  0  0  0  0  0
  -10.7500    2.8550    5.3240 C   0  0  0  0  0  0
  -10.1000    4.1340    7.3730 C   0  0  0  0  0  0
   -7.9620    3.4290    2.9500 N   0  0  0  0  0  0
   -7.4830    3.1180    1.6080 C   0  0  2  0  0  0
   -8.2970    3.8620    0.5550 C   0  0  0  0  0  0
   -9.3730    3.4150    0.1590 O   0  0  0  0  0  0
   -7.5500    1.6110    1.3550 C   0  0  0  0  0  0
   -6.2450    0.8490    1.6040 C   0  0  0  0  0  0
   -6.4630   -0.6480    1.4500 C   0  0  0  0  0  0
   -5.1550    1.3300    0.6560 C   0  0  0  0  0  0
   -7.7770    4.9990    0.1040 N   0  0  0  0  0  0
   -8.4560    5.8030   -0.9040 C   0  0  2  0  0  0
   -7.9010    5.5110   -2.2940 C   0  0  0  0  0  0
   -6.7510    5.0940   -2.4380 O   0  0  0  0  0  0
   -8.3110    7.2930   -0.5840 C   0  0  0  0  0  0
   -9.5910    8.1160   -0.7320 C   0  0  0  0  0  0
  -10.0610    8.6250    0.6220 C   0  0  0  0  0  0
   -9.3670    9.2750   -1.6900 C   0  0  0  0  0  0
   -8.7250    5.7290   -3.3130 N   0  0  0  0  0  0
   -8.3170    5.4860   -4.6910 C   0  0  2  0  0  0
   -8.1620    6.7940   -5.4590 C   0  0  0  0  0  0
   -8.3640    7.8770   -4.9090 O   0  0  0  0  0  0
   -9.3270    4.5840   -5.4250 C   0  0  2  0  0  0
  -10.5320    5.3110   -5.6920 O   0  0  0  0  0  0
   -9.6480    3.3470   -4.5970 C   0  0  0  0  0  0
   -7.8020    6.6860   -6.7360 N   0  0  0  0  0  0
   -7.6250    7.8670   -7.5610 C   0  0  0  0  0  0
   -7.8370    7.5820   -9.0340 C   0  0  0  0  0  0
   -7.8610    6.3900   -9.4110 O   0  5  0  0  0  0
   -7.9800    8.5490   -9.8120 O   0  0  0  0  0  0
   -7.5962    4.0605   11.2587 H   0  0  0  0  0  0
   -6.9804    3.7094   12.9092 H   0  0  0  0  0  0
   -6.2410    2.9033   11.4844 H   0  0  0  0  0  0
   -6.2157    5.8612   12.0972 H   0  0  0  0  0  0
   -4.0166    3.6989   12.1686 H   0  0  0  0  0  0
   -3.7683    5.4464   12.5018 H   0  0  0  0  0  0
   -2.8228    3.7594   14.3460 H   0  0  0  0  0  0
   -3.9838    3.7500   15.8566 H   0  0  0  0  0  0
   -5.8892    3.1994    9.8672 H   0  0  0  0  0  0
   -5.1697    5.2953    7.7978 H   0  0  0  0  0  0
   -3.6600    2.6806    8.3226 H   0  0  0  0  0  0
   -3.6090    3.4795    6.7146 H   0  0  0  0  0  0
   -1.7735    4.4578    7.5845 H   0  0  0  0  0  0
   -2.9750    5.5807    8.3071 H   0  0  0  0  0  0
   -3.0121    3.7719   10.2504 H   0  0  0  0  0  0
   -1.3958    3.3539    9.5875 H   0  0  0  0  0  0
   -2.2185    5.9760   10.9291 H   0  0  0  0  0  0
    0.2217    3.8575    9.2391 H   0  0  0  0  0  0
   -0.5145    7.2253   11.6436 H   0  0  0  0  0  0
    1.2700    6.7689   11.1568 H   0  0  0  0  0  0
   -6.5315    5.2787    6.1714 H   0  0  0  0  0  0
   -8.1445    2.7190    5.8711 H   0  0  0  0  0  0
   -8.6923    5.5913    5.6090 H   0  0  0  0  0  0
   -9.1843    4.7221    4.1159 H   0  0  0  0  0  0
  -11.0454    4.9447    5.6365 H   0  0  0  0  0  0
  -10.8690    2.9205    4.2324 H   0  0  0  0  0  0
  -11.7157    2.5972    5.7833 H   0  0  0  0  0  0
  -10.0098    2.0782    5.5662 H   0  0  0  0  0  0
   -9.7557    5.1116    7.7415 H   0  0  0  0  0  0
   -9.3563    3.3640    7.6261 H   0  0  0  0  0  0
  -11.0622    3.8830    7.8433 H   0  0  0  0  0  0
   -8.9880    3.7977    3.0961 H   0  0  0  0  0  0
   -6.4395    3.4648    1.5804 H   0  0  0  0  0  0
   -8.3058    1.1615    2.0158 H   0  0  0  0  0  0
   -7.8244    1.4272    0.3058 H   0  0  0  0  0  0
   -5.9145    1.0429    2.6351 H   0  0  0  0  0  0
   -7.2527   -0.9766    2.1417 H   0  0  0  0  0  0
   -5.5285   -1.1803    1.6809 H   0  0  0  0  0  0
   -6.7655   -0.8700    0.4160 H   0  0  0  0  0  0
   -5.0117    2.4134    0.7816 H   0  0  0  0  0  0
   -5.4515    1.1172   -0.3817 H   0  0  0  0  0  0
   -4.2144    0.8069    0.8832 H   0  0  0  0  0  0
   -6.8096    5.3289    0.5106 H   0  0  0  0  0  0
   -9.5127    5.5011   -0.8565 H   0  0  0  0  0  0
   -7.9789    7.4137    0.4577 H   0  0  0  0  0  0
   -7.5687    7.7427   -1.2599 H   0  0  0  0  0  0
  -10.3798    7.4714   -1.1470 H   0  0  0  0  0  0
  -10.2172    7.7729    1.2999 H   0  0  0  0  0  0
  -11.0062    9.1741    0.4993 H   0  0  0  0  0  0
   -9.2994    9.2961    1.0459 H   0  0  0  0  0  0
   -9.0280    8.8871   -2.6619 H   0  0  0  0  0  0
   -8.6021    9.9492   -1.2773 H   0  0  0  0  0  0
  -10.3088    9.8273   -1.8239 H   0  0  0  0  0  0
   -9.7370    6.1020   -3.0967 H   0  0  0  0  0  0
   -7.3423    4.9852   -4.5953 H   0  0  0  0  0  0
   -8.9350    4.2862   -6.4087 H   0  0  0  0  0  0
  -10.4953    6.2392   -6.2811 H   0  0  0  0  0  0
   -8.7208    2.7911   -4.3938 H   0  0  0  0  0  0
  -10.3463    2.7045   -5.1533 H   0  0  0  0  0  0
  -10.1087    3.6519   -3.6458 H   0  0  0  0  0  0
   -7.6384    5.6862   -7.1645 H   0  0  0  0  0  0
   -8.3484    8.6381   -7.2575 H   0  0  0  0  0  0
   -6.6028    8.2530   -7.4342 H   0  0  0  0  0  0
    1.6711    4.9344    9.8470 H   0  0  0  0  0  0
  1  2  1  0  0  0
  1 56  1  0  0  0
  1 57  1  0  0  0
  1 58  1  0  0  0
  2  3  1  0  0  0
  2  5  1  0  0  0
  2 59  1  0  0  0
  3  4  2  0  0  0
  3  9  1  0  0  0
  5  6  1  0  0  0
  5 60  1  0  0  0
  5 61  1  0  0  0
  6  7  2  0  0  0
  6  8  1  0  0  0
  8 62  1  0  0  0
  8 63  1  0  0  0
  9 10  1  0  0  0
  9 64  1  0  0  0
 10 11  1  0  0  0
 10 13  1  0  0  0
 10 65  1  0  0  0
 11 12  2  0  0  0
 11 20  1  0  0  0
 13 14  1  0  0  0
 13 66  1  0  0  0
 13 67  1  0  0  0
 14 15  1  0  0  0
 14 68  1  0  0  0
 14 69  1  0  0  0
 15 16  1  0  0  0
 15 70  1  0  0  0
 15 71  1  0  0  0
 16 17  1  0  0  0
 16 72  1  0  0  0
 17 18  2  0  0  0
 17 19  1  0  0  0
 18 73  1  0  0  0
 18119  1  0  0  0
 19 74  1  0  0  0
 19 75  1  0  0  0
 20 21  1  0  0  0
 20 76  1  0  0  0
 21 22  1  0  0  0
 21 24  1  0  0  0
 21 77  1  0  0  0
 22 23  2  0  0  0
 22 28  1  0  0  0
 24 25  1  0  0  0
 24 78  1  0  0  0
 24 79  1  0  0  0
 25 26  1  0  0  0
 25 27  1  0  0  0
 25 80  1  0  0  0
 26 81  1  0  0  0
 26 82  1  0  0  0
 26 83  1  0  0  0
 27 84  1  0  0  0
 27 85  1  0  0  0
 27 86  1  0  0  0
 28 29  1  0  0  0
 28 87  1  0  0  0
 29 30  1  0  0  0
 29 32  1  0  0  0
 29 88  1  0  0  0
 30 31  2  0  0  0
 30 36  1  0  0  0
 32 33  1  0  0  0
 32 89  1  0  0  0
 32 90  1  0  0  0
 33 34  1  0  0  0
 33 35  1  0  0  0
 33 91  1  0  0  0
 34 92  1  0  0  0
 34 93  1  0  0  0
 34 94  1  0  0  0
 35 95  1  0  0  0
 35 96  1  0  0  0
 35 97  1  0  0  0
 36 37  1  0  0  0
 36 98  1  0  0  0
 37 38  1  0  0  0
 37 40  1  0  0  0
 37 99  1  0  0  0
 38 39  2  0  0  0
 38 44  1  0  0  0
 40 41  1  0  0  0
 40100  1  0  0  0
 40101  1  0  0  0
 41 42  1  0  0  0
 41 43  1  0  0  0
 41102  1  0  0  0
 42103  1  0  0  0
 42104  1  0  0  0
 42105  1  0  0  0
 43106  1  0  0  0
 43107  1  0  0  0
 43108  1  0  0  0
 44 45  1  0  0  0
 44109  1  0  0  0
 45 46  1  0  0  0
 45 48  1  0  0  0
 45110  1  0  0  0
 46 47  2  0  0  0
 46 51  1  0  0  0
 48 49  1  0  0  0
 48 50  1  0  0  0
 48111  1  0  0  0
 49112  1  0  0  0
 50113  1  0  0  0
 50114  1  0  0  0
 50115  1  0  0  0
 51 52  1  0  0  0
 51116  1  0  0  0
 52 53  1  0  0  0
 52117  1  0  0  0
 52118  1  0  0  0
 53 54  1  0  0  0
 53 55  2  0  0  0
M  CHG  3   1   1  18   1  54  -1
M  END
> <s_m_source_file>
../1q5l_ligand.sdf

> <i_m_source_file_index>
1

> <s_epik_input>
W0hdL049QyhbTkgyXSlcW05IXVtDSDJdW0NIMl1bQ0gyXVtDQEhdKFtOSF1DKD1PKVtDQEBIXShbTkgzK10pW0NIMl1DKD1PKVtOSDJdKUMoPU8pW05IXVtDQEBIXShbQ0gyXVtDSF0oW0NIM10pW0NIM10pQyg9TylbTkhdW0NAQEhdKFtDSDJdW0NIXShbQ0gzXSlbQ0gzXSlDKD1PKVtOSF1bQ0BASF0oW0NIMl1bQ0hdKFtDSDNdKVtDSDNdKUMoPU8pW05IXVtDQEBIXShbQ0BIXShbT0hdKVtDSDNdKUMoPU8pW05IXVtDSDJdQyg9TylbT0hd

> <s_epik_cmdline>
J2VwaWtfYXBwJywgJy1pbWFlJywgJ2xpZ2FuZF9wcm8ubWFlJywgJy1vbWFlJywgJ2xpZ2FuZF9wcmVwLm1hZScsICctbXMnLCAnMScsICctcGgnLCAnNycsICctcGh0JywgJzAuNScsICctbnQn

> <r_epik_Ionization_Penalty>
  0.2088

> <r_epik_Ionization_Penalty_Charging>
  0.2088

> <r_epik_Ionization_Penalty_Neutral>
  0.0000

> <r_epik_State_Penalty>
  0.1986

> <r_epik_Charging_Adjusted_Penalty>
0.407397244900229

> <i_epik_Tot_Q>
1

> <i_epik_Tot_abs_Q>
3

> <s_epik_Chemistry_Notes>
This compound has an imine and may undergo hydrolysis.

$$$$
