1q63_ligand
                    3D
 Schrodinger Suite 2020-3.
 32 34  0  0  1  0            999 V2000
   17.1200   16.9780   18.7150 C   0  0  0  0  0  0
   16.1100   16.7320   19.6880 C   0  0  0  0  0  0
   14.6830   16.2780   19.3100 C   0  0  0  0  0  0
   16.4330   16.9180   21.0770 C   0  0  0  0  0  0
   15.5010   16.7080   22.0600 N   0  0  0  0  0  0
   15.7260   16.8550   23.3340 C   0  0  0  0  0  0
   14.7460   16.6260   24.1880 N   0  0  0  0  0  0
   16.9230   17.2350   23.7910 N   0  0  0  0  0  0
   17.9550   17.4860   22.9740 C   0  0  0  0  0  0
   19.0470   17.8380   23.3850 O   0  0  0  0  0  0
   17.7530   17.3350   21.4630 C   0  0  0  0  0  0
   18.7550   17.5760   20.4740 C   0  0  0  0  0  0
   18.4340   17.4000   19.1020 C   0  0  0  0  0  0
   19.3640   17.6370   18.1490 N   0  0  0  0  0  0
   14.6000   14.6760   18.4390 S   0  0  0  0  0  0
   14.2310   15.2820   16.7880 C   0  0  0  0  0  0
   15.0760   16.0320   16.0590 N   0  3  0  0  0  0
   13.1890   15.1010   16.1020 N   0  0  0  0  0  0
   14.4480   16.2820   14.8890 C   0  0  0  0  0  0
   13.2320   15.7310   14.8140 C   0  0  0  0  0  0
   16.8901   16.8431   17.6581 H   0  0  0  0  0  0
   14.0769   16.1764   20.2223 H   0  0  0  0  0  0
   14.2241   17.0256   18.6463 H   0  0  0  0  0  0
   13.7578   16.3129   23.8201 H   0  0  0  0  0  0
   14.9175   16.7483   25.2676 H   0  0  0  0  0  0
   17.0872   17.3516   24.8724 H   0  0  0  0  0  0
   19.7556   17.8917   20.7694 H   0  0  0  0  0  0
   19.1110   17.4994   17.0874 H   0  0  0  0  0  0
   20.3733   17.9674   18.4356 H   0  0  0  0  0  0
   14.8886   16.8737   14.0866 H   0  0  0  0  0  0
   12.3757   15.6419   14.1293 H   0  0  0  0  0  0
   16.0579   16.3105   16.4692 H   0  0  0  0  0  0
  1  2  2  0  0  0
  1 13  1  0  0  0
  1 21  1  0  0  0
  2  3  1  0  0  0
  2  4  1  0  0  0
  3 15  1  0  0  0
  3 22  1  0  0  0
  3 23  1  0  0  0
  4  5  1  0  0  0
  4 11  2  0  0  0
  5  6  2  0  0  0
  6  7  1  0  0  0
  6  8  1  0  0  0
  7 24  1  0  0  0
  7 25  1  0  0  0
  8  9  1  0  0  0
  8 26  1  0  0  0
  9 10  2  0  0  0
  9 11  1  0  0  0
 11 12  1  0  0  0
 12 13  2  0  0  0
 12 27  1  0  0  0
 13 14  1  0  0  0
 14 28  1  0  0  0
 14 29  1  0  0  0
 15 16  1  0  0  0
 16 17  2  0  0  0
 16 18  1  0  0  0
 17 19  1  0  0  0
 17 32  1  0  0  0
 18 20  2  0  0  0
 19 20  1  0  0  0
 19 30  1  0  0  0
 20 31  1  0  0  0
M  CHG  1  17   1
M  END
> <s_m_source_file>
../1q63_ligand.sdf

> <i_m_source_file_index>
1

> <s_epik_input>
bjFjKFtOSDJdKVtuSF1jKD1PKWMoYzEyKVtjSF1jKFtOSDJdKVtjSF1jMltDSDJdU0MzPU5bQ0gyXVtDSF09TjM=

> <s_epik_cmdline>
J2VwaWtfYXBwJywgJy1pbWFlJywgJ2xpZ2FuZF9wcm8ubWFlJywgJy1vbWFlJywgJ2xpZ2FuZF9wcmVwLm1hZScsICctbXMnLCAnMScsICctcGgnLCAnNycsICctcGh0JywgJzAuNScsICctbnQn

> <r_epik_Ionization_Penalty>
  0.0213

> <r_epik_Ionization_Penalty_Charging>
  0.0212

> <r_epik_Ionization_Penalty_Neutral>
  0.0001

> <r_epik_State_Penalty>
  0.4107

> <r_epik_Charging_Adjusted_Penalty>
0.431875047935484

> <i_epik_Tot_Q>
1

> <i_epik_Tot_abs_Q>
1

> <s_epik_Chemistry_Notes>
This compound has an imine and may undergo hydrolysis.

$$$$
