1q66_ligand
                    3D
 Schrodinger Suite 2020-3.
 39 41  0  0  1  0            999 V2000
   19.2550   17.8470   17.4810 C   0  0  0  0  0  0
   19.0780   19.4040   17.2740 N   0  3  0  0  0  0
   18.3020   17.5100   18.6160 C   0  0  0  0  0  0
   16.9980   17.0170   18.3200 C   0  0  0  0  0  0
   16.0950   16.7000   19.3720 C   0  0  0  0  0  0
   16.4940   16.8800   20.7290 C   0  0  0  0  0  0
   15.6510   16.5910   21.7690 N   0  0  0  0  0  0
   15.9740   16.7410   23.0140 C   0  0  0  0  0  0
   15.1410   16.4560   23.9720 N   0  0  0  0  0  0
   17.1700   17.1930   23.3860 N   0  0  0  0  0  0
   18.1220   17.5250   22.5120 C   0  0  0  0  0  0
   19.2130   17.9370   22.8710 O   0  0  0  0  0  0
   17.8090   17.3760   21.0200 C   0  0  0  0  0  0
   18.7170   17.6910   19.9680 C   0  0  0  0  0  0
   14.7080   16.1680   19.0400 C   0  0  0  0  0  0
   13.5890   17.5870   18.7890 S   0  0  0  0  0  0
   12.0330   16.7370   18.5970 C   0  0  0  0  0  0
   11.9860   15.4150   18.0460 C   0  0  0  0  0  0
   10.7420   14.7420   17.8980 C   0  0  0  0  0  0
    9.5400   15.3860   18.2950 C   0  0  0  0  0  0
    9.5790   16.7020   18.8410 C   0  0  0  0  0  0
   10.8240   17.3750   18.9920 C   0  0  0  0  0  0
   18.9915   17.3212   16.5514 H   0  0  0  0  0  0
   20.3010   17.6284   17.7420 H   0  0  0  0  0  0
   19.7373   19.7431   16.4614 H   0  0  0  0  0  0
   19.3415   19.9298   18.2036 H   0  0  0  0  0  0
   18.0320   19.6226   17.0129 H   0  0  0  0  0  0
   16.6914   16.8823   17.2827 H   0  0  0  0  0  0
   14.1361   16.0780   23.7327 H   0  0  0  0  0  0
   15.4417   16.5930   25.0212 H   0  0  0  0  0  0
   17.4073   17.3063   24.4541 H   0  0  0  0  0  0
   19.7155   18.0653   20.1938 H   0  0  0  0  0  0
   14.7575   15.5620   18.1233 H   0  0  0  0  0  0
   14.3451   15.5460   19.8715 H   0  0  0  0  0  0
   12.9086   14.9227   17.7387 H   0  0  0  0  0  0
   10.7111   13.7353   17.4813 H   0  0  0  0  0  0
    8.5852   14.8725   18.1818 H   0  0  0  0  0  0
    8.6543   17.1936   19.1433 H   0  0  0  0  0  0
   10.8514   18.3809   19.4110 H   0  0  0  0  0  0
  1  2  1  0  0  0
  1  3  1  0  0  0
  1 23  1  0  0  0
  1 24  1  0  0  0
  2 25  1  0  0  0
  2 26  1  0  0  0
  2 27  1  0  0  0
  3  4  2  0  0  0
  3 14  1  0  0  0
  4  5  1  0  0  0
  4 28  1  0  0  0
  5  6  2  0  0  0
  5 15  1  0  0  0
  6  7  1  0  0  0
  6 13  1  0  0  0
  7  8  2  0  0  0
  8  9  1  0  0  0
  8 10  1  0  0  0
  9 29  1  0  0  0
  9 30  1  0  0  0
 10 11  1  0  0  0
 10 31  1  0  0  0
 11 12  2  0  0  0
 11 13  1  0  0  0
 13 14  2  0  0  0
 14 32  1  0  0  0
 15 16  1  0  0  0
 15 33  1  0  0  0
 15 34  1  0  0  0
 16 17  1  0  0  0
 17 18  2  0  0  0
 17 22  1  0  0  0
 18 19  1  0  0  0
 18 35  1  0  0  0
 19 20  2  0  0  0
 19 36  1  0  0  0
 20 21  1  0  0  0
 20 37  1  0  0  0
 21 22  2  0  0  0
 21 38  1  0  0  0
 22 39  1  0  0  0
M  CHG  1   2   1
M  END
> <s_m_source_file>
../1q66_ligand.sdf

> <i_m_source_file_index>
1

> <s_epik_input>
bjFjKFtOSDJdKVtuSF1jKD1PKWMoYzEyKVtjSF1jKFtDSDJdW05IMytdKVtjSF1jMltDSDJdU2MzW2NIXVtjSF1bY0hdW2NIXVtjSF0z

> <s_epik_cmdline>
J2VwaWtfYXBwJywgJy1pbWFlJywgJ2xpZ2FuZF9wcm8ubWFlJywgJy1vbWFlJywgJ2xpZ2FuZF9wcmVwLm1hZScsICctbXMnLCAnMScsICctcGgnLCAnNycsICctcGh0JywgJzAuNScsICctbnQn

> <r_lp_tautomer_probability>
1

> <r_epik_Ionization_Penalty>
  0.0693

> <r_epik_Ionization_Penalty_Charging>
  0.0693

> <r_epik_Ionization_Penalty_Neutral>
  0.0000

> <r_epik_State_Penalty>
 -0.0000

> <r_epik_Charging_Adjusted_Penalty>
0.0693250839806547

> <i_epik_Tot_Q>
1

> <i_epik_Tot_abs_Q>
1

$$$$
