1q6k_ligand
                    3D
 Schrodinger Suite 2020-3.
 40 40  0  0  1  0            999 V2000
   74.0060   -9.5770  134.8660 N   0  0  0  0  0  0
   74.6420  -10.5640  133.9230 C   0  0  2  0  0  0
   76.0590  -10.0470  133.4990 C   0  0  0  0  0  0
   77.1530  -10.6140  133.6790 O   0  0  0  0  0  0
   73.4450  -12.1480  132.2310 C   0  0  0  0  0  0
   72.9940  -12.4000  130.7750 C   0  0  0  0  0  0
   72.2040  -11.2040  130.2010 C   0  0  0  0  0  0
   73.0620   -9.9340  130.1850 C   0  0  0  0  0  0
   73.9480   -9.7260  131.4440 C   0  0  0  0  0  0
   73.6970  -10.6950  132.6510 C   0  0  0  0  0  0
   73.2600   -9.8590  135.9960 C   0  0  0  0  0  0
   73.2230  -10.9600  136.5700 O   0  0  0  0  0  0
   72.5150   -8.7540  136.4410 O   0  0  0  0  0  0
   71.2700   -7.1310  137.6900 C   0  0  0  0  0  0
   71.8710   -8.5670  137.7430 C   0  0  0  0  0  0
   72.9250   -8.5410  138.8700 C   0  0  0  0  0  0
   70.7390   -9.6040  137.9350 C   0  0  0  0  0  0
   74.1132   -8.4971  134.6863 H   0  0  0  0  0  0
   74.7566  -11.5232  134.4491 H   0  0  0  0  0  0
   76.0218   -9.0720  132.9910 H   0  0  0  0  0  0
   72.6761  -12.5221  132.9230 H   0  0  0  0  0  0
   74.3931  -12.6737  132.4174 H   0  0  0  0  0  0
   73.8775  -12.5650  130.1409 H   0  0  0  0  0  0
   72.3466  -13.2886  130.7403 H   0  0  0  0  0  0
   71.8919  -11.4312  129.1710 H   0  0  0  0  0  0
   71.3145  -11.0203  130.8216 H   0  0  0  0  0  0
   73.7426   -9.9622  129.3213 H   0  0  0  0  0  0
   72.4096   -9.0516  130.1090 H   0  0  0  0  0  0
   75.0063   -9.8551  131.1730 H   0  0  0  0  0  0
   73.7918   -8.7112  131.8388 H   0  0  0  0  0  0
   72.7252  -10.3316  133.0165 H   0  0  0  0  0  0
   72.0800   -6.3994  137.5534 H   0  0  0  0  0  0
   70.7403   -6.9203  138.6307 H   0  0  0  0  0  0
   70.5653   -7.0593  136.8484 H   0  0  0  0  0  0
   73.6835   -7.7768  138.6450 H   0  0  0  0  0  0
   73.4079   -9.5266  138.9432 H   0  0  0  0  0  0
   72.4348   -8.3010  139.8250 H   0  0  0  0  0  0
   70.0417   -9.5470  137.0862 H   0  0  0  0  0  0
   70.1987   -9.3884  138.8686 H   0  0  0  0  0  0
   71.1718  -10.6139  137.9867 H   0  0  0  0  0  0
  1  2  1  0  0  0
  1 11  1  0  0  0
  1 18  1  0  0  0
  2  3  1  0  0  0
  2 10  1  0  0  0
  2 19  1  0  0  0
  3  4  2  0  0  0
  3 20  1  0  0  0
  5  6  1  0  0  0
  5 10  1  0  0  0
  5 21  1  0  0  0
  5 22  1  0  0  0
  6  7  1  0  0  0
  6 23  1  0  0  0
  6 24  1  0  0  0
  7  8  1  0  0  0
  7 25  1  0  0  0
  7 26  1  0  0  0
  8  9  1  0  0  0
  8 27  1  0  0  0
  8 28  1  0  0  0
  9 10  1  0  0  0
  9 29  1  0  0  0
  9 30  1  0  0  0
 10 31  1  0  0  0
 11 12  2  0  0  0
 11 13  1  0  0  0
 13 15  1  0  0  0
 14 15  1  0  0  0
 14 32  1  0  0  0
 14 33  1  0  0  0
 14 34  1  0  0  0
 15 16  1  0  0  0
 15 17  1  0  0  0
 16 35  1  0  0  0
 16 36  1  0  0  0
 16 37  1  0  0  0
 17 38  1  0  0  0
 17 39  1  0  0  0
 17 40  1  0  0  0
M  END
> <s_m_source_file>
../1q6k_ligand.sdf

> <i_m_source_file_index>
1

> <s_epik_input>
W0NIM11DKFtDSDNdKShbQ0gzXSlPQyg9TylbTkhdW0NASF0oW0NIXT1PKVtDSF0xW0NIMl1bQ0gyXVtDSDJdW0NIMl1bQ0gyXTE=

> <s_epik_cmdline>
J2VwaWtfYXBwJywgJy1pbWFlJywgJ2xpZ2FuZF9wcm8ubWFlJywgJy1vbWFlJywgJ2xpZ2FuZF9wcmVwLm1hZScsICctbXMnLCAnMScsICctcGgnLCAnNycsICctcGh0JywgJzAuNScsICctbnQn

> <r_lp_tautomer_probability>
1

> <r_epik_Ionization_Penalty>
  0.0001

> <r_epik_Ionization_Penalty_Charging>
  0.0000

> <r_epik_Ionization_Penalty_Neutral>
  0.0001

> <r_epik_State_Penalty>
 -0.0000

> <r_epik_Charging_Adjusted_Penalty>
0

> <i_epik_Tot_Q>
0

> <i_epik_Tot_abs_Q>
0

> <s_epik_Chemistry_Notes>
This compound has an ester and may undergo hydrolysis at high or low pH.

$$$$
