1q6m_ligand
                    3D
 Schrodinger Suite 2020-3.
 65 69  0  0  1  0            999 V2000
    0.3450   71.4690   69.2010 C   0  0  0  0  0  0
    1.1890   72.4930   68.3710 C   0  0  0  0  0  0
    0.5840   73.2230   67.3330 C   0  0  0  0  0  0
    2.6040   72.6640   68.5580 C   0  0  0  0  0  0
    1.3100   74.0850   66.5000 C   0  0  0  0  0  0
    3.3530   73.5340   67.7150 C   0  0  0  0  0  0
    2.7110   74.2470   66.6740 C   0  0  0  0  0  0
    3.4640   75.1940   65.7870 C   0  0  0  0  0  0
    4.5420   75.6280   66.4430 F   0  0  0  0  0  0
    2.6770   76.2610   65.6180 F   0  0  0  0  0  0
    3.9210   74.6910   64.2910 P   0  0  0  0  0  0
    2.6940   74.1580   63.4880 O   0  5  0  0  0  0
    4.9390   73.5830   64.3840 O   0  0  0  0  0  0
    4.4690   75.9120   63.5730 O   0  5  0  0  0  0
   -0.1280   72.0310   70.6560 C   0  0  0  0  0  0
   -0.9730   73.3880   70.5750 C   0  0  0  0  0  0
   -2.1400   73.3220   69.5640 C   0  0  0  0  0  0
   -2.2780   74.3750   68.6090 C   0  0  0  0  0  0
   -3.1460   72.3060   69.5650 C   0  0  0  0  0  0
   -3.3500   74.4380   67.6960 C   0  0  0  0  0  0
   -4.2410   72.3650   68.6320 C   0  0  0  0  0  0
   -4.3400   73.4560   67.6890 C   0  0  0  0  0  0
   -5.5170   73.5620   66.7090 C   0  0  0  0  0  0
   -6.2100   72.4160   66.6900 F   0  0  0  0  0  0
   -5.0490   73.7150   65.4950 F   0  0  0  0  0  0
   -6.5570   74.7640   67.0440 P   0  0  0  0  0  0
   -5.9560   76.1320   66.6610 O   0  5  0  0  0  0
   -6.8260   74.7660   68.5370 O   0  5  0  0  0  0
   -7.8300   74.5380   66.2740 O   0  0  0  0  0  0
    1.1500   72.3360   71.5740 C   0  0  0  0  0  0
    2.0460   71.3100   71.9610 C   0  0  0  0  0  0
    1.4120   73.6580   72.0280 C   0  0  0  0  0  0
    3.4070   72.9260   73.1980 C   0  0  0  0  0  0
    3.1630   71.6020   72.7640 C   0  0  0  0  0  0
    2.5430   73.9620   72.8410 C   0  0  0  0  0  0
    3.9900   70.6220   73.1120 F   0  0  0  0  0  0
    4.4640   73.2140   73.9500 F   0  0  0  0  0  0
   -0.9550   70.8680   71.1870 N   0  0  0  0  0  0
   -1.5100   69.7660   70.5690 N   0  0  0  0  0  0
   -2.0880   69.1620   71.5900 N   0  0  0  0  0  0
   -1.9990   69.7030   72.8310 C   0  0  0  0  0  0
   -1.2130   70.9110   72.6310 C   0  0  0  0  0  0
   -2.4570   69.3530   74.0780 C   0  0  0  0  0  0
   -0.9300   71.7240   73.7510 C   0  0  0  0  0  0
   -2.1650   70.1700   75.1860 C   0  0  0  0  0  0
   -1.4010   71.3530   75.0260 C   0  0  0  0  0  0
   -0.5648   71.2053   68.6418 H   0  0  0  0  0  0
    0.9412   70.5621   69.3799 H   0  0  0  0  0  0
   -0.4883   73.1147   67.1702 H   0  0  0  0  0  0
    3.1105   72.1206   69.3556 H   0  0  0  0  0  0
    0.7959   74.6356   65.7123 H   0  0  0  0  0  0
    4.4252   73.6514   67.8720 H   0  0  0  0  0  0
   -1.4026   73.6119   71.5626 H   0  0  0  0  0  0
   -0.3137   74.2127   70.2664 H   0  0  0  0  0  0
   -1.5239   75.1617   68.5852 H   0  0  0  0  0  0
   -3.0836   71.4822   70.2760 H   0  0  0  0  0  0
   -3.4058   75.2641   66.9871 H   0  0  0  0  0  0
   -4.9997   71.5824   68.6368 H   0  0  0  0  0  0
    1.8685   70.2855   71.6338 H   0  0  0  0  0  0
    0.7298   74.4603   71.7469 H   0  0  0  0  0  0
    2.7289   74.9822   73.1767 H   0  0  0  0  0  0
   -3.0451   68.4447   74.2089 H   0  0  0  0  0  0
   -0.3479   72.6374   73.6290 H   0  0  0  0  0  0
   -2.5292   69.8909   76.1747 H   0  0  0  0  0  0
   -1.1773   71.9771   75.8912 H   0  0  0  0  0  0
  1  2  1  0  0  0
  1 15  1  0  0  0
  1 47  1  0  0  0
  1 48  1  0  0  0
  2  3  2  0  0  0
  2  4  1  0  0  0
  3  5  1  0  0  0
  3 49  1  0  0  0
  4  6  2  0  0  0
  4 50  1  0  0  0
  5  7  2  0  0  0
  5 51  1  0  0  0
  6  7  1  0  0  0
  6 52  1  0  0  0
  7  8  1  0  0  0
  8  9  1  0  0  0
  8 10  1  0  0  0
  8 11  1  0  0  0
 11 12  1  0  0  0
 11 13  2  0  0  0
 11 14  1  0  0  0
 15 16  1  0  0  0
 15 30  1  0  0  0
 15 38  1  0  0  0
 16 17  1  0  0  0
 16 53  1  0  0  0
 16 54  1  0  0  0
 17 18  2  0  0  0
 17 19  1  0  0  0
 18 20  1  0  0  0
 18 55  1  0  0  0
 19 21  2  0  0  0
 19 56  1  0  0  0
 20 22  2  0  0  0
 20 57  1  0  0  0
 21 22  1  0  0  0
 21 58  1  0  0  0
 22 23  1  0  0  0
 23 24  1  0  0  0
 23 25  1  0  0  0
 23 26  1  0  0  0
 26 27  1  0  0  0
 26 28  1  0  0  0
 26 29  2  0  0  0
 30 31  2  0  0  0
 30 32  1  0  0  0
 31 34  1  0  0  0
 31 59  1  0  0  0
 32 35  2  0  0  0
 32 60  1  0  0  0
 33 37  1  0  0  0
 33 35  1  0  0  0
 33 34  2  0  0  0
 34 36  1  0  0  0
 35 61  1  0  0  0
 38 39  1  0  0  0
 38 42  1  0  0  0
 39 40  2  0  0  0
 40 41  1  0  0  0
 41 42  2  0  0  0
 41 43  1  0  0  0
 42 44  1  0  0  0
 43 45  2  0  0  0
 43 62  1  0  0  0
 44 46  2  0  0  0
 44 63  1  0  0  0
 45 46  1  0  0  0
 45 64  1  0  0  0
 46 65  1  0  0  0
M  CHG  4  12  -1  14  -1  27  -1  28  -1
M  END
> <s_m_source_file>
../1q6m_ligand.sdf

> <i_m_source_file_index>
1

> <s_epik_input>
W09IXVAoPU8pKFtPSF0pQyhGKShGKWMoW2NIXVtjSF0xKVtjSF1bY0hdYzFbQ0gyXUMoYzJbY0hdYyhGKWMoRilbY0hdW2NIXTIpKG4obm4zKWMoYzM0KVtjSF1bY0hdW2NIXVtjSF00KVtDSDJdYzVbY0hdW2NIXWMoW2NIXVtjSF01KUMoRikoRilQKD1PKShbT0hdKVtPSF0=

> <s_epik_cmdline>
J2VwaWtfYXBwJywgJy1pbWFlJywgJ2xpZ2FuZF9wcm8ubWFlJywgJy1vbWFlJywgJ2xpZ2FuZF9wcmVwLm1hZScsICctbXMnLCAnMScsICctcGgnLCAnNycsICctcGh0JywgJzAuNScsICctbnQn

> <r_lp_tautomer_probability>
1

> <r_epik_Ionization_Penalty>
  0.0284

> <r_epik_Ionization_Penalty_Charging>
  0.0284

> <r_epik_Ionization_Penalty_Neutral>
  0.0000

> <r_epik_State_Penalty>
  0.0233

> <r_epik_Charging_Adjusted_Penalty>
0.0516162231621709

> <i_epik_Tot_Q>
-4

> <i_epik_Tot_abs_Q>
4

$$$$
