1q6n_ligand
                    3D
 Schrodinger Suite 2020-3.
 65 70  0  0  1  0            999 V2000
    7.0290   42.3610   17.0280 C   0  0  1  0  0  0
    6.4790   43.0430   18.4250 C   0  0  0  0  0  0
    7.4780   43.7760   19.3290 C   0  0  0  0  0  0
    8.1790   43.0220   20.3570 C   0  0  0  0  0  0
    7.7540   45.1900   19.1850 C   0  0  0  0  0  0
    9.1270   43.6360   21.2070 C   0  0  0  0  0  0
    8.7160   45.8130   20.0540 C   0  0  0  0  0  0
    9.4010   45.0430   21.0580 C   0  0  0  0  0  0
   10.4320   45.6690   21.9330 C   0  0  0  0  0  0
   11.0020   46.7030   21.1860 F   0  0  0  0  0  0
   11.4320   44.7330   22.2100 F   0  0  0  0  0  0
    9.8290   46.3250   23.5680 P   0  0  0  0  0  0
    9.2160   45.1630   24.3080 O   0  5  0  0  0  0
    8.8020   47.3810   23.3690 O   0  0  0  0  0  0
   11.0560   46.8380   24.2700 O   0  5  0  0  0  0
    5.8580   41.6430   16.3090 N   0  0  0  0  0  0
    4.7000   41.3340   17.0700 N   0  0  0  0  0  0
    3.8850   40.7130   16.1270 N   0  0  0  0  0  0
    4.3820   40.5920   14.8760 C   0  0  0  0  0  0
    5.6540   41.2050   15.0190 C   0  0  0  0  0  0
    3.9560   40.0600   13.6310 C   0  0  0  0  0  0
    6.5620   41.2970   13.8590 C   0  0  0  0  0  0
    4.8400   40.1410   12.4800 C   0  0  0  0  0  0
    6.1410   40.7600   12.5900 C   0  0  0  0  0  0
    7.5730   43.5070   16.2000 C   0  0  0  0  0  0
    9.3040   43.7480   15.8590 S   0  0  0  0  0  0
    6.8080   44.4460   15.6350 N   0  0  0  0  0  0
    7.4640   45.4000   14.9090 C   0  0  0  0  0  0
    8.8950   45.1760   14.8990 C   0  0  0  0  0  0
    9.7590   46.0570   14.1800 C   0  0  0  0  0  0
    9.2280   47.1870   13.4540 C   0  0  0  0  0  0
    7.8060   47.4220   13.4740 C   0  0  0  0  0  0
    6.9290   46.5240   14.1960 C   0  0  0  0  0  0
    8.2220   41.3590   17.3700 C   0  0  0  0  0  0
    7.7800   40.3390   18.4120 C   0  0  0  0  0  0
    8.6090   39.4800   18.9190 C   0  0  0  0  0  0
    8.2150   38.4480   19.9210 C   0  0  0  0  0  0
    9.2080   37.9510   20.8020 C   0  0  0  0  0  0
    6.8700   37.9500   19.9880 C   0  0  0  0  0  0
    8.8680   36.9440   21.7620 C   0  0  0  0  0  0
    6.5280   36.9380   20.9540 C   0  0  0  0  0  0
    7.5290   36.4260   21.8450 C   0  0  0  0  0  0
    5.7123   43.7955   18.1886 H   0  0  0  0  0  0
    6.0421   42.2634   19.0664 H   0  0  0  0  0  0
    7.9683   41.9590   20.4745 H   0  0  0  0  0  0
    7.2377   45.7768   18.4253 H   0  0  0  0  0  0
    9.6453   43.0514   21.9671 H   0  0  0  0  0  0
    8.9278   46.8773   19.9511 H   0  0  0  0  0  0
    2.9746   39.5948   13.5388 H   0  0  0  0  0  0
    7.5405   41.7662   13.9613 H   0  0  0  0  0  0
    4.5179   39.7302   11.5232 H   0  0  0  0  0  0
    6.7973   40.8201   11.7218 H   0  0  0  0  0  0
   10.8336   45.8741   14.1791 H   0  0  0  0  0  0
    9.8916   47.8511   12.9001 H   0  0  0  0  0  0
    7.3895   48.2785   12.9439 H   0  0  0  0  0  0
    5.8539   46.7035   14.1977 H   0  0  0  0  0  0
    8.5275   40.8274   16.4567 H   0  0  0  0  0  0
    9.0762   41.9276   17.7664 H   0  0  0  0  0  0
    6.7278   40.3433   18.7327 H   0  0  0  0  0  0
    9.6655   39.4886   18.6130 H   0  0  0  0  0  0
   10.2271   38.3340   20.7490 H   0  0  0  0  0  0
    6.1097   38.3369   19.3095 H   0  0  0  0  0  0
    9.6341   36.5653   22.4385 H   0  0  0  0  0  0
    5.5069   36.5605   21.0082 H   0  0  0  0  0  0
    7.2783   35.6556   22.5742 H   0  0  0  0  0  0
  1  2  1  0  0  0
  1 16  1  0  0  0
  1 25  1  0  0  0
  1 34  1  0  0  0
  2  3  1  0  0  0
  2 43  1  0  0  0
  2 44  1  0  0  0
  3  4  2  0  0  0
  3  5  1  0  0  0
  4  6  1  0  0  0
  4 45  1  0  0  0
  5  7  2  0  0  0
  5 46  1  0  0  0
  6  8  2  0  0  0
  6 47  1  0  0  0
  7  8  1  0  0  0
  7 48  1  0  0  0
  8  9  1  0  0  0
  9 10  1  0  0  0
  9 11  1  0  0  0
  9 12  1  0  0  0
 12 13  1  0  0  0
 12 14  2  0  0  0
 12 15  1  0  0  0
 16 17  1  0  0  0
 16 20  1  0  0  0
 17 18  2  0  0  0
 18 19  1  0  0  0
 19 20  2  0  0  0
 19 21  1  0  0  0
 20 22  1  0  0  0
 21 23  2  0  0  0
 21 49  1  0  0  0
 22 24  2  0  0  0
 22 50  1  0  0  0
 23 24  1  0  0  0
 23 51  1  0  0  0
 24 52  1  0  0  0
 25 26  1  0  0  0
 25 27  2  0  0  0
 26 29  1  0  0  0
 27 28  1  0  0  0
 28 29  2  0  0  0
 28 33  1  0  0  0
 29 30  1  0  0  0
 30 31  2  0  0  0
 30 53  1  0  0  0
 31 32  1  0  0  0
 31 54  1  0  0  0
 32 33  2  0  0  0
 32 55  1  0  0  0
 33 56  1  0  0  0
 34 35  1  0  0  0
 34 57  1  0  0  0
 34 58  1  0  0  0
 35 36  2  0  0  0
 35 59  1  0  0  0
 36 37  1  0  0  0
 36 60  1  0  0  0
 37 38  2  0  0  0
 37 39  1  0  0  0
 38 40  1  0  0  0
 38 61  1  0  0  0
 39 41  2  0  0  0
 39 62  1  0  0  0
 40 42  2  0  0  0
 40 63  1  0  0  0
 41 42  1  0  0  0
 41 64  1  0  0  0
 42 65  1  0  0  0
M  CHG  2  13  -1  15  -1
M  END
> <s_m_source_file>
../1q6n_ligand.sdf

> <i_m_source_file_index>
1

> <s_epik_input>
W09IXVAoPU8pKFtPSF0pQyhGKShGKWMoW2NIXVtjSF0xKVtjSF1bY0hdYzFbQ0gyXVtDQEBdKG4obm4yKWMoYzIzKVtjSF1bY0hdW2NIXVtjSF0zKShjKG40KXNjKGM0NSlbY0hdW2NIXVtjSF1bY0hdNSlbQ0gyXS9bQ0hdPVtDSF0vYzZbY0hdW2NIXVtjSF1bY0hdW2NIXTY=

> <s_epik_cmdline>
J2VwaWtfYXBwJywgJy1pbWFlJywgJ2xpZ2FuZF9wcm8ubWFlJywgJy1vbWFlJywgJ2xpZ2FuZF9wcmVwLm1hZScsICctbXMnLCAnMScsICctcGgnLCAnNycsICctcGh0JywgJzAuNScsICctbnQn

> <r_lp_tautomer_probability>
1

> <r_epik_Ionization_Penalty>
  0.0143

> <r_epik_Ionization_Penalty_Charging>
  0.0143

> <r_epik_Ionization_Penalty_Neutral>
  0.0000

> <r_epik_State_Penalty>
  0.0112

> <r_epik_Charging_Adjusted_Penalty>
0.0255632782935335

> <i_epik_Tot_Q>
-2

> <i_epik_Tot_abs_Q>
2

$$$$
