1q6p_ligand
                    3D
 Schrodinger Suite 2020-3.
 73 78  0  0  1  0            999 V2000
   37.4060   50.4060   55.8290 C   0  0  0  0  0  0
   38.7260   50.1500   55.4080 C   0  0  0  0  0  0
   39.0160   48.9640   54.6800 C   0  0  0  0  0  0
   37.9810   48.0280   54.3760 C   0  0  0  0  0  0
   36.6550   48.3200   54.8300 C   0  0  0  0  0  0
   36.3660   49.4930   55.5420 C   0  0  0  0  0  0
   36.8940   47.2430   50.2410 C   0  0  0  0  0  0
   37.6780   47.8780   51.1530 C   0  0  0  0  0  0
   37.4300   49.4520   51.3520 C   0  0  0  0  0  0
   36.4610   50.0490   50.5990 C   0  0  0  0  0  0
   35.6790   49.3390   49.6630 C   0  0  0  0  0  0
   35.9030   47.9350   49.4930 C   0  0  0  0  0  0
   38.0700   43.5870   52.6790 C   0  0  0  0  0  0
   37.0200   44.4470   52.5880 C   0  0  0  0  0  0
   35.9070   44.1890   51.7500 C   0  0  0  0  0  0
   35.9220   42.9790   50.9950 C   0  0  0  0  0  0
   36.9920   42.0680   51.0670 C   0  0  0  0  0  0
   38.0550   42.3920   51.9180 C   0  0  0  0  0  0
   38.3550   46.6760   53.5210 C   0  0  1  0  0  0
   39.5090   45.9670   54.1900 N   0  0  0  0  0  0
   37.0120   45.8140   53.4150 C   0  0  0  0  0  0
   38.8370   47.1500   52.0620 C   0  0  0  0  0  0
   40.6250   44.6940   58.0490 C   0  0  0  0  0  0
   41.3860   44.5120   56.8590 C   0  0  0  0  0  0
   40.9040   44.9820   55.6630 C   0  0  0  0  0  0
   39.6180   45.6530   55.5750 C   0  0  0  0  0  0
   38.8710   45.8350   56.7580 C   0  0  0  0  0  0
   39.3660   45.3530   57.9980 C   0  0  0  0  0  0
   41.3480   44.9830   54.3780 N   0  0  0  0  0  0
   40.5790   45.5490   53.4430 N   0  0  0  0  0  0
   34.6600   49.9300   48.8660 C   0  0  0  0  0  0
   34.0550   50.9200   49.4420 F   0  0  0  0  0  0
   33.6700   48.9710   48.6000 F   0  0  0  0  0  0
   35.0940   50.4810   47.1570 P   0  0  0  0  0  0
   36.1070   51.5540   47.2720 O   0  0  0  0  0  0
   33.8580   51.0280   46.5320 O   0  5  0  0  0  0
   35.5520   49.1990   46.4150 O   0  5  0  0  0  0
   36.8620   40.7680   50.1810 C   0  0  0  0  0  0
   37.1780   39.5420   50.8470 C   0  0  0  0  0  0
   37.0850   38.2910   50.1580 C   0  0  0  0  0  0
   36.6770   38.2640   48.8110 C   0  0  0  0  0  0
   36.3630   39.4720   48.1480 C   0  0  0  0  0  0
   36.4590   40.6970   48.8330 C   0  0  0  0  0  0
   37.4680   36.6880   50.9560 P   0  0  0  0  0  0
   38.4650   35.9520   50.0670 O   0  5  0  0  0  0
   36.2460   35.8890   51.0900 O   0  0  0  0  0  0
   38.1670   36.9430   52.2970 O   0  0  0  0  0  0
   37.1844   51.3186   56.3823 H   0  0  0  0  0  0
   39.5214   50.8584   55.6395 H   0  0  0  0  0  0
   40.0364   48.7674   54.3512 H   0  0  0  0  0  0
   35.8518   47.6145   54.6174 H   0  0  0  0  0  0
   35.3476   49.6990   55.8714 H   0  0  0  0  0  0
   37.0294   46.1736   50.0791 H   0  0  0  0  0  0
   38.0183   50.0266   52.0674 H   0  0  0  0  0  0
   36.2839   51.1170   50.7256 H   0  0  0  0  0  0
   35.2989   47.3835   48.7725 H   0  0  0  0  0  0
   38.9138   43.8148   53.3303 H   0  0  0  0  0  0
   35.0726   44.8873   51.6849 H   0  0  0  0  0  0
   35.0788   42.7531   50.3423 H   0  0  0  0  0  0
   38.8968   41.7041   51.9977 H   0  0  0  0  0  0
   36.2796   46.5056   52.9731 H   0  0  0  0  0  0
   36.7380   45.6086   54.4603 H   0  0  0  0  0  0
   39.2002   46.2514   51.5419 H   0  0  0  0  0  0
   39.6735   47.8474   52.2167 H   0  0  0  0  0  0
   41.0086   44.3273   59.0011 H   0  0  0  0  0  0
   42.3481   44.0011   56.8980 H   0  0  0  0  0  0
   37.9099   46.3478   56.7196 H   0  0  0  0  0  0
   38.7825   45.4877   58.9088 H   0  0  0  0  0  0
   37.4930   39.5608   51.8903 H   0  0  0  0  0  0
   36.6035   37.3144   48.2810 H   0  0  0  0  0  0
   36.0462   39.4545   47.1052 H   0  0  0  0  0  0
   36.2143   41.6187   48.3050 H   0  0  0  0  0  0
   39.0960   37.5312   52.3299 H   0  0  0  0  0  0
  1  2  2  0  0  0
  1  6  1  0  0  0
  1 48  1  0  0  0
  2  3  1  0  0  0
  2 49  1  0  0  0
  3  4  2  0  0  0
  3 50  1  0  0  0
  4  5  1  0  0  0
  4 19  1  0  0  0
  5  6  2  0  0  0
  5 51  1  0  0  0
  6 52  1  0  0  0
  7  8  2  0  0  0
  7 12  1  0  0  0
  7 53  1  0  0  0
  8  9  1  0  0  0
  8 22  1  0  0  0
  9 10  2  0  0  0
  9 54  1  0  0  0
 10 11  1  0  0  0
 10 55  1  0  0  0
 11 12  2  0  0  0
 11 31  1  0  0  0
 12 56  1  0  0  0
 13 14  2  0  0  0
 13 18  1  0  0  0
 13 57  1  0  0  0
 14 15  1  0  0  0
 14 21  1  0  0  0
 15 16  2  0  0  0
 15 58  1  0  0  0
 16 17  1  0  0  0
 16 59  1  0  0  0
 17 18  2  0  0  0
 17 38  1  0  0  0
 18 60  1  0  0  0
 19 20  1  0  0  0
 19 21  1  0  0  0
 19 22  1  0  0  0
 20 26  1  0  0  0
 20 30  1  0  0  0
 21 61  1  0  0  0
 21 62  1  0  0  0
 22 63  1  0  0  0
 22 64  1  0  0  0
 23 24  1  0  0  0
 23 28  2  0  0  0
 23 65  1  0  0  0
 24 25  2  0  0  0
 24 66  1  0  0  0
 25 26  1  0  0  0
 25 29  1  0  0  0
 26 27  2  0  0  0
 27 28  1  0  0  0
 27 67  1  0  0  0
 28 68  1  0  0  0
 29 30  2  0  0  0
 31 32  1  0  0  0
 31 33  1  0  0  0
 31 34  1  0  0  0
 34 35  2  0  0  0
 34 36  1  0  0  0
 34 37  1  0  0  0
 38 39  2  0  0  0
 38 43  1  0  0  0
 39 40  1  0  0  0
 39 69  1  0  0  0
 40 41  2  0  0  0
 40 44  1  0  0  0
 41 42  1  0  0  0
 41 70  1  0  0  0
 42 43  2  0  0  0
 42 71  1  0  0  0
 43 72  1  0  0  0
 44 45  1  0  0  0
 44 46  2  0  0  0
 44 47  1  0  0  0
 47 73  1  0  0  0
M  CHG  3  36  -1  37  -1  45  -1
M  END
> <s_m_source_file>
../1q6p_ligand.sdf

> <i_m_source_file_index>
1

> <s_epik_input>
Tz1QKFtPSF0pKFtPSF0pQyhGKShGKWMoW2NIXVtjSF0xKVtjSF1bY0hdYzFbQ0gyXVtDQF0oYzJbY0hdW2NIXVtjSF1bY0hdW2NIXTIpKG4obm4zKWMoYzM0KVtjSF1bY0hdW2NIXVtjSF00KVtDSDJdYzVbY0hdW2NIXWMoW2NIXVtjSF01KS1jNltjSF1jKFAoPU8pKFtPSF0pW09IXSlbY0hdW2NIXVtjSF02

> <s_epik_cmdline>
J2VwaWtfYXBwJywgJy1pbWFlJywgJ2xpZ2FuZF9wcm8ubWFlJywgJy1vbWFlJywgJ2xpZ2FuZF9wcmVwLm1hZScsICctbXMnLCAnMScsICctcGgnLCAnNycsICctcGh0JywgJzAuNScsICctbnQn

> <r_lp_tautomer_probability>
1

> <r_epik_Ionization_Penalty>
  0.3735

> <r_epik_Ionization_Penalty_Charging>
  0.0144

> <r_epik_Ionization_Penalty_Neutral>
  0.3592

> <r_epik_State_Penalty>
  0.3559

> <r_epik_Charging_Adjusted_Penalty>
0.370266877023537

> <i_epik_Tot_Q>
-3

> <i_epik_Tot_abs_Q>
3

$$$$
