1q72_ligand
                    3D
 Schrodinger Suite 2020-3.
 44 46  0  0  1  0            999 V2000
   26.3810   -4.0800   26.7430 C   0  0  0  0  0  0
   25.5390   -2.9110   26.5920 O   0  0  0  0  0  0
   24.2900   -3.0860   26.1160 C   0  0  0  0  0  0
   23.6110   -4.0370   26.3700 O   0  0  0  0  0  0
   23.9380   -1.8880   25.2240 C   0  0  2  0  0  0
   22.5220   -1.3510   25.6380 C   0  0  2  0  0  0
   21.5380   -2.4100   25.3550 N   0  3  1  0  0  0
   20.2770   -2.2520   26.1220 C   0  0  0  0  0  0
   22.0760   -0.0980   24.8530 C   0  0  0  0  0  0
   21.2930   -0.6930   23.6530 C   0  0  0  0  0  0
   21.3600   -2.2180   23.9070 C   0  0  1  0  0  0
   22.5960   -2.8680   23.2080 C   0  0  0  0  0  0
   23.9070   -2.2180   23.6970 C   0  0  2  0  0  0
   25.0570   -3.0600   23.3510 O   0  0  0  0  0  0
   26.2790   -2.4850   23.2340 C   0  0  0  0  0  0
   26.4940   -1.3160   23.4500 O   0  0  0  0  0  0
   27.3340   -3.4750   22.7920 C   0  0  0  0  0  0
   28.6940   -3.1000   22.9020 C   0  0  0  0  0  0
   29.6990   -4.0100   22.4880 C   0  0  0  0  0  0
   29.3650   -5.2450   21.9850 C   0  0  0  0  0  0
   28.0320   -5.6150   21.8770 C   0  0  0  0  0  0
   27.0100   -4.7280   22.2830 C   0  0  0  0  0  0
   27.3616   -3.7769   27.1386 H   0  0  0  0  0  0
   26.5142   -4.5648   25.7646 H   0  0  0  0  0  0
   25.9065   -4.7860   27.4405 H   0  0  0  0  0  0
   24.7446   -1.1580   25.3868 H   0  0  0  0  0  0
   22.5321   -1.1030   26.7096 H   0  0  0  0  0  0
   21.8644   -3.4209   25.6405 H   0  0  0  0  0  0
   20.4771   -2.4071   27.1925 H   0  0  0  0  0  0
   19.5417   -2.9930   25.7753 H   0  0  0  0  0  0
   19.8778   -1.2388   25.9666 H   0  0  0  0  0  0
   21.4452    0.5327   25.4967 H   0  0  0  0  0  0
   22.9624    0.4716   24.5371 H   0  0  0  0  0  0
   20.2619   -0.3099   23.6618 H   0  0  0  0  0  0
   21.7846   -0.4010   22.7133 H   0  0  0  0  0  0
   20.4277   -2.6907   23.5644 H   0  0  0  0  0  0
   22.6252   -3.9428   23.4401 H   0  0  0  0  0  0
   22.5164   -2.7299   22.1196 H   0  0  0  0  0  0
   24.0122   -1.2772   23.1367 H   0  0  0  0  0  0
   28.9658   -2.1225   23.3005 H   0  0  0  0  0  0
   30.7485   -3.7273   22.5694 H   0  0  0  0  0  0
   30.1484   -5.9346   21.6706 H   0  0  0  0  0  0
   27.7720   -6.5950   21.4769 H   0  0  0  0  0  0
   25.9652   -5.0264   22.1971 H   0  0  0  0  0  0
  1  2  1  0  0  0
  1 23  1  0  0  0
  1 24  1  0  0  0
  1 25  1  0  0  0
  2  3  1  0  0  0
  3  4  2  0  0  0
  3  5  1  0  0  0
  5  6  1  0  0  0
  5 13  1  0  0  0
  5 26  1  0  0  0
  6  7  1  0  0  0
  6  9  1  0  0  0
  6 27  1  0  0  0
  7  8  1  0  0  0
  7 11  1  0  0  0
  7 28  1  0  0  0
  8 29  1  0  0  0
  8 30  1  0  0  0
  8 31  1  0  0  0
  9 10  1  0  0  0
  9 32  1  0  0  0
  9 33  1  0  0  0
 10 11  1  0  0  0
 10 34  1  0  0  0
 10 35  1  0  0  0
 11 12  1  0  0  0
 11 36  1  0  0  0
 12 13  1  0  0  0
 12 37  1  0  0  0
 12 38  1  0  0  0
 13 14  1  0  0  0
 13 39  1  0  0  0
 14 15  1  0  0  0
 15 16  2  0  0  0
 15 17  1  0  0  0
 17 18  2  0  0  0
 17 22  1  0  0  0
 18 19  1  0  0  0
 18 40  1  0  0  0
 19 20  2  0  0  0
 19 41  1  0  0  0
 20 21  1  0  0  0
 20 42  1  0  0  0
 21 22  2  0  0  0
 21 43  1  0  0  0
 22 44  1  0  0  0
M  CHG  1   7   1
M  END
> <s_m_source_file>
../1q72_ligand.sdf

> <i_m_source_file_index>
1

> <s_epik_input>
W0NIM11PQyg9TylbQ0BIXShbQ0BIXTEyKVtDQEhdKFtDSDJdW0NAQEhdKFtOQEBIK10xW0NIM10pW0NIMl1bQ0gyXTIpT0MoPU8pYzNbY0hdW2NIXVtjSF1bY0hdW2NIXTM=

> <s_epik_cmdline>
J2VwaWtfYXBwJywgJy1pbWFlJywgJ2xpZ2FuZF9wcm8ubWFlJywgJy1vbWFlJywgJ2xpZ2FuZF9wcmVwLm1hZScsICctbXMnLCAnMScsICctcGgnLCAnNycsICctcGh0JywgJzAuNScsICctbnQn

> <r_epik_Ionization_Penalty>
  0.0650

> <r_epik_Ionization_Penalty_Charging>
  0.0650

> <r_epik_Ionization_Penalty_Neutral>
  0.0000

> <r_epik_State_Penalty>
  0.0567

> <r_epik_Charging_Adjusted_Penalty>
0.121649389844584

> <i_epik_Tot_Q>
1

> <i_epik_Tot_abs_Q>
1

> <s_epik_Chemistry_Notes>
This compound has an ester and may undergo hydrolysis at high or low pH.

$$$$
