1q83_ligand
                    3D
 Schrodinger Suite 2020-3.
 96103  0  0  1  0            999 V2000
   38.9010   20.9180   11.4650 N   0  0  0  0  0  0
   39.1050   22.2690   11.2770 C   0  0  0  0  0  0
   40.2920   22.9460   11.6000 C   0  0  0  0  0  0
   40.4080   24.2850   11.3790 C   0  0  0  0  0  0
   39.3830   25.1300   10.7970 C   0  0  0  0  0  0
   38.0960   23.0700   10.7510 C   0  0  0  0  0  0
   38.1150   24.4880   10.5410 C   0  0  0  0  0  0
   37.1640   25.1420    9.7080 N   0  0  0  0  0  0
   37.4200   26.2990    9.0340 C   0  0  3  0  0  0
   36.3970   26.9140    8.1160 C   0  0  0  0  0  0
   35.5300   27.9320    8.5560 C   0  0  0  0  0  0
   34.5990   28.5070    7.6820 C   0  0  0  0  0  0
   34.5100   28.0660    6.3530 C   0  0  0  0  0  0
   35.3570   27.0520    5.8830 C   0  0  0  0  0  0
   36.2810   26.4960    6.7660 C   0  0  0  0  0  0
   38.6980   26.9340    9.1710 C   0  0  0  0  0  0
   38.9430   28.2670    8.6300 C   0  0  0  0  0  0
   39.6940   26.3720   10.0720 C   0  0  0  0  0  0
   40.8030   27.2530   10.3770 C   0  0  0  0  0  0
   40.9740   28.5160    9.8550 C   0  0  0  0  0  0
   40.0270   29.0850    8.9430 C   0  0  0  0  0  0
   40.1590   30.3490    8.3960 N   0  0  0  0  0  0
   35.8120   24.5110    9.5120 C   0  0  0  0  0  0
   35.6220   23.5010    8.3590 C   0  0  0  0  0  0
   34.1670   23.0050    8.1460 C   0  0  0  0  0  0
   33.4440   22.7850    9.4740 C   0  0  0  0  0  0
   32.1100   22.0620    9.3630 C   0  0  0  0  0  0
   31.3560   22.3370   10.6500 C   0  0  0  0  0  0
   31.1550   21.2470   11.6500 C   0  0  0  0  0  0
   31.1690   21.1640   12.9950 N   0  0  0  0  0  0
   30.8620   19.9550   13.4210 N   0  0  0  0  0  0
   30.6140   19.1340   12.4430 N   0  0  0  0  0  0
   30.7900   19.9420   11.4160 C   0  0  0  0  0  0
   31.4670   22.2890   13.8610 C   0  0  0  0  0  0
   30.2140   23.1250   14.1090 C   0  0  0  0  0  0
   29.3190   22.4800   15.0820 N   0  0  0  0  0  0
   28.0830   22.0010   14.6850 C   0  0  0  0  0  0
   27.1280   22.7250   13.9170 C   0  0  0  0  0  0
   27.2380   24.1160   13.5150 C   0  0  0  0  0  0
   25.9150   22.0810   13.5640 C   0  0  0  0  0  0
   24.9380   22.8280   12.8140 C   0  0  0  0  0  0
   25.1060   24.1260   12.4510 C   0  0  0  0  0  0
   26.2980   24.7910   12.8130 C   0  0  0  0  0  0
   25.6220   20.8320   13.9560 N   0  3  0  0  0  0
   26.5130   20.1200   14.6760 C   0  0  0  0  0  0
   26.1340   18.8120   15.1710 C   0  0  0  0  0  0
   27.7540   20.6860   15.1080 C   0  0  0  0  0  0
   28.4560   19.8840   16.0930 C   0  0  0  0  0  0
   28.0000   18.6590   16.5150 C   0  0  0  0  0  0
   27.0180   17.9550   15.7610 C   0  0  0  0  0  0
   39.7048   20.2931   11.8815 H   0  0  0  0  0  0
   37.9345   20.4654   11.1985 H   0  0  0  0  0  0
   41.1279   22.3952   12.0313 H   0  0  0  0  0  0
   41.3472   24.7599   11.6625 H   0  0  0  0  0  0
   37.1787   22.5563   10.4634 H   0  0  0  0  0  0
   35.5839   28.2766    9.5887 H   0  0  0  0  0  0
   33.9407   29.3005    8.0357 H   0  0  0  0  0  0
   33.7778   28.5145    5.6815 H   0  0  0  0  0  0
   35.2942   26.7067    4.8511 H   0  0  0  0  0  0
   36.9413   25.7078    6.4041 H   0  0  0  0  0  0
   38.2146   28.6569    7.9190 H   0  0  0  0  0  0
   41.5593   26.8887   11.0722 H   0  0  0  0  0  0
   41.8507   29.0964   10.1426 H   0  0  0  0  0  0
   39.3965   30.7297    7.7005 H   0  0  0  0  0  0
   41.0264   30.9732    8.6566 H   0  0  0  0  0  0
   35.5327   23.9536   10.4182 H   0  0  0  0  0  0
   35.0655   25.2957    9.3196 H   0  0  0  0  0  0
   35.9366   23.9628    7.4115 H   0  0  0  0  0  0
   36.2322   22.6062    8.5511 H   0  0  0  0  0  0
   33.6059   23.7528    7.5664 H   0  0  0  0  0  0
   34.1812   22.0514    7.5978 H   0  0  0  0  0  0
   34.0771   22.1809   10.1405 H   0  0  0  0  0  0
   33.2388   23.7575    9.9453 H   0  0  0  0  0  0
   31.5553   22.4473    8.4948 H   0  0  0  0  0  0
   32.2868   20.9837    9.2361 H   0  0  0  0  0  0
   31.8745   23.1236   11.2178 H   0  0  0  0  0  0
   30.3345   22.6690   10.4127 H   0  0  0  0  0  0
   30.6484   19.5811   10.3973 H   0  0  0  0  0  0
   31.8445   21.9192   14.8257 H   0  0  0  0  0  0
   32.2304   22.9240   13.3876 H   0  0  0  0  0  0
   30.5029   24.1109   14.5022 H   0  0  0  0  0  0
   29.6659   23.2535   13.1640 H   0  0  0  0  0  0
   29.6310   22.3763   16.1317 H   0  0  0  0  0  0
   28.1419   24.6549   13.7988 H   0  0  0  0  0  0
   24.0158   22.3253   12.5226 H   0  0  0  0  0  0
   24.3316   24.6471   11.8881 H   0  0  0  0  0  0
   26.4586   25.8317   12.5315 H   0  0  0  0  0  0
   25.3614   18.9230   15.9461 H   0  0  0  0  0  0
   25.7377   18.2070   14.3422 H   0  0  0  0  0  0
   29.4643   19.6477   15.7222 H   0  0  0  0  0  0
   28.5343   20.4462   17.0352 H   0  0  0  0  0  0
   28.8421   17.9534   16.5701 H   0  0  0  0  0  0
   27.5416   18.7612   17.5097 H   0  0  0  0  0  0
   26.4763   17.2787   16.4387 H   0  0  0  0  0  0
   27.5296   17.3652   14.9862 H   0  0  0  0  0  0
   24.6525   20.3853   13.6904 H   0  0  0  0  0  0
  1  2  1  0  0  0
  1 51  1  0  0  0
  1 52  1  0  0  0
  2  3  2  0  0  0
  2  6  1  0  0  0
  3  4  1  0  0  0
  3 53  1  0  0  0
  4  5  2  0  0  0
  4 54  1  0  0  0
  5  7  1  0  0  0
  5 18  1  0  0  0
  6  7  2  0  0  0
  6 55  1  0  0  0
  7  8  1  0  0  0
  8  9  1  0  0  0
  8 23  1  0  0  0
  9 10  1  0  0  0
  9 16  1  0  0  0
 10 11  2  0  0  0
 10 15  1  0  0  0
 11 12  1  0  0  0
 11 56  1  0  0  0
 12 13  2  0  0  0
 12 57  1  0  0  0
 13 14  1  0  0  0
 13 58  1  0  0  0
 14 15  2  0  0  0
 14 59  1  0  0  0
 15 60  1  0  0  0
 16 17  1  0  0  0
 16 18  2  0  0  0
 17 21  2  0  0  0
 17 61  1  0  0  0
 18 19  1  0  0  0
 19 20  2  0  0  0
 19 62  1  0  0  0
 20 21  1  0  0  0
 20 63  1  0  0  0
 21 22  1  0  0  0
 22 64  1  0  0  0
 22 65  1  0  0  0
 23 24  1  0  0  0
 23 66  1  0  0  0
 23 67  1  0  0  0
 24 25  1  0  0  0
 24 68  1  0  0  0
 24 69  1  0  0  0
 25 26  1  0  0  0
 25 70  1  0  0  0
 25 71  1  0  0  0
 26 27  1  0  0  0
 26 72  1  0  0  0
 26 73  1  0  0  0
 27 28  1  0  0  0
 27 74  1  0  0  0
 27 75  1  0  0  0
 28 29  1  0  0  0
 28 76  1  0  0  0
 28 77  1  0  0  0
 29 30  1  0  0  0
 29 33  2  0  0  0
 30 31  1  0  0  0
 30 34  1  0  0  0
 31 32  2  0  0  0
 32 33  1  0  0  0
 33 78  1  0  0  0
 34 35  1  0  0  0
 34 79  1  0  0  0
 34 80  1  0  0  0
 35 36  1  0  0  0
 35 81  1  0  0  0
 35 82  1  0  0  0
 36 37  1  0  0  0
 36 83  1  0  0  0
 37 38  2  0  0  0
 37 47  1  0  0  0
 38 39  1  0  0  0
 38 40  1  0  0  0
 39 43  2  0  0  0
 39 84  1  0  0  0
 40 41  1  0  0  0
 40 44  2  0  0  0
 41 42  2  0  0  0
 41 85  1  0  0  0
 42 43  1  0  0  0
 42 86  1  0  0  0
 43 87  1  0  0  0
 44 45  1  0  0  0
 44 96  1  0  0  0
 45 46  1  0  0  0
 45 47  2  0  0  0
 46 50  1  0  0  0
 46 88  1  0  0  0
 46 89  1  0  0  0
 47 48  1  0  0  0
 48 49  1  0  0  0
 48 90  1  0  0  0
 48 91  1  0  0  0
 49 50  1  0  0  0
 49 92  1  0  0  0
 49 93  1  0  0  0
 50 94  1  0  0  0
 50 95  1  0  0  0
M  CHG  1  44   1
M  END
> <s_m_source_file>
../1q83_ligand.sdf

> <i_m_source_file_index>
1

> <s_epik_input>
W2NIXTFbY0hdW2NIXVtjSF1bY0hdYzFbQ0hdKGMyYzNbY0hdW2NIXWMoW2NIXTIpW05IMl0pTihjKGMzNClbY0hdYyhbTkgyXSlbY0hdW2NIXTQpW0NIMl1bQ0gyXVtDSDJdW0NIMl1bQ0gyXVtDSDJdYzVuKG5uW2NIXTUpW0NIMl1bQ0gyXVtOSF1jNmMoW0NIMl1bQ0gyXVtDSDJdW0NIMl03KWM3bmMoYzY4KVtjSF1bY0hdW2NIXVtjSF04

> <s_epik_cmdline>
J2VwaWtfYXBwJywgJy1pbWFlJywgJ2xpZ2FuZF9wcm8ubWFlJywgJy1vbWFlJywgJ2xpZ2FuZF9wcmVwLm1hZScsICctbXMnLCAnMScsICctcGgnLCAnNycsICctcGh0JywgJzAuNScsICctbnQn

> <r_lp_tautomer_probability>
1

> <r_epik_Ionization_Penalty>
  0.0100

> <r_epik_Ionization_Penalty_Charging>
  0.0007

> <r_epik_Ionization_Penalty_Neutral>
  0.0094

> <r_epik_State_Penalty>
 -0.0000

> <r_epik_Charging_Adjusted_Penalty>
0.000669936097363365

> <i_epik_Tot_Q>
1

> <i_epik_Tot_abs_Q>
1

$$$$
