1q8w_ligand
                    3D
 Schrodinger Suite 2020-3.
 38 40  0  0  1  0            999 V2000
   26.9940   26.9540    9.2830 O   0  0  0  0  0  0
   27.1860   25.7920    8.4080 S   0  0  0  0  0  0
   27.9860   26.0500    7.2280 O   0  0  0  0  0  0
   27.9080   24.6030    9.2490 N   0  0  3  0  0  0
   27.4130   24.2840   10.6350 C   0  0  0  0  0  0
   28.4790   24.0170   11.7230 C   0  0  0  0  0  0
   29.7220   24.8500   11.4750 N   0  3  0  0  0  0
   30.6460   24.1750   10.4640 C   0  0  0  0  0  0
   30.3290   24.5740    9.0120 C   0  0  0  0  0  0
   29.0210   23.8900    8.5770 C   0  0  0  0  0  0
   25.7240   24.8810    7.9650 C   0  0  0  0  0  0
   25.7800   23.4940    7.8520 C   0  0  0  0  0  0
   24.6130   22.7330    7.5170 C   0  0  0  0  0  0
   23.3990   23.3610    7.3210 C   0  0  0  0  0  0
   23.3330   24.7720    7.4130 C   0  0  0  0  0  0
   24.4820   25.5390    7.7340 C   0  0  0  0  0  0
   24.3120   26.9510    7.8040 C   0  0  0  0  0  0
   22.1280   25.4500    7.1710 C   0  0  0  0  0  0
   21.9990   26.7680    7.2870 N   0  0  0  0  0  0
   23.0920   27.5280    7.5800 C   0  0  0  0  0  0
   26.8128   25.1249   11.0125 H   0  0  0  0  0  0
   26.7928   23.3761   10.6029 H   0  0  0  0  0  0
   28.0688   24.2773   12.7099 H   0  0  0  0  0  0
   28.7570   22.9528   11.7106 H   0  0  0  0  0  0
   29.4307   25.8350   11.0813 H   0  0  0  0  0  0
   30.2706   24.9803   12.4195 H   0  0  0  0  0  0
   31.6878   24.4600   10.6722 H   0  0  0  0  0  0
   30.5417   23.0829   10.5440 H   0  0  0  0  0  0
   30.2147   25.6662    8.9485 H   0  0  0  0  0  0
   31.1511   24.2526    8.3556 H   0  0  0  0  0  0
   29.0170   22.8333    8.8826 H   0  0  0  0  0  0
   28.8938   23.9568    7.4864 H   0  0  0  0  0  0
   26.7260   22.9795    8.0210 H   0  0  0  0  0  0
   24.6842   21.6500    7.4161 H   0  0  0  0  0  0
   22.5047   22.7788    7.0987 H   0  0  0  0  0  0
   25.1683   27.5828    8.0400 H   0  0  0  0  0  0
   21.2559   24.8677    6.8736 H   0  0  0  0  0  0
   22.9924   28.6120    7.6367 H   0  0  0  0  0  0
  1  2  2  0  0  0
  2  3  2  0  0  0
  2  4  1  0  0  0
  2 11  1  0  0  0
  4  5  1  0  0  0
  4 10  1  0  0  0
  5  6  1  0  0  0
  5 21  1  0  0  0
  5 22  1  0  0  0
  6  7  1  0  0  0
  6 23  1  0  0  0
  6 24  1  0  0  0
  7  8  1  0  0  0
  7 25  1  0  0  0
  7 26  1  0  0  0
  8  9  1  0  0  0
  8 27  1  0  0  0
  8 28  1  0  0  0
  9 10  1  0  0  0
  9 29  1  0  0  0
  9 30  1  0  0  0
 10 31  1  0  0  0
 10 32  1  0  0  0
 11 12  2  0  0  0
 11 16  1  0  0  0
 12 13  1  0  0  0
 12 33  1  0  0  0
 13 14  2  0  0  0
 13 34  1  0  0  0
 14 15  1  0  0  0
 14 35  1  0  0  0
 15 16  2  0  0  0
 15 18  1  0  0  0
 16 17  1  0  0  0
 17 20  2  0  0  0
 17 36  1  0  0  0
 18 19  2  0  0  0
 18 37  1  0  0  0
 19 20  1  0  0  0
 20 38  1  0  0  0
M  CHG  1   7   1
M  END
> <s_m_source_file>
../1q8w_ligand.sdf

> <i_m_source_file_index>
1

> <s_epik_input>
W2NIXTFuW2NIXVtjSF1jKGMxMiljKFtjSF1bY0hdW2NIXTIpUyg9TykoPU8pTjNbQ0gyXVtDSDJdW05IMitdW0NIMl1bQ0gyXVtDSDJdMw==

> <s_epik_cmdline>
J2VwaWtfYXBwJywgJy1pbWFlJywgJ2xpZ2FuZF9wcm8ubWFlJywgJy1vbWFlJywgJ2xpZ2FuZF9wcmVwLm1hZScsICctbXMnLCAnMScsICctcGgnLCAnNycsICctcGh0JywgJzAuNScsICctbnQn

> <r_lp_tautomer_probability>
1

> <r_epik_Ionization_Penalty>
  0.0088

> <r_epik_Ionization_Penalty_Charging>
  0.0081

> <r_epik_Ionization_Penalty_Neutral>
  0.0007

> <r_epik_State_Penalty>
 -0.0000

> <r_epik_Charging_Adjusted_Penalty>
0.00808172145150982

> <i_epik_Tot_Q>
1

> <i_epik_Tot_abs_Q>
1

$$$$
