1q95_ligand
                    3D
 Schrodinger Suite 2020-3.
 23 22  0  0  1  0            999 V2000
   33.4760   54.4570   63.9920 P   0  0  0  0  0  0
   34.1190   55.7270   63.7230 O   0  0  0  0  0  0
   32.8700   54.3920   65.3740 O   0  5  0  0  0  0
   34.4750   53.2940   63.7970 O   0  0  0  0  0  0
   32.1060   54.0500   62.8310 C   0  0  0  0  0  0
   32.4750   54.4020   61.4420 C   0  0  0  0  0  0
   33.1810   53.6500   60.7230 O   0  0  0  0  0  0
   32.0560   55.5270   60.9840 N   0  0  0  0  0  0
   32.2790   56.1030   59.7120 C   0  0  2  0  0  0
   33.6950   56.5450   59.4140 C   0  0  0  0  0  0
   34.6240   56.3920   60.2880 O   0  5  0  0  0  0
   34.0120   57.0650   58.3180 O   0  0  0  0  0  0
   31.2510   57.3080   59.4870 C   0  0  0  0  0  0
   31.2820   58.4880   60.4680 C   0  0  0  0  0  0
   30.4700   59.5020   60.3460 O   0  5  0  0  0  0
   32.1240   58.4630   61.4220 O   0  0  0  0  0  0
   35.4108   53.2701   64.3746 H   0  0  0  0  0  0
   31.8923   52.9721   62.8796 H   0  0  0  0  0  0
   31.2057   54.6153   63.1136 H   0  0  0  0  0  0
   31.4504   56.0610   61.7311 H   0  0  0  0  0  0
   32.1412   55.2087   59.0866 H   0  0  0  0  0  0
   31.4252   57.7589   58.4989 H   0  0  0  0  0  0
   30.2209   56.9258   59.5391 H   0  0  0  0  0  0
  1  2  2  0  0  0
  1  3  1  0  0  0
  1  4  1  0  0  0
  1  5  1  0  0  0
  4 17  1  0  0  0
  5  6  1  0  0  0
  5 18  1  0  0  0
  5 19  1  0  0  0
  6  7  2  0  0  0
  6  8  1  0  0  0
  8  9  1  0  0  0
  8 20  1  0  0  0
  9 10  1  0  0  0
  9 13  1  0  0  0
  9 21  1  0  0  0
 10 11  1  0  0  0
 10 12  2  0  0  0
 13 14  1  0  0  0
 13 22  1  0  0  0
 13 23  1  0  0  0
 14 15  1  0  0  0
 14 16  2  0  0  0
M  CHG  3   3  -1  11  -1  15  -1
M  END
> <s_m_source_file>
../1q95_ligand.sdf

> <i_m_source_file_index>
1

> <s_epik_input>
Tz1QKFtPSF0pKFtPSF0pW0NIMl1DKD1PKVtOSF1bQ0BIXShDKD1PKVtPSF0pW0NIMl1DKD1PKVtPSF0=

> <s_epik_cmdline>
J2VwaWtfYXBwJywgJy1pbWFlJywgJ2xpZ2FuZF9wcm8ubWFlJywgJy1vbWFlJywgJ2xpZ2FuZF9wcmVwLm1hZScsICctbXMnLCAnMScsICctcGgnLCAnNycsICctcGh0JywgJzAuNScsICctbnQn

> <r_epik_Ionization_Penalty>
  0.1851

> <r_epik_Ionization_Penalty_Charging>
  0.0015

> <r_epik_Ionization_Penalty_Neutral>
  0.1837

> <r_epik_State_Penalty>
  0.1732

> <r_epik_Charging_Adjusted_Penalty>
0.174683929429732

> <i_epik_Tot_Q>
-3

> <i_epik_Tot_abs_Q>
3

$$$$
