1q9d_ligand
                    3D
 Schrodinger Suite 2020-3.
 75 79  0  0  1  0            999 V2000
   45.4720   74.5560   22.4890 O   0  0  0  0  0  0
   44.8790   75.5310   21.6990 C   0  0  0  0  0  0
   44.4870   76.7430   22.2660 C   0  0  0  0  0  0
   43.8980   77.7090   21.4760 C   0  0  0  0  0  0
   43.6800   77.5020   20.1130 C   0  0  0  0  0  0
   44.0780   76.2880   19.5600 C   0  0  0  0  0  0
   44.6760   75.3020   20.3400 C   0  0  0  0  0  0
   43.1380   78.6090   19.2410 C   0  0  0  0  0  0
   41.6980   78.3420   18.9180 C   0  0  1  0  0  0
   41.5770   77.1660   17.8900 C   0  0  0  0  0  0
   42.0290   77.2820   16.7390 O   0  0  0  0  0  0
   40.9680   75.9240   18.2660 N   0  0  0  0  0  0
   40.4390   75.6900   19.6430 C   0  0  2  0  0  0
   40.2810   76.9960   20.4380 C   0  0  0  0  0  0
   39.6060   76.9450   21.4660 O   0  0  0  0  0  0
   40.9380   78.2180   20.0830 N   0  0  0  0  0  0
   40.7730   79.4250   20.9360 C   0  0  2  0  0  0
   41.4310   79.1910   22.3710 C   0  0  0  0  0  0
   42.3440   79.9450   22.6760 O   0  0  0  0  0  0
   41.0270   78.2210   23.1890 N   0  0  0  0  0  0
   41.6650   78.0190   24.4890 C   0  0  0  0  0  0
   40.6110   77.9750   25.5880 C   0  0  0  0  0  0
   39.6600   79.1470   25.5390 C   0  0  0  0  0  0
   40.0560   80.4020   26.0110 C   0  0  0  0  0  0
   39.2360   81.5140   25.8950 C   0  0  0  0  0  0
   37.9970   81.3900   25.3070 C   0  0  0  0  0  0
   37.1980   82.5040   25.2220 O   0  0  0  0  0  0
   37.5640   80.1570   24.8160 C   0  0  0  0  0  0
   38.4010   79.0330   24.9370 C   0  0  0  0  0  0
   39.2090   79.7280   21.0520 C   0  0  0  0  0  0
   38.9360   81.1500   21.3290 C   0  0  0  0  0  0
   37.4520   81.4930   21.2890 C   0  0  0  0  0  0
   41.2460   74.5520   20.3280 C   0  0  0  0  0  0
   41.6810   73.4710   19.3340 C   0  0  0  0  0  0
   42.2690   72.3090   19.8520 C   0  0  0  0  0  0
   42.6930   71.2730   18.9850 C   0  0  0  0  0  0
   42.5410   71.4000   17.5860 C   0  0  0  0  0  0
   41.9430   72.5710   17.0400 C   0  0  0  0  0  0
   41.5100   73.6090   17.9110 C   0  0  0  0  0  0
   40.8740   74.8580   17.3260 C   0  0  0  0  0  0
   45.6312   74.7392   23.5619 H   0  0  0  0  0  0
   44.6451   76.9266   23.3287 H   0  0  0  0  0  0
   43.5963   78.6546   21.9264 H   0  0  0  0  0  0
   43.9186   76.1062   18.4972 H   0  0  0  0  0  0
   44.9831   74.3577   19.8906 H   0  0  0  0  0  0
   43.2197   79.5682   19.7732 H   0  0  0  0  0  0
   43.7174   78.6573   18.3072 H   0  0  0  0  0  0
   41.2105   79.2428   18.5169 H   0  0  0  0  0  0
   39.4015   75.3359   19.5523 H   0  0  0  0  0  0
   41.3068   80.2448   20.4331 H   0  0  0  0  0  0
   40.2006   77.5667   22.8743 H   0  0  0  0  0  0
   42.2190   77.0687   24.4818 H   0  0  0  0  0  0
   42.3606   78.8474   24.6888 H   0  0  0  0  0  0
   40.0149   77.0560   25.4877 H   0  0  0  0  0  0
   41.1052   77.9860   26.5707 H   0  0  0  0  0  0
   41.0333   80.5089   26.4817 H   0  0  0  0  0  0
   39.5706   82.4821   26.2676 H   0  0  0  0  0  0
   37.5547   83.4679   25.6139 H   0  0  0  0  0  0
   36.5861   80.0661   24.3431 H   0  0  0  0  0  0
   38.0672   78.0665   24.5595 H   0  0  0  0  0  0
   38.7131   79.4629   20.1066 H   0  0  0  0  0  0
   38.7798   79.1320   21.8709 H   0  0  0  0  0  0
   39.3102   81.4068   22.3310 H   0  0  0  0  0  0
   39.4423   81.7737   20.5776 H   0  0  0  0  0  0
   37.3172   82.5636   21.5029 H   0  0  0  0  0  0
   36.9177   80.8981   22.0444 H   0  0  0  0  0  0
   37.0498   81.2650   20.2909 H   0  0  0  0  0  0
   42.1502   74.9722   20.7927 H   0  0  0  0  0  0
   40.6245   74.0754   21.1003 H   0  0  0  0  0  0
   42.4007   72.2022   20.9287 H   0  0  0  0  0  0
   43.1404   70.3700   19.4003 H   0  0  0  0  0  0
   42.8812   70.6024   16.9256 H   0  0  0  0  0  0
   41.8178   72.6715   15.9619 H   0  0  0  0  0  0
   39.8156   74.6595   17.1013 H   0  0  0  0  0  0
   41.3990   75.1377   16.4007 H   0  0  0  0  0  0
  1  2  1  0  0  0
  1 41  1  0  0  0
  2  3  2  0  0  0
  2  7  1  0  0  0
  3  4  1  0  0  0
  3 42  1  0  0  0
  4  5  2  0  0  0
  4 43  1  0  0  0
  5  6  1  0  0  0
  5  8  1  0  0  0
  6  7  2  0  0  0
  6 44  1  0  0  0
  7 45  1  0  0  0
  8  9  1  0  0  0
  8 46  1  0  0  0
  8 47  1  0  0  0
  9 10  1  0  0  0
  9 16  1  0  0  0
  9 48  1  0  0  0
 10 11  2  0  0  0
 10 12  1  0  0  0
 12 13  1  0  0  0
 12 40  1  0  0  0
 13 14  1  0  0  0
 13 33  1  0  0  0
 13 49  1  0  0  0
 14 15  2  0  0  0
 14 16  1  0  0  0
 16 17  1  0  0  0
 17 18  1  0  0  0
 17 30  1  0  0  0
 17 50  1  0  0  0
 18 19  2  0  0  0
 18 20  1  0  0  0
 20 21  1  0  0  0
 20 51  1  0  0  0
 21 22  1  0  0  0
 21 52  1  0  0  0
 21 53  1  0  0  0
 22 23  1  0  0  0
 22 54  1  0  0  0
 22 55  1  0  0  0
 23 24  2  0  0  0
 23 29  1  0  0  0
 24 25  1  0  0  0
 24 56  1  0  0  0
 25 26  2  0  0  0
 25 57  1  0  0  0
 26 27  1  0  0  0
 26 28  1  0  0  0
 27 58  1  0  0  0
 28 29  2  0  0  0
 28 59  1  0  0  0
 29 60  1  0  0  0
 30 31  1  0  0  0
 30 61  1  0  0  0
 30 62  1  0  0  0
 31 32  1  0  0  0
 31 63  1  0  0  0
 31 64  1  0  0  0
 32 65  1  0  0  0
 32 66  1  0  0  0
 32 67  1  0  0  0
 33 34  1  0  0  0
 33 68  1  0  0  0
 33 69  1  0  0  0
 34 35  2  0  0  0
 34 39  1  0  0  0
 35 36  1  0  0  0
 35 70  1  0  0  0
 36 37  2  0  0  0
 36 71  1  0  0  0
 37 38  1  0  0  0
 37 72  1  0  0  0
 38 39  2  0  0  0
 38 73  1  0  0  0
 39 40  1  0  0  0
 40 74  1  0  0  0
 40 75  1  0  0  0
M  END
> <s_m_source_file>
../1q9d_ligand.sdf

> <i_m_source_file_index>
1

> <s_epik_input>
W2NIXTFbY0hdW2NIXVtjSF1jKFtDSDJdMiljMVtDSDJdW0NASF0oTjIzKUMoPU8pTihbQ0BIXShDMz1PKVtDSDJdYyhbY0hdW2NIXTQpW2NIXVtjSF1jNFtPSF0pW0NAQEhdKFtDSDJdW0NIMl1bQ0gzXSlDKD1PKVtOSF1bQ0gyXVtDSDJdYzVbY0hdW2NIXWMoW09IXSlbY0hdW2NIXTU=

> <s_epik_cmdline>
J2VwaWtfYXBwJywgJy1pbWFlJywgJ2xpZ2FuZF9wcm8ubWFlJywgJy1vbWFlJywgJ2xpZ2FuZF9wcmVwLm1hZScsICctbXMnLCAnMScsICctcGgnLCAnNycsICctcGh0JywgJzAuNScsICctbnQn

> <r_lp_tautomer_probability>
1

> <r_epik_Ionization_Penalty>
  0.0015

> <r_epik_Ionization_Penalty_Charging>
  0.0000

> <r_epik_Ionization_Penalty_Neutral>
  0.0015

> <r_epik_State_Penalty>
 -0.0000

> <r_epik_Charging_Adjusted_Penalty>
0

> <i_epik_Tot_Q>
0

> <i_epik_Tot_abs_Q>
0

$$$$
