1q9m_ligand
                    3D
 Schrodinger Suite 2020-3.
 41 43  0  0  1  0            999 V2000
   21.2990   -2.8180   30.9530 C   0  0  0  0  0  0
   21.5640   -4.0410   31.5900 C   0  0  0  0  0  0
   21.8630   -4.0770   32.9630 C   0  0  0  0  0  0
   21.8910   -2.9020   33.6920 C   0  0  0  0  0  0
   21.6310   -1.6860   33.0560 C   0  0  0  0  0  0
   21.3410   -1.6540   31.6960 C   0  0  0  0  0  0
   20.9030   -2.7440   29.5030 C   0  0  1  0  0  0
   21.3560   -4.0000   28.7650 C   0  0  0  0  0  0
   20.1770   -4.8200   28.4000 C   0  0  0  0  0  0
   20.1950   -5.9360   27.9030 O   0  0  0  0  0  0
   19.1120   -4.1240   28.7500 N   0  0  0  0  0  0
   19.3520   -2.8330   29.3920 C   0  0  0  0  0  0
   22.1350   -5.2500   33.6380 O   0  0  0  0  0  0
   21.9570   -6.4230   32.8320 C   0  0  0  0  0  0
   21.0770   -7.4060   33.5940 C   0  0  0  0  0  0
   21.8990   -8.5680   34.0920 C   0  0  0  0  0  0
   23.3220   -8.3570   33.6020 C   0  0  0  0  0  0
   23.3140   -7.1040   32.7520 C   0  0  0  0  0  0
   22.1320   -2.9990   35.0530 O   0  0  0  0  0  0
   23.0780   -2.0460   35.5180 C   0  0  0  0  0  0
   21.5377   -4.9676   31.0166 H   0  0  0  0  0  0
   21.6554   -0.7583   33.6277 H   0  0  0  0  0  0
   21.1443   -0.6983   31.2102 H   0  0  0  0  0  0
   21.3590   -1.8222   29.1126 H   0  0  0  0  0  0
   21.8968   -3.7133   27.8510 H   0  0  0  0  0  0
   22.0207   -4.5877   29.4152 H   0  0  0  0  0  0
   18.0820   -4.4710   28.5806 H   0  0  0  0  0  0
   18.9090   -2.7834   30.3976 H   0  0  0  0  0  0
   18.9791   -1.9946   28.7853 H   0  0  0  0  0  0
   21.5328   -6.1050   31.8682 H   0  0  0  0  0  0
   20.6178   -6.8966   34.4540 H   0  0  0  0  0  0
   20.2877   -7.7842   32.9277 H   0  0  0  0  0  0
   21.8688   -8.5940   35.1913 H   0  0  0  0  0  0
   21.4877   -9.5064   33.6916 H   0  0  0  0  0  0
   23.9931   -8.2377   34.4653 H   0  0  0  0  0  0
   23.6386   -9.2278   33.0091 H   0  0  0  0  0  0
   23.5265   -7.3764   31.7077 H   0  0  0  0  0  0
   24.0913   -6.4166   33.1171 H   0  0  0  0  0  0
   23.2254   -2.1738   36.6006 H   0  0  0  0  0  0
   22.7055   -1.0309   35.3159 H   0  0  0  0  0  0
   24.0354   -2.1956   34.9974 H   0  0  0  0  0  0
  1  2  2  0  0  0
  1  6  1  0  0  0
  1  7  1  0  0  0
  2  3  1  0  0  0
  2 21  1  0  0  0
  3  4  2  0  0  0
  3 13  1  0  0  0
  4  5  1  0  0  0
  4 19  1  0  0  0
  5  6  2  0  0  0
  5 22  1  0  0  0
  6 23  1  0  0  0
  7  8  1  0  0  0
  7 12  1  0  0  0
  7 24  1  0  0  0
  8  9  1  0  0  0
  8 25  1  0  0  0
  8 26  1  0  0  0
  9 10  2  0  0  0
  9 11  1  0  0  0
 11 12  1  0  0  0
 11 27  1  0  0  0
 12 28  1  0  0  0
 12 29  1  0  0  0
 13 14  1  0  0  0
 14 15  1  0  0  0
 14 18  1  0  0  0
 14 30  1  0  0  0
 15 16  1  0  0  0
 15 31  1  0  0  0
 15 32  1  0  0  0
 16 17  1  0  0  0
 16 33  1  0  0  0
 16 34  1  0  0  0
 17 18  1  0  0  0
 17 35  1  0  0  0
 17 36  1  0  0  0
 18 37  1  0  0  0
 18 38  1  0  0  0
 19 20  1  0  0  0
 20 39  1  0  0  0
 20 40  1  0  0  0
 20 41  1  0  0  0
M  END
> <s_m_source_file>
../1q9m_ligand.sdf

> <i_m_source_file_index>
1

> <s_epik_input>
W0NIMl0xW05IXUMoPU8pW0NIMl1bQ0BASF0xYzJbY0hdYyhjKFtjSF1bY0hdMilPW0NIM10pT1tDSF0zW0NIMl1bQ0gyXVtDSDJdW0NIMl0z

> <s_epik_cmdline>
J2VwaWtfYXBwJywgJy1pbWFlJywgJ2xpZ2FuZF9wcm8ubWFlJywgJy1vbWFlJywgJ2xpZ2FuZF9wcmVwLm1hZScsICctbXMnLCAnMScsICctcGgnLCAnNycsICctcGh0JywgJzAuNScsICctbnQn

> <r_lp_tautomer_probability>
1

> <r_epik_Ionization_Penalty>
  0.0000

> <r_epik_Ionization_Penalty_Charging>
  0.0000

> <r_epik_Ionization_Penalty_Neutral>
  0.0000

> <r_epik_State_Penalty>
 -0.0000

> <r_epik_Charging_Adjusted_Penalty>
0

> <i_epik_Tot_Q>
0

> <i_epik_Tot_abs_Q>
0

$$$$
