1qan_ligand
                    3D
 Schrodinger Suite 2020-3.
 46 48  0  0  1  0            999 V2000
   12.0740   37.0810   22.6250 N   0  3  0  0  0  0
   12.9000   38.1910   22.1850 C   0  0  1  0  0  0
   14.3410   37.8170   21.7690 C   0  0  0  0  0  0
   14.7660   36.3330   21.8170 C   0  0  0  0  0  0
   16.5060   36.0930   21.2720 S   0  0  0  0  0  0
   12.3300   38.9740   20.9810 C   0  0  0  0  0  0
   12.0590   38.3160   19.9330 O   0  0  0  0  0  0
   12.1820   40.2360   21.1140 O   0  5  0  0  0  0
   17.3250   35.3590   22.7440 C   0  0  0  0  0  0
   17.1900   36.1740   24.0520 C   0  0  1  0  0  0
   17.4970   35.3820   25.2130 O   0  0  0  0  0  0
   18.0460   37.4530   24.1750 C   0  0  1  0  0  0
   17.3440   38.5690   24.6940 O   0  0  0  0  0  0
   19.2330   36.9560   24.9680 C   0  0  1  0  0  0
   19.8650   37.9860   25.7150 O   0  0  0  0  0  0
   18.5400   36.0040   25.9740 C   0  0  2  0  0  0
   19.4110   34.9330   26.5080 N   0  0  0  0  0  0
   20.4170   34.2340   25.9390 C   0  0  0  0  0  0
   20.9900   33.3320   26.7510 N   0  0  0  0  0  0
   20.3060   33.4260   27.9560 C   0  0  0  0  0  0
   20.3540   32.8200   29.2090 C   0  0  0  0  0  0
   21.2690   31.8490   29.4890 N   0  0  0  0  0  0
   19.4820   33.1840   30.2110 N   0  0  0  0  0  0
   18.5680   34.1590   29.9730 C   0  0  0  0  0  0
   18.4470   34.7980   28.7730 N   0  0  0  0  0  0
   19.3230   34.4390   27.8010 C   0  0  0  0  0  0
   11.0748   37.4525   22.8964 H   0  0  0  0  0  0
   12.5379   36.6033   23.5006 H   0  0  0  0  0  0
   11.9835   36.3462   21.8114 H   0  0  0  0  0  0
   12.8640   38.7525   23.1302 H   0  0  0  0  0  0
   14.5125   38.1222   20.7262 H   0  0  0  0  0  0
   15.0576   38.3333   22.4247 H   0  0  0  0  0  0
   14.6753   35.9588   22.8474 H   0  0  0  0  0  0
   14.1153   35.7436   21.1543 H   0  0  0  0  0  0
   16.8929   34.3682   22.9480 H   0  0  0  0  0  0
   18.4030   35.2561   22.5507 H   0  0  0  0  0  0
   16.1237   36.4435   24.0717 H   0  0  0  0  0  0
   18.3355   37.9680   23.2471 H   0  0  0  0  0  0
   16.4728   38.9698   24.1552 H   0  0  0  0  0  0
   20.0520   36.5787   24.3380 H   0  0  0  0  0  0
   20.4222   38.7795   25.1955 H   0  0  0  0  0  0
   18.1654   36.5368   26.8605 H   0  0  0  0  0  0
   20.7362   34.3892   24.9084 H   0  0  0  0  0  0
   21.9842   31.5283   28.7173 H   0  0  0  0  0  0
   21.2921   31.3862   30.4867 H   0  0  0  0  0  0
   17.8962   34.4464   30.7818 H   0  0  0  0  0  0
  1  2  1  0  0  0
  1 27  1  0  0  0
  1 28  1  0  0  0
  1 29  1  0  0  0
  2  6  1  0  0  0
  2  3  1  0  0  0
  2 30  1  0  0  0
  3  4  1  0  0  0
  3 31  1  0  0  0
  3 32  1  0  0  0
  4  5  1  0  0  0
  4 33  1  0  0  0
  4 34  1  0  0  0
  5  9  1  0  0  0
  6  8  1  0  0  0
  6  7  2  0  0  0
  9 10  1  0  0  0
  9 35  1  0  0  0
  9 36  1  0  0  0
 10 12  1  0  0  0
 10 11  1  0  0  0
 10 37  1  0  0  0
 11 16  1  0  0  0
 12 14  1  0  0  0
 12 13  1  0  0  0
 12 38  1  0  0  0
 13 39  1  0  0  0
 14 16  1  0  0  0
 14 15  1  0  0  0
 14 40  1  0  0  0
 15 41  1  0  0  0
 16 17  1  0  0  0
 16 42  1  0  0  0
 17 26  1  0  0  0
 17 18  1  0  0  0
 18 19  2  0  0  0
 18 43  1  0  0  0
 19 20  1  0  0  0
 20 26  2  0  0  0
 20 21  1  0  0  0
 21 23  2  0  0  0
 21 22  1  0  0  0
 22 44  1  0  0  0
 22 45  1  0  0  0
 23 24  1  0  0  0
 24 25  2  0  0  0
 24 46  1  0  0  0
 25 26  1  0  0  0
M  CHG  2   1   1   8  -1
M  END
> <s_m_source_file>
../1qan_ligand.sdf

> <i_m_source_file_index>
1

> <s_epik_input>
Tz1DKFtPSF0pW0NAQEhdKFtOSDMrXSlbQ0gyXVtDSDJdU1tDSDJdW0NASF0xT1tDQEhdKFtDQEhdKFtPSF0pW0NAQEhdMVtPSF0pbihbY0hdbjIpYyhjMjMpbltjSF1uYzNbTkgyXQ==

> <s_epik_cmdline>
J2VwaWtfYXBwJywgJy1pbWFlJywgJ2xpZ2FuZF9wcm8ubWFlJywgJy1vbWFlJywgJ2xpZ2FuZF9wcmVwLm1hZScsICctbXMnLCAnMScsICctcGgnLCAnNycsICctcGh0JywgJzAuNScsICctbnQn

> <r_lp_tautomer_probability>
1

> <r_epik_Ionization_Penalty>
  0.0026

> <r_epik_Ionization_Penalty_Charging>
  0.0022

> <r_epik_Ionization_Penalty_Neutral>
  0.0004

> <r_epik_State_Penalty>
 -0.0000

> <r_epik_Charging_Adjusted_Penalty>
0.00216156469931729

> <i_epik_Tot_Q>
0

> <i_epik_Tot_abs_Q>
2

> <s_epik_Chemistry_Notes>
This compound contains an acetal/aminal-like group ( X-CH(R)-Y where X, Y are N, S, or O) that may be acid/base labile, releasing an aldehyde.

$$$$
