1qaq_ligand
                    3D
 Schrodinger Suite 2020-3.
 51 53  0  0  1  0            999 V2000
   12.1110   36.9810   22.6730 N   0  3  0  0  0  0
   13.0760   37.6830   21.8340 C   0  0  2  0  0  0
   12.5140   37.4720   20.4390 C   0  0  0  0  0  0
   12.1870   38.4400   19.7820 O   0  0  0  0  0  0
   12.4100   36.3410   19.9940 O   0  5  0  0  0  0
   14.5510   37.2050   21.9730 C   0  0  0  0  0  0
   14.7890   35.7010   21.6950 C   0  0  0  0  0  0
   16.2600   35.3190   21.4260 C   0  0  2  0  0  0
   16.3560   34.3510   20.3450 N   0  3  0  0  0  0
   17.0300   34.7280   22.6350 C   0  0  0  0  0  0
   16.9900   35.5940   23.9090 C   0  0  1  0  0  0
   17.3120   34.8440   25.0610 O   0  0  0  0  0  0
   17.9390   36.7900   23.8840 C   0  0  1  0  0  0
   17.3230   37.9760   24.4190 O   0  0  0  0  0  0
   19.0850   36.3570   24.7890 C   0  0  1  0  0  0
   19.6350   37.4930   25.4650 O   0  0  0  0  0  0
   18.3690   35.4470   25.7770 C   0  0  2  0  0  0
   19.2690   34.4050   26.3280 N   0  0  0  0  0  0
   20.2890   33.7290   25.7320 C   0  0  0  0  0  0
   20.9130   32.8310   26.5310 N   0  0  0  0  0  0
   20.2390   32.9270   27.7310 C   0  0  0  0  0  0
   20.3470   32.3090   28.9550 C   0  0  0  0  0  0
   21.2880   31.3770   29.1540 N   0  0  0  0  0  0
   19.5340   32.5960   30.0050 N   0  0  0  0  0  0
   18.5710   33.5490   29.8160 C   0  0  0  0  0  0
   18.3780   34.2110   28.6580 N   0  0  0  0  0  0
   19.2110   33.9080   27.6150 C   0  0  0  0  0  0
   11.1060   37.3930   22.4992 H   0  0  0  0  0  0
   12.3825   37.1105   23.7311 H   0  0  0  0  0  0
   12.1169   35.9102   22.4213 H   0  0  0  0  0  0
   13.1154   38.7360   22.1497 H   0  0  0  0  0  0
   15.1839   37.7573   21.2627 H   0  0  0  0  0  0
   14.9019   37.3918   22.9987 H   0  0  0  0  0  0
   14.4615   35.1112   22.5639 H   0  0  0  0  0  0
   14.2145   35.3967   20.8077 H   0  0  0  0  0  0
   16.7417   36.2561   21.1099 H   0  0  0  0  0  0
   15.8205   34.7321   19.4630 H   0  0  0  0  0  0
   15.9063   33.3992   20.6641 H   0  0  0  0  0  0
   17.4139   34.1895   20.0903 H   0  0  0  0  0  0
   16.6006   33.7508   22.9010 H   0  0  0  0  0  0
   18.0899   34.6025   22.3689 H   0  0  0  0  0  0
   15.9484   35.9277   24.0258 H   0  0  0  0  0  0
   18.2295   37.0971   22.8685 H   0  0  0  0  0  0
   16.4719   38.4372   23.8965 H   0  0  0  0  0  0
   19.9582   35.9184   24.2839 H   0  0  0  0  0  0
   20.1883   38.2559   24.8977 H   0  0  0  0  0  0
   17.9527   35.9943   26.6356 H   0  0  0  0  0  0
   20.5802   33.8969   24.6951 H   0  0  0  0  0  0
   21.9740   31.1051   28.3382 H   0  0  0  0  0  0
   21.3749   30.8835   30.1332 H   0  0  0  0  0  0
   17.9181   33.7882   30.6554 H   0  0  0  0  0  0
  1  2  1  0  0  0
  1 28  1  0  0  0
  1 29  1  0  0  0
  1 30  1  0  0  0
  2  3  1  0  0  0
  2  6  1  0  0  0
  2 31  1  0  0  0
  3  4  2  0  0  0
  3  5  1  0  0  0
  6  7  1  0  0  0
  6 32  1  0  0  0
  6 33  1  0  0  0
  7  8  1  0  0  0
  7 34  1  0  0  0
  7 35  1  0  0  0
  8  9  1  0  0  0
  8 10  1  0  0  0
  8 36  1  0  0  0
  9 37  1  0  0  0
  9 38  1  0  0  0
  9 39  1  0  0  0
 10 11  1  0  0  0
 10 40  1  0  0  0
 10 41  1  0  0  0
 11 12  1  0  0  0
 11 13  1  0  0  0
 11 42  1  0  0  0
 12 17  1  0  0  0
 13 14  1  0  0  0
 13 15  1  0  0  0
 13 43  1  0  0  0
 14 44  1  0  0  0
 15 16  1  0  0  0
 15 17  1  0  0  0
 15 45  1  0  0  0
 16 46  1  0  0  0
 17 18  1  0  0  0
 17 47  1  0  0  0
 18 19  1  0  0  0
 18 27  1  0  0  0
 19 20  2  0  0  0
 19 48  1  0  0  0
 20 21  1  0  0  0
 21 22  2  0  0  0
 21 27  1  0  0  0
 22 23  1  0  0  0
 22 24  1  0  0  0
 23 49  1  0  0  0
 23 50  1  0  0  0
 24 25  2  0  0  0
 25 26  1  0  0  0
 25 51  1  0  0  0
 26 27  2  0  0  0
M  CHG  3   1   1   5  -1   9   1
M  END
> <s_m_source_file>
../1qaq_ligand.sdf

> <i_m_source_file_index>
1

> <s_epik_input>
Tz1DKFtPSF0pW0NAQEhdKFtOSDMrXSlbQ0gyXVtDSDJdW0NASF0oW05IMytdKVtDSDJdW0NASF0xT1tDQEhdKFtDQEhdKFtPSF0pW0NAQEhdMVtPSF0pbihbY0hdbjIpYyhjMjMpbltjSF1uYzNbTkgyXQ==

> <s_epik_cmdline>
J2VwaWtfYXBwJywgJy1pbWFlJywgJ2xpZ2FuZF9wcm8ubWFlJywgJy1vbWFlJywgJ2xpZ2FuZF9wcmVwLm1hZScsICctbXMnLCAnMScsICctcGgnLCAnNycsICctcGh0JywgJzAuNScsICctbnQn

> <r_lp_tautomer_probability>
1

> <r_epik_Ionization_Penalty>
  0.0044

> <r_epik_Ionization_Penalty_Charging>
  0.0040

> <r_epik_Ionization_Penalty_Neutral>
  0.0004

> <r_epik_State_Penalty>
 -0.0000

> <r_epik_Charging_Adjusted_Penalty>
0.00403663670421057

> <i_epik_Tot_Q>
1

> <i_epik_Tot_abs_Q>
3

> <s_epik_Chemistry_Notes>
This compound contains an acetal/aminal-like group ( X-CH(R)-Y where X, Y are N, S, or O) that may be acid/base labile, releasing an aldehyde.

$$$$
