1qaw_ligand
                    3D
 Schrodinger Suite 2020-3.
 27 28  0  0  1  0            999 V2000
   18.8700   62.9900   33.5200 N   0  3  0  0  0  0
   18.0540   61.8970   32.9690 C   0  0  2  0  0  0
   18.6300   61.2890   31.6440 C   0  0  0  0  0  0
   18.9510   62.0290   30.6470 O   0  5  0  0  0  0
   16.5960   62.4040   32.8280 C   0  0  0  0  0  0
   15.7190   61.2120   32.5080 C   0  0  0  0  0  0
   15.2960   60.8500   31.2560 C   0  0  0  0  0  0
   15.1820   60.2210   33.3890 C   0  0  0  0  0  0
   14.5300   59.7140   31.3070 N   0  3  0  0  0  0
   14.4700   59.2920   32.6070 C   0  0  0  0  0  0
   15.2460   60.0100   34.7750 C   0  0  0  0  0  0
   13.8060   58.1920   33.1670 C   0  0  0  0  0  0
   14.5980   58.9040   35.3170 C   0  0  0  0  0  0
   13.8850   58.0100   34.5060 C   0  0  0  0  0  0
   19.1420   60.1410   31.7730 O   0  0  0  0  0  0
   18.4056   63.3643   34.4443 H   0  0  0  0  0  0
   18.9340   63.8061   32.7853 H   0  0  0  0  0  0
   19.8806   62.6169   33.7425 H   0  0  0  0  0  0
   18.1077   61.0894   33.7139 H   0  0  0  0  0  0
   16.2768   62.8696   33.7721 H   0  0  0  0  0  0
   16.5424   63.1453   32.0171 H   0  0  0  0  0  0
   15.5835   61.4535   30.3824 H   0  0  0  0  0  0
   15.7939   60.7006   35.4161 H   0  0  0  0  0  0
   13.2410   57.5014   32.5409 H   0  0  0  0  0  0
   14.6457   58.7297   36.3919 H   0  0  0  0  0  0
   13.3861   57.1544   34.9611 H   0  0  0  0  0  0
   14.0898   59.3056   30.3853 H   0  0  0  0  0  0
  1  2  1  0  0  0
  1 16  1  0  0  0
  1 17  1  0  0  0
  1 18  1  0  0  0
  2  5  1  0  0  0
  2  3  1  0  0  0
  2 19  1  0  0  0
  3  4  1  0  0  0
  3 15  2  0  0  0
  5  6  1  0  0  0
  5 20  1  0  0  0
  5 21  1  0  0  0
  6  7  2  0  0  0
  6  8  1  0  0  0
  7  9  1  0  0  0
  7 22  1  0  0  0
  8 11  2  0  0  0
  8 10  1  0  0  0
  9 10  1  0  0  0
  9 27  1  0  0  0
 10 12  2  0  0  0
 11 13  1  0  0  0
 11 23  1  0  0  0
 12 14  1  0  0  0
 12 24  1  0  0  0
 13 14  2  0  0  0
 13 25  1  0  0  0
 14 26  1  0  0  0
M  CHG  3   1   1   4  -1   9   1
M  END
> <s_m_source_file>
../1qaw_ligand.sdf

> <i_m_source_file_index>
1

> <s_epik_input>
W09IXUMoPU8pW0NAQEhdKFtOSDMrXSlbQ0gyXWMxW2NIXVtuSF1jKGMxMilbY0hdW2NIXVtjSF1bY0hdMg==

> <s_epik_cmdline>
J2VwaWtfYXBwJywgJy1pbWFlJywgJ2xpZ2FuZF9wcm8ubWFlJywgJy1vbWFlJywgJ2xpZ2FuZF9wcmVwLm1hZScsICctbXMnLCAnMScsICctcGgnLCAnNycsICctcGh0JywgJzAuNScsICctbnQn

> <r_lp_tautomer_probability>
1

> <r_epik_Ionization_Penalty>
  0.0030

> <r_epik_Ionization_Penalty_Charging>
  0.0030

> <r_epik_Ionization_Penalty_Neutral>
  0.0000

> <r_epik_State_Penalty>
 -0.0000

> <r_epik_Charging_Adjusted_Penalty>
0.00304110655313935

> <i_epik_Tot_Q>
1

> <i_epik_Tot_abs_Q>
3

$$$$
