1qb1_ligand
                    3D
 Schrodinger Suite 2020-3.
 67 71  0  0  1  0            999 V2000
   11.7250   36.6150   12.0780 O   0  0  0  0  0  0
   12.5520   36.1640   11.0990 C   0  0  0  0  0  0
   12.0470   35.9790    9.7920 C   0  0  0  0  0  0
   12.8580   35.5610    8.7300 C   0  0  0  0  0  0
   14.2070   35.2710    8.9650 C   0  0  0  0  0  0
   14.7550   35.4300   10.2390 C   0  0  0  0  0  0
   13.9470   35.8860   11.3090 C   0  0  0  0  0  0
   14.5420   36.0350   12.5290 O   0  0  0  0  0  0
   12.2060   35.3880    7.4950 C   0  0  0  0  0  0
   10.9110   35.6540    7.2960 N   0  0  0  0  0  0
   12.7900   34.9120    6.4050 N   0  3  0  0  0  0
   10.9220   37.7630   13.9970 C   0  0  0  0  0  0
   10.8680   39.0180   14.6700 C   0  0  0  0  0  0
   11.5260   40.1160   14.0860 C   0  0  0  0  0  0
   12.2030   39.9420   12.8720 C   0  0  0  0  0  0
   12.2390   38.7440   12.2520 N   0  0  0  0  0  0
   11.6170   37.6720   12.7970 C   0  0  0  0  0  0
   10.1960   39.1620   15.8440 N   0  0  0  0  0  0
   10.2260   38.0680   16.8050 C   0  0  0  0  0  0
   10.4450   38.6550   18.2360 C   0  0  1  0  0  0
    9.2830   39.6700   18.5530 C   0  0  0  0  0  0
    9.3240   40.8200   17.4830 C   0  0  0  0  0  0
    9.2500   40.2340   16.0490 C   0  0  0  0  0  0
   10.5980   37.6510   19.3160 C   0  0  0  0  0  0
    9.5750   37.3810   20.0060 O   0  5  0  0  0  0
   11.7120   37.4510   19.8750 O   0  0  0  0  0  0
   12.8780   40.8850   12.2280 O   0  0  0  0  0  0
   12.5560   42.1160   11.8290 C   0  0  0  0  0  0
   11.2740   42.3630   11.3400 C   0  0  0  0  0  0
   10.9360   43.6620   10.9170 C   0  0  0  0  0  0
   11.9030   44.6820   10.9950 C   0  0  0  0  0  0
   13.1980   44.4240   11.4880 C   0  0  0  0  0  0
   13.5220   43.1330   11.9250 C   0  0  0  0  0  0
   14.1370   45.4670   11.6050 C   0  0  0  0  0  0
   14.5570   46.3530   10.6670 N   0  0  0  0  0  0
   14.1670   46.4610    9.2820 C   0  0  0  0  0  0
   14.7450   45.7120   12.7870 N   0  0  0  0  0  0
   15.4900   47.2540   11.2460 C   0  0  0  0  0  0
   15.6150   46.8110   12.7190 C   0  0  0  0  0  0
   10.3100   36.7200   14.5010 F   0  0  0  0  0  0
   11.5090   41.2760   14.6870 F   0  0  0  0  0  0
   10.9901   36.1682    9.6044 H   0  0  0  0  0  0
   14.8347   34.9182    8.1467 H   0  0  0  0  0  0
   15.8071   35.2027   10.4106 H   0  0  0  0  0  0
   13.9530   36.3867   13.3889 H   0  0  0  0  0  0
   10.2995   36.0558    8.1173 H   0  0  0  0  0  0
   10.4570   35.4710    6.3109 H   0  0  0  0  0  0
   13.8579   34.6487    6.4235 H   0  0  0  0  0  0
    9.2714   37.5226   16.7696 H   0  0  0  0  0  0
   11.0493   37.3827   16.5549 H   0  0  0  0  0  0
   11.4406   39.1220   18.2636 H   0  0  0  0  0  0
    8.3164   39.1469   18.5066 H   0  0  0  0  0  0
    9.4258   40.0879   19.5605 H   0  0  0  0  0  0
    8.4689   41.4946   17.6369 H   0  0  0  0  0  0
   10.2612   41.3860   17.5888 H   0  0  0  0  0  0
    9.4578   41.0473   15.3381 H   0  0  0  0  0  0
    8.2290   39.8579   15.8876 H   0  0  0  0  0  0
   10.5409   41.5582   11.2859 H   0  0  0  0  0  0
    9.9382   43.8756   10.5339 H   0  0  0  0  0  0
   11.6457   45.6895   10.6682 H   0  0  0  0  0  0
   14.5097   42.9199   12.3339 H   0  0  0  0  0  0
   13.4409   45.6701    9.0428 H   0  0  0  0  0  0
   15.0544   46.3500    8.6415 H   0  0  0  0  0  0
   13.7085   47.4452    9.1059 H   0  0  0  0  0  0
   16.0060   48.0796   10.7560 H   0  0  0  0  0  0
   16.2271   47.2442   13.5101 H   0  0  0  0  0  0
   12.2069   34.7801    5.4816 H   0  0  0  0  0  0
  1 17  1  0  0  0
  1  2  1  0  0  0
  2  7  2  0  0  0
  2  3  1  0  0  0
  3  4  2  0  0  0
  3 42  1  0  0  0
  4  9  1  0  0  0
  4  5  1  0  0  0
  5  6  2  0  0  0
  5 43  1  0  0  0
  6  7  1  0  0  0
  6 44  1  0  0  0
  7  8  1  0  0  0
  8 45  1  0  0  0
  9 11  2  0  0  0
  9 10  1  0  0  0
 10 46  1  0  0  0
 10 47  1  0  0  0
 11 48  1  0  0  0
 11 67  1  0  0  0
 12 17  1  0  0  0
 12 13  2  0  0  0
 12 40  1  0  0  0
 13 18  1  0  0  0
 13 14  1  0  0  0
 14 15  2  0  0  0
 14 41  1  0  0  0
 15 27  1  0  0  0
 15 16  1  0  0  0
 16 17  2  0  0  0
 18 23  1  0  0  0
 18 19  1  0  0  0
 19 20  1  0  0  0
 19 49  1  0  0  0
 19 50  1  0  0  0
 20 24  1  0  0  0
 20 21  1  0  0  0
 20 51  1  0  0  0
 21 22  1  0  0  0
 21 52  1  0  0  0
 21 53  1  0  0  0
 22 23  1  0  0  0
 22 54  1  0  0  0
 22 55  1  0  0  0
 23 56  1  0  0  0
 23 57  1  0  0  0
 24 26  2  0  0  0
 24 25  1  0  0  0
 27 28  1  0  0  0
 28 33  2  0  0  0
 28 29  1  0  0  0
 29 30  2  0  0  0
 29 58  1  0  0  0
 30 31  1  0  0  0
 30 59  1  0  0  0
 31 32  2  0  0  0
 31 60  1  0  0  0
 32 34  1  0  0  0
 32 33  1  0  0  0
 33 61  1  0  0  0
 34 37  2  0  0  0
 34 35  1  0  0  0
 35 38  1  0  0  0
 35 36  1  0  0  0
 36 62  1  0  0  0
 36 63  1  0  0  0
 36 64  1  0  0  0
 37 39  1  0  0  0
 38 39  2  0  0  0
 38 65  1  0  0  0
 39 66  1  0  0  0
M  CHG  2  11   1  25  -1
M  END
> <s_m_source_file>
../1qb1_ligand.sdf

> <i_m_source_file_index>
1

> <s_epik_input>
W09IXWMxW2NIXVtjSF1jKC9DKFtOSDJdKT1OL1tIXSlbY0hdYzFPYzJuYyhjKEYpYyhjMkYpTjNbQ0gyXVtDQEhdKEMoPU8pW09IXSlbQ0gyXVtDSDJdW0NIMl0zKU9jNFtjSF1bY0hdW2NIXWMoW2NIXTQpLWM1bihbQ0gzXSlbY0hdW2NIXW41

> <s_epik_cmdline>
J2VwaWtfYXBwJywgJy1pbWFlJywgJ2xpZ2FuZF9wcm8ubWFlJywgJy1vbWFlJywgJ2xpZ2FuZF9wcmVwLm1hZScsICctbXMnLCAnMScsICctcGgnLCAnNycsICctcGh0JywgJzAuNScsICctbnQn

> <r_lp_tautomer_probability>
1

> <r_epik_Ionization_Penalty>
  0.2670

> <r_epik_Ionization_Penalty_Charging>
  0.2605

> <r_epik_Ionization_Penalty_Neutral>
  0.0064

> <r_epik_State_Penalty>
  0.2403

> <r_epik_Charging_Adjusted_Penalty>
0.500858639416509

> <i_epik_Tot_Q>
0

> <i_epik_Tot_abs_Q>
2

> <s_epik_Chemistry_Notes>
This compound has an imine and may undergo hydrolysis.

$$$$
