1qb6_ligand
                    3D
 Schrodinger Suite 2020-3.
 48 50  0  0  1  0            999 V2000
    8.9010   25.1190   20.0180 C   0  0  0  0  0  0
    9.7590   26.2110   19.7440 C   0  0  0  0  0  0
   11.0890   25.9250   19.3520 C   0  0  0  0  0  0
   11.5310   24.5740   19.2450 C   0  0  0  0  0  0
   10.6810   23.5470   19.5070 N   0  0  0  0  0  0
    9.4110   23.8090   19.8800 C   0  0  0  0  0  0
    9.2320   27.6020   19.8710 C   0  0  0  0  0  0
   12.7750   24.2960   18.8630 O   0  0  0  0  0  0
    8.5610   22.7850   20.1740 O   0  0  0  0  0  0
    9.0790   21.5800   20.5750 C   0  0  0  0  0  0
    8.8030   20.5380   19.6860 C   0  0  0  0  0  0
    9.2670   19.2450   19.9590 C   0  0  0  0  0  0
   10.0360   18.9970   21.1150 C   0  0  0  0  0  0
   10.3390   20.0510   22.0110 C   0  0  0  0  0  0
    9.8580   21.3480   21.7070 C   0  0  0  0  0  0
    8.9950   18.2340   19.0120 C   0  0  0  0  0  0
    8.2300   18.4260   17.9630 N   0  0  0  0  0  0
    9.3620   16.9880   19.1360 N   0  3  0  0  0  0
   13.9450   24.9590   18.7290 C   0  0  0  0  0  0
   14.2760   25.8810   19.7320 C   0  0  0  0  0  0
   15.4920   26.5820   19.6820 C   0  0  0  0  0  0
   16.3970   26.3530   18.6330 C   0  0  0  0  0  0
   16.1070   25.4160   17.6080 C   0  0  0  0  0  0
   14.8720   24.7250   17.6820 C   0  0  0  0  0  0
   17.0270   25.1780   16.5630 C   0  0  0  0  0  0
   18.2080   25.7980   16.4030 N   0  0  0  0  0  0
   16.7940   24.3050   15.5860 N   0  3  0  0  0  0
    7.6380   25.2630   20.3870 F   0  0  0  0  0  0
   11.9410   26.8980   19.0900 F   0  0  0  0  0  0
    8.1790   27.5677   20.1871 H   0  0  0  0  0  0
    9.3067   28.1125   18.8995 H   0  0  0  0  0  0
    9.8220   28.1507   20.6199 H   0  0  0  0  0  0
    8.2272   20.7312   18.7809 H   0  0  0  0  0  0
   10.3987   17.9897   21.3197 H   0  0  0  0  0  0
   10.9268   19.8689   22.9107 H   0  0  0  0  0  0
   10.1012   22.1786   22.3696 H   0  0  0  0  0  0
    7.8476   19.4326   17.7380 H   0  0  0  0  0  0
    7.9712   17.5804   17.3088 H   0  0  0  0  0  0
   10.0070   16.6854   19.9741 H   0  0  0  0  0  0
   13.5846   26.0550   20.5565 H   0  0  0  0  0  0
   15.7340   27.3061   20.4599 H   0  0  0  0  0  0
   17.3372   26.9039   18.6058 H   0  0  0  0  0  0
   14.6278   23.9929   16.9123 H   0  0  0  0  0  0
   18.5382   26.5496   17.1351 H   0  0  0  0  0  0
   18.8448   25.5541   15.5399 H   0  0  0  0  0  0
   15.8628   23.7194   15.5822 H   0  0  0  0  0  0
    9.0264   16.2402   18.4024 H   0  0  0  0  0  0
   17.5326   24.1690   14.7823 H   0  0  0  0  0  0
  1  6  2  0  0  0
  1  2  1  0  0  0
  1 28  1  0  0  0
  2  7  1  0  0  0
  2  3  2  0  0  0
  3  4  1  0  0  0
  3 29  1  0  0  0
  4  8  1  0  0  0
  4  5  2  0  0  0
  5  6  1  0  0  0
  6  9  1  0  0  0
  7 30  1  0  0  0
  7 31  1  0  0  0
  7 32  1  0  0  0
  8 19  1  0  0  0
  9 10  1  0  0  0
 10 15  2  0  0  0
 10 11  1  0  0  0
 11 12  2  0  0  0
 11 33  1  0  0  0
 12 16  1  0  0  0
 12 13  1  0  0  0
 13 14  2  0  0  0
 13 34  1  0  0  0
 14 15  1  0  0  0
 14 35  1  0  0  0
 15 36  1  0  0  0
 16 18  2  0  0  0
 16 17  1  0  0  0
 17 37  1  0  0  0
 17 38  1  0  0  0
 18 39  1  0  0  0
 18 47  1  0  0  0
 19 24  2  0  0  0
 19 20  1  0  0  0
 20 21  2  0  0  0
 20 40  1  0  0  0
 21 22  1  0  0  0
 21 41  1  0  0  0
 22 23  2  0  0  0
 22 42  1  0  0  0
 23 25  1  0  0  0
 23 24  1  0  0  0
 24 43  1  0  0  0
 25 27  2  0  0  0
 25 26  1  0  0  0
 26 44  1  0  0  0
 26 45  1  0  0  0
 27 46  1  0  0  0
 27 48  1  0  0  0
M  CHG  2  18   1  27   1
M  END
> <s_m_source_file>
../1qb6_ligand.sdf

> <i_m_source_file_index>
1

> <s_epik_input>
W0hdL049QyhbTkgyXSlcYyhbY0hdMSlbY0hdW2NIXVtjSF1jMU9jKGMoRiljKGMyRilbQ0gzXSluYzJPYzNbY0hdYygvQyhbTkgyXSk9TlxbSF0pW2NIXVtjSF1bY0hdMw==

> <s_epik_cmdline>
J2VwaWtfYXBwJywgJy1pbWFlJywgJ2xpZ2FuZF9wcm8ubWFlJywgJy1vbWFlJywgJ2xpZ2FuZF9wcmVwLm1hZScsICctbXMnLCAnMScsICctcGgnLCAnNycsICctcGh0JywgJzAuNScsICctbnQn

> <r_lp_tautomer_probability>
1

> <r_epik_Ionization_Penalty>
  0.0006

> <r_epik_Ionization_Penalty_Charging>
  0.0006

> <r_epik_Ionization_Penalty_Neutral>
  0.0000

> <r_epik_State_Penalty>
 -0.0000

> <r_epik_Charging_Adjusted_Penalty>
0.000623030849310646

> <i_epik_Tot_Q>
2

> <i_epik_Tot_abs_Q>
2

> <s_epik_Chemistry_Notes>
This compound has an imine and may undergo hydrolysis.

$$$$
