1qbo_ligand
                    3D
 Schrodinger Suite 2020-3.
 66 70  0  0  1  0            999 V2000
   19.9720    2.2570   54.3110 N   0  3  0  0  0  0
   20.0620    1.5510   55.3560 C   0  0  0  0  0  0
   18.9850    0.7930   55.7530 N   0  0  0  0  0  0
   21.1670    1.5710   56.1090 C   0  0  0  0  0  0
   22.2750    2.3240   55.6880 C   0  0  0  0  0  0
   23.4470    2.3680   56.4640 C   0  0  0  0  0  0
   24.4830    3.1160   56.0120 C   0  0  0  0  0  0
   25.6730    3.1150   56.7850 C   0  0  0  0  0  0
   25.7470    2.3730   57.9730 C   0  0  0  0  0  0
   24.6480    1.6250   58.4160 C   0  0  0  0  0  0
   23.5150    1.6290   57.6640 C   0  0  0  0  0  0
   22.4050    0.8770   58.0950 C   0  0  0  0  0  0
   21.2260    0.8620   57.3340 C   0  0  0  0  0  0
   26.7860    3.8890   56.3190 C   0  0  0  0  0  0
   28.0440    3.2560   56.7410 N   0  0  0  0  0  0
   28.9560    3.6620   57.8740 C   0  0  0  0  0  0
   28.7270    4.7860   58.7280 C   0  0  0  0  0  0
   30.0210    2.8670   57.9880 N   0  0  0  0  0  0
   29.9120    1.9710   57.0550 C   0  0  0  0  0  0
   30.7690    0.9040   56.7730 C   0  0  0  0  0  0
   30.5030    0.0380   55.7080 C   0  0  0  0  0  0
   29.3430    0.2150   54.9280 C   0  0  0  0  0  0
   28.4660    1.2800   55.2080 C   0  0  0  0  0  0
   28.7530    2.1720   56.2730 C   0  0  0  0  0  0
   29.2120   -0.7000   53.9230 O   0  0  0  0  0  0
   30.3250   -1.5990   53.9140 C   0  0  0  0  0  0
   31.4760   -1.0950   53.0590 C   0  0  0  0  0  0
   31.4740   -1.5830   51.6030 C   0  0  0  0  0  0
   31.2110   -3.0350   51.5630 N   0  0  0  0  0  0
   29.9460   -3.4930   52.1910 C   0  0  0  0  0  0
   29.8670   -3.0210   53.6270 C   0  0  0  0  0  0
   32.0730   -3.8860   50.9870 C   0  0  0  0  0  0
   31.8250   -5.3090   50.9520 N   0  3  0  0  0  0
   33.2880   -3.3880   50.4050 C   0  0  0  0  0  0
   20.8269    2.8671   53.9841 H   0  0  0  0  0  0
   18.0721    0.7708   55.1397 H   0  0  0  0  0  0
   19.0366    0.2091   56.6838 H   0  0  0  0  0  0
   22.2262    2.8794   54.7514 H   0  0  0  0  0  0
   24.4052    3.6950   55.0918 H   0  0  0  0  0  0
   26.6675    2.3783   58.5568 H   0  0  0  0  0  0
   24.7001    1.0529   59.3423 H   0  0  0  0  0  0
   22.4617    0.3055   59.0214 H   0  0  0  0  0  0
   20.3569    0.3056   57.6850 H   0  0  0  0  0  0
   26.7583    3.9467   55.2209 H   0  0  0  0  0  0
   26.7297    4.9033   56.7410 H   0  0  0  0  0  0
   27.7885    5.2813   58.4384 H   0  0  0  0  0  0
   29.5615    5.4961   58.6311 H   0  0  0  0  0  0
   28.6549    4.4451   59.7713 H   0  0  0  0  0  0
   31.6538    0.7452   57.3895 H   0  0  0  0  0  0
   31.1933   -0.7744   55.4810 H   0  0  0  0  0  0
   27.5673    1.4191   54.6071 H   0  0  0  0  0  0
   30.7073   -1.5817   54.9453 H   0  0  0  0  0  0
   31.4500    0.0040   53.0201 H   0  0  0  0  0  0
   32.4298   -1.4239   53.4973 H   0  0  0  0  0  0
   30.6895   -1.0555   51.0406 H   0  0  0  0  0  0
   32.4534   -1.3779   51.1462 H   0  0  0  0  0  0
   29.0907   -3.0847   51.6327 H   0  0  0  0  0  0
   29.9046   -4.5921   52.1730 H   0  0  0  0  0  0
   30.4815   -3.7276   54.2041 H   0  0  0  0  0  0
   28.8115   -3.1317   53.9164 H   0  0  0  0  0  0
   30.9025   -5.7175   51.3904 H   0  0  0  0  0  0
   33.3247   -2.2939   50.5130 H   0  0  0  0  0  0
   33.3185   -3.6523   49.3377 H   0  0  0  0  0  0
   34.1512   -3.8364   50.9186 H   0  0  0  0  0  0
   32.5587   -5.9839   50.4870 H   0  0  0  0  0  0
   19.0388    2.2611   53.7287 H   0  0  0  0  0  0
  1  2  2  0  0  0
  1 35  1  0  0  0
  1 66  1  0  0  0
  2  4  1  0  0  0
  2  3  1  0  0  0
  3 36  1  0  0  0
  3 37  1  0  0  0
  4 13  2  0  0  0
  4  5  1  0  0  0
  5  6  2  0  0  0
  5 38  1  0  0  0
  6 11  1  0  0  0
  6  7  1  0  0  0
  7  8  2  0  0  0
  7 39  1  0  0  0
  8 14  1  0  0  0
  8  9  1  0  0  0
  9 10  2  0  0  0
  9 40  1  0  0  0
 10 11  1  0  0  0
 10 41  1  0  0  0
 11 12  2  0  0  0
 12 13  1  0  0  0
 12 42  1  0  0  0
 13 43  1  0  0  0
 14 15  1  0  0  0
 14 44  1  0  0  0
 14 45  1  0  0  0
 15 24  1  0  0  0
 15 16  1  0  0  0
 16 18  2  0  0  0
 16 17  1  0  0  0
 17 46  1  0  0  0
 17 47  1  0  0  0
 17 48  1  0  0  0
 18 19  1  0  0  0
 19 24  2  0  0  0
 19 20  1  0  0  0
 20 21  2  0  0  0
 20 49  1  0  0  0
 21 22  1  0  0  0
 21 50  1  0  0  0
 22 25  1  0  0  0
 22 23  2  0  0  0
 23 24  1  0  0  0
 23 51  1  0  0  0
 25 26  1  0  0  0
 26 31  1  0  0  0
 26 27  1  0  0  0
 26 52  1  0  0  0
 27 28  1  0  0  0
 27 53  1  0  0  0
 27 54  1  0  0  0
 28 29  1  0  0  0
 28 55  1  0  0  0
 28 56  1  0  0  0
 29 32  1  0  0  0
 29 30  1  0  0  0
 30 31  1  0  0  0
 30 57  1  0  0  0
 30 58  1  0  0  0
 31 59  1  0  0  0
 31 60  1  0  0  0
 32 34  1  0  0  0
 32 33  2  0  0  0
 33 61  1  0  0  0
 33 65  1  0  0  0
 34 62  1  0  0  0
 34 63  1  0  0  0
 34 64  1  0  0  0
M  CHG  2   1   1  33   1
M  END
> <s_m_source_file>
../1qbo_ligand.sdf

> <i_m_source_file_index>
1

> <s_epik_input>
W0hdL049QyhcW05IMl0pYyhbY0hdMSlbY0hdW2NIXWMoYzEyKVtjSF1bY0hdYyhbY0hdMilbQ0gyXW4oYyhuMylbQ0gzXSljKGMzNClbY0hdYyhbY0hdW2NIXTQpT1tDSF01W0NIMl1bQ0gyXU4oW0NIMl1bQ0gyXTUpL0MoPU5cW0hdKVtDSDNd

> <s_epik_cmdline>
J2VwaWtfYXBwJywgJy1pbWFlJywgJ2xpZ2FuZF9wcm8ubWFlJywgJy1vbWFlJywgJ2xpZ2FuZF9wcmVwLm1hZScsICctbXMnLCAnMScsICctcGgnLCAnNycsICctcGh0JywgJzAuNScsICctbnQn

> <r_epik_Ionization_Penalty>
  0.0741

> <r_epik_Ionization_Penalty_Charging>
  0.0003

> <r_epik_Ionization_Penalty_Neutral>
  0.0738

> <r_epik_State_Penalty>
  0.0649

> <r_epik_Charging_Adjusted_Penalty>
0.0652494671411574

> <i_epik_Tot_Q>
2

> <i_epik_Tot_abs_Q>
2

> <s_epik_Chemistry_Notes>
This compound has an imine and may undergo hydrolysis.

$$$$
