1qbq_ligand
                    3D
 Schrodinger Suite 2020-3.
 46 45  0  0  1  0            999 V2000
  197.7660  126.0930   32.6320 P   0  0  0  0  0  0
  198.9400  126.9520   32.6260 O   0  0  0  0  0  0
  198.0850  124.6460   33.1350 O   0  5  0  0  0  0
  196.6260  126.6790   33.4890 O   0  0  0  0  0  0
  197.1530  125.9630   30.9050 C   0  0  2  0  0  0
  197.3570  127.2210   30.2330 O   0  0  0  0  0  0
  195.6740  125.6470   30.9190 C   0  0  0  0  0  0
  195.1050  124.7900   30.0580 C   0  0  0  0  0  0
  195.9350  124.0970   29.0060 C   0  0  0  0  0  0
  193.6120  124.5120   30.1220 C   0  0  0  0  0  0
  193.1310  124.2850   31.5860 C   0  0  0  0  0  0
  191.9070  123.3810   31.6060 C   0  0  0  0  0  0
  191.0900  123.3030   32.6730 C   0  0  0  0  0  0
  191.3850  124.1140   33.9120 C   0  0  0  0  0  0
  189.8710  122.3880   32.6710 C   0  0  0  0  0  0
  188.7720  122.9300   31.7860 C   0  0  0  0  0  0
  187.5110  122.0950   31.9720 C   0  0  0  0  0  0
  186.3380  122.3820   31.3550 C   0  0  0  0  0  0
  186.2070  123.5610   30.4170 C   0  0  0  0  0  0
  185.1120  121.5150   31.5740 C   0  0  0  0  0  0
  195.6747  126.1351   33.5850 H   0  0  0  0  0  0
  197.5937  125.2493   30.1933 H   0  0  0  0  0  0
  198.3736  127.6257   30.1199 H   0  0  0  0  0  0
  195.0593  126.1543   31.6772 H   0  0  0  0  0  0
  196.9850  124.4103   29.1023 H   0  0  0  0  0  0
  195.5616  124.3677   28.0073 H   0  0  0  0  0  0
  195.8635  123.0077   29.1414 H   0  0  0  0  0  0
  193.0614  125.3683   29.7054 H   0  0  0  0  0  0
  193.3818  123.6088   29.5378 H   0  0  0  0  0  0
  193.9362  123.8119   32.1673 H   0  0  0  0  0  0
  192.8703  125.2522   32.0405 H   0  0  0  0  0  0
  191.6994  122.7788   30.7092 H   0  0  0  0  0  0
  192.2912  124.7159   33.7491 H   0  0  0  0  0  0
  191.5429  123.4369   34.7644 H   0  0  0  0  0  0
  190.5358  124.7800   34.1251 H   0  0  0  0  0  0
  190.1593  121.3940   32.2983 H   0  0  0  0  0  0
  189.4796  122.2963   33.6949 H   0  0  0  0  0  0
  188.5632  123.9749   32.0590 H   0  0  0  0  0  0
  189.0911  122.8826   30.7344 H   0  0  0  0  0  0
  187.5816  121.2255   32.6421 H   0  0  0  0  0  0
  187.1688  124.0915   30.3584 H   0  0  0  0  0  0
  185.4331  124.2456   30.7944 H   0  0  0  0  0  0
  185.9238  123.2035   29.4160 H   0  0  0  0  0  0
  185.3573  120.7035   32.2749 H   0  0  0  0  0  0
  184.7904  121.0855   30.6137 H   0  0  0  0  0  0
  184.2997  122.1276   31.9921 H   0  0  0  0  0  0
  1  5  1  0  0  0
  1  4  1  0  0  0
  1  3  1  0  0  0
  1  2  2  0  0  0
  4 21  1  0  0  0
  5  7  1  0  0  0
  5  6  1  0  0  0
  5 22  1  0  0  0
  6 23  1  0  0  0
  7  8  2  0  0  0
  7 24  1  0  0  0
  8 10  1  0  0  0
  8  9  1  0  0  0
  9 25  1  0  0  0
  9 26  1  0  0  0
  9 27  1  0  0  0
 10 11  1  0  0  0
 10 28  1  0  0  0
 10 29  1  0  0  0
 11 12  1  0  0  0
 11 30  1  0  0  0
 11 31  1  0  0  0
 12 13  2  0  0  0
 12 32  1  0  0  0
 13 15  1  0  0  0
 13 14  1  0  0  0
 14 33  1  0  0  0
 14 34  1  0  0  0
 14 35  1  0  0  0
 15 16  1  0  0  0
 15 36  1  0  0  0
 15 37  1  0  0  0
 16 17  1  0  0  0
 16 38  1  0  0  0
 16 39  1  0  0  0
 17 18  2  0  0  0
 17 40  1  0  0  0
 18 20  1  0  0  0
 18 19  1  0  0  0
 19 41  1  0  0  0
 19 42  1  0  0  0
 19 43  1  0  0  0
 20 44  1  0  0  0
 20 45  1  0  0  0
 20 46  1  0  0  0
M  CHG  1   3  -1
M  END
> <s_m_source_file>
../1qbq_ligand.sdf

> <i_m_source_file_index>
1

> <s_epik_input>
Tz1QKFtPSF0pKFtPSF0pW0NASF0oW09IXSkvW0NIXT1DKFxbQ0gzXSlbQ0gyXVtDSDJdL1tDSF09QyhcW0NIM10pW0NIMl1bQ0gyXVtDSF09QyhbQ0gzXSlbQ0gzXQ==

> <s_epik_cmdline>
J2VwaWtfYXBwJywgJy1pbWFlJywgJ2xpZ2FuZF9wcm8ubWFlJywgJy1vbWFlJywgJ2xpZ2FuZF9wcmVwLm1hZScsICctbXMnLCAnMScsICctcGgnLCAnNycsICctcGh0JywgJzAuNScsICctbnQn

> <r_epik_Ionization_Penalty>
  0.3057

> <r_epik_Ionization_Penalty_Charging>
  0.0000

> <r_epik_Ionization_Penalty_Neutral>
  0.3056

> <r_epik_State_Penalty>
  0.2994

> <r_epik_Charging_Adjusted_Penalty>
0.299412648811725

> <i_epik_Tot_Q>
-1

> <i_epik_Tot_abs_Q>
1

$$$$
