1qbt_ligand
                    3D
 Schrodinger Suite 2020-3.
106114  0  0  1  0            999 V2000
   -8.8910   15.3150   27.9260 C   0  0  0  0  0  0
   -9.5340   14.7500   30.1640 C   0  0  0  0  0  0
  -10.8640   16.4660   28.9380 C   0  0  1  0  0  0
  -10.5680   17.9230   28.6760 C   0  0  1  0  0  0
  -10.2000   18.1730   27.2290 C   0  0  2  0  0  0
   -8.8220   17.6340   26.9400 C   0  0  1  0  0  0
   -8.1010   15.6010   25.6770 C   0  0  0  0  0  0
   -9.4360   15.5020   31.4490 C   0  0  0  0  0  0
  -10.0550   14.9640   32.5890 C   0  0  0  0  0  0
   -9.9910   15.6700   33.8100 C   0  0  0  0  0  0
   -9.3050   16.9050   33.8870 C   0  0  0  0  0  0
   -8.6810   17.4330   32.7440 C   0  0  0  0  0  0
   -8.7490   16.7310   31.5250 C   0  0  0  0  0  0
  -10.6400   15.1250   35.0420 C   0  0  0  0  0  0
  -11.4080   13.1020   36.1550 C   0  0  0  0  0  0
  -12.7390   12.6320   39.4370 C   0  0  0  0  0  0
  -12.9550   11.3790   40.0430 C   0  0  0  0  0  0
  -12.6530   10.1780   39.3660 C   0  0  0  0  0  0
  -12.1250   10.1800   38.0620 C   0  0  0  0  0  0
  -11.8940   11.4130   37.4260 C   0  0  0  0  0  0
  -12.2120   12.6800   38.1360 C   0  0  0  0  0  0
  -11.9800   15.8390   28.0650 C   0  0  0  0  0  0
  -12.5320   14.5500   28.6140 C   0  0  0  0  0  0
  -12.1320   13.3170   28.0540 C   0  0  0  0  0  0
  -12.5800   12.1150   28.6330 C   0  0  0  0  0  0
  -13.4310   12.1430   29.7610 C   0  0  0  0  0  0
  -13.8410   13.3790   30.3120 C   0  0  0  0  0  0
  -13.3930   14.5870   29.7340 C   0  0  0  0  0  0
   -7.7000   18.2600   27.7930 C   0  0  0  0  0  0
   -6.3490   18.1720   27.1500 C   0  0  0  0  0  0
   -6.0520   19.0350   26.0750 C   0  0  0  0  0  0
   -4.7980   18.9320   25.4510 C   0  0  0  0  0  0
   -3.8510   17.9820   25.8970 C   0  0  0  0  0  0
   -4.1550   17.1360   26.9750 C   0  0  0  0  0  0
   -5.4100   17.2270   27.6040 C   0  0  0  0  0  0
   -8.8260   15.9050   24.4000 C   0  0  0  0  0  0
   -8.0450   16.2010   23.2840 C   0  0  0  0  0  0
   -8.6690   16.4720   22.0580 C   0  0  0  0  0  0
  -10.0710   16.4380   21.9380 C   0  0  0  0  0  0
  -10.8650   16.1340   23.0580 C   0  0  0  0  0  0
  -10.2340   15.8720   24.2930 C   0  0  0  0  0  0
   -7.8390   16.8320   20.8730 C   0  0  0  0  0  0
   -5.6020   16.5760   19.8570 C   0  0  0  0  0  0
   -4.7300   16.8560   16.4100 C   0  0  0  0  0  0
   -3.4800   16.5070   15.8610 C   0  0  0  0  0  0
   -2.4370   16.0290   16.6830 C   0  0  0  0  0  0
   -2.6010   15.8790   18.0760 C   0  0  0  0  0  0
   -3.8330   16.2100   18.6640 C   0  0  0  0  0  0
   -4.9280   16.7160   17.7940 C   0  0  0  0  0  0
   -9.6990   15.5730   28.9690 N   0  0  0  0  0  0
   -8.6770   16.1620   26.8970 N   0  0  0  0  0  0
  -10.8970   13.8210   34.9940 N   0  0  0  0  0  0
  -11.8810   13.6840   37.2790 N   0  0  0  0  0  0
  -11.4020   11.7710   36.2050 N   0  3  0  0  0  0
   -6.5410   16.5010   20.9820 N   0  0  0  0  0  0
   -5.9800   16.9260   18.6130 N   0  0  0  0  0  0
   -4.3320   16.1560   19.9350 N   0  3  0  0  0  0
   -8.3190   14.2420   27.9110 O   0  0  0  0  0  0
  -11.7400   18.6040   29.0060 O   0  0  0  0  0  0
  -10.1230   19.5470   26.9490 O   0  0  0  0  0  0
  -10.8930   15.7950   36.0290 O   0  0  0  0  0  0
   -8.3020   17.3780   19.8870 O   0  0  0  0  0  0
  -10.3947   14.0725   30.2643 H   0  0  0  0  0  0
   -8.6103   14.1590   30.0775 H   0  0  0  0  0  0
  -11.1916   16.5258   29.9864 H   0  0  0  0  0  0
   -9.7555   18.3115   29.3075 H   0  0  0  0  0  0
  -10.9893   17.7482   26.5914 H   0  0  0  0  0  0
   -8.7155   17.9286   25.8855 H   0  0  0  0  0  0
   -7.0790   15.9853   25.5437 H   0  0  0  0  0  0
   -8.0730   14.5042   25.7554 H   0  0  0  0  0  0
  -10.5799   14.0104   32.5317 H   0  0  0  0  0  0
   -9.2606   17.4464   34.8320 H   0  0  0  0  0  0
   -8.1468   18.3815   32.8006 H   0  0  0  0  0  0
   -8.2683   17.1396   30.6361 H   0  0  0  0  0  0
  -12.9772   13.5650   39.9687 H   0  0  0  0  0  0
  -13.3627   11.3361   41.0530 H   0  0  0  0  0  0
  -12.8399    9.2248   39.8822 H   0  0  0  0  0  0
  -11.9005    9.2283   37.5581 H   0  0  0  0  0  0
  -12.8203   16.5440   27.9822 H   0  0  0  0  0  0
  -11.5830   15.6223   27.0623 H   0  0  0  0  0  0
  -11.4812   13.2963   27.1799 H   0  0  0  0  0  0
  -12.2697   11.1595   28.2101 H   0  0  0  0  0  0
  -13.7723   11.2091   30.2075 H   0  0  0  0  0  0
  -14.5004   13.3993   31.1797 H   0  0  0  0  0  0
  -13.7098   15.5435   30.1498 H   0  0  0  0  0  0
   -7.9184   19.3248   27.9617 H   0  0  0  0  0  0
   -7.6414   17.7400   28.7605 H   0  0  0  0  0  0
   -6.7825   19.7688   25.7345 H   0  0  0  0  0  0
   -4.5532   19.5894   24.6167 H   0  0  0  0  0  0
   -2.8825   17.9063   25.4027 H   0  0  0  0  0  0
   -3.4204   16.4103   27.3239 H   0  0  0  0  0  0
   -5.6538   16.5693   28.4383 H   0  0  0  0  0  0
   -6.9581   16.2216   23.3638 H   0  0  0  0  0  0
  -10.5411   16.6473   20.9771 H   0  0  0  0  0  0
  -11.9512   16.1012   22.9737 H   0  0  0  0  0  0
  -10.8379   15.6424   25.1709 H   0  0  0  0  0  0
   -5.5440   17.2329   15.7733 H   0  0  0  0  0  0
   -3.3165   16.6075   14.7880 H   0  0  0  0  0  0
   -1.4774   15.7709   16.2112 H   0  0  0  0  0  0
   -1.7686   15.5060   18.6908 H   0  0  0  0  0  0
  -10.7245   13.2603   34.0635 H   0  0  0  0  0  0
   -6.1406   16.1557   21.9466 H   0  0  0  0  0  0
  -12.1505   18.5310   30.0239 H   0  0  0  0  0  0
  -11.0091   20.1855   27.0800 H   0  0  0  0  0  0
  -11.0934   10.9963   35.4877 H   0  0  0  0  0  0
   -3.6937   15.8123   20.7623 H   0  0  0  0  0  0
  1 58  2  0  0  0
  1 51  1  0  0  0
  1 50  1  0  0  0
  2 50  1  0  0  0
  2  8  1  0  0  0
  2 63  1  0  0  0
  2 64  1  0  0  0
  3 50  1  0  0  0
  3 22  1  0  0  0
  3  4  1  0  0  0
  3 65  1  0  0  0
  4 59  1  0  0  0
  4  5  1  0  0  0
  4 66  1  0  0  0
  5 60  1  0  0  0
  5  6  1  0  0  0
  5 67  1  0  0  0
  6 51  1  0  0  0
  6 29  1  0  0  0
  6 68  1  0  0  0
  7 51  1  0  0  0
  7 36  1  0  0  0
  7 69  1  0  0  0
  7 70  1  0  0  0
  8 13  2  0  0  0
  8  9  1  0  0  0
  9 10  2  0  0  0
  9 71  1  0  0  0
 10 14  1  0  0  0
 10 11  1  0  0  0
 11 12  2  0  0  0
 11 72  1  0  0  0
 12 13  1  0  0  0
 12 73  1  0  0  0
 13 74  1  0  0  0
 14 61  2  0  0  0
 14 52  1  0  0  0
 15 52  1  0  0  0
 15 53  2  0  0  0
 15 54  1  0  0  0
 16 17  1  0  0  0
 16 21  2  0  0  0
 16 75  1  0  0  0
 17 18  1  0  0  0
 17 76  1  0  0  0
 18 19  2  0  0  0
 18 77  1  0  0  0
 19 20  1  0  0  0
 19 78  1  0  0  0
 20 54  2  0  0  0
 20 21  1  0  0  0
 21 53  1  0  0  0
 22 23  1  0  0  0
 22 79  1  0  0  0
 22 80  1  0  0  0
 23 28  2  0  0  0
 23 24  1  0  0  0
 24 25  2  0  0  0
 24 81  1  0  0  0
 25 26  1  0  0  0
 25 82  1  0  0  0
 26 27  2  0  0  0
 26 83  1  0  0  0
 27 28  1  0  0  0
 27 84  1  0  0  0
 28 85  1  0  0  0
 29 30  1  0  0  0
 29 86  1  0  0  0
 29 87  1  0  0  0
 30 35  2  0  0  0
 30 31  1  0  0  0
 31 32  2  0  0  0
 31 88  1  0  0  0
 32 33  1  0  0  0
 32 89  1  0  0  0
 33 34  2  0  0  0
 33 90  1  0  0  0
 34 35  1  0  0  0
 34 91  1  0  0  0
 35 92  1  0  0  0
 36 41  2  0  0  0
 36 37  1  0  0  0
 37 38  2  0  0  0
 37 93  1  0  0  0
 38 42  1  0  0  0
 38 39  1  0  0  0
 39 40  2  0  0  0
 39 94  1  0  0  0
 40 41  1  0  0  0
 40 95  1  0  0  0
 41 96  1  0  0  0
 42 55  1  0  0  0
 42 62  2  0  0  0
 43 55  1  0  0  0
 43 56  2  0  0  0
 43 57  1  0  0  0
 44 45  1  0  0  0
 44 49  2  0  0  0
 44 97  1  0  0  0
 45 46  1  0  0  0
 45 98  1  0  0  0
 46 47  2  0  0  0
 46 99  1  0  0  0
 47 48  1  0  0  0
 47100  1  0  0  0
 48 57  2  0  0  0
 48 49  1  0  0  0
 49 56  1  0  0  0
 52101  1  0  0  0
 54105  1  0  0  0
 55102  1  0  0  0
 57106  1  0  0  0
 59103  1  0  0  0
 60104  1  0  0  0
M  CHG  2  54   1  57   1
M  END
> <s_m_source_file>
../1qbt_ligand.sdf

> <i_m_source_file_index>
1

> <s_epik_input>
W0NIXTE9W0NIXVtDSDJdW0NIXT1DKEMxPTIpTj1DKE4yKVtOSF1DKD1PKWMoW2NIXVtjSF1bY0hdMylbY0hdYzNbQ0gyXU4oQzQ9TylbQ0BIXShbQ0gyXWM1W2NIXVtjSF1bY0hdW2NIXVtjSF01KVtDQEhdKFtPSF0pW0NAQEhdKFtPSF0pW0NAQEhdKFtDSDJdYzZbY0hdW2NIXVtjSF1bY0hdW2NIXTYpTjRbQ0gyXWM3W2NIXWMoW2NIXVtjSF1bY0hdNylDKD1PKVtOSF1DKE44KT1OQyhDPTg5KT1bQ0hdW0NIMl1bQ0hdPVtDSF05

> <s_epik_cmdline>
J2VwaWtfYXBwJywgJy1pbWFlJywgJ2xpZ2FuZF9wcm8ubWFlJywgJy1vbWFlJywgJ2xpZ2FuZF9wcmVwLm1hZScsICctbXMnLCAnMScsICctcGgnLCAnNycsICctcGh0JywgJzAuNScsICctbnQn

> <r_lp_tautomer_probability>
1

> <r_epik_Ionization_Penalty>
  0.0009

> <r_epik_Ionization_Penalty_Charging>
  0.0009

> <r_epik_Ionization_Penalty_Neutral>
  0.0000

> <r_epik_State_Penalty>
 -0.0000

> <r_epik_Charging_Adjusted_Penalty>
0.000888030024699097

> <i_epik_Tot_Q>
2

> <i_epik_Tot_abs_Q>
2

> <s_epik_Chemistry_Notes>
This compound has an imine and may undergo hydrolysis.

$$$$
