1qbv_ligand
                    3D
 Schrodinger Suite 2020-3.
 57 59  0  0  1  0            999 V2000
   19.5743  -15.5686   25.3538 C   0  0  0  0  0  0
   16.5750  -16.9570   23.5180 N   0  3  0  0  0  0
   17.8510  -16.1860   23.6670 C   0  0  2  0  0  0
   18.1370  -15.9710   25.1610 C   0  0  0  0  0  0
   19.9340  -14.3910   25.9840 C   0  0  0  0  0  0
   20.5860  -16.4500   24.9930 C   0  0  0  0  0  0
   21.2600  -13.9890   26.0220 C   0  0  0  0  0  0
   21.9240  -16.0560   25.0270 C   0  0  0  0  0  0
   22.2510  -14.8020   25.5410 C   0  0  0  0  0  0
   17.6040  -14.8370   22.9630 C   0  0  0  0  0  0
   16.5700  -14.2150   23.1900 O   0  0  0  0  0  0
   18.5200  -14.4270   22.0640 N   0  0  0  0  0  0
   19.5980  -15.2610   21.4760 C   0  0  0  0  0  0
   18.3790  -13.1430   21.3490 C   0  0  1  0  0  0
   19.5820  -13.1550   20.3720 C   0  0  0  0  0  0
   20.5100  -14.2340   20.9120 C   0  0  0  0  0  0
   17.0600  -13.0640   20.5960 C   0  0  0  0  0  0
   16.7200  -13.9660   19.8340 O   0  0  0  0  0  0
   16.3020  -11.9960   20.8110 N   0  0  0  0  0  0
   14.9960  -11.7850   20.1770 C   0  0  0  0  0  0
   14.0530  -11.0400   21.0760 C   0  0  0  0  0  0
   13.1720  -11.9830   21.6650 N   0  0  0  0  0  0
   12.3720  -11.6560   22.6740 C   0  0  0  0  0  0
   11.4520  -12.6130   23.0630 C   0  0  0  0  0  0
   10.6030  -12.3620   24.1440 C   0  0  0  0  0  0
   10.6820  -11.2130   24.8140 N   0  3  0  0  0  0
   11.5670  -10.2590   24.4560 C   0  0  0  0  0  0
   12.4380  -10.4570   23.3840 C   0  0  0  0  0  0
   16.3643  -17.1144   22.4499 H   0  0  0  0  0  0
   15.7495  -16.3917   23.9751 H   0  0  0  0  0  0
   16.6744  -17.9309   24.0196 H   0  0  0  0  0  0
   18.6998  -16.7301   23.2272 H   0  0  0  0  0  0
   17.9418  -16.9061   25.7063 H   0  0  0  0  0  0
   17.4793  -15.1778   25.5461 H   0  0  0  0  0  0
   19.1684  -13.7741   26.4546 H   0  0  0  0  0  0
   20.3311  -17.4623   24.6794 H   0  0  0  0  0  0
   21.5165  -13.0152   26.4393 H   0  0  0  0  0  0
   22.7043  -16.7206   24.6561 H   0  0  0  0  0  0
   23.2893  -14.4709   25.5598 H   0  0  0  0  0  0
   20.0662  -15.8657   22.2666 H   0  0  0  0  0  0
   19.1712  -15.9255   20.7104 H   0  0  0  0  0  0
   18.3616  -12.2983   22.0535 H   0  0  0  0  0  0
   19.2282  -13.3915   19.3577 H   0  0  0  0  0  0
   20.0635  -12.1660   20.3710 H   0  0  0  0  0  0
   21.1664  -13.8502   21.7069 H   0  0  0  0  0  0
   21.1221  -14.6842   20.1166 H   0  0  0  0  0  0
   16.7026  -11.2454   21.5082 H   0  0  0  0  0  0
   15.1266  -11.2010   19.2540 H   0  0  0  0  0  0
   14.5447  -12.7583   19.9342 H   0  0  0  0  0  0
   14.6261  -10.5169   21.8557 H   0  0  0  0  0  0
   13.4847  -10.3070   20.4846 H   0  0  0  0  0  0
   13.1391  -13.0156   21.2873 H   0  0  0  0  0  0
   11.3895  -13.5604   22.5276 H   0  0  0  0  0  0
    9.8703  -13.1121   24.4415 H   0  0  0  0  0  0
   11.6018   -9.3218   25.0114 H   0  0  0  0  0  0
   13.1581   -9.6875   23.1059 H   0  0  0  0  0  0
   10.0198  -11.0307   25.6732 H   0  0  0  0  0  0
  1  6  2  0  0  0
  1  5  1  0  0  0
  1  4  1  0  0  0
  2  3  1  0  0  0
  2 29  1  0  0  0
  2 30  1  0  0  0
  2 31  1  0  0  0
  3 10  1  0  0  0
  3  4  1  0  0  0
  3 32  1  0  0  0
  4 33  1  0  0  0
  4 34  1  0  0  0
  5  7  2  0  0  0
  5 35  1  0  0  0
  6  8  1  0  0  0
  6 36  1  0  0  0
  7  9  1  0  0  0
  7 37  1  0  0  0
  8  9  2  0  0  0
  8 38  1  0  0  0
  9 39  1  0  0  0
 10 12  1  0  0  0
 10 11  2  0  0  0
 12 14  1  0  0  0
 12 13  1  0  0  0
 13 16  1  0  0  0
 13 40  1  0  0  0
 13 41  1  0  0  0
 14 15  1  0  0  0
 14 17  1  0  0  0
 14 42  1  0  0  0
 15 16  1  0  0  0
 15 43  1  0  0  0
 15 44  1  0  0  0
 16 45  1  0  0  0
 16 46  1  0  0  0
 17 19  1  0  0  0
 17 18  2  0  0  0
 19 20  1  0  0  0
 19 47  1  0  0  0
 20 21  1  0  0  0
 20 48  1  0  0  0
 20 49  1  0  0  0
 21 22  1  0  0  0
 21 50  1  0  0  0
 21 51  1  0  0  0
 22 23  1  0  0  0
 22 52  1  0  0  0
 23 28  2  0  0  0
 23 24  1  0  0  0
 24 25  2  0  0  0
 24 53  1  0  0  0
 25 26  1  0  0  0
 25 54  1  0  0  0
 26 27  2  0  0  0
 26 57  1  0  0  0
 27 28  1  0  0  0
 27 55  1  0  0  0
 28 56  1  0  0  0
M  CHG  2   2   1  26   1
M  END
> <s_m_source_file>
../1qbv_ligand.sdf

> <i_m_source_file_index>
1

> <s_epik_input>
W2NIXTFbY0hdW2NIXVtjSF1bY0hdYzFbQ0gyXVtDQEBIXShbTkgzK10pQyg9TylOMltDSDJdW0NIMl1bQ0gyXVtDQEhdMkMoPU8pW05IXVtDSDJdW0NIMl1bTkhdYzNbY0hdW2NIXW5bY0hdW2NIXTM=

> <s_epik_cmdline>
J2VwaWtfYXBwJywgJy1pbWFlJywgJ2xpZ2FuZF9wcm8ubWFlJywgJy1vbWFlJywgJ2xpZ2FuZF9wcmVwLm1hZScsICctbXMnLCAnMScsICctcGgnLCAnNycsICctcGh0JywgJzAuNScsICctbnQn

> <r_lp_tautomer_probability>
0.9999999999368

> <r_epik_Ionization_Penalty>
  0.1833

> <r_epik_Ionization_Penalty_Charging>
  0.1833

> <r_epik_Ionization_Penalty_Neutral>
  0.0000

> <r_epik_State_Penalty>
  0.1692

> <r_epik_Charging_Adjusted_Penalty>
0.352502820828872

> <i_epik_Tot_Q>
2

> <i_epik_Tot_abs_Q>
2

$$$$
