1qca_ligand
                    3D
 Schrodinger Suite 2020-3.
 84 87  0  0  1  0            999 V2000
   -0.2410   16.4710   15.9770 C   0  0  0  0  0  0
   -1.2180   16.0020   17.0800 C   0  0  0  0  0  0
   -1.7290   14.6010   16.9690 C   0  0  2  0  0  0
   -0.6090   13.5550   16.4850 C   0  0  2  0  0  0
    0.1980   14.1680   15.3940 C   0  0  2  0  0  0
    0.9790   13.1370   14.6140 C   0  0  0  0  0  0
    1.8780   13.6690   13.4630 C   0  0  0  0  0  0
    1.6100   15.1440   13.1120 C   0  0  1  0  0  0
    1.7570   15.9960   14.4160 C   0  0  2  0  0  0
    0.8500   15.4800   15.6280 C   0  0  1  0  0  0
    1.5380   17.5540   14.0620 C   0  0  1  0  0  0
    2.6000   18.0240   13.0630 C   0  0  0  0  0  0
    2.5610   17.1960   11.7450 C   0  0  2  0  0  0
    2.7330   15.6930   12.0730 C   0  0  2  0  0  0
    2.7120   15.1100   10.7000 C   0  0  0  0  0  0
    3.4150   16.1260    9.7730 C   0  0  1  0  0  0
    3.4310   17.4300   10.5910 C   0  0  0  0  0  0
   -1.4160   12.3510   16.1600 C   0  0  0  0  0  0
    1.7630   15.2600   16.8810 C   0  0  0  0  0  0
    0.2620   15.2980   12.5590 C   0  0  0  0  0  0
    4.2240   15.5230   12.4730 C   0  0  0  0  0  0
    4.2290   18.3590   10.0920 C   0  0  0  0  0  0
    4.4120   19.7030   10.7610 C   0  0  0  0  0  0
    5.5740   20.6240   10.3970 C   0  0  0  0  0  0
    6.0130   21.7040   11.3200 C   0  0  0  0  0  0
    5.3030   22.5780   11.8380 C   0  0  0  0  0  0
    5.4330   23.7750   12.8540 C   0  0  0  0  0  0
    3.7270   22.6820   11.5350 C   0  0  0  0  0  0
    5.0180   18.1410    8.8800 C   0  0  0  0  0  0
    5.3920   14.9770    8.9030 C   0  0  0  0  0  0
    6.7890   14.8630    9.1190 C   0  0  0  0  0  0
    0.2370   17.6070   13.4510 O   0  0  0  0  0  0
    4.8790   15.8570    9.7960 O   0  0  0  0  0  0
    4.7480   14.4230    8.1390 O   0  0  0  0  0  0
    6.2070   18.5770    8.8280 O   0  0  0  0  0  0
    4.6050   17.6150    7.7740 O   0  5  0  0  0  0
   -2.8510   14.6200   16.0410 O   0  0  0  0  0  0
    0.2141   17.4064   16.3348 H   0  0  0  0  0  0
   -0.8486   16.6772   15.0835 H   0  0  0  0  0  0
   -0.7217   16.0635   18.0597 H   0  0  0  0  0  0
   -2.1090   16.6471   17.0792 H   0  0  0  0  0  0
   -2.1161   14.3165   17.9585 H   0  0  0  0  0  0
    0.1981   13.2271   17.1566 H   0  0  0  0  0  0
   -0.5723   14.5765   14.7234 H   0  0  0  0  0  0
    1.6528   12.5955   15.2943 H   0  0  0  0  0  0
    0.2822   12.4263   14.1456 H   0  0  0  0  0  0
    2.9352   13.5851   13.7549 H   0  0  0  0  0  0
    1.7002   13.0750   12.5544 H   0  0  0  0  0  0
    2.7850   15.8426   14.7762 H   0  0  0  0  0  0
    1.5515   18.2535   14.9108 H   0  0  0  0  0  0
    2.4253   19.0807   12.8122 H   0  0  0  0  0  0
    3.5988   17.9137   13.5106 H   0  0  0  0  0  0
    1.6224   17.5789   11.3178 H   0  0  0  0  0  0
    3.2461   14.1484   10.7018 H   0  0  0  0  0  0
    1.6701   14.9501   10.3854 H   0  0  0  0  0  0
    2.9724   16.1152    8.7660 H   0  0  0  0  0  0
   -1.9529   12.0157   17.0596 H   0  0  0  0  0  0
   -0.7513   11.5479   15.8090 H   0  0  0  0  0  0
   -2.1414   12.5979   15.3707 H   0  0  0  0  0  0
    1.1507   14.9046   17.7229 H   0  0  0  0  0  0
    2.2459   16.2098   17.1541 H   0  0  0  0  0  0
    2.5337   14.5110   16.6462 H   0  0  0  0  0  0
    0.1702   14.6952   11.6434 H   0  0  0  0  0  0
    0.0823   16.3567   12.3206 H   0  0  0  0  0  0
   -0.4785   14.9577   13.2978 H   0  0  0  0  0  0
    4.3794   15.9213   13.4865 H   0  0  0  0  0  0
    4.8592   16.0716   11.7620 H   0  0  0  0  0  0
    4.4894   14.4557   12.4538 H   0  0  0  0  0  0
    3.5276   20.3295   10.5732 H   0  0  0  0  0  0
    4.5362   19.5594   11.8445 H   0  0  0  0  0  0
    6.4852   20.0250   10.2524 H   0  0  0  0  0  0
    5.3378   21.1624    9.4673 H   0  0  0  0  0  0
    7.0923   21.6760   11.5305 H   0  0  0  0  0  0
    6.4784   23.8635   13.1845 H   0  0  0  0  0  0
    4.7876   23.5883   13.7250 H   0  0  0  0  0  0
    5.1237   24.7089   12.3619 H   0  0  0  0  0  0
    3.4387   21.8979   10.8194 H   0  0  0  0  0  0
    3.5002   23.6699   11.1076 H   0  0  0  0  0  0
    3.1642   22.5493   12.4708 H   0  0  0  0  0  0
    7.0905   15.5388    9.9329 H   0  0  0  0  0  0
    7.3258   15.1354    8.1983 H   0  0  0  0  0  0
    7.0342   13.8264    9.3933 H   0  0  0  0  0  0
   -0.6522   17.3040   14.0233 H   0  0  0  0  0  0
   -3.7071   15.2853   16.2266 H   0  0  0  0  0  0
  1 10  1  0  0  0
  1  2  1  0  0  0
  1 38  1  0  0  0
  1 39  1  0  0  0
  2  3  1  0  0  0
  2 40  1  0  0  0
  2 41  1  0  0  0
  3 37  1  0  0  0
  3  4  1  0  0  0
  3 42  1  0  0  0
  4 18  1  0  0  0
  4  5  1  0  0  0
  4 43  1  0  0  0
  5 10  1  0  0  0
  5  6  1  0  0  0
  5 44  1  0  0  0
  6  7  1  0  0  0
  6 45  1  0  0  0
  6 46  1  0  0  0
  7  8  1  0  0  0
  7 47  1  0  0  0
  7 48  1  0  0  0
  8 20  1  0  0  0
  8 14  1  0  0  0
  8  9  1  0  0  0
  9 11  1  0  0  0
  9 10  1  0  0  0
  9 49  1  0  0  0
 10 19  1  0  0  0
 11 32  1  0  0  0
 11 12  1  0  0  0
 11 50  1  0  0  0
 12 13  1  0  0  0
 12 51  1  0  0  0
 12 52  1  0  0  0
 13 17  1  0  0  0
 13 14  1  0  0  0
 13 53  1  0  0  0
 14 21  1  0  0  0
 14 15  1  0  0  0
 15 16  1  0  0  0
 15 54  1  0  0  0
 15 55  1  0  0  0
 16 33  1  0  0  0
 16 17  1  0  0  0
 16 56  1  0  0  0
 17 22  2  0  0  0
 18 57  1  0  0  0
 18 58  1  0  0  0
 18 59  1  0  0  0
 19 60  1  0  0  0
 19 61  1  0  0  0
 19 62  1  0  0  0
 20 63  1  0  0  0
 20 64  1  0  0  0
 20 65  1  0  0  0
 21 66  1  0  0  0
 21 67  1  0  0  0
 21 68  1  0  0  0
 22 29  1  0  0  0
 22 23  1  0  0  0
 23 24  1  0  0  0
 23 69  1  0  0  0
 23 70  1  0  0  0
 24 25  1  0  0  0
 24 71  1  0  0  0
 24 72  1  0  0  0
 25 26  2  0  0  0
 25 73  1  0  0  0
 26 28  1  0  0  0
 26 27  1  0  0  0
 27 74  1  0  0  0
 27 75  1  0  0  0
 27 76  1  0  0  0
 28 77  1  0  0  0
 28 78  1  0  0  0
 28 79  1  0  0  0
 29 36  1  0  0  0
 29 35  2  0  0  0
 30 33  1  0  0  0
 30 34  2  0  0  0
 30 31  1  0  0  0
 31 80  1  0  0  0
 31 81  1  0  0  0
 31 82  1  0  0  0
 32 83  1  0  0  0
 37 84  1  0  0  0
M  CHG  1  36  -1
M  END
> <s_m_source_file>
../1qca_ligand.sdf

> <i_m_source_file_index>
1

> <s_epik_input>
W0NIMl0xW0NIMl1bQ0BASF0oW09IXSlbQ0BASF0oW0NIM10pW0NASF0oW0NIMl1bQ0gyXTIpW0NAQF0xKFtDSDNdKVtDQEBIXShbQ0BdMjNbQ0gzXSlbQ0BIXShbT0hdKVtDSDJdW0NAQEhdNFtDQF0zKFtDSDNdKVtDSDJdW0NASF0oT0MoPU8pW0NIM10pQ1w0PUMoQyg9TylbT0hdKVxbQ0gyXVtDSDJdW0NIXT1DKFtDSDNdKVtDSDNd

> <s_epik_cmdline>
J2VwaWtfYXBwJywgJy1pbWFlJywgJ2xpZ2FuZF9wcm8ubWFlJywgJy1vbWFlJywgJ2xpZ2FuZF9wcmVwLm1hZScsICctbXMnLCAnMScsICctcGgnLCAnNycsICctcGh0JywgJzAuNScsICctbnQn

> <r_epik_Ionization_Penalty>
  0.0175

> <r_epik_Ionization_Penalty_Charging>
  0.0175

> <r_epik_Ionization_Penalty_Neutral>
  0.0000

> <r_epik_State_Penalty>
  0.0139

> <r_epik_Charging_Adjusted_Penalty>
0.0313976088766184

> <i_epik_Tot_Q>
-1

> <i_epik_Tot_abs_Q>
1

> <s_epik_Chemistry_Notes>
This compound has an ester and may undergo hydrolysis at high or low pH.

$$$$
