1qcp_ligand
                    3D
 Schrodinger Suite 2020-3.
 55 57  0  0  1  0            999 V2000
   42.5780   24.5400   50.1400 C   0  0  0  0  0  0
   42.4600   25.9900   49.9070 C   0  0  0  0  0  0
   40.9830   26.2770   49.7880 C   0  0  0  0  0  0
   40.2300   24.9390   49.9820 C   0  0  0  0  0  0
   41.2720   23.8560   50.1580 C   0  0  0  0  0  0
   43.7960   23.8010   49.6310 C   0  0  0  0  0  0
   44.9000   24.3400   49.6020 O   0  0  0  0  0  0
   43.6020   22.5540   49.2140 N   0  0  0  0  0  0
   44.6940   21.6910   48.7430 C   0  0  1  0  0  0
   44.6670   20.4120   49.5810 C   0  0  0  0  0  0
   45.5690   20.3120   50.7810 C   0  0  0  0  0  0
   45.3570   18.9440   51.4400 C   0  0  0  0  0  0
   45.7970   18.9510   52.8320 N   0  0  0  0  0  0
   45.8730   17.8830   53.6230 C   0  0  0  0  0  0
   45.5360   16.6800   53.1820 N   0  3  0  0  0  0
   46.3080   18.0280   54.8680 N   0  0  0  0  0  0
   45.4720   20.4110   46.8570 O   0  0  0  0  0  0
   43.3920   23.1090   45.7860 N   0  0  0  0  0  0
   44.5070   22.5840   46.3940 C   0  0  0  0  0  0
   45.8900   23.5580   46.1550 S   0  0  0  0  0  0
   43.6080   24.2810   45.1280 C   0  0  0  0  0  0
   44.9700   24.7220   45.2100 C   0  0  0  0  0  0
   45.3600   25.8960   44.5780 C   0  0  0  0  0  0
   44.4360   26.6540   43.8570 C   0  0  0  0  0  0
   43.1030   26.2430   43.7750 C   0  0  0  0  0  0
   42.6950   25.0580   44.4110 C   0  0  0  0  0  0
   44.4710   21.3240   47.2760 C   0  0  2  0  0  0
   42.8788   24.5006   51.1973 H   0  0  0  0  0  0
   42.9024   26.5347   50.7541 H   0  0  0  0  0  0
   42.9913   26.2571   48.9816 H   0  0  0  0  0  0
   40.6864   26.9999   50.5622 H   0  0  0  0  0  0
   40.7699   26.6965   48.7937 H   0  0  0  0  0  0
   39.5884   25.0052   50.8731 H   0  0  0  0  0  0
   39.6088   24.7362   49.0972 H   0  0  0  0  0  0
   41.2289   23.1263   49.3360 H   0  0  0  0  0  0
   41.1443   23.3346   51.1181 H   0  0  0  0  0  0
   42.5697   22.1745   49.2319 H   0  0  0  0  0  0
   45.6392   22.2425   48.8543 H   0  0  0  0  0  0
   43.6542   20.2573   49.9814 H   0  0  0  0  0  0
   44.9471   19.5549   48.9510 H   0  0  0  0  0  0
   46.6166   20.4155   50.4619 H   0  0  0  0  0  0
   45.3219   21.1130   51.4933 H   0  0  0  0  0  0
   44.2882   18.6855   51.4125 H   0  0  0  0  0  0
   45.9328   18.1814   50.8952 H   0  0  0  0  0  0
   46.1004   19.8950   53.3082 H   0  0  0  0  0  0
   45.1747   16.5535   52.1508 H   0  0  0  0  0  0
   46.5893   19.0243   55.2398 H   0  0  0  0  0  0
   46.3874   17.1519   55.5284 H   0  0  0  0  0  0
   45.5923   19.4496   47.3778 H   0  0  0  0  0  0
   46.3960   26.2279   44.6457 H   0  0  0  0  0  0
   44.7549   27.5685   43.3569 H   0  0  0  0  0  0
   42.3808   26.8405   43.2187 H   0  0  0  0  0  0
   41.6541   24.7416   44.3440 H   0  0  0  0  0  0
   43.5202   20.7852   47.1507 H   0  0  0  0  0  0
   45.6175   15.8076   53.8471 H   0  0  0  0  0  0
  1  2  1  0  0  0
  1  5  1  0  0  0
  1  6  1  0  0  0
  1 28  1  0  0  0
  2  3  1  0  0  0
  2 29  1  0  0  0
  2 30  1  0  0  0
  3  4  1  0  0  0
  3 31  1  0  0  0
  3 32  1  0  0  0
  4  5  1  0  0  0
  4 33  1  0  0  0
  4 34  1  0  0  0
  5 35  1  0  0  0
  5 36  1  0  0  0
  6  7  2  0  0  0
  6  8  1  0  0  0
  8  9  1  0  0  0
  8 37  1  0  0  0
  9 10  1  0  0  0
  9 27  1  0  0  0
  9 38  1  0  0  0
 10 11  1  0  0  0
 10 39  1  0  0  0
 10 40  1  0  0  0
 11 12  1  0  0  0
 11 41  1  0  0  0
 11 42  1  0  0  0
 12 13  1  0  0  0
 12 43  1  0  0  0
 12 44  1  0  0  0
 13 14  1  0  0  0
 13 45  1  0  0  0
 14 15  2  0  0  0
 14 16  1  0  0  0
 15 46  1  0  0  0
 15 55  1  0  0  0
 16 47  1  0  0  0
 16 48  1  0  0  0
 17 27  1  0  0  0
 17 49  1  0  0  0
 18 19  2  0  0  0
 18 21  1  0  0  0
 19 20  1  0  0  0
 19 27  1  0  0  0
 20 22  1  0  0  0
 21 22  2  0  0  0
 21 26  1  0  0  0
 22 23  1  0  0  0
 23 24  2  0  0  0
 23 50  1  0  0  0
 24 25  1  0  0  0
 24 51  1  0  0  0
 25 26  2  0  0  0
 25 52  1  0  0  0
 26 53  1  0  0  0
 27 54  1  0  0  0
M  CHG  1  15   1
M  END
> <s_m_source_file>
../1qcp_ligand.sdf

> <i_m_source_file_index>
1

> <s_epik_input>
W0NIMl0xW0NIMl1bQ0gyXVtDSDJdW0NIXTFDKD1PKVtOSF1bQ0BASF0oW0NIMl1bQ0gyXVtDSDJdW05IXS9DKD1OXFtIXSlbTkgyXSlbQ0BIXShbT0hdKWMobjIpc2MoYzIzKVtjSF1bY0hdW2NIXVtjSF0z

> <s_epik_cmdline>
J2VwaWtfYXBwJywgJy1pbWFlJywgJ2xpZ2FuZF9wcm8ubWFlJywgJy1vbWFlJywgJ2xpZ2FuZF9wcmVwLm1hZScsICctbXMnLCAnMScsICctcGgnLCAnNycsICctcGh0JywgJzAuNScsICctbnQn

> <r_lp_tautomer_probability>
1

> <r_epik_Ionization_Penalty>
  0.0000

> <r_epik_Ionization_Penalty_Charging>
  0.0000

> <r_epik_Ionization_Penalty_Neutral>
  0.0000

> <r_epik_State_Penalty>
 -0.0000

> <r_epik_Charging_Adjusted_Penalty>
1.51281465137301e-05

> <i_epik_Tot_Q>
1

> <i_epik_Tot_abs_Q>
1

> <s_epik_Chemistry_Notes>
This compound has an imine and may undergo hydrolysis.

$$$$
