1qf4_ligand
                    3D
 Schrodinger Suite 2020-3.
 49 50  0  0  1  0            999 V2000
   25.2120   11.7480   23.7840 O   0  5  0  0  0  0
   27.2380   12.8770   23.0980 O   0  5  0  0  0  0
   25.0680   13.5940   22.2750 O   0  0  0  0  0  0
   25.7800   13.0510   23.4200 P   0  0  0  0  0  0
   25.6680   14.0530   24.6980 O   0  0  0  0  0  0
   26.2400   13.7950   25.9570 C   0  0  0  0  0  0
   27.0530   14.9860   26.4370 C   0  0  1  0  0  0
   28.2890   15.0460   25.7440 O   0  0  0  0  0  0
   26.3860   16.3200   26.2030 C   0  0  1  0  0  0
   26.8060   17.2530   27.2110 O   0  0  0  0  0  0
   26.9580   16.7470   24.8050 C   0  0  1  0  0  0
   27.1060   18.1810   24.7780 O   0  0  0  0  0  0
   28.3510   16.0740   24.6910 C   0  0  2  0  0  0
   28.4020   15.4320   23.4830 N   0  0  0  0  0  0
   29.5070   15.8380   22.7560 C   0  0  0  0  0  0
   29.7870   15.4390   21.6860 O   0  0  0  0  0  0
   30.2130   16.7690   23.4730 N   0  0  0  0  0  0
   29.5130   16.9360   24.6750 C   0  0  0  0  0  0
   29.9090   17.7310   25.5420 O   0  0  0  0  0  0
   31.4540   17.4470   23.0390 C   0  0  0  0  0  0
   31.1480   18.8920   22.5950 C   0  0  0  0  0  0
   30.0010   18.9310   21.5550 C   0  0  0  0  0  0
   29.7780   20.4020   21.1120 C   0  0  2  0  0  0
   28.3310   20.6550   20.7000 C   0  0  0  0  0  0
   27.3080   20.0360   21.3320 O   0  0  0  0  0  0
   28.0870   21.5190   19.6850 O   0  5  0  0  0  0
   30.6230   20.7980   19.9310 N   0  0  1  0  0  0
   31.4190   21.9640   20.2970 O   0  0  0  0  0  0
   31.5140   19.7160   19.4970 C   0  0  0  0  0  0
   32.3020   20.1140   18.3790 O   0  0  0  0  0  0
   25.4427   13.5933   26.6876 H   0  0  0  0  0  0
   26.9025   12.9198   25.8863 H   0  0  0  0  0  0
   27.2391   14.8312   27.5100 H   0  0  0  0  0  0
   25.2910   16.3028   26.3060 H   0  0  0  0  0  0
   26.4961   17.1095   28.2567 H   0  0  0  0  0  0
   26.3008   16.5205   23.9525 H   0  0  0  0  0  0
   26.2184   18.8270   24.8485 H   0  0  0  0  0  0
   27.6219   14.7049   23.2132 H   0  0  0  0  0  0
   32.1694   17.4721   23.8742 H   0  0  0  0  0  0
   31.8956   16.8979   22.1943 H   0  0  0  0  0  0
   30.8477   19.4884   23.4692 H   0  0  0  0  0  0
   32.0470   19.3342   22.1408 H   0  0  0  0  0  0
   30.2744   18.3167   20.6844 H   0  0  0  0  0  0
   29.0808   18.5346   22.0090 H   0  0  0  0  0  0
   30.0629   21.0198   21.9764 H   0  0  0  0  0  0
   30.9226   22.8802   20.6495 H   0  0  0  0  0  0
   32.1885   19.4432   20.3221 H   0  0  0  0  0  0
   30.9140   18.8401   19.2091 H   0  0  0  0  0  0
   33.0222   19.4107   17.9354 H   0  0  0  0  0  0
  1  4  1  0  0  0
  2  4  1  0  0  0
  3  4  2  0  0  0
  4  5  1  0  0  0
  5  6  1  0  0  0
  6  7  1  0  0  0
  6 31  1  0  0  0
  6 32  1  0  0  0
  7  8  1  0  0  0
  7  9  1  0  0  0
  7 33  1  0  0  0
  8 13  1  0  0  0
  9 10  1  0  0  0
  9 11  1  0  0  0
  9 34  1  0  0  0
 10 35  1  0  0  0
 11 12  1  0  0  0
 11 13  1  0  0  0
 11 36  1  0  0  0
 12 37  1  0  0  0
 13 14  1  0  0  0
 13 18  1  0  0  0
 14 15  1  0  0  0
 14 38  1  0  0  0
 15 16  2  0  0  0
 15 17  1  0  0  0
 17 18  1  0  0  0
 17 20  1  0  0  0
 18 19  2  0  0  0
 20 21  1  0  0  0
 20 39  1  0  0  0
 20 40  1  0  0  0
 21 22  1  0  0  0
 21 41  1  0  0  0
 21 42  1  0  0  0
 22 23  1  0  0  0
 22 43  1  0  0  0
 22 44  1  0  0  0
 23 24  1  0  0  0
 23 27  1  0  0  0
 23 45  1  0  0  0
 24 25  2  0  0  0
 24 26  1  0  0  0
 27 28  1  0  0  0
 27 29  1  0  0  0
 28 46  1  0  0  0
 29 30  1  0  0  0
 29 47  1  0  0  0
 29 48  1  0  0  0
 30 49  1  0  0  0
M  CHG  3   1  -1   2  -1  26  -1
M  END
> <s_m_source_file>
../1qf4_ligand.sdf

> <i_m_source_file_index>
1

> <s_epik_input>
W09IXVAoPU8pKFtPSF0pT1tDSDJdW0NASF0oW0NAQEhdKFtPSF0pW0NASF0xW09IXSlPW0NAQF0xMltOSF1DKD1PKU4oQzI9TylbQ0gyXVtDSDJdW0NIMl1bQ0BIXShDKD1PKVtPSF0pW05AQEgrXShbT0hdKVtDSDJdW09IXQ==

> <s_epik_cmdline>
J2VwaWtfYXBwJywgJy1pbWFlJywgJ2xpZ2FuZF9wcm8ubWFlJywgJy1vbWFlJywgJ2xpZ2FuZF9wcmVwLm1hZScsICctbXMnLCAnMScsICctcGgnLCAnNycsICctcGh0JywgJzAuNScsICctbnQn

> <r_lp_tautomer_probability>
1

> <r_epik_Ionization_Penalty>
  0.1106

> <r_epik_Ionization_Penalty_Charging>
  0.1010

> <r_epik_Ionization_Penalty_Neutral>
  0.0095

> <r_epik_State_Penalty>
 -0.0000

> <r_epik_Charging_Adjusted_Penalty>
0.101036371849856

> <i_epik_Tot_Q>
-3

> <i_epik_Tot_abs_Q>
3

> <s_epik_Chemistry_Notes>
This compound contains an acetal/aminal-like group ( X-CH(R)-Y where X, Y are N, S, or O) that may be acid/base labile, releasing an aldehyde. This compound has a N-S or N-O group and may undergo hydrolysis at high or low pH.

$$$$
