1qf5_ligand
                    3D
 Schrodinger Suite 2020-3.
 49 50  0  0  1  0            999 V2000
   25.2110   11.8440   23.9120 O   0  5  0  0  0  0
   27.2260   12.7610   23.0160 O   0  5  0  0  0  0
   25.0750   13.5570   22.2830 O   0  0  0  0  0  0
   25.8210   13.0640   23.4200 P   0  0  0  0  0  0
   25.8650   14.1420   24.6270 O   0  0  0  0  0  0
   26.3270   13.8490   25.9290 C   0  0  0  0  0  0
   27.1680   14.9930   26.4930 C   0  0  1  0  0  0
   28.4210   15.0700   25.8250 O   0  0  0  0  0  0
   26.5510   16.3600   26.2920 C   0  0  1  0  0  0
   27.1360   17.3120   27.1880 O   0  0  0  0  0  0
   27.0050   16.6590   24.8400 C   0  0  1  0  0  0
   27.0320   18.0710   24.6620 O   0  0  0  0  0  0
   28.4450   16.0750   24.7460 C   0  0  2  0  0  0
   28.5530   15.4530   23.5410 N   0  0  0  0  0  0
   29.6160   15.9590   22.8240 C   0  0  0  0  0  0
   29.9260   15.5830   21.7460 O   0  0  0  0  0  0
   30.2370   16.9470   23.5760 N   0  0  0  0  0  0
   29.5210   17.0280   24.7520 C   0  0  0  0  0  0
   29.8460   17.8340   25.6210 O   0  0  0  0  0  0
   31.4080   17.7670   23.2140 C   0  0  0  0  0  0
   31.1690   18.4570   21.8620 C   0  0  0  0  0  0
   30.0270   19.5020   21.9470 C   0  0  0  0  0  0
   29.5780   19.9160   20.5100 C   0  0  1  0  0  0
   28.2700   20.7080   20.5480 C   0  0  0  0  0  0
   27.9690   21.5230   19.5170 O   0  5  0  0  0  0
   27.4300   20.6180   21.5970 O   0  0  0  0  0  0
   30.5980   20.7990   19.8170 N   0  0  1  0  0  0
   31.1570   21.7600   20.7650 O   0  0  0  0  0  0
   31.6790   19.9990   19.2370 C   0  0  0  0  0  0
   32.3850   20.7200   18.2300 O   0  0  0  0  0  0
   25.4670   13.6868   26.5954 H   0  0  0  0  0  0
   26.9467   12.9406   25.9024 H   0  0  0  0  0  0
   27.3205   14.7698   27.5593 H   0  0  0  0  0  0
   25.4779   16.4352   26.5220 H   0  0  0  0  0  0
   26.9245   17.2549   28.2660 H   0  0  0  0  0  0
   26.3267   16.3048   24.0498 H   0  0  0  0  0  0
   26.0962   18.6480   24.6986 H   0  0  0  0  0  0
   27.8398   14.6627   23.2641 H   0  0  0  0  0  0
   31.5726   18.5324   23.9867 H   0  0  0  0  0  0
   32.2972   17.1238   23.1397 H   0  0  0  0  0  0
   32.0879   18.9726   21.5460 H   0  0  0  0  0  0
   30.8940   17.7035   21.1093 H   0  0  0  0  0  0
   29.1710   19.0668   22.4835 H   0  0  0  0  0  0
   30.3837   20.3919   22.4863 H   0  0  0  0  0  0
   29.4593   18.9866   19.9337 H   0  0  0  0  0  0
   30.4924   22.4519   21.3032 H   0  0  0  0  0  0
   32.3917   19.7184   20.0265 H   0  0  0  0  0  0
   31.2589   19.0898   18.7822 H   0  0  0  0  0  0
   33.2266   20.2470   17.7028 H   0  0  0  0  0  0
  1  4  1  0  0  0
  2  4  1  0  0  0
  3  4  2  0  0  0
  4  5  1  0  0  0
  5  6  1  0  0  0
  6  7  1  0  0  0
  6 31  1  0  0  0
  6 32  1  0  0  0
  7  8  1  0  0  0
  7  9  1  0  0  0
  7 33  1  0  0  0
  8 13  1  0  0  0
  9 10  1  0  0  0
  9 11  1  0  0  0
  9 34  1  0  0  0
 10 35  1  0  0  0
 11 12  1  0  0  0
 11 13  1  0  0  0
 11 36  1  0  0  0
 12 37  1  0  0  0
 13 14  1  0  0  0
 13 18  1  0  0  0
 14 15  1  0  0  0
 14 38  1  0  0  0
 15 16  2  0  0  0
 15 17  1  0  0  0
 17 18  1  0  0  0
 17 20  1  0  0  0
 18 19  2  0  0  0
 20 21  1  0  0  0
 20 39  1  0  0  0
 20 40  1  0  0  0
 21 22  1  0  0  0
 21 41  1  0  0  0
 21 42  1  0  0  0
 22 23  1  0  0  0
 22 43  1  0  0  0
 22 44  1  0  0  0
 23 24  1  0  0  0
 23 27  1  0  0  0
 23 45  1  0  0  0
 24 25  1  0  0  0
 24 26  2  0  0  0
 27 28  1  0  0  0
 27 29  1  0  0  0
 28 46  1  0  0  0
 29 30  1  0  0  0
 29 47  1  0  0  0
 29 48  1  0  0  0
 30 49  1  0  0  0
M  CHG  3   1  -1   2  -1  25  -1
M  END
> <s_m_source_file>
../1qf5_ligand.sdf

> <i_m_source_file_index>
1

> <s_epik_input>
W09IXVAoPU8pKFtPSF0pT1tDSDJdW0NASF0oW0NAQEhdKFtPSF0pW0NASF0xW09IXSlPW0NAQF0xMltOSF1DKD1PKU4oQzI9TylbQ0gyXVtDSDJdW0NIMl1bQ0BASF0oQyg9TylbT0hdKVtOQEBIK10oW09IXSlbQ0gyXVtPSF0=

> <s_epik_cmdline>
J2VwaWtfYXBwJywgJy1pbWFlJywgJ2xpZ2FuZF9wcm8ubWFlJywgJy1vbWFlJywgJ2xpZ2FuZF9wcmVwLm1hZScsICctbXMnLCAnMScsICctcGgnLCAnNycsICctcGh0JywgJzAuNScsICctbnQn

> <r_lp_tautomer_probability>
1

> <r_epik_Ionization_Penalty>
  0.1106

> <r_epik_Ionization_Penalty_Charging>
  0.1010

> <r_epik_Ionization_Penalty_Neutral>
  0.0095

> <r_epik_State_Penalty>
 -0.0000

> <r_epik_Charging_Adjusted_Penalty>
0.101036371849856

> <i_epik_Tot_Q>
-3

> <i_epik_Tot_abs_Q>
3

> <s_epik_Chemistry_Notes>
This compound contains an acetal/aminal-like group ( X-CH(R)-Y where X, Y are N, S, or O) that may be acid/base labile, releasing an aldehyde. This compound has a N-S or N-O group and may undergo hydrolysis at high or low pH.

$$$$
