1qfs_ligand
                    3D
 Schrodinger Suite 2020-3.
 48 50  0  0  1  0            999 V2000
   44.9510   36.1250   86.4560 C   0  0  0  0  0  0
   45.6010   35.1180   87.1560 C   0  0  0  0  0  0
   46.0480   35.3550   88.4520 C   0  0  0  0  0  0
   45.8400   36.6010   89.0380 C   0  0  0  0  0  0
   45.1910   37.5990   88.3290 C   0  0  0  0  0  0
   44.7380   37.3730   87.0350 C   0  0  0  0  0  0
   44.0200   38.4530   86.2780 C   0  0  0  0  0  0
   42.6280   38.2980   86.4770 O   0  0  0  0  0  0
   41.9670   37.8030   85.4520 C   0  0  0  0  0  0
   42.5230   37.5020   84.3900 O   0  0  0  0  0  0
   40.6530   37.6370   85.6310 N   0  0  0  0  0  0
   39.7710   37.0770   84.6100 C   0  0  2  0  0  0
   39.3320   38.1410   83.6000 C   0  0  0  0  0  0
   39.4640   39.3500   83.8480 O   0  0  0  0  0  0
   38.5890   36.5870   85.4390 C   0  0  0  0  0  0
   38.4670   37.6620   86.4660 C   0  0  0  0  0  0
   39.9070   37.9120   86.8750 C   0  0  0  0  0  0
   38.3820   37.7120   80.1390 C   0  0  0  0  0  0
   38.1310   36.3520   80.6530 C   0  0  0  0  0  0
   36.9220   39.1260   81.6880 C   0  0  0  0  0  0
   36.0150   38.0390   81.8940 O   0  0  0  0  0  0
   38.8170   37.6980   82.4380 N   0  0  0  0  0  0
   38.7470   36.2860   82.0210 C   0  0  0  0  0  0
   38.3490   38.5950   81.3850 C   0  0  1  0  0  0
   44.6030   35.9363   85.4404 H   0  0  0  0  0  0
   45.7607   34.1448   86.6919 H   0  0  0  0  0  0
   46.5592   34.5682   89.0067 H   0  0  0  0  0  0
   46.1874   36.7910   90.0535 H   0  0  0  0  0  0
   45.0339   38.5732   88.7920 H   0  0  0  0  0  0
   44.3430   39.4371   86.6484 H   0  0  0  0  0  0
   44.2559   38.3689   85.2069 H   0  0  0  0  0  0
   40.2813   36.2940   84.0300 H   0  0  0  0  0  0
   37.7006   36.5013   84.7960 H   0  0  0  0  0  0
   38.8261   35.6031   85.8699 H   0  0  0  0  0  0
   37.9965   38.5482   86.0151 H   0  0  0  0  0  0
   37.8475   37.3028   87.3010 H   0  0  0  0  0  0
   40.2483   37.2281   87.6660 H   0  0  0  0  0  0
   40.0851   38.9516   87.1872 H   0  0  0  0  0  0
   39.3613   37.7400   79.6389 H   0  0  0  0  0  0
   37.5951   37.9832   79.4198 H   0  0  0  0  0  0
   37.0468   36.1734   80.7034 H   0  0  0  0  0  0
   38.5931   35.6146   79.9802 H   0  0  0  0  0  0
   36.5792   39.7334   80.8374 H   0  0  0  0  0  0
   36.9581   39.7500   82.5932 H   0  0  0  0  0  0
   34.9575   38.2404   82.1203 H   0  0  0  0  0  0
   38.1056   35.6860   82.6833 H   0  0  0  0  0  0
   39.7414   35.8205   81.9533 H   0  0  0  0  0  0
   39.0025   39.4764   81.3074 H   0  0  0  0  0  0
  1  2  2  0  0  0
  1  6  1  0  0  0
  1 25  1  0  0  0
  2  3  1  0  0  0
  2 26  1  0  0  0
  3  4  2  0  0  0
  3 27  1  0  0  0
  4  5  1  0  0  0
  4 28  1  0  0  0
  5  6  2  0  0  0
  5 29  1  0  0  0
  6  7  1  0  0  0
  7  8  1  0  0  0
  7 30  1  0  0  0
  7 31  1  0  0  0
  8  9  1  0  0  0
  9 10  2  0  0  0
  9 11  1  0  0  0
 11 12  1  0  0  0
 11 17  1  0  0  0
 12 13  1  0  0  0
 12 15  1  0  0  0
 12 32  1  0  0  0
 13 14  2  0  0  0
 13 22  1  0  0  0
 15 16  1  0  0  0
 15 33  1  0  0  0
 15 34  1  0  0  0
 16 17  1  0  0  0
 16 35  1  0  0  0
 16 36  1  0  0  0
 17 37  1  0  0  0
 17 38  1  0  0  0
 18 19  1  0  0  0
 18 24  1  0  0  0
 18 39  1  0  0  0
 18 40  1  0  0  0
 19 23  1  0  0  0
 19 41  1  0  0  0
 19 42  1  0  0  0
 20 21  1  0  0  0
 20 24  1  0  0  0
 20 43  1  0  0  0
 20 44  1  0  0  0
 21 45  1  0  0  0
 22 23  1  0  0  0
 22 24  1  0  0  0
 23 46  1  0  0  0
 23 47  1  0  0  0
 24 48  1  0  0  0
M  END
> <s_m_source_file>
../1qfs_ligand.sdf

> <i_m_source_file_index>
1

> <s_epik_input>
W2NIXTFbY0hdW2NIXVtjSF1bY0hdYzFbQ0gyXU9DKD1PKU4yW0NAQEhdKFtDSDJdW0NIMl1bQ0gyXTIpQyg9TylOM1tDSDJdW0NIMl1bQ0gyXVtDQEhdM1tDSDJdW09IXQ==

> <s_epik_cmdline>
J2VwaWtfYXBwJywgJy1pbWFlJywgJ2xpZ2FuZF9wcm8ubWFlJywgJy1vbWFlJywgJ2xpZ2FuZF9wcmVwLm1hZScsICctbXMnLCAnMScsICctcGgnLCAnNycsICctcGh0JywgJzAuNScsICctbnQn

> <r_lp_tautomer_probability>
1

> <r_epik_Ionization_Penalty>
  0.0000

> <r_epik_Ionization_Penalty_Charging>
  0.0000

> <r_epik_Ionization_Penalty_Neutral>
  0.0000

> <r_epik_State_Penalty>
 -0.0000

> <r_epik_Charging_Adjusted_Penalty>
0

> <i_epik_Tot_Q>
0

> <i_epik_Tot_abs_Q>
0

> <s_epik_Chemistry_Notes>
This compound has an ester and may undergo hydrolysis at high or low pH.

$$$$
