1qhc_ligand
                    3D
 Schrodinger Suite 2020-3.
 71 75  0  0  1  0            999 V2000
   38.9920   -4.3560   21.6870 P   0  0  1  0  0  0
   40.0580   -5.3370   22.1640 O   0  0  0  0  0  0
   39.4970   -3.0000   21.1910 O   0  5  0  0  0  0
   38.0870   -5.0020   20.5540 O   0  0  0  0  0  0
   37.0510   -2.8920   23.3060 P   0  0  1  0  0  0
   36.3860   -2.3420   22.1150 O   0  0  0  0  0  0
   36.2360   -3.3300   24.4510 O   0  5  0  0  0  0
   37.9380   -4.1190   22.8500 O   0  0  0  0  0  0
   39.7220   -9.8380   19.9040 P   0  0  0  0  0  0
   38.6520  -10.9000   20.1460 O   0  5  0  0  0  0
   40.9320  -10.3570   19.1340 O   0  0  0  0  0  0
   40.0870   -9.0700   21.1740 O   0  5  0  0  0  0
   37.2400   -5.7040   16.3150 N   0  0  0  0  0  0
   37.5340   -4.3630   16.1460 C   0  0  0  0  0  0
   38.2830   -3.5700   16.9460 N   0  0  0  0  0  0
   38.3650   -2.3180   16.4440 C   0  0  0  0  0  0
   37.8180   -1.8170   15.3130 N   0  0  0  0  0  0
   37.0770   -2.6390   14.5350 C   0  0  0  0  0  0
   36.5470   -2.1430   13.4170 N   0  0  0  0  0  0
   36.9100   -3.9870   14.9570 C   0  0  0  0  0  0
   36.2250   -5.0600   14.4050 N   0  0  0  0  0  0
   36.4440   -6.0450   15.2450 C   0  0  0  0  0  0
   37.3630   -6.1860   20.8110 C   0  0  0  0  0  0
   37.4940   -7.1150   19.6450 C   0  0  1  0  0  0
   36.8210   -6.5390   18.4850 O   0  0  0  0  0  0
   37.6710   -6.6470   17.3620 C   0  0  2  0  0  0
   39.0800   -6.5310   17.9450 C   0  0  2  0  0  0
   40.0810   -7.0220   17.0640 O   0  0  0  0  0  0
   38.9360   -7.3800   19.2100 C   0  0  2  0  0  0
   39.0320   -8.7660   18.8900 O   0  0  0  0  0  0
   39.8780    1.8350   22.3930 O   0  0  0  0  0  0
   40.5620    0.7860   23.1070 C   0  0  0  0  0  0
   39.5800    0.0470   23.9840 C   0  0  1  0  0  0
   38.8640    1.0110   24.7940 O   0  0  0  0  0  0
   37.4750    0.9180   24.5350 C   0  0  2  0  0  0
   37.3500    0.2620   23.1740 C   0  0  0  0  0  0
   38.5090   -0.7110   23.2010 C   0  0  2  0  0  0
   38.1300   -1.8740   23.9250 O   0  0  0  0  0  0
   40.2490    2.1940   20.8430 P   0  0  0  0  0  0
   41.3350    3.2710   20.9280 O   0  5  0  0  0  0
   38.9510    2.7070   20.1950 O   0  5  0  0  0  0
   40.7550    0.8890   20.2250 O   0  0  0  0  0  0
   36.9080    2.2720   24.5600 N   0  0  0  0  0  0
   37.4650    3.3020   23.8020 C   0  0  0  0  0  0
   35.7660    2.4790   25.3340 C   0  0  0  0  0  0
   35.2660    1.6160   26.0290 O   0  0  0  0  0  0
   35.2330    3.7450   25.2410 N   0  0  0  0  0  0
   35.7040    4.7970   24.4630 C   0  0  0  0  0  0
   35.0040    5.7950   24.3380 O   0  0  0  0  0  0
   36.9130    4.5210   23.7240 C   0  0  0  0  0  0
   38.9537   -1.6141   17.0323 H   0  0  0  0  0  0
   36.7153   -1.0896   13.1488 H   0  0  0  0  0  0
   35.9413   -2.7871   12.7626 H   0  0  0  0  0  0
   36.0318   -7.0446   15.1072 H   0  0  0  0  0  0
   37.7630   -6.6718   21.7132 H   0  0  0  0  0  0
   36.3021   -5.9406   20.9665 H   0  0  0  0  0  0
   37.0130   -8.0499   19.9684 H   0  0  0  0  0  0
   37.5664   -7.6005   16.8236 H   0  0  0  0  0  0
   39.4668   -5.5107   18.0844 H   0  0  0  0  0  0
   40.2839   -6.5006   16.1169 H   0  0  0  0  0  0
   39.7204   -7.2025   19.9605 H   0  0  0  0  0  0
   41.0097    0.0845   22.3877 H   0  0  0  0  0  0
   41.3534    1.2241   23.7329 H   0  0  0  0  0  0
   40.1686   -0.6439   24.6055 H   0  0  0  0  0  0
   36.9663    0.3407   25.3211 H   0  0  0  0  0  0
   36.3699   -0.2308   23.0931 H   0  0  0  0  0  0
   37.4419    1.0266   22.3886 H   0  0  0  0  0  0
   38.8198   -1.0891   22.2159 H   0  0  0  0  0  0
   38.3855    3.1079   23.2514 H   0  0  0  0  0  0
   34.3376    4.0089   25.8229 H   0  0  0  0  0  0
   37.3720    5.2954   23.1093 H   0  0  0  0  0  0
  1  8  1  0  0  0
  1  4  1  0  0  0
  1  3  1  0  0  0
  1  2  2  0  0  0
  4 23  1  0  0  0
  5  8  1  0  0  0
  5 38  1  0  0  0
  5  7  1  0  0  0
  5  6  2  0  0  0
  9 30  1  0  0  0
  9 12  1  0  0  0
  9 11  2  0  0  0
  9 10  1  0  0  0
 13 26  1  0  0  0
 13 22  1  0  0  0
 13 14  1  0  0  0
 14 20  2  0  0  0
 14 15  1  0  0  0
 15 16  2  0  0  0
 16 17  1  0  0  0
 16 51  1  0  0  0
 17 18  2  0  0  0
 18 20  1  0  0  0
 18 19  1  0  0  0
 19 52  1  0  0  0
 19 53  1  0  0  0
 20 21  1  0  0  0
 21 22  2  0  0  0
 22 54  1  0  0  0
 23 24  1  0  0  0
 23 55  1  0  0  0
 23 56  1  0  0  0
 24 29  1  0  0  0
 24 25  1  0  0  0
 24 57  1  0  0  0
 25 26  1  0  0  0
 26 27  1  0  0  0
 26 58  1  0  0  0
 27 29  1  0  0  0
 27 28  1  0  0  0
 27 59  1  0  0  0
 28 60  1  0  0  0
 29 30  1  0  0  0
 29 61  1  0  0  0
 31 32  1  0  0  0
 31 39  1  0  0  0
 32 33  1  0  0  0
 32 62  1  0  0  0
 32 63  1  0  0  0
 33 37  1  0  0  0
 33 34  1  0  0  0
 33 64  1  0  0  0
 34 35  1  0  0  0
 35 43  1  0  0  0
 35 36  1  0  0  0
 35 65  1  0  0  0
 36 37  1  0  0  0
 36 66  1  0  0  0
 36 67  1  0  0  0
 37 38  1  0  0  0
 37 68  1  0  0  0
 39 42  2  0  0  0
 39 41  1  0  0  0
 39 40  1  0  0  0
 43 45  1  0  0  0
 43 44  1  0  0  0
 44 50  2  0  0  0
 44 69  1  0  0  0
 45 47  1  0  0  0
 45 46  2  0  0  0
 47 48  1  0  0  0
 47 70  1  0  0  0
 48 50  1  0  0  0
 48 49  2  0  0  0
 50 71  1  0  0  0
M  CHG  6   3  -1   7  -1  10  -1  12  -1  40  -1  41  -1
M  END
> <s_m_source_file>
../1qhc_ligand.sdf

> <i_m_source_file_index>
1

> <s_epik_input>
Tz1jMVtuSF1jKD1PKVtjSF1bY0hdbjFbQ0BIXShPW0NAQEhdMltDSDJdT1AoPU8pKFtPSF0pW09IXSlbQ0gyXVtDQEBIXTJPW1BAXSg9TykoW09IXSlPW1BAXSg9TykoW09IXSlPW0NIMl1bQ0BIXTNPW0NASF0oW0NASF0oW09IXSlbQ0BASF0zT1AoPU8pKFtPSF0pW09IXSluNFtjSF1uYyhjNDUpYyhbTkgyXSluW2NIXW41

> <s_epik_cmdline>
J2VwaWtfYXBwJywgJy1pbWFlJywgJ2xpZ2FuZF9wcm8ubWFlJywgJy1vbWFlJywgJ2xpZ2FuZF9wcmVwLm1hZScsICctbXMnLCAnMScsICctcGgnLCAnNycsICctcGh0JywgJzAuNScsICctbnQn

> <r_lp_tautomer_probability>
0.999534264040962

> <r_epik_Ionization_Penalty>
  0.1836

> <r_epik_Ionization_Penalty_Charging>
  0.1831

> <r_epik_Ionization_Penalty_Neutral>
  0.0005

> <r_epik_State_Penalty>
  0.1521

> <r_epik_Charging_Adjusted_Penalty>
0.335274388559563

> <i_epik_Tot_Q>
-6

> <i_epik_Tot_abs_Q>
6

> <s_epik_Chemistry_Notes>
This compound contains an acetal/aminal-like group ( X-CH(R)-Y where X, Y are N, S, or O) that may be acid/base labile, releasing an aldehyde.

$$$$
