1qhr_ligand
                    3D
 Schrodinger Suite 2020-3.
 39 39  0  0  1  0            999 V2000
    8.3700   22.2400   50.9960 C   0  0  0  0  0  0
    9.1030   23.4970   50.5890 C   0  0  0  0  0  0
   10.2230   23.1310   49.6730 C   0  0  0  0  0  0
    9.7290   22.4680   48.4120 C   0  0  0  0  0  0
   10.8360   22.2680   47.4350 C   0  0  0  0  0  0
   11.2260   23.2610   46.6640 N   0  0  0  0  0  0
   11.4170   21.1090   47.2730 N   0  3  0  0  0  0
    8.5250   23.6270   54.0650 O   0  0  0  0  0  0
    5.3320   22.5210   54.4660 O   0  0  0  0  0  0
    6.3410   21.6400   52.4660 C   0  0  1  0  0  0
    5.1020   19.5650   52.5160 C   0  0  0  0  0  0
    6.2690   20.2570   51.8370 C   0  0  0  0  0  0
    5.8490   21.3700   53.8790 C   0  0  2  0  0  0
    4.7300   20.3800   53.7430 C   0  0  0  0  0  0
    7.7370   22.2450   52.3860 C   0  0  2  0  0  0
    7.7660   23.5490   53.1390 C   0  0  0  0  0  0
    7.5479   22.0502   50.2903 H   0  0  0  0  0  0
    9.0670   21.3891   50.9844 H   0  0  0  0  0  0
    8.4082   24.1757   50.0728 H   0  0  0  0  0  0
    9.5036   23.9942   51.4847 H   0  0  0  0  0  0
   10.7762   24.0385   49.3894 H   0  0  0  0  0  0
   10.9018   22.4327   50.1845 H   0  0  0  0  0  0
    9.2986   21.4861   48.6584 H   0  0  0  0  0  0
    8.9591   23.0987   47.9436 H   0  0  0  0  0  0
   10.7623   24.2531   46.7682 H   0  0  0  0  0  0
   12.0156   23.0988   45.9155 H   0  0  0  0  0  0
   11.1204   20.2531   47.8970 H   0  0  0  0  0  0
    5.9884   23.3823   54.6591 H   0  0  0  0  0  0
    5.7357   22.4024   51.9538 H   0  0  0  0  0  0
    4.2517   19.5124   51.8202 H   0  0  0  0  0  0
    5.3993   18.5473   52.8092 H   0  0  0  0  0  0
    6.1038   20.3550   50.7539 H   0  0  0  0  0  0
    7.2135   19.7227   52.0169 H   0  0  0  0  0  0
    6.6579   21.0652   54.5592 H   0  0  0  0  0  0
    3.7607   20.8725   53.5760 H   0  0  0  0  0  0
    4.6579   19.7154   54.6166 H   0  0  0  0  0  0
    8.4369   21.5832   52.9171 H   0  0  0  0  0  0
    7.1313   24.4075   52.8742 H   0  0  0  0  0  0
   12.2027   20.9892   46.5126 H   0  0  0  0  0  0
  1  2  1  0  0  0
  1 15  1  0  0  0
  1 17  1  0  0  0
  1 18  1  0  0  0
  2  3  1  0  0  0
  2 19  1  0  0  0
  2 20  1  0  0  0
  3  4  1  0  0  0
  3 21  1  0  0  0
  3 22  1  0  0  0
  4  5  1  0  0  0
  4 23  1  0  0  0
  4 24  1  0  0  0
  5  6  1  0  0  0
  5  7  2  0  0  0
  6 25  1  0  0  0
  6 26  1  0  0  0
  7 27  1  0  0  0
  7 39  1  0  0  0
  8 16  2  0  0  0
  9 13  1  0  0  0
  9 28  1  0  0  0
 10 12  1  0  0  0
 10 13  1  0  0  0
 10 15  1  0  0  0
 10 29  1  0  0  0
 11 12  1  0  0  0
 11 14  1  0  0  0
 11 30  1  0  0  0
 11 31  1  0  0  0
 12 32  1  0  0  0
 12 33  1  0  0  0
 13 14  1  0  0  0
 13 34  1  0  0  0
 14 35  1  0  0  0
 14 36  1  0  0  0
 15 16  1  0  0  0
 15 37  1  0  0  0
 16 38  1  0  0  0
M  CHG  1   7   1
M  END
> <s_m_source_file>
../1qhr_ligand.sdf

> <i_m_source_file_index>
1

> <s_epik_input>
W0hdXE49QyhbTkgyXSlcW0NIMl1bQ0gyXVtDSDJdW0NIMl1bQ0BASF0oW0NIXT1PKVtDQEhdMVtDSDJdW0NIMl1bQ0gyXVtDQEBIXTFbT0hd

> <s_epik_cmdline>
J2VwaWtfYXBwJywgJy1pbWFlJywgJ2xpZ2FuZF9wcm8ubWFlJywgJy1vbWFlJywgJ2xpZ2FuZF9wcmVwLm1hZScsICctbXMnLCAnMScsICctcGgnLCAnNycsICctcGh0JywgJzAuNScsICctbnQn

> <r_lp_tautomer_probability>
1

> <r_epik_Ionization_Penalty>
  0.0000

> <r_epik_Ionization_Penalty_Charging>
  0.0000

> <r_epik_Ionization_Penalty_Neutral>
  0.0000

> <r_epik_State_Penalty>
 -0.0000

> <r_epik_Charging_Adjusted_Penalty>
9.60180129039664e-06

> <i_epik_Tot_Q>
1

> <i_epik_Tot_abs_Q>
1

> <s_epik_Chemistry_Notes>
This compound has an imine and may undergo hydrolysis.

$$$$
