1qiw_ligand
                    3D
 Schrodinger Suite 2020-3.
 88 90  0  0  1  0            999 V2000
   28.4700   49.6290   21.8850 C   0  0  0  0  0  0
   29.7730   50.0050   22.2710 C   0  0  0  0  0  0
   30.8810   49.1850   21.9870 C   0  0  0  0  0  0
   30.7000   47.9700   21.3090 C   0  0  0  0  0  0
   29.4100   47.5780   20.9170 C   0  0  0  0  0  0
   28.3090   48.3980   21.2020 C   0  0  0  0  0  0
   26.0680   50.1420   21.3390 C   0  0  0  0  0  0
   25.9300   50.6410   20.0270 C   0  0  0  0  0  0
   24.8300   50.2820   19.2300 C   0  0  0  0  0  0
   23.8480   49.4170   19.7340 C   0  0  0  0  0  0
   23.9680   48.9120   21.0330 C   0  0  0  0  0  0
   25.0680   49.2700   21.8300 C   0  0  0  0  0  0
   27.2670   50.5330   22.2010 C   0  0  0  0  0  0
   26.9490   50.5310   23.7170 C   0  0  0  0  0  0
   26.2800   51.8070   24.2810 C   0  0  0  0  0  0
   24.9720   51.6050   24.9530 N   0  3  0  0  0  0
   24.9910   50.9740   26.2950 C   0  0  0  0  0  0
   24.4820   51.8860   27.4250 C   0  0  0  0  0  0
   23.7430   51.1300   28.5460 C   0  0  0  0  0  0
   22.6000   50.3020   28.0870 N   0  3  0  0  0  0
   21.2900   50.9690   27.8800 C   0  0  2  0  0  0
   20.2070   50.4670   28.8550 C   0  0  0  0  0  0
   20.8550   50.8050   26.4370 C   0  0  0  0  0  0
   20.5270   49.5350   25.9180 C   0  0  0  0  0  0
   20.1240   49.3520   24.5840 C   0  0  0  0  0  0
   20.0370   50.4750   23.7030 C   0  0  0  0  0  0
   20.3690   51.7430   24.2360 C   0  0  0  0  0  0
   20.7690   51.9100   25.5690 C   0  0  0  0  0  0
   19.8400   48.0490   24.2390 O   0  0  0  0  0  0
   18.7220   47.3640   24.8030 C   0  0  0  0  0  0
   17.9400   46.6030   23.7270 C   0  0  0  0  0  0
   18.4550   45.1770   23.4720 C   0  0  0  0  0  0
   17.3620   44.1950   23.0300 C   0  0  0  0  0  0
   19.6490   50.3670   22.3860 O   0  0  0  0  0  0
   20.4510   49.6780   21.4310 C   0  0  0  0  0  0
   19.9620   49.9580   20.0030 C   0  0  0  0  0  0
   19.9200   48.7170   19.0950 C   0  0  0  0  0  0
   19.0260   48.8890   17.8600 C   0  0  0  0  0  0
   29.9247   50.9468   22.7983 H   0  0  0  0  0  0
   31.8802   49.4939   22.2939 H   0  0  0  0  0  0
   31.5567   47.3335   21.0877 H   0  0  0  0  0  0
   29.2643   46.6349   20.3904 H   0  0  0  0  0  0
   27.3123   48.0832   20.8929 H   0  0  0  0  0  0
   26.6873   51.3145   19.6258 H   0  0  0  0  0  0
   24.7397   50.6766   18.2180 H   0  0  0  0  0  0
   22.9943   49.1392   19.1158 H   0  0  0  0  0  0
   23.2064   48.2394   21.4276 H   0  0  0  0  0  0
   25.1522   48.8704   22.8406 H   0  0  0  0  0  0
   27.5179   51.5694   21.9309 H   0  0  0  0  0  0
   26.2615   49.7035   23.9463 H   0  0  0  0  0  0
   27.8809   50.4020   24.2870 H   0  0  0  0  0  0
   26.9423   52.2685   25.0282 H   0  0  0  0  0  0
   26.0990   52.5187   23.4620 H   0  0  0  0  0  0
   24.4773   52.5776   25.0922 H   0  0  0  0  0  0
   24.3370   50.9562   24.3319 H   0  0  0  0  0  0
   24.3515   50.0790   26.2884 H   0  0  0  0  0  0
   26.0216   50.6864   26.5504 H   0  0  0  0  0  0
   25.3334   52.4067   27.8875 H   0  0  0  0  0  0
   23.7806   52.6256   27.0115 H   0  0  0  0  0  0
   24.4436   50.4509   29.0539 H   0  0  0  0  0  0
   23.3410   51.8521   29.2720 H   0  0  0  0  0  0
   22.8437   49.8469   27.1157 H   0  0  0  0  0  0
   22.4020   49.5096   28.8238 H   0  0  0  0  0  0
   21.4565   52.0361   28.0889 H   0  0  0  0  0  0
   20.5550   50.6006   29.8899 H   0  0  0  0  0  0
   20.0117   49.4006   28.6686 H   0  0  0  0  0  0
   19.2814   51.0415   28.7023 H   0  0  0  0  0  0
   20.5881   48.6663   26.5736 H   0  0  0  0  0  0
   20.3118   52.6183   23.5890 H   0  0  0  0  0  0
   21.0160   52.9057   25.9373 H   0  0  0  0  0  0
   19.0749   46.6442   25.5562 H   0  0  0  0  0  0
   18.0480   48.0916   25.2787 H   0  0  0  0  0  0
   16.8861   46.5185   24.0306 H   0  0  0  0  0  0
   18.0043   47.1471   22.7732 H   0  0  0  0  0  0
   19.2158   45.1985   22.6778 H   0  0  0  0  0  0
   18.8998   44.7772   24.3952 H   0  0  0  0  0  0
   17.8055   43.2015   22.8679 H   0  0  0  0  0  0
   16.9065   44.5504   22.0939 H   0  0  0  0  0  0
   16.5905   44.1292   23.8113 H   0  0  0  0  0  0
   21.4952   50.0124   21.5196 H   0  0  0  0  0  0
   20.3955   48.5955   21.6184 H   0  0  0  0  0  0
   18.9411   50.3661   20.0384 H   0  0  0  0  0  0
   20.6316   50.6865   19.5224 H   0  0  0  0  0  0
   20.9350   48.4905   18.7365 H   0  0  0  0  0  0
   19.5322   47.8592   19.6641 H   0  0  0  0  0  0
   19.0457   47.9661   17.2617 H   0  0  0  0  0  0
   19.3971   49.7277   17.2527 H   0  0  0  0  0  0
   17.9943   49.0965   18.1802 H   0  0  0  0  0  0
  1 13  1  0  0  0
  1  6  2  0  0  0
  1  2  1  0  0  0
  2  3  2  0  0  0
  2 39  1  0  0  0
  3  4  1  0  0  0
  3 40  1  0  0  0
  4  5  2  0  0  0
  4 41  1  0  0  0
  5  6  1  0  0  0
  5 42  1  0  0  0
  6 43  1  0  0  0
  7 13  1  0  0  0
  7 12  2  0  0  0
  7  8  1  0  0  0
  8  9  2  0  0  0
  8 44  1  0  0  0
  9 10  1  0  0  0
  9 45  1  0  0  0
 10 11  2  0  0  0
 10 46  1  0  0  0
 11 12  1  0  0  0
 11 47  1  0  0  0
 12 48  1  0  0  0
 13 14  1  0  0  0
 13 49  1  0  0  0
 14 15  1  0  0  0
 14 50  1  0  0  0
 14 51  1  0  0  0
 15 16  1  0  0  0
 15 52  1  0  0  0
 15 53  1  0  0  0
 16 17  1  0  0  0
 16 54  1  0  0  0
 16 55  1  0  0  0
 17 18  1  0  0  0
 17 56  1  0  0  0
 17 57  1  0  0  0
 18 19  1  0  0  0
 18 58  1  0  0  0
 18 59  1  0  0  0
 19 20  1  0  0  0
 19 60  1  0  0  0
 19 61  1  0  0  0
 20 21  1  0  0  0
 20 62  1  0  0  0
 20 63  1  0  0  0
 21 23  1  0  0  0
 21 22  1  0  0  0
 21 64  1  0  0  0
 22 65  1  0  0  0
 22 66  1  0  0  0
 22 67  1  0  0  0
 23 28  2  0  0  0
 23 24  1  0  0  0
 24 25  2  0  0  0
 24 68  1  0  0  0
 25 29  1  0  0  0
 25 26  1  0  0  0
 26 34  1  0  0  0
 26 27  2  0  0  0
 27 28  1  0  0  0
 27 69  1  0  0  0
 28 70  1  0  0  0
 29 30  1  0  0  0
 30 31  1  0  0  0
 30 71  1  0  0  0
 30 72  1  0  0  0
 31 32  1  0  0  0
 31 73  1  0  0  0
 31 74  1  0  0  0
 32 33  1  0  0  0
 32 75  1  0  0  0
 32 76  1  0  0  0
 33 77  1  0  0  0
 33 78  1  0  0  0
 33 79  1  0  0  0
 34 35  1  0  0  0
 35 36  1  0  0  0
 35 80  1  0  0  0
 35 81  1  0  0  0
 36 37  1  0  0  0
 36 82  1  0  0  0
 36 83  1  0  0  0
 37 38  1  0  0  0
 37 84  1  0  0  0
 37 85  1  0  0  0
 38 86  1  0  0  0
 38 87  1  0  0  0
 38 88  1  0  0  0
M  CHG  2  16   1  20   1
M  END
> <s_m_source_file>
../1qiw_ligand.sdf

> <i_m_source_file_index>
1

> <s_epik_input>
W2NIXTFbY0hdW2NIXVtjSF1bY0hdYzFbQ0hdKGMyW2NIXVtjSF1bY0hdW2NIXVtjSF0yKVtDSDJdW0NIMl1bTkgyK11bQ0gyXVtDSDJdW0NIMl1bTkgyK11bQ0BIXShbQ0gzXSljM1tjSF1jKE9bQ0gyXVtDSDJdW0NIMl1bQ0gzXSljKFtjSF1bY0hdMylPW0NIMl1bQ0gyXVtDSDJdW0NIM10=

> <s_epik_cmdline>
J2VwaWtfYXBwJywgJy1pbWFlJywgJ2xpZ2FuZF9wcm8ubWFlJywgJy1vbWFlJywgJ2xpZ2FuZF9wcmVwLm1hZScsICctbXMnLCAnMScsICctcGgnLCAnNycsICctcGh0JywgJzAuNScsICctbnQn

> <r_lp_tautomer_probability>
1

> <r_epik_Ionization_Penalty>
  0.0330

> <r_epik_Ionization_Penalty_Charging>
  0.0330

> <r_epik_Ionization_Penalty_Neutral>
  0.0000

> <r_epik_State_Penalty>
  0.0257

> <r_epik_Charging_Adjusted_Penalty>
0.0586430001563197

> <i_epik_Tot_Q>
2

> <i_epik_Tot_abs_Q>
2

$$$$
