1qj1_ligand
                    3D
 Schrodinger Suite 2020-3.
 54 56  0  0  1  0            999 V2000
    8.1220   21.9910   51.5480 C   0  0  0  0  0  0
    9.0380   23.2180   51.2330 C   0  0  0  0  0  0
   10.1350   22.9460   50.2440 C   0  0  0  0  0  0
    9.6610   22.9600   48.8050 C   0  0  0  0  0  0
   10.7350   22.4680   47.8050 C   0  0  0  0  0  0
   11.3720   21.3060   47.9420 N   0  0  0  0  0  0
   11.0240   23.1710   46.7130 N   0  3  0  0  0  0
    8.6890   23.4960   54.2810 O   0  0  0  0  0  0
    5.1690   22.9100   55.0940 O   0  0  0  0  0  0
    5.7670   21.8320   52.9290 C   0  0  1  0  0  0
    3.6850   20.7170   52.8630 C   0  0  0  0  0  0
    4.8070   20.9390   52.0860 C   0  0  0  0  0  0
    5.2700   21.6670   54.3980 C   0  0  2  0  0  0
    3.8540   21.1070   54.3070 C   0  0  0  0  0  0
    4.7750   20.5070   50.7430 C   0  0  0  0  0  0
    3.5850   19.9100   50.2410 C   0  0  0  0  0  0
    2.4700   19.7850   51.0770 C   0  0  0  0  0  0
    2.5090   20.1940   52.3810 C   0  0  0  0  0  0
    3.4010   19.3480   48.8330 C   0  0  0  0  0  0
    2.1690   19.5040   48.1730 C   0  0  0  0  0  0
    1.9290   19.0140   46.8980 C   0  0  0  0  0  0
    2.9290   18.3500   46.2320 C   0  0  0  0  0  0
    4.1590   18.1640   46.8510 C   0  0  0  0  0  0
    4.3950   18.6610   48.1400 C   0  0  0  0  0  0
    2.6840   17.8950   44.9580 O   0  0  0  0  0  0
    7.3390   22.0690   52.8880 C   0  0  2  0  0  0
    7.6950   23.4430   53.6050 C   0  0  0  0  0  0
    7.3687   21.8823   50.7538 H   0  0  0  0  0  0
    8.7352   21.0792   51.5990 H   0  0  0  0  0  0
    8.4286   24.0328   50.8150 H   0  0  0  0  0  0
    9.5231   23.5608   52.1589 H   0  0  0  0  0  0
   10.9165   23.7137   50.3430 H   0  0  0  0  0  0
   10.5683   21.9542   50.4406 H   0  0  0  0  0  0
    8.7846   22.3034   48.7013 H   0  0  0  0  0  0
    9.3862   23.9861   48.5194 H   0  0  0  0  0  0
   11.1803   20.6741   48.8217 H   0  0  0  0  0  0
   12.0897   20.9785   47.1754 H   0  0  0  0  0  0
   10.5340   24.1400   46.5370 H   0  0  0  0  0  0
    6.0719   23.5087   55.2843 H   0  0  0  0  0  0
    5.6423   22.7221   52.2948 H   0  0  0  0  0  0
    5.9788   21.0778   54.9984 H   0  0  0  0  0  0
    3.0997   21.8620   54.5736 H   0  0  0  0  0  0
    3.7255   20.2195   54.9440 H   0  0  0  0  0  0
    5.6474   20.6286   50.1009 H   0  0  0  0  0  0
    1.5514   19.3526   50.6805 H   0  0  0  0  0  0
    1.6310   20.1076   53.0211 H   0  0  0  0  0  0
    1.3667   20.0338   48.6866 H   0  0  0  0  0  0
    0.9552   19.1548   46.4290 H   0  0  0  0  0  0
    4.9493   17.6254   46.3281 H   0  0  0  0  0  0
    5.3684   18.5080   48.6060 H   0  0  0  0  0  0
    1.6993   18.0581   44.4956 H   0  0  0  0  0  0
    7.7101   21.1615   53.3867 H   0  0  0  0  0  0
    7.0569   24.3322   53.4946 H   0  0  0  0  0  0
   11.7529   22.7832   45.9861 H   0  0  0  0  0  0
  1  2  1  0  0  0
  1 26  1  0  0  0
  1 28  1  0  0  0
  1 29  1  0  0  0
  2  3  1  0  0  0
  2 30  1  0  0  0
  2 31  1  0  0  0
  3  4  1  0  0  0
  3 32  1  0  0  0
  3 33  1  0  0  0
  4  5  1  0  0  0
  4 34  1  0  0  0
  4 35  1  0  0  0
  5  6  1  0  0  0
  5  7  2  0  0  0
  6 36  1  0  0  0
  6 37  1  0  0  0
  7 38  1  0  0  0
  7 54  1  0  0  0
  8 27  2  0  0  0
  9 13  1  0  0  0
  9 39  1  0  0  0
 10 12  1  0  0  0
 10 13  1  0  0  0
 10 26  1  0  0  0
 10 40  1  0  0  0
 11 12  2  0  0  0
 11 14  1  0  0  0
 11 18  1  0  0  0
 12 15  1  0  0  0
 13 14  1  0  0  0
 13 41  1  0  0  0
 14 42  1  0  0  0
 14 43  1  0  0  0
 15 16  2  0  0  0
 15 44  1  0  0  0
 16 17  1  0  0  0
 16 19  1  0  0  0
 17 18  2  0  0  0
 17 45  1  0  0  0
 18 46  1  0  0  0
 19 20  2  0  0  0
 19 24  1  0  0  0
 20 21  1  0  0  0
 20 47  1  0  0  0
 21 22  2  0  0  0
 21 48  1  0  0  0
 22 23  1  0  0  0
 22 25  1  0  0  0
 23 24  2  0  0  0
 23 49  1  0  0  0
 24 50  1  0  0  0
 25 51  1  0  0  0
 26 27  1  0  0  0
 26 52  1  0  0  0
 27 53  1  0  0  0
M  CHG  1   7   1
M  END
> <s_m_source_file>
../1qj1_ligand.sdf

> <i_m_source_file_index>
1

> <s_epik_input>
W0hdXE49QyhbTkgyXSlcW0NIMl1bQ0gyXVtDSDJdW0NIMl1bQ0BASF0oW0NIXT1PKVtDQEhdKFtDQEBIXShbT0hdKVtDSDJdMSljKGMxMilbY0hdYyhbY0hdW2NIXTIpLWMzW2NIXVtjSF1jKFtPSF0pW2NIXVtjSF0z

> <s_epik_cmdline>
J2VwaWtfYXBwJywgJy1pbWFlJywgJ2xpZ2FuZF9wcm8ubWFlJywgJy1vbWFlJywgJ2xpZ2FuZF9wcmVwLm1hZScsICctbXMnLCAnMScsICctcGgnLCAnNycsICctcGh0JywgJzAuNScsICctbnQn

> <r_lp_tautomer_probability>
1

> <r_epik_Ionization_Penalty>
  0.0007

> <r_epik_Ionization_Penalty_Charging>
  0.0000

> <r_epik_Ionization_Penalty_Neutral>
  0.0007

> <r_epik_State_Penalty>
 -0.0000

> <r_epik_Charging_Adjusted_Penalty>
1.00015981891352e-05

> <i_epik_Tot_Q>
1

> <i_epik_Tot_abs_Q>
1

> <s_epik_Chemistry_Notes>
This compound has an imine and may undergo hydrolysis.

$$$$
