1qj6_ligand
                    3D
 Schrodinger Suite 2020-3.
 57 59  0  0  1  0            999 V2000
    8.5680   22.2910   51.5460 C   0  0  0  0  0  0
    8.5230   23.4650   50.6050 C   0  0  0  0  0  0
    9.7580   23.4140   49.7310 C   0  0  0  0  0  0
    9.7700   22.1790   48.8540 C   0  0  0  0  0  0
   10.7460   22.2150   47.6960 C   0  0  0  0  0  0
   10.9510   23.2750   46.9350 N   0  0  0  0  0  0
   11.3860   21.1270   47.3500 N   0  3  0  0  0  0
    8.1020   23.5910   54.4040 O   0  0  0  0  0  0
    5.0630   21.5360   54.4810 O   0  0  0  0  0  0
    6.0740   21.5780   52.1740 C   0  0  1  0  0  0
    4.4870   20.1880   51.1960 C   0  0  0  0  0  0
    5.7760   20.6240   51.0170 C   0  0  0  0  0  0
    5.2920   20.8350   53.2810 C   0  0  2  0  0  0
    3.9780   20.5450   52.5580 C   0  0  0  0  0  0
    6.4850   20.2010   49.9080 C   0  0  0  0  0  0
    5.7930   19.4520   48.9710 C   0  0  0  0  0  0
    4.4370   19.1270   49.0900 C   0  0  0  0  0  0
    3.7920   19.4580   50.2670 C   0  0  0  0  0  0
    3.6720   18.4980   47.9340 C   0  0  0  0  0  0
    2.3830   18.9620   47.6410 C   0  0  0  0  0  0
    1.6680   18.4860   46.5570 C   0  0  0  0  0  0
    2.2510   17.5150   45.7470 C   0  0  0  0  0  0
    3.5160   17.0110   46.0300 C   0  0  0  0  0  0
    4.2250   17.5000   47.1200 C   0  0  0  0  0  0
    0.3780   19.8610   45.1670 C   0  0  0  0  0  0
    0.3860   18.9910   46.2900 O   0  0  0  0  0  0
    7.4670   22.1570   52.5870 C   0  0  2  0  0  0
    7.3650   23.4300   53.4780 C   0  0  0  0  0  0
    8.5253   21.3560   50.9681 H   0  0  0  0  0  0
    9.5023   22.3213   52.1257 H   0  0  0  0  0  0
    7.6167   23.4032   49.9847 H   0  0  0  0  0  0
    8.5073   24.3995   51.1851 H   0  0  0  0  0  0
    9.7843   24.3013   49.0814 H   0  0  0  0  0  0
   10.6561   23.3976   50.3659 H   0  0  0  0  0  0
   10.0383   21.3013   49.4604 H   0  0  0  0  0  0
    8.7720   22.0307   48.4158 H   0  0  0  0  0  0
   10.4457   24.2243   47.1665 H   0  0  0  0  0  0
   11.6270   23.2085   46.0698 H   0  0  0  0  0  0
   11.2629   20.2058   47.9384 H   0  0  0  0  0  0
    5.9105   21.8217   55.1214 H   0  0  0  0  0  0
    5.7910   22.5890   51.8457 H   0  0  0  0  0  0
    5.8430   19.9994   53.7372 H   0  0  0  0  0  0
    3.3120   21.4173   52.4835 H   0  0  0  0  0  0
    3.4214   19.6934   52.9763 H   0  0  0  0  0  0
    7.5391   20.4456   49.7773 H   0  0  0  0  0  0
    6.3335   19.0965   48.0937 H   0  0  0  0  0  0
    2.7632   19.1483   50.4506 H   0  0  0  0  0  0
    1.9319   19.7177   48.2840 H   0  0  0  0  0  0
    1.7077   17.1442   44.8779 H   0  0  0  0  0  0
    3.9495   16.2352   45.3989 H   0  0  0  0  0  0
    5.2163   17.1056   47.3433 H   0  0  0  0  0  0
   -0.6440   20.2306   44.9968 H   0  0  0  0  0  0
    0.7231   19.3142   44.2771 H   0  0  0  0  0  0
    1.0487   20.7118   45.3576 H   0  0  0  0  0  0
    7.8698   21.3105   53.1626 H   0  0  0  0  0  0
    6.6012   24.1865   53.2449 H   0  0  0  0  0  0
   12.0470   21.1338   46.4708 H   0  0  0  0  0  0
  1  2  1  0  0  0
  1 27  1  0  0  0
  1 29  1  0  0  0
  1 30  1  0  0  0
  2  3  1  0  0  0
  2 31  1  0  0  0
  2 32  1  0  0  0
  3  4  1  0  0  0
  3 33  1  0  0  0
  3 34  1  0  0  0
  4  5  1  0  0  0
  4 35  1  0  0  0
  4 36  1  0  0  0
  5  6  1  0  0  0
  5  7  2  0  0  0
  6 37  1  0  0  0
  6 38  1  0  0  0
  7 39  1  0  0  0
  7 57  1  0  0  0
  8 28  2  0  0  0
  9 13  1  0  0  0
  9 40  1  0  0  0
 10 12  1  0  0  0
 10 13  1  0  0  0
 10 27  1  0  0  0
 10 41  1  0  0  0
 11 12  2  0  0  0
 11 14  1  0  0  0
 11 18  1  0  0  0
 12 15  1  0  0  0
 13 14  1  0  0  0
 13 42  1  0  0  0
 14 43  1  0  0  0
 14 44  1  0  0  0
 15 16  2  0  0  0
 15 45  1  0  0  0
 16 17  1  0  0  0
 16 46  1  0  0  0
 17 18  2  0  0  0
 17 19  1  0  0  0
 18 47  1  0  0  0
 19 20  2  0  0  0
 19 24  1  0  0  0
 20 21  1  0  0  0
 20 48  1  0  0  0
 21 22  2  0  0  0
 21 26  1  0  0  0
 22 23  1  0  0  0
 22 49  1  0  0  0
 23 24  2  0  0  0
 23 50  1  0  0  0
 24 51  1  0  0  0
 25 26  1  0  0  0
 25 52  1  0  0  0
 25 53  1  0  0  0
 25 54  1  0  0  0
 27 28  1  0  0  0
 27 55  1  0  0  0
 28 56  1  0  0  0
M  CHG  1   7   1
M  END
> <s_m_source_file>
../1qj6_ligand.sdf

> <i_m_source_file_index>
1

> <s_epik_input>
W0hdXE49QyhbTkgyXSlcW0NIMl1bQ0gyXVtDSDJdW0NIMl1bQ0BASF0oW0NIXT1PKVtDQEhdKFtDQEBIXShbT0hdKVtDSDJdMSljKGMxMilbY0hdW2NIXWMoW2NIXTIpLWMzW2NIXWMoT1tDSDNdKVtjSF1bY0hdW2NIXTM=

> <s_epik_cmdline>
J2VwaWtfYXBwJywgJy1pbWFlJywgJ2xpZ2FuZF9wcm8ubWFlJywgJy1vbWFlJywgJ2xpZ2FuZF9wcmVwLm1hZScsICctbXMnLCAnMScsICctcGgnLCAnNycsICctcGh0JywgJzAuNScsICctbnQn

> <r_lp_tautomer_probability>
1

> <r_epik_Ionization_Penalty>
  0.0000

> <r_epik_Ionization_Penalty_Charging>
  0.0000

> <r_epik_Ionization_Penalty_Neutral>
  0.0000

> <r_epik_State_Penalty>
 -0.0000

> <r_epik_Charging_Adjusted_Penalty>
1.00015981891352e-05

> <i_epik_Tot_Q>
1

> <i_epik_Tot_abs_Q>
1

> <s_epik_Chemistry_Notes>
This compound has an imine and may undergo hydrolysis.

$$$$
