1qj7_ligand
                    3D
 Schrodinger Suite 2020-3.
 69 71  0  0  1  0            999 V2000
   -0.0220   18.9140   46.0580 N   0  0  0  0  0  0
    0.4920   19.1970   44.7140 C   0  0  0  0  0  0
    0.0380   17.7300   47.9150 O   0  0  0  0  0  0
    4.2010   18.4430   48.0310 C   0  0  0  0  0  0
    4.8540   17.5470   47.1820 C   0  0  0  0  0  0
    8.9150   22.3590   51.3240 C   0  0  0  0  0  0
    8.5070   23.3770   50.2730 C   0  0  0  0  0  0
    9.5770   23.5050   49.1860 C   0  0  0  0  0  0
   10.4240   22.2550   49.0040 C   0  0  0  0  0  0
   11.1670   22.1630   47.7180 C   0  0  0  0  0  0
   11.7540   21.0040   47.4630 N   0  3  0  0  0  0
   11.2610   23.1960   46.8330 N   0  0  0  0  0  0
    8.9630   23.5140   53.9740 O   0  0  0  0  0  0
    5.2750   21.9470   54.4700 O   0  0  0  0  0  0
    6.4330   21.8150   52.1000 C   0  0  1  0  0  0
    4.8280   20.3780   51.1870 C   0  0  0  0  0  0
    6.0970   20.8660   50.9740 C   0  0  0  0  0  0
    5.5880   21.1700   53.2740 C   0  0  2  0  0  0
    4.2960   20.7630   52.5390 C   0  0  0  0  0  0
    6.8270   20.4890   49.8590 C   0  0  0  0  0  0
    6.2010   19.6610   48.9460 C   0  0  0  0  0  0
    4.8790   19.2240   49.1130 C   0  0  0  0  0  0
    4.1860   19.5670   50.2750 C   0  0  0  0  0  0
    4.1430   16.9000   46.1710 C   0  0  0  0  0  0
    2.7770   17.1270   46.0010 C   0  0  0  0  0  0
    0.6490   18.1920   46.9640 C   0  0  0  0  0  0
    2.1340   18.0010   46.8700 C   0  0  0  0  0  0
    2.8500   18.6460   47.8590 C   0  0  0  0  0  0
    1.3460   20.4410   44.7030 C   0  0  0  0  0  0
   -1.2930   19.5070   46.5470 C   0  0  0  0  0  0
   -2.4480   18.5390   46.8690 C   0  0  0  0  0  0
    7.9020   22.1530   52.4290 C   0  0  2  0  0  0
    7.9780   23.4190   53.2990 C   0  0  0  0  0  0
    1.1037   18.3501   44.3696 H   0  0  0  0  0  0
   -0.3508   19.3456   44.0229 H   0  0  0  0  0  0
    5.9191   17.3532   47.3092 H   0  0  0  0  0  0
    9.0687   21.3802   50.8462 H   0  0  0  0  0  0
    9.8497   22.6830   51.8050 H   0  0  0  0  0  0
    7.5639   23.0610   49.8031 H   0  0  0  0  0  0
    8.3687   24.3594   50.7482 H   0  0  0  0  0  0
    9.0948   23.7147   48.2198 H   0  0  0  0  0  0
   10.2616   24.3276   49.4404 H   0  0  0  0  0  0
   11.1796   22.2048   49.8018 H   0  0  0  0  0  0
    9.7794   21.3650   49.0529 H   0  0  0  0  0  0
   11.6728   20.1762   48.1828 H   0  0  0  0  0  0
   10.7700   24.1554   47.0533 H   0  0  0  0  0  0
   11.8278   23.0700   45.8988 H   0  0  0  0  0  0
    6.0868   22.3181   55.1129 H   0  0  0  0  0  0
    6.1970   22.8440   51.7911 H   0  0  0  0  0  0
    6.1627   20.4025   53.8131 H   0  0  0  0  0  0
    3.5793   21.5902   52.4290 H   0  0  0  0  0  0
    3.7908   19.8983   52.9941 H   0  0  0  0  0  0
    7.8510   20.8305   49.7079 H   0  0  0  0  0  0
    6.7546   19.3363   48.0650 H   0  0  0  0  0  0
    3.1732   19.2066   50.4552 H   0  0  0  0  0  0
    4.6609   16.2089   45.5060 H   0  0  0  0  0  0
    2.2254   16.6294   45.2034 H   0  0  0  0  0  0
    2.3302   19.3364   48.5233 H   0  0  0  0  0  0
    1.7143   20.6239   43.6828 H   0  0  0  0  0  0
    2.2004   20.3052   45.3824 H   0  0  0  0  0  0
    0.7458   21.3007   45.0358 H   0  0  0  0  0  0
   -1.1052   20.0584   47.4801 H   0  0  0  0  0  0
   -1.6921   20.1959   45.7880 H   0  0  0  0  0  0
   -3.3199   19.1117   47.2179 H   0  0  0  0  0  0
   -2.1308   17.8385   47.6555 H   0  0  0  0  0  0
   -2.7177   17.9759   45.9634 H   0  0  0  0  0  0
    8.2181   21.2096   52.8982 H   0  0  0  0  0  0
    7.2103   24.2061   53.3325 H   0  0  0  0  0  0
   12.3229   20.8689   46.5313 H   0  0  0  0  0  0
  1  2  1  0  0  0
  1 26  1  0  0  0
  1 30  1  0  0  0
  2 29  1  0  0  0
  2 34  1  0  0  0
  2 35  1  0  0  0
  3 26  2  0  0  0
  4  5  2  0  0  0
  4 22  1  0  0  0
  4 28  1  0  0  0
  5 24  1  0  0  0
  5 36  1  0  0  0
  6  7  1  0  0  0
  6 32  1  0  0  0
  6 37  1  0  0  0
  6 38  1  0  0  0
  7  8  1  0  0  0
  7 39  1  0  0  0
  7 40  1  0  0  0
  8  9  1  0  0  0
  8 41  1  0  0  0
  8 42  1  0  0  0
  9 10  1  0  0  0
  9 43  1  0  0  0
  9 44  1  0  0  0
 10 11  2  0  0  0
 10 12  1  0  0  0
 11 45  1  0  0  0
 11 69  1  0  0  0
 12 46  1  0  0  0
 12 47  1  0  0  0
 13 33  2  0  0  0
 14 18  1  0  0  0
 14 48  1  0  0  0
 15 17  1  0  0  0
 15 18  1  0  0  0
 15 32  1  0  0  0
 15 49  1  0  0  0
 16 17  2  0  0  0
 16 19  1  0  0  0
 16 23  1  0  0  0
 17 20  1  0  0  0
 18 19  1  0  0  0
 18 50  1  0  0  0
 19 51  1  0  0  0
 19 52  1  0  0  0
 20 21  2  0  0  0
 20 53  1  0  0  0
 21 22  1  0  0  0
 21 54  1  0  0  0
 22 23  2  0  0  0
 23 55  1  0  0  0
 24 25  2  0  0  0
 24 56  1  0  0  0
 25 27  1  0  0  0
 25 57  1  0  0  0
 26 27  1  0  0  0
 27 28  2  0  0  0
 28 58  1  0  0  0
 29 59  1  0  0  0
 29 60  1  0  0  0
 29 61  1  0  0  0
 30 31  1  0  0  0
 30 62  1  0  0  0
 30 63  1  0  0  0
 31 64  1  0  0  0
 31 65  1  0  0  0
 31 66  1  0  0  0
 32 33  1  0  0  0
 32 67  1  0  0  0
 33 68  1  0  0  0
M  CHG  1  11   1
M  END
> <s_m_source_file>
../1qj7_ligand.sdf

> <i_m_source_file_index>
1

> <s_epik_input>
W0NIM11bQ0gyXU4oW0NIMl1bQ0gzXSlDKD1PKWMoW2NIXTEpW2NIXVtjSF1bY0hdYzEtYyhbY0hdMilbY0hdW2NIXWMoYzIzKVtDQEBIXShbQ0BASF0oW09IXSlbQ0gyXTMpW0NASF0oW0NIXT1PKVtDSDJdW0NIMl1bQ0gyXVtDSDJdL0MoPU5cW0hdKVtOSDJd

> <s_epik_cmdline>
J2VwaWtfYXBwJywgJy1pbWFlJywgJ2xpZ2FuZF9wcm8ubWFlJywgJy1vbWFlJywgJ2xpZ2FuZF9wcmVwLm1hZScsICctbXMnLCAnMScsICctcGgnLCAnNycsICctcGh0JywgJzAuNScsICctbnQn

> <r_lp_tautomer_probability>
1

> <r_epik_Ionization_Penalty>
  0.0000

> <r_epik_Ionization_Penalty_Charging>
  0.0000

> <r_epik_Ionization_Penalty_Neutral>
  0.0000

> <r_epik_State_Penalty>
 -0.0000

> <r_epik_Charging_Adjusted_Penalty>
1.00015981891352e-05

> <i_epik_Tot_Q>
1

> <i_epik_Tot_abs_Q>
1

> <s_epik_Chemistry_Notes>
This compound has an imine and may undergo hydrolysis.

$$$$
