1qja_ligand
                    3D
 Schrodinger Suite 2020-3.
142144  0  0  1  0            999 V2000
   23.0470   20.9490   40.5100 N   0  3  0  0  0  0
   23.9850   22.1010   40.5960 C   0  0  2  0  0  0
   25.3500   21.7780   40.0180 C   0  0  0  0  0  0
   25.9990   20.8460   40.5070 O   0  0  0  0  0  0
   24.1870   22.4960   42.0630 C   0  0  0  0  0  0
   24.4040   24.0020   42.2000 C   0  0  0  0  0  0
   24.2370   24.3780   43.6600 C   0  0  0  0  0  0
   25.2620   23.7400   44.4810 N   0  0  0  0  0  0
   25.3730   23.8250   45.8060 C   0  0  0  0  0  0
   24.5260   24.5010   46.5650 N   0  3  0  0  0  0
   26.3890   23.2000   46.3980 N   0  0  0  0  0  0
   25.8390   22.5620   39.0850 N   0  0  0  0  0  0
   27.1260   22.3130   38.4460 C   0  0  2  0  0  0
   28.2820   22.7110   39.3550 C   0  0  0  0  0  0
   29.3430   22.0970   39.3870 O   0  0  0  0  0  0
   27.1910   23.0970   37.1270 C   0  0  0  0  0  0
   26.0850   22.7960   36.1060 C   0  0  0  0  0  0
   26.3260   23.5710   34.8190 C   0  0  0  0  0  0
   25.9550   21.3060   35.8040 C   0  0  0  0  0  0
   28.0750   23.7680   40.1170 N   0  0  0  0  0  0
   29.1120   24.2460   41.0400 C   0  0  2  0  0  0
   28.9700   23.5590   42.3980 C   0  0  0  0  0  0
   27.9540   22.9660   42.7600 O   0  0  0  0  0  0
   29.0550   25.7400   41.1570 C   0  0  0  0  0  0
   27.6900   26.2990   41.4800 C   0  0  0  0  0  0
   26.8040   26.5780   40.4470 C   0  0  0  0  0  0
   27.3140   26.5450   42.7940 C   0  0  0  0  0  0
   25.5580   27.1140   40.7510 C   0  0  0  0  0  0
   26.0740   27.0880   43.0970 C   0  0  0  0  0  0
   25.1990   27.3540   42.0670 C   0  0  0  0  0  0
   23.9520   27.8910   42.3120 O   0  0  0  0  0  0
   30.0880   23.5510   43.1340 N   0  0  0  0  0  0
   30.1090   22.8070   44.3750 C   0  0  2  0  0  0
   30.4460   23.6110   45.5990 C   0  0  0  0  0  0
   31.1390   24.5920   45.6060 O   0  0  0  0  0  0
   31.2030   21.7020   44.2650 C   0  0  0  0  0  0
   30.9560   20.8130   43.0840 C   0  0  0  0  0  0
   31.3410   21.1590   41.8110 N   0  0  0  0  0  0
   30.3310   19.6150   42.9910 C   0  0  0  0  0  0
   30.9760   20.1980   40.9770 C   0  0  0  0  0  0
   30.3610   19.2510   41.6650 N   0  0  0  0  0  0
   29.9160   23.0770   46.6960 N   0  0  0  0  0  0
   30.3410   23.6540   47.9800 C   0  0  1  0  0  0
   29.1660   24.0260   48.8120 C   0  0  0  0  0  0
   28.6670   22.7100   49.0790 O   0  0  0  0  0  0
   31.1410   22.4950   48.5940 C   0  0  0  0  0  0
   31.3070   21.5390   47.8400 O   0  0  0  0  0  0
   26.8800   22.5530   49.7790 P   0  0  0  0  0  0
   25.9470   23.4430   49.1240 O   0  0  0  0  0  0
   27.2300   23.0520   51.1690 O   0  5  0  0  0  0
   26.4190   21.1030   49.9730 O   0  5  0  0  0  0
   31.6160   22.6470   49.7920 N   0  0  0  0  0  0
   32.4650   21.6560   50.4410 C   0  0  2  0  0  0
   31.7520   20.3320   50.6690 C   0  0  0  0  0  0
   30.6960   20.2960   51.3290 O   0  0  0  0  0  0
   32.9530   22.2140   51.7860 C   0  0  0  0  0  0
   34.0770   21.4450   52.5030 C   0  0  0  0  0  0
   35.3670   21.5990   51.7070 C   0  0  0  0  0  0
   34.3090   21.9510   53.9360 C   0  0  0  0  0  0
   32.3230   19.2690   50.1290 N   0  0  0  0  0  0
   31.7470   17.9300   50.2560 C   0  0  2  0  0  0
   31.8860   17.4100   51.6860 C   0  0  0  0  0  0
   32.7260   17.9160   52.4510 O   0  0  0  0  0  0
   32.5210   17.0630   49.2690 C   0  0  0  0  0  0
   33.5720   17.9100   48.6580 C   0  0  0  0  0  0
   33.5480   19.2730   49.2860 C   0  0  0  0  0  0
   31.0120   16.4760   52.0940 N   0  0  0  0  0  0
   31.0560   15.9990   53.4780 C   0  0  2  0  0  0
   32.4660   15.4750   53.8080 C   0  0  0  0  0  0
   32.9760   14.8410   52.8500 O   0  0  0  0  0  0
   30.0310   14.9090   53.7600 C   0  0  0  0  0  0
   22.9054   20.6694   39.4556 H   0  0  0  0  0  0
   22.0782   21.2315   40.9478 H   0  0  0  0  0  0
   23.4641   20.0945   41.0631 H   0  0  0  0  0  0
   23.5192   22.9007   40.0014 H   0  0  0  0  0  0
   23.2970   22.2137   42.6446 H   0  0  0  0  0  0
   25.0683   21.9748   42.4651 H   0  0  0  0  0  0
   25.4176   24.2590   41.8585 H   0  0  0  0  0  0
   23.6638   24.5364   41.5864 H   0  0  0  0  0  0
   24.3235   25.4691   43.7698 H   0  0  0  0  0  0
   23.2473   24.0514   44.0119 H   0  0  0  0  0  0
   26.0383   23.1204   44.0084 H   0  0  0  0  0  0
   23.6765   25.0281   46.1062 H   0  0  0  0  0  0
   27.1105   22.6295   45.7947 H   0  0  0  0  0  0
   26.5068   23.2542   47.4903 H   0  0  0  0  0  0
   25.2378   23.4345   38.7894 H   0  0  0  0  0  0
   27.1760   21.2279   38.2724 H   0  0  0  0  0  0
   27.1253   24.1747   37.3374 H   0  0  0  0  0  0
   28.1417   22.8801   36.6180 H   0  0  0  0  0  0
   25.1324   23.1200   36.5506 H   0  0  0  0  0  0
   26.4181   24.6429   35.0483 H   0  0  0  0  0  0
   25.4807   23.4141   34.1328 H   0  0  0  0  0  0
   27.2534   23.2163   34.3456 H   0  0  0  0  0  0
   25.7812   20.7559   36.7406 H   0  0  0  0  0  0
   26.8814   20.9451   35.3333 H   0  0  0  0  0  0
   25.1087   21.1429   35.1205 H   0  0  0  0  0  0
   27.1102   24.2927   40.0543 H   0  0  0  0  0  0
   30.0880   23.9862   40.6041 H   0  0  0  0  0  0
   29.7307   26.0710   41.9594 H   0  0  0  0  0  0
   29.3662   26.1945   40.2048 H   0  0  0  0  0  0
   27.0821   26.3793   39.4120 H   0  0  0  0  0  0
   28.0058   26.3071   43.6020 H   0  0  0  0  0  0
   24.8586   27.3471   39.9481 H   0  0  0  0  0  0
   25.7975   27.3000   44.1298 H   0  0  0  0  0  0
   23.2676   28.0962   41.4757 H   0  0  0  0  0  0
   30.9832   24.1002   42.8067 H   0  0  0  0  0  0
   29.0634   22.4785   44.4692 H   0  0  0  0  0  0
   32.0710   21.5227   44.9164 H   0  0  0  0  0  0
   29.8533   18.9565   43.7314 H   0  0  0  0  0  0
   31.1531   20.1889   39.9015 H   0  0  0  0  0  0
   29.1949   22.2465   46.6780 H   0  0  0  0  0  0
   30.8946   24.5979   47.8679 H   0  0  0  0  0  0
   29.5062   24.5759   49.7019 H   0  0  0  0  0  0
   28.4877   24.6624   48.2248 H   0  0  0  0  0  0
   31.3510   23.5748   50.3202 H   0  0  0  0  0  0
   33.2885   21.4835   49.7325 H   0  0  0  0  0  0
   33.3417   23.2328   51.6410 H   0  0  0  0  0  0
   32.1151   22.2392   52.4982 H   0  0  0  0  0  0
   33.7823   20.3869   52.5622 H   0  0  0  0  0  0
   35.2091   21.2388   50.6797 H   0  0  0  0  0  0
   36.1644   21.0100   52.1836 H   0  0  0  0  0  0
   35.6587   22.6593   51.6831 H   0  0  0  0  0  0
   33.3816   21.8431   54.5176 H   0  0  0  0  0  0
   34.6028   23.0106   53.9076 H   0  0  0  0  0  0
   35.1086   21.3613   54.4081 H   0  0  0  0  0  0
   30.6715   17.9647   50.0278 H   0  0  0  0  0  0
   32.9742   16.2148   49.8030 H   0  0  0  0  0  0
   31.8351   16.6855   48.4963 H   0  0  0  0  0  0
   34.5568   17.4486   48.8232 H   0  0  0  0  0  0
   33.3868   18.0019   47.5776 H   0  0  0  0  0  0
   33.4725   20.0716   48.5333 H   0  0  0  0  0  0
   34.4291   19.4493   49.9204 H   0  0  0  0  0  0
   30.2659   16.0692   51.3955 H   0  0  0  0  0  0
   30.7911   16.8823   54.0777 H   0  0  0  0  0  0
   33.1259   16.3225   54.0451 H   0  0  0  0  0  0
   32.4125   14.7986   54.6738 H   0  0  0  0  0  0
   33.9833   14.4105   52.9496 H   0  0  0  0  0  0
   29.0238   15.2831   53.5244 H   0  0  0  0  0  0
   30.0783   14.6272   54.8222 H   0  0  0  0  0  0
   30.2505   14.0293   53.1371 H   0  0  0  0  0  0
   24.6713   24.5359   47.6548 H   0  0  0  0  0  0
   31.8640   22.1104   41.6340 H   0  0  0  0  0  0
  1  2  1  0  0  0
  1 72  1  0  0  0
  1 73  1  0  0  0
  1 74  1  0  0  0
  2  3  1  0  0  0
  2  5  1  0  0  0
  2 75  1  0  0  0
  3  4  2  0  0  0
  3 12  1  0  0  0
  5  6  1  0  0  0
  5 76  1  0  0  0
  5 77  1  0  0  0
  6  7  1  0  0  0
  6 78  1  0  0  0
  6 79  1  0  0  0
  7  8  1  0  0  0
  7 80  1  0  0  0
  7 81  1  0  0  0
  8  9  1  0  0  0
  8 82  1  0  0  0
  9 10  2  0  0  0
  9 11  1  0  0  0
 10 83  1  0  0  0
 10141  1  0  0  0
 11 84  1  0  0  0
 11 85  1  0  0  0
 12 13  1  0  0  0
 12 86  1  0  0  0
 13 14  1  0  0  0
 13 16  1  0  0  0
 13 87  1  0  0  0
 14 15  2  0  0  0
 14 20  1  0  0  0
 16 17  1  0  0  0
 16 88  1  0  0  0
 16 89  1  0  0  0
 17 18  1  0  0  0
 17 19  1  0  0  0
 17 90  1  0  0  0
 18 91  1  0  0  0
 18 92  1  0  0  0
 18 93  1  0  0  0
 19 94  1  0  0  0
 19 95  1  0  0  0
 19 96  1  0  0  0
 20 21  1  0  0  0
 20 97  1  0  0  0
 21 22  1  0  0  0
 21 24  1  0  0  0
 21 98  1  0  0  0
 22 23  2  0  0  0
 22 32  1  0  0  0
 24 25  1  0  0  0
 24 99  1  0  0  0
 24100  1  0  0  0
 25 26  2  0  0  0
 25 27  1  0  0  0
 26 28  1  0  0  0
 26101  1  0  0  0
 27 29  2  0  0  0
 27102  1  0  0  0
 28 30  2  0  0  0
 28103  1  0  0  0
 29 30  1  0  0  0
 29104  1  0  0  0
 30 31  1  0  0  0
 31105  1  0  0  0
 32 33  1  0  0  0
 32106  1  0  0  0
 33 34  1  0  0  0
 33 36  1  0  0  0
 33107  1  0  0  0
 34 35  2  0  0  0
 34 42  1  0  0  0
 36 37  2  0  0  0
 36108  1  0  0  0
 37 38  1  0  0  0
 37 39  1  0  0  0
 38 40  1  0  0  0
 38142  1  0  0  0
 39 41  2  0  0  0
 39109  1  0  0  0
 40 41  1  0  0  0
 40110  1  0  0  0
 42 43  1  0  0  0
 42111  1  0  0  0
 43 44  1  0  0  0
 43 46  1  0  0  0
 43112  1  0  0  0
 44 45  1  0  0  0
 44113  1  0  0  0
 44114  1  0  0  0
 45 48  1  0  0  0
 46 47  2  0  0  0
 46 52  1  0  0  0
 48 49  2  0  0  0
 48 50  1  0  0  0
 48 51  1  0  0  0
 52 53  1  0  0  0
 52115  1  0  0  0
 53 54  1  0  0  0
 53 56  1  0  0  0
 53116  1  0  0  0
 54 55  2  0  0  0
 54 60  1  0  0  0
 56 57  1  0  0  0
 56117  1  0  0  0
 56118  1  0  0  0
 57 58  1  0  0  0
 57 59  1  0  0  0
 57119  1  0  0  0
 58120  1  0  0  0
 58121  1  0  0  0
 58122  1  0  0  0
 59123  1  0  0  0
 59124  1  0  0  0
 59125  1  0  0  0
 60 61  1  0  0  0
 60 66  1  0  0  0
 61 62  1  0  0  0
 61 64  1  0  0  0
 61126  1  0  0  0
 62 63  2  0  0  0
 62 67  1  0  0  0
 64 65  1  0  0  0
 64127  1  0  0  0
 64128  1  0  0  0
 65 66  1  0  0  0
 65129  1  0  0  0
 65130  1  0  0  0
 66131  1  0  0  0
 66132  1  0  0  0
 67 68  1  0  0  0
 67133  1  0  0  0
 68 69  1  0  0  0
 68 71  1  0  0  0
 68134  1  0  0  0
 69 70  1  0  0  0
 69135  1  0  0  0
 69136  1  0  0  0
 70137  1  0  0  0
 71138  1  0  0  0
 71139  1  0  0  0
 71140  1  0  0  0
M  CHG  4   1   1  10   1  50  -1  51  -1
M  END
> <s_m_source_file>
../1qja_ligand.sdf

> <i_m_source_file_index>
1

> <s_epik_input>
W0hdL049QyhbTkgyXSlcW05IXVtDSDJdW0NIMl1bQ0gyXVtDQEhdKFtOSDMrXSlDKD1PKVtOSF1bQ0BASF0oW0NIMl1bQ0hdKFtDSDNdKVtDSDNdKUMoPU8pW05IXVtDQEBIXShbQ0gyXWMxW2NIXVtjSF1jKFtPSF0pW2NIXVtjSF0xKUMoPU8pW05IXVtDQEBIXShbQ0gyXUMyPU5bQ0gyXU49W0NIXTIpQyg9TylbTkhdW0NAQEhdKFtDSDJdT1AoPU8pKFtPSF0pW09IXSlDKD1PKVtOSF1bQ0BASF0oW0NIMl1bQ0hdKFtDSDNdKVtDSDNdKUMoPU8pTjNbQ0BASF0oW0NIMl1bQ0gyXVtDSDJdMylDKD1PKVtOSF1bQ0BASF0oW0NIM10pW0NIMl1bT0hd

> <s_epik_cmdline>
J2VwaWtfYXBwJywgJy1pbWFlJywgJ2xpZ2FuZF9wcm8ubWFlJywgJy1vbWFlJywgJ2xpZ2FuZF9wcmVwLm1hZScsICctbXMnLCAnMScsICctcGgnLCAnNycsICctcGh0JywgJzAuNScsICctbnQn

> <r_epik_Ionization_Penalty>
  0.2184

> <r_epik_Ionization_Penalty_Charging>
  0.2175

> <r_epik_Ionization_Penalty_Neutral>
  0.0008

> <r_epik_State_Penalty>
  0.1840

> <r_epik_Charging_Adjusted_Penalty>
0.401561650343017

> <i_epik_Tot_Q>
0

> <i_epik_Tot_abs_Q>
4

> <s_epik_Chemistry_Notes>
This compound has an imine and may undergo hydrolysis.

$$$$
