1qjb_ligand
                    3D
 Schrodinger Suite 2020-3.
124126  0  0  1  0            999 V2000
   20.1418   -4.0512   44.3787 O   0  5  0  0  0  0
   33.7040  -11.7080   45.4570 N   0  3  0  0  0  0
   32.5920  -10.8830   44.8900 C   0  0  2  0  0  0
   31.2250  -11.4680   45.2560 C   0  0  0  0  0  0
   31.0810  -12.6570   45.5540 O   0  0  0  0  0  0
   32.6520  -10.7150   43.3830 C   0  0  0  0  0  0
   30.2260  -10.5840   45.2530 N   0  0  0  0  0  0
   28.8680  -11.0060   45.5540 C   0  0  2  0  0  0
   28.2210  -11.5880   44.2960 C   0  0  0  0  0  0
   28.4290  -11.1260   43.1800 O   0  0  0  0  0  0
   28.0420   -9.8390   46.0750 C   0  0  0  0  0  0
   27.5880   -8.8080   45.0450 C   0  0  0  0  0  0
   26.5230   -7.9000   45.6350 C   0  0  0  0  0  0
   26.0330   -6.8480   44.7550 N   0  0  0  0  0  0
   25.3330   -5.7970   45.1870 C   0  0  0  0  0  0
   25.0330   -5.6480   46.4740 N   0  0  0  0  0  0
   24.9110   -4.8680   44.3350 N   0  3  0  0  0  0
   27.4530  -12.6510   44.4850 N   0  0  0  0  0  0
   26.7030  -13.2340   43.3830 C   0  0  2  0  0  0
   25.7100  -12.1640   42.9250 C   0  0  0  0  0  0
   25.1860  -11.4400   43.7940 O   0  0  0  0  0  0
   25.8920  -14.4370   43.8920 C   0  0  0  0  0  0
   26.7620  -15.5270   44.1730 O   0  0  0  0  0  0
   25.3430  -12.1450   41.6610 N   0  0  0  0  0  0
   24.2960  -11.1990   41.2440 C   0  0  2  0  0  0
   22.8830  -11.7370   41.3870 C   0  0  0  0  0  0
   22.5980  -12.8820   41.0110 O   0  0  0  0  0  0
   24.5650  -10.7640   39.8020 C   0  0  0  0  0  0
   25.9730  -10.2610   39.6680 C   0  0  0  0  0  0
   26.3020   -8.9400   39.8920 N   0  0  0  0  0  0
   27.1290  -10.9150   39.3860 C   0  0  0  0  0  0
   27.6050   -8.7940   39.7430 C   0  0  0  0  0  0
   28.1270   -9.9720   39.4390 N   0  3  0  0  0  0
   21.9530  -10.8670   41.8380 N   0  0  0  0  0  0
   20.5600  -11.2480   41.8160 C   0  0  1  0  0  0
   20.0940  -11.7470   43.1800 C   0  0  0  0  0  0
   20.2670  -10.4570   43.8310 O   0  0  0  0  0  0
   19.6700  -10.0950   41.3350 C   0  0  0  0  0  0
   20.2000   -9.0240   41.0910 O   0  0  0  0  0  0
   20.0720  -10.3110   45.7390 P   0  0  0  0  0  0
   20.9430  -11.3450   46.4650 O   0  5  0  0  0  0
   18.6300  -10.8190   45.9620 O   0  5  0  0  0  0
   20.1870   -8.9560   46.3700 O   0  0  0  0  0  0
   18.4010  -10.3550   41.0750 N   0  0  0  0  0  0
   17.5140   -9.4280   40.3850 C   0  0  2  0  0  0
   16.1630   -9.3230   41.0350 C   0  0  0  0  0  0
   15.7070  -10.4290   41.2390 O   0  0  0  0  0  0
   17.3650   -9.7520   38.8840 C   0  0  0  0  0  0
   16.5400   -8.7200   38.1250 C   0  0  0  0  0  0
   15.1550   -8.7860   38.0680 C   0  0  0  0  0  0
   17.1460   -7.6590   37.4660 C   0  0  0  0  0  0
   14.4070   -7.8070   37.4280 C   0  0  0  0  0  0
   16.4370   -6.6930   36.7850 C   0  0  0  0  0  0
   15.0590   -6.7860   36.7740 C   0  0  0  0  0  0
   14.3150   -5.8140   36.1370 O   0  0  0  0  0  0
   15.7090   -8.1430   41.3830 N   0  0  0  0  0  0
   16.1880   -6.8210   41.1870 C   0  0  2  0  0  0
   17.4290   -6.5830   42.0460 C   0  0  0  0  0  0
   17.5210   -7.1580   43.1360 O   0  0  0  0  0  0
   15.0990   -5.8180   41.6080 C   0  0  0  0  0  0
   14.4910   -6.6040   42.7560 C   0  0  0  0  0  0
   14.4370   -7.9760   42.0910 C   0  0  0  0  0  0
   18.2970   -5.6590   41.6770 N   0  0  0  0  0  0
   19.5020   -5.3820   42.4510 C   0  0  2  0  0  0
   19.3430   -4.2020   43.4160 C   0  0  0  0  0  0
   18.4050   -3.3880   43.2330 O   0  0  0  0  0  0
   20.6680   -5.1370   41.5080 C   0  0  0  0  0  0
   33.5871  -11.7804   46.5484 H   0  0  0  0  0  0
   34.6686  -11.2343   45.2221 H   0  0  0  0  0  0
   33.6738  -12.7159   45.0173 H   0  0  0  0  0  0
   32.7472   -9.8945   45.3469 H   0  0  0  0  0  0
   33.6284  -10.2951   43.0995 H   0  0  0  0  0  0
   31.8516  -10.0341   43.0578 H   0  0  0  0  0  0
   32.5195  -11.6941   42.8994 H   0  0  0  0  0  0
   30.4355   -9.5294   45.0207 H   0  0  0  0  0  0
   28.9552  -11.7695   46.3410 H   0  0  0  0  0  0
   27.1220  -10.2205   46.5419 H   0  0  0  0  0  0
   28.6266   -9.2798   46.8203 H   0  0  0  0  0  0
   28.4479   -8.1959   44.7353 H   0  0  0  0  0  0
   27.1711   -9.3248   44.1680 H   0  0  0  0  0  0
   25.6453   -8.4998   45.9175 H   0  0  0  0  0  0
   26.9242   -7.3950   46.5261 H   0  0  0  0  0  0
   26.2352   -6.8960   43.6748 H   0  0  0  0  0  0
   25.3662   -6.3977   47.2068 H   0  0  0  0  0  0
   24.4517   -4.7751   46.8058 H   0  0  0  0  0  0
   25.1411   -4.9594   43.2632 H   0  0  0  0  0  0
   27.3865  -13.0928   45.4902 H   0  0  0  0  0  0
   27.4162  -13.5385   42.6028 H   0  0  0  0  0  0
   25.3562  -14.1557   44.8106 H   0  0  0  0  0  0
   25.1667  -14.7420   43.1233 H   0  0  0  0  0  0
   26.3513  -16.4758   44.5487 H   0  0  0  0  0  0
   25.8023  -12.8179   40.9219 H   0  0  0  0  0  0
   24.3737  -10.3592   41.9501 H   0  0  0  0  0  0
   24.4227  -11.6214   39.1278 H   0  0  0  0  0  0
   23.8670   -9.9601   39.5252 H   0  0  0  0  0  0
   27.1129  -11.9946   39.1758 H   0  0  0  0  0  0
   28.0663   -7.8042   39.8756 H   0  0  0  0  0  0
   22.2467   -9.8778   42.2191 H   0  0  0  0  0  0
   20.5304  -12.0758   41.0922 H   0  0  0  0  0  0
   19.0628  -12.1216   43.1007 H   0  0  0  0  0  0
   20.7541  -12.5592   43.5184 H   0  0  0  0  0  0
   18.0226  -11.3321   41.4099 H   0  0  0  0  0  0
   18.0289   -8.4654   40.5202 H   0  0  0  0  0  0
   18.3600   -9.7901   38.4166 H   0  0  0  0  0  0
   16.8673  -10.7259   38.7667 H   0  0  0  0  0  0
   14.6424   -9.6261   38.5366 H   0  0  0  0  0  0
   18.2334   -7.5865   37.4882 H   0  0  0  0  0  0
   13.3178   -7.8463   37.4431 H   0  0  0  0  0  0
   16.9486   -5.8797   36.2703 H   0  0  0  0  0  0
   13.2172   -5.8818   36.1244 H   0  0  0  0  0  0
   16.4256   -6.7621   40.1146 H   0  0  0  0  0  0
   15.5694   -4.8686   41.9035 H   0  0  0  0  0  0
   14.4165   -5.6418   40.7635 H   0  0  0  0  0  0
   15.1539   -6.5458   43.6319 H   0  0  0  0  0  0
   13.5085   -6.1800   43.0109 H   0  0  0  0  0  0
   13.6068   -8.0327   41.3716 H   0  0  0  0  0  0
   14.3273   -8.7732   42.8410 H   0  0  0  0  0  0
   18.0911   -5.0910   40.7578 H   0  0  0  0  0  0
   19.6591   -6.2927   43.0476 H   0  0  0  0  0  0
   20.7703   -5.9907   40.8219 H   0  0  0  0  0  0
   21.5935   -5.0224   42.0914 H   0  0  0  0  0  0
   20.4842   -4.2205   40.9281 H   0  0  0  0  0  0
   29.1693  -10.2626   39.2412 H   0  0  0  0  0  0
   24.3317   -4.0078   44.7017 H   0  0  0  0  0  0
  1 65  1  0  0  0
  2  3  1  0  0  0
  2 68  1  0  0  0
  2 69  1  0  0  0
  2 70  1  0  0  0
  3  4  1  0  0  0
  3  6  1  0  0  0
  3 71  1  0  0  0
  4  5  2  0  0  0
  4  7  1  0  0  0
  6 72  1  0  0  0
  6 73  1  0  0  0
  6 74  1  0  0  0
  7  8  1  0  0  0
  7 75  1  0  0  0
  8  9  1  0  0  0
  8 11  1  0  0  0
  8 76  1  0  0  0
  9 10  2  0  0  0
  9 18  1  0  0  0
 11 12  1  0  0  0
 11 77  1  0  0  0
 11 78  1  0  0  0
 12 13  1  0  0  0
 12 79  1  0  0  0
 12 80  1  0  0  0
 13 14  1  0  0  0
 13 81  1  0  0  0
 13 82  1  0  0  0
 14 15  1  0  0  0
 14 83  1  0  0  0
 15 16  1  0  0  0
 15 17  2  0  0  0
 16 84  1  0  0  0
 16 85  1  0  0  0
 17 86  1  0  0  0
 17124  1  0  0  0
 18 19  1  0  0  0
 18 87  1  0  0  0
 19 20  1  0  0  0
 19 22  1  0  0  0
 19 88  1  0  0  0
 20 21  2  0  0  0
 20 24  1  0  0  0
 22 23  1  0  0  0
 22 89  1  0  0  0
 22 90  1  0  0  0
 23 91  1  0  0  0
 24 25  1  0  0  0
 24 92  1  0  0  0
 25 26  1  0  0  0
 25 28  1  0  0  0
 25 93  1  0  0  0
 26 34  1  0  0  0
 26 27  2  0  0  0
 28 29  1  0  0  0
 28 94  1  0  0  0
 28 95  1  0  0  0
 29 31  2  0  0  0
 29 30  1  0  0  0
 30 32  2  0  0  0
 31 33  1  0  0  0
 31 96  1  0  0  0
 32 33  1  0  0  0
 32 97  1  0  0  0
 33123  1  0  0  0
 34 35  1  0  0  0
 34 98  1  0  0  0
 35 38  1  0  0  0
 35 36  1  0  0  0
 35 99  1  0  0  0
 36 37  1  0  0  0
 36100  1  0  0  0
 36101  1  0  0  0
 37 40  1  0  0  0
 38 39  2  0  0  0
 38 44  1  0  0  0
 40 41  1  0  0  0
 40 43  2  0  0  0
 40 42  1  0  0  0
 44 45  1  0  0  0
 44102  1  0  0  0
 45 46  1  0  0  0
 45 48  1  0  0  0
 45103  1  0  0  0
 46 47  2  0  0  0
 46 56  1  0  0  0
 48 49  1  0  0  0
 48104  1  0  0  0
 48105  1  0  0  0
 49 51  2  0  0  0
 49 50  1  0  0  0
 50 52  2  0  0  0
 50106  1  0  0  0
 51 53  1  0  0  0
 51107  1  0  0  0
 52 54  1  0  0  0
 52108  1  0  0  0
 53 54  2  0  0  0
 53109  1  0  0  0
 54 55  1  0  0  0
 55110  1  0  0  0
 56 57  1  0  0  0
 56 62  1  0  0  0
 57 60  1  0  0  0
 57 58  1  0  0  0
 57111  1  0  0  0
 58 59  2  0  0  0
 58 63  1  0  0  0
 60 61  1  0  0  0
 60112  1  0  0  0
 60113  1  0  0  0
 61 62  1  0  0  0
 61114  1  0  0  0
 61115  1  0  0  0
 62116  1  0  0  0
 62117  1  0  0  0
 63 64  1  0  0  0
 63118  1  0  0  0
 64 65  1  0  0  0
 64 67  1  0  0  0
 64119  1  0  0  0
 65 66  2  0  0  0
 67120  1  0  0  0
 67121  1  0  0  0
 67122  1  0  0  0
M  CHG  6   1  -1   2   1  17   1  33   1  41  -1  42  -1
M  END
> <s_m_source_file>
../1qjb_ligand.sdf

> <i_m_source_file_index>
1

> <s_epik_input>
W09IXUMoPU8pW0NASF0oW0NIM10pW05IXUMoPU8pW0NASF0oW0NIMl1bQ0gyXVtDSDJdMSlOMUMoPU8pW0NASF0oW0NIMl1jMltjSF1bY0hdYyhbT0hdKVtjSF1bY0hdMilbTkhdQyg9TylbQ0BIXShbQ0gyXU9QKD1PKShbT0hdKVtPSF0pW05IXUMoPU8pW0NASF0oW0NIMl1jM25bY0hdW25IXVtjSF0zKVtOSF1DKD1PKVtDQEhdKFtDSDJdW09IXSlbTkhdQyg9TylbQ0BASF0oW05IXUMoPU8pW0NAQEhdKFtOSDMrXSlbQ0gzXSlbQ0gyXVtDSDJdW0NIMl1bTkhdL0MoW05IMl0pPU5cW0hd

> <s_epik_cmdline>
J2VwaWtfYXBwJywgJy1pbWFlJywgJ2xpZ2FuZF9wcm8ubWFlJywgJy1vbWFlJywgJ2xpZ2FuZF9wcmVwLm1hZScsICctbXMnLCAnMScsICctcGgnLCAnNycsICctcGh0JywgJzAuNScsICctbnQn

> <r_epik_Ionization_Penalty>
  0.2167

> <r_epik_Ionization_Penalty_Charging>
  0.2157

> <r_epik_Ionization_Penalty_Neutral>
  0.0010

> <r_epik_State_Penalty>
  0.0002

> <r_epik_Charging_Adjusted_Penalty>
0.215893396801799

> <i_epik_Tot_Q>
0

> <i_epik_Tot_abs_Q>
6

> <s_epik_Chemistry_Notes>
This compound has an imine and may undergo hydrolysis.

$$$$
