1qk3_ligand
                    3D
 Schrodinger Suite 2020-3.
 36 38  0  0  1  0            999 V2000
   60.5190  108.3350  114.3770 P   0  0  0  0  0  0
   59.0930  108.5740  114.6540 O   0  0  0  0  0  0
   60.8490  108.3850  112.8960 O   0  5  0  0  0  0
   61.4530  109.2730  115.2070 O   0  5  0  0  0  0
   60.9550  106.8580  114.8660 O   0  0  0  0  0  0
   61.5070  106.6510  116.1800 C   0  0  0  0  0  0
   61.8940  105.2010  116.4460 C   0  0  1  0  0  0
   60.6160  104.4950  116.6290 O   0  0  0  0  0  0
   62.5890  104.3960  115.3670 C   0  0  1  0  0  0
   63.9940  104.5490  115.3850 O   0  0  0  0  0  0
   62.2710  102.9660  115.7810 C   0  0  1  0  0  0
   63.1130  102.5420  116.8670 O   0  0  0  0  0  0
   60.8240  103.1110  116.2570 C   0  0  2  0  0  0
   59.7550  102.7170  115.3190 N   0  0  0  0  0  0
   58.9860  103.4930  114.4960 C   0  0  0  0  0  0
   58.0820  102.8470  113.8100 N   0  0  0  0  0  0
   58.2410  101.5220  114.2800 C   0  0  0  0  0  0
   57.4920  100.3820  113.9100 C   0  0  0  0  0  0
   56.5620  100.3110  113.1170 O   0  0  0  0  0  0
   57.9230   99.2500  114.6210 N   0  0  0  0  0  0
   58.9540   99.2570  115.5350 C   0  0  0  0  0  0
   59.1760   98.0480  116.0990 N   0  0  0  0  0  0
   59.6720  100.3310  115.8870 N   0  0  0  0  0  0
   59.2490  101.4350  115.2060 C   0  0  0  0  0  0
   62.4128  107.2639  116.2979 H   0  0  0  0  0  0
   60.7660  106.9420  116.9391 H   0  0  0  0  0  0
   62.5983  105.2453  117.2898 H   0  0  0  0  0  0
   62.3246  104.7144  114.3478 H   0  0  0  0  0  0
   64.4455  105.5153  115.1160 H   0  0  0  0  0  0
   62.4622  102.1990  115.0160 H   0  0  0  0  0  0
   64.1893  102.3874  116.7005 H   0  0  0  0  0  0
   60.6857  102.4236  117.1046 H   0  0  0  0  0  0
   59.1182  104.5722  114.4184 H   0  0  0  0  0  0
   57.4287   98.2801  114.4629 H   0  0  0  0  0  0
   58.5735   97.1798  115.7939 H   0  0  0  0  0  0
   59.9591   97.9329  116.8629 H   0  0  0  0  0  0
  1  4  1  0  0  0
  1  5  1  0  0  0
  1  3  1  0  0  0
  1  2  2  0  0  0
  5  6  1  0  0  0
  6  7  1  0  0  0
  6 25  1  0  0  0
  6 26  1  0  0  0
  7  9  1  0  0  0
  7  8  1  0  0  0
  7 27  1  0  0  0
  8 13  1  0  0  0
  9 11  1  0  0  0
  9 10  1  0  0  0
  9 28  1  0  0  0
 10 29  1  0  0  0
 11 13  1  0  0  0
 11 12  1  0  0  0
 11 30  1  0  0  0
 12 31  1  0  0  0
 13 14  1  0  0  0
 13 32  1  0  0  0
 14 15  1  0  0  0
 14 24  1  0  0  0
 15 16  2  0  0  0
 15 33  1  0  0  0
 16 17  1  0  0  0
 17 24  2  0  0  0
 17 18  1  0  0  0
 18 19  2  0  0  0
 18 20  1  0  0  0
 20 21  1  0  0  0
 20 34  1  0  0  0
 21 22  1  0  0  0
 21 23  2  0  0  0
 22 35  1  0  0  0
 22 36  1  0  0  0
 23 24  1  0  0  0
M  CHG  2   3  -1   4  -1
M  END
> <s_m_source_file>
../1qk3_ligand.sdf

> <i_m_source_file_index>
1

> <s_epik_input>
Tz1QKFtPSF0pKFtPSF0pT1tDSDJdW0NASF0xT1tDQEhdKFtDQEhdKFtPSF0pW0NAQEhdMVtPSF0pbihbY0hdbjIpYyhjMjMpbmMoW05IMl0pW25IXWMzPU8=

> <s_epik_cmdline>
J2VwaWtfYXBwJywgJy1pbWFlJywgJ2xpZ2FuZF9wcm8ubWFlJywgJy1vbWFlJywgJ2xpZ2FuZF9wcmVwLm1hZScsICctbXMnLCAnMScsICctcGgnLCAnNycsICctcGh0JywgJzAuNScsICctbnQn

> <r_lp_tautomer_probability>
0.999940409345307

> <r_epik_Ionization_Penalty>
  0.1039

> <r_epik_Ionization_Penalty_Charging>
  0.1039

> <r_epik_Ionization_Penalty_Neutral>
  0.0001

> <r_epik_State_Penalty>
  0.0920

> <r_epik_Charging_Adjusted_Penalty>
0.19587073098791

> <i_epik_Tot_Q>
-2

> <i_epik_Tot_abs_Q>
2

> <s_epik_Chemistry_Notes>
This compound contains an acetal/aminal-like group ( X-CH(R)-Y where X, Y are N, S, or O) that may be acid/base labile, releasing an aldehyde.

$$$$
