1qkb_ligand
                    3D
 Schrodinger Suite 2020-3.
 63 62  0  0  1  0            999 V2000
    6.9540   16.5470   15.1220 N   0  3  0  0  0  0
    6.4560   17.8430   14.5550 C   0  0  2  0  0  0
    5.2380   18.3380   15.3310 C   0  0  0  0  0  0
    4.4820   17.5120   15.8490 O   0  0  0  0  0  0
    6.1980   17.7410   13.0490 C   0  0  0  0  0  0
    5.2540   16.6210   12.6200 C   0  0  0  0  0  0
    5.1780   16.5400   11.0930 C   0  0  0  0  0  0
    6.4350   15.8900   10.4940 C   0  0  0  0  0  0
    6.5840   14.4590   10.9350 N   0  3  0  0  0  0
    5.0710   19.6460   15.4290 N   0  0  0  0  0  0
    3.9410   20.2190   16.1820 C   0  0  2  0  0  0
    2.6510   20.1800   15.3760 C   0  0  0  0  0  0
    2.6630   20.4870   14.1830 O   0  0  0  0  0  0
    4.2440   21.6680   16.5990 C   0  0  0  0  0  0
    3.1460   22.2740   17.4450 C   0  0  0  0  0  0
    5.5760   21.7060   17.3710 C   0  0  0  0  0  0
    1.5590   19.8180   16.0730 N   0  0  0  0  0  0
    0.2770   19.7990   15.3790 C   0  0  2  0  0  0
   -0.7350   20.6380   16.1740 C   0  0  0  0  0  0
   -1.6780   21.1460   15.5200 O   0  5  0  0  0  0
   -0.2820   18.3680   15.2540 C   0  0  0  0  0  0
   -1.4010   18.4250   14.1870 C   0  0  0  0  0  0
   -2.1110   17.0860   14.1500 C   0  0  0  0  0  0
   -3.4420   17.2520   13.4300 C   0  0  0  0  0  0
   -3.1130   17.0310   11.9760 N   0  3  0  0  0  0
   -0.5830   20.7290   17.4140 O   0  0  0  0  0  0
    7.8302   16.2088   14.5493 H   0  0  0  0  0  0
    6.1592   15.7892   15.0578 H   0  0  0  0  0  0
    7.2379   16.6924   16.1747 H   0  0  0  0  0  0
    7.2582   18.5837   14.6887 H   0  0  0  0  0  0
    5.7507   18.6794   12.6893 H   0  0  0  0  0  0
    7.1489   17.5637   12.5252 H   0  0  0  0  0  0
    5.6224   15.6611   13.0110 H   0  0  0  0  0  0
    4.2475   16.8171   13.0181 H   0  0  0  0  0  0
    4.3048   15.9382   10.8008 H   0  0  0  0  0  0
    5.0808   17.5534   10.6764 H   0  0  0  0  0  0
    6.3701   15.9094    9.3961 H   0  0  0  0  0  0
    7.3261   16.4473   10.8185 H   0  0  0  0  0  0
    7.4923   14.0299   10.4868 H   0  0  0  0  0  0
    5.7063   13.8816   10.6090 H   0  0  0  0  0  0
    6.6623   14.4195   12.0315 H   0  0  0  0  0  0
    5.7957   20.3098   14.9349 H   0  0  0  0  0  0
    3.8305   19.5720   17.0647 H   0  0  0  0  0  0
    4.2964   22.2798   15.6863 H   0  0  0  0  0  0
    2.1969   22.2447   16.8898 H   0  0  0  0  0  0
    3.3998   23.3176   17.6825 H   0  0  0  0  0  0
    3.0430   21.7003   18.3779 H   0  0  0  0  0  0
    6.3711   21.2645   16.7522 H   0  0  0  0  0  0
    5.4757   21.1316   18.3038 H   0  0  0  0  0  0
    5.8326   22.7490   17.6084 H   0  0  0  0  0  0
    1.6130   19.5412   17.1362 H   0  0  0  0  0  0
    0.4879   20.2171   14.3837 H   0  0  0  0  0  0
    0.5230   17.6858   14.9433 H   0  0  0  0  0  0
   -0.6820   18.0444   16.2262 H   0  0  0  0  0  0
   -2.1165   19.2187   14.4481 H   0  0  0  0  0  0
   -0.9587   18.6392   13.2029 H   0  0  0  0  0  0
   -1.4875   16.3551   13.6142 H   0  0  0  0  0  0
   -2.2859   16.7352   15.1778 H   0  0  0  0  0  0
   -4.1581   16.5070   13.8069 H   0  0  0  0  0  0
   -3.8344   18.2632   13.6132 H   0  0  0  0  0  0
   -4.0276   17.1332   11.3735 H   0  0  0  0  0  0
   -2.6975   16.0211   11.8435 H   0  0  0  0  0  0
   -2.3737   17.7774   11.6498 H   0  0  0  0  0  0
  1  2  1  0  0  0
  1 27  1  0  0  0
  1 28  1  0  0  0
  1 29  1  0  0  0
  2  5  1  0  0  0
  2  3  1  0  0  0
  2 30  1  0  0  0
  3  4  2  0  0  0
  3 10  1  0  0  0
  5  6  1  0  0  0
  5 31  1  0  0  0
  5 32  1  0  0  0
  6  7  1  0  0  0
  6 33  1  0  0  0
  6 34  1  0  0  0
  7  8  1  0  0  0
  7 35  1  0  0  0
  7 36  1  0  0  0
  8  9  1  0  0  0
  8 37  1  0  0  0
  8 38  1  0  0  0
  9 39  1  0  0  0
  9 40  1  0  0  0
  9 41  1  0  0  0
 10 11  1  0  0  0
 10 42  1  0  0  0
 11 14  1  0  0  0
 11 12  1  0  0  0
 11 43  1  0  0  0
 12 13  2  0  0  0
 12 17  1  0  0  0
 14 16  1  0  0  0
 14 15  1  0  0  0
 14 44  1  0  0  0
 15 45  1  0  0  0
 15 46  1  0  0  0
 15 47  1  0  0  0
 16 48  1  0  0  0
 16 49  1  0  0  0
 16 50  1  0  0  0
 17 18  1  0  0  0
 17 51  1  0  0  0
 18 21  1  0  0  0
 18 19  1  0  0  0
 18 52  1  0  0  0
 19 20  1  0  0  0
 19 26  2  0  0  0
 21 22  1  0  0  0
 21 53  1  0  0  0
 21 54  1  0  0  0
 22 23  1  0  0  0
 22 55  1  0  0  0
 22 56  1  0  0  0
 23 24  1  0  0  0
 23 57  1  0  0  0
 23 58  1  0  0  0
 24 25  1  0  0  0
 24 59  1  0  0  0
 24 60  1  0  0  0
 25 61  1  0  0  0
 25 62  1  0  0  0
 25 63  1  0  0  0
M  CHG  4   1   1   9   1  20  -1  25   1
M  END
> <s_m_source_file>
../1qkb_ligand.sdf

> <i_m_source_file_index>
1

> <s_epik_input>
W05IMytdW0NIMl1bQ0gyXVtDSDJdW0NIMl1bQ0BIXShbTkgzK10pQyg9TylbTkhdW0NAQEhdKFtDSF0oW0NIM10pW0NIM10pQyg9TylbTkhdW0NASF0oQyg9TylbT0hdKVtDSDJdW0NIMl1bQ0gyXVtDSDJdW05IMytd

> <s_epik_cmdline>
J2VwaWtfYXBwJywgJy1pbWFlJywgJ2xpZ2FuZF9wcm8ubWFlJywgJy1vbWFlJywgJ2xpZ2FuZF9wcmVwLm1hZScsICctbXMnLCAnMScsICctcGgnLCAnNycsICctcGh0JywgJzAuNScsICctbnQn

> <r_epik_Ionization_Penalty>
  0.1153

> <r_epik_Ionization_Penalty_Charging>
  0.1152

> <r_epik_Ionization_Penalty_Neutral>
  0.0000

> <r_epik_State_Penalty>
  0.1038

> <r_epik_Charging_Adjusted_Penalty>
0.21906787974672

> <i_epik_Tot_Q>
2

> <i_epik_Tot_abs_Q>
4

$$$$
