1qku_ligand
                    3D
 Schrodinger Suite 2020-3.
 44 47  0  0  1  0            999 V2000
  104.1060   17.2030   24.7750 C   0  0  0  0  0  0
  102.9950   17.8340   25.3700 C   0  0  0  0  0  0
  101.6950   17.3550   25.1200 C   0  0  0  0  0  0
  100.5980   17.9900   25.7040 O   0  0  0  0  0  0
  101.5060   16.2400   24.2740 C   0  0  0  0  0  0
  102.6210   15.5880   23.6600 C   0  0  0  0  0  0
  102.3710   14.3790   22.7350 C   0  0  0  0  0  0
  103.6440   13.7530   22.0860 C   0  0  0  0  0  0
  104.8980   13.8730   22.9530 C   0  0  2  0  0  0
  105.1780   15.3880   23.2610 C   0  0  1  0  0  0
  103.9570   16.0780   23.9180 C   0  0  0  0  0  0
  106.4620   15.4590   24.1250 C   0  0  0  0  0  0
  107.7110   14.8030   23.5080 C   0  0  0  0  0  0
  107.4630   13.3430   23.1240 C   0  0  1  0  0  0
  106.1700   13.2700   22.2420 C   0  0  1  0  0  0
  106.2280   11.8210   21.7920 C   0  0  0  0  0  0
  107.7010   11.7130   21.2630 C   0  0  0  0  0  0
  108.4940   12.7190   22.1350 C   0  0  2  0  0  0
  109.6100   12.0270   22.7460 O   0  0  0  0  0  0
  107.3790   12.4490   24.4190 C   0  0  0  0  0  0
  105.1057   17.5874   24.9771 H   0  0  0  0  0  0
  103.1424   18.6934   26.0241 H   0  0  0  0  0  0
  100.7511   18.8580   26.3621 H   0  0  0  0  0  0
  100.4974   15.8717   24.0866 H   0  0  0  0  0  0
  101.8873   13.5735   23.3070 H   0  0  0  0  0  0
  101.7172   14.6821   21.9040 H   0  0  0  0  0  0
  103.4734   12.6818   21.9033 H   0  0  0  0  0  0
  103.8557   14.2584   21.1322 H   0  0  0  0  0  0
  104.6832   13.3021   23.8684 H   0  0  0  0  0  0
  105.3432   15.9621   22.3374 H   0  0  0  0  0  0
  106.7224   16.5118   24.3089 H   0  0  0  0  0  0
  106.2865   14.9516   25.0851 H   0  0  0  0  0  0
  108.0026   15.3515   22.6002 H   0  0  0  0  0  0
  108.5366   14.8310   24.2344 H   0  0  0  0  0  0
  106.1071   13.8852   21.3323 H   0  0  0  0  0  0
  106.0254   11.1624   22.6494 H   0  0  0  0  0  0
  105.4726   11.6491   21.0111 H   0  0  0  0  0  0
  108.0620   10.6819   21.3914 H   0  0  0  0  0  0
  107.7282   11.9808   20.1965 H   0  0  0  0  0  0
  109.0209   13.5183   21.5932 H   0  0  0  0  0  0
  110.2994   12.5719   23.4077 H   0  0  0  0  0  0
  106.6523   12.8860   25.1197 H   0  0  0  0  0  0
  108.3683   12.4033   24.8978 H   0  0  0  0  0  0
  107.0578   11.4337   24.1434 H   0  0  0  0  0  0
  1  2  2  0  0  0
  1 11  1  0  0  0
  1 21  1  0  0  0
  2  3  1  0  0  0
  2 22  1  0  0  0
  3  4  1  0  0  0
  3  5  2  0  0  0
  4 23  1  0  0  0
  5  6  1  0  0  0
  5 24  1  0  0  0
  6  7  1  0  0  0
  6 11  2  0  0  0
  7  8  1  0  0  0
  7 25  1  0  0  0
  7 26  1  0  0  0
  8  9  1  0  0  0
  8 27  1  0  0  0
  8 28  1  0  0  0
  9 10  1  0  0  0
  9 15  1  0  0  0
  9 29  1  0  0  0
 10 11  1  0  0  0
 10 12  1  0  0  0
 10 30  1  0  0  0
 12 13  1  0  0  0
 12 31  1  0  0  0
 12 32  1  0  0  0
 13 14  1  0  0  0
 13 33  1  0  0  0
 13 34  1  0  0  0
 14 15  1  0  0  0
 14 18  1  0  0  0
 14 20  1  0  0  0
 15 16  1  0  0  0
 15 35  1  0  0  0
 16 17  1  0  0  0
 16 36  1  0  0  0
 16 37  1  0  0  0
 17 18  1  0  0  0
 17 38  1  0  0  0
 17 39  1  0  0  0
 18 19  1  0  0  0
 18 40  1  0  0  0
 19 41  1  0  0  0
 20 42  1  0  0  0
 20 43  1  0  0  0
 20 44  1  0  0  0
M  END
> <s_m_source_file>
../1qku_ligand.sdf

> <i_m_source_file_index>
1

> <s_epik_input>
W2NIXTFbY0hdYyhbT0hdKVtjSF1jKFtDSDJdW0NIMl0yKWMxW0NAQEhdKFtDSDJdW0NIMl0zKVtDQEBIXTJbQ0BASF0oW0NAXTM0W0NIM10pW0NIMl1bQ0gyXVtDQEBIXTRbT0hd

> <s_epik_cmdline>
J2VwaWtfYXBwJywgJy1pbWFlJywgJ2xpZ2FuZF9wcm8ubWFlJywgJy1vbWFlJywgJ2xpZ2FuZF9wcmVwLm1hZScsICctbXMnLCAnMScsICctcGgnLCAnNycsICctcGh0JywgJzAuNScsICctbnQn

> <r_lp_tautomer_probability>
1

> <r_epik_Ionization_Penalty>
  0.0001

> <r_epik_Ionization_Penalty_Charging>
  0.0000

> <r_epik_Ionization_Penalty_Neutral>
  0.0001

> <r_epik_State_Penalty>
 -0.0000

> <r_epik_Charging_Adjusted_Penalty>
0

> <i_epik_Tot_Q>
0

> <i_epik_Tot_abs_Q>
0

$$$$
