1ql9_ligand
                    3D
 Schrodinger Suite 2020-3.
 62 66  0  0  1  0            999 V2000
   18.2230   50.5650   59.9120 N   0  3  0  0  0  0
   17.9420   51.0010   61.1640 C   0  0  0  0  0  0
   16.7870   50.5590   61.8240 C   0  0  0  0  0  0
   16.2510   49.2190   59.8740 C   0  0  0  0  0  0
   17.4170   49.6950   59.2640 C   0  0  0  0  0  0
   15.9280   49.6580   61.1670 C   0  0  0  0  0  0
   14.7500   49.1820   61.8130 N   0  0  0  0  0  0
   14.4290   49.5320   63.2230 C   0  0  0  0  0  0
   13.0270   50.2030   63.3210 C   0  0  0  0  0  0
   12.3770   49.1220   61.1300 C   0  0  0  0  0  0
   13.7350   48.3930   61.0840 C   0  0  0  0  0  0
   11.9290   49.3530   62.6090 C   0  0  0  0  0  0
   10.5660   50.0330   62.6130 C   0  0  0  0  0  0
   10.5770   51.2380   62.8600 O   0  0  0  0  0  0
    9.4420   49.4100   62.3370 N   0  0  0  0  0  0
    9.3660   47.9510   62.0360 C   0  0  0  0  0  0
    8.5640   47.7320   60.7300 C   0  0  0  0  0  0
    7.4540   49.9040   60.9880 C   0  0  0  0  0  0
    8.1660   50.1570   62.3430 C   0  0  0  0  0  0
    7.2720   48.4430   60.8410 N   0  0  0  0  0  0
    6.2200   48.0300   59.6480 S   0  0  0  0  0  0
    5.0680   48.9160   59.7320 O   0  0  0  0  0  0
    5.9520   46.6270   59.8260 O   0  0  0  0  0  0
    6.9580   48.2550   58.0380 C   0  0  0  0  0  0
    6.9530   49.5250   57.4270 C   0  0  0  0  0  0
    7.5660   47.1690   57.3800 C   0  0  0  0  0  0
    8.1500   47.3420   56.1160 C   0  0  0  0  0  0
    7.5350   49.7090   56.1580 C   0  0  0  0  0  0
    8.1350   48.6060   55.5000 C   0  0  0  0  0  0
    8.7140   48.7820   54.2470 C   0  0  0  0  0  0
    8.1040   51.1390   54.2760 C   0  0  0  0  0  0
    7.5190   50.9720   55.5360 C   0  0  0  0  0  0
    8.7040   50.0390   53.6350 C   0  0  0  0  0  0
    9.4500   50.2280   52.0690 Cl  0  0  0  0  0  0
   18.6171   51.6984   61.6600 H   0  0  0  0  0  0
   16.5575   50.9078   62.8309 H   0  0  0  0  0  0
   15.6020   48.5162   59.3514 H   0  0  0  0  0  0
   17.6770   49.3618   58.2593 H   0  0  0  0  0  0
   14.4287   48.6189   63.8365 H   0  0  0  0  0  0
   15.1848   50.2322   63.6082 H   0  0  0  0  0  0
   12.7468   50.3141   64.3789 H   0  0  0  0  0  0
   13.0606   51.1939   62.8446 H   0  0  0  0  0  0
   11.6252   48.5096   60.6106 H   0  0  0  0  0  0
   12.4751   50.0921   60.6208 H   0  0  0  0  0  0
   14.0479   48.2715   60.0365 H   0  0  0  0  0  0
   13.6333   47.4034   61.5534 H   0  0  0  0  0  0
   11.7964   48.4114   63.1621 H   0  0  0  0  0  0
   10.3823   47.5486   61.9130 H   0  0  0  0  0  0
    8.8637   47.4312   62.8652 H   0  0  0  0  0  0
    9.1359   48.1278   59.8778 H   0  0  0  0  0  0
    8.3867   46.6562   60.5846 H   0  0  0  0  0  0
    8.0675   50.2825   60.1571 H   0  0  0  0  0  0
    6.4718   50.3991   60.9738 H   0  0  0  0  0  0
    7.5377   49.8028   63.1735 H   0  0  0  0  0  0
    8.3701   51.2305   62.4696 H   0  0  0  0  0  0
    6.4954   50.3707   57.9403 H   0  0  0  0  0  0
    7.5831   46.1882   57.8552 H   0  0  0  0  0  0
    8.6158   46.4957   55.6110 H   0  0  0  0  0  0
    9.1776   47.9357   53.7401 H   0  0  0  0  0  0
    8.0951   52.1162   53.7932 H   0  0  0  0  0  0
    7.0508   51.8198   56.0361 H   0  0  0  0  0  0
   19.1276   50.9196   59.3962 H   0  0  0  0  0  0
  1  2  2  0  0  0
  1  5  1  0  0  0
  1 62  1  0  0  0
  2  3  1  0  0  0
  2 35  1  0  0  0
  3  6  2  0  0  0
  3 36  1  0  0  0
  4  6  1  0  0  0
  4  5  2  0  0  0
  4 37  1  0  0  0
  5 38  1  0  0  0
  6  7  1  0  0  0
  7  8  1  0  0  0
  7 11  1  0  0  0
  8  9  1  0  0  0
  8 39  1  0  0  0
  8 40  1  0  0  0
  9 12  1  0  0  0
  9 41  1  0  0  0
  9 42  1  0  0  0
 10 12  1  0  0  0
 10 11  1  0  0  0
 10 43  1  0  0  0
 10 44  1  0  0  0
 11 45  1  0  0  0
 11 46  1  0  0  0
 12 13  1  0  0  0
 12 47  1  0  0  0
 13 14  2  0  0  0
 13 15  1  0  0  0
 15 16  1  0  0  0
 15 19  1  0  0  0
 16 17  1  0  0  0
 16 48  1  0  0  0
 16 49  1  0  0  0
 17 20  1  0  0  0
 17 50  1  0  0  0
 17 51  1  0  0  0
 18 20  1  0  0  0
 18 19  1  0  0  0
 18 52  1  0  0  0
 18 53  1  0  0  0
 19 54  1  0  0  0
 19 55  1  0  0  0
 20 21  1  0  0  0
 21 22  2  0  0  0
 21 23  2  0  0  0
 21 24  1  0  0  0
 24 25  2  0  0  0
 24 26  1  0  0  0
 25 28  1  0  0  0
 25 56  1  0  0  0
 26 27  2  0  0  0
 26 57  1  0  0  0
 27 29  1  0  0  0
 27 58  1  0  0  0
 28 29  2  0  0  0
 28 32  1  0  0  0
 29 30  1  0  0  0
 30 33  2  0  0  0
 30 59  1  0  0  0
 31 33  1  0  0  0
 31 32  2  0  0  0
 31 60  1  0  0  0
 32 61  1  0  0  0
 33 34  1  0  0  0
M  CHG  1   1   1
M  END
> <s_m_source_file>
../1ql9_ligand.sdf

> <i_m_source_file_index>
1

> <s_epik_input>
W2NIXTFbY0hdbltjSF1bY0hdYzFOMltDSDJdW0NIMl1bQ0hdKFtDSDJdW0NIMl0yKUMoPU8pTjNbQ0gyXVtDSDJdTihbQ0gyXVtDSDJdMylTKD1PKSg9TyljKFtjSF00KVtjSF1bY0hdYyhjNDUpW2NIXWMoQ2wpW2NIXVtjSF01

> <s_epik_cmdline>
J2VwaWtfYXBwJywgJy1pbWFlJywgJ2xpZ2FuZF9wcm8ubWFlJywgJy1vbWFlJywgJ2xpZ2FuZF9wcmVwLm1hZScsICctbXMnLCAnMScsICctcGgnLCAnNycsICctcGh0JywgJzAuNScsICctbnQn

> <r_lp_tautomer_probability>
1

> <r_epik_Ionization_Penalty>
  0.0017

> <r_epik_Ionization_Penalty_Charging>
  0.0017

> <r_epik_Ionization_Penalty_Neutral>
  0.0000

> <r_epik_State_Penalty>
 -0.0000

> <r_epik_Charging_Adjusted_Penalty>
0.00170775028299182

> <i_epik_Tot_Q>
1

> <i_epik_Tot_abs_Q>
1

$$$$
