1qng_ligand
                    3D
 Schrodinger Suite 2020-3.
200199  0  0  1  0            999 V2000
   15.0980   50.7550  -20.1450 N   0  3  1  0  0  0
   13.8800   51.5940  -20.5240 C   0  0  0  0  0  0
   15.1420   49.9340  -18.9170 C   0  0  2  0  0  0
   14.2500   48.6950  -18.9770 C   0  0  0  0  0  0
   13.5230   48.4170  -19.9630 O   0  0  0  0  0  0
   14.8370   50.7740  -17.5900 C   0  0  2  0  0  0
   13.4430   51.1250  -17.5760 O   0  0  0  0  0  0
   15.6950   52.0890  -17.4020 C   0  0  2  0  0  0
   17.2280   51.8420  -17.5030 C   0  0  0  0  0  0
   15.4230   52.8880  -16.1120 C   0  0  0  0  0  0
   15.7170   52.1660  -14.7840 C   0  0  0  0  0  0
   14.6620   51.8310  -13.8890 C   0  0  0  0  0  0
   14.9500   51.1150  -12.5740 C   0  0  0  0  0  0
   14.3590   47.8660  -17.9230 N   0  0  0  0  0  0
   13.6250   46.6160  -17.8250 C   0  0  2  0  0  0
   12.6040   46.6810  -16.6830 C   0  0  0  0  0  0
   12.9260   46.2640  -15.5570 O   0  0  0  0  0  0
   14.6520   45.4850  -17.6340 C   0  0  0  0  0  0
   15.7160   45.3510  -18.7460 C   0  0  0  0  0  0
   11.3580   47.1910  -16.8390 N   0  0  0  0  0  0
   10.4220   47.2060  -15.6890 C   0  0  0  0  0  0
    9.9230   48.6090  -15.3310 C   0  0  0  0  0  0
    8.7050   48.8090  -15.4680 O   0  0  0  0  0  0
   10.7190   47.6020  -18.1460 C   0  0  0  0  0  0
   10.7480   49.5990  -14.8890 N   0  0  0  0  0  0
   12.1990   49.3770  -14.5600 C   0  0  0  0  0  0
   10.1950   50.9480  -14.7300 C   0  0  1  0  0  0
   10.5560   51.3240  -13.2880 C   0  0  0  0  0  0
   10.0850   52.6830  -12.7810 C   0  0  0  0  0  0
    8.6820   52.9630  -13.3040 C   0  0  0  0  0  0
   10.0970   52.6810  -11.2640 C   0  0  0  0  0  0
   10.7450   51.9230  -15.7650 C   0  0  0  0  0  0
   11.7030   52.6530  -15.5180 O   0  0  0  0  0  0
   10.1220   51.9110  -16.9340 N   0  0  0  0  0  0
   10.5200   52.7760  -18.0310 C   0  0  2  0  0  0
   10.1530   54.2200  -17.7030 C   0  0  0  0  0  0
    8.9920   54.5200  -17.4450 O   0  0  0  0  0  0
    9.8030   52.3660  -19.3410 C   0  0  0  0  0  0
   10.3510   53.1670  -20.5130 C   0  0  0  0  0  0
    9.9710   50.8780  -19.5840 C   0  0  0  0  0  0
   11.1430   55.1320  -17.6890 N   0  0  0  0  0  0
   12.5600   54.9270  -18.1660 C   0  0  0  0  0  0
   10.6400   56.4730  -17.3640 C   0  0  1  0  0  0
   11.5460   56.9450  -16.2230 C   0  0  0  0  0  0
   11.3710   56.1950  -14.8960 C   0  0  0  0  0  0
   12.3190   56.7730  -13.8510 C   0  0  0  0  0  0
    9.9290   56.3000  -14.4030 C   0  0  0  0  0  0
   10.6300   57.4270  -18.5560 C   0  0  0  0  0  0
   10.7860   57.0080  -19.6990 O   0  0  0  0  0  0
   10.4280   58.7110  -18.2840 N   0  0  0  0  0  0
   10.3810   59.7150  -19.3440 C   0  0  2  0  0  0
   11.7430   59.8810  -20.0180 C   0  0  0  0  0  0
   12.7810   59.5870  -19.4250 O   0  0  0  0  0  0
    9.9050   61.0500  -18.7790 C   0  0  0  0  0  0
   11.7390   60.3580  -21.2660 N   0  0  0  0  0  0
   13.0010   60.6830  -21.9100 C   0  0  2  0  0  0
   12.8560   61.9600  -22.7240 C   0  0  0  0  0  0
   13.4360   59.5400  -22.8150 C   0  0  0  0  0  0
   12.5720   58.8810  -23.3960 O   0  0  0  0  0  0
   14.7660   59.2340  -22.9800 N   0  0  0  0  0  0
   15.8780   59.8110  -22.1360 C   0  0  0  0  0  0
   15.0650   58.1070  -23.8780 C   0  0  1  0  0  0
   15.7940   58.7590  -25.0590 C   0  0  0  0  0  0
   15.0430   59.7580  -25.9420 C   0  0  0  0  0  0
   16.0060   60.3570  -26.9580 C   0  0  0  0  0  0
   13.8850   59.0740  -26.6610 C   0  0  0  0  0  0
   15.9250   57.0390  -23.1940 C   0  0  0  0  0  0
   17.1340   56.9840  -23.4070 O   0  0  0  0  0  0
   15.3140   56.1770  -22.3600 N   0  0  0  0  0  0
   13.8280   56.1490  -22.0610 C   0  0  0  0  0  0
   16.2140   55.1930  -21.7480 C   0  0  1  0  0  0
   16.0040   55.3790  -20.2420 C   0  0  0  0  0  0
   16.3160   56.7510  -19.6350 C   0  0  0  0  0  0
   16.1000   56.6840  -18.1220 C   0  0  0  0  0  0
   17.7470   57.1730  -19.9480 C   0  0  0  0  0  0
   15.8980   53.7760  -22.2060 C   0  0  0  0  0  0
   14.8740   53.5480  -22.8550 O   0  0  0  0  0  0
   16.7780   52.7950  -21.8640 C   0  0  3  0  0  0
   18.1030   53.0450  -21.1830 C   0  0  0  0  0  0
   16.3510   51.4380  -22.2270 C   0  0  0  0  0  0
   17.2920   50.7600  -23.3060 C   0  0  0  0  0  0
   16.6110   49.4580  -23.7430 C   0  0  0  0  0  0
   17.4310   51.5660  -24.6010 C   0  0  0  0  0  0
   16.2490   50.6280  -20.9030 O   0  0  0  0  0  0
   17.2160   49.9020  -20.5610 O   0  0  0  0  0  0
   15.2739   51.5885  -20.8409 H   0  0  0  0  0  0
   13.1165   51.5085  -19.7367 H   0  0  0  0  0  0
   13.4667   51.2309  -21.4766 H   0  0  0  0  0  0
   14.1793   52.6470  -20.6318 H   0  0  0  0  0  0
   16.1830   49.5800  -18.9497 H   0  0  0  0  0  0
   15.0166   50.1317  -16.7152 H   0  0  0  0  0  0
   12.6778   50.3435  -17.6934 H   0  0  0  0  0  0
   15.3596   52.7241  -18.2352 H   0  0  0  0  0  0
   17.4481   51.2721  -18.4178 H   0  0  0  0  0  0
   17.5661   51.2716  -16.6253 H   0  0  0  0  0  0
   17.7535   52.8077  -17.5373 H   0  0  0  0  0  0
   16.0441   53.7959  -16.1052 H   0  0  0  0  0  0
   14.3606   53.1703  -16.0726 H   0  0  0  0  0  0
   16.7560   51.9091  -14.5302 H   0  0  0  0  0  0
   13.6231   52.0887  -14.1424 H   0  0  0  0  0  0
   14.0069   50.9494  -12.0325 H   0  0  0  0  0  0
   15.6220   51.7325  -11.9598 H   0  0  0  0  0  0
   15.4289   50.1466  -12.7810 H   0  0  0  0  0  0
   15.0391   48.1694  -17.1134 H   0  0  0  0  0  0
   13.0642   46.4766  -18.7610 H   0  0  0  0  0  0
   15.2046   45.6460  -16.6966 H   0  0  0  0  0  0
   14.1289   44.5183  -17.5899 H   0  0  0  0  0  0
   16.3924   44.5169  -18.5077 H   0  0  0  0  0  0
   16.2944   46.2841  -18.8144 H   0  0  0  0  0  0
   15.2187   45.1565  -19.7077 H   0  0  0  0  0  0
    9.5407   46.5918  -15.9256 H   0  0  0  0  0  0
   10.9259   46.7974  -14.8007 H   0  0  0  0  0  0
   11.4705   47.5668  -18.9485 H   0  0  0  0  0  0
   10.3261   48.6255  -18.0561 H   0  0  0  0  0  0
    9.8955   46.9127  -18.3842 H   0  0  0  0  0  0
   12.4562   48.3211  -14.7303 H   0  0  0  0  0  0
   12.3791   49.6328  -13.5054 H   0  0  0  0  0  0
   12.8226   50.0148  -15.2037 H   0  0  0  0  0  0
    9.1105   50.9465  -14.9137 H   0  0  0  0  0  0
   10.1209   50.5869  -12.5970 H   0  0  0  0  0  0
   11.6501   51.3322  -13.1741 H   0  0  0  0  0  0
   10.7593   53.4754  -13.1380 H   0  0  0  0  0  0
    8.6934   52.9604  -14.4039 H   0  0  0  0  0  0
    8.3456   53.9461  -12.9431 H   0  0  0  0  0  0
    7.9939   52.1846  -12.9426 H   0  0  0  0  0  0
   11.1169   52.4775  -10.9057 H   0  0  0  0  0  0
    9.4155   51.9013  -10.8930 H   0  0  0  0  0  0
    9.7673   53.6628  -10.8934 H   0  0  0  0  0  0
    9.2781   51.2167  -17.0594 H   0  0  0  0  0  0
   11.6097   52.6517  -18.1156 H   0  0  0  0  0  0
    8.7258   52.5742  -19.2621 H   0  0  0  0  0  0
   10.2193   54.2413  -20.3164 H   0  0  0  0  0  0
    9.8087   52.8929  -21.4299 H   0  0  0  0  0  0
   11.4211   52.9459  -20.6398 H   0  0  0  0  0  0
    9.5691   50.3187  -18.7263 H   0  0  0  0  0  0
   11.0390   50.6447  -19.7059 H   0  0  0  0  0  0
    9.4267   50.5917  -20.4960 H   0  0  0  0  0  0
   12.7329   53.8568  -18.3525 H   0  0  0  0  0  0
   13.2610   55.2831  -17.3967 H   0  0  0  0  0  0
   12.7189   55.4917  -19.0965 H   0  0  0  0  0  0
    9.5795   56.4086  -17.0790 H   0  0  0  0  0  0
   12.5991   56.8211  -16.5158 H   0  0  0  0  0  0
   11.3466   58.0059  -16.0114 H   0  0  0  0  0  0
   11.6076   55.1322  -15.0525 H   0  0  0  0  0  0
   13.3550   56.6942  -14.2123 H   0  0  0  0  0  0
   12.2148   56.2114  -12.9109 H   0  0  0  0  0  0
   12.0711   57.8303  -13.6760 H   0  0  0  0  0  0
    9.2509   55.8815  -15.1613 H   0  0  0  0  0  0
    9.6771   57.3565  -14.2289 H   0  0  0  0  0  0
    9.8207   55.7376  -13.4638 H   0  0  0  0  0  0
   10.2946   59.0125  -17.2346 H   0  0  0  0  0  0
    9.6592   59.3305  -20.0797 H   0  0  0  0  0  0
    8.9251   60.9159  -18.2976 H   0  0  0  0  0  0
    9.8156   61.7824  -19.5948 H   0  0  0  0  0  0
   10.6312   61.4141  -18.0373 H   0  0  0  0  0  0
   10.7920   60.5054  -21.8059 H   0  0  0  0  0  0
   13.7324   60.8267  -21.1011 H   0  0  0  0  0  0
   12.5415   62.7818  -22.0639 H   0  0  0  0  0  0
   12.1002   61.8105  -23.5091 H   0  0  0  0  0  0
   13.8215   62.2110  -23.1875 H   0  0  0  0  0  0
   15.4850   60.6395  -21.5284 H   0  0  0  0  0  0
   16.6793   60.1843  -22.7907 H   0  0  0  0  0  0
   16.2794   59.0293  -21.4743 H   0  0  0  0  0  0
   14.1355   57.5947  -24.1669 H   0  0  0  0  0  0
   16.6631   59.3219  -24.6878 H   0  0  0  0  0  0
   16.1331   57.9789  -25.7565 H   0  0  0  0  0  0
   14.6316   60.5601  -25.3116 H   0  0  0  0  0  0
   16.8371   60.8477  -26.4304 H   0  0  0  0  0  0
   15.4749   61.0973  -27.5744 H   0  0  0  0  0  0
   16.4016   59.5587  -27.6032 H   0  0  0  0  0  0
   13.1953   58.6447  -25.9194 H   0  0  0  0  0  0
   14.2756   58.2727  -27.3055 H   0  0  0  0  0  0
   13.3489   59.8113  -27.2767 H   0  0  0  0  0  0
   13.3281   56.9602  -22.6106 H   0  0  0  0  0  0
   13.6687   56.2852  -20.9812 H   0  0  0  0  0  0
   13.4091   55.1813  -22.3743 H   0  0  0  0  0  0
   17.2518   55.3728  -22.0653 H   0  0  0  0  0  0
   14.9494   55.1900  -19.9928 H   0  0  0  0  0  0
   16.6430   54.6720  -19.6926 H   0  0  0  0  0  0
   15.6465   57.5050  -20.0746 H   0  0  0  0  0  0
   15.0642   56.3786  -17.9127 H   0  0  0  0  0  0
   16.2866   57.6742  -17.6808 H   0  0  0  0  0  0
   16.7939   55.9510  -17.6847 H   0  0  0  0  0  0
   17.8863   57.2165  -21.0383 H   0  0  0  0  0  0
   18.4473   56.4419  -19.5177 H   0  0  0  0  0  0
   17.9400   58.1651  -19.5138 H   0  0  0  0  0  0
   17.2648   52.8894  -22.8459 H   0  0  0  0  0  0
   18.2245   54.1232  -21.0019 H   0  0  0  0  0  0
   18.9196   52.6871  -21.8272 H   0  0  0  0  0  0
   18.1297   52.5068  -20.2240 H   0  0  0  0  0  0
   16.3567   50.7999  -21.3310 H   0  0  0  0  0  0
   15.3344   51.4732  -22.6457 H   0  0  0  0  0  0
   18.2924   50.6372  -22.8655 H   0  0  0  0  0  0
   16.4681   48.8073  -22.8677 H   0  0  0  0  0  0
   17.2426   48.9442  -24.4826 H   0  0  0  0  0  0
   15.6337   49.6883  -24.1922 H   0  0  0  0  0  0
   17.9157   52.5291  -24.3832 H   0  0  0  0  0  0
   16.4341   51.7459  -25.0297 H   0  0  0  0  0  0
   18.0430   51.0018  -25.3201 H   0  0  0  0  0  0
   18.1082   49.8368  -21.2011 H   0  0  0  0  0  0
  1  2  1  0  0  0
  1  3  1  0  0  0
  1 84  1  0  0  0
  1 86  1  0  0  0
  2 87  1  0  0  0
  2 88  1  0  0  0
  2 89  1  0  0  0
  3  4  1  0  0  0
  3  6  1  0  0  0
  3 90  1  0  0  0
  4  5  2  0  0  0
  4 14  1  0  0  0
  6  7  1  0  0  0
  6  8  1  0  0  0
  6 91  1  0  0  0
  7 92  1  0  0  0
  8  9  1  0  0  0
  8 10  1  0  0  0
  8 93  1  0  0  0
  9 94  1  0  0  0
  9 95  1  0  0  0
  9 96  1  0  0  0
 10 11  1  0  0  0
 10 97  1  0  0  0
 10 98  1  0  0  0
 11 12  2  0  0  0
 11 99  1  0  0  0
 12 13  1  0  0  0
 12100  1  0  0  0
 13101  1  0  0  0
 13102  1  0  0  0
 13103  1  0  0  0
 14 15  1  0  0  0
 14104  1  0  0  0
 15 16  1  0  0  0
 15 18  1  0  0  0
 15105  1  0  0  0
 16 17  2  0  0  0
 16 20  1  0  0  0
 18 19  1  0  0  0
 18106  1  0  0  0
 18107  1  0  0  0
 19108  1  0  0  0
 19109  1  0  0  0
 19110  1  0  0  0
 20 21  1  0  0  0
 20 24  1  0  0  0
 21 22  1  0  0  0
 21111  1  0  0  0
 21112  1  0  0  0
 22 23  2  0  0  0
 22 25  1  0  0  0
 24113  1  0  0  0
 24114  1  0  0  0
 24115  1  0  0  0
 25 26  1  0  0  0
 25 27  1  0  0  0
 26116  1  0  0  0
 26117  1  0  0  0
 26118  1  0  0  0
 27 28  1  0  0  0
 27 32  1  0  0  0
 27119  1  0  0  0
 28 29  1  0  0  0
 28120  1  0  0  0
 28121  1  0  0  0
 29 30  1  0  0  0
 29 31  1  0  0  0
 29122  1  0  0  0
 30123  1  0  0  0
 30124  1  0  0  0
 30125  1  0  0  0
 31126  1  0  0  0
 31127  1  0  0  0
 31128  1  0  0  0
 32 33  2  0  0  0
 32 34  1  0  0  0
 34 35  1  0  0  0
 34129  1  0  0  0
 35 36  1  0  0  0
 35 38  1  0  0  0
 35130  1  0  0  0
 36 37  2  0  0  0
 36 41  1  0  0  0
 38 39  1  0  0  0
 38 40  1  0  0  0
 38131  1  0  0  0
 39132  1  0  0  0
 39133  1  0  0  0
 39134  1  0  0  0
 40135  1  0  0  0
 40136  1  0  0  0
 40137  1  0  0  0
 41 42  1  0  0  0
 41 43  1  0  0  0
 42138  1  0  0  0
 42139  1  0  0  0
 42140  1  0  0  0
 43 44  1  0  0  0
 43 48  1  0  0  0
 43141  1  0  0  0
 44 45  1  0  0  0
 44142  1  0  0  0
 44143  1  0  0  0
 45 46  1  0  0  0
 45 47  1  0  0  0
 45144  1  0  0  0
 46145  1  0  0  0
 46146  1  0  0  0
 46147  1  0  0  0
 47148  1  0  0  0
 47149  1  0  0  0
 47150  1  0  0  0
 48 49  2  0  0  0
 48 50  1  0  0  0
 50 51  1  0  0  0
 50151  1  0  0  0
 51 52  1  0  0  0
 51 54  1  0  0  0
 51152  1  0  0  0
 52 53  2  0  0  0
 52 55  1  0  0  0
 54153  1  0  0  0
 54154  1  0  0  0
 54155  1  0  0  0
 55 56  1  0  0  0
 55156  1  0  0  0
 56 57  1  0  0  0
 56 58  1  0  0  0
 56157  1  0  0  0
 57158  1  0  0  0
 57159  1  0  0  0
 57160  1  0  0  0
 58 59  2  0  0  0
 58 60  1  0  0  0
 60 61  1  0  0  0
 60 62  1  0  0  0
 61161  1  0  0  0
 61162  1  0  0  0
 61163  1  0  0  0
 62 63  1  0  0  0
 62 67  1  0  0  0
 62164  1  0  0  0
 63 64  1  0  0  0
 63165  1  0  0  0
 63166  1  0  0  0
 64 65  1  0  0  0
 64 66  1  0  0  0
 64167  1  0  0  0
 65168  1  0  0  0
 65169  1  0  0  0
 65170  1  0  0  0
 66171  1  0  0  0
 66172  1  0  0  0
 66173  1  0  0  0
 67 68  2  0  0  0
 67 69  1  0  0  0
 69 70  1  0  0  0
 69 71  1  0  0  0
 70174  1  0  0  0
 70175  1  0  0  0
 70176  1  0  0  0
 71 72  1  0  0  0
 71 76  1  0  0  0
 71177  1  0  0  0
 72 73  1  0  0  0
 72178  1  0  0  0
 72179  1  0  0  0
 73 74  1  0  0  0
 73 75  1  0  0  0
 73180  1  0  0  0
 74181  1  0  0  0
 74182  1  0  0  0
 74183  1  0  0  0
 75184  1  0  0  0
 75185  1  0  0  0
 75186  1  0  0  0
 76 77  2  0  0  0
 76 78  1  0  0  0
 78 79  1  0  0  0
 78 80  1  0  0  0
 78187  1  0  0  0
 79188  1  0  0  0
 79189  1  0  0  0
 79190  1  0  0  0
 80 81  1  0  0  0
 80191  1  0  0  0
 80192  1  0  0  0
 81 82  1  0  0  0
 81 83  1  0  0  0
 81193  1  0  0  0
 82194  1  0  0  0
 82195  1  0  0  0
 82196  1  0  0  0
 83197  1  0  0  0
 83198  1  0  0  0
 83199  1  0  0  0
 84 85  1  0  0  0
 85200  1  0  0  0
M  CHG  1   1   1
M  END
> <s_m_source_file>
../1qng_ligand.sdf

> <i_m_source_file_index>
1

> <s_epik_input>
W0NIM11cW0NIXT1bQ0hdXFtDSDJdW0NAQEhdKFtDSDNdKVtDQEBIXShbT0hdKVtDQEhdKFtOSCtdKFtDSDNdKU9bT0hdKUMoPU8pW05IXVtDQEBIXShbQ0gyXVtDSDNdKUMoPU8pTihbQ0gzXSlbQ0gyXUMoPU8pTihbQ0gzXSlbQ0BASF0oW0NIMl1bQ0hdKFtDSDNdKVtDSDNdKUMoPU8pW05IXVtDQEBIXShbQ0hdKFtDSDNdKVtDSDNdKUMoPU8pTihbQ0gzXSlbQ0BASF0oW0NIMl1bQ0hdKFtDSDNdKVtDSDNdKUMoPU8pW05IXVtDQEBIXShbQ0gzXSlDKD1PKVtOSF1bQ0BIXShbQ0gzXSlDKD1PKU4oW0NIM10pW0NAQEhdKFtDSDJdW0NIXShbQ0gzXSlbQ0gzXSlDKD1PKU4oW0NIM10pW0NAQEhdKFtDSDJdW0NIXShbQ0gzXSlbQ0gzXSlDKD1PKVtDSF0oW0NIM10pW0NIMl1bQ0hdKFtDSDNdKVtDSDNd

> <s_epik_cmdline>
J2VwaWtfYXBwJywgJy1pbWFlJywgJ2xpZ2FuZF9wcm8ubWFlJywgJy1vbWFlJywgJ2xpZ2FuZF9wcmVwLm1hZScsICctbXMnLCAnMScsICctcGgnLCAnNycsICctcGh0JywgJzAuNScsICctbnQn

> <s_epik_pKa_notes>
Molecule size exceeds maximum supported for generating protonation states

> <s_epik_Chemistry_Notes>
This compound has a N-S or N-O group and may undergo hydrolysis at high or low pH.

$$$$
