1qnh_ligand
                    3D
 Schrodinger Suite 2020-3.
198197  0  0  1  0            999 V2000
   29.0820   46.1100   15.9140 N   0  3  1  0  0  0
   30.0170   45.8480   17.0780 C   0  0  0  0  0  0
   28.8970   45.1540   14.8020 C   0  0  2  0  0  0
   28.1230   43.8970   15.1810 C   0  0  0  0  0  0
   27.6910   43.6700   16.3370 O   0  0  0  0  0  0
   30.2830   44.7780   14.0890 C   0  0  2  0  0  0
   31.0850   43.9260   14.9550 O   0  0  0  0  0  0
   31.1580   46.0150   13.6450 C   0  0  2  0  0  0
   30.3730   46.9910   12.7180 C   0  0  0  0  0  0
   32.5060   45.6980   12.9540 C   0  0  0  0  0  0
   32.4260   44.9450   11.6080 C   0  0  0  0  0  0
   33.1490   43.7330   11.4200 C   0  0  0  0  0  0
   33.0620   42.9850   10.0960 C   0  0  0  0  0  0
   27.8740   43.0680   14.1550 N   0  0  0  0  0  0
   27.1010   41.8380   14.3030 C   0  0  2  0  0  0
   27.9670   40.6120   13.9840 C   0  0  0  0  0  0
   27.9710   40.1600   12.8270 O   0  0  0  0  0  0
   25.8630   41.9610   13.3830 C   0  0  0  0  0  0
   24.9340   43.1760   13.6470 C   0  0  0  0  0  0
   28.7460   40.0070   14.9160 N   0  0  0  0  0  0
   29.5650   38.8200   14.5510 C   0  0  0  0  0  0
   31.0650   39.0430   14.7890 C   0  0  0  0  0  0
   31.5970   38.3070   15.6320 O   0  0  0  0  0  0
   28.9000   40.4280   16.3640 C   0  0  0  0  0  0
   31.7970   40.0030   14.1370 N   0  0  0  0  0  0
   31.2540   40.8450   13.0080 C   0  0  0  0  0  0
   33.1790   40.2370   14.5810 C   0  0  1  0  0  0
   34.0110   40.1890   13.2860 C   0  0  0  0  0  0
   33.9800   38.8780   12.4910 C   0  0  0  0  0  0
   34.8710   39.0080   11.2520 C   0  0  0  0  0  0
   34.4440   37.7110   13.3470 C   0  0  0  0  0  0
   33.2910   41.5780   15.2990 C   0  0  0  0  0  0
   33.4660   42.6190   14.6710 O   0  0  0  0  0  0
   33.1700   41.5400   16.6200 N   0  0  0  0  0  0
   33.2610   42.7420   17.4420 C   0  0  2  0  0  0
   34.6920   43.2800   17.4190 C   0  0  0  0  0  0
   35.6180   42.5980   17.8570 O   0  0  0  0  0  0
   32.8670   42.4450   18.9100 C   0  0  0  0  0  0
   33.0460   43.6910   19.7610 C   0  0  0  0  0  0
   31.4220   41.9640   18.9710 C   0  0  0  0  0  0
   34.8920   44.5130   16.9120 N   0  0  0  0  0  0
   33.7970   45.5360   16.7240 C   0  0  0  0  0  0
   36.3020   44.9300   16.9370 C   0  0  1  0  0  0
   36.5220   45.5790   15.5690 C   0  0  0  0  0  0
   36.2110   44.7220   14.3390 C   0  0  0  0  0  0
   36.5760   45.4940   13.0800 C   0  0  0  0  0  0
   36.9860   43.4180   14.3890 C   0  0  0  0  0  0
   36.6560   45.8710   18.0880 C   0  0  0  0  0  0
   35.8830   46.0370   19.0350 O   0  0  0  0  0  0
   37.8310   46.4850   17.9950 N   0  0  0  0  0  0
   38.3140   47.3930   19.0290 C   0  0  2  0  0  0
   37.6480   48.7630   18.9750 C   0  0  0  0  0  0
   37.1250   49.1740   17.9400 O   0  0  0  0  0  0
   39.8330   47.5470   18.9200 C   0  0  0  0  0  0
   37.6770   49.4730   20.1100 N   0  0  0  0  0  0
   37.2070   50.8510   20.1270 C   0  0  2  0  0  0
   37.9660   51.6450   21.1930 C   0  0  0  0  0  0
   35.7140   50.8760   20.4150 C   0  0  0  0  0  0
   35.2600   50.0710   21.2340 O   0  0  0  0  0  0
   34.8830   51.7730   19.7770 N   0  0  0  0  0  0
   35.2910   52.6030   18.5830 C   0  0  0  0  0  0
   33.4530   51.6930   20.1190 C   0  0  1  0  0  0
   33.1440   53.0560   20.7490 C   0  0  0  0  0  0
   33.7230   53.3580   22.1320 C   0  0  0  0  0  0
   33.3440   54.7740   22.5360 C   0  0  0  0  0  0
   33.1940   52.3650   23.1520 C   0  0  0  0  0  0
   32.5990   51.4290   18.8760 C   0  0  0  0  0  0
   32.0340   52.3540   18.2960 O   0  0  0  0  0  0
   32.4890   50.1560   18.4540 N   0  0  0  0  0  0
   33.1290   48.9560   19.1250 C   0  0  0  0  0  0
   31.6600   49.9830   17.2550 C   0  0  1  0  0  0
   32.5830   49.2490   16.2670 C   0  0  0  0  0  0
   33.8090   49.9850   15.7370 C   0  0  0  0  0  0
   34.5070   49.0980   14.7150 C   0  0  0  0  0  0
   33.4130   51.3170   15.1040 C   0  0  0  0  0  0
   30.4000   49.1660   17.5660 C   0  0  0  0  0  0
   30.2620   48.6520   18.6780 O   0  0  0  0  0  0
   29.4560   49.0710   16.6270 C   0  0  0  0  0  0
   29.5120   49.7530   15.4500 C   0  0  0  0  0  0
   28.3080   48.2230   16.9390 C   0  0  0  0  0  0
   26.9850   49.0230   16.9900 C   0  0  0  0  0  0
   25.8380   48.1070   17.3940 C   0  0  0  0  0  0
   27.1130   50.1780   17.9610 C   0  0  0  0  0  0
   28.2650   47.2030   15.8070 O   0  0  0  0  0  0
   27.5020   47.3760   14.8550 O   0  0  0  0  0  0
   29.5665   47.0139   16.3117 H   0  0  0  0  0  0
   30.5547   44.9031   16.9108 H   0  0  0  0  0  0
   29.4339   45.7785   18.0082 H   0  0  0  0  0  0
   30.7408   46.6723   17.1596 H   0  0  0  0  0  0
   28.2244   45.7254   14.1454 H   0  0  0  0  0  0
   30.0539   44.1789   13.1954 H   0  0  0  0  0  0
   30.6531   43.0048   15.3732 H   0  0  0  0  0  0
   31.4131   46.4876   14.6050 H   0  0  0  0  0  0
   29.4061   47.2381   13.1806 H   0  0  0  0  0  0
   30.2012   46.5120   11.7428 H   0  0  0  0  0  0
   30.9576   47.9119   12.5762 H   0  0  0  0  0  0
   33.0398   46.6365   12.7436 H   0  0  0  0  0  0
   33.1184   45.0684   13.6162 H   0  0  0  0  0  0
   31.8074   45.3485   10.7928 H   0  0  0  0  0  0
   33.7735   43.3334   12.2326 H   0  0  0  0  0  0
   33.6853   42.0799   10.1446 H   0  0  0  0  0  0
   33.4209   43.6343    9.2838 H   0  0  0  0  0  0
   32.0170   42.7006    9.9035 H   0  0  0  0  0  0
   28.2794   43.3479   13.1715 H   0  0  0  0  0  0
   26.7967   41.7416   15.3557 H   0  0  0  0  0  0
   26.1910   42.0504   12.3369 H   0  0  0  0  0  0
   25.2329   41.0662   13.4945 H   0  0  0  0  0  0
   24.0947   43.1570   12.9363 H   0  0  0  0  0  0
   25.5035   44.1081   13.5171 H   0  0  0  0  0  0
   24.5454   43.1239   14.6748 H   0  0  0  0  0  0
   29.2511   37.9575   15.1573 H   0  0  0  0  0  0
   29.4225   38.5900   13.4848 H   0  0  0  0  0  0
   28.2682   41.3070   16.5594 H   0  0  0  0  0  0
   29.9520   40.6811   16.5624 H   0  0  0  0  0  0
   28.5915   39.6014   17.0209 H   0  0  0  0  0  0
   30.2157   40.5495   12.7968 H   0  0  0  0  0  0
   31.8688   40.6928   12.1086 H   0  0  0  0  0  0
   31.2818   41.9063   13.2959 H   0  0  0  0  0  0
   33.4929   39.4780   15.3127 H   0  0  0  0  0  0
   33.6552   40.9653   12.5926 H   0  0  0  0  0  0
   35.0701   40.3672   13.5238 H   0  0  0  0  0  0
   32.9440   38.6732   12.1831 H   0  0  0  0  0  0
   34.5268   39.8548   10.6401 H   0  0  0  0  0  0
   34.8148   38.0818   10.6612 H   0  0  0  0  0  0
   35.9113   39.1807   11.5650 H   0  0  0  0  0  0
   33.7979   37.6267   14.2333 H   0  0  0  0  0  0
   35.4832   37.8803   13.6655 H   0  0  0  0  0  0
   34.3867   36.7814   12.7617 H   0  0  0  0  0  0
   32.9959   40.5622   17.0929 H   0  0  0  0  0  0
   32.5605   43.4536   16.9807 H   0  0  0  0  0  0
   33.5141   41.6569   19.3226 H   0  0  0  0  0  0
   34.0926   44.0250   19.7064 H   0  0  0  0  0  0
   32.7882   43.4618   20.8055 H   0  0  0  0  0  0
   32.3867   44.4882   19.3871 H   0  0  0  0  0  0
   31.3091   41.0626   18.3507 H   0  0  0  0  0  0
   30.7563   42.7543   18.5940 H   0  0  0  0  0  0
   31.1578   41.7279   20.0124 H   0  0  0  0  0  0
   32.8191   45.0323   16.7335 H   0  0  0  0  0  0
   33.9359   46.0490   15.7609 H   0  0  0  0  0  0
   33.8385   46.2717   17.5407 H   0  0  0  0  0  0
   36.9316   44.0466   17.1193 H   0  0  0  0  0  0
   35.8837   46.4703   15.4791 H   0  0  0  0  0  0
   37.5774   45.8721   15.4677 H   0  0  0  0  0  0
   35.1377   44.4816   14.3235 H   0  0  0  0  0  0
   36.0105   46.4371   13.0513 H   0  0  0  0  0  0
   36.3274   44.8903   12.1947 H   0  0  0  0  0  0
   37.6540   45.7128   13.0837 H   0  0  0  0  0  0
   36.7166   42.8661   15.3016 H   0  0  0  0  0  0
   38.0648   43.6327   14.3953 H   0  0  0  0  0  0
   36.7382   42.8101   13.5063 H   0  0  0  0  0  0
   38.4450   46.2904   17.1033 H   0  0  0  0  0  0
   38.0225   46.9077   19.9721 H   0  0  0  0  0  0
   40.3059   46.5546   18.9597 H   0  0  0  0  0  0
   40.2000   48.1618   19.7550 H   0  0  0  0  0  0
   40.0846   48.0352   17.9669 H   0  0  0  0  0  0
   38.0582   49.0105   21.0324 H   0  0  0  0  0  0
   37.4041   51.2684   19.1286 H   0  0  0  0  0  0
   39.0433   51.6184   20.9723 H   0  0  0  0  0  0
   37.7832   51.1991   22.1818 H   0  0  0  0  0  0
   37.6170   52.6882   21.1910 H   0  0  0  0  0  0
   36.3836   52.5602   18.4628 H   0  0  0  0  0  0
   34.9798   53.6466   18.7383 H   0  0  0  0  0  0
   34.8068   52.2067   17.6783 H   0  0  0  0  0  0
   33.2624   50.8512   20.8009 H   0  0  0  0  0  0
   33.5277   53.8559   20.0987 H   0  0  0  0  0  0
   32.0559   53.1681   20.8651 H   0  0  0  0  0  0
   34.8190   53.2688   22.1018 H   0  0  0  0  0  0
   33.7319   55.4841   21.7908 H   0  0  0  0  0  0
   33.7773   55.0027   23.5208 H   0  0  0  0  0  0
   32.2486   54.8595   22.5886 H   0  0  0  0  0  0
   33.4738   51.3450   22.8499 H   0  0  0  0  0  0
   32.0982   52.4438   23.2063 H   0  0  0  0  0  0
   33.6269   52.5870   24.1386 H   0  0  0  0  0  0
   33.7059   49.2897   20.0001 H   0  0  0  0  0  0
   33.8002   48.4528   18.4135 H   0  0  0  0  0  0
   32.3451   48.2552   19.4481 H   0  0  0  0  0  0
   31.3116   50.9587   16.8854 H   0  0  0  0  0  0
   32.9829   48.3418   16.7436 H   0  0  0  0  0  0
   32.0116   48.9701   15.3694 H   0  0  0  0  0  0
   34.4936   50.2006   16.5705 H   0  0  0  0  0  0
   34.7851   48.1440   15.1867 H   0  0  0  0  0  0
   35.4126   49.6036   14.3485 H   0  0  0  0  0  0
   33.8275   48.9057   13.8716 H   0  0  0  0  0  0
   32.9107   51.9448   15.8548 H   0  0  0  0  0  0
   32.7290   51.1339   14.2622 H   0  0  0  0  0  0
   34.3140   51.8318   14.7391 H   0  0  0  0  0  0
   30.3804   50.3891   15.2237 H   0  0  0  0  0  0
   28.6888   49.6679   14.7253 H   0  0  0  0  0  0
   28.2065   47.4450   16.1680 H   0  0  0  0  0  0
   28.4580   47.7492   17.9204 H   0  0  0  0  0  0
   26.7575   49.4429   15.9991 H   0  0  0  0  0  0
   25.7623   47.2762   16.6771 H   0  0  0  0  0  0
   24.8970   48.6767   17.3957 H   0  0  0  0  0  0
   26.0260   47.7064   18.4011 H   0  0  0  0  0  0
   27.9459   50.8265   17.6516 H   0  0  0  0  0  0
   27.3075   49.7881   18.9710 H   0  0  0  0  0  0
   26.1786   50.7583   17.9657 H   0  0  0  0  0  0
   26.8653   48.2722   14.8162 H   0  0  0  0  0  0
  1  2  1  0  0  0
  1  3  1  0  0  0
  1 84  1  0  0  0
  1 86  1  0  0  0
  2 87  1  0  0  0
  2 88  1  0  0  0
  2 89  1  0  0  0
  3  4  1  0  0  0
  3  6  1  0  0  0
  3 90  1  0  0  0
  4  5  2  0  0  0
  4 14  1  0  0  0
  6  7  1  0  0  0
  6  8  1  0  0  0
  6 91  1  0  0  0
  7 92  1  0  0  0
  8  9  1  0  0  0
  8 10  1  0  0  0
  8 93  1  0  0  0
  9 94  1  0  0  0
  9 95  1  0  0  0
  9 96  1  0  0  0
 10 11  1  0  0  0
 10 97  1  0  0  0
 10 98  1  0  0  0
 11 12  2  0  0  0
 11 99  1  0  0  0
 12 13  1  0  0  0
 12100  1  0  0  0
 13101  1  0  0  0
 13102  1  0  0  0
 13103  1  0  0  0
 14 15  1  0  0  0
 14104  1  0  0  0
 15 16  1  0  0  0
 15 18  1  0  0  0
 15105  1  0  0  0
 16 17  2  0  0  0
 16 20  1  0  0  0
 18 19  1  0  0  0
 18106  1  0  0  0
 18107  1  0  0  0
 19108  1  0  0  0
 19109  1  0  0  0
 19110  1  0  0  0
 20 21  1  0  0  0
 20 24  1  0  0  0
 21 22  1  0  0  0
 21111  1  0  0  0
 21112  1  0  0  0
 22 23  2  0  0  0
 22 25  1  0  0  0
 24113  1  0  0  0
 24114  1  0  0  0
 24115  1  0  0  0
 25 26  1  0  0  0
 25 27  1  0  0  0
 26116  1  0  0  0
 26117  1  0  0  0
 26118  1  0  0  0
 27 28  1  0  0  0
 27 32  1  0  0  0
 27119  1  0  0  0
 28 29  1  0  0  0
 28120  1  0  0  0
 28121  1  0  0  0
 29 30  1  0  0  0
 29 31  1  0  0  0
 29122  1  0  0  0
 30123  1  0  0  0
 30124  1  0  0  0
 30125  1  0  0  0
 31126  1  0  0  0
 31127  1  0  0  0
 31128  1  0  0  0
 32 33  2  0  0  0
 32 34  1  0  0  0
 34 35  1  0  0  0
 34129  1  0  0  0
 35 36  1  0  0  0
 35 38  1  0  0  0
 35130  1  0  0  0
 36 37  2  0  0  0
 36 41  1  0  0  0
 38 39  1  0  0  0
 38 40  1  0  0  0
 38131  1  0  0  0
 39132  1  0  0  0
 39133  1  0  0  0
 39134  1  0  0  0
 40135  1  0  0  0
 40136  1  0  0  0
 40137  1  0  0  0
 41 42  1  0  0  0
 41 43  1  0  0  0
 42138  1  0  0  0
 42139  1  0  0  0
 42140  1  0  0  0
 43 44  1  0  0  0
 43 48  1  0  0  0
 43141  1  0  0  0
 44 45  1  0  0  0
 44142  1  0  0  0
 44143  1  0  0  0
 45 46  1  0  0  0
 45 47  1  0  0  0
 45144  1  0  0  0
 46145  1  0  0  0
 46146  1  0  0  0
 46147  1  0  0  0
 47148  1  0  0  0
 47149  1  0  0  0
 47150  1  0  0  0
 48 49  2  0  0  0
 48 50  1  0  0  0
 50 51  1  0  0  0
 50151  1  0  0  0
 51 52  1  0  0  0
 51 54  1  0  0  0
 51152  1  0  0  0
 52 53  2  0  0  0
 52 55  1  0  0  0
 54153  1  0  0  0
 54154  1  0  0  0
 54155  1  0  0  0
 55 56  1  0  0  0
 55156  1  0  0  0
 56 57  1  0  0  0
 56 58  1  0  0  0
 56157  1  0  0  0
 57158  1  0  0  0
 57159  1  0  0  0
 57160  1  0  0  0
 58 59  2  0  0  0
 58 60  1  0  0  0
 60 61  1  0  0  0
 60 62  1  0  0  0
 61161  1  0  0  0
 61162  1  0  0  0
 61163  1  0  0  0
 62 63  1  0  0  0
 62 67  1  0  0  0
 62164  1  0  0  0
 63 64  1  0  0  0
 63165  1  0  0  0
 63166  1  0  0  0
 64 65  1  0  0  0
 64 66  1  0  0  0
 64167  1  0  0  0
 65168  1  0  0  0
 65169  1  0  0  0
 65170  1  0  0  0
 66171  1  0  0  0
 66172  1  0  0  0
 66173  1  0  0  0
 67 68  2  0  0  0
 67 69  1  0  0  0
 69 70  1  0  0  0
 69 71  1  0  0  0
 70174  1  0  0  0
 70175  1  0  0  0
 70176  1  0  0  0
 71 72  1  0  0  0
 71 76  1  0  0  0
 71177  1  0  0  0
 72 73  1  0  0  0
 72178  1  0  0  0
 72179  1  0  0  0
 73 74  1  0  0  0
 73 75  1  0  0  0
 73180  1  0  0  0
 74181  1  0  0  0
 74182  1  0  0  0
 74183  1  0  0  0
 75184  1  0  0  0
 75185  1  0  0  0
 75186  1  0  0  0
 76 77  2  0  0  0
 76 78  1  0  0  0
 78 79  2  0  0  0
 78 80  1  0  0  0
 79187  1  0  0  0
 79188  1  0  0  0
 80 81  1  0  0  0
 80189  1  0  0  0
 80190  1  0  0  0
 81 82  1  0  0  0
 81 83  1  0  0  0
 81191  1  0  0  0
 82192  1  0  0  0
 82193  1  0  0  0
 82194  1  0  0  0
 83195  1  0  0  0
 83196  1  0  0  0
 83197  1  0  0  0
 84 85  1  0  0  0
 85198  1  0  0  0
M  CHG  1   1   1
M  END
> <s_m_source_file>
../1qnh_ligand.sdf

> <i_m_source_file_index>
1

> <s_epik_input>
W0NIM11cW0NIXT1bQ0hdXFtDSDJdW0NAQEhdKFtDSDNdKVtDQEBIXShbT0hdKVtDQEhdKFtOSCtdKFtDSDNdKU9bT0hdKUMoPU8pW05IXVtDQEBIXShbQ0gyXVtDSDNdKUMoPU8pTihbQ0gzXSlbQ0gyXUMoPU8pTihbQ0gzXSlbQ0BASF0oW0NIMl1bQ0hdKFtDSDNdKVtDSDNdKUMoPU8pW05IXVtDQEBIXShbQ0hdKFtDSDNdKVtDSDNdKUMoPU8pTihbQ0gzXSlbQ0BASF0oW0NIMl1bQ0hdKFtDSDNdKVtDSDNdKUMoPU8pW05IXVtDQEBIXShbQ0gzXSlDKD1PKVtOSF1bQ0BIXShbQ0gzXSlDKD1PKU4oW0NIM10pW0NAQEhdKFtDSDJdW0NIXShbQ0gzXSlbQ0gzXSlDKD1PKU4oW0NIM10pW0NAQEhdKFtDSDJdW0NIXShbQ0gzXSlbQ0gzXSlDKD1PKUMoPVtDSDJdKVtDSDJdW0NIXShbQ0gzXSlbQ0gzXQ==

> <s_epik_cmdline>
J2VwaWtfYXBwJywgJy1pbWFlJywgJ2xpZ2FuZF9wcm8ubWFlJywgJy1vbWFlJywgJ2xpZ2FuZF9wcmVwLm1hZScsICctbXMnLCAnMScsICctcGgnLCAnNycsICctcGh0JywgJzAuNScsICctbnQn

> <s_epik_pKa_notes>
Molecule size exceeds maximum supported for generating protonation states

> <s_epik_Chemistry_Notes>
This compound has a N-S or N-O group and may undergo hydrolysis at high or low pH.

$$$$
