1qon_ligand
                    3D
 Schrodinger Suite 2020-3.
 43 46  0  0  1  0            999 V2000
   31.8800   63.6290    9.8680 C   0  0  0  0  0  0
   30.8340   63.6860    8.7470 C   0  0  0  0  0  0
   30.2550   64.9410    8.5700 C   0  0  0  0  0  0
   31.2030   66.2100    8.4080 C   0  0  0  0  0  0
   33.6250   67.0380    9.2530 C   0  0  0  0  0  0
   35.9450   67.7160   10.1380 C   0  0  0  0  0  0
   37.1020   67.4270   10.8440 C   0  0  0  0  0  0
   37.2140   66.1450   11.4450 C   0  0  0  0  0  0
   36.2670   65.2160   11.3640 C   0  0  0  0  0  0
   34.0400   64.5160   10.5460 N   0  3  0  0  0  0
   32.9550   64.7550    9.9000 C   0  0  0  0  0  0
   32.5750   65.9610    9.1820 C   0  0  0  0  0  0
   34.8840   66.8410    9.9730 C   0  0  0  0  0  0
   35.0370   65.4680   10.6350 C   0  0  0  0  0  0
   33.1870   68.1090    8.6030 N   0  0  0  0  0  0
   28.9990   71.0380   10.6010 I   0  0  0  0  0  0
   33.7980   69.4540    8.4450 C   0  0  0  0  0  0
   33.0450   70.2770    9.5330 C   0  0  0  0  0  0
   31.6720   70.2820    9.5570 C   0  0  0  0  0  0
   31.0360   70.9770   10.5100 C   0  0  0  0  0  0
   31.6910   71.7060   11.4950 C   0  0  0  0  0  0
   33.0330   71.7230   11.5060 C   0  0  0  0  0  0
   33.7830   71.0070   10.5230 C   0  0  0  0  0  0
   31.3747   63.6791   10.8438 H   0  0  0  0  0  0
   32.4445   62.6877    9.7953 H   0  0  0  0  0  0
   31.3047   63.4100    7.7919 H   0  0  0  0  0  0
   30.0183   62.9827    8.9705 H   0  0  0  0  0  0
   29.6409   64.9360    7.6574 H   0  0  0  0  0  0
   29.6211   65.1780    9.4372 H   0  0  0  0  0  0
   31.4123   66.3775    7.3412 H   0  0  0  0  0  0
   30.7043   67.0962    8.8274 H   0  0  0  0  0  0
   35.8642   68.7018    9.6801 H   0  0  0  0  0  0
   37.9021   68.1616   10.9353 H   0  0  0  0  0  0
   38.1222   65.9113   12.0006 H   0  0  0  0  0  0
   36.4157   64.2524   11.8512 H   0  0  0  0  0  0
   32.2162   67.8876    8.1356 H   0  0  0  0  0  0
   34.8811   69.3881    8.6253 H   0  0  0  0  0  0
   33.6180   69.8209    7.4237 H   0  0  0  0  0  0
   31.1058   69.7268    8.8092 H   0  0  0  0  0  0
   31.1241   72.2552   12.2467 H   0  0  0  0  0  0
   33.5575   72.2904   12.2748 H   0  0  0  0  0  0
   34.8730   71.0152   10.5253 H   0  0  0  0  0  0
   34.1844   63.5426   11.0375 H   0  0  0  0  0  0
  1  2  1  0  0  0
  1 11  1  0  0  0
  1 24  1  0  0  0
  1 25  1  0  0  0
  2  3  1  0  0  0
  2 26  1  0  0  0
  2 27  1  0  0  0
  3  4  1  0  0  0
  3 28  1  0  0  0
  3 29  1  0  0  0
  4 12  1  0  0  0
  4 30  1  0  0  0
  4 31  1  0  0  0
  5 12  2  0  0  0
  5 13  1  0  0  0
  5 15  1  0  0  0
  6  7  1  0  0  0
  6 13  2  0  0  0
  6 32  1  0  0  0
  7  8  2  0  0  0
  7 33  1  0  0  0
  8  9  1  0  0  0
  8 34  1  0  0  0
  9 14  2  0  0  0
  9 35  1  0  0  0
 10 11  2  0  0  0
 10 14  1  0  0  0
 10 43  1  0  0  0
 11 12  1  0  0  0
 13 14  1  0  0  0
 15 17  1  0  0  0
 15 36  1  0  0  0
 16 20  1  0  0  0
 17 18  1  0  0  0
 17 37  1  0  0  0
 17 38  1  0  0  0
 18 19  2  0  0  0
 18 23  1  0  0  0
 19 20  1  0  0  0
 19 39  1  0  0  0
 20 21  2  0  0  0
 21 22  1  0  0  0
 21 40  1  0  0  0
 22 23  2  0  0  0
 22 41  1  0  0  0
 23 42  1  0  0  0
M  CHG  1  10   1
M  END
> <s_m_source_file>
../1qon_ligand.sdf

> <i_m_source_file_index>
1

> <s_epik_input>
W2NIXTFbY0hdW2NIXVtjSF1jKG4yKWMxYyhjKGMyMylbQ0gyXVtDSDJdW0NIMl1bQ0gyXTMpW05IXVtDSDJdYzRbY0hdYyhJKVtjSF1bY0hdW2NIXTQ=

> <s_epik_cmdline>
J2VwaWtfYXBwJywgJy1pbWFlJywgJ2xpZ2FuZF9wcm8ubWFlJywgJy1vbWFlJywgJ2xpZ2FuZF9wcmVwLm1hZScsICctbXMnLCAnMScsICctcGgnLCAnNycsICctcGh0JywgJzAuNScsICctbnQn

> <r_lp_tautomer_probability>
1

> <r_epik_Ionization_Penalty>
  0.0005

> <r_epik_Ionization_Penalty_Charging>
  0.0005

> <r_epik_Ionization_Penalty_Neutral>
  0.0000

> <r_epik_State_Penalty>
 -0.0000

> <r_epik_Charging_Adjusted_Penalty>
0.000477568868544868

> <i_epik_Tot_Q>
1

> <i_epik_Tot_abs_Q>
1

$$$$
