1qpb_ligand
                    3D
 Schrodinger Suite 2020-3.
 11 10  0  0  1  0            999 V2000
   82.9990   56.8860   17.2360 C   0  0  0  0  0  0
   82.0260   57.0570   18.0540 N   0  0  0  0  0  0
   83.2360   55.7190   16.7440 O   0  0  0  0  0  0
   83.7870   57.9910   16.8900 C   0  0  0  0  0  0
   83.6450   59.1400   17.3020 O   0  0  0  0  0  0
   84.8470   58.1110   16.0790 C   0  0  0  0  0  0
   81.3927   56.2047   18.3412 H   0  0  0  0  0  0
   81.8249   58.0559   18.4683 H   0  0  0  0  0  0
   85.0829   57.1319   15.6366 H   0  0  0  0  0  0
   85.7116   58.4704   16.6564 H   0  0  0  0  0  0
   84.6166   58.8292   15.2783 H   0  0  0  0  0  0
  1  2  1  0  0  0
  1  3  2  0  0  0
  1  4  1  0  0  0
  2  7  1  0  0  0
  2  8  1  0  0  0
  4  5  2  0  0  0
  4  6  1  0  0  0
  6  9  1  0  0  0
  6 10  1  0  0  0
  6 11  1  0  0  0
M  END
> <s_m_source_file>
../1qpb_ligand.sdf

> <i_m_source_file_index>
1

> <s_epik_input>
W05IMl1DKD1PKUMoPU8pW0NIM10=

> <s_epik_cmdline>
J2VwaWtfYXBwJywgJy1pbWFlJywgJ2xpZ2FuZF9wcm8ubWFlJywgJy1vbWFlJywgJ2xpZ2FuZF9wcmVwLm1hZScsICctbXMnLCAnMScsICctcGgnLCAnNycsICctcGh0JywgJzAuNScsICctbnQn

> <r_lp_tautomer_probability>
1

> <r_epik_Ionization_Penalty>
  0.0000

> <r_epik_Ionization_Penalty_Charging>
  0.0000

> <r_epik_Ionization_Penalty_Neutral>
  0.0000

> <r_epik_State_Penalty>
 -0.0000

> <r_epik_Charging_Adjusted_Penalty>
0

> <i_epik_Tot_Q>
0

> <i_epik_Tot_abs_Q>
0

$$$$
