1qpe_ligand
                    3D
 Schrodinger Suite 2020-3.
 37 39  0  0  1  0            999 V2000
   25.3570   37.1410   83.3590 C   0  0  0  0  0  0
   26.3410   36.6570   82.5560 N   0  0  0  0  0  0
   25.9990   35.6530   81.7810 C   0  0  0  0  0  0
   24.7390   35.1270   81.7880 N   0  0  0  0  0  0
   23.7410   35.5340   82.5440 C   0  0  0  0  0  0
   24.0410   36.6380   83.4210 C   0  0  0  0  0  0
   23.2900   37.3920   84.3180 C   0  0  0  0  0  0
   24.0960   38.3650   84.7990 N   0  0  0  0  0  0
   25.3550   38.2130   84.2400 N   0  0  0  0  0  0
   21.9410   37.1830   84.8550 C   0  0  0  0  0  0
   21.5890   35.9510   85.4520 C   0  0  0  0  0  0
   20.3660   35.7620   86.1120 C   0  0  0  0  0  0
   19.4670   36.8480   86.1570 C   0  0  0  0  0  0
   19.7750   38.0810   85.5950 C   0  0  0  0  0  0
   21.0480   38.2860   84.9010 C   0  0  0  0  0  0
   26.5070   39.1390   84.6030 C   0  0  0  0  0  0
   26.9570   39.8980   83.2930 C   0  0  0  0  0  0
   27.6460   38.5070   85.4450 C   0  0  0  0  0  0
   26.0500   40.2190   85.7040 C   0  0  0  0  0  0
   22.4580   35.0320   82.3980 N   0  0  0  0  0  0
   17.8600   36.6550   86.8930 Cl  0  0  0  0  0  0
   26.7451   35.2261   81.1108 H   0  0  0  0  0  0
   22.2919   35.1197   85.3976 H   0  0  0  0  0  0
   20.1183   34.8069   86.5751 H   0  0  0  0  0  0
   19.0629   38.9027   85.6714 H   0  0  0  0  0  0
   21.2987   39.2417   84.4407 H   0  0  0  0  0  0
   26.0713   40.3019   82.7807 H   0  0  0  0  0  0
   27.4796   39.1978   82.6247 H   0  0  0  0  0  0
   27.6335   40.7229   83.5612 H   0  0  0  0  0  0
   27.2169   38.0088   86.3269 H   0  0  0  0  0  0
   28.3414   39.2946   85.7709 H   0  0  0  0  0  0
   28.1874   37.7695   84.8344 H   0  0  0  0  0  0
   25.7349   39.6979   86.6200 H   0  0  0  0  0  0
   25.2098   40.8102   85.3110 H   0  0  0  0  0  0
   26.8928   40.8874   85.9339 H   0  0  0  0  0  0
   22.2718   34.1878   81.7178 H   0  0  0  0  0  0
   21.6255   35.4776   82.9622 H   0  0  0  0  0  0
  1  9  1  0  0  0
  1  6  2  0  0  0
  1  2  1  0  0  0
  2  3  2  0  0  0
  3  4  1  0  0  0
  3 22  1  0  0  0
  4  5  2  0  0  0
  5 20  1  0  0  0
  5  6  1  0  0  0
  6  7  1  0  0  0
  7 10  1  0  0  0
  7  8  2  0  0  0
  8  9  1  0  0  0
  9 16  1  0  0  0
 10 15  2  0  0  0
 10 11  1  0  0  0
 11 12  2  0  0  0
 11 23  1  0  0  0
 12 13  1  0  0  0
 12 24  1  0  0  0
 13 21  1  0  0  0
 13 14  2  0  0  0
 14 15  1  0  0  0
 14 25  1  0  0  0
 15 26  1  0  0  0
 16 19  1  0  0  0
 16 18  1  0  0  0
 16 17  1  0  0  0
 17 27  1  0  0  0
 17 28  1  0  0  0
 17 29  1  0  0  0
 18 30  1  0  0  0
 18 31  1  0  0  0
 18 32  1  0  0  0
 19 33  1  0  0  0
 19 34  1  0  0  0
 19 35  1  0  0  0
 20 36  1  0  0  0
 20 37  1  0  0  0
M  END
> <s_m_source_file>
../1qpe_ligand.sdf

> <i_m_source_file_index>
1

> <s_epik_input>
bjFbY0hdbmMoW05IMl0pYyhjMTIpYyhubjJDKFtDSDNdKShbQ0gzXSlbQ0gzXSktYzNbY0hdW2NIXWMoQ2wpW2NIXVtjSF0z

> <s_epik_cmdline>
J2VwaWtfYXBwJywgJy1pbWFlJywgJ2xpZ2FuZF9wcm8ubWFlJywgJy1vbWFlJywgJ2xpZ2FuZF9wcmVwLm1hZScsICctbXMnLCAnMScsICctcGgnLCAnNycsICctcGh0JywgJzAuNScsICctbnQn

> <r_lp_tautomer_probability>
1

> <r_epik_Ionization_Penalty>
  0.0008

> <r_epik_Ionization_Penalty_Charging>
  0.0000

> <r_epik_Ionization_Penalty_Neutral>
  0.0008

> <r_epik_State_Penalty>
 -0.0000

> <r_epik_Charging_Adjusted_Penalty>
0

> <i_epik_Tot_Q>
0

> <i_epik_Tot_abs_Q>
0

$$$$
