1qpf_ligand
                    3D
 Schrodinger Suite 2020-3.
145150  0  0  1  0            999 V2000
   25.6070   33.8660  136.8350 C   0  0  0  0  0  0
   24.1140   34.1050  136.6520 C   0  0  2  0  0  0
   23.8680   35.5600  136.2590 C   0  0  0  0  0  0
   24.1580   36.5440  137.3760 C   0  0  0  0  0  0
   23.3580   36.1830  138.6120 C   0  0  0  0  0  0
   23.6740   34.7650  139.0330 C   0  0  0  0  0  0
   22.4590   32.9490  137.9870 C   0  0  0  0  0  0
   21.7880   32.6670  139.1940 C   0  0  0  0  0  0
   22.2730   31.7870  140.3860 C   0  0  1  0  0  0
   23.2450   30.6470  139.8860 C   0  0  1  0  0  0
   24.0140   30.0770  141.0770 C   0  0  0  0  0  0
   24.6460   31.1240  141.9930 C   0  0  1  0  0  0
   23.5660   32.1220  142.4560 C   0  0  1  0  0  0
   24.0310   33.3160  143.3130 C   0  0  2  0  0  0
   25.2090   34.0250  142.6430 C   0  0  0  0  0  0
   25.8260   35.2380  143.3410 C   0  0  2  0  0  0
   26.7720   34.9300  144.5090 C   0  0  0  0  0  0
   28.1350   34.4170  144.0590 C   0  0  0  0  0  0
   28.4530   33.1080  144.0310 C   0  0  0  0  0  0
   29.7190   32.5100  143.4010 C   0  0  2  0  0  0
   29.6110   32.1830  141.9140 C   0  0  0  0  0  0
   30.0370   33.2800  140.9330 C   0  0  0  0  0  0
   29.5480   33.0330  139.4970 C   0  0  1  0  0  0
   28.0190   33.2690  139.3780 C   0  0  2  0  0  0
   27.4960   32.8240  137.9860 C   0  0  1  0  0  0
   27.5690   31.3220  137.7910 C   0  0  0  0  0  0
   28.3630   30.8700  136.8040 C   0  0  0  0  0  0
   28.8690   29.4580  136.5400 C   0  0  1  0  0  0
   29.0530   29.2840  135.0250 C   0  0  0  0  0  0
   29.6470   27.9330  134.6050 C   0  0  2  0  0  0
   31.0220   27.7450  135.2670 C   0  0  1  0  0  0
   30.8820   27.8880  136.7890 C   0  0  0  0  0  0
   30.2240   29.1960  137.2140 C   0  0  0  0  0  0
   22.4720   29.5180  139.2070 C   0  0  0  0  0  0
   24.7170   36.1730  143.8080 C   0  0  0  0  0  0
   29.1050   35.4860  143.5930 C   0  0  0  0  0  0
   30.1250   31.2510  144.1730 C   0  0  0  0  0  0
   31.4530   30.6550  143.7440 C   0  0  0  0  0  0
   27.6930   34.7490  139.6140 C   0  0  0  0  0  0
   26.7240   30.4370  138.6750 C   0  0  0  0  0  0
   26.2270   29.5960  142.9770 C   0  0  0  0  0  0
   23.1980   32.5180  145.3490 C   0  0  0  0  0  0
   28.5700   27.8350  132.4680 C   0  0  0  0  0  0
   32.6890   25.9580  135.2800 C   0  0  0  0  0  0
   33.7750   26.8170  135.4640 C   0  0  0  0  0  0
   32.7950   24.5900  135.5290 C   0  0  0  0  0  0
   34.0180   24.0590  135.9750 C   0  0  0  0  0  0
   34.9740   26.3260  135.8920 C   0  0  0  0  0  0
   35.0700   24.9520  136.1400 C   0  0  0  0  0  0
   34.3820   22.7760  136.3060 C   0  0  0  0  0  0
   36.1570   24.1380  136.6060 N   0  0  0  0  0  0
   35.7110   22.6660  136.7290 C   0  0  0  0  0  0
   37.4500   24.7920  136.8380 C   0  0  0  0  0  0
   38.6000   23.8300  136.8320 C   0  0  0  0  0  0
   23.4110   33.8760  137.9030 N   0  0  0  0  0  0
   26.0960   33.0830  137.8540 O   0  0  0  0  0  0
   26.4090   34.3920  136.0680 O   0  0  0  0  0  0
   22.1140   32.3190  136.9860 O   0  0  0  0  0  0
   20.6860   33.1980  139.3550 O   0  0  0  0  0  0
   22.9080   32.6690  141.3090 O   0  0  0  0  0  0
   21.1380   31.3050  141.0920 O   0  0  0  0  0  0
   25.1660   30.5150  143.1740 O   0  0  0  0  0  0
   24.3760   32.8300  144.6220 O   0  0  0  0  0  0
   29.2480   31.0610  141.5380 O   0  0  0  0  0  0
   30.2580   33.9670  138.6700 O   0  0  0  0  0  0
   29.8230   27.8500  133.1810 O   0  0  0  0  0  0
   31.4700   26.4410  134.9060 O   0  0  0  0  0  0
   23.7240   33.3973  135.9056 H   0  0  0  0  0  0
   24.5151   35.8248  135.4098 H   0  0  0  0  0  0
   22.8142   35.6889  135.9711 H   0  0  0  0  0  0
   25.2302   36.5160  137.6201 H   0  0  0  0  0  0
   23.8821   37.5583  137.0519 H   0  0  0  0  0  0
   23.6171   36.8709  139.4303 H   0  0  0  0  0  0
   22.2837   36.2650  138.3903 H   0  0  0  0  0  0
   24.7321   34.6967  139.3260 H   0  0  0  0  0  0
   23.0385   34.4856  139.8863 H   0  0  0  0  0  0
   23.9546   31.0534  139.1502 H   0  0  0  0  0  0
   23.3331   29.4797  141.7012 H   0  0  0  0  0  0
   24.8328   29.4387  140.7133 H   0  0  0  0  0  0
   25.4952   31.5928  141.4743 H   0  0  0  0  0  0
   22.8592   31.5300  143.0560 H   0  0  0  0  0  0
   23.2298   34.0514  143.4781 H   0  0  0  0  0  0
   26.0425   33.3173  142.5226 H   0  0  0  0  0  0
   24.8991   34.3979  141.6556 H   0  0  0  0  0  0
   26.4603   35.7145  142.5790 H   0  0  0  0  0  0
   26.9390   35.8448  145.0966 H   0  0  0  0  0  0
   26.3224   34.1585  145.1514 H   0  0  0  0  0  0
   27.7780   32.3682  144.4859 H   0  0  0  0  0  0
   30.4874   33.2942  143.4685 H   0  0  0  0  0  0
   29.6259   34.2458  141.2619 H   0  0  0  0  0  0
   31.1350   33.3397  140.9039 H   0  0  0  0  0  0
   29.7844   32.0177  139.1459 H   0  0  0  0  0  0
   27.5119   32.6732  140.1513 H   0  0  0  0  0  0
   28.0648   33.3886  137.2325 H   0  0  0  0  0  0
   28.7402   31.5653  136.0396 H   0  0  0  0  0  0
   28.1282   28.7580  136.9538 H   0  0  0  0  0  0
   28.0775   29.3729  134.5246 H   0  0  0  0  0  0
   29.7317   30.0624  134.6462 H   0  0  0  0  0  0
   28.9371   27.1319  134.8587 H   0  0  0  0  0  0
   31.7902   28.4455  134.9077 H   0  0  0  0  0  0
   30.2654   27.0650  137.1794 H   0  0  0  0  0  0
   31.8783   27.8521  137.2539 H   0  0  0  0  0  0
   30.9217   30.0084  136.9626 H   0  0  0  0  0  0
   30.0888   29.1532  138.3048 H   0  0  0  0  0  0
   21.9151   29.9200  138.3478 H   0  0  0  0  0  0
   21.7674   29.0727  139.9248 H   0  0  0  0  0  0
   23.1769   28.7483  138.8595 H   0  0  0  0  0  0
   24.0422   36.3902  142.9669 H   0  0  0  0  0  0
   25.1588   37.1110  144.1754 H   0  0  0  0  0  0
   24.1496   35.6926  144.6187 H   0  0  0  0  0  0
   28.6397   36.4766  143.7035 H   0  0  0  0  0  0
   29.3583   35.3157  142.5362 H   0  0  0  0  0  0
   30.0203   35.4409  144.2014 H   0  0  0  0  0  0
   30.2105   31.4890  145.2435 H   0  0  0  0  0  0
   29.3621   30.4715  144.0305 H   0  0  0  0  0  0
   31.6649   29.7596  144.3468 H   0  0  0  0  0  0
   32.2526   31.3954  143.8936 H   0  0  0  0  0  0
   31.4041   30.3780  142.6806 H   0  0  0  0  0  0
   28.0676   35.0539  140.6023 H   0  0  0  0  0  0
   26.6035   34.8954  139.5736 H   0  0  0  0  0  0
   28.1741   35.3591  138.8353 H   0  0  0  0  0  0
   26.1735   31.0582  139.3968 H   0  0  0  0  0  0
   27.3729   29.7332  139.2168 H   0  0  0  0  0  0
   26.0098   29.8747  138.0555 H   0  0  0  0  0  0
   26.5466   29.1912  143.9486 H   0  0  0  0  0  0
   27.0731   30.1101  142.4977 H   0  0  0  0  0  0
   25.8846   28.7735  142.3318 H   0  0  0  0  0  0
   23.4711   32.1474  146.3480 H   0  0  0  0  0  0
   22.6307   31.7430  144.8128 H   0  0  0  0  0  0
   22.5791   33.4218  145.4497 H   0  0  0  0  0  0
   28.7639   27.7708  131.3871 H   0  0  0  0  0  0
   28.0128   28.7580  132.6864 H   0  0  0  0  0  0
   27.9773   26.9648  132.7865 H   0  0  0  0  0  0
   33.6643   27.8830  135.2650 H   0  0  0  0  0  0
   31.9354   23.9368  135.3789 H   0  0  0  0  0  0
   35.8310   26.9839  136.0364 H   0  0  0  0  0  0
   33.7016   21.9267  136.2449 H   0  0  0  0  0  0
   36.2720   21.7895  137.0533 H   0  0  0  0  0  0
   37.6315   25.5359  136.0483 H   0  0  0  0  0  0
   37.4372   25.2926  137.8174 H   0  0  0  0  0  0
   39.5371   24.3777  137.0103 H   0  0  0  0  0  0
   38.6504   23.3249  135.8561 H   0  0  0  0  0  0
   38.4561   23.0816  137.6252 H   0  0  0  0  0  0
   20.4526   30.5921  140.6103 H   0  0  0  0  0  0
   31.3571   33.9433  138.6322 H   0  0  0  0  0  0
  1  2  1  0  0  0
  1 56  1  0  0  0
  1 57  2  0  0  0
  2  3  1  0  0  0
  2 55  1  0  0  0
  2 68  1  0  0  0
  3  4  1  0  0  0
  3 69  1  0  0  0
  3 70  1  0  0  0
  4  5  1  0  0  0
  4 71  1  0  0  0
  4 72  1  0  0  0
  5  6  1  0  0  0
  5 73  1  0  0  0
  5 74  1  0  0  0
  6 55  1  0  0  0
  6 75  1  0  0  0
  6 76  1  0  0  0
  7  8  1  0  0  0
  7 55  1  0  0  0
  7 58  2  0  0  0
  8  9  1  0  0  0
  8 59  2  0  0  0
  9 10  1  0  0  0
  9 60  1  0  0  0
  9 61  1  0  0  0
 10 11  1  0  0  0
 10 34  1  0  0  0
 10 77  1  0  0  0
 11 12  1  0  0  0
 11 78  1  0  0  0
 11 79  1  0  0  0
 12 13  1  0  0  0
 12 62  1  0  0  0
 12 80  1  0  0  0
 13 14  1  0  0  0
 13 60  1  0  0  0
 13 81  1  0  0  0
 14 15  1  0  0  0
 14 63  1  0  0  0
 14 82  1  0  0  0
 15 16  1  0  0  0
 15 83  1  0  0  0
 15 84  1  0  0  0
 16 17  1  0  0  0
 16 35  1  0  0  0
 16 85  1  0  0  0
 17 18  1  0  0  0
 17 86  1  0  0  0
 17 87  1  0  0  0
 18 19  2  0  0  0
 18 36  1  0  0  0
 19 20  1  0  0  0
 19 88  1  0  0  0
 20 21  1  0  0  0
 20 37  1  0  0  0
 20 89  1  0  0  0
 21 22  1  0  0  0
 21 64  2  0  0  0
 22 23  1  0  0  0
 22 90  1  0  0  0
 22 91  1  0  0  0
 23 24  1  0  0  0
 23 65  1  0  0  0
 23 92  1  0  0  0
 24 25  1  0  0  0
 24 39  1  0  0  0
 24 93  1  0  0  0
 25 26  1  0  0  0
 25 56  1  0  0  0
 25 94  1  0  0  0
 26 27  2  0  0  0
 26 40  1  0  0  0
 27 28  1  0  0  0
 27 95  1  0  0  0
 28 29  1  0  0  0
 28 33  1  0  0  0
 28 96  1  0  0  0
 29 30  1  0  0  0
 29 97  1  0  0  0
 29 98  1  0  0  0
 30 31  1  0  0  0
 30 66  1  0  0  0
 30 99  1  0  0  0
 31 32  1  0  0  0
 31 67  1  0  0  0
 31100  1  0  0  0
 32 33  1  0  0  0
 32101  1  0  0  0
 32102  1  0  0  0
 33103  1  0  0  0
 33104  1  0  0  0
 34105  1  0  0  0
 34106  1  0  0  0
 34107  1  0  0  0
 35108  1  0  0  0
 35109  1  0  0  0
 35110  1  0  0  0
 36111  1  0  0  0
 36112  1  0  0  0
 36113  1  0  0  0
 37 38  1  0  0  0
 37114  1  0  0  0
 37115  1  0  0  0
 38116  1  0  0  0
 38117  1  0  0  0
 38118  1  0  0  0
 39119  1  0  0  0
 39120  1  0  0  0
 39121  1  0  0  0
 40122  1  0  0  0
 40123  1  0  0  0
 40124  1  0  0  0
 41 62  1  0  0  0
 41125  1  0  0  0
 41126  1  0  0  0
 41127  1  0  0  0
 42 63  1  0  0  0
 42128  1  0  0  0
 42129  1  0  0  0
 42130  1  0  0  0
 43 66  1  0  0  0
 43131  1  0  0  0
 43132  1  0  0  0
 43133  1  0  0  0
 44 45  1  0  0  0
 44 46  2  0  0  0
 44 67  1  0  0  0
 45 48  2  0  0  0
 45134  1  0  0  0
 46 47  1  0  0  0
 46135  1  0  0  0
 47 49  2  0  0  0
 47 50  1  0  0  0
 48 49  1  0  0  0
 48136  1  0  0  0
 49 51  1  0  0  0
 50 52  2  0  0  0
 50137  1  0  0  0
 51 52  1  0  0  0
 51 53  1  0  0  0
 52138  1  0  0  0
 53 54  1  0  0  0
 53139  1  0  0  0
 53140  1  0  0  0
 54141  1  0  0  0
 54142  1  0  0  0
 54143  1  0  0  0
 61144  1  0  0  0
 65145  1  0  0  0
M  END
> <s_m_source_file>
../1qpf_ligand.sdf

> <i_m_source_file_index>
1

> <s_epik_input>
W2NIXTFbY0hdbihbQ0gyXVtDSDNdKWMoYzEyKVtjSF1bY0hdYyhbY0hdMilPW0NASF0oW0NIMl1bQ0gyXTMpW0NASF0oT1tDSDNdKVtDSDJdW0NAQEhdM1xbQ0hdPUMoW0NIM10pXFtDQEBIXShPQyg9TylbQ0BIXShbQ0gyXVtDSDJdW0NIMl1bQ0gyXTQpTjRDKD1PKUMoPU8pW0NAQF01NltPSF0pW0NASF0oW0NIM10pW0NAQEhdKFtPSF0pW0NIMl1DKD1PKVtDQEhdKFtDSDJdW0NIM10pXFtDSF09QyhbQ0gzXSlcW0NIMl1bQ0BIXShbQ0gzXSlbQ0gyXVtDQEhdKE9bQ0gzXSlbQ0BASF0oTzYpW0NAQEhdKE9bQ0gzXSlbQ0gyXVtDQEhdNVtDSDNd

> <s_epik_cmdline>
J2VwaWtfYXBwJywgJy1pbWFlJywgJ2xpZ2FuZF9wcm8ubWFlJywgJy1vbWFlJywgJ2xpZ2FuZF9wcmVwLm1hZScsICctbXMnLCAnMScsICctcGgnLCAnNycsICctcGh0JywgJzAuNScsICctbnQn

> <r_lp_tautomer_probability>
1

> <r_epik_Ionization_Penalty>
  0.0045

> <r_epik_Ionization_Penalty_Charging>
  0.0000

> <r_epik_Ionization_Penalty_Neutral>
  0.0045

> <r_epik_State_Penalty>
 -0.0000

> <r_epik_Charging_Adjusted_Penalty>
0

> <i_epik_Tot_Q>
0

> <i_epik_Tot_abs_Q>
0

> <s_epik_Chemistry_Notes>
This compound has an ester and may undergo hydrolysis at high or low pH.

$$$$
