1qpl_ligand
                    3D
 Schrodinger Suite 2020-3.
143148  0  0  1  0            999 V2000
   47.9280   29.9990    5.2070 C   0  0  0  0  0  0
   48.0600   29.7790    3.7070 C   0  0  2  0  0  0
   49.3580   30.4020    3.2000 C   0  0  0  0  0  0
   49.3660   31.9220    3.2410 C   0  0  0  0  0  0
   48.2010   32.4780    2.4490 C   0  0  0  0  0  0
   46.9000   31.8960    2.9590 C   0  0  0  0  0  0
   46.2470   29.6840    2.1900 C   0  0  0  0  0  0
   45.3170   30.2640    1.3720 C   0  0  0  0  0  0
   43.9070   30.6050    1.7810 C   0  0  1  0  0  0
   43.4350   29.5440    2.7860 C   0  0  1  0  0  0
   42.2140   30.0740    3.5270 C   0  0  0  0  0  0
   42.4080   31.4970    4.0320 C   0  0  1  0  0  0
   42.8100   32.3970    2.8580 C   0  0  1  0  0  0
   43.0270   33.8840    3.1020 C   0  0  2  0  0  0
   43.9920   34.1050    4.2710 C   0  0  0  0  0  0
   44.3060   35.5570    4.6450 C   0  0  2  0  0  0
   43.1210   36.3050    5.2750 C   0  0  1  0  0  0
   43.0730   35.9870    6.7570 C   0  0  0  0  0  0
   42.4750   34.8700    7.1750 C   0  0  0  0  0  0
   42.4450   34.3990    8.5890 C   0  0  2  0  0  0
   43.2030   33.0880    8.7680 C   0  0  0  0  0  0
   44.6430   33.2160    9.2570 C   0  0  0  0  0  0
   45.5240   32.0330    8.8440 C   0  0  1  0  0  0
   45.7360   32.0010    7.3240 C   0  0  2  0  0  0
   46.5020   30.7020    7.0500 C   0  0  1  0  0  0
   45.6540   29.5200    7.4160 C   0  0  0  0  0  0
   46.0920   28.7080    8.3810 C   0  0  0  0  0  0
   45.3660   27.5350    8.9790 C   0  0  1  0  0  0
   46.3320   26.3810    9.2530 C   0  0  0  0  0  0
   45.7260   25.1850    9.9960 C   0  0  2  0  0  0
   45.1200   25.6550   11.3210 C   0  0  1  0  0  0
   44.1140   26.7740   11.0690 C   0  0  0  0  0  0
   44.7170   27.9400   10.3050 C   0  0  0  0  0  0
   43.0580   28.2830    2.0440 C   0  0  0  0  0  0
   44.8160   36.2820    3.4050 C   0  0  0  0  0  0
   43.7020   36.9400    7.7550 C   0  0  0  0  0  0
   40.9910   34.2420    9.0200 C   0  0  0  0  0  0
   40.8200   33.9090   10.4770 C   0  0  0  0  0  0
   46.5600   33.1950    6.8790 C   0  0  0  0  0  0
   44.3810   29.3060    6.6260 C   0  0  0  0  0  0
   40.9700   31.4140    5.8980 C   0  0  0  0  0  0
   41.1990   34.7910    2.0640 C   0  0  0  0  0  0
   47.3780   23.5920    9.3140 C   0  0  0  0  0  0
   44.8260   24.4020   13.2840 C   0  0  0  0  0  0
   46.1740   24.3740   13.6540 C   0  0  0  0  0  0
   43.8150   24.5390   14.2410 C   0  0  0  0  0  0
   44.1450   24.6710   15.6040 C   0  0  0  0  0  0
   46.5290   24.4960   14.9700 C   0  0  0  0  0  0
   45.5080   24.6460   15.9250 C   0  0  0  0  0  0
   43.3380   24.8570   16.7120 C   0  0  0  0  0  0
   45.5660   24.8570   17.4020 N   0  0  0  0  0  0
   44.0060   24.9960   17.9210 C   0  0  0  0  0  0
   46.7610   25.0320   18.2720 C   0  0  0  0  0  0
   47.0050   30.4310    2.9580 N   0  0  0  0  0  0
   46.7840   30.5770    5.6700 O   0  0  0  0  0  0
   48.8470   29.6810    5.9650 O   0  0  0  0  0  0
   46.3080   28.4520    2.1560 O   0  0  0  0  0  0
   45.6500   30.5680    0.2240 O   0  0  0  0  0  0
   43.9960   31.9040    2.2980 O   0  0  0  0  0  0
   43.0760   30.6430    0.6440 O   0  0  0  0  0  0
   41.1770   31.9150    4.5850 O   0  0  0  0  0  0
   41.7360   34.4060    3.3250 O   0  0  0  0  0  0
   42.6610   31.9960    8.5730 O   0  0  0  0  0  0
   46.7790   32.2120    9.5110 O   0  0  0  0  0  0
   46.7030   24.2450   10.3900 O   0  0  0  0  0  0
   44.4940   24.5300   11.9590 O   0  0  0  0  0  0
   43.2070   37.7100    5.0870 O   0  0  0  0  0  0
   47.9796   28.6963    3.5303 H   0  0  0  0  0  0
   50.1980   30.0542    3.8193 H   0  0  0  0  0  0
   49.5246   30.1027    2.1547 H   0  0  0  0  0  0
   49.2841   32.2611    4.2842 H   0  0  0  0  0  0
   50.3050   32.2956    2.8067 H   0  0  0  0  0  0
   48.1735   33.5724    2.5566 H   0  0  0  0  0  0
   48.3215   32.2169    1.3873 H   0  0  0  0  0  0
   46.7133   32.2558    3.9816 H   0  0  0  0  0  0
   46.0752   32.2113    2.3030 H   0  0  0  0  0  0
   44.2364   29.3091    3.5020 H   0  0  0  0  0  0
   41.3454   30.0706    2.8520 H   0  0  0  0  0  0
   42.0055   29.4327    4.3960 H   0  0  0  0  0  0
   43.1459   31.5727    4.8442 H   0  0  0  0  0  0
   41.9769   32.3188    2.1439 H   0  0  0  0  0  0
   43.4328   34.4400    2.2440 H   0  0  0  0  0  0
   43.5765   33.6474    5.1809 H   0  0  0  0  0  0
   44.9623   33.6421    4.0380 H   0  0  0  0  0  0
   45.0857   35.5404    5.4208 H   0  0  0  0  0  0
   42.1818   36.0447    4.7651 H   0  0  0  0  0  0
   41.9550   34.2217    6.4543 H   0  0  0  0  0  0
   42.9525   35.1587    9.2016 H   0  0  0  0  0  0
   45.0925   34.1287    8.8387 H   0  0  0  0  0  0
   44.6536   33.2723   10.3555 H   0  0  0  0  0  0
   45.0995   31.0696    9.1627 H   0  0  0  0  0  0
   44.7860   32.0513    6.7718 H   0  0  0  0  0  0
   47.4636   30.7078    7.5842 H   0  0  0  0  0  0
   47.0860   28.8670    8.8246 H   0  0  0  0  0  0
   44.6048   27.2255    8.2477 H   0  0  0  0  0  0
   46.7199   25.9933    8.2995 H   0  0  0  0  0  0
   47.1685   26.7416    9.8697 H   0  0  0  0  0  0
   45.0372   24.6731    9.3079 H   0  0  0  0  0  0
   45.8877   26.0112   12.0236 H   0  0  0  0  0  0
   43.2713   26.3836   10.4796 H   0  0  0  0  0  0
   43.7424   27.1565   12.0311 H   0  0  0  0  0  0
   45.4725   28.4035   10.9565 H   0  0  0  0  0  0
   43.9077   28.6597   10.1124 H   0  0  0  0  0  0
   43.9370   27.8967    1.5073 H   0  0  0  0  0  0
   42.2576   28.5070    1.3234 H   0  0  0  0  0  0
   42.7049   27.5273    2.7611 H   0  0  0  0  0  0
   45.6621   35.7248    2.9765 H   0  0  0  0  0  0
   45.1460   37.2942    3.6818 H   0  0  0  0  0  0
   44.0079   36.3502    2.6618 H   0  0  0  0  0  0
   44.1407   37.7948    7.2194 H   0  0  0  0  0  0
   44.4894   36.4158    8.3164 H   0  0  0  0  0  0
   42.9321   37.3006    8.4530 H   0  0  0  0  0  0
   40.4503   35.1819    8.8352 H   0  0  0  0  0  0
   40.5232   33.4304    8.4434 H   0  0  0  0  0  0
   39.7488   33.8127   10.7078 H   0  0  0  0  0  0
   41.2566   34.7112   11.0901 H   0  0  0  0  0  0
   41.3296   32.9596   10.6984 H   0  0  0  0  0  0
   46.0016   34.1212    7.0799 H   0  0  0  0  0  0
   46.7657   33.1173    5.8012 H   0  0  0  0  0  0
   47.5100   33.2120    7.4333 H   0  0  0  0  0  0
   44.2603   30.1211    5.8973 H   0  0  0  0  0  0
   43.5210   29.2970    7.3118 H   0  0  0  0  0  0
   44.4364   28.3444    6.0948 H   0  0  0  0  0  0
   40.0006   31.7694    6.2774 H   0  0  0  0  0  0
   41.7749   31.7704    6.5576 H   0  0  0  0  0  0
   40.9742   30.3142    5.8757 H   0  0  0  0  0  0
   40.1891   35.2033    2.2060 H   0  0  0  0  0  0
   41.1469   33.9125    1.4040 H   0  0  0  0  0  0
   41.8460   35.5546    1.6077 H   0  0  0  0  0  0
   48.1149   22.8833    9.7197 H   0  0  0  0  0  0
   47.8925   24.3418    8.6951 H   0  0  0  0  0  0
   46.6464   23.0480    8.6985 H   0  0  0  0  0  0
   46.9443   24.2547   12.8921 H   0  0  0  0  0  0
   42.7699   24.5436   13.9314 H   0  0  0  0  0  0
   47.5767   24.4774   15.2702 H   0  0  0  0  0  0
   42.2509   24.8921   16.6406 H   0  0  0  0  0  0
   43.6126   25.1522   18.9254 H   0  0  0  0  0  0
   47.6735   24.8856   17.6754 H   0  0  0  0  0  0
   46.7329   24.2932   19.0864 H   0  0  0  0  0  0
   46.7596   26.0465   18.6971 H   0  0  0  0  0  0
   42.8713   29.7203    0.0813 H   0  0  0  0  0  0
   46.8164   32.2584   10.6094 H   0  0  0  0  0  0
   43.2516   38.1271    4.0701 H   0  0  0  0  0  0
  1  2  1  0  0  0
  1 55  1  0  0  0
  1 56  2  0  0  0
  2  3  1  0  0  0
  2 54  1  0  0  0
  2 68  1  0  0  0
  3  4  1  0  0  0
  3 69  1  0  0  0
  3 70  1  0  0  0
  4  5  1  0  0  0
  4 71  1  0  0  0
  4 72  1  0  0  0
  5  6  1  0  0  0
  5 73  1  0  0  0
  5 74  1  0  0  0
  6 54  1  0  0  0
  6 75  1  0  0  0
  6 76  1  0  0  0
  7  8  1  0  0  0
  7 54  1  0  0  0
  7 57  2  0  0  0
  8  9  1  0  0  0
  8 58  2  0  0  0
  9 10  1  0  0  0
  9 59  1  0  0  0
  9 60  1  0  0  0
 10 11  1  0  0  0
 10 34  1  0  0  0
 10 77  1  0  0  0
 11 12  1  0  0  0
 11 78  1  0  0  0
 11 79  1  0  0  0
 12 13  1  0  0  0
 12 61  1  0  0  0
 12 80  1  0  0  0
 13 14  1  0  0  0
 13 59  1  0  0  0
 13 81  1  0  0  0
 14 15  1  0  0  0
 14 62  1  0  0  0
 14 82  1  0  0  0
 15 16  1  0  0  0
 15 83  1  0  0  0
 15 84  1  0  0  0
 16 17  1  0  0  0
 16 35  1  0  0  0
 16 85  1  0  0  0
 17 18  1  0  0  0
 17 67  1  0  0  0
 17 86  1  0  0  0
 18 19  2  0  0  0
 18 36  1  0  0  0
 19 20  1  0  0  0
 19 87  1  0  0  0
 20 21  1  0  0  0
 20 37  1  0  0  0
 20 88  1  0  0  0
 21 22  1  0  0  0
 21 63  2  0  0  0
 22 23  1  0  0  0
 22 89  1  0  0  0
 22 90  1  0  0  0
 23 24  1  0  0  0
 23 64  1  0  0  0
 23 91  1  0  0  0
 24 25  1  0  0  0
 24 39  1  0  0  0
 24 92  1  0  0  0
 25 26  1  0  0  0
 25 55  1  0  0  0
 25 93  1  0  0  0
 26 27  2  0  0  0
 26 40  1  0  0  0
 27 28  1  0  0  0
 27 94  1  0  0  0
 28 29  1  0  0  0
 28 33  1  0  0  0
 28 95  1  0  0  0
 29 30  1  0  0  0
 29 96  1  0  0  0
 29 97  1  0  0  0
 30 31  1  0  0  0
 30 65  1  0  0  0
 30 98  1  0  0  0
 31 32  1  0  0  0
 31 66  1  0  0  0
 31 99  1  0  0  0
 32 33  1  0  0  0
 32100  1  0  0  0
 32101  1  0  0  0
 33102  1  0  0  0
 33103  1  0  0  0
 34104  1  0  0  0
 34105  1  0  0  0
 34106  1  0  0  0
 35107  1  0  0  0
 35108  1  0  0  0
 35109  1  0  0  0
 36110  1  0  0  0
 36111  1  0  0  0
 36112  1  0  0  0
 37 38  1  0  0  0
 37113  1  0  0  0
 37114  1  0  0  0
 38115  1  0  0  0
 38116  1  0  0  0
 38117  1  0  0  0
 39118  1  0  0  0
 39119  1  0  0  0
 39120  1  0  0  0
 40121  1  0  0  0
 40122  1  0  0  0
 40123  1  0  0  0
 41 61  1  0  0  0
 41124  1  0  0  0
 41125  1  0  0  0
 41126  1  0  0  0
 42 62  1  0  0  0
 42127  1  0  0  0
 42128  1  0  0  0
 42129  1  0  0  0
 43 65  1  0  0  0
 43130  1  0  0  0
 43131  1  0  0  0
 43132  1  0  0  0
 44 45  2  0  0  0
 44 46  1  0  0  0
 44 66  1  0  0  0
 45 48  1  0  0  0
 45133  1  0  0  0
 46 47  2  0  0  0
 46134  1  0  0  0
 47 49  1  0  0  0
 47 50  1  0  0  0
 48 49  2  0  0  0
 48135  1  0  0  0
 49 51  1  0  0  0
 50 52  2  0  0  0
 50136  1  0  0  0
 51 52  1  0  0  0
 51 53  1  0  0  0
 52137  1  0  0  0
 53138  1  0  0  0
 53139  1  0  0  0
 53140  1  0  0  0
 60141  1  0  0  0
 64142  1  0  0  0
 67143  1  0  0  0
M  END
> <s_m_source_file>
../1qpl_ligand.sdf

> <i_m_source_file_index>
1

> <s_epik_input>
W2NIXTFbY0hdbihbQ0gzXSljKGMxMilbY0hdW2NIXWMoW2NIXTIpT1tDQEhdKFtDSDJdW0NIMl0zKVtDQEhdKE9bQ0gzXSlbQ0gyXVtDQEBIXTNcW0NIXT1DKFtDSDNdKVxbQ0BASF0oT0MoPU8pW0NASF0oW0NIMl1bQ0gyXVtDSDJdW0NIMl00KU40Qyg9TylDKD1PKVtDQEBdNTZbT0hdKVtDQEhdKFtDSDNdKVtDQEBIXShbT0hdKVtDSDJdQyg9TylbQ0BIXShbQ0gyXVtDSDNdKVxbQ0hdPUMoW0NIM10pXFtDQEBIXShbT0hdKVtDQEhdKFtDSDNdKVtDSDJdW0NASF0oT1tDSDNdKVtDQEBIXShPNilbQ0BASF0oT1tDSDNdKVtDSDJdW0NASF01W0NIM10=

> <s_epik_cmdline>
J2VwaWtfYXBwJywgJy1pbWFlJywgJ2xpZ2FuZF9wcm8ubWFlJywgJy1vbWFlJywgJ2xpZ2FuZF9wcmVwLm1hZScsICctbXMnLCAnMScsICctcGgnLCAnNycsICctcGh0JywgJzAuNScsICctbnQn

> <r_lp_tautomer_probability>
1

> <r_epik_Ionization_Penalty>
  0.0046

> <r_epik_Ionization_Penalty_Charging>
  0.0000

> <r_epik_Ionization_Penalty_Neutral>
  0.0046

> <r_epik_State_Penalty>
 -0.0000

> <r_epik_Charging_Adjusted_Penalty>
0

> <i_epik_Tot_Q>
0

> <i_epik_Tot_abs_Q>
0

> <s_epik_Chemistry_Notes>
This compound has an ester and may undergo hydrolysis at high or low pH.

$$$$
