1qq9_ligand
                    3D
 Schrodinger Suite 2020-3.
 20 19  0  0  1  0            999 V2000
   16.1610   15.7560   51.9030 N   0  3  0  0  0  0
   15.0840   16.7390   51.5960 C   0  0  2  0  0  0
   13.8460   15.9300   51.3670 C   0  0  0  0  0  0
   12.7950   16.5100   51.4240 O   0  0  0  0  0  0
   15.4010   17.5300   50.3170 C   0  0  0  0  0  0
   16.1830   18.8460   50.5020 C   0  0  0  0  0  0
   17.8520   18.6530   51.0630 S   0  0  0  0  0  0
   18.6140   17.8140   49.5560 C   0  0  0  0  0  0
   13.8650   14.7210   51.1540 O   0  5  0  0  0  0
   15.9055   15.2071   52.8214 H   0  0  0  0  0  0
   17.1130   16.2881   52.0466 H   0  0  0  0  0  0
   16.2595   15.0472   51.0676 H   0  0  0  0  0  0
   14.9748   17.4398   52.4368 H   0  0  0  0  0  0
   16.0100   16.9092   49.6434 H   0  0  0  0  0  0
   14.4623   17.8049   49.8137 H   0  0  0  0  0  0
   16.2333   19.3806   49.5420 H   0  0  0  0  0  0
   15.6716   19.4750   51.2456 H   0  0  0  0  0  0
   19.6799   17.6186   49.7450 H   0  0  0  0  0  0
   18.5113   18.4708   48.6796 H   0  0  0  0  0  0
   18.0953   16.8631   49.3643 H   0  0  0  0  0  0
  1  2  1  0  0  0
  1 10  1  0  0  0
  1 11  1  0  0  0
  1 12  1  0  0  0
  2  3  1  0  0  0
  2  5  1  0  0  0
  2 13  1  0  0  0
  3  9  1  0  0  0
  3  4  2  0  0  0
  5  6  1  0  0  0
  5 14  1  0  0  0
  5 15  1  0  0  0
  6  7  1  0  0  0
  6 16  1  0  0  0
  6 17  1  0  0  0
  7  8  1  0  0  0
  8 18  1  0  0  0
  8 19  1  0  0  0
  8 20  1  0  0  0
M  CHG  2   1   1   9  -1
M  END
> <s_m_source_file>
../1qq9_ligand.sdf

> <i_m_source_file_index>
1

> <s_epik_input>
Tz1DKFtPSF0pW0NAQEhdKFtOSDMrXSlbQ0gyXVtDSDJdU1tDSDNd

> <s_epik_cmdline>
J2VwaWtfYXBwJywgJy1pbWFlJywgJ2xpZ2FuZF9wcm8ubWFlJywgJy1vbWFlJywgJ2xpZ2FuZF9wcmVwLm1hZScsICctbXMnLCAnMScsICctcGgnLCAnNycsICctcGh0JywgJzAuNScsICctbnQn

> <r_lp_tautomer_probability>
1

> <r_epik_Ionization_Penalty>
  0.0022

> <r_epik_Ionization_Penalty_Charging>
  0.0022

> <r_epik_Ionization_Penalty_Neutral>
  0.0000

> <r_epik_State_Penalty>
 -0.0000

> <r_epik_Charging_Adjusted_Penalty>
0.00220828419267234

> <i_epik_Tot_Q>
0

> <i_epik_Tot_abs_Q>
2

$$$$
