1qr3_ligand
                    3D
 Schrodinger Suite 2020-3.
132136  0  0  1  0            999 V2000
  -16.7450   18.0300   41.2070 C   0  0  0  0  0  0
  -15.9550   17.8560   39.9110 C   0  0  0  0  0  0
  -15.3320   16.8530   39.6000 O   0  0  0  0  0  0
  -15.9170   17.4220   42.3590 C   0  0  0  0  0  0
  -18.0940   17.3320   41.1260 C   0  0  0  0  0  0
  -15.9430   18.9220   39.1290 N   0  0  0  0  0  0
  -15.0220   19.0160   37.9970 C   0  0  1  0  0  0
  -15.6970   19.8400   36.8860 C   0  0  0  0  0  0
  -14.7390   20.4220   35.8350 C   0  0  0  0  0  0
  -14.0510   19.4300   34.9050 C   0  0  0  0  0  0
  -12.8690   20.0280   34.2680 N   0  0  0  0  0  0
  -13.7100   19.7510   38.4660 C   0  0  0  0  0  0
  -13.7670   20.9050   38.8730 O   0  0  0  0  0  0
  -12.5490   19.0530   38.3620 N   0  0  0  0  0  0
  -11.3120   19.7470   38.6520 C   0  0  2  0  0  0
  -10.9180   20.8040   37.6050 C   0  0  0  0  0  0
  -11.2560   20.7110   36.4320 O   0  0  0  0  0  0
  -10.0480   18.8100   38.8730 C   0  0  2  0  0  0
   -9.9740   17.8400   37.8380 O   0  0  0  0  0  0
  -10.1700   18.1630   40.2140 C   0  0  0  0  0  0
  -10.2070   21.8310   38.1710 N   0  0  0  0  0  0
   -9.8660   23.0540   37.4160 C   0  0  0  0  0  0
   -8.9000   22.9550   36.2820 C   0  0  0  0  0  0
   -8.6830   23.9490   35.5930 O   0  0  0  0  0  0
  -10.4160   24.2570   37.7240 C   0  0  0  0  0  0
  -11.4430   24.4510   38.8250 C   0  0  0  0  0  0
   -8.2970   21.8050   36.0850 N   0  0  0  0  0  0
   -7.3230   21.6780   35.0020 C   0  0  2  0  0  0
   -7.9660   21.0660   33.6970 C   0  0  0  0  0  0
   -9.1650   21.2290   33.4200 O   0  0  0  0  0  0
   -6.0990   20.8930   35.5100 C   0  0  0  0  0  0
   -5.1570   20.7380   34.3240 C   0  0  0  0  0  0
   -5.7730   19.8840   33.2300 C   0  0  1  0  0  0
   -6.1130   18.6080   33.7410 O   0  0  0  0  0  0
   -7.1200   20.3580   32.8470 N   0  0  0  0  0  0
   -7.6370   19.9960   31.5180 C   0  0  2  0  0  0
   -7.4550   18.4830   31.2310 C   0  0  0  0  0  0
   -6.4400   18.1230   30.6630 O   0  0  0  0  0  0
   -6.8850   20.7480   30.4090 C   0  0  0  0  0  0
   -6.9610   22.2470   30.5730 C   0  0  0  0  0  0
   -5.8900   22.8920   31.2370 C   0  0  0  0  0  0
   -8.1110   22.9260   30.0880 C   0  0  0  0  0  0
   -6.0510   24.2870   31.4250 C   0  0  0  0  0  0
   -8.2300   24.3180   30.2890 C   0  0  0  0  0  0
   -7.1890   24.9810   30.9590 C   0  0  0  0  0  0
   -8.3770   17.5800   31.6340 N   0  0  0  0  0  0
   -9.5890   17.9500   32.3710 C   0  0  2  0  0  0
   -9.8850   17.3540   33.7360 C   0  0  0  0  0  0
  -11.0370   17.0970   34.0610 O   0  0  0  0  0  0
   -8.1990   16.1220   31.4360 C   0  0  0  0  0  0
  -10.8040   17.7620   31.4840 C   0  0  0  0  0  0
  -10.9390   18.9350   30.5780 C   0  0  0  0  0  0
  -11.3840   20.1600   31.1040 C   0  0  0  0  0  0
  -10.5680   18.7830   29.2360 C   0  0  0  0  0  0
  -11.4940   21.2650   30.2760 C   0  0  0  0  0  0
  -10.6790   19.8990   28.4370 C   0  0  0  0  0  0
  -11.1180   21.1260   28.9490 C   0  0  0  0  0  0
  -10.3200   19.7710   27.1190 O   0  0  0  0  0  0
  -11.1630   22.2760   28.1420 O   0  0  0  0  0  0
  -11.6490   20.3650   32.4230 N   0  0  0  0  0  0
  -12.8010   19.9500   32.9380 C   0  0  0  0  0  0
  -13.6730   19.5030   32.2090 O   0  0  0  0  0  0
   -8.7720   17.2400   34.5010 N   0  0  0  0  0  0
   -8.8690   16.8490   35.9170 C   0  0  2  0  0  0
   -9.1200   18.0600   36.8660 C   0  0  0  0  0  0
   -8.5700   19.0980   36.6710 O   0  0  0  0  0  0
   -7.5930   16.1660   36.4220 C   0  0  0  0  0  0
   -7.9200   15.1490   37.5230 C   0  0  0  0  0  0
   -6.8170   15.5490   35.2830 C   0  0  0  0  0  0
  -16.9395   19.1004   41.3697 H   0  0  0  0  0  0
  -16.4665   17.5355   43.3051 H   0  0  0  0  0  0
  -14.9511   17.9434   42.4312 H   0  0  0  0  0  0
  -15.7433   16.3539   42.1617 H   0  0  0  0  0  0
  -18.6380   17.4748   42.0713 H   0  0  0  0  0  0
  -17.9406   16.2571   40.9499 H   0  0  0  0  0  0
  -18.6789   17.7594   40.2982 H   0  0  0  0  0  0
  -16.6401   19.7461   39.3407 H   0  0  0  0  0  0
  -14.8231   17.9900   37.6538 H   0  0  0  0  0  0
  -16.4127   19.2057   36.3425 H   0  0  0  0  0  0
  -16.2289   20.6926   37.3335 H   0  0  0  0  0  0
  -15.2901   21.1112   35.1782 H   0  0  0  0  0  0
  -13.9278   20.9668   36.3400 H   0  0  0  0  0  0
  -13.7306   18.5492   35.4808 H   0  0  0  0  0  0
  -14.7530   19.1179   34.1177 H   0  0  0  0  0  0
  -12.0958   20.5090   34.8851 H   0  0  0  0  0  0
  -12.5292   17.9932   38.0681 H   0  0  0  0  0  0
  -11.6619   20.2240   39.5794 H   0  0  0  0  0  0
   -9.0730   19.3153   38.8098 H   0  0  0  0  0  0
  -10.2250   18.9389   40.9918 H   0  0  0  0  0  0
   -9.2925   17.5246   40.3943 H   0  0  0  0  0  0
  -11.0823   17.5491   40.2433 H   0  0  0  0  0  0
   -9.8732   21.7581   39.2166 H   0  0  0  0  0  0
  -10.1212   25.1563   37.1633 H   0  0  0  0  0  0
  -11.7306   25.5116   38.8754 H   0  0  0  0  0  0
  -11.0107   24.1421   39.7882 H   0  0  0  0  0  0
  -12.3318   23.8399   38.6091 H   0  0  0  0  0  0
   -8.5203   20.9409   36.7280 H   0  0  0  0  0  0
   -7.0051   22.7053   34.7706 H   0  0  0  0  0  0
   -5.6156   21.4538   36.3235 H   0  0  0  0  0  0
   -6.4229   19.9105   35.8840 H   0  0  0  0  0  0
   -4.9294   21.7291   33.9045 H   0  0  0  0  0  0
   -4.2249   20.2577   34.6564 H   0  0  0  0  0  0
   -5.0483   19.8488   32.4032 H   0  0  0  0  0  0
   -5.3273   17.9452   34.1326 H   0  0  0  0  0  0
   -8.6966   20.2874   31.5669 H   0  0  0  0  0  0
   -5.8238   20.4590   30.4246 H   0  0  0  0  0  0
   -7.3204   20.4917   29.4319 H   0  0  0  0  0  0
   -5.0056   22.3544   31.5789 H   0  0  0  0  0  0
   -8.8943   22.3769   29.5654 H   0  0  0  0  0  0
   -5.2713   24.8424   31.9462 H   0  0  0  0  0  0
   -9.1049   24.8628   29.9343 H   0  0  0  0  0  0
   -7.2611   26.0562   31.1231 H   0  0  0  0  0  0
   -9.3194   18.9906   32.6045 H   0  0  0  0  0  0
   -7.2694   15.9387   30.8772 H   0  0  0  0  0  0
   -9.0526   15.7221   30.8691 H   0  0  0  0  0  0
   -8.1429   15.6232   32.4148 H   0  0  0  0  0  0
  -10.6830   16.8470   30.8856 H   0  0  0  0  0  0
  -11.7046   17.6747   32.1095 H   0  0  0  0  0  0
  -10.2100   17.8308   28.8444 H   0  0  0  0  0  0
  -11.8655   22.2163   30.6569 H   0  0  0  0  0  0
   -9.9774   18.7991   26.7342 H   0  0  0  0  0  0
  -11.5111   23.2305   28.5636 H   0  0  0  0  0  0
  -10.9101   20.8733   33.0599 H   0  0  0  0  0  0
   -7.7883   17.4433   34.0527 H   0  0  0  0  0  0
   -9.7197   16.1522   35.8882 H   0  0  0  0  0  0
   -6.9301   16.9283   36.8573 H   0  0  0  0  0  0
   -8.4835   15.6465   38.3261 H   0  0  0  0  0  0
   -6.9852   14.7376   37.9315 H   0  0  0  0  0  0
   -8.5258   14.3336   37.1008 H   0  0  0  0  0  0
   -6.6085   16.3166   34.5231 H   0  0  0  0  0  0
   -7.4089   14.7385   34.8327 H   0  0  0  0  0  0
   -5.8683   15.1425   35.6635 H   0  0  0  0  0  0
  1  5  1  0  0  0
  1  4  1  0  0  0
  1  2  1  0  0  0
  1 70  1  0  0  0
  2  3  2  0  0  0
  2  6  1  0  0  0
  4 71  1  0  0  0
  4 72  1  0  0  0
  4 73  1  0  0  0
  5 74  1  0  0  0
  5 75  1  0  0  0
  5 76  1  0  0  0
  6  7  1  0  0  0
  6 77  1  0  0  0
  7 12  1  0  0  0
  7  8  1  0  0  0
  7 78  1  0  0  0
  8  9  1  0  0  0
  8 79  1  0  0  0
  8 80  1  0  0  0
  9 10  1  0  0  0
  9 81  1  0  0  0
  9 82  1  0  0  0
 10 11  1  0  0  0
 10 83  1  0  0  0
 10 84  1  0  0  0
 11 61  1  0  0  0
 11 85  1  0  0  0
 12 13  2  0  0  0
 12 14  1  0  0  0
 14 15  1  0  0  0
 14 86  1  0  0  0
 15 16  1  0  0  0
 15 18  1  0  0  0
 15 87  1  0  0  0
 16 17  2  0  0  0
 16 21  1  0  0  0
 18 19  1  0  0  0
 18 20  1  0  0  0
 18 88  1  0  0  0
 19 65  1  0  0  0
 20 89  1  0  0  0
 20 90  1  0  0  0
 20 91  1  0  0  0
 21 22  1  0  0  0
 21 92  1  0  0  0
 22 25  2  0  0  0
 22 23  1  0  0  0
 23 24  2  0  0  0
 23 27  1  0  0  0
 25 26  1  0  0  0
 25 93  1  0  0  0
 26 94  1  0  0  0
 26 95  1  0  0  0
 26 96  1  0  0  0
 27 28  1  0  0  0
 27 97  1  0  0  0
 28 31  1  0  0  0
 28 29  1  0  0  0
 28 98  1  0  0  0
 29 30  2  0  0  0
 29 35  1  0  0  0
 31 32  1  0  0  0
 31 99  1  0  0  0
 31100  1  0  0  0
 32 33  1  0  0  0
 32101  1  0  0  0
 32102  1  0  0  0
 33 34  1  0  0  0
 33 35  1  0  0  0
 33103  1  0  0  0
 34104  1  0  0  0
 35 36  1  0  0  0
 36 37  1  0  0  0
 36 39  1  0  0  0
 36105  1  0  0  0
 37 38  2  0  0  0
 37 46  1  0  0  0
 39 40  1  0  0  0
 39106  1  0  0  0
 39107  1  0  0  0
 40 42  2  0  0  0
 40 41  1  0  0  0
 41 43  2  0  0  0
 41108  1  0  0  0
 42 44  1  0  0  0
 42109  1  0  0  0
 43 45  1  0  0  0
 43110  1  0  0  0
 44 45  2  0  0  0
 44111  1  0  0  0
 45112  1  0  0  0
 46 50  1  0  0  0
 46 47  1  0  0  0
 47 51  1  0  0  0
 47 48  1  0  0  0
 47113  1  0  0  0
 48 49  2  0  0  0
 48 63  1  0  0  0
 50114  1  0  0  0
 50115  1  0  0  0
 50116  1  0  0  0
 51 52  1  0  0  0
 51117  1  0  0  0
 51118  1  0  0  0
 52 54  2  0  0  0
 52 53  1  0  0  0
 53 60  1  0  0  0
 53 55  2  0  0  0
 54 56  1  0  0  0
 54119  1  0  0  0
 55 57  1  0  0  0
 55120  1  0  0  0
 56 57  2  0  0  0
 56 58  1  0  0  0
 57 59  1  0  0  0
 58121  1  0  0  0
 59122  1  0  0  0
 60 61  1  0  0  0
 60123  1  0  0  0
 61 62  2  0  0  0
 63 64  1  0  0  0
 63124  1  0  0  0
 64 65  1  0  0  0
 64 67  1  0  0  0
 64125  1  0  0  0
 65 66  2  0  0  0
 67 68  1  0  0  0
 67 69  1  0  0  0
 67126  1  0  0  0
 68127  1  0  0  0
 68128  1  0  0  0
 68129  1  0  0  0
 69130  1  0  0  0
 69131  1  0  0  0
 69132  1  0  0  0
M  END
> <s_m_source_file>
../1qr3_ligand.sdf

> <i_m_source_file_index>
1

> <s_epik_input>
W0NIM11bQ0hdKFtDSDNdKUMoPU8pW05IXVtDQEhdKEMoPU8pW05IXVtDQEhdMTIpW0NIMl1bQ0gyXVtDSDJdW05IXUMoPU8pW05IXWMzYyhbY0hdYyhbT0hdKWMoW2NIXTMpW09IXSlbQ0gyXVtDQEBIXShDKD1PKVtOSF1bQ0BASF0oW0NIXShbQ0gzXSlbQ0gzXSlDKD1PKU9bQ0BASF0yW0NIM10pTihbQ0gzXSlDKD1PKVtDQEhdKFtDSDJdYzRbY0hdW2NIXVtjSF1bY0hdW2NIXTQpTjVDKD1PKVtDQEhdKFtDSDJdW0NIMl1bQ0BIXTVbT0hdKVtOSF1DKD1PKUMoXFtOSF1DMT1PKT1bQ0hdXFtDSDNd

> <s_epik_cmdline>
J2VwaWtfYXBwJywgJy1pbWFlJywgJ2xpZ2FuZF9wcm8ubWFlJywgJy1vbWFlJywgJ2xpZ2FuZF9wcmVwLm1hZScsICctbXMnLCAnMScsICctcGgnLCAnNycsICctcGh0JywgJzAuNScsICctbnQn

> <r_lp_tautomer_probability>
1

> <r_epik_Ionization_Penalty>
  0.0017

> <r_epik_Ionization_Penalty_Charging>
  0.0000

> <r_epik_Ionization_Penalty_Neutral>
  0.0017

> <r_epik_State_Penalty>
 -0.0000

> <r_epik_Charging_Adjusted_Penalty>
0

> <i_epik_Tot_Q>
0

> <i_epik_Tot_abs_Q>
0

> <s_epik_Chemistry_Notes>
This compound has an ester and may undergo hydrolysis at high or low pH. This compound contains an acetal/aminal-like group ( X-CH(R)-Y where X, Y are N, S, or O) that may be acid/base labile, releasing an aldehyde.

$$$$
