1qs4_ligand
                    3D
 Schrodinger Suite 2020-3.
 27 29  0  0  1  0            999 V2000
  -22.0490   32.0510   62.8710 N   0  0  0  0  0  0
  -21.2990   32.3290   63.9980 N   0  0  0  0  0  0
  -20.3680   31.4200   64.2750 C   0  0  0  0  0  0
  -20.5250   30.5340   63.2910 N   0  0  0  0  0  0
  -21.5280   30.8530   62.4070 N   0  0  0  0  0  0
  -19.3920   31.4210   65.4150 C   0  0  0  0  0  0
  -18.4230   30.3230   65.5050 C   0  0  0  0  0  0
  -19.4220   32.4020   66.3250 O   0  0  0  0  0  0
  -14.8900   26.5850   69.6810 C   0  0  0  0  0  0
  -15.8100   27.5870   70.1230 C   0  0  0  0  0  0
  -16.4280   28.4960   69.2020 C   0  0  0  0  0  0
  -16.1220   28.3870   67.7950 C   0  0  0  0  0  0
  -15.1930   27.3660   67.3470 C   0  0  0  0  0  0
  -14.5770   26.4650   68.2840 C   0  0  0  0  0  0
  -16.5610   29.1220   66.6100 C   0  0  0  0  0  0
  -15.8990   28.5290   65.5150 C   0  0  0  0  0  0
  -15.0940   27.4950   65.9650 N   0  3  0  0  0  0
  -17.4660   30.1840   66.6050 C   0  0  0  0  0  0
  -17.4510   30.9940   67.5080 O   0  0  0  0  0  0
  -16.1610   27.7000   71.8170 Cl  0  0  0  0  0  0
  -18.9589   29.3630   65.5405 H   0  0  0  0  0  0
  -17.7638   30.3426   64.6246 H   0  0  0  0  0  0
  -14.4268   25.9130   70.4035 H   0  0  0  0  0  0
  -17.1195   29.2591   69.5593 H   0  0  0  0  0  0
  -13.8812   25.7005   67.9383 H   0  0  0  0  0  0
  -16.0695   28.9100   64.4973 H   0  0  0  0  0  0
  -14.4386   26.8200   65.3951 H   0  0  0  0  0  0
  1  5  2  0  0  0
  1  2  1  0  0  0
  2  3  2  0  0  0
  3  6  1  0  0  0
  3  4  1  0  0  0
  4  5  1  0  0  0
  6  8  2  0  0  0
  6  7  1  0  0  0
  7 18  1  0  0  0
  7 21  1  0  0  0
  7 22  1  0  0  0
  9 10  1  0  0  0
  9 14  2  0  0  0
  9 23  1  0  0  0
 10 11  2  0  0  0
 10 20  1  0  0  0
 11 12  1  0  0  0
 11 24  1  0  0  0
 12 15  1  0  0  0
 12 13  2  0  0  0
 13 14  1  0  0  0
 13 17  1  0  0  0
 14 25  1  0  0  0
 15 18  1  0  0  0
 15 16  2  0  0  0
 16 17  1  0  0  0
 16 26  1  0  0  0
 17 27  1  0  0  0
 18 19  2  0  0  0
M  CHG  1  17   1
M  END
> <s_m_source_file>
../1qs4_ligand.sdf

> <i_m_source_file_index>
1

> <s_epik_input>
W25IXTFubm5jMUMoPU8pW0NIMl1DKD1PKWMyW2NIXVtuSF1jKGMyMylbY0hdW2NIXWMoQ2wpW2NIXTM=

> <s_epik_cmdline>
J2VwaWtfYXBwJywgJy1pbWFlJywgJ2xpZ2FuZF9wcm8ubWFlJywgJy1vbWFlJywgJ2xpZ2FuZF9wcmVwLm1hZScsICctbXMnLCAnMScsICctcGgnLCAnNycsICctcGh0JywgJzAuNScsICctbnQn

> <r_lp_tautomer_probability>
1

> <r_epik_Ionization_Penalty>
  0.8328

> <r_epik_Ionization_Penalty_Charging>
  0.0000

> <r_epik_Ionization_Penalty_Neutral>
  0.8328

> <r_epik_State_Penalty>
 -0.0000

> <r_epik_Charging_Adjusted_Penalty>
0

> <i_epik_Tot_Q>
1

> <i_epik_Tot_abs_Q>
1

$$$$
