1qsc_ligand
                    3D
 Schrodinger Suite 2020-3.
107108  0  0  1  0            999 V2000
   35.6410   57.2280   -1.8670 C   0  0  0  0  0  0
   35.0650   57.5470   -0.8230 O   0  0  0  0  0  0
   35.8100   58.2390   -2.9970 C   0  0  0  0  0  0
   36.1350   56.0100   -2.0760 N   0  0  0  0  0  0
   36.0320   54.9670   -1.0660 C   0  0  2  0  0  0
   37.1920   55.0250   -0.0810 C   0  0  0  0  0  0
   38.3020   55.4260   -0.4300 O   0  0  0  0  0  0
   35.9990   53.5740   -1.7180 C   0  0  0  0  0  0
   34.7340   53.2760   -2.4950 C   0  0  0  0  0  0
   34.7630   52.4840   -3.6450 C   0  0  0  0  0  0
   33.5060   53.8010   -2.0890 C   0  0  0  0  0  0
   33.6010   52.2320   -4.3700 C   0  0  0  0  0  0
   32.3420   53.5540   -2.8030 C   0  0  0  0  0  0
   32.3930   52.7740   -3.9410 C   0  0  0  0  0  0
   31.2330   52.5510   -4.6480 O   0  0  0  0  0  0
   36.9340   54.6320    1.1730 N   0  0  0  0  0  0
   37.8700   54.5810    2.2990 C   0  0  2  0  0  0
   38.8980   53.5020    1.9740 C   0  0  0  0  0  0
   38.5880   52.5580    1.2480 O   0  0  0  0  0  0
   36.9890   54.1380    3.4710 C   0  0  0  0  0  0
   35.6060   54.4110    3.0240 C   0  0  0  0  0  0
   35.6130   54.1300    1.5750 C   0  0  0  0  0  0
   40.1060   53.6320    2.5100 N   0  0  0  0  0  0
   41.1470   52.6290    2.2940 C   0  0  2  0  0  0
   41.4090   51.9130    3.6170 C   0  0  0  0  0  0
   41.6150   52.5560    4.6380 O   0  0  0  0  0  0
   42.4480   53.2820    1.7920 C   0  0  2  0  0  0
   42.2030   53.8820    0.4100 C   0  0  0  0  0  0
   43.5870   52.2590    1.7650 C   0  0  0  0  0  0
   43.3650   54.6660   -0.1230 C   0  0  0  0  0  0
   41.3950   50.5840    3.6060 N   0  0  0  0  0  0
   41.6150   49.8240    4.8360 C   0  0  2  0  0  0
   43.0280   49.9270    5.3840 C   0  0  0  0  0  0
   43.9860   50.1430    4.6430 O   0  0  0  0  0  0
   41.2870   48.3400    4.6210 C   0  0  0  0  0  0
   39.8630   48.0740    4.1750 C   0  0  0  0  0  0
   39.5170   46.6030    4.1680 C   0  0  0  0  0  0
   40.2430   45.7850    3.6100 O   0  0  0  0  0  0
   38.3930   46.2590    4.7780 N   0  0  0  0  0  0
   43.1430   49.7770    6.6950 N   0  0  0  0  0  0
   44.4390   49.7990    7.3580 C   0  0  2  0  0  0
   45.1400   48.5100    6.9310 C   0  0  0  0  0  0
   44.4920   47.5730    6.4610 O   0  0  0  0  0  0
   44.2520   49.8010    8.8770 C   0  0  0  0  0  0
   43.4130   48.6300    9.3950 C   0  0  0  0  0  0
   43.2000   48.6670   10.9090 C   0  0  0  0  0  0
   42.3050   47.9480   11.4030 O   0  5  0  0  0  0
   43.9260   49.4010   11.6100 O   0  0  0  0  0  0
   46.4550   48.4560    7.0870 N   0  0  0  0  0  0
   47.1990   47.2610    6.7030 C   0  0  2  0  0  0
   47.5240   46.4330    7.9430 C   0  0  0  0  0  0
   47.4380   45.1860    7.8660 O   0  0  0  0  0  0
   48.5080   47.6200    5.9710 C   0  0  2  0  0  0
   49.3570   48.3750    6.8440 O   0  0  0  0  0  0
   48.2120   48.4410    4.7260 C   0  0  0  0  0  0
   47.8705   46.9906    9.0185 O   0  5  0  0  0  0
   35.3621   59.1988   -2.7003 H   0  0  0  0  0  0
   35.3089   57.8647   -3.9019 H   0  0  0  0  0  0
   36.8809   58.3824   -3.2036 H   0  0  0  0  0  0
   36.6292   55.7992   -3.0359 H   0  0  0  0  0  0
   35.0885   55.1910   -0.5467 H   0  0  0  0  0  0
   36.8380   53.4792   -2.4231 H   0  0  0  0  0  0
   36.0858   52.8023   -0.9389 H   0  0  0  0  0  0
   35.7084   52.0571   -3.9798 H   0  0  0  0  0  0
   33.4604   54.4183   -1.1918 H   0  0  0  0  0  0
   33.6373   51.6144   -5.2674 H   0  0  0  0  0  0
   31.3934   53.9732   -2.4675 H   0  0  0  0  0  0
   31.2534   51.9323   -5.5573 H   0  0  0  0  0  0
   38.3828   55.5371    2.4803 H   0  0  0  0  0  0
   37.1513   53.0680    3.6677 H   0  0  0  0  0  0
   37.2513   54.7195    4.3672 H   0  0  0  0  0  0
   34.9096   53.7517    3.5629 H   0  0  0  0  0  0
   35.3534   55.4609    3.2336 H   0  0  0  0  0  0
   34.8310   54.6754    1.0264 H   0  0  0  0  0  0
   35.5426   53.0569    1.3437 H   0  0  0  0  0  0
   40.3154   54.5178    3.1277 H   0  0  0  0  0  0
   40.7626   51.9368    1.5304 H   0  0  0  0  0  0
   42.7536   54.0899    2.4730 H   0  0  0  0  0  0
   41.9959   53.0752   -0.3085 H   0  0  0  0  0  0
   41.3411   54.5641    0.4539 H   0  0  0  0  0  0
   43.7352   51.8485    2.7747 H   0  0  0  0  0  0
   44.5125   52.7495    1.4291 H   0  0  0  0  0  0
   43.3315   51.4441    1.0717 H   0  0  0  0  0  0
   43.1135   55.0644   -1.1170 H   0  0  0  0  0  0
   44.2443   54.0099   -0.2027 H   0  0  0  0  0  0
   43.5895   55.4987    0.5598 H   0  0  0  0  0  0
   41.2154   50.0560    2.6579 H   0  0  0  0  0  0
   40.9316   50.3146    5.5447 H   0  0  0  0  0  0
   41.9493   47.9267    3.8461 H   0  0  0  0  0  0
   41.4370   47.7912    5.5624 H   0  0  0  0  0  0
   39.1644   48.5803    4.8574 H   0  0  0  0  0  0
   39.7209   48.4575    3.1539 H   0  0  0  0  0  0
   37.7741   47.0271    5.2648 H   0  0  0  0  0  0
   38.0783   45.2052    4.7978 H   0  0  0  0  0  0
   42.2258   49.6329    7.2849 H   0  0  0  0  0  0
   44.9821   50.7080    7.0601 H   0  0  0  0  0  0
   45.2348   49.7420    9.3675 H   0  0  0  0  0  0
   43.7447   50.7279    9.1828 H   0  0  0  0  0  0
   42.4216   48.6503    8.9188 H   0  0  0  0  0  0
   43.9167   47.6826    9.1528 H   0  0  0  0  0  0
   46.9854   49.3219    7.5099 H   0  0  0  0  0  0
   46.5258   46.7119    6.0283 H   0  0  0  0  0  0
   49.0709   46.7138    5.7029 H   0  0  0  0  0  0
   49.6822   47.9446    7.8027 H   0  0  0  0  0  0
   47.5602   47.8645    4.0531 H   0  0  0  0  0  0
   49.1543   48.6775    4.2101 H   0  0  0  0  0  0
   47.7073   49.3750    5.0141 H   0  0  0  0  0  0
  1  2  2  0  0  0
  1  3  1  0  0  0
  1  4  1  0  0  0
  3 57  1  0  0  0
  3 58  1  0  0  0
  3 59  1  0  0  0
  4  5  1  0  0  0
  4 60  1  0  0  0
  5  6  1  0  0  0
  5  8  1  0  0  0
  5 61  1  0  0  0
  6  7  2  0  0  0
  6 16  1  0  0  0
  8  9  1  0  0  0
  8 62  1  0  0  0
  8 63  1  0  0  0
  9 11  2  0  0  0
  9 10  1  0  0  0
 10 12  2  0  0  0
 10 64  1  0  0  0
 11 13  1  0  0  0
 11 65  1  0  0  0
 12 14  1  0  0  0
 12 66  1  0  0  0
 13 14  2  0  0  0
 13 67  1  0  0  0
 14 15  1  0  0  0
 15 68  1  0  0  0
 16 17  1  0  0  0
 16 22  1  0  0  0
 17 20  1  0  0  0
 17 18  1  0  0  0
 17 69  1  0  0  0
 18 19  2  0  0  0
 18 23  1  0  0  0
 20 21  1  0  0  0
 20 70  1  0  0  0
 20 71  1  0  0  0
 21 22  1  0  0  0
 21 72  1  0  0  0
 21 73  1  0  0  0
 22 74  1  0  0  0
 22 75  1  0  0  0
 23 24  1  0  0  0
 23 76  1  0  0  0
 24 25  1  0  0  0
 24 27  1  0  0  0
 24 77  1  0  0  0
 25 26  2  0  0  0
 25 31  1  0  0  0
 27 28  1  0  0  0
 27 29  1  0  0  0
 27 78  1  0  0  0
 28 30  1  0  0  0
 28 79  1  0  0  0
 28 80  1  0  0  0
 29 81  1  0  0  0
 29 82  1  0  0  0
 29 83  1  0  0  0
 30 84  1  0  0  0
 30 85  1  0  0  0
 30 86  1  0  0  0
 31 32  1  0  0  0
 31 87  1  0  0  0
 32 33  1  0  0  0
 32 35  1  0  0  0
 32 88  1  0  0  0
 33 34  2  0  0  0
 33 40  1  0  0  0
 35 36  1  0  0  0
 35 89  1  0  0  0
 35 90  1  0  0  0
 36 37  1  0  0  0
 36 91  1  0  0  0
 36 92  1  0  0  0
 37 38  2  0  0  0
 37 39  1  0  0  0
 39 93  1  0  0  0
 39 94  1  0  0  0
 40 41  1  0  0  0
 40 95  1  0  0  0
 41 42  1  0  0  0
 41 44  1  0  0  0
 41 96  1  0  0  0
 42 43  2  0  0  0
 42 49  1  0  0  0
 44 45  1  0  0  0
 44 97  1  0  0  0
 44 98  1  0  0  0
 45 46  1  0  0  0
 45 99  1  0  0  0
 45100  1  0  0  0
 46 47  1  0  0  0
 46 48  2  0  0  0
 49 50  1  0  0  0
 49101  1  0  0  0
 50 51  1  0  0  0
 50 53  1  0  0  0
 50102  1  0  0  0
 51 52  2  0  0  0
 51 56  1  0  0  0
 53 54  1  0  0  0
 53 55  1  0  0  0
 53103  1  0  0  0
 54104  1  0  0  0
 55105  1  0  0  0
 55106  1  0  0  0
 55107  1  0  0  0
M  CHG  2  47  -1  56  -1
M  END
> <s_m_source_file>
../1qsc_ligand.sdf

> <i_m_source_file_index>
1

> <s_epik_input>
W2NIXTFbY0hdYyhbT0hdKVtjSF1bY0hdYzFbQ0gyXVtDQEhdKFtOSF1DKD1PKVtDSDNdKUMoPU8pTjJbQ0BASF0oW0NIMl1bQ0gyXVtDSDJdMilDKD1PKVtOSF1bQ0BASF0oW0NAQEhdKFtDSDNdKVtDSDJdW0NIM10pQyg9TylbTkhdW0NAQEhdKFtDSDJdW0NIMl1DKD1PKVtOSDJdKUMoPU8pW05IXVtDQEBIXShbQ0gyXVtDSDJdQyg9TylbT0hdKUMoPU8pW05IXVtDQEhdKEMoPU8pW09IXSlbQ0BIXShbT0hdKVtDSDNd

> <s_epik_cmdline>
J2VwaWtfYXBwJywgJy1pbWFlJywgJ2xpZ2FuZF9wcm8ubWFlJywgJy1vbWFlJywgJ2xpZ2FuZF9wcmVwLm1hZScsICctbXMnLCAnMScsICctcGgnLCAnNycsICctcGh0JywgJzAuNScsICctbnQn

> <r_lp_tautomer_probability>
1

> <r_epik_Ionization_Penalty>
  0.0030

> <r_epik_Ionization_Penalty_Charging>
  0.0020

> <r_epik_Ionization_Penalty_Neutral>
  0.0010

> <r_epik_State_Penalty>
 -0.0000

> <r_epik_Charging_Adjusted_Penalty>
0.00199428965171518

> <i_epik_Tot_Q>
-2

> <i_epik_Tot_abs_Q>
2

$$$$
