1qti_ligand
                    3D
 Schrodinger Suite 2020-3.
 43 46  0  0  1  0            999 V2000
    2.5530   67.3160   62.6050 C   0  0  0  0  0  0
    2.7290   67.7550   61.3290 C   0  0  0  0  0  0
    4.0990   67.8980   60.6750 C   0  0  1  0  0  0
    5.2170   68.0400   61.7620 C   0  0  0  0  0  0
    5.1000   66.9120   62.8380 C   0  0  1  0  0  0
    3.6940   66.9260   63.5830 C   0  0  1  0  0  0
    5.2830   65.5770   62.2900 O   0  0  0  0  0  0
    4.6660   63.3810   63.2290 C   0  0  0  0  0  0
    3.8040   62.6760   64.1490 C   0  0  0  0  0  0
    2.8430   63.3810   64.9370 C   0  0  0  0  0  0
    1.6820   65.5880   65.6730 C   0  0  0  0  0  0
    2.2900   66.6590   66.5310 N   0  3  1  0  0  0
    2.5880   67.9390   65.7790 C   0  0  0  0  0  0
    3.8370   67.8410   64.8550 C   0  0  0  0  0  0
    4.5190   64.7850   63.1420 C   0  0  0  0  0  0
    3.5760   65.4640   63.9210 C   0  0  0  0  0  0
    2.7100   64.7950   64.8430 C   0  0  0  0  0  0
    5.8720   61.3440   62.4200 C   0  0  0  0  0  0
    5.6390   62.7660   62.4180 O   0  0  0  0  0  0
    4.3410   66.7390   59.8510 O   0  0  0  0  0  0
    1.3860   66.9580   67.6870 C   0  0  0  0  0  0
    1.5380   67.2146   63.0167 H   0  0  0  0  0  0
    1.8573   68.0272   60.7159 H   0  0  0  0  0  0
    4.1064   68.7609   59.9929 H   0  0  0  0  0  0
    6.2049   67.9693   61.2833 H   0  0  0  0  0  0
    5.1207   69.0151   62.2618 H   0  0  0  0  0  0
    5.9532   67.0609   63.5161 H   0  0  0  0  0  0
    3.8876   61.5933   64.2432 H   0  0  0  0  0  0
    2.2010   62.8267   65.6216 H   0  0  0  0  0  0
    1.1507   64.8655   66.3100 H   0  0  0  0  0  0
    0.9736   66.0432   64.9653 H   0  0  0  0  0  0
    3.2493   66.2576   66.8897 H   0  0  0  0  0  0
    1.7286   68.1996   65.1438 H   0  0  0  0  0  0
    2.7730   68.7515   66.4970 H   0  0  0  0  0  0
    4.6528   67.4630   65.4888 H   0  0  0  0  0  0
    4.0630   68.8711   64.5422 H   0  0  0  0  0  0
    6.6759   61.1032   61.7088 H   0  0  0  0  0  0
    4.9509   60.8211   62.1231 H   0  0  0  0  0  0
    6.1671   61.0222   63.4297 H   0  0  0  0  0  0
    3.6476   66.4905   59.0340 H   0  0  0  0  0  0
    1.1696   66.0281   68.2333 H   0  0  0  0  0  0
    0.4462   67.3919   67.3148 H   0  0  0  0  0  0
    1.8783   67.6736   68.3619 H   0  0  0  0  0  0
  1  2  2  0  0  0
  1  6  1  0  0  0
  1 22  1  0  0  0
  2  3  1  0  0  0
  2 23  1  0  0  0
  3  4  1  0  0  0
  3 20  1  0  0  0
  3 24  1  0  0  0
  4  5  1  0  0  0
  4 25  1  0  0  0
  4 26  1  0  0  0
  5  6  1  0  0  0
  5  7  1  0  0  0
  5 27  1  0  0  0
  6 14  1  0  0  0
  6 16  1  0  0  0
  7 15  1  0  0  0
  8  9  2  0  0  0
  8 15  1  0  0  0
  8 19  1  0  0  0
  9 10  1  0  0  0
  9 28  1  0  0  0
 10 17  2  0  0  0
 10 29  1  0  0  0
 11 12  1  0  0  0
 11 17  1  0  0  0
 11 30  1  0  0  0
 11 31  1  0  0  0
 12 13  1  0  0  0
 12 21  1  0  0  0
 12 32  1  0  0  0
 13 14  1  0  0  0
 13 33  1  0  0  0
 13 34  1  0  0  0
 14 35  1  0  0  0
 14 36  1  0  0  0
 15 16  2  0  0  0
 16 17  1  0  0  0
 18 19  1  0  0  0
 18 37  1  0  0  0
 18 38  1  0  0  0
 18 39  1  0  0  0
 20 40  1  0  0  0
 21 41  1  0  0  0
 21 42  1  0  0  0
 21 43  1  0  0  0
M  CHG  1  12   1
M  END
> <s_m_source_file>
../1qti_ligand.sdf

> <i_m_source_file_index>
1

> <s_epik_input>
W0NIXTE9W0NIXVtDQEhdKFtPSF0pW0NIMl1bQ0BASF0oW0NAXTEyMylPYzRjM2MoW0NIMl1bTkBIK10oW0NIM10pW0NIMl1bQ0gyXTIpW2NIXVtjSF1jNE9bQ0gzXQ==

> <s_epik_cmdline>
J2VwaWtfYXBwJywgJy1pbWFlJywgJ2xpZ2FuZF9wcm8ubWFlJywgJy1vbWFlJywgJ2xpZ2FuZF9wcmVwLm1hZScsICctbXMnLCAnMScsICctcGgnLCAnNycsICctcGh0JywgJzAuNScsICctbnQn

> <r_lp_tautomer_probability>
1

> <r_epik_Ionization_Penalty>
  0.0211

> <r_epik_Ionization_Penalty_Charging>
  0.0211

> <r_epik_Ionization_Penalty_Neutral>
  0.0000

> <r_epik_State_Penalty>
  0.0169

> <r_epik_Charging_Adjusted_Penalty>
0.0379604800893199

> <i_epik_Tot_Q>
1

> <i_epik_Tot_abs_Q>
1

$$$$
