1qtn_ligand
                    3D
 Schrodinger Suite 2020-3.
 67 66  0  0  1  0            999 V2000
   -7.1860   31.9810   48.8980 C   0  0  0  0  0  0
   -6.4440   32.7670   48.3130 O   0  0  0  0  0  0
   -7.2140   31.9300   50.4170 C   0  0  0  0  0  0
   -7.9530   31.1000   48.2840 N   0  0  0  0  0  0
   -8.0240   31.0360   46.8130 C   0  0  2  0  0  0
   -8.6890   32.2830   46.2700 C   0  0  0  0  0  0
   -9.5050   32.9260   46.9180 O   0  0  0  0  0  0
   -8.8720   29.7980   46.4210 C   0  0  2  0  0  0
   -8.4730   29.2540   45.0490 C   0  0  0  0  0  0
  -10.3420   30.0660   46.5310 C   0  0  0  0  0  0
   -9.3150   28.0830   44.6370 C   0  0  0  0  0  0
   -8.2360   32.7080   45.0950 N   0  0  0  0  0  0
   -8.7310   33.9090   44.4360 C   0  0  2  0  0  0
   -9.2620   33.5640   43.0380 C   0  0  0  0  0  0
   -8.9140   32.4840   42.5100 O   0  0  0  0  0  0
   -7.6150   34.9550   44.3190 C   0  0  0  0  0  0
   -7.0860   35.3600   45.7050 C   0  0  0  0  0  0
   -6.0700   36.4480   45.6790 C   0  0  0  0  0  0
   -5.6130   36.9390   44.6390 O   0  0  0  0  0  0
   -5.7090   36.9300   46.8300 O   0  5  0  0  0  0
  -10.0650   34.4230   42.4790 N   0  0  0  0  0  0
  -10.5910   34.2090   41.1470 C   0  0  2  0  0  0
   -9.9040   35.1120   40.1380 C   0  0  0  0  0  0
   -9.5160   36.2340   40.4330 O   0  0  0  0  0  0
  -12.1090   34.4360   41.0830 C   0  0  2  0  0  0
  -12.4350   35.7250   41.5660 O   0  0  0  0  0  0
  -12.8520   33.4120   41.8780 C   0  0  0  0  0  0
  -10.5950   35.9080   37.0360 C   0  0  0  0  0  0
   -9.7940   34.6170   38.9100 N   0  0  0  0  0  0
  -10.2860   36.7480   35.9590 O   0  5  0  0  0  0
   -9.3830   35.4420   37.7790 C   0  0  1  0  0  0
   -8.4780   34.5900   36.8380 C   0  0  0  0  0  0
   -7.0470   34.5390   37.3480 C   0  0  0  0  0  0
   -6.6410   35.3890   38.1580 O   0  0  0  0  0  0
   -6.2830   33.6170   36.9380 O   0  5  0  0  0  0
  -11.7890   35.4080   37.5700 O   0  0  0  0  0  0
   -6.5433   32.7020   50.8222 H   0  0  0  0  0  0
   -6.8796   30.9387   50.7568 H   0  0  0  0  0  0
   -8.2393   32.1124   50.7711 H   0  0  0  0  0  0
   -8.5473   30.4039   48.8941 H   0  0  0  0  0  0
   -6.9941   30.9839   46.4302 H   0  0  0  0  0  0
   -8.6856   28.9939   47.1482 H   0  0  0  0  0  0
   -8.5925   30.0437   44.2926 H   0  0  0  0  0  0
   -7.4230   28.9273   45.0753 H   0  0  0  0  0  0
  -10.5698   30.4540   47.5348 H   0  0  0  0  0  0
  -10.8985   29.1320   46.3639 H   0  0  0  0  0  0
  -10.6368   30.8088   45.7751 H   0  0  0  0  0  0
   -8.9910   27.7286   43.6474 H   0  0  0  0  0  0
  -10.3705   28.3890   44.5894 H   0  0  0  0  0  0
   -9.2010   27.2727   45.3721 H   0  0  0  0  0  0
   -7.4490   32.1043   44.6194 H   0  0  0  0  0  0
   -9.5414   34.2842   45.0783 H   0  0  0  0  0  0
   -6.7822   34.5387   43.7332 H   0  0  0  0  0  0
   -8.0047   35.8522   43.8159 H   0  0  0  0  0  0
   -7.9212   35.7145   46.3270 H   0  0  0  0  0  0
   -6.6140   34.4905   46.1858 H   0  0  0  0  0  0
  -10.3423   35.3269   43.0412 H   0  0  0  0  0  0
  -10.3517   33.1547   40.9438 H   0  0  0  0  0  0
  -12.4579   34.4065   40.0402 H   0  0  0  0  0  0
  -11.9840   36.6157   41.1042 H   0  0  0  0  0  0
  -12.6021   32.4072   41.5065 H   0  0  0  0  0  0
  -13.9339   33.5823   41.7754 H   0  0  0  0  0  0
  -12.5670   33.4926   42.9374 H   0  0  0  0  0  0
  -10.0233   33.5518   38.7592 H   0  0  0  0  0  0
   -8.8608   36.3227   38.1812 H   0  0  0  0  0  0
   -8.8681   33.5629   36.7854 H   0  0  0  0  0  0
   -8.4757   35.0333   35.8313 H   0  0  0  0  0  0
  1  2  2  0  0  0
  1  3  1  0  0  0
  1  4  1  0  0  0
  3 37  1  0  0  0
  3 38  1  0  0  0
  3 39  1  0  0  0
  4  5  1  0  0  0
  4 40  1  0  0  0
  5  6  1  0  0  0
  5  8  1  0  0  0
  5 41  1  0  0  0
  6  7  2  0  0  0
  6 12  1  0  0  0
  8  9  1  0  0  0
  8 10  1  0  0  0
  8 42  1  0  0  0
  9 11  1  0  0  0
  9 43  1  0  0  0
  9 44  1  0  0  0
 10 45  1  0  0  0
 10 46  1  0  0  0
 10 47  1  0  0  0
 11 48  1  0  0  0
 11 49  1  0  0  0
 11 50  1  0  0  0
 12 13  1  0  0  0
 12 51  1  0  0  0
 13 14  1  0  0  0
 13 16  1  0  0  0
 13 52  1  0  0  0
 14 15  2  0  0  0
 14 21  1  0  0  0
 16 17  1  0  0  0
 16 53  1  0  0  0
 16 54  1  0  0  0
 17 18  1  0  0  0
 17 55  1  0  0  0
 17 56  1  0  0  0
 18 19  2  0  0  0
 18 20  1  0  0  0
 21 22  1  0  0  0
 21 57  1  0  0  0
 22 23  1  0  0  0
 22 25  1  0  0  0
 22 58  1  0  0  0
 23 24  2  0  0  0
 23 29  1  0  0  0
 25 26  1  0  0  0
 25 27  1  0  0  0
 25 59  1  0  0  0
 26 60  1  0  0  0
 27 61  1  0  0  0
 27 62  1  0  0  0
 27 63  1  0  0  0
 28 30  1  0  0  0
 28 31  1  0  0  0
 28 36  2  0  0  0
 29 31  1  0  0  0
 29 64  1  0  0  0
 31 32  1  0  0  0
 31 65  1  0  0  0
 32 33  1  0  0  0
 32 66  1  0  0  0
 32 67  1  0  0  0
 33 34  2  0  0  0
 33 35  1  0  0  0
M  CHG  3  20  -1  30  -1  35  -1
M  END
> <s_m_source_file>
../1qtn_ligand.sdf

> <i_m_source_file_index>
1

> <s_epik_input>
Tz1DKFtDSDNdKVtOSF1bQ0BASF0oW0NAQEhdKFtDSDNdKVtDSDJdW0NIM10pQyg9TylbTkhdW0NAQEhdKFtDSDJdW0NIMl1DKD1PKVtPSF0pQyg9TylbTkhdW0NAQEhdKFtDQEhdKFtPSF0pW0NIM10pQyg9TylbTkhdW0NASF0oQyg9TylbT0hdKVtDSDJdQyg9TylbT0hd

> <s_epik_cmdline>
J2VwaWtfYXBwJywgJy1pbWFlJywgJ2xpZ2FuZF9wcm8ubWFlJywgJy1vbWFlJywgJ2xpZ2FuZF9wcmVwLm1hZScsICctbXMnLCAnMScsICctcGgnLCAnNycsICctcGh0JywgJzAuNScsICctbnQn

> <r_lp_tautomer_probability>
1

> <r_epik_Ionization_Penalty>
  0.0031

> <r_epik_Ionization_Penalty_Charging>
  0.0031

> <r_epik_Ionization_Penalty_Neutral>
  0.0000

> <r_epik_State_Penalty>
 -0.0000

> <r_epik_Charging_Adjusted_Penalty>
0.0031378999416159

> <i_epik_Tot_Q>
-3

> <i_epik_Tot_abs_Q>
3

$$$$
