1qvt_ligand
                    3D
 Schrodinger Suite 2020-3.
 28 30  0  0  1  0            999 V2000
  -61.7170  -45.6280    3.2670 C   0  0  0  0  0  0
  -61.8070  -45.7260    1.8910 C   0  0  0  0  0  0
  -62.9320  -46.2690    1.3150 C   0  0  0  0  0  0
  -63.9730  -46.7140    2.0930 C   0  0  0  0  0  0
  -65.9230  -47.4550    6.3200 C   0  0  0  0  0  0
  -65.8820  -47.3820    7.6910 C   0  0  0  0  0  0
  -64.7670  -46.8370    8.3240 C   0  0  0  0  0  0
  -63.6960  -46.3670    7.5790 C   0  0  0  0  0  0
  -62.6830  -45.9840    5.4360 C   0  0  0  0  0  0
  -64.9270  -47.0720    4.2210 N   0  3  0  0  0  0
  -63.8810  -46.6190    3.4600 C   0  0  0  0  0  0
  -63.7330  -46.4410    6.2160 C   0  0  0  0  0  0
  -62.7490  -46.0670    4.0640 C   0  0  0  0  0  0
  -64.8680  -46.9910    5.5900 C   0  0  0  0  0  0
  -63.0560  -46.3820   -0.0180 N   0  0  0  0  0  0
  -66.9400  -47.8480    8.3890 N   0  0  0  0  0  0
  -60.8238  -45.2007    3.7229 H   0  0  0  0  0  0
  -60.9882  -45.3737    1.2637 H   0  0  0  0  0  0
  -64.8637  -47.1385    1.6298 H   0  0  0  0  0  0
  -66.7923  -47.8807    5.8188 H   0  0  0  0  0  0
  -64.7363  -46.7797    9.4121 H   0  0  0  0  0  0
  -62.8273  -45.9398    8.0799 H   0  0  0  0  0  0
  -61.8002  -45.5566    5.9115 H   0  0  0  0  0  0
  -62.2453  -46.0377   -0.6769 H   0  0  0  0  0  0
  -63.9682  -46.8188   -0.4504 H   0  0  0  0  0  0
  -67.8051  -48.2724    7.8585 H   0  0  0  0  0  0
  -66.9367  -47.8032    9.4881 H   0  0  0  0  0  0
  -65.8155  -47.5013    3.7348 H   0  0  0  0  0  0
  1  2  2  0  0  0
  1 13  1  0  0  0
  1 17  1  0  0  0
  2  3  1  0  0  0
  2 18  1  0  0  0
  3  4  2  0  0  0
  3 15  1  0  0  0
  4 11  1  0  0  0
  4 19  1  0  0  0
  5  6  1  0  0  0
  5 14  2  0  0  0
  5 20  1  0  0  0
  6  7  2  0  0  0
  6 16  1  0  0  0
  7  8  1  0  0  0
  7 21  1  0  0  0
  8 12  2  0  0  0
  8 22  1  0  0  0
  9 12  1  0  0  0
  9 13  2  0  0  0
  9 23  1  0  0  0
 10 11  2  0  0  0
 10 14  1  0  0  0
 10 28  1  0  0  0
 11 13  1  0  0  0
 12 14  1  0  0  0
 15 24  1  0  0  0
 15 25  1  0  0  0
 16 26  1  0  0  0
 16 27  1  0  0  0
M  CHG  1  10   1
M  END
> <s_m_source_file>
../1qvt_ligand.sdf

> <i_m_source_file_index>
1

> <s_epik_input>
W2NIXTFjKFtOSDJdKVtjSF1bY0hdYyhjMTIpW2NIXWMzYyhuMilbY0hdYyhbTkgyXSlbY0hdW2NIXTM=

> <s_epik_cmdline>
J2VwaWtfYXBwJywgJy1pbWFlJywgJ2xpZ2FuZF9wcm8ubWFlJywgJy1vbWFlJywgJ2xpZ2FuZF9wcmVwLm1hZScsICctbXMnLCAnMScsICctcGgnLCAnNycsICctcGh0JywgJzAuNScsICctbnQn

> <r_epik_Ionization_Penalty>
  0.0375

> <r_epik_Ionization_Penalty_Charging>
  0.0375

> <r_epik_Ionization_Penalty_Neutral>
  0.0000

> <r_epik_State_Penalty>
  0.0308

> <r_epik_Charging_Adjusted_Penalty>
0.068376616894715

> <i_epik_Tot_Q>
1

> <i_epik_Tot_abs_Q>
1

$$$$
