1qw7_ligand
                    3D
 Schrodinger Suite 2020-3.
 35 35  0  0  1  0            999 V2000
   30.8390   11.0220   -4.8710 C   0  0  0  0  0  0
   29.4360   11.3290   -4.6990 C   0  0  0  0  0  0
   28.4050   10.7800   -5.6010 C   0  0  0  0  0  0
   28.8350    9.9310   -6.6580 C   0  0  0  0  0  0
   30.1870    9.6320   -6.8170 C   0  0  0  0  0  0
   31.2150   10.1750   -5.9200 C   0  0  0  0  0  0
   31.8810   11.6210   -3.9330 C   0  0  0  0  0  0
   27.8160    9.3660   -7.6080 C   0  0  0  0  0  0
   34.6050   11.0510   -5.4570 C   0  0  0  0  0  0
   35.9960   11.4240   -5.1000 C   0  0  0  0  0  0
   32.1190   15.2480   -5.4460 C   0  0  0  0  0  0
   31.3440   15.9500   -4.3710 C   0  0  0  0  0  0
   32.7920   12.8840   -4.4960 P   0  0  0  0  0  0
   33.7530   12.2560   -5.6230 O   0  0  0  0  0  0
   31.8390   13.8080   -5.2910 O   0  0  0  0  0  0
   33.5080   13.5690   -3.4280 O   0  0  0  0  0  0
   29.1322   11.9831   -3.8817 H   0  0  0  0  0  0
   27.3502   11.0170   -5.4619 H   0  0  0  0  0  0
   30.4905    8.9750   -7.6321 H   0  0  0  0  0  0
   32.2641    9.9201   -6.0701 H   0  0  0  0  0  0
   31.3838   12.0050   -3.0300 H   0  0  0  0  0  0
   32.6081   10.8457   -3.6496 H   0  0  0  0  0  0
   26.8132    9.7139   -7.3194 H   0  0  0  0  0  0
   27.8482    8.2672   -7.5692 H   0  0  0  0  0  0
   28.0411    9.7036   -8.6304 H   0  0  0  0  0  0
   34.6073   10.4893   -6.4028 H   0  0  0  0  0  0
   34.1771   10.4252   -4.6599 H   0  0  0  0  0  0
   36.6016   10.5131   -4.9840 H   0  0  0  0  0  0
   35.9937   11.9857   -4.1542 H   0  0  0  0  0  0
   36.4239   12.0497   -5.8971 H   0  0  0  0  0  0
   31.7889   15.6090   -6.4312 H   0  0  0  0  0  0
   33.1918   15.4559   -5.3199 H   0  0  0  0  0  0
   31.5183   17.0338   -4.4416 H   0  0  0  0  0  0
   31.6741   15.5890   -3.3858 H   0  0  0  0  0  0
   30.2712   15.7421   -4.4972 H   0  0  0  0  0  0
  1  2  2  0  0  0
  1  6  1  0  0  0
  1  7  1  0  0  0
  2  3  1  0  0  0
  2 17  1  0  0  0
  3  4  2  0  0  0
  3 18  1  0  0  0
  4  5  1  0  0  0
  4  8  1  0  0  0
  5  6  2  0  0  0
  5 19  1  0  0  0
  6 20  1  0  0  0
  7 13  1  0  0  0
  7 21  1  0  0  0
  7 22  1  0  0  0
  8 23  1  0  0  0
  8 24  1  0  0  0
  8 25  1  0  0  0
  9 10  1  0  0  0
  9 14  1  0  0  0
  9 26  1  0  0  0
  9 27  1  0  0  0
 10 28  1  0  0  0
 10 29  1  0  0  0
 10 30  1  0  0  0
 11 12  1  0  0  0
 11 15  1  0  0  0
 11 31  1  0  0  0
 11 32  1  0  0  0
 12 33  1  0  0  0
 12 34  1  0  0  0
 12 35  1  0  0  0
 13 14  1  0  0  0
 13 15  1  0  0  0
 13 16  2  0  0  0
M  END
> <s_m_source_file>
../1qw7_ligand.sdf

> <i_m_source_file_index>
1

> <s_epik_input>
W0NIM11bQ0gyXU9QKD1PKShPW0NIMl1bQ0gzXSlbQ0gyXWMxW2NIXVtjSF1jKFtDSDNdKVtjSF1bY0hdMQ==

> <s_epik_cmdline>
J2VwaWtfYXBwJywgJy1pbWFlJywgJ2xpZ2FuZF9wcm8ubWFlJywgJy1vbWFlJywgJ2xpZ2FuZF9wcmVwLm1hZScsICctbXMnLCAnMScsICctcGgnLCAnNycsICctcGh0JywgJzAuNScsICctbnQn

> <r_lp_tautomer_probability>
1

> <r_epik_Ionization_Penalty>
  0.0000

> <r_epik_Ionization_Penalty_Charging>
  0.0000

> <r_epik_Ionization_Penalty_Neutral>
  0.0000

> <r_epik_State_Penalty>
 -0.0000

> <r_epik_Charging_Adjusted_Penalty>
0

> <i_epik_Tot_Q>
0

> <i_epik_Tot_abs_Q>
0

$$$$
