1qwe_ligand
                    3D
 Schrodinger Suite 2020-3.
205209  0  0  1  0            999 V2000
   52.4770   12.0710   -9.0580 N   0  3  0  0  0  0
   53.1730   10.8700   -8.5160 C   0  0  2  0  0  0
   54.3380   10.4920   -9.4390 C   0  0  0  0  0  0
   54.2210   10.5740  -10.6450 O   0  0  0  0  0  0
   52.1890    9.7030   -8.4390 C   0  0  0  0  0  0
   55.4290   10.0850   -8.8390 N   0  0  0  0  0  0
   56.6390    9.6790   -9.5760 C   0  0  2  0  0  0
   56.4670    8.2680  -10.1470 C   0  0  0  0  0  0
   55.4900    7.6020   -9.8690 O   0  0  0  0  0  0
   57.7350    9.7100   -8.5070 C   0  0  0  0  0  0
   57.0200    9.5790   -7.1420 C   0  0  0  0  0  0
   55.5560    9.9900   -7.3710 C   0  0  0  0  0  0
   57.4290    7.8540  -10.9290 N   0  0  0  0  0  0
   57.4240    6.5210  -11.5580 C   0  0  2  0  0  0
   57.7760    5.4440  -10.5270 C   0  0  0  0  0  0
   58.6230    5.6380   -9.6780 O   0  0  0  0  0  0
   58.5050    6.6270  -12.6370 C   0  0  0  0  0  0
   59.4360    7.7850  -12.2070 C   0  0  0  0  0  0
   58.6130    8.6760  -11.2570 C   0  0  0  0  0  0
   57.1280    4.3120  -10.5910 N   0  0  0  0  0  0
   57.4240    3.2290   -9.6110 C   0  0  2  0  0  0
   58.9440    3.0320   -9.5140 C   0  0  0  0  0  0
   59.5950    2.7840  -10.5100 O   0  0  0  0  0  0
   56.7720    1.9260  -10.0780 C   0  0  0  0  0  0
   55.2640    1.9910   -9.8310 C   0  0  0  0  0  0
   54.6170    0.6780  -10.2760 C   0  0  0  0  0  0
   54.9960    2.2090   -8.3390 C   0  0  0  0  0  0
   59.4670    3.1500   -8.3170 N   0  0  0  0  0  0
   60.9090    2.9900   -8.0630 C   0  0  2  0  0  0
   61.2840    1.5040   -8.0140 C   0  0  0  0  0  0
   60.4220    0.6480   -8.0250 O   0  0  0  0  0  0
   61.1060    3.6450   -6.6940 C   0  0  0  0  0  0
   59.7250    3.6270   -5.9980 C   0  0  0  0  0  0
   58.6730    3.4520   -7.1090 C   0  0  0  0  0  0
   62.5650    1.2480   -7.9530 N   0  0  0  0  0  0
   63.1000   -0.1240   -7.8910 C   0  0  2  0  0  0
   62.9120   -0.6970   -6.4840 C   0  0  0  0  0  0
   63.3240   -0.1070   -5.5040 O   0  0  0  0  0  0
   64.5840    0.0520   -8.2220 C   0  0  0  0  0  0
   64.9290    1.5260   -7.9030 C   0  0  0  0  0  0
   63.5990    2.3030   -7.9370 C   0  0  0  0  0  0
   62.2840   -1.8350   -6.3730 N   0  0  0  0  0  0
   62.0630   -2.4320   -5.0270 C   0  0  2  0  0  0
   63.3850   -2.5080   -4.2660 C   0  0  0  0  0  0
   64.2810   -3.2410   -4.6340 O   0  0  0  0  0  0
   61.4820   -3.8350   -5.1690 C   0  0  0  0  0  0
   60.1200   -3.7590   -5.8630 C   0  0  0  0  0  0
   59.9890   -4.9120   -6.8610 C   0  0  0  0  0  0
   59.6150   -6.1570   -6.1330 N   0  0  0  0  0  0
   58.3890   -6.3330   -5.7190 C   0  0  0  0  0  0
   57.4830   -5.4190   -5.9420 N   0  0  0  0  0  0
   58.0690   -7.4250   -5.0810 N   0  0  0  0  0  0
   63.4910   -1.7560   -3.2000 N   0  0  0  0  0  0
   64.7350   -1.7490   -2.3650 C   0  0  2  0  0  0
   65.9640   -2.0770   -3.2180 C   0  0  0  0  0  0
   66.5790   -1.2070   -3.8010 O   0  0  0  0  0  0
   64.6020   -2.7840   -1.2460 C   0  0  0  0  0  0
   65.9390   -2.9170   -0.5130 C   0  0  0  0  0  0
   66.1940   -3.9130    0.1330 O   0  0  0  0  0  0
   66.8100   -1.9460   -0.5870 N   0  0  0  0  0  0
   66.3250   -3.3300   -3.2910 N   0  0  0  0  0  0
   67.5130   -3.7220   -4.0990 C   0  0  2  0  0  0
   67.0700   -4.6450   -5.2380 C   0  0  0  0  0  0
   65.9750   -5.1710   -5.2170 O   0  0  0  0  0  0
   68.5130   -4.4610   -3.2060 C   0  0  0  0  0  0
   67.7570   -5.2710   -2.1490 C   0  0  0  0  0  0
   68.5730   -6.5110   -1.7800 C   0  0  0  0  0  0
   67.6650   -7.5610   -1.2350 N   0  0  0  0  0  0
   68.0400   -8.8140   -1.2230 C   0  0  0  0  0  0
   69.2150   -9.1540   -1.6810 N   0  0  0  0  0  0
   67.2390   -9.7270   -0.7470 N   0  0  0  0  0  0
   67.9400   -4.8140   -6.2010 N   0  0  0  0  0  0
   67.6730   -5.6710   -7.3690 C   0  0  2  0  0  0
   67.8340   -7.1470   -6.9960 C   0  0  0  0  0  0
   68.9310   -7.6560   -6.9200 O   0  0  0  0  0  0
   68.7370   -5.2390   -8.3820 C   0  0  0  0  0  0
   69.8790   -4.5890   -7.5650 C   0  0  0  0  0  0
   69.2690   -4.1690   -6.2140 C   0  0  0  0  0  0
   66.7390   -7.8260   -6.7630 N   0  0  0  0  0  0
   66.7850   -9.2760   -6.3890 C   0  0  2  0  0  0
   67.9910   -9.5590   -5.4800 C   0  0  0  0  0  0
   67.8800   -9.5280   -4.2710 O   0  0  0  0  0  0
   66.8490  -10.1690   -7.6460 C   0  0  0  0  0  0
   66.6440   -9.3440   -8.9250 C   0  0  0  0  0  0
   68.0050   -8.9970   -9.5320 C   0  0  0  0  0  0
   68.7530  -10.2550   -9.8140 N   0  0  0  0  0  0
   70.0460  -10.2250   -9.9940 C   0  0  0  0  0  0
   70.6930   -9.0920   -9.9250 N   0  0  0  0  0  0
   70.6930  -11.3310  -10.2400 N   0  0  0  0  0  0
   69.1410   -9.8360   -6.0390 N   0  0  0  0  0  0
   70.3310  -10.1180   -5.1880 C   0  0  2  0  0  0
   71.3140   -8.9490   -5.2810 C   0  0  0  0  0  0
   71.4220   -8.2130   -4.3140 O   0  0  0  0  0  0
   71.0150  -11.3990   -5.6720 C   0  0  0  0  0  0
   69.9640  -12.3620   -6.2270 C   0  0  0  0  0  0
   70.6580  -13.5890   -6.8220 C   0  0  0  0  0  0
   69.0300  -12.8030   -5.0970 C   0  0  0  0  0  0
   71.9420   -8.8100   -6.3170 O   0  0  0  0  0  0
   53.1849   12.9111   -9.1136 H   0  0  0  0  0  0
   51.6403   12.3397   -8.3963 H   0  0  0  0  0  0
   52.0920   11.8487  -10.0642 H   0  0  0  0  0  0
   53.5457   11.1190   -7.5115 H   0  0  0  0  0  0
   51.3524    9.9719   -7.7774 H   0  0  0  0  0  0
   52.7025    8.8162   -8.0390 H   0  0  0  0  0  0
   51.8040    9.4810   -9.4452 H   0  0  0  0  0  0
   56.8358   10.3492  -10.4258 H   0  0  0  0  0  0
   58.4293    8.8724   -8.6693 H   0  0  0  0  0  0
   58.2851   10.6603   -8.5733 H   0  0  0  0  0  0
   57.0848    8.5380   -6.7926 H   0  0  0  0  0  0
   57.5034   10.2423   -6.4097 H   0  0  0  0  0  0
   55.3269   10.9664   -6.9192 H   0  0  0  0  0  0
   54.8520    9.2355   -6.9901 H   0  0  0  0  0  0
   56.4308    6.2710  -11.9593 H   0  0  0  0  0  0
   59.0576    5.6778  -12.6969 H   0  0  0  0  0  0
   58.0341    6.8390  -13.6082 H   0  0  0  0  0  0
   60.3192    7.3747  -11.6955 H   0  0  0  0  0  0
   59.7558    8.3479  -13.0963 H   0  0  0  0  0  0
   58.2889    9.6089  -11.7415 H   0  0  0  0  0  0
   59.1615    8.9138  -10.3336 H   0  0  0  0  0  0
   56.3643    4.1575  -11.3674 H   0  0  0  0  0  0
   57.0112    3.5299   -8.6368 H   0  0  0  0  0  0
   56.9611    1.7860  -11.1525 H   0  0  0  0  0  0
   57.1985    1.0811   -9.5175 H   0  0  0  0  0  0
   54.8373    2.8256  -10.4066 H   0  0  0  0  0  0
   54.8084    0.5196  -11.3476 H   0  0  0  0  0  0
   53.5322    0.7259  -10.1005 H   0  0  0  0  0  0
   55.0452   -0.1555   -9.6999 H   0  0  0  0  0  0
   55.4605    3.1527   -8.0171 H   0  0  0  0  0  0
   55.4241    1.3747   -7.7639 H   0  0  0  0  0  0
   53.9110    2.2561   -8.1644 H   0  0  0  0  0  0
   61.5069    3.4511   -8.8629 H   0  0  0  0  0  0
   61.8457    3.0714   -6.1162 H   0  0  0  0  0  0
   61.4655    4.6758   -6.8290 H   0  0  0  0  0  0
   59.6846    2.7903   -5.2850 H   0  0  0  0  0  0
   59.5730    4.5745   -5.4603 H   0  0  0  0  0  0
   58.0902    4.3703   -7.2734 H   0  0  0  0  0  0
   57.9890    2.6159   -6.9013 H   0  0  0  0  0  0
   62.5766   -0.7946   -8.5884 H   0  0  0  0  0  0
   65.1813   -0.6354   -7.6050 H   0  0  0  0  0  0
   64.7513   -0.1710   -9.2861 H   0  0  0  0  0  0
   65.3946    1.5866   -6.9083 H   0  0  0  0  0  0
   65.6288    1.9108   -8.6594 H   0  0  0  0  0  0
   63.5051    2.9222   -8.8413 H   0  0  0  0  0  0
   63.4658    2.9335   -7.0455 H   0  0  0  0  0  0
   61.9180   -2.3535   -7.2715 H   0  0  0  0  0  0
   61.3547   -1.7826   -4.4917 H   0  0  0  0  0  0
   62.1639   -4.4552   -5.7693 H   0  0  0  0  0  0
   61.3597   -4.2839   -4.1722 H   0  0  0  0  0  0
   59.3207   -3.8332   -5.1110 H   0  0  0  0  0  0
   60.0334   -2.8011   -6.3968 H   0  0  0  0  0  0
   59.2106   -4.6707   -7.5998 H   0  0  0  0  0  0
   60.9494   -5.0622   -7.3759 H   0  0  0  0  0  0
   60.3726   -6.9315   -5.9427 H   0  0  0  0  0  0
   57.7518   -4.4979   -6.4799 H   0  0  0  0  0  0
   56.4512   -5.5704   -5.5919 H   0  0  0  0  0  0
   58.8312   -8.1954   -4.8927 H   0  0  0  0  0  0
   62.6385   -1.1188   -2.9222 H   0  0  0  0  0  0
   64.8442   -0.7382   -1.9452 H   0  0  0  0  0  0
   63.8257   -2.4599   -0.5372 H   0  0  0  0  0  0
   64.3218   -3.7564   -1.6773 H   0  0  0  0  0  0
   66.5793   -1.0436   -1.1722 H   0  0  0  0  0  0
   67.7741   -2.0309   -0.0642 H   0  0  0  0  0  0
   65.7483   -4.0969   -2.7531 H   0  0  0  0  0  0
   67.9680   -2.8062   -4.5043 H   0  0  0  0  0  0
   69.1214   -5.1404   -3.8210 H   0  0  0  0  0  0
   69.1684   -3.7315   -2.7077 H   0  0  0  0  0  0
   67.6039   -4.6518   -1.2528 H   0  0  0  0  0  0
   66.7813   -5.5798   -2.5523 H   0  0  0  0  0  0
   69.0812   -6.8956   -2.6765 H   0  0  0  0  0  0
   69.3221   -6.2442   -1.0200 H   0  0  0  0  0  0
   66.6762   -7.2828   -0.8414 H   0  0  0  0  0  0
   69.8920   -8.3858   -2.0828 H   0  0  0  0  0  0
   69.5275  -10.2085   -1.6649 H   0  0  0  0  0  0
   66.2490   -9.4429   -0.3608 H   0  0  0  0  0  0
   66.6432   -5.5419   -7.7334 H   0  0  0  0  0  0
   69.0984   -6.1201   -8.9324 H   0  0  0  0  0  0
   68.2992   -4.5191   -9.0891 H   0  0  0  0  0  0
   70.6881   -5.3200   -7.4199 H   0  0  0  0  0  0
   70.2675   -3.7152   -8.1087 H   0  0  0  0  0  0
   69.1480   -3.0784   -6.1367 H   0  0  0  0  0  0
   69.8618   -4.5334   -5.3621 H   0  0  0  0  0  0
   65.7711   -7.3100   -6.8468 H   0  0  0  0  0  0
   65.8547   -9.4843   -5.8402 H   0  0  0  0  0  0
   67.8327  -10.6585   -7.6983 H   0  0  0  0  0  0
   66.0609  -10.9346   -7.5924 H   0  0  0  0  0  0
   66.0582   -9.9294   -9.6490 H   0  0  0  0  0  0
   66.1044   -8.4170   -8.6809 H   0  0  0  0  0  0
   67.8573   -8.4384  -10.4680 H   0  0  0  0  0  0
   68.5761   -8.3798   -8.8229 H   0  0  0  0  0  0
   68.2159  -11.2132   -9.8711 H   0  0  0  0  0  0
   70.1481   -8.1592   -9.7176 H   0  0  0  0  0  0
   71.7826   -9.0709  -10.0743 H   0  0  0  0  0  0
   70.1488  -12.2852  -10.2982 H   0  0  0  0  0  0
   69.2303   -9.8609   -7.1351 H   0  0  0  0  0  0
   69.9847  -10.2414   -4.1513 H   0  0  0  0  0  0
   72.1190   -7.3626   -4.3452 H   0  0  0  0  0  0
   71.7388  -11.1519   -6.4626 H   0  0  0  0  0  0
   71.5395  -11.8751   -4.8304 H   0  0  0  0  0  0
   69.3812  -11.8553   -7.0103 H   0  0  0  0  0  0
   71.3293  -13.2728   -7.6340 H   0  0  0  0  0  0
   69.9014  -14.2810   -7.2202 H   0  0  0  0  0  0
   71.2422  -14.0952   -6.0395 H   0  0  0  0  0  0
   68.5308  -11.9213   -4.6688 H   0  0  0  0  0  0
   69.6145  -13.3094   -4.3148 H   0  0  0  0  0  0
   68.2737  -13.4952   -5.4956 H   0  0  0  0  0  0
  1  2  1  0  0  0
  1 99  1  0  0  0
  1100  1  0  0  0
  1101  1  0  0  0
  2  3  1  0  0  0
  2  5  1  0  0  0
  2102  1  0  0  0
  3  4  2  0  0  0
  3  6  1  0  0  0
  5103  1  0  0  0
  5104  1  0  0  0
  5105  1  0  0  0
  6  7  1  0  0  0
  6 12  1  0  0  0
  7  8  1  0  0  0
  7 10  1  0  0  0
  7106  1  0  0  0
  8  9  2  0  0  0
  8 13  1  0  0  0
 10 11  1  0  0  0
 10107  1  0  0  0
 10108  1  0  0  0
 11 12  1  0  0  0
 11109  1  0  0  0
 11110  1  0  0  0
 12111  1  0  0  0
 12112  1  0  0  0
 13 14  1  0  0  0
 13 19  1  0  0  0
 14 15  1  0  0  0
 14 17  1  0  0  0
 14113  1  0  0  0
 15 16  2  0  0  0
 15 20  1  0  0  0
 17 18  1  0  0  0
 17114  1  0  0  0
 17115  1  0  0  0
 18 19  1  0  0  0
 18116  1  0  0  0
 18117  1  0  0  0
 19118  1  0  0  0
 19119  1  0  0  0
 20 21  1  0  0  0
 20120  1  0  0  0
 21 22  1  0  0  0
 21 24  1  0  0  0
 21121  1  0  0  0
 22 23  2  0  0  0
 22 28  1  0  0  0
 24 25  1  0  0  0
 24122  1  0  0  0
 24123  1  0  0  0
 25 26  1  0  0  0
 25 27  1  0  0  0
 25124  1  0  0  0
 26125  1  0  0  0
 26126  1  0  0  0
 26127  1  0  0  0
 27128  1  0  0  0
 27129  1  0  0  0
 27130  1  0  0  0
 28 29  1  0  0  0
 28 34  1  0  0  0
 29 30  1  0  0  0
 29 32  1  0  0  0
 29131  1  0  0  0
 30 31  2  0  0  0
 30 35  1  0  0  0
 32 33  1  0  0  0
 32132  1  0  0  0
 32133  1  0  0  0
 33 34  1  0  0  0
 33134  1  0  0  0
 33135  1  0  0  0
 34136  1  0  0  0
 34137  1  0  0  0
 35 36  1  0  0  0
 35 41  1  0  0  0
 36 37  1  0  0  0
 36 39  1  0  0  0
 36138  1  0  0  0
 37 38  2  0  0  0
 37 42  1  0  0  0
 39 40  1  0  0  0
 39139  1  0  0  0
 39140  1  0  0  0
 40 41  1  0  0  0
 40141  1  0  0  0
 40142  1  0  0  0
 41143  1  0  0  0
 41144  1  0  0  0
 42 43  1  0  0  0
 42145  1  0  0  0
 43 44  1  0  0  0
 43 46  1  0  0  0
 43146  1  0  0  0
 44 45  2  0  0  0
 44 53  1  0  0  0
 46 47  1  0  0  0
 46147  1  0  0  0
 46148  1  0  0  0
 47 48  1  0  0  0
 47149  1  0  0  0
 47150  1  0  0  0
 48 49  1  0  0  0
 48151  1  0  0  0
 48152  1  0  0  0
 49 50  1  0  0  0
 49153  1  0  0  0
 50 51  1  0  0  0
 50 52  2  0  0  0
 51154  1  0  0  0
 51155  1  0  0  0
 52156  1  0  0  0
 53 54  1  0  0  0
 53157  1  0  0  0
 54 55  1  0  0  0
 54 57  1  0  0  0
 54158  1  0  0  0
 55 56  2  0  0  0
 55 61  1  0  0  0
 57 58  1  0  0  0
 57159  1  0  0  0
 57160  1  0  0  0
 58 59  2  0  0  0
 58 60  1  0  0  0
 60161  1  0  0  0
 60162  1  0  0  0
 61 62  1  0  0  0
 61163  1  0  0  0
 62 63  1  0  0  0
 62 65  1  0  0  0
 62164  1  0  0  0
 63 64  2  0  0  0
 63 72  1  0  0  0
 65 66  1  0  0  0
 65165  1  0  0  0
 65166  1  0  0  0
 66 67  1  0  0  0
 66167  1  0  0  0
 66168  1  0  0  0
 67 68  1  0  0  0
 67169  1  0  0  0
 67170  1  0  0  0
 68 69  1  0  0  0
 68171  1  0  0  0
 69 70  1  0  0  0
 69 71  2  0  0  0
 70172  1  0  0  0
 70173  1  0  0  0
 71174  1  0  0  0
 72 73  1  0  0  0
 72 78  1  0  0  0
 73 74  1  0  0  0
 73 76  1  0  0  0
 73175  1  0  0  0
 74 75  2  0  0  0
 74 79  1  0  0  0
 76 77  1  0  0  0
 76176  1  0  0  0
 76177  1  0  0  0
 77 78  1  0  0  0
 77178  1  0  0  0
 77179  1  0  0  0
 78180  1  0  0  0
 78181  1  0  0  0
 79 80  1  0  0  0
 79182  1  0  0  0
 80 81  1  0  0  0
 80 83  1  0  0  0
 80183  1  0  0  0
 81 82  2  0  0  0
 81 90  1  0  0  0
 83 84  1  0  0  0
 83184  1  0  0  0
 83185  1  0  0  0
 84 85  1  0  0  0
 84186  1  0  0  0
 84187  1  0  0  0
 85 86  1  0  0  0
 85188  1  0  0  0
 85189  1  0  0  0
 86 87  1  0  0  0
 86190  1  0  0  0
 87 88  1  0  0  0
 87 89  2  0  0  0
 88191  1  0  0  0
 88192  1  0  0  0
 89193  1  0  0  0
 90 91  1  0  0  0
 90194  1  0  0  0
 91 92  1  0  0  0
 91 94  1  0  0  0
 91195  1  0  0  0
 92 93  1  0  0  0
 92 98  2  0  0  0
 93196  1  0  0  0
 94 95  1  0  0  0
 94197  1  0  0  0
 94198  1  0  0  0
 95 96  1  0  0  0
 95 97  1  0  0  0
 95199  1  0  0  0
 96200  1  0  0  0
 96201  1  0  0  0
 96202  1  0  0  0
 97203  1  0  0  0
 97204  1  0  0  0
 97205  1  0  0  0
M  CHG  1   1   1
M  END
> <s_m_source_file>
../1qwe_ligand.sdf

> <i_m_source_file_index>
1

> <s_epik_input>
W05IMytdW0NAQEhdKFtDSDNdKUMoPU8pTjFbQ0BASF0oW0NIMl1bQ0gyXVtDSDJdMSlDKD1PKU4yW0NAQEhdKFtDSDJdW0NIMl1bQ0gyXTIpQyg9TylbTkhdW0NAQEhdKFtDSDJdW0NIXShbQ0gzXSlbQ0gzXSlDKD1PKU4zW0NAQEhdKFtDSDJdW0NIMl1bQ0gyXTMpQyg9TylONFtDQEBIXShbQ0gyXVtDSDJdW0NIMl00KUMoPU8pW05IXVtDQEBIXShbQ0gyXVtDSDJdW0NIMl1bTkhdL0MoW05IMl0pPU5cW0hdKUMoPU8pW05IXVtDQEBIXShbQ0gyXUMoPU8pW05IMl0pQyg9TylbTkhdW0NAQEhdKFtDSDJdW0NIMl1bQ0gyXVtOSF0vQyhbTkgyXSk9TlxbSF0pQyg9TylONVtDQEBIXShbQ0gyXVtDSDJdW0NIMl01KUMoPU8pW05IXVtDQEhdKEMoPU8pW05IXVtDQEhdKEMoPU8pW09IXSlbQ0gyXVtDSF0oW0NIM10pW0NIM10pW0NIMl1bQ0gyXVtDSDJdW05IXS9DKFtOSDJdKT1OXFtIXQ==

> <s_epik_cmdline>
J2VwaWtfYXBwJywgJy1pbWFlJywgJ2xpZ2FuZF9wcm8ubWFlJywgJy1vbWFlJywgJ2xpZ2FuZF9wcmVwLm1hZScsICctbXMnLCAnMScsICctcGgnLCAnNycsICctcGh0JywgJzAuNScsICctbnQn

> <s_epik_pKa_notes>
Molecule size exceeds maximum supported for generating protonation states

> <s_epik_Chemistry_Notes>
This compound has an imine and may undergo hydrolysis.

$$$$
