1qwf_ligand
                    3D
 Schrodinger Suite 2020-3.
200203  0  0  1  0            999 V2000
   63.4380    0.4180   11.2510 N   0  3  0  0  0  0
   64.2060    1.4960   10.5650 C   0  0  2  0  0  0
   65.3500    0.8750    9.7610 C   0  0  0  0  0  0
   66.5090    1.1450   10.0050 O   0  0  0  0  0  0
   64.7820    2.4530   11.6100 C   0  0  0  0  0  0
   65.7550    3.4210   10.9350 C   0  0  0  0  0  0
   63.6450    3.2450   12.2600 C   0  0  0  0  0  0
   65.0370    0.0430    8.8060 N   0  0  0  0  0  0
   66.1160   -0.5920    7.9940 C   0  0  2  0  0  0
   65.5490   -1.1240    6.6740 C   0  0  0  0  0  0
   66.2230   -1.1400    5.6630 O   0  0  0  0  0  0
   66.7300   -1.7490    8.7830 C   0  0  0  0  0  0
   67.5740   -2.5070    7.9260 O   0  0  0  0  0  0
   64.3220   -1.5690    6.6730 N   0  0  0  0  0  0
   63.7280   -2.1090    5.4130 C   0  0  2  0  0  0
   63.0350   -0.9830    4.6390 C   0  0  0  0  0  0
   62.3940   -1.2140    3.6330 O   0  0  0  0  0  0
   62.7100   -3.2230    5.7180 C   0  0  0  0  0  0
   62.7370   -3.5980    7.2040 C   0  0  0  0  0  0
   61.7410   -4.7280    7.4640 C   0  0  0  0  0  0
   64.1440   -4.0630    7.5870 C   0  0  0  0  0  0
   63.1620    0.2330    5.0940 N   0  0  0  0  0  0
   62.5130    1.3690    4.3750 C   0  0  2  0  0  0
   63.4830    1.9330    3.3370 C   0  0  0  0  0  0
   63.1160    2.7340    2.5000 O   0  0  0  0  0  0
   62.1690    2.4770    5.3720 C   0  0  0  0  0  0
   64.7230    1.5360    3.3920 N   0  0  0  0  0  0
   65.7140    2.0660    2.4160 C   0  0  2  0  0  0
   65.8940    1.0720    1.2700 C   0  0  0  0  0  0
   66.7270    0.1890    1.3230 O   0  0  0  0  0  0
   67.0530    2.2910    3.1190 C   0  0  0  0  0  0
   67.1470    3.7490    3.5730 C   0  0  0  0  0  0
   68.1060    3.8550    4.7580 C   0  0  0  0  0  0
   69.5070    3.9230    4.2550 N   0  0  0  0  0  0
   70.4600    4.3840    5.0210 C   0  0  0  0  0  0
   70.1930    4.7850    6.2350 N   0  0  0  0  0  0
   71.6840    4.4420    4.5710 N   0  0  0  0  0  0
   65.1220    1.2150    0.2290 N   0  0  0  0  0  0
   65.2470    0.2880   -0.9280 C   0  0  2  0  0  0
   65.0910    1.0850   -2.2250 C   0  0  0  0  0  0
   64.5900    2.1920   -2.2130 O   0  0  0  0  0  0
   64.1570   -0.7830   -0.8460 C   0  0  0  0  0  0
   64.6840   -1.9850   -0.0610 C   0  0  0  0  0  0
   63.5230   -2.6840    0.6460 C   0  0  0  0  0  0
   63.0490   -3.8250   -0.1880 N   0  0  0  0  0  0
   62.3420   -4.7840    0.3500 C   0  0  0  0  0  0
   62.0390   -4.7440    1.6200 N   0  0  0  0  0  0
   61.9370   -5.7830   -0.3850 N   0  0  0  0  0  0
   65.5260    0.4970   -3.3080 N   0  0  0  0  0  0
   65.4530    1.1330   -4.6330 C   0  0  2  0  0  0
   64.0190    1.0910   -5.1640 C   0  0  0  0  0  0
   63.5500    0.0730   -5.6310 O   0  0  0  0  0  0
   66.3900    0.2820   -5.4940 C   0  0  0  0  0  0
   66.5050   -1.0890   -4.7880 C   0  0  0  0  0  0
   66.1210   -0.8550   -3.3150 C   0  0  0  0  0  0
   63.3230    2.1940   -5.0910 N   0  0  0  0  0  0
   61.9190    2.2250   -5.5880 C   0  0  2  0  0  0
   61.8350    1.4690   -6.9150 C   0  0  0  0  0  0
   62.7760    1.4650   -7.6830 O   0  0  0  0  0  0
   61.4860    3.6770   -5.7980 C   0  0  0  0  0  0
   61.1670    4.3150   -4.4450 C   0  0  0  0  0  0
   61.6930    5.7510   -4.4200 C   0  0  0  0  0  0
   59.6520    4.3250   -4.2350 C   0  0  0  0  0  0
   60.7100    0.8450   -7.1400 N   0  0  0  0  0  0
   60.4690    0.0670   -8.3620 C   0  0  2  0  0  0
   60.1050    1.0070   -9.5170 C   0  0  0  0  0  0
   59.9330    2.1930   -9.3160 O   0  0  0  0  0  0
   59.2880   -0.8310   -7.9840 C   0  0  0  0  0  0
   58.5660   -0.1350   -6.8070 C   0  0  0  0  0  0
   59.5710    0.8590   -6.1980 C   0  0  0  0  0  0
   59.9980    0.4460  -10.6910 N   0  0  0  0  0  0
   59.6520    1.2080  -11.9040 C   0  0  2  0  0  0
   58.1620    1.5570  -11.8970 C   0  0  0  0  0  0
   57.3130    0.6890  -11.8740 O   0  0  0  0  0  0
   59.9920    0.2450  -13.0440 C   0  0  0  0  0  0
   59.9770   -1.1760  -12.4310 C   0  0  0  0  0  0
   60.2040   -0.9990  -10.9180 C   0  0  0  0  0  0
   57.8360    2.8220  -11.9030 N   0  0  0  0  0  0
   56.4010    3.2150  -11.8820 C   0  0  2  0  0  0
   55.7230    2.8190  -13.1970 C   0  0  0  0  0  0
   56.3690    2.6780  -14.2160 O   0  0  0  0  0  0
   56.2670    4.7340  -11.6990 C   0  0  0  0  0  0
   56.5970    5.1650  -10.2590 C   0  0  0  0  0  0
   55.7680    6.3900   -9.9010 C   0  0  0  0  0  0
   56.2650    4.0610   -9.2580 C   0  0  0  0  0  0
   54.4260    2.6670  -13.1190 N   0  0  0  0  0  0
   53.5830    2.3040  -14.2690 C   0  0  2  0  0  0
   53.3050    3.5350  -15.1370 C   0  0  0  0  0  0
   53.2450    3.3810  -16.3460 O   0  0  0  0  0  0
   52.2930    1.7940  -13.6160 C   0  0  0  0  0  0
   52.2490    2.3950  -12.1980 C   0  0  0  0  0  0
   53.6790    2.8430  -11.8590 C   0  0  0  0  0  0
   53.1570    4.6090  -14.5780 O   0  0  0  0  0  0
   63.0232   -0.2710   10.5006 H   0  0  0  0  0  0
   62.6176    0.8649   11.8317 H   0  0  0  0  0  0
   64.1066   -0.1353   11.9269 H   0  0  0  0  0  0
   63.5179    2.0323    9.8950 H   0  0  0  0  0  0
   65.3144    1.8752   12.3799 H   0  0  0  0  0  0
   66.5726    2.8526   10.4675 H   0  0  0  0  0  0
   66.1695    4.1082   11.6873 H   0  0  0  0  0  0
   65.2226    3.9983   10.1648 H   0  0  0  0  0  0
   62.9447    2.5495   12.7457 H   0  0  0  0  0  0
   63.1131    3.8224   11.4894 H   0  0  0  0  0  0
   64.0600    3.9322   13.0120 H   0  0  0  0  0  0
   63.9824   -0.1910    8.5984 H   0  0  0  0  0  0
   66.8720    0.1801    7.7882 H   0  0  0  0  0  0
   67.3199   -1.3491    9.6209 H   0  0  0  0  0  0
   65.9282   -2.3929    9.1735 H   0  0  0  0  0  0
   68.1076   -3.3860    8.3166 H   0  0  0  0  0  0
   63.7255   -1.5471    7.5970 H   0  0  0  0  0  0
   64.5605   -2.5204    4.8234 H   0  0  0  0  0  0
   61.6986   -2.8762    5.4595 H   0  0  0  0  0  0
   62.9545   -4.1159    5.1239 H   0  0  0  0  0  0
   62.4613   -2.7219    7.8094 H   0  0  0  0  0  0
   60.7292   -4.3953    7.1892 H   0  0  0  0  0  0
   61.7616   -4.9968    8.5305 H   0  0  0  0  0  0
   62.0155   -5.6050    6.8594 H   0  0  0  0  0  0
   64.8620   -3.2508    7.4005 H   0  0  0  0  0  0
   64.4175   -4.9403    6.9824 H   0  0  0  0  0  0
   64.1636   -4.3321    8.6534 H   0  0  0  0  0  0
   63.7466    0.4217    6.0065 H   0  0  0  0  0  0
   61.6025    0.9862    3.8908 H   0  0  0  0  0  0
   61.4706    2.0869    6.1271 H   0  0  0  0  0  0
   61.7007    3.3175    4.8389 H   0  0  0  0  0  0
   63.0883    2.8232    5.8670 H   0  0  0  0  0  0
   65.0381    0.8112    4.1571 H   0  0  0  0  0  0
   65.3268    3.0185    2.0252 H   0  0  0  0  0  0
   67.1239    1.6277    3.9936 H   0  0  0  0  0  0
   67.8748    2.0685    2.4225 H   0  0  0  0  0  0
   67.5203    4.3679    2.7437 H   0  0  0  0  0  0
   66.1507    4.1038    3.8757 H   0  0  0  0  0  0
   67.8777    4.7637    5.3343 H   0  0  0  0  0  0
   67.9897    2.9723    5.4040 H   0  0  0  0  0  0
   69.7423    3.5844    3.2352 H   0  0  0  0  0  0
   69.1622    4.7369    6.6159 H   0  0  0  0  0  0
   70.9990    5.1709    6.8765 H   0  0  0  0  0  0
   71.9108    4.1047    3.5488 H   0  0  0  0  0  0
   64.3767    2.0238    0.2077 H   0  0  0  0  0  0
   66.2394   -0.1847   -0.8860 H   0  0  0  0  0  0
   63.2744   -0.3696   -0.3360 H   0  0  0  0  0  0
   63.8783   -1.1010   -1.8615 H   0  0  0  0  0  0
   65.1692   -2.6901   -0.7520 H   0  0  0  0  0  0
   65.4148   -1.6429    0.6866 H   0  0  0  0  0  0
   63.8613   -3.0593    1.6231 H   0  0  0  0  0  0
   62.6995   -1.9697    0.7927 H   0  0  0  0  0  0
   63.2939   -3.8619   -1.2598 H   0  0  0  0  0  0
   62.3800   -3.9022    2.2405 H   0  0  0  0  0  0
   61.4429   -5.5521    2.0689 H   0  0  0  0  0  0
   62.1916   -5.8176   -1.4546 H   0  0  0  0  0  0
   65.7467    2.1921   -4.5866 H   0  0  0  0  0  0
   65.9631    0.1720   -6.5018 H   0  0  0  0  0  0
   67.3717    0.7734   -5.5633 H   0  0  0  0  0  0
   65.8194   -1.8053   -5.2642 H   0  0  0  0  0  0
   67.5376   -1.4589   -4.8714 H   0  0  0  0  0  0
   66.9980   -0.8731   -2.6513 H   0  0  0  0  0  0
   65.3779   -1.5845   -2.9606 H   0  0  0  0  0  0
   63.7747    3.1006   -4.6620 H   0  0  0  0  0  0
   61.2771    1.7438   -4.8354 H   0  0  0  0  0  0
   62.2995    4.2356   -6.2840 H   0  0  0  0  0  0
   60.5905    3.7039   -6.4362 H   0  0  0  0  0  0
   61.6476    3.7354   -3.6431 H   0  0  0  0  0  0
   62.7826    5.7450   -4.5709 H   0  0  0  0  0  0
   61.4600    6.2099   -3.4478 H   0  0  0  0  0  0
   61.2147    6.3307   -5.2232 H   0  0  0  0  0  0
   59.2726    3.2927   -4.2528 H   0  0  0  0  0  0
   59.1743    4.9051   -5.0383 H   0  0  0  0  0  0
   59.4196    4.7844   -3.2629 H   0  0  0  0  0  0
   61.3636   -0.4956   -8.6673 H   0  0  0  0  0  0
   58.6169   -0.9376   -8.8490 H   0  0  0  0  0  0
   59.6615   -1.8217   -7.6854 H   0  0  0  0  0  0
   57.6749    0.3896   -7.1821 H   0  0  0  0  0  0
   58.2627   -0.8888   -6.0656 H   0  0  0  0  0  0
   59.9146    0.5412   -5.2025 H   0  0  0  0  0  0
   59.1590    1.8770   -6.1359 H   0  0  0  0  0  0
   60.2062    2.1566  -11.9591 H   0  0  0  0  0  0
   59.2392    0.3394  -13.8405 H   0  0  0  0  0  0
   60.9855    0.4905  -13.4474 H   0  0  0  0  0  0
   59.0053   -1.6512  -12.6307 H   0  0  0  0  0  0
   60.7793   -1.7784  -12.8820 H   0  0  0  0  0  0
   61.2254   -1.2754  -10.6175 H   0  0  0  0  0  0
   59.4787   -1.5711  -10.3208 H   0  0  0  0  0  0
   58.6178    3.5955  -11.9235 H   0  0  0  0  0  0
   55.9442    2.6797  -11.0365 H   0  0  0  0  0  0
   56.9597    5.2481  -12.3816 H   0  0  0  0  0  0
   55.2350    5.0409  -11.9243 H   0  0  0  0  0  0
   57.6724    5.3886  -10.2006 H   0  0  0  0  0  0
   55.9892    7.2022  -10.6091 H   0  0  0  0  0  0
   56.0169    6.7156   -8.8802 H   0  0  0  0  0  0
   54.6987    6.1376   -9.9549 H   0  0  0  0  0  0
   56.8527    3.1620   -9.4954 H   0  0  0  0  0  0
   55.1924    3.8238   -9.3161 H   0  0  0  0  0  0
   56.5107    4.4018   -8.2414 H   0  0  0  0  0  0
   54.0800    1.5609  -14.9099 H   0  0  0  0  0  0
   53.0471    4.2423  -17.0010 H   0  0  0  0  0  0
   51.4269    2.1239  -14.2085 H   0  0  0  0  0  0
   52.3123    0.6949  -13.5754 H   0  0  0  0  0  0
   51.5586    3.2512  -12.1839 H   0  0  0  0  0  0
   51.9008    1.6315  -11.4868 H   0  0  0  0  0  0
   54.1308    2.2181  -11.0745 H   0  0  0  0  0  0
   53.7179    3.8992  -11.5541 H   0  0  0  0  0  0
  1  2  1  0  0  0
  1 94  1  0  0  0
  1 95  1  0  0  0
  1 96  1  0  0  0
  2  3  1  0  0  0
  2  5  1  0  0  0
  2 97  1  0  0  0
  3  4  2  0  0  0
  3  8  1  0  0  0
  5  6  1  0  0  0
  5  7  1  0  0  0
  5 98  1  0  0  0
  6 99  1  0  0  0
  6100  1  0  0  0
  6101  1  0  0  0
  7102  1  0  0  0
  7103  1  0  0  0
  7104  1  0  0  0
  8  9  1  0  0  0
  8105  1  0  0  0
  9 10  1  0  0  0
  9 12  1  0  0  0
  9106  1  0  0  0
 10 11  2  0  0  0
 10 14  1  0  0  0
 12 13  1  0  0  0
 12107  1  0  0  0
 12108  1  0  0  0
 13109  1  0  0  0
 14 15  1  0  0  0
 14110  1  0  0  0
 15 16  1  0  0  0
 15 18  1  0  0  0
 15111  1  0  0  0
 16 17  2  0  0  0
 16 22  1  0  0  0
 18 19  1  0  0  0
 18112  1  0  0  0
 18113  1  0  0  0
 19 20  1  0  0  0
 19 21  1  0  0  0
 19114  1  0  0  0
 20115  1  0  0  0
 20116  1  0  0  0
 20117  1  0  0  0
 21118  1  0  0  0
 21119  1  0  0  0
 21120  1  0  0  0
 22 23  1  0  0  0
 22121  1  0  0  0
 23 24  1  0  0  0
 23 26  1  0  0  0
 23122  1  0  0  0
 24 25  2  0  0  0
 24 27  1  0  0  0
 26123  1  0  0  0
 26124  1  0  0  0
 26125  1  0  0  0
 27 28  1  0  0  0
 27126  1  0  0  0
 28 29  1  0  0  0
 28 31  1  0  0  0
 28127  1  0  0  0
 29 30  2  0  0  0
 29 38  1  0  0  0
 31 32  1  0  0  0
 31128  1  0  0  0
 31129  1  0  0  0
 32 33  1  0  0  0
 32130  1  0  0  0
 32131  1  0  0  0
 33 34  1  0  0  0
 33132  1  0  0  0
 33133  1  0  0  0
 34 35  1  0  0  0
 34134  1  0  0  0
 35 36  1  0  0  0
 35 37  2  0  0  0
 36135  1  0  0  0
 36136  1  0  0  0
 37137  1  0  0  0
 38 39  1  0  0  0
 38138  1  0  0  0
 39 40  1  0  0  0
 39 42  1  0  0  0
 39139  1  0  0  0
 40 41  2  0  0  0
 40 49  1  0  0  0
 42 43  1  0  0  0
 42140  1  0  0  0
 42141  1  0  0  0
 43 44  1  0  0  0
 43142  1  0  0  0
 43143  1  0  0  0
 44 45  1  0  0  0
 44144  1  0  0  0
 44145  1  0  0  0
 45 46  1  0  0  0
 45146  1  0  0  0
 46 47  1  0  0  0
 46 48  2  0  0  0
 47147  1  0  0  0
 47148  1  0  0  0
 48149  1  0  0  0
 49 50  1  0  0  0
 49 55  1  0  0  0
 50 51  1  0  0  0
 50 53  1  0  0  0
 50150  1  0  0  0
 51 52  2  0  0  0
 51 56  1  0  0  0
 53 54  1  0  0  0
 53151  1  0  0  0
 53152  1  0  0  0
 54 55  1  0  0  0
 54153  1  0  0  0
 54154  1  0  0  0
 55155  1  0  0  0
 55156  1  0  0  0
 56 57  1  0  0  0
 56157  1  0  0  0
 57 58  1  0  0  0
 57 60  1  0  0  0
 57158  1  0  0  0
 58 59  2  0  0  0
 58 64  1  0  0  0
 60 61  1  0  0  0
 60159  1  0  0  0
 60160  1  0  0  0
 61 62  1  0  0  0
 61 63  1  0  0  0
 61161  1  0  0  0
 62162  1  0  0  0
 62163  1  0  0  0
 62164  1  0  0  0
 63165  1  0  0  0
 63166  1  0  0  0
 63167  1  0  0  0
 64 65  1  0  0  0
 64 70  1  0  0  0
 65 66  1  0  0  0
 65 68  1  0  0  0
 65168  1  0  0  0
 66 67  2  0  0  0
 66 71  1  0  0  0
 68 69  1  0  0  0
 68169  1  0  0  0
 68170  1  0  0  0
 69 70  1  0  0  0
 69171  1  0  0  0
 69172  1  0  0  0
 70173  1  0  0  0
 70174  1  0  0  0
 71 72  1  0  0  0
 71 77  1  0  0  0
 72 73  1  0  0  0
 72 75  1  0  0  0
 72175  1  0  0  0
 73 74  2  0  0  0
 73 78  1  0  0  0
 75 76  1  0  0  0
 75176  1  0  0  0
 75177  1  0  0  0
 76 77  1  0  0  0
 76178  1  0  0  0
 76179  1  0  0  0
 77180  1  0  0  0
 77181  1  0  0  0
 78 79  1  0  0  0
 78182  1  0  0  0
 79 80  1  0  0  0
 79 82  1  0  0  0
 79183  1  0  0  0
 80 81  2  0  0  0
 80 86  1  0  0  0
 82 83  1  0  0  0
 82184  1  0  0  0
 82185  1  0  0  0
 83 84  1  0  0  0
 83 85  1  0  0  0
 83186  1  0  0  0
 84187  1  0  0  0
 84188  1  0  0  0
 84189  1  0  0  0
 85190  1  0  0  0
 85191  1  0  0  0
 85192  1  0  0  0
 86 87  1  0  0  0
 86 92  1  0  0  0
 87 88  1  0  0  0
 87 90  1  0  0  0
 87193  1  0  0  0
 88 89  1  0  0  0
 88 93  2  0  0  0
 89194  1  0  0  0
 90 91  1  0  0  0
 90195  1  0  0  0
 90196  1  0  0  0
 91 92  1  0  0  0
 91197  1  0  0  0
 91198  1  0  0  0
 92199  1  0  0  0
 92200  1  0  0  0
M  CHG  1   1   1
M  END
> <s_m_source_file>
../1qwf_ligand.sdf

> <i_m_source_file_index>
1

> <s_epik_input>
W0NIM11bQ0hdKFtDSDNdKVtDQEhdKFtOSDMrXSlDKD1PKVtOSF1bQ0BASF0oW0NIMl1bT0hdKUMoPU8pW05IXVtDQEBIXShbQ0gyXVtDSF0oW0NIM10pW0NIM10pQyg9TylbTkhdW0NAQEhdKFtDSDNdKUMoPU8pW05IXVtDQEBIXShbQ0gyXVtDSDJdW0NIMl1bTkhdL0MoW05IMl0pPU5cW0hdKUMoPU8pW05IXVtDQEBIXShbQ0gyXVtDSDJdW0NIMl1bTkhdL0MoW05IMl0pPU5cW0hdKUMoPU8pTjFbQ0BASF0oW0NIMl1bQ0gyXVtDSDJdMSlDKD1PKVtOSF1bQ0BASF0oW0NIMl1bQ0hdKFtDSDNdKVtDSDNdKUMoPU8pTjJbQ0BASF0oW0NIMl1bQ0gyXVtDSDJdMilDKD1PKU4zW0NAQEhdKFtDSDJdW0NIMl1bQ0gyXTMpQyg9TylbTkhdW0NAQEhdKFtDSDJdW0NIXShbQ0gzXSlbQ0gzXSlDKD1PKU40W0NASF0oQyg9TylbT0hdKVtDSDJdW0NIMl1bQ0gyXTQ=

> <s_epik_cmdline>
J2VwaWtfYXBwJywgJy1pbWFlJywgJ2xpZ2FuZF9wcm8ubWFlJywgJy1vbWFlJywgJ2xpZ2FuZF9wcmVwLm1hZScsICctbXMnLCAnMScsICctcGgnLCAnNycsICctcGh0JywgJzAuNScsICctbnQn

> <s_epik_pKa_notes>
Molecule size exceeds maximum supported for generating protonation states

> <s_epik_Chemistry_Notes>
This compound has an imine and may undergo hydrolysis.

$$$$
