1qwu_ligand
                    3D
 Schrodinger Suite 2020-3.
 23 23  0  0  1  0            999 V2000
   30.3620   66.0770    6.6520 C   0  0  1  0  0  0
   32.4770   65.7760    8.8070 C   0  0  1  0  0  0
   29.6860   65.5500    5.7770 F   0  0  0  0  0  0
   33.4980   65.4240    9.5600 O   0  0  0  0  0  0
   32.8450   66.4910    7.4470 C   0  0  1  0  0  0
   34.1240   66.1290    6.9930 O   0  0  0  0  0  0
   31.8710   66.5730    6.1380 C   0  0  2  0  0  0
   31.6410   67.5950    5.3770 O   0  0  0  0  0  0
   29.4220   67.1420    7.3000 C   0  0  0  0  0  0
   28.5530   66.9110    7.9970 O   0  0  0  0  0  0
   30.3510   65.0050    7.7570 O   0  0  0  0  0  0
   31.5720   64.5480    8.3260 C   0  0  0  0  0  0
   32.1153   66.4225    9.6201 H   0  0  0  0  0  0
   34.1865   66.1901    9.9463 H   0  0  0  0  0  0
   32.9094   67.5088    7.8592 H   0  0  0  0  0  0
   34.9499   66.0135    7.7103 H   0  0  0  0  0  0
   32.4799   66.2196    5.2928 H   0  0  0  0  0  0
   30.9545   67.5012    4.5227 H   0  0  0  0  0  0
   30.0174   67.8268    7.9217 H   0  0  0  0  0  0
   28.9143   67.7130    6.5086 H   0  0  0  0  0  0
   27.9437   67.7302    8.4066 H   0  0  0  0  0  0
   32.1171   63.9653    7.5688 H   0  0  0  0  0  0
   31.3400   63.9041    9.1871 H   0  0  0  0  0  0
  1  3  1  0  0  0
  1  7  1  0  0  0
  1  9  1  0  0  0
  1 11  1  0  0  0
  2  4  1  0  0  0
  2  5  1  0  0  0
  2 12  1  0  0  0
  2 13  1  0  0  0
  4 14  1  0  0  0
  5  6  1  0  0  0
  5  7  1  0  0  0
  5 15  1  0  0  0
  6 16  1  0  0  0
  7  8  1  0  0  0
  7 17  1  0  0  0
  8 18  1  0  0  0
  9 10  1  0  0  0
  9 19  1  0  0  0
  9 20  1  0  0  0
 10 21  1  0  0  0
 11 12  1  0  0  0
 12 22  1  0  0  0
 12 23  1  0  0  0
M  END
> <s_m_source_file>
../1qwu_ligand.sdf

> <i_m_source_file_index>
1

> <s_epik_input>
W09IXVtDSDJdW0NAQF0xKEYpW0NAQEhdKFtPSF0pW0NASF0oW09IXSlbQ0BIXShbT0hdKVtDSDJdTzE=

> <s_epik_cmdline>
J2VwaWtfYXBwJywgJy1pbWFlJywgJ2xpZ2FuZF9wcm8ubWFlJywgJy1vbWFlJywgJ2xpZ2FuZF9wcmVwLm1hZScsICctbXMnLCAnMScsICctcGgnLCAnNycsICctcGh0JywgJzAuNScsICctbnQn

> <r_lp_tautomer_probability>
1

> <r_epik_Ionization_Penalty>
  0.0000

> <r_epik_Ionization_Penalty_Charging>
  0.0000

> <r_epik_Ionization_Penalty_Neutral>
  0.0000

> <r_epik_State_Penalty>
 -0.0000

> <r_epik_Charging_Adjusted_Penalty>
0

> <i_epik_Tot_Q>
0

> <i_epik_Tot_abs_Q>
0

$$$$
