1qx1_ligand
                    3D
 Schrodinger Suite 2020-3.
 22 22  0  0  1  0            999 V2000
   30.3870   66.4620    7.2340 C   0  0  1  0  0  0
   32.2910   65.9040    9.0360 C   0  0  1  0  0  0
   33.3520   65.3690    9.6520 F   0  0  0  0  0  0
   32.7010   66.6330    7.6630 C   0  0  1  0  0  0
   33.9650   66.0100    7.2230 O   0  0  0  0  0  0
   31.6790   66.6650    6.4760 C   0  0  2  0  0  0
   31.7960   67.8420    5.8330 O   0  0  0  0  0  0
   29.3220   66.4620    6.2290 C   0  0  0  0  0  0
   28.0570   66.5860    6.9410 O   0  0  0  0  0  0
   30.3670   65.1950    7.8500 O   0  0  0  0  0  0
   31.1960   64.8820    8.8970 C   0  0  0  0  0  0
   30.2427   67.2036    8.0335 H   0  0  0  0  0  0
   31.9670   66.6174    9.8080 H   0  0  0  0  0  0
   32.8374   67.7048    7.8692 H   0  0  0  0  0  0
   34.8009   65.9032    7.9301 H   0  0  0  0  0  0
   31.7833   66.0231    5.5888 H   0  0  0  0  0  0
   31.1589   68.0591    4.9630 H   0  0  0  0  0  0
   29.4647   67.3104    5.5435 H   0  0  0  0  0  0
   29.3549   65.5212    5.6599 H   0  0  0  0  0  0
   27.1105   66.6077    6.3810 H   0  0  0  0  0  0
   31.6394   63.8921    8.7142 H   0  0  0  0  0  0
   30.6023   64.8525    9.8225 H   0  0  0  0  0  0
  1  6  1  0  0  0
  1  8  1  0  0  0
  1 10  1  0  0  0
  1 12  1  0  0  0
  2  3  1  0  0  0
  2  4  1  0  0  0
  2 11  1  0  0  0
  2 13  1  0  0  0
  4  5  1  0  0  0
  4  6  1  0  0  0
  4 14  1  0  0  0
  5 15  1  0  0  0
  6  7  1  0  0  0
  6 16  1  0  0  0
  7 17  1  0  0  0
  8  9  1  0  0  0
  8 18  1  0  0  0
  8 19  1  0  0  0
  9 20  1  0  0  0
 10 11  1  0  0  0
 11 21  1  0  0  0
 11 22  1  0  0  0
M  END
> <s_m_source_file>
../1qx1_ligand.sdf

> <i_m_source_file_index>
1

> <s_epik_input>
W09IXVtDSDJdW0NAQEhdMVtDQEBIXShbT0hdKVtDQEhdKFtPSF0pW0NASF0oRilbQ0gyXU8x

> <s_epik_cmdline>
J2VwaWtfYXBwJywgJy1pbWFlJywgJ2xpZ2FuZF9wcm8ubWFlJywgJy1vbWFlJywgJ2xpZ2FuZF9wcmVwLm1hZScsICctbXMnLCAnMScsICctcGgnLCAnNycsICctcGh0JywgJzAuNScsICctbnQn

> <r_lp_tautomer_probability>
1

> <r_epik_Ionization_Penalty>
  0.0000

> <r_epik_Ionization_Penalty_Charging>
  0.0000

> <r_epik_Ionization_Penalty_Neutral>
  0.0000

> <r_epik_State_Penalty>
 -0.0000

> <r_epik_Charging_Adjusted_Penalty>
0

> <i_epik_Tot_Q>
0

> <i_epik_Tot_abs_Q>
0

$$$$
