1qxw_ligand
                    3D
 Schrodinger Suite 2020-3.
 37 37  0  0  1  0            999 V2000
    6.8160    3.3480   -6.8150 C   0  0  0  0  0  0
    7.6850    4.3000   -6.0070 C   0  0  0  0  0  0
    6.1690    4.4680   -6.0000 C   0  0  0  0  0  0
    3.4100    2.9550   -1.2110 N   0  3  0  0  0  0
    3.7630    3.5080   -2.5160 C   0  0  2  0  0  0
    5.0630    4.2870   -2.3390 C   0  0  0  0  0  0
    5.6040    4.8850   -3.6380 C   0  0  0  0  0  0
    5.6090    3.9610   -4.7540 N   0  0  1  0  0  0
    6.0480    3.4360   -1.7200 O   0  0  0  0  0  0
    4.8170    5.3880   -1.4750 O   0  0  0  0  0  0
    2.6310    4.3920   -3.0590 C   0  0  0  0  0  0
    1.3670    3.6040   -3.3820 C   0  0  0  0  0  0
    0.2930    4.4930   -4.0190 C   0  0  0  0  0  0
   -0.8560    3.6760   -4.5710 C   0  0  0  0  0  0
    7.0884    3.4161   -7.8786 H   0  0  0  0  0  0
    6.9733    2.3183   -6.4614 H   0  0  0  0  0  0
    8.2612    3.7292   -5.2639 H   0  0  0  0  0  0
    8.3763    4.8270   -6.6810 H   0  0  0  0  0  0
    5.4474    5.2760   -6.1909 H   0  0  0  0  0  0
    4.2349    2.3268   -0.8437 H   0  0  0  0  0  0
    2.4990    2.3458   -1.3052 H   0  0  0  0  0  0
    3.2303    3.7760   -0.5013 H   0  0  0  0  0  0
    3.9018    2.6749   -3.2208 H   0  0  0  0  0  0
    4.9847    5.7455   -3.9314 H   0  0  0  0  0  0
    6.6420    5.2155   -3.4852 H   0  0  0  0  0  0
    4.5603    3.6704   -4.9148 H   0  0  0  0  0  0
    6.3818    2.5201   -2.2296 H   0  0  0  0  0  0
    4.0906    6.1620   -1.7636 H   0  0  0  0  0  0
    2.3690    5.1536   -2.3098 H   0  0  0  0  0  0
    2.9633    4.8865   -3.9837 H   0  0  0  0  0  0
    1.6094    2.7947   -4.0865 H   0  0  0  0  0  0
    0.9565    3.1738   -2.4565 H   0  0  0  0  0  0
   -0.1064    5.1847   -3.2626 H   0  0  0  0  0  0
    0.7361    5.0689   -4.8449 H   0  0  0  0  0  0
   -1.6028    4.3487   -5.0179 H   0  0  0  0  0  0
   -1.3212    3.1008   -3.7569 H   0  0  0  0  0  0
   -0.4787    2.9849   -5.3392 H   0  0  0  0  0  0
  1  2  1  0  0  0
  1  3  1  0  0  0
  1 15  1  0  0  0
  1 16  1  0  0  0
  2  3  1  0  0  0
  2 17  1  0  0  0
  2 18  1  0  0  0
  3  8  1  0  0  0
  3 19  1  0  0  0
  4  5  1  0  0  0
  4 20  1  0  0  0
  4 21  1  0  0  0
  4 22  1  0  0  0
  5  6  1  0  0  0
  5 11  1  0  0  0
  5 23  1  0  0  0
  6  7  1  0  0  0
  6  9  1  0  0  0
  6 10  1  0  0  0
  7  8  1  0  0  0
  7 24  1  0  0  0
  7 25  1  0  0  0
  8 26  1  0  0  0
  9 27  1  0  0  0
 10 28  1  0  0  0
 11 12  1  0  0  0
 11 29  1  0  0  0
 11 30  1  0  0  0
 12 13  1  0  0  0
 12 31  1  0  0  0
 12 32  1  0  0  0
 13 14  1  0  0  0
 13 33  1  0  0  0
 13 34  1  0  0  0
 14 35  1  0  0  0
 14 36  1  0  0  0
 14 37  1  0  0  0
M  CHG  1   4   1
M  END
> <s_m_source_file>
../1qxw_ligand.sdf

> <i_m_source_file_index>
1

> <s_epik_input>
W0NIMl0xW0NIMl1bQ0hdMVtOSDIrXVtDSDJdQyhbT0hdKShbT0hdKVtDQEBIXShbTkgzK10pW0NIMl1bQ0gyXVtDSDJdW0NIM10=

> <s_epik_cmdline>
J2VwaWtfYXBwJywgJy1pbWFlJywgJ2xpZ2FuZF9wcm8ubWFlJywgJy1vbWFlJywgJ2xpZ2FuZF9wcmVwLm1hZScsICctbXMnLCAnMScsICctcGgnLCAnNycsICctcGh0JywgJzAuNScsICctbnQn

> <r_lp_tautomer_probability>
1

> <r_epik_Ionization_Penalty>
  0.0402

> <r_epik_Ionization_Penalty_Charging>
  0.0373

> <r_epik_Ionization_Penalty_Neutral>
  0.0029

> <r_epik_State_Penalty>
 -0.0000

> <r_epik_Charging_Adjusted_Penalty>
0.0372740950018905

> <i_epik_Tot_Q>
1

> <i_epik_Tot_abs_Q>
1

$$$$
