1qxy_ligand
                    3D
 Schrodinger Suite 2020-3.
 32 32  0  0  1  0            999 V2000
    6.2870    3.1910   -1.6160 O   0  0  0  0  0  0
    5.4300    3.8770   -2.4800 C   0  0  0  0  0  0
    5.4750    5.2400   -2.0250 O   0  0  0  0  0  0
    4.0230    3.2670   -2.3810 C   0  0  2  0  0  0
    2.9090    4.1360   -2.9560 C   0  0  0  0  0  0
    1.4980    3.5620   -2.7630 C   0  0  0  0  0  0
    0.2040    4.5530   -3.5070 S   0  0  0  0  0  0
   -0.7150    5.1960   -2.1620 C   0  0  0  0  0  0
    3.7660    2.7620   -1.0590 N   0  3  0  0  0  0
    5.9930    3.7210   -3.8500 C   0  0  0  0  0  0
    6.1290    2.4990   -4.4350 C   0  0  0  0  0  0
    6.6540    2.4000   -5.7010 C   0  0  0  0  0  0
    7.1350    3.5200   -6.2970 C   0  0  0  0  0  0
    7.0160    4.7260   -5.6480 C   0  0  0  0  0  0
    6.4530    4.8160   -4.4340 N   0  0  0  0  0  0
    6.0745    3.1644   -0.5370 H   0  0  0  0  0  0
    5.0910    5.4998   -1.0275 H   0  0  0  0  0  0
    3.9892    2.3516   -2.9900 H   0  0  0  0  0  0
    2.9250    5.1222   -2.4691 H   0  0  0  0  0  0
    3.0615    4.2590   -4.0384 H   0  0  0  0  0  0
    1.4439    2.5615   -3.2170 H   0  0  0  0  0  0
    1.2755    3.4894   -1.6882 H   0  0  0  0  0  0
   -1.5353    5.8213   -2.5441 H   0  0  0  0  0  0
   -0.0560    5.8045   -1.5252 H   0  0  0  0  0  0
   -1.1308    4.3660   -1.5719 H   0  0  0  0  0  0
    4.6182    2.1501   -0.7282 H   0  0  0  0  0  0
    2.8552    2.1453   -1.0727 H   0  0  0  0  0  0
    3.6281    3.6043   -0.3651 H   0  0  0  0  0  0
    5.8218    1.6005   -3.8998 H   0  0  0  0  0  0
    6.6835    1.4401   -6.2166 H   0  0  0  0  0  0
    7.6092    3.4643   -7.2769 H   0  0  0  0  0  0
    7.3877    5.6297   -6.1310 H   0  0  0  0  0  0
  1  2  1  0  0  0
  1 16  1  0  0  0
  2  3  1  0  0  0
  2  4  1  0  0  0
  2 10  1  0  0  0
  3 17  1  0  0  0
  4  5  1  0  0  0
  4  9  1  0  0  0
  4 18  1  0  0  0
  5  6  1  0  0  0
  5 19  1  0  0  0
  5 20  1  0  0  0
  6  7  1  0  0  0
  6 21  1  0  0  0
  6 22  1  0  0  0
  7  8  1  0  0  0
  8 23  1  0  0  0
  8 24  1  0  0  0
  8 25  1  0  0  0
  9 26  1  0  0  0
  9 27  1  0  0  0
  9 28  1  0  0  0
 10 11  2  0  0  0
 10 15  1  0  0  0
 11 12  1  0  0  0
 11 29  1  0  0  0
 12 13  2  0  0  0
 12 30  1  0  0  0
 13 14  1  0  0  0
 13 31  1  0  0  0
 14 15  2  0  0  0
 14 32  1  0  0  0
M  CHG  1   9   1
M  END
> <s_m_source_file>
../1qxy_ligand.sdf

> <i_m_source_file_index>
1

> <s_epik_input>
W0NIM11TW0NIMl1bQ0gyXVtDQEhdKFtOSDMrXSlDKFtPSF0pKFtPSF0pYzFbY0hdW2NIXVtjSF1bY0hdbjE=

> <s_epik_cmdline>
J2VwaWtfYXBwJywgJy1pbWFlJywgJ2xpZ2FuZF9wcm8ubWFlJywgJy1vbWFlJywgJ2xpZ2FuZF9wcmVwLm1hZScsICctbXMnLCAnMScsICctcGgnLCAnNycsICctcGh0JywgJzAuNScsICctbnQn

> <r_lp_tautomer_probability>
1

> <r_epik_Ionization_Penalty>
  0.0903

> <r_epik_Ionization_Penalty_Charging>
  0.0854

> <r_epik_Ionization_Penalty_Neutral>
  0.0049

> <r_epik_State_Penalty>
 -0.0000

> <r_epik_Charging_Adjusted_Penalty>
0.0854223705806249

> <i_epik_Tot_Q>
1

> <i_epik_Tot_abs_Q>
1

$$$$
