1qxz_ligand
                    3D
 Schrodinger Suite 2020-3.
 29 29  0  0  1  0            999 V2000
   16.6960    2.9840    1.1790 N   0  3  0  0  0  0
   16.3050    3.2690    2.5540 C   0  0  1  0  0  0
   17.4030    4.1880    3.0830 C   0  0  0  0  0  0
   18.7680    3.5010    3.1040 C   0  0  0  0  0  0
   20.1420    4.5880    3.6080 S   0  0  0  0  0  0
   20.0090    4.1010    5.2380 C   0  0  0  0  0  0
   14.8820    3.8460    2.5570 C   0  0  0  0  0  0
   14.0720    3.0510    1.6930 O   0  0  0  0  0  0
   14.8810    5.1820    2.0730 O   0  0  0  0  0  0
   14.2670    3.7530    3.9390 C   0  0  0  0  0  0
   13.6810    4.8220    4.4880 N   0  0  0  0  0  0
   13.1830    4.4970    5.7200 C   0  0  0  0  0  0
   13.4010    3.1630    6.0040 C   0  0  0  0  0  0
   14.2010    2.2930    4.7930 S   0  0  0  0  0  0
   17.7150    2.5698    1.1659 H   0  0  0  0  0  0
   16.6702    3.9129    0.5904 H   0  0  0  0  0  0
   15.9979    2.2542    0.7431 H   0  0  0  0  0  0
   16.2558    2.3671    3.1818 H   0  0  0  0  0  0
   17.4775    5.0778    2.4406 H   0  0  0  0  0  0
   17.1594    4.4968    4.1103 H   0  0  0  0  0  0
   18.7444    2.6601    3.8127 H   0  0  0  0  0  0
   19.0052    3.1257    2.0976 H   0  0  0  0  0  0
   20.7654    4.6255    5.8403 H   0  0  0  0  0  0
   20.1707    3.0154    5.3107 H   0  0  0  0  0  0
   19.0052    4.3482    5.6138 H   0  0  0  0  0  0
   14.3258    2.9650    0.6261 H   0  0  0  0  0  0
   15.2966    5.4075    1.0798 H   0  0  0  0  0  0
   12.6813    5.1971    6.3881 H   0  0  0  0  0  0
   13.0812    2.7043    6.9396 H   0  0  0  0  0  0
  1  2  1  0  0  0
  1 15  1  0  0  0
  1 16  1  0  0  0
  1 17  1  0  0  0
  2  3  1  0  0  0
  2  7  1  0  0  0
  2 18  1  0  0  0
  3  4  1  0  0  0
  3 19  1  0  0  0
  3 20  1  0  0  0
  4  5  1  0  0  0
  4 21  1  0  0  0
  4 22  1  0  0  0
  5  6  1  0  0  0
  6 23  1  0  0  0
  6 24  1  0  0  0
  6 25  1  0  0  0
  7  8  1  0  0  0
  7  9  1  0  0  0
  7 10  1  0  0  0
  8 26  1  0  0  0
  9 27  1  0  0  0
 10 11  2  0  0  0
 10 14  1  0  0  0
 11 12  1  0  0  0
 12 13  2  0  0  0
 12 28  1  0  0  0
 13 14  1  0  0  0
 13 29  1  0  0  0
M  CHG  1   1   1
M  END
> <s_m_source_file>
../1qxz_ligand.sdf

> <i_m_source_file_index>
1

> <s_epik_input>
W0NIM11TW0NIMl1bQ0gyXVtDQEhdKFtOSDMrXSlDKFtPSF0pKFtPSF0pYzFuW2NIXVtjSF1zMQ==

> <s_epik_cmdline>
J2VwaWtfYXBwJywgJy1pbWFlJywgJ2xpZ2FuZF9wcm8ubWFlJywgJy1vbWFlJywgJ2xpZ2FuZF9wcmVwLm1hZScsICctbXMnLCAnMScsICctcGgnLCAnNycsICctcGh0JywgJzAuNScsICctbnQn

> <r_epik_Ionization_Penalty>
  0.1443

> <r_epik_Ionization_Penalty_Charging>
  0.1429

> <r_epik_Ionization_Penalty_Neutral>
  0.0014

> <r_epik_State_Penalty>
  0.1322

> <r_epik_Charging_Adjusted_Penalty>
0.275094025934207

> <i_epik_Tot_Q>
1

> <i_epik_Tot_abs_Q>
1

$$$$
