1qy1_ligand
                    3D
 Schrodinger Suite 2020-3.
 26 26  0  0  1  0            999 V2000
   50.2630   22.9610   42.7300 N   0  0  0  0  0  0
   50.2500   23.7750   41.6530 C   0  0  0  0  0  0
   51.2160   23.5720   40.6630 C   0  0  0  0  0  0
   52.1170   22.5790   40.8060 N   0  0  0  0  0  0
   52.1180   21.7900   41.8710 C   0  0  0  0  0  0
   51.1600   21.9900   42.8650 C   0  0  0  0  0  0
   49.1490   24.8530   41.5610 C   0  0  0  0  0  0
   48.2800   24.6440   40.3120 C   0  0  0  0  0  0
   47.2020   25.7290   40.2570 C   0  0  0  0  0  0
   47.6420   23.2490   40.3070 C   0  0  0  0  0  0
   51.2340   24.4430   39.6190 O   0  0  0  0  0  0
   52.4030   24.3330   38.8150 C   0  0  0  0  0  0
   52.8576   20.9954   41.9688 H   0  0  0  0  0  0
   51.1473   21.3523   43.7489 H   0  0  0  0  0  0
   48.5064   24.7977   42.4520 H   0  0  0  0  0  0
   49.6141   25.8483   41.5056 H   0  0  0  0  0  0
   48.9167   24.7199   39.4182 H   0  0  0  0  0  0
   47.6789   26.7202   40.2614 H   0  0  0  0  0  0
   46.5426   25.6354   41.1325 H   0  0  0  0  0  0
   46.6097   25.6111   39.3376 H   0  0  0  0  0  0
   48.4319   22.4844   40.3469 H   0  0  0  0  0  0
   47.0519   23.1190   39.3878 H   0  0  0  0  0  0
   46.9848   23.1433   41.1827 H   0  0  0  0  0  0
   52.3527   25.0623   37.9931 H   0  0  0  0  0  0
   52.4681   23.3165   38.3998 H   0  0  0  0  0  0
   53.2918   24.5352   39.4307 H   0  0  0  0  0  0
  1  2  2  0  0  0
  1  6  1  0  0  0
  2  3  1  0  0  0
  2  7  1  0  0  0
  3  4  2  0  0  0
  3 11  1  0  0  0
  4  5  1  0  0  0
  5  6  2  0  0  0
  5 13  1  0  0  0
  6 14  1  0  0  0
  7  8  1  0  0  0
  7 15  1  0  0  0
  7 16  1  0  0  0
  8  9  1  0  0  0
  8 10  1  0  0  0
  8 17  1  0  0  0
  9 18  1  0  0  0
  9 19  1  0  0  0
  9 20  1  0  0  0
 10 21  1  0  0  0
 10 22  1  0  0  0
 10 23  1  0  0  0
 11 12  1  0  0  0
 12 24  1  0  0  0
 12 25  1  0  0  0
 12 26  1  0  0  0
M  END
> <s_m_source_file>
../1qy1_ligand.sdf

> <i_m_source_file_index>
1

> <s_epik_input>
W0NIM11bQ0hdKFtDSDNdKVtDSDJdYzFuW2NIXVtjSF1uYzFPW0NIM10=

> <s_epik_cmdline>
J2VwaWtfYXBwJywgJy1pbWFlJywgJ2xpZ2FuZF9wcm8ubWFlJywgJy1vbWFlJywgJ2xpZ2FuZF9wcmVwLm1hZScsICctbXMnLCAnMScsICctcGgnLCAnNycsICctcGh0JywgJzAuNScsICctbnQn

> <r_lp_tautomer_probability>
1

> <r_epik_Ionization_Penalty>
  0.0000

> <r_epik_Ionization_Penalty_Charging>
  0.0000

> <r_epik_Ionization_Penalty_Neutral>
  0.0000

> <r_epik_State_Penalty>
 -0.0000

> <r_epik_Charging_Adjusted_Penalty>
0

> <i_epik_Tot_Q>
0

> <i_epik_Tot_abs_Q>
0

$$$$
