1qy2_ligand
                    3D
 Schrodinger Suite 2020-3.
 23 23  0  0  1  0            999 V2000
   48.4750   25.6490   42.1400 C   0  0  0  0  0  0
   48.9590   24.8540   40.9240 C   0  0  0  0  0  0
   47.7690   24.2150   40.2100 C   0  0  0  0  0  0
   49.9660   23.7680   41.3250 C   0  0  0  0  0  0
   49.8510   23.0680   42.4600 N   0  0  0  0  0  0
   50.7040   22.1120   42.7950 C   0  0  0  0  0  0
   51.7570   21.8080   41.9370 C   0  0  0  0  0  0
   51.8890   22.4850   40.8060 N   0  0  0  0  0  0
   51.0280   23.4590   40.4780 C   0  0  0  0  0  0
   51.1460   24.1920   39.3370 O   0  0  0  0  0  0
   52.4100   24.1120   38.6670 C   0  0  0  0  0  0
   47.7568   26.4159   41.8144 H   0  0  0  0  0  0
   49.3341   26.1341   42.6265 H   0  0  0  0  0  0
   47.9865   24.9680   42.8525 H   0  0  0  0  0  0
   49.4623   25.5557   40.2426 H   0  0  0  0  0  0
   47.0498   24.9968   39.9244 H   0  0  0  0  0  0
   47.2804   23.4957   40.8836 H   0  0  0  0  0  0
   48.1201   23.6925   39.3079 H   0  0  0  0  0  0
   50.5828   21.5691   43.7324 H   0  0  0  0  0  0
   52.4660   21.0207   42.1932 H   0  0  0  0  0  0
   52.3873   24.7411   37.7649 H   0  0  0  0  0  0
   52.6082   23.0684   38.3814 H   0  0  0  0  0  0
   53.2049   24.4651   39.3404 H   0  0  0  0  0  0
  1  2  1  0  0  0
  1 12  1  0  0  0
  1 13  1  0  0  0
  1 14  1  0  0  0
  2  3  1  0  0  0
  2  4  1  0  0  0
  2 15  1  0  0  0
  3 16  1  0  0  0
  3 17  1  0  0  0
  3 18  1  0  0  0
  4  5  2  0  0  0
  4  9  1  0  0  0
  5  6  1  0  0  0
  6  7  2  0  0  0
  6 19  1  0  0  0
  7  8  1  0  0  0
  7 20  1  0  0  0
  8  9  2  0  0  0
  9 10  1  0  0  0
 10 11  1  0  0  0
 11 21  1  0  0  0
 11 22  1  0  0  0
 11 23  1  0  0  0
M  END
> <s_m_source_file>
../1qy2_ligand.sdf

> <i_m_source_file_index>
1

> <s_epik_input>
W0NIM11bQ0hdKFtDSDNdKWMxbltjSF1bY0hdbmMxT1tDSDNd

> <s_epik_cmdline>
J2VwaWtfYXBwJywgJy1pbWFlJywgJ2xpZ2FuZF9wcm8ubWFlJywgJy1vbWFlJywgJ2xpZ2FuZF9wcmVwLm1hZScsICctbXMnLCAnMScsICctcGgnLCAnNycsICctcGh0JywgJzAuNScsICctbnQn

> <r_lp_tautomer_probability>
1

> <r_epik_Ionization_Penalty>
  0.0000

> <r_epik_Ionization_Penalty_Charging>
  0.0000

> <r_epik_Ionization_Penalty_Neutral>
  0.0000

> <r_epik_State_Penalty>
 -0.0000

> <r_epik_Charging_Adjusted_Penalty>
0

> <i_epik_Tot_Q>
0

> <i_epik_Tot_abs_Q>
0

$$$$
