1qyg_ligand
                    3D
 Schrodinger Suite 2020-3.
 40 42  0  0  1  0            999 V2000
   22.4460   -1.2630   26.2590 C   0  0  1  0  0  0
   23.8230   -1.8700   25.8480 C   0  0  2  0  0  0
   23.7170   -2.3060   24.3540 C   0  0  2  0  0  0
   22.5100   -3.0750   23.9880 C   0  0  0  0  0  0
   21.2020   -2.3290   24.5660 C   0  0  2  0  0  0
   21.1570   -0.8370   24.1760 C   0  0  0  0  0  0
   22.0120   -0.0810   25.3480 C   0  0  0  0  0  0
   26.1290   -2.5320   24.0090 C   0  0  0  0  0  0
   27.1500   -3.5320   23.5930 C   0  0  0  0  0  0
   26.7740   -4.8540   23.1910 C   0  0  0  0  0  0
   27.8290   -5.7630   22.7520 C   0  0  0  0  0  0
   29.1740   -5.3220   22.7360 C   0  0  0  0  0  0
   29.5230   -3.9990   23.1720 C   0  0  0  0  0  0
   28.4870   -3.1350   23.5890 C   0  0  0  0  0  0
   24.2950   -3.0020   26.7720 C   0  0  0  0  0  0
   20.1090   -2.0540   26.8750 C   0  0  0  0  0  0
   21.3640   -2.3560   26.0570 N   0  3  2  0  0  0
   24.9230   -3.0250   23.9640 O   0  0  0  0  0  0
   26.4190   -1.3840   24.2890 O   0  0  0  0  0  0
   25.3480   -3.0990   27.3210 O   0  0  0  0  0  0
   23.3700   -3.9040   26.8580 O   0  5  0  0  0  0
   22.5406   -0.9103   27.2966 H   0  0  0  0  0  0
   24.6152   -1.1170   25.9726 H   0  0  0  0  0  0
   23.6274   -1.4085   23.7244 H   0  0  0  0  0  0
   22.4382   -3.1453   22.8926 H   0  0  0  0  0  0
   22.5753   -4.0859   24.4168 H   0  0  0  0  0  0
   20.2688   -2.7999   24.2235 H   0  0  0  0  0  0
   21.6136   -0.7034   23.1842 H   0  0  0  0  0  0
   20.1113   -0.4969   24.1470 H   0  0  0  0  0  0
   21.4052    0.6275   25.9309 H   0  0  0  0  0  0
   22.9054    0.4321   24.9625 H   0  0  0  0  0  0
   25.7317   -5.1721   23.2121 H   0  0  0  0  0  0
   27.5819   -6.7771   22.4379 H   0  0  0  0  0  0
   29.9562   -5.9965   22.3877 H   0  0  0  0  0  0
   30.5621   -3.6699   23.1808 H   0  0  0  0  0  0
   28.7399   -2.1270   23.9178 H   0  0  0  0  0  0
   20.3497   -2.1027   27.9472 H   0  0  0  0  0  0
   19.3309   -2.7951   26.6398 H   0  0  0  0  0  0
   19.7431   -1.0468   26.6267 H   0  0  0  0  0  0
   21.6041   -3.3750   26.3945 H   0  0  0  0  0  0
  1  2  1  0  0  0
  1  7  1  0  0  0
  1 17  1  0  0  0
  1 22  1  0  0  0
  2  3  1  0  0  0
  2 15  1  0  0  0
  2 23  1  0  0  0
  3  4  1  0  0  0
  3 18  1  0  0  0
  3 24  1  0  0  0
  4  5  1  0  0  0
  4 25  1  0  0  0
  4 26  1  0  0  0
  5  6  1  0  0  0
  5 17  1  0  0  0
  5 27  1  0  0  0
  6  7  1  0  0  0
  6 28  1  0  0  0
  6 29  1  0  0  0
  7 30  1  0  0  0
  7 31  1  0  0  0
  8  9  1  0  0  0
  8 18  1  0  0  0
  8 19  2  0  0  0
  9 10  2  0  0  0
  9 14  1  0  0  0
 10 11  1  0  0  0
 10 32  1  0  0  0
 11 12  2  0  0  0
 11 33  1  0  0  0
 12 13  1  0  0  0
 12 34  1  0  0  0
 13 14  2  0  0  0
 13 35  1  0  0  0
 14 36  1  0  0  0
 15 20  2  0  0  0
 15 21  1  0  0  0
 16 17  1  0  0  0
 16 37  1  0  0  0
 16 38  1  0  0  0
 16 39  1  0  0  0
 17 40  1  0  0  0
M  CHG  2  17   1  21  -1
M  END
> <s_m_source_file>
../1qyg_ligand.sdf

> <i_m_source_file_index>
1

> <s_epik_input>
W0NIMl0xW0NIMl1bQ0BIXShbTkBASCtdMltDSDNdKVtDSDJdW0NAQEhdKFtDQEBIXShbQ0BASF0xMilDKD1PKVtPSF0pT0MoPU8pYzNbY0hdW2NIXVtjSF1bY0hdW2NIXTM=

> <s_epik_cmdline>
J2VwaWtfYXBwJywgJy1pbWFlJywgJ2xpZ2FuZF9wcm8ubWFlJywgJy1vbWFlJywgJ2xpZ2FuZF9wcmVwLm1hZScsICctbXMnLCAnMScsICctcGgnLCAnNycsICctcGh0JywgJzAuNScsICctbnQn

> <r_lp_tautomer_probability>
1

> <r_epik_Ionization_Penalty>
  0.0006

> <r_epik_Ionization_Penalty_Charging>
  0.0006

> <r_epik_Ionization_Penalty_Neutral>
  0.0000

> <r_epik_State_Penalty>
 -0.0000

> <r_epik_Charging_Adjusted_Penalty>
0.000626302762417357

> <i_epik_Tot_Q>
0

> <i_epik_Tot_abs_Q>
2

> <s_epik_Chemistry_Notes>
This compound has an ester and may undergo hydrolysis at high or low pH.

$$$$
