1r0x_ligand
                    3D
 Schrodinger Suite 2020-3.
 43 45  0  0  1  0            999 V2000
  161.7650    6.7740   29.7860 P   0  0  0  0  0  0
  162.1430    6.7740   28.3670 O   0  0  0  0  0  0
  160.4590    5.9990   30.1110 O   0  5  0  0  0  0
  162.8420    6.0200   30.5770 O   0  5  0  0  0  0
  160.3860    9.2660   30.0000 P   0  0  1  0  0  0
  160.2940    9.7630   28.6200 O   0  0  0  0  0  0
  159.1270    8.6060   30.5450 O   0  5  0  0  0  0
  161.6610    8.3190   30.2170 O   0  0  0  0  0  0
  160.3120   10.8880   32.3570 P   0  0  2  0  0  0
  160.3390    9.7030   33.2570 O   0  0  0  0  0  0
  158.9490   11.6380   32.4040 O   0  5  0  0  0  0
  160.7090   10.6280   30.8110 O   0  0  0  0  0  0
  161.5640   11.7980   32.8780 O   0  0  0  0  0  0
  161.7530   13.1600   32.5720 C   0  0  0  0  0  0
  162.8880   13.6440   33.4700 C   0  0  1  0  0  0
  162.7390   13.1070   34.7710 O   0  0  0  0  0  0
  164.2620   13.1980   33.0110 C   0  0  1  0  0  0
  164.8270   14.2300   32.2480 O   0  0  0  0  0  0
  165.0220   12.9720   34.3040 C   0  0  1  0  0  0
  165.5840   14.1780   34.7890 O   0  0  0  0  0  0
  163.9680   12.6820   35.3410 C   0  0  2  0  0  0
  163.9310   11.2850   35.8240 N   0  0  0  0  0  0
  162.8660   10.4290   35.6920 C   0  0  0  0  0  0
  163.1560    9.2450   36.2650 N   0  0  0  0  0  0
  164.4090    9.3190   36.7760 C   0  0  0  0  0  0
  165.1770    8.3790   37.4780 C   0  0  0  0  0  0
  164.6650    7.1720   37.7200 N   0  0  0  0  0  0
  166.4510    8.7330   37.8840 N   0  0  0  0  0  0
  166.9360   10.0020   37.6110 C   0  0  0  0  0  0
  166.1670   10.9300   36.9290 N   0  0  0  0  0  0
  164.9130   10.5990   36.5110 C   0  0  0  0  0  0
  162.0173   13.2638   31.5093 H   0  0  0  0  0  0
  160.8243   13.7136   32.7746 H   0  0  0  0  0  0
  162.8207   14.7411   33.5119 H   0  0  0  0  0  0
  164.2958   12.3352   32.3295 H   0  0  0  0  0  0
  164.3808   14.5070   31.2815 H   0  0  0  0  0  0
  165.8274   12.2374   34.1567 H   0  0  0  0  0  0
  166.4037   14.6631   34.2388 H   0  0  0  0  0  0
  164.1431   13.2453   36.2694 H   0  0  0  0  0  0
  161.9256   10.6714   35.1971 H   0  0  0  0  0  0
  163.6474    6.9281   37.3809 H   0  0  0  0  0  0
  165.2602    6.4200   38.2588 H   0  0  0  0  0  0
  167.9394   10.2743   37.9385 H   0  0  0  0  0  0
  1  2  2  0  0  0
  1  3  1  0  0  0
  1  4  1  0  0  0
  1  8  1  0  0  0
  5  6  2  0  0  0
  5  7  1  0  0  0
  5  8  1  0  0  0
  5 12  1  0  0  0
  9 10  2  0  0  0
  9 11  1  0  0  0
  9 12  1  0  0  0
  9 13  1  0  0  0
 13 14  1  0  0  0
 14 15  1  0  0  0
 14 32  1  0  0  0
 14 33  1  0  0  0
 15 16  1  0  0  0
 15 17  1  0  0  0
 15 34  1  0  0  0
 16 21  1  0  0  0
 17 18  1  0  0  0
 17 19  1  0  0  0
 17 35  1  0  0  0
 18 36  1  0  0  0
 19 20  1  0  0  0
 19 21  1  0  0  0
 19 37  1  0  0  0
 20 38  1  0  0  0
 21 22  1  0  0  0
 21 39  1  0  0  0
 22 23  1  0  0  0
 22 31  1  0  0  0
 23 24  2  0  0  0
 23 40  1  0  0  0
 24 25  1  0  0  0
 25 26  2  0  0  0
 25 31  1  0  0  0
 26 27  1  0  0  0
 26 28  1  0  0  0
 27 41  1  0  0  0
 27 42  1  0  0  0
 28 29  2  0  0  0
 29 30  1  0  0  0
 29 43  1  0  0  0
 30 31  2  0  0  0
M  CHG  4   3  -1   4  -1   7  -1  11  -1
M  END
> <s_m_source_file>
../1r0x_ligand.sdf

> <i_m_source_file_index>
1

> <s_epik_input>
Tz1QKFtPSF0pKFtPSF0pT1tQQEBdKD1PKShbT0hdKU9bUEBdKD1PKShbT0hdKU9bQ0gyXVtDQEhdMU9bQ0BIXShbQ0BIXShbT0hdKVtDQEBIXTFbT0hdKW4oW2NIXW4yKWMoYzIzKW5bY0hdbmMzW05IMl0=

> <s_epik_cmdline>
J2VwaWtfYXBwJywgJy1pbWFlJywgJ2xpZ2FuZF9wcm8ubWFlJywgJy1vbWFlJywgJ2xpZ2FuZF9wcmVwLm1hZScsICctbXMnLCAnMScsICctcGgnLCAnNycsICctcGh0JywgJzAuNScsICctbnQn

> <r_lp_tautomer_probability>
0.999997216410988

> <r_epik_Ionization_Penalty>
  0.0818

> <r_epik_Ionization_Penalty_Charging>
  0.0813

> <r_epik_Ionization_Penalty_Neutral>
  0.0004

> <r_epik_State_Penalty>
  0.0708

> <r_epik_Charging_Adjusted_Penalty>
0.152157994418768

> <i_epik_Tot_Q>
-4

> <i_epik_Tot_abs_Q>
4

> <s_epik_Chemistry_Notes>
This compound contains an acetal/aminal-like group ( X-CH(R)-Y where X, Y are N, S, or O) that may be acid/base labile, releasing an aldehyde.

$$$$
