1r10_ligand
                    3D
 Schrodinger Suite 2020-3.
 43 45  0  0  1  0            999 V2000
  148.2720   11.7150  254.1630 P   0  0  0  0  0  0
  147.4340   11.4430  252.9290 O   0  5  0  0  0  0
  147.8030   12.8890  254.9960 O   0  5  0  0  0  0
  148.4420   10.4760  255.0150 O   0  0  0  0  0  0
  150.6180   13.4950  253.8420 P   0  0  1  0  0  0
  151.7490   13.6620  252.9740 O   0  0  0  0  0  0
  150.0910   14.6250  254.6270 O   0  5  0  0  0  0
  149.7660   12.1490  253.6700 O   0  0  0  0  0  0
  152.3330   13.4140  256.2480 P   0  0  2  0  0  0
  151.6780   13.2810  257.5650 O   0  0  0  0  0  0
  153.5320   14.2780  256.0090 O   0  5  0  0  0  0
  151.6280   12.7280  254.9860 O   0  0  0  0  0  0
  153.0320   12.1880  256.7130 O   0  0  0  0  0  0
  153.8030   11.1840  256.7450 C   0  0  0  0  0  0
  155.0050   10.4950  257.2230 C   0  0  1  0  0  0
  154.6410   10.4270  258.6430 O   0  0  0  0  0  0
  154.7180    9.2560  256.4900 C   0  0  1  0  0  0
  155.8270    8.6650  255.8340 O   0  0  0  0  0  0
  154.0320    8.3220  257.5560 C   0  0  1  0  0  0
  154.8430    7.1720  257.6850 O   0  0  0  0  0  0
  154.0380    9.0980  258.9300 C   0  0  2  0  0  0
  152.6720    9.3110  259.5890 N   0  0  0  0  0  0
  151.7410   10.3930  259.4780 C   0  0  0  0  0  0
  150.6520   10.2730  260.1910 N   0  0  0  0  0  0
  150.8440    9.0270  260.8330 C   0  0  0  0  0  0
  150.0290    8.2610  261.7890 C   0  0  0  0  0  0
  148.8340    8.7250  262.2230 N   0  0  0  0  0  0
  150.5270    7.0140  262.2510 N   0  0  0  0  0  0
  151.7410    6.5420  261.8080 C   0  0  0  0  0  0
  152.6000    7.1610  260.9190 N   0  0  0  0  0  0
  152.0670    8.4310  260.4680 C   0  0  0  0  0  0
  153.2485   10.3074  257.1113 H   0  0  0  0  0  0
  154.1828   10.9809  255.7328 H   0  0  0  0  0  0
  156.0426   10.8410  257.1060 H   0  0  0  0  0  0
  154.1503    9.4847  255.5760 H   0  0  0  0  0  0
  156.3797    9.2312  255.0698 H   0  0  0  0  0  0
  153.0375    7.9515  257.2668 H   0  0  0  0  0  0
  154.9711    6.4907  256.8309 H   0  0  0  0  0  0
  154.6106    8.5276  259.6761 H   0  0  0  0  0  0
  151.9277   11.2583  258.8420 H   0  0  0  0  0  0
  148.4549    9.6919  261.8605 H   0  0  0  0  0  0
  148.2418    8.1352  262.9382 H   0  0  0  0  0  0
  152.0598    5.5762  262.2001 H   0  0  0  0  0  0
  1  2  1  0  0  0
  1  3  1  0  0  0
  1  4  2  0  0  0
  1  8  1  0  0  0
  5  6  2  0  0  0
  5  7  1  0  0  0
  5  8  1  0  0  0
  5 12  1  0  0  0
  9 10  2  0  0  0
  9 11  1  0  0  0
  9 12  1  0  0  0
  9 13  1  0  0  0
 13 14  1  0  0  0
 14 15  1  0  0  0
 14 32  1  0  0  0
 14 33  1  0  0  0
 15 16  1  0  0  0
 15 17  1  0  0  0
 15 34  1  0  0  0
 16 21  1  0  0  0
 17 18  1  0  0  0
 17 19  1  0  0  0
 17 35  1  0  0  0
 18 36  1  0  0  0
 19 20  1  0  0  0
 19 21  1  0  0  0
 19 37  1  0  0  0
 20 38  1  0  0  0
 21 22  1  0  0  0
 21 39  1  0  0  0
 22 23  1  0  0  0
 22 31  1  0  0  0
 23 24  2  0  0  0
 23 40  1  0  0  0
 24 25  1  0  0  0
 25 26  2  0  0  0
 25 31  1  0  0  0
 26 27  1  0  0  0
 26 28  1  0  0  0
 27 41  1  0  0  0
 27 42  1  0  0  0
 28 29  2  0  0  0
 29 30  1  0  0  0
 29 43  1  0  0  0
 30 31  2  0  0  0
M  CHG  4   2  -1   3  -1   7  -1  11  -1
M  END
> <s_m_source_file>
../1r10_ligand.sdf

> <i_m_source_file_index>
1

> <s_epik_input>
W09IXVAoPU8pKFtPSF0pT1tQQEBdKD1PKShbT0hdKU9bUEBdKD1PKShbT0hdKU9bQ0gyXVtDQEhdMU9bQ0BIXShbQ0BIXShbT0hdKVtDQEBIXTFbT0hdKW4oW2NIXW4yKWMoYzIzKW5bY0hdbmMzW05IMl0=

> <s_epik_cmdline>
J2VwaWtfYXBwJywgJy1pbWFlJywgJ2xpZ2FuZF9wcm8ubWFlJywgJy1vbWFlJywgJ2xpZ2FuZF9wcmVwLm1hZScsICctbXMnLCAnMScsICctcGgnLCAnNycsICctcGh0JywgJzAuNScsICctbnQn

> <r_lp_tautomer_probability>
0.999997216410988

> <r_epik_Ionization_Penalty>
  0.0818

> <r_epik_Ionization_Penalty_Charging>
  0.0813

> <r_epik_Ionization_Penalty_Neutral>
  0.0004

> <r_epik_State_Penalty>
  0.0708

> <r_epik_Charging_Adjusted_Penalty>
0.152157994418768

> <i_epik_Tot_Q>
-4

> <i_epik_Tot_abs_Q>
4

> <s_epik_Chemistry_Notes>
This compound contains an acetal/aminal-like group ( X-CH(R)-Y where X, Y are N, S, or O) that may be acid/base labile, releasing an aldehyde.

$$$$
