1r17_ligand
                    3D
 Schrodinger Suite 2020-3.
165168  0  0  1  0            999 V2000
   48.4420   17.9430  106.3910 N   0  3  0  0  0  0
   49.6600   17.0840  106.5350 C   0  0  0  0  0  0
   49.9880   16.3580  105.2440 C   0  0  0  0  0  0
   50.5100   15.2410  105.2580 O   0  0  0  0  0  0
   49.6800   16.9890  104.1160 N   0  0  0  0  0  0
   49.9480   16.3860  102.8170 C   0  0  2  0  0  0
   51.0420   17.1380  102.0580 C   0  0  0  0  0  0
   51.0850   18.3690  102.0680 O   0  0  0  0  0  0
   48.6650   16.3580  101.9860 C   0  0  0  0  0  0
   51.9250   16.3910  101.4040 N   0  0  0  0  0  0
   53.0010   16.9860  100.6120 C   0  0  2  0  0  0
   52.7110   16.6270   99.1530 C   0  0  0  0  0  0
   52.6040   15.4560   98.7970 O   0  0  0  0  0  0
   54.3560   16.4590  101.0880 C   0  0  0  0  0  0
   54.5890   16.6840  102.5570 C   0  0  0  0  0  0
   54.0320   15.8230  103.4980 C   0  0  0  0  0  0
   55.2980   17.7960  103.0020 C   0  0  0  0  0  0
   54.1710   16.0650  104.8630 C   0  0  0  0  0  0
   55.4450   18.0510  104.3600 C   0  0  0  0  0  0
   54.8780   17.1820  105.2970 C   0  0  0  0  0  0
   52.5780   17.6600   98.3280 N   0  0  0  0  0  0
   52.1980   17.5290   96.9280 C   0  0  2  0  0  0
   53.2460   17.5830   95.8240 C   0  0  0  0  0  0
   54.2780   18.2420   95.9440 O   0  0  0  0  0  0
   51.1610   18.6090   96.5960 C   0  0  0  0  0  0
   49.8950   18.5050   97.3900 C   0  0  0  0  0  0
   48.9030   17.6050   97.0190 C   0  0  0  0  0  0
   49.6920   19.3080   98.5090 C   0  0  0  0  0  0
   47.7240   17.5000   97.7540 C   0  0  0  0  0  0
   48.5130   19.2080   99.2540 C   0  0  0  0  0  0
   47.5310   18.3040   98.8700 C   0  0  0  0  0  0
   52.9180   16.8920   94.7340 N   0  0  0  0  0  0
   53.7100   16.8620   93.5090 C   0  0  2  0  0  0
   52.7090   16.4900   92.4110 C   0  0  0  0  0  0
   51.4950   16.5560   92.6290 O   0  0  0  0  0  0
   54.8410   15.8390   93.5770 C   0  0  0  0  0  0
   55.7550   16.0580   92.5060 O   0  0  0  0  0  0
   53.1960   16.1050   91.2370 N   0  0  0  0  0  0
   52.2860   15.7550   90.1530 C   0  0  2  0  0  0
   52.9170   14.8190   89.1310 C   0  0  0  0  0  0
   54.1410   14.7720   88.9780 O   0  0  0  0  0  0
   51.8000   17.0210   89.4660 C   0  0  0  0  0  0
   52.0590   14.0830   88.4320 N   0  0  0  0  0  0
   52.4800   13.1360   87.4100 C   0  0  2  0  0  0
   52.1460   13.6630   86.0160 C   0  0  0  0  0  0
   51.2740   14.5210   85.8510 O   0  0  0  0  0  0
   51.7550   11.7950   87.5840 C   0  0  0  0  0  0
   52.0660   11.0150   88.8420 C   0  0  0  0  0  0
   51.5110    9.6020   88.6770 C   0  0  0  0  0  0
   52.0510    8.6470   89.6420 N   0  0  0  0  0  0
   52.5690    7.4660   89.3120 C   0  0  0  0  0  0
   52.6230    7.0910   88.0390 N   0  0  0  0  0  0
   53.0190    6.6510   90.2530 N   0  0  0  0  0  0
   52.8420   13.1230   85.0210 N   0  0  0  0  0  0
   52.6050   13.4870   83.6370 C   0  0  0  0  0  0
   52.2910   12.2060   82.8840 C   0  0  0  0  0  0
   52.8060   11.1410   83.2340 O   0  0  0  0  0  0
   51.4390   12.3000   81.8700 N   0  0  0  0  0  0
   51.0490   11.1430   81.0750 C   0  0  2  0  0  0
   50.9250   11.4840   79.6040 C   0  0  0  0  0  0
   50.4140   12.5470   79.2380 O   0  0  0  0  0  0
   49.7110   10.5800   81.5590 C   0  0  0  0  0  0
   49.0780    9.6160   80.6050 C   0  0  0  0  0  0
   49.6080    8.3600   80.3570 N   0  0  0  0  0  0
   47.9800    9.7150   79.8210 C   0  0  0  0  0  0
   48.8500    7.7380   79.4600 C   0  0  0  0  0  0
   47.8630    8.5420   79.1250 N   0  0  0  0  0  0
   51.3780   10.5640   78.7550 N   0  0  0  0  0  0
   51.3130   10.7670   77.2920 C   0  0  2  0  0  0
   50.4040    9.7620   76.5700 C   0  0  0  0  0  0
   50.7700    8.6080   76.4070 O   0  0  0  0  0  0
   52.7090   10.6660   76.6890 C   0  0  0  0  0  0
   53.6440   11.8170   77.0130 C   0  0  0  0  0  0
   54.9600   11.7230   76.2380 C   0  0  0  0  0  0
   55.8770   10.7540   76.8260 N   0  0  0  0  0  0
   56.9600   10.2860   76.2100 C   0  0  0  0  0  0
   57.2620   10.6960   74.9770 N   0  0  0  0  0  0
   57.7520    9.4110   76.8260 N   0  0  0  0  0  0
   49.2140   10.2120   76.1040 N   0  0  0  0  0  0
   48.2550    9.3460   75.3820 C   0  0  2  0  0  0
   48.7810    9.2370   73.9110 C   0  0  0  0  0  0
   49.8370    9.8310   73.6790 O   0  0  0  0  0  0
   46.8980   10.1140   75.5120 C   0  0  0  0  0  0
   47.1560   11.1810   76.6310 C   0  0  0  0  0  0
   48.6130   11.5100   76.4750 C   0  0  0  0  0  0
   48.1327    8.5501   72.9746 O   0  0  0  0  0  0
   48.2370   18.4514  107.3447 H   0  0  0  0  0  0
   47.5810   17.3154  106.1175 H   0  0  0  0  0  0
   48.6133   18.6932  105.6050 H   0  0  0  0  0  0
   50.5210   17.7116  106.8085 H   0  0  0  0  0  0
   49.4888   16.3338  107.3210 H   0  0  0  0  0  0
   49.2147   17.9840  104.1750 H   0  0  0  0  0  0
   50.2987   15.3676  103.0403 H   0  0  0  0  0  0
   47.8827   15.8159  102.5375 H   0  0  0  0  0  0
   48.8585   15.8499  101.0298 H   0  0  0  0  0  0
   48.3307   17.3880  101.7929 H   0  0  0  0  0  0
   51.8308   15.2970  101.4699 H   0  0  0  0  0  0
   53.0091   18.0769  100.7527 H   0  0  0  0  0  0
   54.4143   15.3765  100.9017 H   0  0  0  0  0  0
   55.1613   16.9694  100.5393 H   0  0  0  0  0  0
   53.4786   14.9461  103.1620 H   0  0  0  0  0  0
   55.7437   18.4757  102.2757 H   0  0  0  0  0  0
   53.7278   15.3822  105.5878 H   0  0  0  0  0  0
   56.0013   18.9268  104.6941 H   0  0  0  0  0  0
   54.9894   17.3788  106.3633 H   0  0  0  0  0  0
   52.7720   18.6552   98.7544 H   0  0  0  0  0  0
   51.8733   16.4784   96.9579 H   0  0  0  0  0  0
   51.5888   19.6022   96.7971 H   0  0  0  0  0  0
   50.8840   18.5373   95.5339 H   0  0  0  0  0  0
   49.0491   16.9737   96.1425 H   0  0  0  0  0  0
   50.4598   20.0218   98.8073 H   0  0  0  0  0  0
   46.9548   16.7884   97.4538 H   0  0  0  0  0  0
   48.3653   19.8366  100.1321 H   0  0  0  0  0  0
   46.6082   18.2254   99.4448 H   0  0  0  0  0  0
   51.9818   16.3179   94.7979 H   0  0  0  0  0  0
   54.1861   17.8437   93.3688 H   0  0  0  0  0  0
   55.3717   15.9423   94.5349 H   0  0  0  0  0  0
   54.4232   14.8246   93.4969 H   0  0  0  0  0  0
   56.6379   15.4113   92.3955 H   0  0  0  0  0  0
   54.2836   16.0499   91.0815 H   0  0  0  0  0  0
   51.4583   15.2215   90.6433 H   0  0  0  0  0  0
   51.3459   17.6911   90.2108 H   0  0  0  0  0  0
   51.0518   16.7600   88.7031 H   0  0  0  0  0  0
   52.6507   17.5279   88.9870 H   0  0  0  0  0  0
   50.9895   14.2133   88.6540 H   0  0  0  0  0  0
   53.5660   13.0384   87.5553 H   0  0  0  0  0  0
   50.6683   11.9648   87.5980 H   0  0  0  0  0  0
   52.0112   11.1284   86.7474 H   0  0  0  0  0  0
   53.1553   10.9782   88.9907 H   0  0  0  0  0  0
   51.5945   11.5079   89.7050 H   0  0  0  0  0  0
   50.4189    9.6195   88.8072 H   0  0  0  0  0  0
   51.7545    9.2275   87.6718 H   0  0  0  0  0  0
   52.0448    8.8868   90.7155 H   0  0  0  0  0  0
   52.2510    7.7629   87.2515 H   0  0  0  0  0  0
   53.0397    6.1086   87.7722 H   0  0  0  0  0  0
   52.9776    6.9546   91.3095 H   0  0  0  0  0  0
   53.6153   12.3814   85.2700 H   0  0  0  0  0  0
   51.7577   14.1863   83.5817 H   0  0  0  0  0  0
   53.5046   13.9677   83.2251 H   0  0  0  0  0  0
   51.0245   13.2920   81.6376 H   0  0  0  0  0  0
   51.8705   10.4265   81.2221 H   0  0  0  0  0  0
   49.8599   10.0469   82.5096 H   0  0  0  0  0  0
   48.9988   11.4048   81.7088 H   0  0  0  0  0  0
   47.2418   10.5173   79.6747 H   0  0  0  0  0  0
   49.0169    6.7344   79.0688 H   0  0  0  0  0  0
   51.8076    9.6372   79.1631 H   0  0  0  0  0  0
   50.8876   11.7758   77.1856 H   0  0  0  0  0  0
   53.2014    9.7531   77.0552 H   0  0  0  0  0  0
   52.6328   10.6268   75.5923 H   0  0  0  0  0  0
   53.1586   12.7686   76.7508 H   0  0  0  0  0  0
   53.8774   11.8084   78.0879 H   0  0  0  0  0  0
   54.7544   11.4143   75.2024 H   0  0  0  0  0  0
   55.4555   12.7051   76.2363 H   0  0  0  0  0  0
   55.6920   10.3657   77.8384 H   0  0  0  0  0  0
   56.6114   11.4188   74.4630 H   0  0  0  0  0  0
   58.1616   10.3112   74.4743 H   0  0  0  0  0  0
   57.5081    9.0692   77.8427 H   0  0  0  0  0  0
   48.1697    8.3298   75.7945 H   0  0  0  0  0  0
   46.6480   10.5823   74.5486 H   0  0  0  0  0  0
   46.1028    9.4082   75.7939 H   0  0  0  0  0  0
   46.5096   12.0546   76.4607 H   0  0  0  0  0  0
   46.9292   10.7433   77.6143 H   0  0  0  0  0  0
   49.0661   11.8698   77.4106 H   0  0  0  0  0  0
   48.7963   12.2413   75.6740 H   0  0  0  0  0  0
   48.5359    8.4980   71.9525 H   0  0  0  0  0  0
  1  2  1  0  0  0
  1 87  1  0  0  0
  1 88  1  0  0  0
  1 89  1  0  0  0
  2  3  1  0  0  0
  2 90  1  0  0  0
  2 91  1  0  0  0
  3  4  2  0  0  0
  3  5  1  0  0  0
  5  6  1  0  0  0
  5 92  1  0  0  0
  6  9  1  0  0  0
  6  7  1  0  0  0
  6 93  1  0  0  0
  7  8  2  0  0  0
  7 10  1  0  0  0
  9 94  1  0  0  0
  9 95  1  0  0  0
  9 96  1  0  0  0
 10 11  1  0  0  0
 10 97  1  0  0  0
 11 14  1  0  0  0
 11 12  1  0  0  0
 11 98  1  0  0  0
 12 13  2  0  0  0
 12 21  1  0  0  0
 14 15  1  0  0  0
 14 99  1  0  0  0
 14100  1  0  0  0
 15 16  2  0  0  0
 15 17  1  0  0  0
 16 18  1  0  0  0
 16101  1  0  0  0
 17 19  2  0  0  0
 17102  1  0  0  0
 18 20  2  0  0  0
 18103  1  0  0  0
 19 20  1  0  0  0
 19104  1  0  0  0
 20105  1  0  0  0
 21 22  1  0  0  0
 21106  1  0  0  0
 22 25  1  0  0  0
 22 23  1  0  0  0
 22107  1  0  0  0
 23 24  2  0  0  0
 23 32  1  0  0  0
 25 26  1  0  0  0
 25108  1  0  0  0
 25109  1  0  0  0
 26 27  2  0  0  0
 26 28  1  0  0  0
 27 29  1  0  0  0
 27110  1  0  0  0
 28 30  2  0  0  0
 28111  1  0  0  0
 29 31  2  0  0  0
 29112  1  0  0  0
 30 31  1  0  0  0
 30113  1  0  0  0
 31114  1  0  0  0
 32 33  1  0  0  0
 32115  1  0  0  0
 33 36  1  0  0  0
 33 34  1  0  0  0
 33116  1  0  0  0
 34 35  2  0  0  0
 34 38  1  0  0  0
 36 37  1  0  0  0
 36117  1  0  0  0
 36118  1  0  0  0
 37119  1  0  0  0
 38 39  1  0  0  0
 38120  1  0  0  0
 39 42  1  0  0  0
 39 40  1  0  0  0
 39121  1  0  0  0
 40 41  2  0  0  0
 40 43  1  0  0  0
 42122  1  0  0  0
 42123  1  0  0  0
 42124  1  0  0  0
 43 44  1  0  0  0
 43125  1  0  0  0
 44 47  1  0  0  0
 44 45  1  0  0  0
 44126  1  0  0  0
 45 46  2  0  0  0
 45 54  1  0  0  0
 47 48  1  0  0  0
 47127  1  0  0  0
 47128  1  0  0  0
 48 49  1  0  0  0
 48129  1  0  0  0
 48130  1  0  0  0
 49 50  1  0  0  0
 49131  1  0  0  0
 49132  1  0  0  0
 50 51  1  0  0  0
 50133  1  0  0  0
 51 53  2  0  0  0
 51 52  1  0  0  0
 52134  1  0  0  0
 52135  1  0  0  0
 53136  1  0  0  0
 54 55  1  0  0  0
 54137  1  0  0  0
 55 56  1  0  0  0
 55138  1  0  0  0
 55139  1  0  0  0
 56 57  2  0  0  0
 56 58  1  0  0  0
 58 59  1  0  0  0
 58140  1  0  0  0
 59 62  1  0  0  0
 59 60  1  0  0  0
 59141  1  0  0  0
 60 61  2  0  0  0
 60 68  1  0  0  0
 62 63  1  0  0  0
 62142  1  0  0  0
 62143  1  0  0  0
 63 64  2  0  0  0
 63 65  1  0  0  0
 64 66  1  0  0  0
 65 67  2  0  0  0
 65144  1  0  0  0
 66 67  1  0  0  0
 66145  1  0  0  0
 68 69  1  0  0  0
 68146  1  0  0  0
 69 72  1  0  0  0
 69 70  1  0  0  0
 69147  1  0  0  0
 70 71  2  0  0  0
 70 79  1  0  0  0
 72 73  1  0  0  0
 72148  1  0  0  0
 72149  1  0  0  0
 73 74  1  0  0  0
 73150  1  0  0  0
 73151  1  0  0  0
 74 75  1  0  0  0
 74152  1  0  0  0
 74153  1  0  0  0
 75 76  1  0  0  0
 75154  1  0  0  0
 76 78  2  0  0  0
 76 77  1  0  0  0
 77155  1  0  0  0
 77156  1  0  0  0
 78157  1  0  0  0
 79 80  1  0  0  0
 79 85  1  0  0  0
 80 81  1  0  0  0
 80 83  1  0  0  0
 80158  1  0  0  0
 81 82  2  0  0  0
 81 86  1  0  0  0
 83 84  1  0  0  0
 83159  1  0  0  0
 83160  1  0  0  0
 84 85  1  0  0  0
 84161  1  0  0  0
 84162  1  0  0  0
 85163  1  0  0  0
 85164  1  0  0  0
 86165  1  0  0  0
M  CHG  1   1   1
M  END
> <s_m_source_file>
../1r17_ligand.sdf

> <i_m_source_file_index>
1

> <s_epik_input>
W05IMytdW0NIMl1DKD1PKVtOSF1bQ0BASF0oW0NIM10pQyg9TylbTkhdW0NAQEhdKFtDSDJdYzFbY0hdW2NIXVtjSF1bY0hdW2NIXTEpQyg9TylbTkhdW0NAQEhdKFtDSDJdYzJbY0hdW2NIXVtjSF1bY0hdW2NIXTIpQyg9TylbTkhdW0NAQEhdKFtDSDJdW09IXSlDKD1PKVtOSF1bQ0BASF0oW0NIM10pQyg9TylbTkhdW0NAQEhdKFtDSDJdW0NIMl1bQ0gyXVtOSF0vQyhbTkgyXSk9TlxbSF0pQyg9TylbTkhdW0NIMl1DKD1PKVtOSF1bQ0BASF0oW0NIMl1DMz1OW0NIMl1OPVtDSF0zKUMoPU8pW05IXVtDQEhdKEMoPU8pTjRbQ0BIXShDKD1PKVtPSF0pW0NIMl1bQ0gyXVtDSDJdNClbQ0gyXVtDSDJdW0NIMl1bTkhdL0MoW05IMl0pPU5cW0hd

> <s_epik_cmdline>
J2VwaWtfYXBwJywgJy1pbWFlJywgJ2xpZ2FuZF9wcm8ubWFlJywgJy1vbWFlJywgJ2xpZ2FuZF9wcmVwLm1hZScsICctbXMnLCAnMScsICctcGgnLCAnNycsICctcGh0JywgJzAuNScsICctbnQn

> <s_epik_pKa_notes>
Molecule size exceeds maximum supported for generating protonation states

> <s_epik_Chemistry_Notes>
This compound has an imine and may undergo hydrolysis.

$$$$
