1r1h_ligand
                    3D
 Schrodinger Suite 2020-3.
 55 56  0  0  1  0            999 V2000
   27.8590   41.3560   29.9450 C   0  0  0  0  0  0
   27.7080   42.3620   31.0920 C   0  0  2  0  0  0
   26.4000   42.9990   31.0150 N   0  3  0  0  0  0
   29.0160   43.5020   31.0260 P   0  0  1  0  0  0
   30.2300   42.6500   31.2230 O   0  0  0  0  0  0
   28.9360   44.3150   29.7670 O   0  5  0  0  0  0
   28.8610   44.5560   32.3940 C   0  0  0  0  0  0
   30.1480   44.7420   33.2110 C   0  0  2  0  0  0
   30.3750   43.5780   34.1410 C   0  0  0  0  0  0
   31.5010   43.1770   34.3910 O   0  0  0  0  0  0
   29.3100   42.9860   34.6650 N   0  0  0  0  0  0
   29.5280   41.9220   35.6310 C   0  0  1  0  0  0
   29.4470   42.4720   37.0530 C   0  0  0  0  0  0
   28.5250   40.8350   35.4610 C   0  0  0  0  0  0
   27.6000   40.9770   34.6580 O   0  5  0  0  0  0
   28.6470   39.8160   36.1230 O   0  0  0  0  0  0
   30.0520   46.0510   34.0090 C   0  0  0  0  0  0
   31.3280   46.3400   34.7470 C   0  0  0  0  0  0
   31.3180   46.4890   36.1320 C   0  0  0  0  0  0
   32.5010   46.7400   36.8190 C   0  0  0  0  0  0
   33.7170   46.8410   36.1310 C   0  0  0  0  0  0
   33.7170   46.6950   34.7390 C   0  0  0  0  0  0
   32.5330   46.4480   34.0540 C   0  0  0  0  0  0
   34.9700   47.0860   36.8550 C   0  0  0  0  0  0
   36.1210   46.3480   36.5520 C   0  0  0  0  0  0
   37.3100   46.5740   37.2400 C   0  0  0  0  0  0
   37.3650   47.5440   38.2380 C   0  0  0  0  0  0
   36.2260   48.2850   38.5470 C   0  0  0  0  0  0
   35.0370   48.0560   37.8620 C   0  0  0  0  0  0
   27.0326   40.6310   29.9820 H   0  0  0  0  0  0
   28.8172   40.8253   30.0465 H   0  0  0  0  0  0
   27.8356   41.8899   28.9836 H   0  0  0  0  0  0
   27.5980   41.8005   32.0315 H   0  0  0  0  0  0
   25.6145   42.2303   31.0614 H   0  0  0  0  0  0
   26.3166   43.5518   30.0676 H   0  0  0  0  0  0
   26.2814   43.6958   31.8578 H   0  0  0  0  0  0
   28.5537   45.5558   32.0536 H   0  0  0  0  0  0
   28.1031   44.1541   33.0825 H   0  0  0  0  0  0
   31.0116   44.7726   32.5304 H   0  0  0  0  0  0
   28.2857   43.2774   34.3895 H   0  0  0  0  0  0
   30.5271   41.5176   35.4115 H   0  0  0  0  0  0
   30.1882   43.2751   37.1783 H   0  0  0  0  0  0
   29.6559   41.6650   37.7707 H   0  0  0  0  0  0
   28.4386   42.8721   37.2345 H   0  0  0  0  0  0
   29.8506   46.8857   33.3214 H   0  0  0  0  0  0
   29.2353   45.9746   34.7420 H   0  0  0  0  0  0
   30.3790   46.4085   36.6797 H   0  0  0  0  0  0
   32.4817   46.8592   37.9023 H   0  0  0  0  0  0
   34.6536   46.7757   34.1873 H   0  0  0  0  0  0
   32.5467   46.3382   32.9696 H   0  0  0  0  0  0
   36.0856   45.5894   35.7701 H   0  0  0  0  0  0
   38.1987   45.9913   36.9974 H   0  0  0  0  0  0
   38.2961   47.7230   38.7757 H   0  0  0  0  0  0
   36.2667   49.0454   39.3269 H   0  0  0  0  0  0
   34.1494   48.6373   38.1117 H   0  0  0  0  0  0
  1  2  1  0  0  0
  1 30  1  0  0  0
  1 31  1  0  0  0
  1 32  1  0  0  0
  2  3  1  0  0  0
  2  4  1  0  0  0
  2 33  1  0  0  0
  3 34  1  0  0  0
  3 35  1  0  0  0
  3 36  1  0  0  0
  4  5  2  0  0  0
  4  6  1  0  0  0
  4  7  1  0  0  0
  7  8  1  0  0  0
  7 37  1  0  0  0
  7 38  1  0  0  0
  8  9  1  0  0  0
  8 17  1  0  0  0
  8 39  1  0  0  0
  9 10  2  0  0  0
  9 11  1  0  0  0
 11 12  1  0  0  0
 11 40  1  0  0  0
 12 13  1  0  0  0
 12 14  1  0  0  0
 12 41  1  0  0  0
 13 42  1  0  0  0
 13 43  1  0  0  0
 13 44  1  0  0  0
 14 15  1  0  0  0
 14 16  2  0  0  0
 17 18  1  0  0  0
 17 45  1  0  0  0
 17 46  1  0  0  0
 18 19  2  0  0  0
 18 23  1  0  0  0
 19 20  1  0  0  0
 19 47  1  0  0  0
 20 21  2  0  0  0
 20 48  1  0  0  0
 21 22  1  0  0  0
 21 24  1  0  0  0
 22 23  2  0  0  0
 22 49  1  0  0  0
 23 50  1  0  0  0
 24 25  2  0  0  0
 24 29  1  0  0  0
 25 26  1  0  0  0
 25 51  1  0  0  0
 26 27  2  0  0  0
 26 52  1  0  0  0
 27 28  1  0  0  0
 27 53  1  0  0  0
 28 29  2  0  0  0
 28 54  1  0  0  0
 29 55  1  0  0  0
M  CHG  3   3   1   6  -1  15  -1
M  END
> <s_m_source_file>
../1r1h_ligand.sdf

> <i_m_source_file_index>
1

> <s_epik_input>
W09IXUMoPU8pW0NASF0oW0NIM10pW05IXUMoPU8pW0NAQEhdKFtDSDJdW1BAXSg9TykoW09IXSlbQ0BIXShbQ0gzXSlbTkgzK10pW0NIMl1jMVtjSF1bY0hdYyhbY0hdW2NIXTEpLWMyW2NIXVtjSF1bY0hdW2NIXVtjSF0y

> <s_epik_cmdline>
J2VwaWtfYXBwJywgJy1pbWFlJywgJ2xpZ2FuZF9wcm8ubWFlJywgJy1vbWFlJywgJ2xpZ2FuZF9wcmVwLm1hZScsICctbXMnLCAnMScsICctcGgnLCAnNycsICctcGh0JywgJzAuNScsICctbnQn

> <r_lp_tautomer_probability>
1

> <r_epik_Ionization_Penalty>
  0.0008

> <r_epik_Ionization_Penalty_Charging>
  0.0008

> <r_epik_Ionization_Penalty_Neutral>
  0.0000

> <r_epik_State_Penalty>
 -0.0000

> <r_epik_Charging_Adjusted_Penalty>
0.000752342700364909

> <i_epik_Tot_Q>
-1

> <i_epik_Tot_abs_Q>
3

$$$$
