1r1i_ligand
                    3D
 Schrodinger Suite 2020-3.
 53 53  0  0  1  0            999 V2000
   24.6370   50.5380   28.8190 S   0  0  0  0  0  0
   25.2310   51.3070   30.3380 C   0  0  2  0  0  0
   26.7050   50.9320   30.5450 C   0  0  0  0  0  0
   27.5970   52.1730   30.6430 C   0  0  0  0  0  0
   27.2820   52.9790   31.9070 C   0  0  0  0  0  0
   28.2230   54.1810   32.0450 C   0  0  0  0  0  0
   27.9920   55.1980   30.9210 C   0  0  0  0  0  0
   24.3950   50.7590   31.4460 C   0  0  0  0  0  0
   23.2000   50.9830   31.5400 O   0  0  0  0  0  0
   25.0040   49.9480   32.2840 N   0  0  0  0  0  0
   24.1530   49.4150   33.3220 C   0  0  1  0  0  0
   24.7250   48.1020   33.8160 C   0  0  0  0  0  0
   23.6370   47.5030   34.6660 C   0  0  0  0  0  0
   23.7520   47.4760   36.0440 C   0  0  0  0  0  0
   22.4960   47.0260   34.0670 C   0  0  0  0  0  0
   22.7350   46.9340   36.8160 C   0  0  0  0  0  0
   21.4770   46.5000   34.8290 C   0  0  0  0  0  0
   21.5900   46.4370   36.1980 C   0  0  0  0  0  0
   24.0060   50.3990   34.4340 C   0  0  0  0  0  0
   22.9050   50.6510   34.8230 O   0  0  0  0  0  0
   25.0830   50.9940   34.9350 N   0  0  0  0  0  0
   24.9070   51.9530   36.0020 C   0  0  1  0  0  0
   25.2390   51.3080   37.3420 C   0  0  0  0  0  0
   25.8060   53.0910   35.7870 C   0  0  0  0  0  0
   26.7660   52.8840   35.1070 O   0  0  0  0  0  0
   25.5940   54.2910   36.3130 O   0  5  0  0  0  0
   25.1055   50.7888   27.8559 H   0  0  0  0  0  0
   25.2026   52.3987   30.4696 H   0  0  0  0  0  0
   26.8095   50.3562   31.4764 H   0  0  0  0  0  0
   27.0511   50.3231   29.6968 H   0  0  0  0  0  0
   28.6523   51.8643   30.6761 H   0  0  0  0  0  0
   27.4300   52.8148   29.7654 H   0  0  0  0  0  0
   26.2465   53.3471   31.8586 H   0  0  0  0  0  0
   27.4015   52.3358   32.7913 H   0  0  0  0  0  0
   28.0440   54.6778   33.0099 H   0  0  0  0  0  0
   29.2667   53.8369   31.9978 H   0  0  0  0  0  0
   28.6803   56.0467   31.0473 H   0  0  0  0  0  0
   26.9537   55.5589   30.9608 H   0  0  0  0  0  0
   28.1763   54.7179   29.9486 H   0  0  0  0  0  0
   26.0664   49.6656   32.2447 H   0  0  0  0  0  0
   23.1586   49.2560   32.8794 H   0  0  0  0  0  0
   24.9689   47.4615   32.9556 H   0  0  0  0  0  0
   25.6374   48.2958   34.3991 H   0  0  0  0  0  0
   24.6429   47.8811   36.5239 H   0  0  0  0  0  0
   22.3970   47.0643   32.9822 H   0  0  0  0  0  0
   22.8314   46.8972   37.9011 H   0  0  0  0  0  0
   20.5738   46.1307   34.3433 H   0  0  0  0  0  0
   20.7891   46.0012   36.7953 H   0  0  0  0  0  0
   26.0915   50.7716   34.5562 H   0  0  0  0  0  0
   23.8636   52.2986   35.9590 H   0  0  0  0  0  0
   24.5693   50.4522   37.5129 H   0  0  0  0  0  0
   25.1046   52.0453   38.1471 H   0  0  0  0  0  0
   26.2827   50.9608   37.3332 H   0  0  0  0  0  0
  1  2  1  0  0  0
  1 27  1  0  0  0
  2  3  1  0  0  0
  2  8  1  0  0  0
  2 28  1  0  0  0
  3  4  1  0  0  0
  3 29  1  0  0  0
  3 30  1  0  0  0
  4  5  1  0  0  0
  4 31  1  0  0  0
  4 32  1  0  0  0
  5  6  1  0  0  0
  5 33  1  0  0  0
  5 34  1  0  0  0
  6  7  1  0  0  0
  6 35  1  0  0  0
  6 36  1  0  0  0
  7 37  1  0  0  0
  7 38  1  0  0  0
  7 39  1  0  0  0
  8  9  2  0  0  0
  8 10  1  0  0  0
 10 11  1  0  0  0
 10 40  1  0  0  0
 11 12  1  0  0  0
 11 19  1  0  0  0
 11 41  1  0  0  0
 12 13  1  0  0  0
 12 42  1  0  0  0
 12 43  1  0  0  0
 13 14  2  0  0  0
 13 15  1  0  0  0
 14 16  1  0  0  0
 14 44  1  0  0  0
 15 17  2  0  0  0
 15 45  1  0  0  0
 16 18  2  0  0  0
 16 46  1  0  0  0
 17 18  1  0  0  0
 17 47  1  0  0  0
 18 48  1  0  0  0
 19 20  2  0  0  0
 19 21  1  0  0  0
 21 22  1  0  0  0
 21 49  1  0  0  0
 22 23  1  0  0  0
 22 24  1  0  0  0
 22 50  1  0  0  0
 23 51  1  0  0  0
 23 52  1  0  0  0
 23 53  1  0  0  0
 24 25  2  0  0  0
 24 26  1  0  0  0
M  CHG  1  26  -1
M  END
> <s_m_source_file>
../1r1i_ligand.sdf

> <i_m_source_file_index>
1

> <s_epik_input>
W0NIM11bQ0gyXVtDSDJdW0NIMl1bQ0gyXVtDQEBIXShbU0hdKUMoPU8pW05IXVtDQEhdKEMoPU8pW05IXVtDQEBIXShbQ0gzXSlDKD1PKVtPSF0pW0NIMl1jMVtjSF1bY0hdW2NIXVtjSF1bY0hdMQ==

> <s_epik_cmdline>
J2VwaWtfYXBwJywgJy1pbWFlJywgJ2xpZ2FuZF9wcm8ubWFlJywgJy1vbWFlJywgJ2xpZ2FuZF9wcmVwLm1hZScsICctbXMnLCAnMScsICctcGgnLCAnNycsICctcGh0JywgJzAuNScsICctbnQn

> <r_epik_Ionization_Penalty>
  0.0201

> <r_epik_Ionization_Penalty_Charging>
  0.0001

> <r_epik_Ionization_Penalty_Neutral>
  0.0199

> <r_epik_State_Penalty>
  0.0159

> <r_epik_Charging_Adjusted_Penalty>
0.0160814128711726

> <i_epik_Tot_Q>
-1

> <i_epik_Tot_abs_Q>
1

$$$$
