1r2b_ligand
                    3D
 Schrodinger Suite 2020-3.
293294  0  0  1  0            999 V2000
   29.5310    5.6240   42.6190 N   0  3  0  0  0  0
   28.6950    4.4090   42.8120 C   0  0  0  0  0  0
   28.5860    3.6460   41.5110 C   0  0  0  0  0  0
   29.1900    4.0580   40.5070 O   0  0  0  0  0  0
   27.8030    2.5640   41.5130 N   0  0  0  0  0  0
   27.6560    1.7340   40.3310 C   0  0  2  0  0  0
   26.3060    1.0290   40.1500 C   0  0  0  0  0  0
   25.5130    0.8600   41.0960 O   0  0  0  0  0  0
   28.7770    0.6950   40.3270 C   0  0  0  0  0  0
   28.6920   -0.1350   41.4640 O   0  0  0  0  0  0
   26.0470    0.6300   38.9070 N   0  0  0  0  0  0
   24.8250   -0.0860   38.5700 C   0  0  2  0  0  0
   25.1140   -1.5440   38.8730 C   0  0  0  0  0  0
   25.9760   -2.1710   38.2470 O   0  0  0  0  0  0
   24.4780    0.1040   37.1020 C   0  0  0  0  0  0
   24.2090    1.5730   36.7370 C   0  0  0  0  0  0
   23.9950    1.6830   35.2260 C   0  0  0  0  0  0
   22.9820    2.1130   37.5140 C   0  0  0  0  0  0
   24.3750   -2.0780   39.8340 N   0  0  0  0  0  0
   24.5680   -3.4340   40.2840 C   0  0  2  0  0  0
   24.3230   -4.5350   39.2650 C   0  0  0  0  0  0
   23.2600   -4.6110   38.6210 O   0  0  0  0  0  0
   23.7210   -3.7230   41.5470 C   0  0  0  0  0  0
   24.1420   -5.0640   42.1530 C   0  0  0  0  0  0
   23.8980   -2.5850   42.5640 C   0  0  0  0  0  0
   25.3390   -5.3780   39.1040 N   0  0  0  0  0  0
   25.2100   -6.5130   38.1970 C   0  0  2  0  0  0
   24.4450   -7.5890   38.9820 C   0  0  0  0  0  0
   24.7360   -7.8350   40.1550 O   0  0  0  0  0  0
   26.6100   -7.0410   37.7890 C   0  0  0  0  0  0
   23.4540   -8.2120   38.3680 N   0  0  0  0  0  0
   22.7400   -9.2640   39.0740 C   0  0  2  0  0  0
   22.8910  -10.5600   38.2910 C   0  0  0  0  0  0
   23.0550  -10.5630   37.0740 O   0  0  0  0  0  0
   21.2180   -8.9700   39.2220 C   0  0  2  0  0  0
   20.6150   -8.9520   37.9250 O   0  0  0  0  0  0
   20.9680   -7.6090   39.8980 C   0  0  0  0  0  0
   22.8490  -11.6680   39.0130 N   0  0  0  0  0  0
   22.9250  -12.9720   38.4040 C   0  0  2  0  0  0
   22.0810  -13.8370   39.3200 C   0  0  0  0  0  0
   21.9450  -13.5260   40.5030 O   0  0  0  0  0  0
   24.3900  -13.4700   38.3090 C   0  0  0  0  0  0
   25.0320  -13.5620   39.7140 C   0  0  0  0  0  0
   24.4370  -14.8050   37.5720 C   0  0  0  0  0  0
   21.4970  -14.9100   38.7900 N   0  0  0  0  0  0
   20.6670  -15.7530   39.6350 C   0  0  2  0  0  0
   21.3030  -17.0560   40.0540 C   0  0  0  0  0  0
   22.1280  -17.6200   39.3330 O   0  0  0  0  0  0
   19.3330  -16.0570   38.9420 C   0  0  0  0  0  0
   18.4230  -14.8560   38.7800 C   0  0  0  0  0  0
   17.1950  -15.2020   37.9540 C   0  0  0  0  0  0
   16.3080  -13.9730   37.7580 C   0  0  0  0  0  0
   15.0100  -14.2930   37.0820 N   0  3  0  0  0  0
   20.9220  -17.5140   41.2430 N   0  0  0  0  0  0
   21.3680  -18.7980   41.7570 C   0  0  2  0  0  0
   20.0870  -19.6110   41.9230 C   0  0  0  0  0  0
   19.1920  -19.2270   42.6910 O   0  0  0  0  0  0
   22.0890  -18.6700   43.1040 C   0  0  0  0  0  0
   22.4010  -20.0550   43.7500 C   0  0  0  0  0  0
   23.1560  -21.0370   42.8190 C   0  0  0  0  0  0
   24.3290  -20.8060   42.4770 O   0  0  0  0  0  0
   22.5800  -22.0580   42.4200 O   0  0  0  0  0  0
   20.0050  -20.7330   41.2150 N   0  0  0  0  0  0
   18.8150  -21.5630   41.2620 C   0  0  2  0  0  0
   18.8590  -22.6990   42.2610 C   0  0  0  0  0  0
   17.8360  -23.2930   42.5550 O   0  0  0  0  0  0
   18.5000  -22.1300   39.8540 C   0  0  0  0  0  0
   20.0360  -23.0190   42.7740 N   0  0  0  0  0  0
   20.1190  -24.1140   43.7220 C   0  0  0  0  0  0
   19.6250  -23.7980   45.1260 C   0  0  0  0  0  0
   19.2580  -22.6640   45.4210 O   0  0  0  0  0  0
   19.6150  -24.8250   45.9780 N   0  0  0  0  0  0
   19.2220  -24.7040   47.3730 C   0  0  2  0  0  0
   20.1350  -23.6450   47.9940 C   0  0  0  0  0  0
   21.3630  -23.6600   47.7990 O   0  0  0  0  0  0
   19.3870  -26.0570   48.0810 C   0  0  0  0  0  0
   19.4030  -26.0010   49.6130 C   0  0  0  0  0  0
   19.1410  -27.3950   50.2330 C   0  0  0  0  0  0
   17.7180  -27.7630   50.1980 N   0  0  0  0  0  0
   16.7910  -27.2370   50.9980 C   0  0  0  0  0  0
   17.1300  -26.3210   51.9160 N   0  0  0  0  0  0
   15.5150  -27.6030   50.8700 N   0  0  0  0  0  0
   19.5280  -22.7290   48.7410 N   0  0  0  0  0  0
   20.2650  -21.6240   49.3450 C   0  0  2  0  0  0
   20.7460  -21.8410   50.7710 C   0  0  0  0  0  0
   21.6350  -21.1370   51.2470 O   0  0  0  0  0  0
   19.3910  -20.3710   49.3260 C   0  0  0  0  0  0
   18.3120  -20.5160   50.2330 O   0  0  0  0  0  0
   20.1730  -22.8120   51.4550 N   0  0  0  0  0  0
   20.5250  -23.0220   52.8510 C   0  0  2  0  0  0
   20.4010  -24.4880   53.1710 C   0  0  0  0  0  0
   19.9240  -25.2610   52.3530 O   0  0  0  0  0  0
   19.5420  -22.2510   53.7870 C   0  0  2  0  0  0
   18.0920  -22.6800   53.4440 C   0  0  0  0  0  0
   19.7820  -20.7330   53.6690 C   0  0  0  0  0  0
   16.9390  -21.8800   54.1180 C   0  0  0  0  0  0
   20.8130  -24.8690   54.3700 N   0  0  0  0  0  0
   20.7040  -26.2620   54.7450 C   0  0  2  0  0  0
   19.2360  -26.6800   54.8030 C   0  0  0  0  0  0
   18.3270  -25.8470   54.9400 O   0  0  0  0  0  0
   21.3620  -26.4990   56.1080 C   0  0  0  0  0  0
   20.6720  -25.8170   57.2470 C   0  0  0  0  0  0
   20.6620  -26.3360   58.5240 N   0  0  0  0  0  0
   19.9750  -24.6550   57.3090 C   0  0  0  0  0  0
   19.9870  -25.5250   59.3230 C   0  0  0  0  0  0
   19.5600  -24.4980   58.6100 N   0  0  0  0  0  0
   19.0020  -27.9770   54.6700 N   0  0  0  0  0  0
   17.6530  -28.4980   54.7810 C   0  0  2  0  0  0
   17.5190  -29.1080   56.1800 C   0  0  0  0  0  0
   18.2340  -30.0530   56.5240 O   0  0  0  0  0  0
   17.3820  -29.5830   53.7480 C   0  0  0  0  0  0
   15.9170  -29.9900   53.7610 C   0  0  0  0  0  0
   15.6050  -31.2040   52.9130 C   0  0  0  0  0  0
   16.2350  -31.3840   51.8500 O   0  0  0  0  0  0
   14.6970  -31.9700   53.3070 O   0  0  0  0  0  0
   16.6210  -28.5450   56.9820 N   0  0  0  0  0  0
   16.3510  -29.0270   58.3300 C   0  0  2  0  0  0
   15.5620  -30.3210   58.1870 C   0  0  0  0  0  0
   14.5070  -30.3470   57.5680 O   0  0  0  0  0  0
   15.5160  -28.0120   59.1360 C   0  0  2  0  0  0
   16.3870  -26.8030   59.4960 C   0  0  0  0  0  0
   14.9160  -28.6830   60.3760 C   0  0  0  0  0  0
   15.6530  -25.6800   60.2120 C   0  0  0  0  0  0
   16.0560  -31.4130   58.7840 N   0  0  0  0  0  0
   15.3870  -32.7140   58.6980 C   0  0  2  0  0  0
   14.0560  -32.8590   59.4290 C   0  0  0  0  0  0
   13.7710  -32.1240   60.3820 O   0  0  0  0  0  0
   16.4530  -33.6660   59.2220 C   0  0  0  0  0  0
   17.1320  -32.8540   60.2520 C   0  0  0  0  0  0
   17.2900  -31.5130   59.5790 C   0  0  0  0  0  0
   13.2380  -33.8040   58.9620 N   0  0  0  0  0  0
   11.9430  -34.0630   59.5990 C   0  0  2  0  0  0
   12.1830  -34.6420   60.9980 C   0  0  0  0  0  0
   13.2910  -35.1780   61.2320 O   0  0  0  0  0  0
   11.1130  -35.0610   58.7850 C   0  0  0  0  0  0
   10.8120  -34.6120   57.3880 C   0  0  0  0  0  0
    9.9330  -35.6030   56.6640 C   0  0  0  0  0  0
    9.8500  -35.3180   55.2350 N   0  0  0  0  0  0
   10.8990  -35.3020   54.4150 C   0  0  0  0  0  0
   12.1150  -35.5500   54.8840 N   0  0  0  0  0  0
   10.7360  -35.0540   53.1190 N   0  0  0  0  0  0
   11.2550  -34.5610   61.8380 O   0  0  0  0  0  0
   29.6051    6.1728   43.5694 H   0  0  0  0  0  0
   29.0690    6.2698   41.8577 H   0  0  0  0  0  0
   30.5371    5.3279   42.2871 H   0  0  0  0  0  0
   29.1570    3.7632   43.5733 H   0  0  0  0  0  0
   27.6889    4.7051   43.1439 H   0  0  0  0  0  0
   27.2632    2.3068   42.4363 H   0  0  0  0  0  0
   27.7226    2.4760   39.5217 H   0  0  0  0  0  0
   28.6954    0.0711   39.4247 H   0  0  0  0  0  0
   29.7509    1.2063   40.3324 H   0  0  0  0  0  0
   29.4275   -0.9390   41.6143 H   0  0  0  0  0  0
   26.7863    0.8550   38.1242 H   0  0  0  0  0  0
   23.9889    0.3105   39.1647 H   0  0  0  0  0  0
   25.3133   -0.2487   36.4792 H   0  0  0  0  0  0
   23.5725   -0.4725   36.8617 H   0  0  0  0  0  0
   25.0821    2.1831   37.0119 H   0  0  0  0  0  0
   24.8797    1.2933   34.7011 H   0  0  0  0  0  0
   23.8417    2.7376   34.9532 H   0  0  0  0  0  0
   23.1098    1.0972   34.9375 H   0  0  0  0  0  0
   23.1634    2.0217   38.5951 H   0  0  0  0  0  0
   22.0898    1.5301   37.2414 H   0  0  0  0  0  0
   22.8217    3.1705   37.2571 H   0  0  0  0  0  0
   23.5944   -1.4525   40.2916 H   0  0  0  0  0  0
   25.6538   -3.4053   40.4581 H   0  0  0  0  0  0
   22.6554   -3.7864   41.2815 H   0  0  0  0  0  0
   24.0067   -5.8617   41.4078 H   0  0  0  0  0  0
   23.5220   -5.2781   43.0361 H   0  0  0  0  0  0
   25.1999   -5.0159   42.4506 H   0  0  0  0  0  0
   23.5897   -1.6333   42.1066 H   0  0  0  0  0  0
   24.9544   -2.5224   42.8640 H   0  0  0  0  0  0
   23.2766   -2.7846   43.4494 H   0  0  0  0  0  0
   26.2773   -5.2186   39.6556 H   0  0  0  0  0  0
   24.6733   -6.1836   37.2951 H   0  0  0  0  0  0
   27.1467   -6.2616   37.2282 H   0  0  0  0  0  0
   26.4952   -7.9341   37.1572 H   0  0  0  0  0  0
   27.1810   -7.3018   38.6923 H   0  0  0  0  0  0
   23.1665   -7.9464   37.3400 H   0  0  0  0  0  0
   23.2237   -9.3008   40.0613 H   0  0  0  0  0  0
   20.7237   -9.7717   39.7902 H   0  0  0  0  0  0
   20.6812   -9.8372   37.2754 H   0  0  0  0  0  0
   21.4262   -7.6066   40.8980 H   0  0  0  0  0  0
   19.8852   -7.4389   39.9904 H   0  0  0  0  0  0
   21.4140   -6.8094   39.2884 H   0  0  0  0  0  0
   22.7534  -11.5757   40.1049 H   0  0  0  0  0  0
   22.5335  -12.9296   37.3769 H   0  0  0  0  0  0
   24.9866  -12.7558   37.7224 H   0  0  0  0  0  0
   24.9763  -12.5805   40.2076 H   0  0  0  0  0  0
   26.0852  -13.8643   39.6168 H   0  0  0  0  0  0
   24.4909  -14.3066   40.3163 H   0  0  0  0  0  0
   23.9715  -14.6936   36.5816 H   0  0  0  0  0  0
   23.8895  -15.5631   38.1513 H   0  0  0  0  0  0
   25.4838  -15.1208   37.4518 H   0  0  0  0  0  0
   21.6355  -15.1621   37.7283 H   0  0  0  0  0  0
   20.5603  -15.1357   40.5392 H   0  0  0  0  0  0
   19.5254  -16.4518   37.9335 H   0  0  0  0  0  0
   18.7771  -16.8036   39.5281 H   0  0  0  0  0  0
   18.0926  -14.5100   39.7705 H   0  0  0  0  0  0
   18.9698  -14.0474   38.2728 H   0  0  0  0  0  0
   17.5094  -15.5730   36.9673 H   0  0  0  0  0  0
   16.6133  -15.9801   38.4700 H   0  0  0  0  0  0
   16.0753  -13.5288   38.7371 H   0  0  0  0  0  0
   16.8363  -13.2348   37.1367 H   0  0  0  0  0  0
   14.4184  -13.3725   36.9698 H   0  0  0  0  0  0
   14.4488  -15.0177   37.6901 H   0  0  0  0  0  0
   15.2098  -14.7237   36.0898 H   0  0  0  0  0  0
   20.2468  -16.8860   41.8427 H   0  0  0  0  0  0
   22.0870  -19.2261   41.0430 H   0  0  0  0  0  0
   23.0429  -18.1413   42.9605 H   0  0  0  0  0  0
   21.4581  -18.1042   43.8053 H   0  0  0  0  0  0
   23.0283  -19.9106   44.6420 H   0  0  0  0  0  0
   21.4597  -20.5451   44.0392 H   0  0  0  0  0  0
   24.8576  -21.5084   41.8158 H   0  0  0  0  0  0
   20.8576  -21.0292   40.5863 H   0  0  0  0  0  0
   18.0646  -20.8501   41.6344 H   0  0  0  0  0  0
   18.4674  -21.3062   39.1258 H   0  0  0  0  0  0
   17.5259  -22.6405   39.8739 H   0  0  0  0  0  0
   19.2832  -22.8456   39.5633 H   0  0  0  0  0  0
   20.9442  -22.4669   42.4905 H   0  0  0  0  0  0
   19.5134  -24.9583   43.3609 H   0  0  0  0  0  0
   21.1671  -24.4318   43.8243 H   0  0  0  0  0  0
   19.9248  -25.8011   45.5765 H   0  0  0  0  0  0
   18.1643  -24.4056   47.4205 H   0  0  0  0  0  0
   18.5546  -26.7202   47.8029 H   0  0  0  0  0  0
   20.3391  -26.5163   47.7769 H   0  0  0  0  0  0
   20.3857  -25.6457   49.9567 H   0  0  0  0  0  0
   18.6208  -25.3112   49.9629 H   0  0  0  0  0  0
   19.7036  -28.1568   49.6734 H   0  0  0  0  0  0
   19.4673  -27.3963   51.2835 H   0  0  0  0  0  0
   17.3621  -28.5158   49.4792 H   0  0  0  0  0  0
   18.1809  -26.0153   52.0260 H   0  0  0  0  0  0
   16.3573  -25.8750   52.5594 H   0  0  0  0  0  0
   15.2311  -28.3543   50.1183 H   0  0  0  0  0  0
   18.4432  -22.8183   48.8995 H   0  0  0  0  0  0
   21.1606  -21.5693   48.7086 H   0  0  0  0  0  0
   19.9940  -19.4989   49.6189 H   0  0  0  0  0  0
   18.9923  -20.2174   48.3124 H   0  0  0  0  0  0
   17.5784  -19.7046   50.3492 H   0  0  0  0  0  0
   19.4297  -23.4628   50.9713 H   0  0  0  0  0  0
   21.5645  -22.6764   52.9507 H   0  0  0  0  0  0
   19.7141  -22.4921   54.8463 H   0  0  0  0  0  0
   17.9266  -22.5804   52.3611 H   0  0  0  0  0  0
   17.9389  -23.7273   53.7435 H   0  0  0  0  0  0
   20.8271  -20.5060   53.9262 H   0  0  0  0  0  0
   19.1107  -20.2009   54.3591 H   0  0  0  0  0  0
   19.5794  -20.4089   52.6375 H   0  0  0  0  0  0
   15.9706  -22.2858   53.7900 H   0  0  0  0  0  0
   17.0097  -20.8210   53.8289 H   0  0  0  0  0  0
   17.0220  -21.9680   55.2113 H   0  0  0  0  0  0
   21.2344  -24.1402   55.0780 H   0  0  0  0  0  0
   21.2323  -26.8182   53.9567 H   0  0  0  0  0  0
   21.3662  -27.5762   56.3307 H   0  0  0  0  0  0
   22.3963  -26.1251   56.0859 H   0  0  0  0  0  0
   19.7177  -23.8971   56.5544 H   0  0  0  0  0  0
   19.8130  -25.6783   60.3880 H   0  0  0  0  0  0
   19.8412  -28.6606   54.4738 H   0  0  0  0  0  0
   16.9734  -27.6528   54.5974 H   0  0  0  0  0  0
   17.6358  -29.2068   52.7460 H   0  0  0  0  0  0
   17.9967  -30.4667   53.9745 H   0  0  0  0  0  0
   15.6116  -30.2275   54.7907 H   0  0  0  0  0  0
   15.3029  -29.1615   53.3783 H   0  0  0  0  0  0
   14.4384  -32.8639   52.7204 H   0  0  0  0  0  0
   16.0705  -27.6783   56.5872 H   0  0  0  0  0  0
   17.3239  -29.1729   58.8222 H   0  0  0  0  0  0
   14.6727  -27.6483   58.5306 H   0  0  0  0  0  0
   17.2025  -27.1236   60.1609 H   0  0  0  0  0  0
   16.8111  -26.3702   58.5779 H   0  0  0  0  0  0
   14.3017  -29.5416   60.0672 H   0  0  0  0  0  0
   14.2889  -27.9593   60.9173 H   0  0  0  0  0  0
   15.7267  -29.0298   61.0337 H   0  0  0  0  0  0
   16.3558  -24.8617   60.4277 H   0  0  0  0  0  0
   15.2319  -26.0597   61.1546 H   0  0  0  0  0  0
   14.8404  -25.3063   59.5716 H   0  0  0  0  0  0
   15.0730  -32.8726   57.6558 H   0  0  0  0  0  0
   15.9711  -34.5637   59.6365 H   0  0  0  0  0  0
   17.1222  -33.9562   58.3986 H   0  0  0  0  0  0
   16.5025  -32.8031   61.1526 H   0  0  0  0  0  0
   18.0977  -33.3159   60.5053 H   0  0  0  0  0  0
   18.1619  -31.4698   58.9097 H   0  0  0  0  0  0
   17.3346  -30.6778   60.2935 H   0  0  0  0  0  0
   13.5475  -34.3927   58.0859 H   0  0  0  0  0  0
   11.4245  -33.0936   59.6372 H   0  0  0  0  0  0
   11.6573  -36.0138   58.7080 H   0  0  0  0  0  0
   10.1480  -35.2294   59.2853 H   0  0  0  0  0  0
   10.2917  -33.6433   57.4183 H   0  0  0  0  0  0
   11.7519  -34.5060   56.8264 H   0  0  0  0  0  0
   10.3427  -36.6162   56.7890 H   0  0  0  0  0  0
    8.9161  -35.5646   57.0816 H   0  0  0  0  0  0
    8.8759  -35.0985   54.7736 H   0  0  0  0  0  0
   12.2600  -35.7563   55.9547 H   0  0  0  0  0  0
    9.7317  -34.8473   52.7206 H   0  0  0  0  0  0
   11.6054  -35.0556   52.4451 H   0  0  0  0  0  0
   11.3934  -34.9662   62.8512 H   0  0  0  0  0  0
  1  2  1  0  0  0
  1143  1  0  0  0
  1144  1  0  0  0
  1145  1  0  0  0
  2  3  1  0  0  0
  2146  1  0  0  0
  2147  1  0  0  0
  3  4  2  0  0  0
  3  5  1  0  0  0
  5  6  1  0  0  0
  5148  1  0  0  0
  6  7  1  0  0  0
  6  9  1  0  0  0
  6149  1  0  0  0
  7  8  2  0  0  0
  7 11  1  0  0  0
  9 10  1  0  0  0
  9150  1  0  0  0
  9151  1  0  0  0
 10152  1  0  0  0
 11 12  1  0  0  0
 11153  1  0  0  0
 12 13  1  0  0  0
 12 15  1  0  0  0
 12154  1  0  0  0
 13 14  2  0  0  0
 13 19  1  0  0  0
 15 16  1  0  0  0
 15155  1  0  0  0
 15156  1  0  0  0
 16 17  1  0  0  0
 16 18  1  0  0  0
 16157  1  0  0  0
 17158  1  0  0  0
 17159  1  0  0  0
 17160  1  0  0  0
 18161  1  0  0  0
 18162  1  0  0  0
 18163  1  0  0  0
 19 20  1  0  0  0
 19164  1  0  0  0
 20 21  1  0  0  0
 20 23  1  0  0  0
 20165  1  0  0  0
 21 22  2  0  0  0
 21 26  1  0  0  0
 23 24  1  0  0  0
 23 25  1  0  0  0
 23166  1  0  0  0
 24167  1  0  0  0
 24168  1  0  0  0
 24169  1  0  0  0
 25170  1  0  0  0
 25171  1  0  0  0
 25172  1  0  0  0
 26 27  1  0  0  0
 26173  1  0  0  0
 27 28  1  0  0  0
 27 30  1  0  0  0
 27174  1  0  0  0
 28 29  2  0  0  0
 28 31  1  0  0  0
 30175  1  0  0  0
 30176  1  0  0  0
 30177  1  0  0  0
 31 32  1  0  0  0
 31178  1  0  0  0
 32 33  1  0  0  0
 32 35  1  0  0  0
 32179  1  0  0  0
 33 34  2  0  0  0
 33 38  1  0  0  0
 35 36  1  0  0  0
 35 37  1  0  0  0
 35180  1  0  0  0
 36181  1  0  0  0
 37182  1  0  0  0
 37183  1  0  0  0
 37184  1  0  0  0
 38 39  1  0  0  0
 38185  1  0  0  0
 39 40  1  0  0  0
 39 42  1  0  0  0
 39186  1  0  0  0
 40 41  2  0  0  0
 40 45  1  0  0  0
 42 43  1  0  0  0
 42 44  1  0  0  0
 42187  1  0  0  0
 43188  1  0  0  0
 43189  1  0  0  0
 43190  1  0  0  0
 44191  1  0  0  0
 44192  1  0  0  0
 44193  1  0  0  0
 45 46  1  0  0  0
 45194  1  0  0  0
 46 47  1  0  0  0
 46 49  1  0  0  0
 46195  1  0  0  0
 47 48  2  0  0  0
 47 54  1  0  0  0
 49 50  1  0  0  0
 49196  1  0  0  0
 49197  1  0  0  0
 50 51  1  0  0  0
 50198  1  0  0  0
 50199  1  0  0  0
 51 52  1  0  0  0
 51200  1  0  0  0
 51201  1  0  0  0
 52 53  1  0  0  0
 52202  1  0  0  0
 52203  1  0  0  0
 53204  1  0  0  0
 53205  1  0  0  0
 53206  1  0  0  0
 54 55  1  0  0  0
 54207  1  0  0  0
 55 56  1  0  0  0
 55 58  1  0  0  0
 55208  1  0  0  0
 56 57  2  0  0  0
 56 63  1  0  0  0
 58 59  1  0  0  0
 58209  1  0  0  0
 58210  1  0  0  0
 59 60  1  0  0  0
 59211  1  0  0  0
 59212  1  0  0  0
 60 61  1  0  0  0
 60 62  2  0  0  0
 61213  1  0  0  0
 63 64  1  0  0  0
 63214  1  0  0  0
 64 65  1  0  0  0
 64 67  1  0  0  0
 64215  1  0  0  0
 65 66  2  0  0  0
 65 68  1  0  0  0
 67216  1  0  0  0
 67217  1  0  0  0
 67218  1  0  0  0
 68 69  1  0  0  0
 68219  1  0  0  0
 69 70  1  0  0  0
 69220  1  0  0  0
 69221  1  0  0  0
 70 71  2  0  0  0
 70 72  1  0  0  0
 72 73  1  0  0  0
 72222  1  0  0  0
 73 74  1  0  0  0
 73 76  1  0  0  0
 73223  1  0  0  0
 74 75  2  0  0  0
 74 83  1  0  0  0
 76 77  1  0  0  0
 76224  1  0  0  0
 76225  1  0  0  0
 77 78  1  0  0  0
 77226  1  0  0  0
 77227  1  0  0  0
 78 79  1  0  0  0
 78228  1  0  0  0
 78229  1  0  0  0
 79 80  1  0  0  0
 79230  1  0  0  0
 80 81  1  0  0  0
 80 82  2  0  0  0
 81231  1  0  0  0
 81232  1  0  0  0
 82233  1  0  0  0
 83 84  1  0  0  0
 83234  1  0  0  0
 84 85  1  0  0  0
 84 87  1  0  0  0
 84235  1  0  0  0
 85 86  2  0  0  0
 85 89  1  0  0  0
 87 88  1  0  0  0
 87236  1  0  0  0
 87237  1  0  0  0
 88238  1  0  0  0
 89 90  1  0  0  0
 89239  1  0  0  0
 90 91  1  0  0  0
 90 93  1  0  0  0
 90240  1  0  0  0
 91 92  2  0  0  0
 91 97  1  0  0  0
 93 94  1  0  0  0
 93 95  1  0  0  0
 93241  1  0  0  0
 94 96  1  0  0  0
 94242  1  0  0  0
 94243  1  0  0  0
 95244  1  0  0  0
 95245  1  0  0  0
 95246  1  0  0  0
 96247  1  0  0  0
 96248  1  0  0  0
 96249  1  0  0  0
 97 98  1  0  0  0
 97250  1  0  0  0
 98 99  1  0  0  0
 98101  1  0  0  0
 98251  1  0  0  0
 99100  2  0  0  0
 99107  1  0  0  0
101102  1  0  0  0
101252  1  0  0  0
101253  1  0  0  0
102103  2  0  0  0
102104  1  0  0  0
103105  1  0  0  0
104106  2  0  0  0
104254  1  0  0  0
105106  1  0  0  0
105255  1  0  0  0
107108  1  0  0  0
107256  1  0  0  0
108109  1  0  0  0
108111  1  0  0  0
108257  1  0  0  0
109110  2  0  0  0
109116  1  0  0  0
111112  1  0  0  0
111258  1  0  0  0
111259  1  0  0  0
112113  1  0  0  0
112260  1  0  0  0
112261  1  0  0  0
113114  2  0  0  0
113115  1  0  0  0
115262  1  0  0  0
116117  1  0  0  0
116263  1  0  0  0
117118  1  0  0  0
117120  1  0  0  0
117264  1  0  0  0
118119  2  0  0  0
118124  1  0  0  0
120121  1  0  0  0
120122  1  0  0  0
120265  1  0  0  0
121123  1  0  0  0
121266  1  0  0  0
121267  1  0  0  0
122268  1  0  0  0
122269  1  0  0  0
122270  1  0  0  0
123271  1  0  0  0
123272  1  0  0  0
123273  1  0  0  0
124125  1  0  0  0
124130  1  0  0  0
125126  1  0  0  0
125128  1  0  0  0
125274  1  0  0  0
126127  2  0  0  0
126131  1  0  0  0
128129  1  0  0  0
128275  1  0  0  0
128276  1  0  0  0
129130  1  0  0  0
129277  1  0  0  0
129278  1  0  0  0
130279  1  0  0  0
130280  1  0  0  0
131132  1  0  0  0
131281  1  0  0  0
132133  1  0  0  0
132135  1  0  0  0
132282  1  0  0  0
133134  2  0  0  0
133142  1  0  0  0
135136  1  0  0  0
135283  1  0  0  0
135284  1  0  0  0
136137  1  0  0  0
136285  1  0  0  0
136286  1  0  0  0
137138  1  0  0  0
137287  1  0  0  0
137288  1  0  0  0
138139  1  0  0  0
138289  1  0  0  0
139140  2  0  0  0
139141  1  0  0  0
140290  1  0  0  0
141291  1  0  0  0
141292  1  0  0  0
142293  1  0  0  0
M  CHG  2   1   1  53   1
M  END
> <s_m_source_file>
../1r2b_ligand.sdf

> <i_m_source_file_index>
1

> <s_epik_input>
W05IMytdW0NIMl1DKD1PKVtOSF1bQ0BASF0oW0NIMl1bT0hdKUMoPU8pW05IXVtDQEBIXShbQ0gyXVtDSF0oW0NIM10pW0NIM10pQyg9TylbTkhdW0NAQEhdKFtDSF0oW0NIM10pW0NIM10pQyg9TylbTkhdW0NAQEhdKFtDSDNdKUMoPU8pW05IXVtDQEBIXShbQ0BIXShbT0hdKVtDSDNdKUMoPU8pW05IXVtDQEBIXShbQ0hdKFtDSDNdKVtDSDNdKUMoPU8pW05IXVtDQEBIXShbQ0gyXVtDSDJdW0NIMl1bQ0gyXVtOSDMrXSlDKD1PKVtOSF1bQ0BASF0oW0NIMl1bQ0gyXUMoPU8pW09IXSlDKD1PKVtOSF1bQ0BASF0oW0NIM10pQyg9TylbTkhdW0NIMl1DKD1PKVtOSF1bQ0BASF0oW0NIMl1bQ0gyXVtDSDJdW05IXS9DKFtOSDJdKT1OXFtIXSlDKD1PKVtOSF1bQ0BASF0oW0NIMl1bT0hdKUMoPU8pW05IXVtDQEBIXShbQ0BASF0oW0NIM10pW0NIMl1bQ0gzXSlDKD1PKVtOSF1bQ0BASF0oW0NIMl1DMT1OW0NIMl1OPVtDSF0xKUMoPU8pW05IXVtDQEBIXShbQ0gyXVtDSDJdQyg9TylbT0hdKUMoPU8pW05IXVtDQEBIXShbQ0BASF0oW0NIM10pW0NIMl1bQ0gzXSlDKD1PKU4yW0NAQEhdKFtDSDJdW0NIMl1bQ0gyXTIpQyg9TylbTkhdW0NASF0oQyg9TylbT0hdKVtDSDJdW0NIMl1bQ0gyXVtOSF0vQyg9TlxbSF0pW05IMl0=

> <s_epik_cmdline>
J2VwaWtfYXBwJywgJy1pbWFlJywgJ2xpZ2FuZF9wcm8ubWFlJywgJy1vbWFlJywgJ2xpZ2FuZF9wcmVwLm1hZScsICctbXMnLCAnMScsICctcGgnLCAnNycsICctcGh0JywgJzAuNScsICctbnQn

> <s_epik_pKa_notes>
Molecule size exceeds maximum supported for generating protonation states

> <s_epik_Chemistry_Notes>
This compound has an imine and may undergo hydrolysis.

$$$$
