1r4w_ligand
                    3D
 Schrodinger Suite 2020-3.
 36 35  0  0  1  0            999 V2000
  -40.0480   -3.6560   -1.9500 N   0  3  0  0  0  0
  -40.0160   -4.7010   -2.9740 C   0  0  2  0  0  0
  -38.7550   -4.5760   -3.8090 C   0  0  0  0  0  0
  -38.4520   -5.4920   -4.6160 O   0  0  0  0  0  0
  -38.0200   -3.4810   -3.5740 O   0  5  0  0  0  0
  -41.3410   -4.5470   -3.7450 C   0  0  0  0  0  0
  -41.7230   -5.8250   -4.5120 C   0  0  0  0  0  0
  -43.1800   -5.6340   -5.1350 C   0  0  0  0  0  0
  -43.8490   -4.5750   -4.9600 O   0  0  0  0  0  0
  -43.6530   -6.7130   -5.8090 N   0  0  0  0  0  0
  -45.0180   -6.6960   -6.3780 C   0  0  2  0  0  0
  -45.7670   -7.5330   -5.3230 C   0  0  0  0  0  0
  -45.7940   -8.7630   -5.4040 O   0  0  0  0  0  0
  -45.1390   -7.4270   -7.7760 C   0  0  0  0  0  0
  -44.0000   -6.7210   -9.0730 S   0  0  0  0  0  0
  -46.3410   -6.8330   -4.2900 N   0  0  0  0  0  0
  -47.0900   -7.4350   -3.1170 C   0  0  0  0  0  0
  -47.1360   -6.4420   -1.9040 C   0  0  0  0  0  0
  -47.7280   -6.8430   -0.8740 O   0  0  0  0  0  0
  -46.5760   -5.2740   -1.9950 O   0  5  0  0  0  0
  -39.1263   -3.7009   -1.3514 H   0  0  0  0  0  0
  -40.9183   -3.8107   -1.2953 H   0  0  0  0  0  0
  -40.1235   -2.6709   -2.4337 H   0  0  0  0  0  0
  -39.9431   -5.7058   -2.5323 H   0  0  0  0  0  0
  -42.1523   -4.3191   -3.0380 H   0  0  0  0  0  0
  -41.2484   -3.7278   -4.4733 H   0  0  0  0  0  0
  -40.9937   -6.0017   -5.3163 H   0  0  0  0  0  0
  -41.7219   -6.6812   -3.8214 H   0  0  0  0  0  0
  -43.0172   -7.6022   -5.9313 H   0  0  0  0  0  0
  -45.3429   -5.6556   -6.5263 H   0  0  0  0  0  0
  -44.8879   -8.4912   -7.6562 H   0  0  0  0  0  0
  -46.1689   -7.3333   -8.1509 H   0  0  0  0  0  0
  -43.9919   -7.1455  -10.0878 H   0  0  0  0  0  0
  -46.2204   -5.7421   -4.3641 H   0  0  0  0  0  0
  -48.1217   -7.6663   -3.4205 H   0  0  0  0  0  0
  -46.5865   -8.3587   -2.7955 H   0  0  0  0  0  0
  1  2  1  0  0  0
  1 21  1  0  0  0
  1 22  1  0  0  0
  1 23  1  0  0  0
  2  3  1  0  0  0
  2  6  1  0  0  0
  2 24  1  0  0  0
  3  4  2  0  0  0
  3  5  1  0  0  0
  6  7  1  0  0  0
  6 25  1  0  0  0
  6 26  1  0  0  0
  7  8  1  0  0  0
  7 27  1  0  0  0
  7 28  1  0  0  0
  8  9  2  0  0  0
  8 10  1  0  0  0
 10 11  1  0  0  0
 10 29  1  0  0  0
 11 12  1  0  0  0
 11 14  1  0  0  0
 11 30  1  0  0  0
 12 13  2  0  0  0
 12 16  1  0  0  0
 14 15  1  0  0  0
 14 31  1  0  0  0
 14 32  1  0  0  0
 15 33  1  0  0  0
 16 17  1  0  0  0
 16 34  1  0  0  0
 17 18  1  0  0  0
 17 35  1  0  0  0
 17 36  1  0  0  0
 18 19  2  0  0  0
 18 20  1  0  0  0
M  CHG  3   1   1   5  -1  20  -1
M  END
> <s_m_source_file>
../1r4w_ligand.sdf

> <i_m_source_file_index>
1

> <s_epik_input>
Tz1DKFtPSF0pW0NAQEhdKFtOSDMrXSlbQ0gyXVtDSDJdQyg9TylbTkhdW0NAQEhdKFtDSDJdW1NIXSlDKD1PKVtOSF1bQ0gyXUMoPU8pW09IXQ==

> <s_epik_cmdline>
J2VwaWtfYXBwJywgJy1pbWFlJywgJ2xpZ2FuZF9wcm8ubWFlJywgJy1vbWFlJywgJ2xpZ2FuZF9wcmVwLm1hZScsICctbXMnLCAnMScsICctcGgnLCAnNycsICctcGh0JywgJzAuNScsICctbnQn

> <r_lp_tautomer_probability>
1

> <r_epik_Ionization_Penalty>
  0.0108

> <r_epik_Ionization_Penalty_Charging>
  0.0025

> <r_epik_Ionization_Penalty_Neutral>
  0.0083

> <r_epik_State_Penalty>
 -0.0000

> <r_epik_Charging_Adjusted_Penalty>
0.0025426613454744

> <i_epik_Tot_Q>
-1

> <i_epik_Tot_abs_Q>
3

$$$$
