1r58_ligand
                    3D
 Schrodinger Suite 2020-3.
 46 46  0  0  1  0            999 V2000
   19.5710   33.0360   16.1000 C   0  0  0  0  0  0
   18.7930   34.0790   15.2970 C   0  0  0  0  0  0
   19.9230   33.5930   17.4710 C   0  0  0  0  0  0
   21.0510   32.5290   15.2710 S   0  0  0  0  0  0
   20.8100   30.7630   15.0850 C   0  0  0  0  0  0
   21.0560   29.9950   16.3750 C   0  0  0  0  0  0
   20.6120   28.5460   16.2170 C   0  0  1  0  0  0
   21.9220   27.9620   15.8740 N   0  3  0  0  0  0
   20.0220   27.9640   17.5610 C   0  0  2  0  0  0
   20.0380   26.5410   17.5620 O   0  0  0  0  0  0
   18.5920   28.4240   17.7420 C   0  0  0  0  0  0
   17.6390   27.8590   17.2390 O   0  0  0  0  0  0
   18.4980   29.6570   18.5610 N   0  0  0  0  0  0
   17.2150   30.3150   18.8200 N   0  0  0  0  0  0
   16.5600   31.0460   17.8580 C   0  0  0  0  0  0
   17.0760   31.1400   16.7250 O   0  0  0  0  0  0
   15.2500   31.7070   18.1670 C   0  0  0  0  0  0
   14.5710   31.7310   19.5060 C   0  0  0  0  0  0
   13.2610   32.4350   19.6490 C   0  0  0  0  0  0
   12.6260   33.1070   18.4770 C   0  0  0  0  0  0
   13.3160   33.0650   17.1750 C   0  0  0  0  0  0
   14.5890   32.3900   17.0110 C   0  0  0  0  0  0
   12.6480   33.8090   15.7870 Cl  0  0  0  0  0  0
   18.8185   32.2556   16.2863 H   0  0  0  0  0  0
   17.8847   34.3635   15.8484 H   0  0  0  0  0  0
   18.5122   33.6558   14.3212 H   0  0  0  0  0  0
   19.4224   34.9680   15.1437 H   0  0  0  0  0  0
   19.0034   33.9080   17.9859 H   0  0  0  0  0  0
   20.5926   34.4579   17.3545 H   0  0  0  0  0  0
   20.4275   32.8159   18.0640 H   0  0  0  0  0  0
   19.7751   30.5655   14.7687 H   0  0  0  0  0  0
   21.5056   30.3759   14.3259 H   0  0  0  0  0  0
   22.1288   30.0187   16.6169 H   0  0  0  0  0  0
   20.4854   30.4594   17.1928 H   0  0  0  0  0  0
   19.8438   28.3592   15.4521 H   0  0  0  0  0  0
   22.2843   28.4016   14.9330 H   0  0  0  0  0  0
   21.8181   26.8735   15.7542 H   0  0  0  0  0  0
   22.6406   28.1754   16.6790 H   0  0  0  0  0  0
   20.6367   28.2482   18.4278 H   0  0  0  0  0  0
   20.9891   26.0016   17.4421 H   0  0  0  0  0  0
   19.4254   30.0765   18.9782 H   0  0  0  0  0  0
   16.7448   30.2326   19.8110 H   0  0  0  0  0  0
   15.0290   31.2400   20.3646 H   0  0  0  0  0  0
   12.7640   32.4582   20.6188 H   0  0  0  0  0  0
   11.6697   33.6193   18.5820 H   0  0  0  0  0  0
   15.0706   32.3800   16.0332 H   0  0  0  0  0  0
  1  2  1  0  0  0
  1  3  1  0  0  0
  1  4  1  0  0  0
  1 24  1  0  0  0
  2 25  1  0  0  0
  2 26  1  0  0  0
  2 27  1  0  0  0
  3 28  1  0  0  0
  3 29  1  0  0  0
  3 30  1  0  0  0
  4  5  1  0  0  0
  5  6  1  0  0  0
  5 31  1  0  0  0
  5 32  1  0  0  0
  6  7  1  0  0  0
  6 33  1  0  0  0
  6 34  1  0  0  0
  7  8  1  0  0  0
  7  9  1  0  0  0
  7 35  1  0  0  0
  8 36  1  0  0  0
  8 37  1  0  0  0
  8 38  1  0  0  0
  9 10  1  0  0  0
  9 11  1  0  0  0
  9 39  1  0  0  0
 10 40  1  0  0  0
 11 12  2  0  0  0
 11 13  1  0  0  0
 13 14  1  0  0  0
 13 41  1  0  0  0
 14 15  1  0  0  0
 14 42  1  0  0  0
 15 16  2  0  0  0
 15 17  1  0  0  0
 17 18  2  0  0  0
 17 22  1  0  0  0
 18 19  1  0  0  0
 18 43  1  0  0  0
 19 20  2  0  0  0
 19 44  1  0  0  0
 20 21  1  0  0  0
 20 45  1  0  0  0
 21 22  2  0  0  0
 21 23  1  0  0  0
 22 46  1  0  0  0
M  CHG  1   8   1
M  END
> <s_m_source_file>
../1r58_ligand.sdf

> <i_m_source_file_index>
1

> <s_epik_input>
W0NIM11bQ0hdKFtDSDNdKVNbQ0gyXVtDSDJdW0NAQEhdKFtOSDMrXSlbQ0BIXShbT0hdKUMoPU8pW05IXVtOSF1DKD1PKWMxW2NIXVtjSF1bY0hdYyhDbClbY0hdMQ==

> <s_epik_cmdline>
J2VwaWtfYXBwJywgJy1pbWFlJywgJ2xpZ2FuZF9wcm8ubWFlJywgJy1vbWFlJywgJ2xpZ2FuZF9wcmVwLm1hZScsICctbXMnLCAnMScsICctcGgnLCAnNycsICctcGh0JywgJzAuNScsICctbnQn

> <r_epik_Ionization_Penalty>
  0.0451

> <r_epik_Ionization_Penalty_Charging>
  0.0436

> <r_epik_Ionization_Penalty_Neutral>
  0.0015

> <r_epik_State_Penalty>
  0.0369

> <r_epik_Charging_Adjusted_Penalty>
0.0805035432958221

> <i_epik_Tot_Q>
1

> <i_epik_Tot_abs_Q>
1

$$$$
