1r5g_ligand
                    3D
 Schrodinger Suite 2020-3.
 51 52  0  0  1  0            999 V2000
   19.2480   33.7340   16.8230 C   0  0  0  0  0  0
   18.9690   33.1550   15.4470 C   0  0  0  0  0  0
   20.0340   31.7290   15.1370 S   0  0  0  0  0  0
   18.9110   30.5100   15.4980 C   0  0  0  0  0  0
   19.5070   29.8660   16.7390 C   0  0  0  0  0  0
   19.5750   28.3780   16.4560 C   0  0  2  0  0  0
   19.3960   27.5050   17.7830 C   0  0  1  0  0  0
   17.9770   27.5740   18.0830 C   0  0  0  0  0  0
   18.1360   27.9950   19.3360 N   0  0  0  0  0  0
   16.8550   28.0660   19.9400 C   0  0  2  0  0  0
   16.0610   29.4040   19.5460 C   0  0  0  0  0  0
   17.7060   27.4890   16.9060 O   0  0  0  0  0  0
   16.9370   27.9400   21.4610 C   0  0  0  0  0  0
   16.7730   30.7700   19.4660 C   0  0  0  0  0  0
   16.0380   32.0180   19.1280 C   0  0  0  0  0  0
   14.5970   32.0100   18.8640 C   0  0  0  0  0  0
   13.8530   30.7560   18.9130 C   0  0  0  0  0  0
   14.5610   29.3950   19.2600 C   0  0  0  0  0  0
   12.4150   30.7800   18.6340 C   0  0  0  0  0  0
   11.6110   29.5330   18.6740 C   0  0  0  0  0  0
   12.2550   28.2310   18.9990 C   0  0  0  0  0  0
   13.7050   28.1490   19.2890 C   0  0  0  0  0  0
   19.7450   26.1250   17.5420 O   0  0  0  0  0  0
   20.7050   27.9380   15.6500 N   0  3  0  0  0  0
   18.5924   34.6002   16.9961 H   0  0  0  0  0  0
   20.2993   34.0525   16.8805 H   0  0  0  0  0  0
   19.0543   32.9687   17.5890 H   0  0  0  0  0  0
   17.9177   32.8365   15.3895 H   0  0  0  0  0  0
   19.1627   33.9203   14.6810 H   0  0  0  0  0  0
   17.9259   30.9625   15.6844 H   0  0  0  0  0  0
   18.8400   29.8138   14.6493 H   0  0  0  0  0  0
   20.5100   30.2794   16.9208 H   0  0  0  0  0  0
   18.8622   30.0738   17.6056 H   0  0  0  0  0  0
   18.7702   28.2185   15.7232 H   0  0  0  0  0  0
   20.0046   27.8042   18.6491 H   0  0  0  0  0  0
   19.0319   28.2687   19.9126 H   0  0  0  0  0  0
   16.4008   27.1553   19.5225 H   0  0  0  0  0  0
   17.4821   27.0214   21.7240 H   0  0  0  0  0  0
   15.9211   27.8964   21.8806 H   0  0  0  0  0  0
   17.4668   28.8115   21.8731 H   0  0  0  0  0  0
   17.8439   30.8220   19.6625 H   0  0  0  0  0  0
   16.5839   32.9600   19.0755 H   0  0  0  0  0  0
   14.0806   32.9412   18.6309 H   0  0  0  0  0  0
   11.9293   31.7258   18.3940 H   0  0  0  0  0  0
   10.5421   29.5709   18.4640 H   0  0  0  0  0  0
   11.6504   27.3244   19.0239 H   0  0  0  0  0  0
   14.1573   27.1857   19.5245 H   0  0  0  0  0  0
   20.7825   25.8550   17.2957 H   0  0  0  0  0  0
   20.7831   28.5692   14.7525 H   0  0  0  0  0  0
   20.5553   26.8905   15.3496 H   0  0  0  0  0  0
   21.6302   28.0219   16.2390 H   0  0  0  0  0  0
  1  2  1  0  0  0
  1 25  1  0  0  0
  1 26  1  0  0  0
  1 27  1  0  0  0
  2  3  1  0  0  0
  2 28  1  0  0  0
  2 29  1  0  0  0
  3  4  1  0  0  0
  4  5  1  0  0  0
  4 30  1  0  0  0
  4 31  1  0  0  0
  5  6  1  0  0  0
  5 32  1  0  0  0
  5 33  1  0  0  0
  6  7  1  0  0  0
  6 24  1  0  0  0
  6 34  1  0  0  0
  7  8  1  0  0  0
  7 23  1  0  0  0
  7 35  1  0  0  0
  8  9  1  0  0  0
  8 12  2  0  0  0
  9 10  1  0  0  0
  9 36  1  0  0  0
 10 11  1  0  0  0
 10 13  1  0  0  0
 10 37  1  0  0  0
 11 14  2  0  0  0
 11 18  1  0  0  0
 13 38  1  0  0  0
 13 39  1  0  0  0
 13 40  1  0  0  0
 14 15  1  0  0  0
 14 41  1  0  0  0
 15 16  2  0  0  0
 15 42  1  0  0  0
 16 17  1  0  0  0
 16 43  1  0  0  0
 17 18  2  0  0  0
 17 19  1  0  0  0
 18 22  1  0  0  0
 19 20  2  0  0  0
 19 44  1  0  0  0
 20 21  1  0  0  0
 20 45  1  0  0  0
 21 22  2  0  0  0
 21 46  1  0  0  0
 22 47  1  0  0  0
 23 48  1  0  0  0
 24 49  1  0  0  0
 24 50  1  0  0  0
 24 51  1  0  0  0
M  CHG  1  24   1
M  END
> <s_m_source_file>
../1r5g_ligand.sdf

> <i_m_source_file_index>
1

> <s_epik_input>
W0NIM11bQ0gyXVNbQ0gyXVtDSDJdW0NAQEhdKFtOSDMrXSlbQ0BIXShbT0hdKUMoPU8pW05IXVtDQEBIXShbQ0gzXSljKFtjSF1bY0hdW2NIXTEpYyhjMTIpW2NIXVtjSF1bY0hdW2NIXTI=

> <s_epik_cmdline>
J2VwaWtfYXBwJywgJy1pbWFlJywgJ2xpZ2FuZF9wcm8ubWFlJywgJy1vbWFlJywgJ2xpZ2FuZF9wcmVwLm1hZScsICctbXMnLCAnMScsICctcGgnLCAnNycsICctcGh0JywgJzAuNScsICctbnQn

> <r_epik_Ionization_Penalty>
  0.0310

> <r_epik_Ionization_Penalty_Charging>
  0.0309

> <r_epik_Ionization_Penalty_Neutral>
  0.0001

> <r_epik_State_Penalty>
  0.0255

> <r_epik_Charging_Adjusted_Penalty>
0.0564820691386809

> <i_epik_Tot_Q>
1

> <i_epik_Tot_abs_Q>
1

$$$$
