1r5h_ligand
                    3D
 Schrodinger Suite 2020-3.
 50 51  0  0  1  0            999 V2000
   20.9010   32.3400   16.5720 C   0  0  0  0  0  0
   20.2150   33.5960   16.0020 C   0  0  0  0  0  0
   18.6840   33.4570   15.8950 C   0  0  0  0  0  0
   18.2570   32.1840   15.1410 C   0  0  0  0  0  0
   18.9230   30.9000   15.6740 C   0  0  0  0  0  0
   20.4660   31.0170   15.8890 C   0  0  0  0  0  0
   21.1260   29.7950   16.5690 C   0  0  0  0  0  0
   20.4430   28.4390   16.3310 C   0  0  1  0  0  0
   21.4470   27.7750   15.6210 N   0  3  0  0  0  0
   20.0640   27.6310   17.7040 C   0  0  2  0  0  0
   20.0680   26.1760   17.6010 O   0  0  0  0  0  0
   18.7110   28.2140   18.1190 C   0  0  0  0  0  0
   18.5400   29.3630   18.4610 O   0  0  0  0  0  0
   17.6320   27.2680   18.0740 N   0  0  0  0  0  0
   16.2470   27.5620   18.4180 N   0  0  0  0  0  0
   15.6510   28.0170   19.5800 C   0  0  0  0  0  0
   14.3770   28.7120   19.6130 C   0  0  0  0  0  0
   13.8220   29.1530   20.8440 C   0  0  0  0  0  0
   14.5210   28.9160   22.0850 C   0  0  0  0  0  0
   15.7860   28.2240   22.0560 C   0  0  0  0  0  0
   16.3450   27.7820   20.8320 C   0  0  0  0  0  0
   13.9180   29.3910   23.3840 C   0  0  0  0  0  0
   21.9901   32.4275   16.4449 H   0  0  0  0  0  0
   20.6631   32.2459   17.6418 H   0  0  0  0  0  0
   20.4253   34.4565   16.6542 H   0  0  0  0  0  0
   20.6012   33.7983   14.9921 H   0  0  0  0  0  0
   18.2483   33.4143   16.9041 H   0  0  0  0  0  0
   18.2740   34.3232   15.3550 H   0  0  0  0  0  0
   17.1687   32.0519   15.2315 H   0  0  0  0  0  0
   18.5279   32.2786   14.0791 H   0  0  0  0  0  0
   18.4821   30.6347   16.6462 H   0  0  0  0  0  0
   18.7591   30.0787   14.9608 H   0  0  0  0  0  0
   20.8659   31.0313   14.8644 H   0  0  0  0  0  0
   22.1576   29.6848   16.2035 H   0  0  0  0  0  0
   21.1371   29.9434   17.6589 H   0  0  0  0  0  0
   19.5395   28.5191   15.7087 H   0  0  0  0  0  0
   21.6820   28.3376   14.7054 H   0  0  0  0  0  0
   21.1004   26.7661   15.3527 H   0  0  0  0  0  0
   22.3489   27.6987   16.2461 H   0  0  0  0  0  0
   20.8055   27.6799   18.5150 H   0  0  0  0  0  0
   20.9878   25.6478   17.3096 H   0  0  0  0  0  0
   17.9153   26.2557   17.7500 H   0  0  0  0  0  0
   15.4531   27.4241   17.6692 H   0  0  0  0  0  0
   13.8402   28.8976   18.6827 H   0  0  0  0  0  0
   12.8639   29.6728   20.8518 H   0  0  0  0  0  0
   16.3190   28.0387   22.9885 H   0  0  0  0  0  0
   17.3029   27.2619   20.8308 H   0  0  0  0  0  0
   12.9589   29.8904   23.1821 H   0  0  0  0  0  0
   14.6051   30.0994   23.8698 H   0  0  0  0  0  0
   13.7504   28.5295   24.0471 H   0  0  0  0  0  0
  1  2  1  0  0  0
  1  6  1  0  0  0
  1 23  1  0  0  0
  1 24  1  0  0  0
  2  3  1  0  0  0
  2 25  1  0  0  0
  2 26  1  0  0  0
  3  4  1  0  0  0
  3 27  1  0  0  0
  3 28  1  0  0  0
  4  5  1  0  0  0
  4 29  1  0  0  0
  4 30  1  0  0  0
  5  6  1  0  0  0
  5 31  1  0  0  0
  5 32  1  0  0  0
  6  7  1  0  0  0
  6 33  1  0  0  0
  7  8  1  0  0  0
  7 34  1  0  0  0
  7 35  1  0  0  0
  8  9  1  0  0  0
  8 10  1  0  0  0
  8 36  1  0  0  0
  9 37  1  0  0  0
  9 38  1  0  0  0
  9 39  1  0  0  0
 10 11  1  0  0  0
 10 12  1  0  0  0
 10 40  1  0  0  0
 11 41  1  0  0  0
 12 13  2  0  0  0
 12 14  1  0  0  0
 14 15  1  0  0  0
 14 42  1  0  0  0
 15 16  1  0  0  0
 15 43  1  0  0  0
 16 17  2  0  0  0
 16 21  1  0  0  0
 17 18  1  0  0  0
 17 44  1  0  0  0
 18 19  2  0  0  0
 18 45  1  0  0  0
 19 20  1  0  0  0
 19 22  1  0  0  0
 20 21  2  0  0  0
 20 46  1  0  0  0
 21 47  1  0  0  0
 22 48  1  0  0  0
 22 49  1  0  0  0
 22 50  1  0  0  0
M  CHG  1   9   1
M  END
> <s_m_source_file>
../1r5h_ligand.sdf

> <i_m_source_file_index>
1

> <s_epik_input>
W0NIMl0xW0NIMl1bQ0gyXVtDSDJdW0NIMl1bQ0hdMVtDSDJdW0NAQEhdKFtOSDMrXSlbQ0BIXShbT0hdKUMoPU8pW05IXVtOSF1jMltjSF1bY0hdYyhbQ0gzXSlbY0hdW2NIXTI=

> <s_epik_cmdline>
J2VwaWtfYXBwJywgJy1pbWFlJywgJ2xpZ2FuZF9wcm8ubWFlJywgJy1vbWFlJywgJ2xpZ2FuZF9wcmVwLm1hZScsICctbXMnLCAnMScsICctcGgnLCAnNycsICctcGh0JywgJzAuNScsICctbnQn

> <r_epik_Ionization_Penalty>
  0.0143

> <r_epik_Ionization_Penalty_Charging>
  0.0142

> <r_epik_Ionization_Penalty_Neutral>
  0.0001

> <r_epik_State_Penalty>
  0.0111

> <r_epik_Charging_Adjusted_Penalty>
0.0253754127792092

> <i_epik_Tot_Q>
1

> <i_epik_Tot_abs_Q>
1

$$$$
