1r5n_ligand
                    3D
 Schrodinger Suite 2020-3.
 40 42  0  0  1  0            999 V2000
  100.9650   13.7230   62.3260 P   0  0  0  0  0  0
  100.4700   13.2410   63.6510 O   0  0  0  0  0  0
  100.2410   14.9890   61.8530 O   0  5  0  0  0  0
  102.4900   13.9540   62.2960 O   0  5  0  0  0  0
  100.6670   12.6160   61.2060 O   0  0  0  0  0  0
  100.9480   12.9670   59.6610 P   0  0  1  0  0  0
  100.0630   12.2850   58.6940 O   0  0  0  0  0  0
  101.1340   14.4630   59.3680 O   0  5  0  0  0  0
  102.3980   12.3320   59.4670 O   0  0  0  0  0  0
  102.5670   10.9550   59.6420 C   0  0  0  0  0  0
  103.2690   10.2810   58.4730 C   0  0  1  0  0  0
  102.7190    8.9890   58.3260 O   0  0  0  0  0  0
  103.1000   10.9710   57.1340 C   0  0  1  0  0  0
  104.2920   10.8260   56.4010 O   0  0  0  0  0  0
  101.9780   10.2240   56.4560 C   0  0  1  0  0  0
  102.1260   10.1270   55.0590 O   0  0  0  0  0  0
  102.0540    8.8500   57.0830 C   0  0  2  0  0  0
  100.6930    8.2970   57.2020 N   0  0  0  0  0  0
   99.6190    8.8180   57.8750 C   0  0  0  0  0  0
   98.5660    7.9840   57.7110 N   0  0  0  0  0  0
   98.9570    6.9470   56.9390 C   0  0  0  0  0  0
   98.2980    5.8170   56.4600 C   0  0  0  0  0  0
   97.1330    5.5860   56.7710 O   0  0  0  0  0  0
   98.9900    4.9160   55.6710 N   0  0  0  0  0  0
  100.3180    5.1270   55.3590 C   0  0  0  0  0  0
  101.0350    4.1170   54.8720 N   0  0  0  0  0  0
  100.9620    6.2520   55.8370 N   0  0  0  0  0  0
  100.2930    7.1380   56.6130 C   0  0  0  0  0  0
  103.1722   10.7713   60.5420 H   0  0  0  0  0  0
  101.5833   10.4766   59.7578 H   0  0  0  0  0  0
  104.3413   10.2267   58.7122 H   0  0  0  0  0  0
  102.9358   12.0576   57.1835 H   0  0  0  0  0  0
  105.2161   11.3079   56.7529 H   0  0  0  0  0  0
  101.0110   10.7441   56.5221 H   0  0  0  0  0  0
  102.0962   11.0347   54.4384 H   0  0  0  0  0  0
  102.6460    8.1139   56.5194 H   0  0  0  0  0  0
   99.6138    9.7467   58.4456 H   0  0  0  0  0  0
   98.4823    4.0198   55.2849 H   0  0  0  0  0  0
  100.5297    3.2179   54.4896 H   0  0  0  0  0  0
  102.1329    4.1813   54.8519 H   0  0  0  0  0  0
  1  2  2  0  0  0
  1  3  1  0  0  0
  1  4  1  0  0  0
  1  5  1  0  0  0
  5  6  1  0  0  0
  6  7  2  0  0  0
  6  8  1  0  0  0
  6  9  1  0  0  0
  9 10  1  0  0  0
 10 11  1  0  0  0
 10 29  1  0  0  0
 10 30  1  0  0  0
 11 12  1  0  0  0
 11 13  1  0  0  0
 11 31  1  0  0  0
 12 17  1  0  0  0
 13 14  1  0  0  0
 13 15  1  0  0  0
 13 32  1  0  0  0
 14 33  1  0  0  0
 15 16  1  0  0  0
 15 17  1  0  0  0
 15 34  1  0  0  0
 16 35  1  0  0  0
 17 18  1  0  0  0
 17 36  1  0  0  0
 18 19  1  0  0  0
 18 28  1  0  0  0
 19 20  2  0  0  0
 19 37  1  0  0  0
 20 21  1  0  0  0
 21 22  1  0  0  0
 21 28  2  0  0  0
 22 23  2  0  0  0
 22 24  1  0  0  0
 24 25  1  0  0  0
 24 38  1  0  0  0
 25 26  1  0  0  0
 25 27  2  0  0  0
 26 39  1  0  0  0
 26 40  1  0  0  0
 27 28  1  0  0  0
M  CHG  3   3  -1   4  -1   8  -1
M  END
> <s_m_source_file>
../1r5n_ligand.sdf

> <i_m_source_file_index>
1

> <s_epik_input>
Tz1QKFtPSF0pKFtPSF0pT1tQQEBdKD1PKShbT0hdKU9bQ0gyXVtDQEhdMU9bQ0BIXShbQ0BIXShbT0hdKVtDQEBIXTFbT0hdKW4oW2NIXW4yKWMoYzIzKW5jKFtOSDJdKVtuSF1jMz1P

> <s_epik_cmdline>
J2VwaWtfYXBwJywgJy1pbWFlJywgJ2xpZ2FuZF9wcm8ubWFlJywgJy1vbWFlJywgJ2xpZ2FuZF9wcmVwLm1hZScsICctbXMnLCAnMScsICctcGgnLCAnNycsICctcGh0JywgJzAuNScsICctbnQn

> <r_lp_tautomer_probability>
0.999940409345307

> <r_epik_Ionization_Penalty>
  0.1052

> <r_epik_Ionization_Penalty_Charging>
  0.1051

> <r_epik_Ionization_Penalty_Neutral>
  0.0001

> <r_epik_State_Penalty>
  0.0922

> <r_epik_Charging_Adjusted_Penalty>
0.197315167096652

> <i_epik_Tot_Q>
-3

> <i_epik_Tot_abs_Q>
3

> <s_epik_Chemistry_Notes>
This compound contains an acetal/aminal-like group ( X-CH(R)-Y where X, Y are N, S, or O) that may be acid/base labile, releasing an aldehyde.

$$$$
