1r5v_ligand
                    3D
 Schrodinger Suite 2020-3.
208210  0  0  1  0            999 V2000
   51.6580   76.5870  107.1730 N   0  3  0  0  0  0
   52.3180   77.6720  106.3810 C   0  0  2  0  0  0
   53.7290   78.0320  106.9410 C   0  0  0  0  0  0
   53.8900   79.0050  107.6920 O   0  0  0  0  0  0
   51.3840   78.9240  106.3260 C   0  0  0  0  0  0
   54.7350   77.2170  106.5850 N   0  0  0  0  0  0
   56.1260   77.4410  107.0030 C   0  0  2  0  0  0
   56.7600   78.4740  106.0370 C   0  0  0  0  0  0
   56.3510   78.6170  104.8700 O   0  0  0  0  0  0
   56.9150   76.1280  106.9670 C   0  0  0  0  0  0
   58.1390   76.1450  107.8780 C   0  0  0  0  0  0
   59.0760   75.3270  107.6850 O   0  0  0  0  0  0
   58.1690   76.9710  108.8070 O   0  0  0  0  0  0
   57.7750   79.1720  106.5300 N   0  0  0  0  0  0
   58.4340   80.2340  105.7890 C   0  0  2  0  0  0
   59.4670   79.8020  104.7790 C   0  0  0  0  0  0
   60.3960   79.0550  105.0960 O   0  0  0  0  0  0
   59.0610   81.2100  106.7820 C   0  0  0  0  0  0
   59.2280   82.6650  106.3310 C   0  0  0  0  0  0
   57.8630   83.3200  106.0680 C   0  0  0  0  0  0
   59.9870   83.4330  107.4220 C   0  0  0  0  0  0
   59.3120   80.2870  103.5480 N   0  0  0  0  0  0
   60.2450   79.9400  102.4840 C   0  0  2  0  0  0
   61.4760   80.7780  102.6310 C   0  0  0  0  0  0
   61.3870   81.9710  102.8320 O   0  0  0  0  0  0
   59.6330   80.1750  101.0690 C   0  0  2  0  0  0
   58.4650   79.2170  100.8430 C   0  0  0  0  0  0
   60.6850   79.9570   99.9840 C   0  0  0  0  0  0
   57.6230   79.5840   99.6680 C   0  0  0  0  0  0
   62.6340   80.1600  102.5600 N   0  0  0  0  0  0
   63.8700   80.9170  102.6680 C   0  0  2  0  0  0
   64.2250   81.3620  101.2640 C   0  0  0  0  0  0
   63.7200   80.7860  100.3050 O   0  0  0  0  0  0
   64.9850   80.0390  103.2390 C   0  0  0  0  0  0
   65.0780   82.3780  101.1390 N   0  0  0  0  0  0
   65.4840   82.8470   99.8280 C   0  0  2  0  0  0
   66.9900   83.1370   99.8400 C   0  0  0  0  0  0
   67.5360   83.5380  100.8530 O   0  0  0  0  0  0
   64.6560   84.0800   99.4340 C   0  0  0  0  0  0
   64.9850   85.3310  100.1940 C   0  0  0  0  0  0
   66.0400   86.1340   99.7880 C   0  0  0  0  0  0
   64.2890   85.6740  101.3600 C   0  0  0  0  0  0
   66.4190   87.2400  100.5110 C   0  0  0  0  0  0
   64.6500   86.7890  102.1160 C   0  0  0  0  0  0
   65.7370   87.5790  101.6790 C   0  0  0  0  0  0
   66.1760   88.7040  102.3720 O   0  0  0  0  0  0
   67.6960   82.8930   98.7270 N   0  0  0  0  0  0
   69.1240   83.1960   98.8180 C   0  0  2  0  0  0
   69.3340   84.7180   98.8300 C   0  0  0  0  0  0
   68.6730   85.4240   98.0750 O   0  0  0  0  0  0
   69.6850   82.5430   97.5600 C   0  0  0  0  0  0
   68.5880   82.7700   96.5930 C   0  0  0  0  0  0
   67.3500   82.4060   97.3840 C   0  0  0  0  0  0
   70.2530   85.2070   99.6770 N   0  0  0  0  0  0
   70.5490   86.6430   99.7780 C   0  0  2  0  0  0
   71.3370   87.1390   98.5730 C   0  0  0  0  0  0
   72.2390   86.4530   98.0920 O   0  0  0  0  0  0
   71.3690   86.9570  101.0280 C   0  0  0  0  0  0
   70.6720   86.6380  102.3020 C   0  0  0  0  0  0
   69.3590   87.3940  102.4120 C   0  0  0  0  0  0
   68.6330   86.9630  103.6910 C   0  0  0  0  0  0
   68.5070   85.4690  103.7730 N   0  3  0  0  0  0
   71.0190   88.3450   98.1190 N   0  0  0  0  0  0
   71.6880   88.9330   96.9710 C   0  0  2  0  0  0
   72.9620   89.6250   97.4080 C   0  0  0  0  0  0
   72.9920   90.3220   98.4200 O   0  0  0  0  0  0
   70.7470   89.9370   96.2900 C   0  0  0  0  0  0
   74.0150   89.4770   96.6320 N   0  0  0  0  0  0
   75.2650   90.1000   97.0040 C   0  0  2  0  0  0
   75.4930   91.3510   96.2230 C   0  0  0  0  0  0
   75.1070   91.4110   95.0590 O   0  0  0  0  0  0
   76.4040   89.1460   96.7600 C   0  0  0  0  0  0
   76.1780   92.3130   96.8480 N   0  0  0  0  0  0
   76.4990   93.6000   96.2510 C   0  0  2  0  0  0
   77.8310   93.6430   95.4880 C   0  0  0  0  0  0
   78.8250   93.0860   95.9460 O   0  0  0  0  0  0
   76.5270   94.6860   97.3500 C   0  0  2  0  0  0
   75.1950   94.8980   97.8520 O   0  0  0  0  0  0
   77.1190   95.9860   96.8200 C   0  0  0  0  0  0
   77.8600   94.3440   94.3540 N   0  0  0  0  0  0
   79.0690   94.4550   93.5390 C   0  0  2  0  0  0
   79.7230   95.8530   93.5340 C   0  0  0  0  0  0
   79.0960   96.8280   93.9620 O   0  0  0  0  0  0
   78.7260   94.1110   92.0830 C   0  0  0  0  0  0
   77.9610   92.8120   91.8730 C   0  0  0  0  0  0
   77.6450   92.6190   90.3670 C   0  0  0  0  0  0
   76.9150   91.2940   90.0160 C   0  0  0  0  0  0
   76.4810   91.2170   88.5780 N   0  3  0  0  0  0
   80.9820   95.9510   93.0580 N   0  0  0  0  0  0
   81.6840   97.2570   92.8900 C   0  0  2  0  0  0
   82.2710   97.3010   91.4910 C   0  0  0  0  0  0
   82.4560   96.2170   90.8800 O   0  0  0  0  0  0
   82.8910   97.4550   93.7880 C   0  0  0  0  0  0
   82.6630   97.0890   95.1940 C   0  0  0  0  0  0
   83.5080   96.1140   95.8120 C   0  0  0  0  0  0
   81.6070   97.6980   95.9330 C   0  0  0  0  0  0
   83.3200   95.7020   97.2120 C   0  0  0  0  0  0
   81.3650   97.3340   97.3480 C   0  0  0  0  0  0
   82.2330   96.3190   97.9920 C   0  0  0  0  0  0
   82.5990   98.4280   91.0490 O   0  0  0  0  0  0
   52.3173   75.7073  107.2101 H   0  0  0  0  0  0
   50.7060   76.3119  106.6956 H   0  0  0  0  0  0
   51.4657   76.9445  108.1954 H   0  0  0  0  0  0
   52.4606   77.2614  105.3705 H   0  0  0  0  0  0
   50.4015   78.6313  105.9272 H   0  0  0  0  0  0
   51.8322   79.6874  105.6730 H   0  0  0  0  0  0
   51.2610   79.3344  107.3391 H   0  0  0  0  0  0
   54.4829   76.3521  105.9538 H   0  0  0  0  0  0
   56.1026   77.8089  108.0394 H   0  0  0  0  0  0
   56.2665   75.3015  107.2930 H   0  0  0  0  0  0
   57.2637   75.9378  105.9412 H   0  0  0  0  0  0
   59.9592   75.3377  108.3406 H   0  0  0  0  0  0
   58.1141   78.9173  107.5450 H   0  0  0  0  0  0
   57.6120   80.6594  105.1945 H   0  0  0  0  0  0
   58.4433   81.2555  107.6911 H   0  0  0  0  0  0
   60.0732   80.8677  107.0432 H   0  0  0  0  0  0
   59.7968   82.6885  105.3898 H   0  0  0  0  0  0
   57.3319   82.7590  105.2849 H   0  0  0  0  0  0
   58.0122   84.3586  105.7378 H   0  0  0  0  0  0
   57.2678   83.3112  106.9930 H   0  0  0  0  0  0
   60.9607   82.9526  107.5986 H   0  0  0  0  0  0
   59.3999   83.4247  108.3522 H   0  0  0  0  0  0
   60.1443   84.4720  107.0970 H   0  0  0  0  0  0
   58.4655   80.9580  103.3401 H   0  0  0  0  0  0
   60.4802   78.8764  102.6368 H   0  0  0  0  0  0
   59.2691   81.2103  100.9927 H   0  0  0  0  0  0
   58.8516   78.2017  100.6705 H   0  0  0  0  0  0
   57.8147   79.2158  101.7302 H   0  0  0  0  0  0
   61.5268   80.6464  100.1457 H   0  0  0  0  0  0
   60.2388   80.1483   98.9969 H   0  0  0  0  0  0
   61.0473   78.9193  100.0278 H   0  0  0  0  0  0
   56.8041   78.8571   99.5624 H   0  0  0  0  0  0
   58.2404   79.5757   98.7576 H   0  0  0  0  0  0
   57.2035   80.5898   99.8174 H   0  0  0  0  0  0
   62.6674   79.0696  102.4188 H   0  0  0  0  0  0
   63.7023   81.7697  103.3423 H   0  0  0  0  0  0
   64.7168   79.7220  104.2576 H   0  0  0  0  0  0
   65.9238   80.6115  103.2684 H   0  0  0  0  0  0
   65.1161   79.1521  102.6016 H   0  0  0  0  0  0
   65.4749   82.8620  102.0435 H   0  0  0  0  0  0
   65.2749   82.0368   99.1139 H   0  0  0  0  0  0
   64.8176   84.3053   98.3695 H   0  0  0  0  0  0
   63.5891   83.8761   99.6078 H   0  0  0  0  0  0
   66.5807   85.8827   98.8755 H   0  0  0  0  0  0
   63.4496   85.0580  101.6826 H   0  0  0  0  0  0
   67.2538   87.8528  100.1708 H   0  0  0  0  0  0
   64.1052   87.0456  103.0246 H   0  0  0  0  0  0
   67.0275   89.2871  101.9911 H   0  0  0  0  0  0
   69.5775   82.8053   99.7409 H   0  0  0  0  0  0
   70.6241   83.0406   97.2762 H   0  0  0  0  0  0
   69.8788   81.4779   97.7550 H   0  0  0  0  0  0
   68.5908   83.8233   96.2760 H   0  0  0  0  0  0
   68.7328   82.1226   95.7156 H   0  0  0  0  0  0
   67.1653   81.3223   97.4233 H   0  0  0  0  0  0
   66.4441   82.9198   97.0297 H   0  0  0  0  0  0
   70.7935   84.4882  100.3104 H   0  0  0  0  0  0
   69.5570   87.1163   99.8203 H   0  0  0  0  0  0
   72.3007   86.3725  101.0117 H   0  0  0  0  0  0
   71.6097   88.0301  101.0487 H   0  0  0  0  0  0
   70.4611   85.5592  102.3444 H   0  0  0  0  0  0
   71.3122   86.9201  103.1508 H   0  0  0  0  0  0
   69.5602   88.4748  102.4488 H   0  0  0  0  0  0
   68.7311   87.1675  101.5377 H   0  0  0  0  0  0
   69.1960   87.3143  104.5683 H   0  0  0  0  0  0
   67.6234   87.3995  103.7044 H   0  0  0  0  0  0
   67.9826   85.1956  104.7005 H   0  0  0  0  0  0
   69.5093   85.0159  103.7712 H   0  0  0  0  0  0
   67.9367   85.1011  102.9073 H   0  0  0  0  0  0
   70.2246   88.9019   98.6375 H   0  0  0  0  0  0
   71.9396   88.1033   96.2940 H   0  0  0  0  0  0
   69.8262   89.4227   95.9775 H   0  0  0  0  0  0
   71.2448   90.3660   95.4079 H   0  0  0  0  0  0
   70.4958   90.7416   96.9967 H   0  0  0  0  0  0
   73.9493   88.8851   95.7071 H   0  0  0  0  0  0
   75.1756   90.3491   98.0717 H   0  0  0  0  0  0
   76.2385   88.2227   97.3346 H   0  0  0  0  0  0
   77.3477   89.6124   97.0792 H   0  0  0  0  0  0
   76.4579   88.9059   95.6879 H   0  0  0  0  0  0
   76.5038   92.0860   97.8738 H   0  0  0  0  0  0
   75.6857   93.7237   95.5207 H   0  0  0  0  0  0
   77.1183   94.3580   98.2177 H   0  0  0  0  0  0
   74.6251   94.0561   98.2721 H   0  0  0  0  0  0
   78.1352   95.7991   96.4426 H   0  0  0  0  0  0
   77.1598   96.7278   97.6312 H   0  0  0  0  0  0
   76.4894   96.3696   96.0036 H   0  0  0  0  0  0
   76.9350   94.8482   94.0374 H   0  0  0  0  0  0
   79.7486   93.7414   94.0279 H   0  0  0  0  0  0
   78.1011   94.9088   91.6552 H   0  0  0  0  0  0
   79.6540   94.0195   91.4995 H   0  0  0  0  0  0
   78.5700   91.9667   92.2259 H   0  0  0  0  0  0
   77.0183   92.8461   92.4388 H   0  0  0  0  0  0
   76.9973   93.4377   90.0204 H   0  0  0  0  0  0
   78.5827   92.6248   89.7919 H   0  0  0  0  0  0
   77.5870   90.4439   90.2052 H   0  0  0  0  0  0
   76.0143   91.1953   90.6397 H   0  0  0  0  0  0
   75.9733   90.2577   88.3991 H   0  0  0  0  0  0
   77.3625   91.2928   87.9244 H   0  0  0  0  0  0
   75.7898   92.0442   88.3588 H   0  0  0  0  0  0
   81.4917   95.0140   92.7893 H   0  0  0  0  0  0
   80.9143   98.0070   93.1247 H   0  0  0  0  0  0
   82.8802   96.2232   89.8651 H   0  0  0  0  0  0
   83.7241   96.8355   93.4244 H   0  0  0  0  0  0
   83.1884   98.5140   93.7744 H   0  0  0  0  0  0
   84.3126   95.6643   95.2302 H   0  0  0  0  0  0
   80.9704   98.4400   95.4511 H   0  0  0  0  0  0
   83.9725   94.9546   97.6634 H   0  0  0  0  0  0
   80.5587   97.8064   97.9091 H   0  0  0  0  0  0
   82.0688   96.0325   99.0308 H   0  0  0  0  0  0
  1  2  1  0  0  0
  1101  1  0  0  0
  1102  1  0  0  0
  1103  1  0  0  0
  2  3  1  0  0  0
  2  5  1  0  0  0
  2104  1  0  0  0
  3  4  2  0  0  0
  3  6  1  0  0  0
  5105  1  0  0  0
  5106  1  0  0  0
  5107  1  0  0  0
  6  7  1  0  0  0
  6108  1  0  0  0
  7  8  1  0  0  0
  7 10  1  0  0  0
  7109  1  0  0  0
  8  9  2  0  0  0
  8 14  1  0  0  0
 10 11  1  0  0  0
 10110  1  0  0  0
 10111  1  0  0  0
 11 12  1  0  0  0
 11 13  2  0  0  0
 12112  1  0  0  0
 14 15  1  0  0  0
 14113  1  0  0  0
 15 16  1  0  0  0
 15 18  1  0  0  0
 15114  1  0  0  0
 16 17  2  0  0  0
 16 22  1  0  0  0
 18 19  1  0  0  0
 18115  1  0  0  0
 18116  1  0  0  0
 19 20  1  0  0  0
 19 21  1  0  0  0
 19117  1  0  0  0
 20118  1  0  0  0
 20119  1  0  0  0
 20120  1  0  0  0
 21121  1  0  0  0
 21122  1  0  0  0
 21123  1  0  0  0
 22 23  1  0  0  0
 22124  1  0  0  0
 23 24  1  0  0  0
 23 26  1  0  0  0
 23125  1  0  0  0
 24 25  2  0  0  0
 24 30  1  0  0  0
 26 27  1  0  0  0
 26 28  1  0  0  0
 26126  1  0  0  0
 27 29  1  0  0  0
 27127  1  0  0  0
 27128  1  0  0  0
 28129  1  0  0  0
 28130  1  0  0  0
 28131  1  0  0  0
 29132  1  0  0  0
 29133  1  0  0  0
 29134  1  0  0  0
 30 31  1  0  0  0
 30135  1  0  0  0
 31 32  1  0  0  0
 31 34  1  0  0  0
 31136  1  0  0  0
 32 33  2  0  0  0
 32 35  1  0  0  0
 34137  1  0  0  0
 34138  1  0  0  0
 34139  1  0  0  0
 35 36  1  0  0  0
 35140  1  0  0  0
 36 37  1  0  0  0
 36 39  1  0  0  0
 36141  1  0  0  0
 37 38  2  0  0  0
 37 47  1  0  0  0
 39 40  1  0  0  0
 39142  1  0  0  0
 39143  1  0  0  0
 40 41  2  0  0  0
 40 42  1  0  0  0
 41 43  1  0  0  0
 41144  1  0  0  0
 42 44  2  0  0  0
 42145  1  0  0  0
 43 45  2  0  0  0
 43146  1  0  0  0
 44 45  1  0  0  0
 44147  1  0  0  0
 45 46  1  0  0  0
 46148  1  0  0  0
 47 48  1  0  0  0
 47 53  1  0  0  0
 48 49  1  0  0  0
 48 51  1  0  0  0
 48149  1  0  0  0
 49 50  2  0  0  0
 49 54  1  0  0  0
 51 52  1  0  0  0
 51150  1  0  0  0
 51151  1  0  0  0
 52 53  1  0  0  0
 52152  1  0  0  0
 52153  1  0  0  0
 53154  1  0  0  0
 53155  1  0  0  0
 54 55  1  0  0  0
 54156  1  0  0  0
 55 56  1  0  0  0
 55 58  1  0  0  0
 55157  1  0  0  0
 56 57  2  0  0  0
 56 63  1  0  0  0
 58 59  1  0  0  0
 58158  1  0  0  0
 58159  1  0  0  0
 59 60  1  0  0  0
 59160  1  0  0  0
 59161  1  0  0  0
 60 61  1  0  0  0
 60162  1  0  0  0
 60163  1  0  0  0
 61 62  1  0  0  0
 61164  1  0  0  0
 61165  1  0  0  0
 62166  1  0  0  0
 62167  1  0  0  0
 62168  1  0  0  0
 63 64  1  0  0  0
 63169  1  0  0  0
 64 65  1  0  0  0
 64 67  1  0  0  0
 64170  1  0  0  0
 65 66  2  0  0  0
 65 68  1  0  0  0
 67171  1  0  0  0
 67172  1  0  0  0
 67173  1  0  0  0
 68 69  1  0  0  0
 68174  1  0  0  0
 69 70  1  0  0  0
 69 72  1  0  0  0
 69175  1  0  0  0
 70 71  2  0  0  0
 70 73  1  0  0  0
 72176  1  0  0  0
 72177  1  0  0  0
 72178  1  0  0  0
 73 74  1  0  0  0
 73179  1  0  0  0
 74 75  1  0  0  0
 74 77  1  0  0  0
 74180  1  0  0  0
 75 76  2  0  0  0
 75 80  1  0  0  0
 77 78  1  0  0  0
 77 79  1  0  0  0
 77181  1  0  0  0
 78182  1  0  0  0
 79183  1  0  0  0
 79184  1  0  0  0
 79185  1  0  0  0
 80 81  1  0  0  0
 80186  1  0  0  0
 81 82  1  0  0  0
 81 84  1  0  0  0
 81187  1  0  0  0
 82 83  2  0  0  0
 82 89  1  0  0  0
 84 85  1  0  0  0
 84188  1  0  0  0
 84189  1  0  0  0
 85 86  1  0  0  0
 85190  1  0  0  0
 85191  1  0  0  0
 86 87  1  0  0  0
 86192  1  0  0  0
 86193  1  0  0  0
 87 88  1  0  0  0
 87194  1  0  0  0
 87195  1  0  0  0
 88196  1  0  0  0
 88197  1  0  0  0
 88198  1  0  0  0
 89 90  1  0  0  0
 89199  1  0  0  0
 90 91  1  0  0  0
 90 93  1  0  0  0
 90200  1  0  0  0
 91 92  1  0  0  0
 91100  2  0  0  0
 92201  1  0  0  0
 93 94  1  0  0  0
 93202  1  0  0  0
 93203  1  0  0  0
 94 95  2  0  0  0
 94 96  1  0  0  0
 95 97  1  0  0  0
 95204  1  0  0  0
 96 98  2  0  0  0
 96205  1  0  0  0
 97 99  2  0  0  0
 97206  1  0  0  0
 98 99  1  0  0  0
 98207  1  0  0  0
 99208  1  0  0  0
M  CHG  3   1   1  62   1  88   1
M  END
> <s_m_source_file>
../1r5v_ligand.sdf

> <i_m_source_file_index>
1

> <s_epik_input>
W05IMytdW0NAQEhdKFtDSDNdKUMoPU8pW05IXVtDQEBIXShbQ0gyXUMoPU8pW09IXSlDKD1PKVtOSF1bQ0BASF0oW0NIMl1bQ0hdKFtDSDNdKVtDSDNdKUMoPU8pW05IXVtDQEBIXShbQ0BASF0oW0NIM10pW0NIMl1bQ0gzXSlDKD1PKVtOSF1bQ0BASF0oW0NIM10pQyg9TylbTkhdW0NAQEhdKFtDSDJdYzFbY0hdW2NIXWMoW09IXSlbY0hdW2NIXTEpQyg9TylOMltDQEBIXShbQ0gyXVtDSDJdW0NIMl0yKUMoPU8pW05IXVtDQEBIXShbQ0gyXVtDSDJdW0NIMl1bQ0gyXVtOSDMrXSlDKD1PKVtOSF1bQ0BASF0oW0NIM10pQyg9TylbTkhdW0NAQEhdKFtDSDNdKUMoPU8pW05IXVtDQEBIXShbQ0BIXShbT0hdKVtDSDNdKUMoPU8pW05IXVtDQEBIXShbQ0gyXVtDSDJdW0NIMl1bQ0gyXVtOSDMrXSlDKD1PKVtOSF1bQ0BIXShDKD1PKVtPSF0pW0NIMl1jM1tjSF1bY0hdW2NIXVtjSF1bY0hdMw==

> <s_epik_cmdline>
J2VwaWtfYXBwJywgJy1pbWFlJywgJ2xpZ2FuZF9wcm8ubWFlJywgJy1vbWFlJywgJ2xpZ2FuZF9wcmVwLm1hZScsICctbXMnLCAnMScsICctcGgnLCAnNycsICctcGh0JywgJzAuNScsICctbnQn

> <s_epik_pKa_notes>
Molecule size exceeds maximum supported for generating protonation states

$$$$
