1r5w_ligand
                    3D
 Schrodinger Suite 2020-3.
214216  0  0  1  0            999 V2000
    2.0200   46.2630   -4.4430 N   0  3  0  0  0  0
    2.9180   45.0860   -4.6450 C   0  0  2  0  0  0
    3.9880   45.0770   -3.5580 C   0  0  0  0  0  0
    5.1100   44.6120   -3.7830 O   0  0  0  0  0  0
    3.5770   45.1590   -6.0380 C   0  0  0  0  0  0
    3.6310   45.5700   -2.3730 N   0  0  0  0  0  0
    4.5890   45.6650   -1.2740 C   0  0  2  0  0  0
    5.3330   44.3830   -0.9020 C   0  0  0  0  0  0
    4.8730   43.2660   -1.1420 O   0  0  0  0  0  0
    3.9220   46.2780   -0.0290 C   0  0  0  0  0  0
    4.7980   47.3490    0.6390 C   0  0  0  0  0  0
    5.5780   47.0160    1.5630 O   0  0  0  0  0  0
    4.7180   48.5270    0.2200 O   0  0  0  0  0  0
    6.5060   44.5870   -0.3160 N   0  0  0  0  0  0
    7.3980   43.5240    0.1140 C   0  0  2  0  0  0
    6.7800   42.4790    1.0520 C   0  0  0  0  0  0
    5.8820   42.7600    1.8460 O   0  0  0  0  0  0
    8.6440   44.1610    0.7570 C   0  0  0  0  0  0
    9.7910   43.3530    1.3800 C   0  0  0  0  0  0
    9.3390   42.7850    2.7110 C   0  0  0  0  0  0
   10.2510   42.2540    0.4350 C   0  0  0  0  0  0
    7.2980   41.2660    0.9320 N   0  0  0  0  0  0
    6.8830   40.1150    1.7150 C   0  0  2  0  0  0
    7.9190   39.9360    2.8380 C   0  0  0  0  0  0
    9.0290   39.4570    2.5900 O   0  0  0  0  0  0
    6.8440   38.8540    0.7870 C   0  0  2  0  0  0
    5.4800   38.7380    0.0940 C   0  0  0  0  0  0
    7.1570   37.5940    1.5730 C   0  0  0  0  0  0
    5.1220   39.8760   -0.8060 C   0  0  0  0  0  0
    7.5710   40.3270    4.0650 N   0  0  0  0  0  0
    8.5070   40.2090    5.1880 C   0  0  2  0  0  0
    8.7150   38.7680    5.6270 C   0  0  0  0  0  0
    7.8030   37.9460    5.5490 O   0  0  0  0  0  0
    8.0280   41.0460    6.3640 C   0  0  0  0  0  0
    9.9200   38.4680    6.0950 N   0  0  0  0  0  0
   10.2200   37.1150    6.5270 C   0  0  2  0  0  0
   10.3540   36.9600    8.0410 C   0  0  0  0  0  0
    9.6890   37.6760    8.7900 O   0  0  0  0  0  0
   11.4700   36.5970    5.8030 C   0  0  0  0  0  0
   12.7930   37.2630    6.1400 C   0  0  0  0  0  0
   13.8320   36.5100    6.6920 C   0  0  0  0  0  0
   13.0350   38.6170    5.8600 C   0  0  0  0  0  0
   15.0870   37.0710    6.9570 C   0  0  0  0  0  0
   14.2990   39.1970    6.1250 C   0  0  0  0  0  0
   15.3270   38.4080    6.6780 C   0  0  0  0  0  0
   16.5960   38.9150    6.9680 O   0  0  0  0  0  0
   11.1810   36.0150    8.4930 N   0  0  0  0  0  0
   11.3790   35.7640    9.9300 C   0  0  2  0  0  0
   12.8560   35.6610   10.2360 C   0  0  0  0  0  0
   13.4860   34.6850    9.8380 O   0  0  0  0  0  0
   10.7320   34.4350   10.3420 C   0  0  0  0  0  0
    9.2290   34.4820   10.4580 C   0  0  0  0  0  0
    8.4570   35.2620    9.5900 C   0  0  0  0  0  0
    8.5770   33.7040   11.4060 C   0  0  0  0  0  0
    7.0640   35.2640    9.6610 C   0  0  0  0  0  0
    7.1760   33.7010   11.4820 C   0  0  0  0  0  0
    6.4200   34.4890   10.6000 C   0  0  0  0  0  0
   13.4190   36.6290   10.9520 N   0  0  0  0  0  0
   14.8540   36.5470   11.2360 C   0  0  2  0  0  0
   15.1820   35.3240   12.0670 C   0  0  0  0  0  0
   14.8380   35.2590   13.2410 O   0  0  0  0  0  0
   15.3620   37.7990   11.9610 C   0  0  0  0  0  0
   15.9780   38.8620   11.0520 C   0  0  0  0  0  0
   16.4440   40.0530   11.8650 C   0  0  0  0  0  0
   15.2830   40.6940   12.6360 C   0  0  0  0  0  0
   15.7040   41.6150   13.7500 N   0  3  0  0  0  0
   15.8540   34.3550   11.4580 N   0  0  0  0  0  0
   16.2210   33.1360   12.1690 C   0  0  2  0  0  0
   16.9570   33.4700   13.4640 C   0  0  0  0  0  0
   17.0270   34.6250   13.8750 O   0  0  0  0  0  0
   17.0880   32.2420   11.2780 C   0  0  0  0  0  0
   17.5050   32.4540   14.1120 N   0  0  0  0  0  0
   18.2150   32.6760   15.3580 C   0  0  2  0  0  0
   19.4540   31.8190   15.4120 C   0  0  0  0  0  0
   19.5350   30.7810   14.7440 O   0  0  0  0  0  0
   17.3120   32.3600   16.5400 C   0  0  0  0  0  0
   20.4160   32.2630   16.2160 N   0  0  0  0  0  0
   21.6630   31.5360   16.3640 C   0  0  2  0  0  0
   21.5980   30.6430   17.5820 C   0  0  0  0  0  0
   21.3360   31.0960   18.6990 O   0  0  0  0  0  0
   22.8710   32.4740   16.5080 C   0  0  2  0  0  0
   22.9050   33.3970   15.4080 O   0  0  0  0  0  0
   24.1600   31.6520   16.5160 C   0  0  0  0  0  0
   21.8380   29.3610   17.3390 N   0  0  0  0  0  0
   21.8030   28.3460   18.3770 C   0  0  2  0  0  0
   23.2110   28.1690   18.8960 C   0  0  0  0  0  0
   24.0290   27.5010   18.2710 O   0  0  0  0  0  0
   21.2650   27.0270   17.7950 C   0  0  0  0  0  0
   19.9970   27.2230   16.9350 C   0  0  0  0  0  0
   19.1500   25.9580   16.7500 C   0  0  0  0  0  0
   17.8550   26.2880   15.9970 C   0  0  0  0  0  0
   16.8470   25.1990   16.0710 N   0  3  0  0  0  0
   23.4930   28.7860   20.0360 N   0  0  0  0  0  0
   24.8190   28.6940   20.6200 C   0  0  2  0  0  0
   25.0660   27.2860   21.1410 C   0  0  0  0  0  0
   24.0720   26.5420   21.2840 O   0  0  0  0  0  0
   24.9670   29.7100   21.7570 C   0  0  0  0  0  0
   24.7090   31.1320   21.3380 C   0  0  0  0  0  0
   23.3950   31.6000   21.1720 C   0  0  0  0  0  0
   25.7790   32.0030   21.0840 C   0  0  0  0  0  0
   23.1390   32.9310   20.7550 C   0  0  0  0  0  0
   25.5450   33.3330   20.6660 C   0  0  0  0  0  0
   24.2160   33.8010   20.5010 C   0  0  0  0  0  0
   26.2430   26.9510   21.4000 O   0  0  0  0  0  0
    1.5548   46.2027   -3.4480 H   0  0  0  0  0  0
    1.2363   46.2630   -5.2149 H   0  0  0  0  0  0
    2.6079   47.1897   -4.5174 H   0  0  0  0  0  0
    2.3074   44.1742   -4.5686 H   0  0  0  0  0  0
    2.7964   45.1649   -6.8130 H   0  0  0  0  0  0
    4.2294   44.2850   -6.1812 H   0  0  0  0  0  0
    4.1751   46.0792   -6.1129 H   0  0  0  0  0  0
    2.5943   45.9088   -2.2298 H   0  0  0  0  0  0
    5.3485   46.3236   -1.7206 H   0  0  0  0  0  0
    2.9708   46.7493   -0.3172 H   0  0  0  0  0  0
    3.7299   45.4871    0.7110 H   0  0  0  0  0  0
    6.2102   47.7737    2.0490 H   0  0  0  0  0  0
    6.7891   45.6387   -0.1617 H   0  0  0  0  0  0
    7.6131   42.9904   -0.8236 H   0  0  0  0  0  0
    9.1742   44.7669    0.0075 H   0  0  0  0  0  0
    8.3363   44.8024    1.5960 H   0  0  0  0  0  0
   10.6574   44.0064    1.5603 H   0  0  0  0  0  0
    9.0139   43.6050    3.3682 H   0  0  0  0  0  0
   10.1743   42.2464    3.1824 H   0  0  0  0  0  0
    8.5009   42.0915    2.5480 H   0  0  0  0  0  0
   10.5710   42.7002   -0.5181 H   0  0  0  0  0  0
    9.4207   41.5560    0.2526 H   0  0  0  0  0  0
   11.0940   41.7109    0.8870 H   0  0  0  0  0  0
    8.0932   41.1613    0.1792 H   0  0  0  0  0  0
    5.8852   40.3192    2.1305 H   0  0  0  0  0  0
    7.6159   38.9417    0.0082 H   0  0  0  0  0  0
    5.4605   37.8306   -0.5274 H   0  0  0  0  0  0
    4.6866   38.6793    0.8536 H   0  0  0  0  0  0
    8.1375   37.6999    2.0602 H   0  0  0  0  0  0
    7.1779   36.7317    0.8903 H   0  0  0  0  0  0
    6.3824   37.4372    2.3381 H   0  0  0  0  0  0
    4.1318   39.6951   -1.2497 H   0  0  0  0  0  0
    5.8723   39.9609   -1.6059 H   0  0  0  0  0  0
    5.0984   40.8097   -0.2249 H   0  0  0  0  0  0
    6.5658   40.7428    4.2282 H   0  0  0  0  0  0
    9.4614   40.5933    4.7989 H   0  0  0  0  0  0
    7.8802   42.0861    6.0377 H   0  0  0  0  0  0
    8.7807   41.0166    7.1657 H   0  0  0  0  0  0
    7.0767   40.6407    6.7391 H   0  0  0  0  0  0
   10.6927   39.2486    6.1550 H   0  0  0  0  0  0
    9.3226   36.5521    6.2306 H   0  0  0  0  0  0
   11.6111   35.5305    6.0325 H   0  0  0  0  0  0
   11.3446   36.7251    4.7177 H   0  0  0  0  0  0
   13.6612   35.4584    6.9224 H   0  0  0  0  0  0
   12.2403   39.2291    5.4335 H   0  0  0  0  0  0
   15.8782   36.4548    7.3841 H   0  0  0  0  0  0
   14.4761   40.2492    5.9022 H   0  0  0  0  0  0
   17.3654   38.2579    7.3995 H   0  0  0  0  0  0
   11.7245   35.4134    7.7496 H   0  0  0  0  0  0
   10.9217   36.6185   10.4502 H   0  0  0  0  0  0
   10.9717   33.6635    9.5954 H   0  0  0  0  0  0
   11.1196   34.1275   11.3244 H   0  0  0  0  0  0
    8.9544   35.8807    8.8431 H   0  0  0  0  0  0
    9.1577   33.0915   12.0957 H   0  0  0  0  0  0
    6.4846   35.8794    8.9728 H   0  0  0  0  0  0
    6.6734   33.0852   12.2278 H   0  0  0  0  0  0
    5.3315   34.4876   10.6578 H   0  0  0  0  0  0
   12.8314   37.4790   11.3292 H   0  0  0  0  0  0
   15.3212   36.4604   10.2439 H   0  0  0  0  0  0
   14.5265   38.2806   12.4901 H   0  0  0  0  0  0
   16.1389   37.5133   12.6855 H   0  0  0  0  0  0
   16.8404   38.4342   10.5197 H   0  0  0  0  0  0
   15.2275   39.2000   10.3222 H   0  0  0  0  0  0
   17.2057   39.7275   12.5887 H   0  0  0  0  0  0
   16.8761   40.8092   11.1931 H   0  0  0  0  0  0
   14.6683   41.2894   11.9449 H   0  0  0  0  0  0
   14.6648   39.9056   13.0902 H   0  0  0  0  0  0
   14.8108   42.0257   14.2435 H   0  0  0  0  0  0
   16.3061   42.4380   13.3375 H   0  0  0  0  0  0
   16.3027   41.0542   14.4829 H   0  0  0  0  0  0
   16.1342   34.4812   10.4018 H   0  0  0  0  0  0
   15.2729   32.6305   12.4045 H   0  0  0  0  0  0
   16.5439   32.0109   10.3503 H   0  0  0  0  0  0
   17.3189   31.3074   11.8102 H   0  0  0  0  0  0
   18.0240   32.7655   11.0334 H   0  0  0  0  0  0
   17.4199   31.4372   13.7011 H   0  0  0  0  0  0
   18.4998   33.7385   15.3656 H   0  0  0  0  0  0
   16.4114   32.9897   16.4920 H   0  0  0  0  0  0
   17.8510   32.5618   17.4774 H   0  0  0  0  0  0
   17.0205   31.2999   16.5056 H   0  0  0  0  0  0
   20.2545   33.1973   16.7736 H   0  0  0  0  0  0
   21.7423   30.9473   15.4382 H   0  0  0  0  0  0
   22.7865   33.0890   17.4161 H   0  0  0  0  0  0
   22.0594   34.0793   15.2362 H   0  0  0  0  0  0
   24.1379   30.9436   17.3573 H   0  0  0  0  0  0
   25.0233   32.3249   16.6258 H   0  0  0  0  0  0
   24.2462   31.0961   15.5707 H   0  0  0  0  0  0
   22.0708   29.0789   16.3016 H   0  0  0  0  0  0
   21.1412   28.6978   19.1822 H   0  0  0  0  0  0
   22.0344   26.5666   17.1577 H   0  0  0  0  0  0
   21.0103   26.3408   18.6161 H   0  0  0  0  0  0
   19.3476   27.9759   17.4056 H   0  0  0  0  0  0
   20.2849   27.5641   15.9296 H   0  0  0  0  0  0
   19.7210   25.2156   16.1731 H   0  0  0  0  0  0
   18.8953   25.5399   17.7351 H   0  0  0  0  0  0
   17.4013   27.1931   16.4271 H   0  0  0  0  0  0
   18.0824   26.4612   14.9348 H   0  0  0  0  0  0
   15.9457   25.4952   15.5143 H   0  0  0  0  0  0
   16.5839   25.0138   17.1229 H   0  0  0  0  0  0
   17.2651   24.2818   15.6306 H   0  0  0  0  0  0
   22.7098   29.3719   20.5393 H   0  0  0  0  0  0
   25.5240   28.9212   19.8067 H   0  0  0  0  0  0
   24.2519   29.4707   22.5579 H   0  0  0  0  0  0
   25.9914   29.6678   22.1555 H   0  0  0  0  0  0
   22.5584   30.9291   21.3669 H   0  0  0  0  0  0
   26.8025   31.6502   21.2104 H   0  0  0  0  0  0
   22.1133   33.2786   20.6318 H   0  0  0  0  0  0
   26.3856   33.9988   20.4705 H   0  0  0  0  0  0
   24.0304   34.8260   20.1801 H   0  0  0  0  0  0
   26.4566   25.9404   21.7783 H   0  0  0  0  0  0
  1  2  1  0  0  0
  1105  1  0  0  0
  1106  1  0  0  0
  1107  1  0  0  0
  2  3  1  0  0  0
  2  5  1  0  0  0
  2108  1  0  0  0
  3  4  2  0  0  0
  3  6  1  0  0  0
  5109  1  0  0  0
  5110  1  0  0  0
  5111  1  0  0  0
  6  7  1  0  0  0
  6112  1  0  0  0
  7  8  1  0  0  0
  7 10  1  0  0  0
  7113  1  0  0  0
  8  9  2  0  0  0
  8 14  1  0  0  0
 10 11  1  0  0  0
 10114  1  0  0  0
 10115  1  0  0  0
 11 12  1  0  0  0
 11 13  2  0  0  0
 12116  1  0  0  0
 14 15  1  0  0  0
 14117  1  0  0  0
 15 16  1  0  0  0
 15 18  1  0  0  0
 15118  1  0  0  0
 16 17  2  0  0  0
 16 22  1  0  0  0
 18 19  1  0  0  0
 18119  1  0  0  0
 18120  1  0  0  0
 19 20  1  0  0  0
 19 21  1  0  0  0
 19121  1  0  0  0
 20122  1  0  0  0
 20123  1  0  0  0
 20124  1  0  0  0
 21125  1  0  0  0
 21126  1  0  0  0
 21127  1  0  0  0
 22 23  1  0  0  0
 22128  1  0  0  0
 23 24  1  0  0  0
 23 26  1  0  0  0
 23129  1  0  0  0
 24 25  2  0  0  0
 24 30  1  0  0  0
 26 27  1  0  0  0
 26 28  1  0  0  0
 26130  1  0  0  0
 27 29  1  0  0  0
 27131  1  0  0  0
 27132  1  0  0  0
 28133  1  0  0  0
 28134  1  0  0  0
 28135  1  0  0  0
 29136  1  0  0  0
 29137  1  0  0  0
 29138  1  0  0  0
 30 31  1  0  0  0
 30139  1  0  0  0
 31 32  1  0  0  0
 31 34  1  0  0  0
 31140  1  0  0  0
 32 33  2  0  0  0
 32 35  1  0  0  0
 34141  1  0  0  0
 34142  1  0  0  0
 34143  1  0  0  0
 35 36  1  0  0  0
 35144  1  0  0  0
 36 37  1  0  0  0
 36 39  1  0  0  0
 36145  1  0  0  0
 37 38  2  0  0  0
 37 47  1  0  0  0
 39 40  1  0  0  0
 39146  1  0  0  0
 39147  1  0  0  0
 40 41  2  0  0  0
 40 42  1  0  0  0
 41 43  1  0  0  0
 41148  1  0  0  0
 42 44  2  0  0  0
 42149  1  0  0  0
 43 45  2  0  0  0
 43150  1  0  0  0
 44 45  1  0  0  0
 44151  1  0  0  0
 45 46  1  0  0  0
 46152  1  0  0  0
 47 48  1  0  0  0
 47153  1  0  0  0
 48 49  1  0  0  0
 48 51  1  0  0  0
 48154  1  0  0  0
 49 50  2  0  0  0
 49 58  1  0  0  0
 51 52  1  0  0  0
 51155  1  0  0  0
 51156  1  0  0  0
 52 53  2  0  0  0
 52 54  1  0  0  0
 53 55  1  0  0  0
 53157  1  0  0  0
 54 56  2  0  0  0
 54158  1  0  0  0
 55 57  2  0  0  0
 55159  1  0  0  0
 56 57  1  0  0  0
 56160  1  0  0  0
 57161  1  0  0  0
 58 59  1  0  0  0
 58162  1  0  0  0
 59 60  1  0  0  0
 59 62  1  0  0  0
 59163  1  0  0  0
 60 61  2  0  0  0
 60 67  1  0  0  0
 62 63  1  0  0  0
 62164  1  0  0  0
 62165  1  0  0  0
 63 64  1  0  0  0
 63166  1  0  0  0
 63167  1  0  0  0
 64 65  1  0  0  0
 64168  1  0  0  0
 64169  1  0  0  0
 65 66  1  0  0  0
 65170  1  0  0  0
 65171  1  0  0  0
 66172  1  0  0  0
 66173  1  0  0  0
 66174  1  0  0  0
 67 68  1  0  0  0
 67175  1  0  0  0
 68 69  1  0  0  0
 68 71  1  0  0  0
 68176  1  0  0  0
 69 70  2  0  0  0
 69 72  1  0  0  0
 71177  1  0  0  0
 71178  1  0  0  0
 71179  1  0  0  0
 72 73  1  0  0  0
 72180  1  0  0  0
 73 74  1  0  0  0
 73 76  1  0  0  0
 73181  1  0  0  0
 74 75  2  0  0  0
 74 77  1  0  0  0
 76182  1  0  0  0
 76183  1  0  0  0
 76184  1  0  0  0
 77 78  1  0  0  0
 77185  1  0  0  0
 78 79  1  0  0  0
 78 81  1  0  0  0
 78186  1  0  0  0
 79 80  2  0  0  0
 79 84  1  0  0  0
 81 82  1  0  0  0
 81 83  1  0  0  0
 81187  1  0  0  0
 82188  1  0  0  0
 83189  1  0  0  0
 83190  1  0  0  0
 83191  1  0  0  0
 84 85  1  0  0  0
 84192  1  0  0  0
 85 86  1  0  0  0
 85 88  1  0  0  0
 85193  1  0  0  0
 86 87  2  0  0  0
 86 93  1  0  0  0
 88 89  1  0  0  0
 88194  1  0  0  0
 88195  1  0  0  0
 89 90  1  0  0  0
 89196  1  0  0  0
 89197  1  0  0  0
 90 91  1  0  0  0
 90198  1  0  0  0
 90199  1  0  0  0
 91 92  1  0  0  0
 91200  1  0  0  0
 91201  1  0  0  0
 92202  1  0  0  0
 92203  1  0  0  0
 92204  1  0  0  0
 93 94  1  0  0  0
 93205  1  0  0  0
 94 95  1  0  0  0
 94 97  1  0  0  0
 94206  1  0  0  0
 95 96  2  0  0  0
 95104  1  0  0  0
 97 98  1  0  0  0
 97207  1  0  0  0
 97208  1  0  0  0
 98 99  2  0  0  0
 98100  1  0  0  0
 99101  1  0  0  0
 99209  1  0  0  0
100102  2  0  0  0
100210  1  0  0  0
101103  2  0  0  0
101211  1  0  0  0
102103  1  0  0  0
102212  1  0  0  0
103213  1  0  0  0
104214  1  0  0  0
M  CHG  3   1   1  66   1  92   1
M  END
> <s_m_source_file>
../1r5w_ligand.sdf

> <i_m_source_file_index>
1

> <s_epik_input>
W05IMytdW0NAQEhdKFtDSDNdKUMoPU8pW05IXVtDQEBIXShbQ0gyXUMoPU8pW09IXSlDKD1PKVtOSF1bQ0BASF0oW0NIMl1bQ0hdKFtDSDNdKVtDSDNdKUMoPU8pW05IXVtDQEBIXShbQ0BASF0oW0NIM10pW0NIMl1bQ0gzXSlDKD1PKVtOSF1bQ0BASF0oW0NIM10pQyg9TylbTkhdW0NAQEhdKFtDSDJdYzFbY0hdW2NIXWMoW09IXSlbY0hdW2NIXTEpQyg9TylbTkhdW0NAQEhdKFtDSDJdYzJbY0hdW2NIXVtjSF1bY0hdW2NIXTIpQyg9TylbTkhdW0NAQEhdKFtDSDJdW0NIMl1bQ0gyXVtDSDJdW05IMytdKUMoPU8pW05IXVtDQEBIXShbQ0gzXSlDKD1PKVtOSF1bQ0BASF0oW0NIM10pQyg9TylbTkhdW0NAQEhdKFtDQEhdKFtPSF0pW0NIM10pQyg9TylbTkhdW0NAQEhdKFtDSDJdW0NIMl1bQ0gyXVtDSDJdW05IMytdKUMoPU8pW05IXVtDQEhdKEMoPU8pW09IXSlbQ0gyXWMzW2NIXVtjSF1bY0hdW2NIXVtjSF0z

> <s_epik_cmdline>
J2VwaWtfYXBwJywgJy1pbWFlJywgJ2xpZ2FuZF9wcm8ubWFlJywgJy1vbWFlJywgJ2xpZ2FuZF9wcmVwLm1hZScsICctbXMnLCAnMScsICctcGgnLCAnNycsICctcGh0JywgJzAuNScsICctbnQn

> <s_epik_pKa_notes>
Molecule size exceeds maximum supported for generating protonation states

$$$$
