1r6z_ligand
                    3D
 Schrodinger Suite 2020-3.
 45 46  0  0  1  0            999 V2000
   36.0640   92.3140   -1.2490 C   0  0  1  0  0  0
   37.2190   91.3780   -1.7100 C   0  0  1  0  0  0
   38.1590   92.1320   -2.6160 C   0  0  2  0  0  0
   37.3180   92.6800   -3.8230 C   0  0  1  0  0  0
   36.2220   93.5850   -3.3130 C   0  0  1  0  0  0
   35.3160   94.0360   -4.4130 C   0  0  0  0  0  0
   36.7270   93.3000   -0.4780 O   0  0  0  0  0  0
   37.9260   90.8320   -0.5660 O   0  0  0  0  0  0
   39.2090   91.2740   -3.0960 O   0  0  0  0  0  0
   38.1260   93.4220   -4.7380 O   0  0  0  0  0  0
   35.4150   92.8430   -2.3560 O   0  0  0  0  0  0
   34.3920   95.1080   -3.9320 O   0  0  0  0  0  0
   35.8060   95.3850    3.0780 C   0  0  1  0  0  0
   35.9080   93.8700    3.1300 C   0  0  1  0  0  0
   36.6880   93.3540    1.9390 C   0  0  2  0  0  0
   35.9970   93.7830    0.6740 C   0  0  1  0  0  0
   36.0880   95.3540    0.5960 C   0  0  1  0  0  0
   35.3660   95.9130   -0.6410 C   0  0  0  0  0  0
   36.9860   95.9440    3.3780 O   0  0  0  0  0  0
   36.5790   93.4840    4.2990 O   0  0  0  0  0  0
   36.6780   91.9290    2.0570 O   0  0  0  0  0  0
   35.5680   95.9150    1.8190 O   0  0  0  0  0  0
   35.5780   97.3190   -0.5240 O   0  0  0  0  0  0
   35.2228   91.8974   -0.6755 H   0  0  0  0  0  0
   36.8400   90.4968   -2.2484 H   0  0  0  0  0  0
   38.6919   92.9077   -2.0466 H   0  0  0  0  0  0
   36.9038   91.8568   -4.4237 H   0  0  0  0  0  0
   36.6757   94.4645   -2.8328 H   0  0  0  0  0  0
   35.9176   94.4325   -5.2442 H   0  0  0  0  0  0
   34.7173   93.1840   -4.7675 H   0  0  0  0  0  0
   37.3798   90.2523    0.1927 H   0  0  0  0  0  0
   39.9000   90.7992   -2.3839 H   0  0  0  0  0  0
   38.9865   92.9415   -5.2264 H   0  0  0  0  0  0
   33.6576   95.5510   -4.6208 H   0  0  0  0  0  0
   35.0124   95.7088    3.7675 H   0  0  0  0  0  0
   34.9078   93.4155    3.1849 H   0  0  0  0  0  0
   37.7340   93.6930    1.9079 H   0  0  0  0  0  0
   34.9888   93.3436    0.6507 H   0  0  0  0  0  0
   37.1289   95.7062    0.5460 H   0  0  0  0  0  0
   35.8171   95.4905   -1.5509 H   0  0  0  0  0  0
   34.3013   95.6398   -0.5988 H   0  0  0  0  0  0
   37.4703   95.7232    4.3406 H   0  0  0  0  0  0
   36.1736   93.7618    5.2831 H   0  0  0  0  0  0
   37.1440   91.4460    2.9285 H   0  0  0  0  0  0
   35.1686   98.0020   -1.2829 H   0  0  0  0  0  0
  1  2  1  0  0  0
  1  7  1  0  0  0
  1 11  1  0  0  0
  1 24  1  0  0  0
  2  3  1  0  0  0
  2  8  1  0  0  0
  2 25  1  0  0  0
  3  4  1  0  0  0
  3  9  1  0  0  0
  3 26  1  0  0  0
  4  5  1  0  0  0
  4 10  1  0  0  0
  4 27  1  0  0  0
  5  6  1  0  0  0
  5 11  1  0  0  0
  5 28  1  0  0  0
  6 12  1  0  0  0
  6 29  1  0  0  0
  6 30  1  0  0  0
  7 16  1  0  0  0
  8 31  1  0  0  0
  9 32  1  0  0  0
 10 33  1  0  0  0
 12 34  1  0  0  0
 13 14  1  0  0  0
 13 19  1  0  0  0
 13 22  1  0  0  0
 13 35  1  0  0  0
 14 15  1  0  0  0
 14 20  1  0  0  0
 14 36  1  0  0  0
 15 16  1  0  0  0
 15 21  1  0  0  0
 15 37  1  0  0  0
 16 17  1  0  0  0
 16 38  1  0  0  0
 17 18  1  0  0  0
 17 22  1  0  0  0
 17 39  1  0  0  0
 18 23  1  0  0  0
 18 40  1  0  0  0
 18 41  1  0  0  0
 19 42  1  0  0  0
 20 43  1  0  0  0
 21 44  1  0  0  0
 23 45  1  0  0  0
M  END
> <s_m_source_file>
../1r6z_ligand.sdf

> <i_m_source_file_index>
1

> <s_epik_input>
W09IXVtDQEBIXTFbQ0BIXShbT0hdKVtDQEBIXShbT0hdKVtDQEBIXShbQ0BIXShPMSlbQ0gyXVtPSF0pT1tDQEBIXTJbQ0BIXShbT0hdKVtDQEBIXShbT0hdKVtDQEhdKFtPSF0pW0NASF0oTzIpW0NIMl1bT0hd

> <s_epik_cmdline>
J2VwaWtfYXBwJywgJy1pbWFlJywgJ2xpZ2FuZF9wcm8ubWFlJywgJy1vbWFlJywgJ2xpZ2FuZF9wcmVwLm1hZScsICctbXMnLCAnMScsICctcGgnLCAnNycsICctcGh0JywgJzAuNScsICctbnQn

> <r_lp_tautomer_probability>
1

> <r_epik_Ionization_Penalty>
  0.0000

> <r_epik_Ionization_Penalty_Charging>
  0.0000

> <r_epik_Ionization_Penalty_Neutral>
  0.0000

> <r_epik_State_Penalty>
 -0.0000

> <r_epik_Charging_Adjusted_Penalty>
0

> <i_epik_Tot_Q>
0

> <i_epik_Tot_abs_Q>
0

> <s_epik_Chemistry_Notes>
This compound contains an acetal/aminal-like group ( X-CH(R)-Y where X, Y are N, S, or O) that may be acid/base labile, releasing an aldehyde.

$$$$
