1r78_ligand
                    3D
 Schrodinger Suite 2020-3.
 48 50  0  0  1  0            999 V2000
   16.8200   -6.2940   12.7790 F   0  0  0  0  0  0
   16.0240   -7.2080   13.3630 C   0  0  0  0  0  0
   14.8770   -7.6070   12.6580 C   0  0  0  0  0  0
   14.5880   -7.0390   11.4020 C   0  0  0  0  0  0
   14.3260   -6.5710   10.3330 C   0  0  0  0  0  0
   13.9630   -6.0270    9.0860 C   0  0  1  0  0  0
   14.1610   -4.6110    9.1400 O   0  0  0  0  0  0
   14.6030   -6.7310    7.8620 C   0  0  1  0  0  0
   15.0060   -8.1160    8.1400 N   0  3  0  0  0  0
   13.5260   -6.7260    6.7610 C   0  0  2  0  0  0
   14.0860   -6.7570    5.4410 O   0  0  0  0  0  0
   12.5500   -5.5320    6.8670 C   0  0  0  0  0  0
   14.0350   -8.6160   13.3210 C   0  0  0  0  0  0
   14.4160   -9.1250   14.6010 C   0  0  0  0  0  0
   13.4400  -10.0330   14.9620 N   0  0  0  0  0  0
   12.4300  -10.2030   13.9990 C   0  0  0  0  0  0
   11.4920  -10.9640   14.1290 O   0  0  0  0  0  0
   15.5580   -8.6850   15.2550 C   0  0  0  0  0  0
   16.3660   -7.7200   14.6230 C   0  0  0  0  0  0
   12.8870   -9.2350   12.9440 C   0  0  0  0  0  0
   12.1510   -9.0080   11.6890 C   0  0  0  0  0  0
   10.8900   -9.5210   11.1570 C   0  0  0  0  0  0
   10.2570   -9.2220    9.9660 C   0  0  0  0  0  0
   10.7020   -8.3290    9.0100 O   0  0  0  0  0  0
   10.2500   -8.4690    7.6530 C   0  0  0  0  0  0
    9.0360  -10.0210    9.9770 C   0  0  0  0  0  0
    9.0230  -10.7450   11.1260 C   0  0  0  0  0  0
   10.1410  -10.4580   11.8400 N   0  0  0  0  0  0
   12.8758   -6.1791    9.0163 H   0  0  0  0  0  0
   13.7419   -4.0284    9.9737 H   0  0  0  0  0  0
   15.5470   -6.2453    7.5739 H   0  0  0  0  0  0
   15.7754   -8.1232    8.9262 H   0  0  0  0  0  0
   15.4129   -8.5702    7.2245 H   0  0  0  0  0  0
   14.1315   -8.6916    8.4775 H   0  0  0  0  0  0
   12.9826   -7.6779    6.8539 H   0  0  0  0  0  0
   14.8087   -7.5402    5.1684 H   0  0  0  0  0  0
   12.1162   -5.5016    7.8774 H   0  0  0  0  0  0
   11.7456   -5.6491    6.1259 H   0  0  0  0  0  0
   13.0937   -4.5957    6.6731 H   0  0  0  0  0  0
   13.5000  -10.5484   15.9319 H   0  0  0  0  0  0
   15.8239   -9.0777   16.2364 H   0  0  0  0  0  0
   17.2694   -7.3663   15.1199 H   0  0  0  0  0  0
   12.5570   -8.3239   10.9293 H   0  0  0  0  0  0
   10.7004   -7.6797    7.0332 H   0  0  0  0  0  0
    9.1541   -8.3801    7.6206 H   0  0  0  0  0  0
   10.5495   -9.4544    7.2666 H   0  0  0  0  0  0
    8.2706  -10.0344    9.2011 H   0  0  0  0  0  0
    8.2911  -11.4673   11.5168 H   0  0  0  0  0  0
  1  2  1  0  0  0
  2  3  2  0  0  0
  2 19  1  0  0  0
  3  4  1  0  0  0
  3 13  1  0  0  0
  4  5  3  0  0  0
  5  6  1  0  0  0
  6  7  1  0  0  0
  6  8  1  0  0  0
  6 29  1  0  0  0
  7 30  1  0  0  0
  8  9  1  0  0  0
  8 10  1  0  0  0
  8 31  1  0  0  0
  9 32  1  0  0  0
  9 33  1  0  0  0
  9 34  1  0  0  0
 10 11  1  0  0  0
 10 12  1  0  0  0
 10 35  1  0  0  0
 11 36  1  0  0  0
 12 37  1  0  0  0
 12 38  1  0  0  0
 12 39  1  0  0  0
 13 14  2  0  0  0
 13 20  1  0  0  0
 14 15  1  0  0  0
 14 18  1  0  0  0
 15 16  1  0  0  0
 15 40  1  0  0  0
 16 17  2  0  0  0
 16 20  1  0  0  0
 18 19  2  0  0  0
 18 41  1  0  0  0
 19 42  1  0  0  0
 20 21  2  0  0  0
 21 22  1  0  0  0
 21 43  1  0  0  0
 22 23  2  0  0  0
 22 28  1  0  0  0
 23 24  1  0  0  0
 23 26  1  0  0  0
 24 25  1  0  0  0
 25 44  1  0  0  0
 25 45  1  0  0  0
 25 46  1  0  0  0
 26 27  1  0  0  0
 26 47  1  0  0  0
 27 28  2  0  0  0
 27 48  1  0  0  0
M  CHG  1   9   1
M  END
> <s_m_source_file>
../1r78_ligand.sdf

> <i_m_source_file_index>
1

> <s_epik_input>
W09IXVtDQEhdKFtDSDNdKVtDQEhdKFtOSDMrXSlbQ0BIXShbT0hdKUMjQ2MxYyhGKVtjSF1bY0hdYyhjMTIpW05IXUMoPU8pQ1wyPVtDSF0vQzM9QyhPW0NIM10pW0NIMl1bQ0hdPU4z

> <s_epik_cmdline>
J2VwaWtfYXBwJywgJy1pbWFlJywgJ2xpZ2FuZF9wcm8ubWFlJywgJy1vbWFlJywgJ2xpZ2FuZF9wcmVwLm1hZScsICctbXMnLCAnMScsICctcGgnLCAnNycsICctcGh0JywgJzAuNScsICctbnQn

> <r_epik_Ionization_Penalty>
  0.0482

> <r_epik_Ionization_Penalty_Charging>
  0.0482

> <r_epik_Ionization_Penalty_Neutral>
  0.0000

> <r_epik_State_Penalty>
  0.0411

> <r_epik_Charging_Adjusted_Penalty>
0.0892878028032689

> <i_epik_Tot_Q>
1

> <i_epik_Tot_abs_Q>
1

> <s_epik_Chemistry_Notes>
This compound has an imine and may undergo hydrolysis.

$$$$
