1rbp_ligand
                    3D
 Schrodinger Suite 2020-3.
 51 51  0  0  1  0            999 V2000
   29.6110   21.3730   45.3130 C   0  0  0  0  0  0
   29.3530   21.3820   43.7990 C   0  0  0  0  0  0
   30.4050   20.8400   42.9870 C   0  0  0  0  0  0
   30.6780   19.3750   43.2780 C   0  0  0  0  0  0
   30.8700   19.1360   44.7590 C   0  0  0  0  0  0
   30.3910   20.0230   45.7170 C   0  0  0  0  0  0
   30.4140   19.7480   47.1870 C   0  0  0  0  0  0
   31.5340   19.5570   47.9200 C   0  0  0  0  0  0
   31.6150   19.2890   49.3280 C   0  0  0  0  0  0
   32.8690   19.1060   49.8290 C   0  0  0  0  0  0
   33.2410   18.8890   51.2130 C   0  0  0  0  0  0
   34.5270   18.6650   51.5950 C   0  0  0  0  0  0
   34.9590   18.4900   52.9750 C   0  0  0  0  0  0
   36.2680   18.2380   53.2300 C   0  0  0  0  0  0
   36.7580   18.0420   54.5870 C   0  0  0  0  0  0
   28.2410   21.4810   46.0260 C   0  0  0  0  0  0
   30.4560   22.5970   45.6860 C   0  0  0  0  0  0
   31.7370   17.8970   45.0050 C   0  0  0  0  0  0
   30.2950   19.1560   50.1160 C   0  0  0  0  0  0
   33.8890   18.6090   54.1090 C   0  0  0  0  0  0
   38.1220   17.7880   54.8970 O   0  0  0  0  0  0
   28.4540   20.7884   43.5767 H   0  0  0  0  0  0
   29.2022   22.4172   43.4589 H   0  0  0  0  0  0
   30.1301   20.9259   41.9254 H   0  0  0  0  0  0
   31.3349   21.3979   43.1712 H   0  0  0  0  0  0
   29.8281   18.7680   42.9327 H   0  0  0  0  0  0
   31.5911   19.0605   42.7513 H   0  0  0  0  0  0
   29.4267   19.7060   47.6701 H   0  0  0  0  0  0
   32.5214   19.6004   47.4371 H   0  0  0  0  0  0
   33.7375   19.1139   49.1540 H   0  0  0  0  0  0
   32.4393   18.9102   51.9659 H   0  0  0  0  0  0
   35.3231   18.6055   50.8383 H   0  0  0  0  0  0
   36.9882   18.1775   52.4007 H   0  0  0  0  0  0
   36.5481   18.9404   55.1860 H   0  0  0  0  0  0
   36.2531   17.1748   55.0375 H   0  0  0  0  0  0
   27.6232   20.6084   45.7673 H   0  0  0  0  0  0
   27.7308   22.4003   45.7026 H   0  0  0  0  0  0
   28.3956   21.5110   47.1147 H   0  0  0  0  0  0
   31.4337   22.5338   45.1859 H   0  0  0  0  0  0
   30.6026   22.6230   46.7759 H   0  0  0  0  0  0
   29.9378   23.5122   45.3638 H   0  0  0  0  0  0
   31.9508   17.4028   44.0458 H   0  0  0  0  0  0
   31.2009   17.1996   45.6654 H   0  0  0  0  0  0
   32.6818   18.1992   45.4804 H   0  0  0  0  0  0
   29.4463   19.3615   49.4470 H   0  0  0  0  0  0
   30.2898   19.8768   50.9469 H   0  0  0  0  0  0
   30.2079   18.1349   50.5157 H   0  0  0  0  0  0
   32.9044   18.8150   53.6639 H   0  0  0  0  0  0
   34.1637   19.4300   54.7876 H   0  0  0  0  0  0
   33.8463   17.6657   54.6732 H   0  0  0  0  0  0
   38.4314   17.6483   55.9433 H   0  0  0  0  0  0
  1  2  1  0  0  0
  1  6  1  0  0  0
  1 16  1  0  0  0
  1 17  1  0  0  0
  2  3  1  0  0  0
  2 22  1  0  0  0
  2 23  1  0  0  0
  3  4  1  0  0  0
  3 24  1  0  0  0
  3 25  1  0  0  0
  4  5  1  0  0  0
  4 26  1  0  0  0
  4 27  1  0  0  0
  5  6  2  0  0  0
  5 18  1  0  0  0
  6  7  1  0  0  0
  7  8  2  0  0  0
  7 28  1  0  0  0
  8  9  1  0  0  0
  8 29  1  0  0  0
  9 10  2  0  0  0
  9 19  1  0  0  0
 10 11  1  0  0  0
 10 30  1  0  0  0
 11 12  2  0  0  0
 11 31  1  0  0  0
 12 13  1  0  0  0
 12 32  1  0  0  0
 13 14  2  0  0  0
 13 20  1  0  0  0
 14 15  1  0  0  0
 14 33  1  0  0  0
 15 21  1  0  0  0
 15 34  1  0  0  0
 15 35  1  0  0  0
 16 36  1  0  0  0
 16 37  1  0  0  0
 16 38  1  0  0  0
 17 39  1  0  0  0
 17 40  1  0  0  0
 17 41  1  0  0  0
 18 42  1  0  0  0
 18 43  1  0  0  0
 18 44  1  0  0  0
 19 45  1  0  0  0
 19 46  1  0  0  0
 19 47  1  0  0  0
 20 48  1  0  0  0
 20 49  1  0  0  0
 20 50  1  0  0  0
 21 51  1  0  0  0
M  END
> <s_m_source_file>
../1rbp_ligand.sdf

> <i_m_source_file_index>
1

> <s_epik_input>
W0NIM11DMShbQ0gzXSlbQ0gyXVtDSDJdW0NIMl1DKFtDSDNdKT1DMS9bQ0hdPVtDSF0vQyhbQ0gzXSk9W0NIXS9bQ0hdPVtDSF0vQyhbQ0gzXSk9W0NIXS9bQ0gyXVtPSF0=

> <s_epik_cmdline>
J2VwaWtfYXBwJywgJy1pbWFlJywgJ2xpZ2FuZF9wcm8ubWFlJywgJy1vbWFlJywgJ2xpZ2FuZF9wcmVwLm1hZScsICctbXMnLCAnMScsICctcGgnLCAnNycsICctcGh0JywgJzAuNScsICctbnQn

> <r_lp_tautomer_probability>
1

> <r_epik_Ionization_Penalty>
  0.0000

> <r_epik_Ionization_Penalty_Charging>
  0.0000

> <r_epik_Ionization_Penalty_Neutral>
  0.0000

> <r_epik_State_Penalty>
 -0.0000

> <r_epik_Charging_Adjusted_Penalty>
0

> <i_epik_Tot_Q>
0

> <i_epik_Tot_abs_Q>
0

$$$$
