1rd4_ligand
                    3D
 Schrodinger Suite 2020-3.
 60 63  0  0  1  0            999 V2000
    1.2900   -2.5970   -7.0520 O   0  5  0  0  0  0
    2.1560   -3.3810   -6.6930 N   0  3  0  0  0  0
    2.0490   -4.7930   -6.9190 C   0  0  0  0  0  0
    3.2290   -5.6870   -6.8610 C   0  0  0  0  0  0
    3.0290   -7.1400   -7.1060 C   0  0  0  0  0  0
    1.7440   -7.6970   -7.3920 C   0  0  0  0  0  0
    0.5420   -6.8510   -7.4620 C   0  0  0  0  0  0
    0.7080   -5.4240   -7.2260 C   0  0  0  0  0  0
   -0.8090   -7.4930   -7.7630 C   0  0  0  0  0  0
   -1.8870   -6.8010   -8.4730 C   0  0  0  0  0  0
   -3.1120   -7.5340   -8.6790 C   0  0  0  0  0  0
   -3.2810   -8.8940   -8.2060 N   0  0  0  0  0  0
   -2.3550   -9.5520   -7.5700 C   0  0  0  0  0  0
   -2.5200  -10.9030   -7.0870 N   0  0  0  0  0  0
   -3.3020  -10.9870   -5.8640 C   0  0  0  0  0  0
   -4.4140  -11.9630   -6.0920 C   0  0  0  0  0  0
   -3.8490  -13.2460   -6.6620 N   0  0  0  0  0  0
   -3.0620  -13.1090   -7.9650 C   0  0  0  0  0  0
   -1.8990  -12.0360   -7.7940 C   0  0  0  0  0  0
   -4.8970  -14.1930   -6.8720 C   0  0  0  0  0  0
   -4.8900  -15.3210   -6.2920 O   0  0  0  0  0  0
   -6.0830  -13.8610   -7.8060 C   0  0  0  0  0  0
   -1.0190   -8.8550   -7.3070 C   0  0  0  0  0  0
    4.8690   -4.9790   -6.4930 S   0  0  0  0  0  0
    5.7700   -6.2980   -5.7880 C   0  0  0  0  0  0
    6.4440   -7.2730   -6.6970 C   0  0  0  0  0  0
    7.2100   -8.3940   -6.0690 C   0  0  0  0  0  0
    7.2680   -8.4940   -4.5780 C   0  0  0  0  0  0
    6.5730   -7.4950   -3.7130 C   0  0  0  0  0  0
    5.8320   -6.4070   -4.3180 C   0  0  0  0  0  0
    6.3070   -7.0690   -8.1490 O   0  0  0  0  0  0
    6.3690   -8.2120   -9.1060 C   0  0  0  0  0  0
    5.8060   -7.7280  -10.4700 C   0  0  0  0  0  0
    3.1160   -2.8290   -6.1130 O   0  0  0  0  0  0
    3.8927   -7.8037   -7.0661 H   0  0  0  0  0  0
    1.6527   -8.7698   -7.5616 H   0  0  0  0  0  0
   -0.1717   -4.7821   -7.2724 H   0  0  0  0  0  0
   -1.7688   -5.7778   -8.8298 H   0  0  0  0  0  0
   -3.9350   -7.0512   -9.2059 H   0  0  0  0  0  0
   -2.6586  -11.3298   -5.0403 H   0  0  0  0  0  0
   -3.7110   -9.9951   -5.6214 H   0  0  0  0  0  0
   -4.9167  -12.1758   -5.1370 H   0  0  0  0  0  0
   -5.1385  -11.5345   -6.8002 H   0  0  0  0  0  0
   -2.6195  -14.0806   -8.2300 H   0  0  0  0  0  0
   -3.7379  -12.7825   -8.7690 H   0  0  0  0  0  0
   -1.5167  -11.6955   -8.7676 H   0  0  0  0  0  0
   -1.0681  -12.4328   -7.1922 H   0  0  0  0  0  0
   -5.9453  -12.8555   -8.2302 H   0  0  0  0  0  0
   -7.0211  -13.8917   -7.2324 H   0  0  0  0  0  0
   -6.1266  -14.5996   -8.6200 H   0  0  0  0  0  0
   -0.2248   -9.3810   -6.7772 H   0  0  0  0  0  0
    7.7200   -9.1295   -6.6910 H   0  0  0  0  0  0
    7.8260   -9.3084   -4.1158 H   0  0  0  0  0  0
    6.6231   -7.5842   -2.6278 H   0  0  0  0  0  0
    5.3238   -5.6740   -3.6915 H   0  0  0  0  0  0
    7.4133   -8.5380   -9.2206 H   0  0  0  0  0  0
    5.7646   -9.0463   -8.7204 H   0  0  0  0  0  0
    5.8408   -8.5545  -11.1951 H   0  0  0  0  0  0
    6.4136   -6.8892  -10.8406 H   0  0  0  0  0  0
    4.7649   -7.3975  -10.3404 H   0  0  0  0  0  0
  1  2  1  0  0  0
  2  3  1  0  0  0
  2 34  2  0  0  0
  3  4  2  0  0  0
  3  8  1  0  0  0
  4  5  1  0  0  0
  4 24  1  0  0  0
  5  6  2  0  0  0
  5 35  1  0  0  0
  6  7  1  0  0  0
  6 36  1  0  0  0
  7  8  2  0  0  0
  7  9  1  0  0  0
  8 37  1  0  0  0
  9 10  2  0  0  0
  9 23  1  0  0  0
 10 11  1  0  0  0
 10 38  1  0  0  0
 11 12  2  0  0  0
 11 39  1  0  0  0
 12 13  1  0  0  0
 13 14  1  0  0  0
 13 23  2  0  0  0
 14 15  1  0  0  0
 14 19  1  0  0  0
 15 16  1  0  0  0
 15 40  1  0  0  0
 15 41  1  0  0  0
 16 17  1  0  0  0
 16 42  1  0  0  0
 16 43  1  0  0  0
 17 18  1  0  0  0
 17 20  1  0  0  0
 18 19  1  0  0  0
 18 44  1  0  0  0
 18 45  1  0  0  0
 19 46  1  0  0  0
 19 47  1  0  0  0
 20 21  2  0  0  0
 20 22  1  0  0  0
 22 48  1  0  0  0
 22 49  1  0  0  0
 22 50  1  0  0  0
 23 51  1  0  0  0
 24 25  1  0  0  0
 25 26  2  0  0  0
 25 30  1  0  0  0
 26 27  1  0  0  0
 26 31  1  0  0  0
 27 28  2  0  0  0
 27 52  1  0  0  0
 28 29  1  0  0  0
 28 53  1  0  0  0
 29 30  2  0  0  0
 29 54  1  0  0  0
 30 55  1  0  0  0
 31 32  1  0  0  0
 32 33  1  0  0  0
 32 56  1  0  0  0
 32 57  1  0  0  0
 33 58  1  0  0  0
 33 59  1  0  0  0
 33 60  1  0  0  0
M  CHG  2   1  -1   2   1
M  END
> <s_m_source_file>
../1rd4_ligand.sdf

> <i_m_source_file_index>
1

> <s_epik_input>
W2NIXTFbY0hdW2NIXVtjSF1jKE9bQ0gyXVtDSDNdKWMxU2MoYzJbTitdKFtPLV0pPU8pW2NIXVtjSF1jKFtjSF0yKS1jM1tjSF1bY0hdbmMoW2NIXTMpTjRbQ0gyXVtDSDJdTihbQ0gyXVtDSDJdNClDKD1PKVtDSDNd

> <s_epik_cmdline>
J2VwaWtfYXBwJywgJy1pbWFlJywgJ2xpZ2FuZF9wcm8ubWFlJywgJy1vbWFlJywgJ2xpZ2FuZF9wcmVwLm1hZScsICctbXMnLCAnMScsICctcGgnLCAnNycsICctcGh0JywgJzAuNScsICctbnQn

> <r_lp_tautomer_probability>
1

> <r_epik_Ionization_Penalty>
  0.0055

> <r_epik_Ionization_Penalty_Charging>
  0.0000

> <r_epik_Ionization_Penalty_Neutral>
  0.0055

> <r_epik_State_Penalty>
 -0.0000

> <r_epik_Charging_Adjusted_Penalty>
0

> <i_epik_Tot_Q>
0

> <i_epik_Tot_abs_Q>
2

$$$$
