1rdj_ligand
                    3D
 Schrodinger Suite 2020-3.
 23 23  0  0  1  0            999 V2000
    3.8870   47.7670    0.6980 C   0  0  1  0  0  0
    4.3080   46.6830    1.6840 C   0  0  2  0  0  0
    3.0830   45.9350    2.1830 C   0  0  1  0  0  0
    2.3190   45.3520    0.9930 C   0  0  1  0  0  0
    1.9710   46.4800    0.0140 C   0  0  2  0  0  0
    1.2930   45.9900   -1.2520 C   0  0  0  0  0  0
    5.0130   48.4770    0.2650 O   0  0  0  0  0  0
    4.9740   47.2660    2.7790 O   0  0  0  0  0  0
    3.4910   44.8900    3.0510 O   0  0  0  0  0  0
    3.1300   44.3810    0.3430 O   0  0  0  0  0  0
    3.1750   47.1760   -0.3830 O   0  0  0  0  0  0
    3.2219   48.5356    1.1186 H   0  0  0  0  0  0
    5.0390   45.9975    1.2305 H   0  0  0  0  0  0
    2.4391   46.5871    2.7914 H   0  0  0  0  0  0
    1.4184   44.8088    1.3152 H   0  0  0  0  0  0
    1.3047   47.1829    0.5355 H   0  0  0  0  0  0
    0.3694   45.4534   -0.9892 H   0  0  0  0  0  0
    1.9703   45.3117   -1.7916 H   0  0  0  0  0  0
    1.0478   46.8497   -1.8929 H   0  0  0  0  0  0
    4.9001   49.3019   -0.4538 H   0  0  0  0  0  0
    5.8902   47.8527    2.6166 H   0  0  0  0  0  0
    4.0562   45.1236    3.9653 H   0  0  0  0  0  0
    3.4772   43.4955    0.8955 H   0  0  0  0  0  0
  1 11  1  0  0  0
  1  7  1  0  0  0
  1  2  1  0  0  0
  1 12  1  0  0  0
  2  8  1  0  0  0
  2  3  1  0  0  0
  2 13  1  0  0  0
  3  9  1  0  0  0
  3  4  1  0  0  0
  3 14  1  0  0  0
  4 10  1  0  0  0
  4  5  1  0  0  0
  4 15  1  0  0  0
  5 11  1  0  0  0
  5  6  1  0  0  0
  5 16  1  0  0  0
  6 17  1  0  0  0
  6 18  1  0  0  0
  6 19  1  0  0  0
  7 20  1  0  0  0
  8 21  1  0  0  0
  9 22  1  0  0  0
 10 23  1  0  0  0
M  END
> <s_m_source_file>
../1rdj_ligand.sdf

> <i_m_source_file_index>
1

> <s_epik_input>
W09IXVtDQEBIXTFbQ0BASF0oW09IXSlbQ0BIXShbT0hdKVtDQEhdKFtPSF0pW0NAQEhdKE8xKVtDSDNd

> <s_epik_cmdline>
J2VwaWtfYXBwJywgJy1pbWFlJywgJ2xpZ2FuZF9wcm8ubWFlJywgJy1vbWFlJywgJ2xpZ2FuZF9wcmVwLm1hZScsICctbXMnLCAnMScsICctcGgnLCAnNycsICctcGh0JywgJzAuNScsICctbnQn

> <r_lp_tautomer_probability>
1

> <r_epik_Ionization_Penalty>
  0.0000

> <r_epik_Ionization_Penalty_Charging>
  0.0000

> <r_epik_Ionization_Penalty_Neutral>
  0.0000

> <r_epik_State_Penalty>
 -0.0000

> <r_epik_Charging_Adjusted_Penalty>
0

> <i_epik_Tot_Q>
0

> <i_epik_Tot_abs_Q>
0

> <s_epik_Chemistry_Notes>
This compound contains an acetal/aminal-like group ( X-CH(R)-Y where X, Y are N, S, or O) that may be acid/base labile, releasing an aldehyde.

$$$$
