1rdl_ligand
                    3D
 Schrodinger Suite 2020-3.
 24 24  0  0  1  0            999 V2000
    2.0340   46.4730    0.1180 C   0  0  1  0  0  0
    2.3850   45.3740    1.1240 C   0  0  2  0  0  0
    3.0440   45.9990    2.3600 C   0  0  2  0  0  0
    4.2460   46.8250    1.9420 C   0  0  1  0  0  0
    3.8550   47.8640    0.8910 C   0  0  1  0  0  0
    5.0800   48.5910    0.3550 C   0  0  0  0  0  0
    1.0350   47.2970    0.6560 O   0  0  0  0  0  0
    3.2810   44.4590    0.5230 O   0  0  0  0  0  0
    3.4850   44.9810    3.2460 O   0  0  0  0  0  0
    4.7920   47.4640    3.0810 O   0  0  0  0  0  0
    3.2090   47.2120   -0.2310 O   0  0  0  0  0  0
    4.7640   49.3670   -0.7930 O   0  0  0  0  0  0
    1.6158   46.1048   -0.8304 H   0  0  0  0  0  0
    1.5004   44.7796    1.3966 H   0  0  0  0  0  0
    2.3184   46.6014    2.9263 H   0  0  0  0  0  0
    5.0449   46.1749    1.5559 H   0  0  0  0  0  0
    3.1419   48.5727    1.3373 H   0  0  0  0  0  0
    5.4765   49.2625    1.1308 H   0  0  0  0  0  0
    5.8502   47.8563    0.0774 H   0  0  0  0  0  0
    0.0741   46.8632    0.9697 H   0  0  0  0  0  0
    2.9815   43.9096   -0.3817 H   0  0  0  0  0  0
    2.7617   44.2676    3.6677 H   0  0  0  0  0  0
    5.1287   46.8644    3.9396 H   0  0  0  0  0  0
    5.5491   49.9516   -1.2949 H   0  0  0  0  0  0
  1  2  1  0  0  0
  1  7  1  0  0  0
  1 11  1  0  0  0
  1 13  1  0  0  0
  2  3  1  0  0  0
  2  8  1  0  0  0
  2 14  1  0  0  0
  3  4  1  0  0  0
  3  9  1  0  0  0
  3 15  1  0  0  0
  4  5  1  0  0  0
  4 10  1  0  0  0
  4 16  1  0  0  0
  5  6  1  0  0  0
  5 11  1  0  0  0
  5 17  1  0  0  0
  6 12  1  0  0  0
  6 18  1  0  0  0
  6 19  1  0  0  0
  7 20  1  0  0  0
  8 21  1  0  0  0
  9 22  1  0  0  0
 10 23  1  0  0  0
 12 24  1  0  0  0
M  END
> <s_m_source_file>
../1rdl_ligand.sdf

> <i_m_source_file_index>
1

> <s_epik_input>
W09IXVtDQEBIXTFbQ0BASF0oW09IXSlbQ0BASF0oW09IXSlbQ0BIXShbT0hdKVtDQEhdKE8xKVtDSDJdW09IXQ==

> <s_epik_cmdline>
J2VwaWtfYXBwJywgJy1pbWFlJywgJ2xpZ2FuZF9wcm8ubWFlJywgJy1vbWFlJywgJ2xpZ2FuZF9wcmVwLm1hZScsICctbXMnLCAnMScsICctcGgnLCAnNycsICctcGh0JywgJzAuNScsICctbnQn

> <r_lp_tautomer_probability>
1

> <r_epik_Ionization_Penalty>
  0.0000

> <r_epik_Ionization_Penalty_Charging>
  0.0000

> <r_epik_Ionization_Penalty_Neutral>
  0.0000

> <r_epik_State_Penalty>
 -0.0000

> <r_epik_Charging_Adjusted_Penalty>
0

> <i_epik_Tot_Q>
0

> <i_epik_Tot_abs_Q>
0

> <s_epik_Chemistry_Notes>
This compound contains an acetal/aminal-like group ( X-CH(R)-Y where X, Y are N, S, or O) that may be acid/base labile, releasing an aldehyde.

$$$$
