1rdt_ligand
                    3D
 Schrodinger Suite 2020-3.
 55 58  0  0  1  0            999 V2000
   10.7170   36.2230   45.5440 C   0  0  0  0  0  0
   11.7060   35.4770   46.1770 C   0  0  0  0  0  0
   12.7460   35.2610   45.3090 O   0  0  0  0  0  0
   12.4220   35.8680   44.1240 C   0  0  0  0  0  0
   11.1730   36.4650   44.2540 C   0  0  0  0  0  0
   11.5890   35.0460   47.4750 C   0  0  0  0  0  0
   12.1340   33.9130   47.9100 C   0  0  0  0  0  0
   12.0190   33.4180   49.3210 C   0  0  0  0  0  0
   12.6700   32.4120   49.6010 O   0  5  0  0  0  0
   11.2670   33.9590   50.1300 O   0  0  0  0  0  0
   10.4750   37.2330   43.1460 C   0  0  1  0  0  0
   11.4110   37.5540   41.9780 C   0  0  0  0  0  0
   12.5720   36.5990   41.6880 C   0  0  0  0  0  0
   13.2600   35.9040   42.8630 C   0  0  0  0  0  0
    9.0150   37.0690   42.7910 C   0  0  0  0  0  0
    8.2720   38.0890   42.3230 C   0  0  0  0  0  0
    6.9700   37.9980   41.9940 C   0  0  0  0  0  0
    6.2530   39.2330   41.4750 C   0  0  0  0  0  0
    4.7620   39.1060   41.1670 C   0  0  0  0  0  0
    6.2980   40.4060   42.4540 C   0  0  0  0  0  0
    6.8620   39.7600   40.1760 C   0  0  0  0  0  0
    6.3590   36.8020   42.1430 C   0  0  0  0  0  0
    4.8980   36.5650   41.8130 C   0  0  0  0  0  0
    4.0710   36.2260   43.0520 C   0  0  0  0  0  0
    4.1410   37.7090   41.1370 C   0  0  0  0  0  0
    4.6760   35.4050   40.8430 C   0  0  0  0  0  0
    7.0960   35.7750   42.6110 C   0  0  0  0  0  0
    8.3940   35.8850   42.9320 C   0  0  0  0  0  0
    9.7715   36.5525   45.9748 H   0  0  0  0  0  0
   11.0156   35.6813   48.1661 H   0  0  0  0  0  0
   12.7092   33.2788   47.2195 H   0  0  0  0  0  0
   10.2228   38.1187   43.7476 H   0  0  0  0  0  0
   10.8329   37.5850   41.0427 H   0  0  0  0  0  0
   11.8870   38.5311   42.1474 H   0  0  0  0  0  0
   12.9134   36.4085   40.6598 H   0  0  0  0  0  0
   14.2712   35.4887   42.7408 H   0  0  0  0  0  0
    8.7588   39.0567   42.2019 H   0  0  0  0  0  0
    4.1831   39.6550   41.9243 H   0  0  0  0  0  0
    4.5560   39.5269   40.1718 H   0  0  0  0  0  0
    5.8714   40.0948   43.4190 H   0  0  0  0  0  0
    5.7136   41.2449   42.0482 H   0  0  0  0  0  0
    7.3414   40.7224   42.5994 H   0  0  0  0  0  0
    6.8614   38.9608   39.4201 H   0  0  0  0  0  0
    7.8953   40.0880   40.3621 H   0  0  0  0  0  0
    6.2675   40.6105   39.8109 H   0  0  0  0  0  0
    4.1848   37.0255   43.7988 H   0  0  0  0  0  0
    4.4214   35.2741   43.4776 H   0  0  0  0  0  0
    3.0113   36.1343   42.7717 H   0  0  0  0  0  0
    3.1605   37.7328   41.6351 H   0  0  0  0  0  0
    4.0141   37.3864   40.0930 H   0  0  0  0  0  0
    5.1817   34.5058   41.2249 H   0  0  0  0  0  0
    5.0885   35.6670   39.8575 H   0  0  0  0  0  0
    3.5981   35.2073   40.7485 H   0  0  0  0  0  0
    6.6128   34.8058   42.7350 H   0  0  0  0  0  0
    8.9418   35.0196   43.3049 H   0  0  0  0  0  0
  1  2  2  0  0  0
  1  5  1  0  0  0
  1 29  1  0  0  0
  2  3  1  0  0  0
  2  6  1  0  0  0
  3  4  1  0  0  0
  4  5  2  0  0  0
  4 14  1  0  0  0
  5 11  1  0  0  0
  6  7  2  0  0  0
  6 30  1  0  0  0
  7  8  1  0  0  0
  7 31  1  0  0  0
  8  9  1  0  0  0
  8 10  2  0  0  0
 11 12  1  0  0  0
 11 15  1  0  0  0
 11 32  1  0  0  0
 12 13  1  0  0  0
 12 33  1  0  0  0
 12 34  1  0  0  0
 13 14  2  0  0  0
 13 35  1  0  0  0
 14 36  1  0  0  0
 15 16  2  0  0  0
 15 28  1  0  0  0
 16 17  1  0  0  0
 16 37  1  0  0  0
 17 18  1  0  0  0
 17 22  2  0  0  0
 18 19  1  0  0  0
 18 20  1  0  0  0
 18 21  1  0  0  0
 19 25  1  0  0  0
 19 38  1  0  0  0
 19 39  1  0  0  0
 20 40  1  0  0  0
 20 41  1  0  0  0
 20 42  1  0  0  0
 21 43  1  0  0  0
 21 44  1  0  0  0
 21 45  1  0  0  0
 22 23  1  0  0  0
 22 27  1  0  0  0
 23 24  1  0  0  0
 23 25  1  0  0  0
 23 26  1  0  0  0
 24 46  1  0  0  0
 24 47  1  0  0  0
 24 48  1  0  0  0
 25 49  1  0  0  0
 25 50  1  0  0  0
 26 51  1  0  0  0
 26 52  1  0  0  0
 26 53  1  0  0  0
 27 28  2  0  0  0
 27 54  1  0  0  0
 28 55  1  0  0  0
M  CHG  1   9  -1
M  END
> <s_m_source_file>
../1rdt_ligand.sdf

> <i_m_source_file_index>
1

> <s_epik_input>
W09IXUMoPU8pXFtDSF09W0NIXVxjKG8xKVtjSF1jKGMxMilbQ0BASF0oW0NIMl1bQ0hdPVtDSF0yKWMoW2NIXTMpW2NIXVtjSF1jKGMzNClDKFtDSDNdKShbQ0gzXSlbQ0gyXVtDSDJdQzQoW0NIM10pW0NIM10=

> <s_epik_cmdline>
J2VwaWtfYXBwJywgJy1pbWFlJywgJ2xpZ2FuZF9wcm8ubWFlJywgJy1vbWFlJywgJ2xpZ2FuZF9wcmVwLm1hZScsICctbXMnLCAnMScsICctcGgnLCAnNycsICctcGh0JywgJzAuNScsICctbnQn

> <r_lp_tautomer_probability>
1

> <r_epik_Ionization_Penalty>
  0.0000

> <r_epik_Ionization_Penalty_Charging>
  0.0000

> <r_epik_Ionization_Penalty_Neutral>
  0.0000

> <r_epik_State_Penalty>
 -0.0000

> <r_epik_Charging_Adjusted_Penalty>
9.70304977947437e-06

> <i_epik_Tot_Q>
-1

> <i_epik_Tot_abs_Q>
1

$$$$
