1re1_ligand
                    3D
 Schrodinger Suite 2020-3.
 27 27  0  0  1  0            999 V2000
   39.1260   92.6950   21.1940 C   0  0  0  0  0  0
   40.0710   93.4100   21.9020 C   0  0  0  0  0  0
   40.3110   94.7460   21.6210 C   0  0  0  0  0  0
   39.6650   95.3880   20.6690 N   0  0  0  0  0  0
   38.7390   94.6860   19.9690 C   0  0  0  0  0  0
   38.4260   93.3370   20.1870 C   0  0  0  0  0  0
   41.0220   92.5010   23.2430 Br  0  0  0  0  0  0
   37.2780   92.6690   19.4350 C   0  0  0  0  0  0
   36.7690   91.5970   19.7590 O   0  0  0  0  0  0
   36.9000   93.3400   18.3470 N   0  0  0  0  0  0
   35.7550   92.9370   17.5070 C   0  0  1  0  0  0
   34.9560   94.1610   17.0120 C   0  0  0  0  0  0
   36.0620   91.8800   16.4060 C   0  0  0  0  0  0
   34.8670   91.5300   15.7050 O   0  0  0  0  0  0
   34.3700   94.9510   18.1600 C   0  0  0  0  0  0
   33.9470   96.1170   17.9900 O   0  5  0  0  0  0
   34.2880   94.4020   19.2770 O   0  0  0  0  0  0
   38.9350   91.6466   21.4231 H   0  0  0  0  0  0
   41.0579   95.2824   22.2062 H   0  0  0  0  0  0
   38.1990   95.2089   19.1796 H   0  0  0  0  0  0
   37.4867   94.2329   18.0854 H   0  0  0  0  0  0
   35.1305   92.3919   18.2300 H   0  0  0  0  0  0
   35.6201   94.8252   16.4394 H   0  0  0  0  0  0
   34.1304   93.8239   16.3680 H   0  0  0  0  0  0
   36.7881   92.2951   15.6915 H   0  0  0  0  0  0
   36.4818   90.9764   16.8721 H   0  0  0  0  0  0
   34.9035   90.7920   14.8901 H   0  0  0  0  0  0
  1  2  2  0  0  0
  1  6  1  0  0  0
  1 18  1  0  0  0
  2  3  1  0  0  0
  2  7  1  0  0  0
  3  4  2  0  0  0
  3 19  1  0  0  0
  4  5  1  0  0  0
  5  6  2  0  0  0
  5 20  1  0  0  0
  6  8  1  0  0  0
  8  9  2  0  0  0
  8 10  1  0  0  0
 10 11  1  0  0  0
 10 21  1  0  0  0
 11 12  1  0  0  0
 11 13  1  0  0  0
 11 22  1  0  0  0
 12 15  1  0  0  0
 12 23  1  0  0  0
 12 24  1  0  0  0
 13 14  1  0  0  0
 13 25  1  0  0  0
 13 26  1  0  0  0
 14 27  1  0  0  0
 15 16  1  0  0  0
 15 17  2  0  0  0
M  CHG  1  16  -1
M  END
> <s_m_source_file>
../1re1_ligand.sdf

> <i_m_source_file_index>
1

> <s_epik_input>
W2NIXTFuW2NIXWMoW2NIXWMxQnIpQyg9TylbTkhdW0NASF0oW0NIMl1bT0hdKVtDSDJdQyg9TylbT0hd

> <s_epik_cmdline>
J2VwaWtfYXBwJywgJy1pbWFlJywgJ2xpZ2FuZF9wcm8ubWFlJywgJy1vbWFlJywgJ2xpZ2FuZF9wcmVwLm1hZScsICctbXMnLCAnMScsICctcGgnLCAnNycsICctcGh0JywgJzAuNScsICctbnQn

> <r_lp_tautomer_probability>
1

> <r_epik_Ionization_Penalty>
  0.0013

> <r_epik_Ionization_Penalty_Charging>
  0.0013

> <r_epik_Ionization_Penalty_Neutral>
  0.0000

> <r_epik_State_Penalty>
 -0.0000

> <r_epik_Charging_Adjusted_Penalty>
0.00130527524031689

> <i_epik_Tot_Q>
-1

> <i_epik_Tot_abs_Q>
1

$$$$
