1re8_ligand
                    3D
 Schrodinger Suite 2020-3.
 62 65  0  0  1  0            999 V2000
   17.2500   39.0190   20.1380 O   0  0  0  0  0  0
   15.9620   39.3050   19.9190 C   0  0  0  0  0  0
   15.5600   40.6340   19.7310 C   0  0  0  0  0  0
   14.2200   40.9310   19.5050 C   0  0  0  0  0  0
   13.2670   39.8980   19.4620 C   0  0  0  0  0  0
   13.6730   38.5730   19.6400 C   0  0  0  0  0  0
   15.0220   38.2770   19.8690 C   0  0  0  0  0  0
   11.9300   40.1900   19.2320 C   0  0  0  0  0  0
   11.5140   41.3510   19.4060 O   0  0  0  0  0  0
   11.0860   39.2270   18.8290 N   0  0  0  0  0  0
    9.6810   39.2580   19.2150 C   0  0  1  0  0  0
    8.6060   39.5970   18.1760 C   0  0  1  0  0  0
    7.3800   38.7050   18.0430 C   0  0  0  0  0  0
    6.3740   39.0360   19.1410 C   0  0  0  0  0  0
    6.9100   38.6030   20.5000 C   0  0  0  0  0  0
    7.9670   39.5040   20.9410 N   0  3  0  0  0  0
    9.2740   38.9430   20.6460 C   0  0  0  0  0  0
    8.7430   40.7760   17.3730 O   0  0  0  0  0  0
    8.2870   40.5830   16.0360 C   0  0  0  0  0  0
    8.5550   39.5230   15.4270 O   0  0  0  0  0  0
    7.5560   41.5820   15.4020 C   0  0  0  0  0  0
    7.5900   41.6930   14.0050 C   0  0  0  0  0  0
    6.8540   42.6900   13.3670 C   0  0  0  0  0  0
    6.0850   43.6000   14.1060 C   0  0  0  0  0  0
    6.0590   43.4990   15.5040 C   0  0  0  0  0  0
    6.7910   42.4860   16.1490 C   0  0  0  0  0  0
    5.3620   44.5860   13.4360 C   0  0  0  0  0  0
    4.9900   44.3650   12.2710 O   0  0  0  0  0  0
    5.0260   45.8130   14.0180 C   0  0  0  0  0  0
    3.6740   46.1440   14.1670 C   0  0  0  0  0  0
    3.3040   47.3720   14.7390 C   0  0  0  0  0  0
    4.2900   48.2590   15.1650 C   0  0  0  0  0  0
    5.6400   47.9370   15.0230 C   0  0  0  0  0  0
    6.0170   46.7200   14.4480 C   0  0  0  0  0  0
    7.3150   46.4200   14.3260 O   0  0  0  0  0  0
   17.9940   39.8282   20.1780 H   0  0  0  0  0  0
   16.2978   41.4357   19.7619 H   0  0  0  0  0  0
   13.9084   41.9656   19.3611 H   0  0  0  0  0  0
   12.9384   37.7687   19.6005 H   0  0  0  0  0  0
   15.3372   37.2429   20.0082 H   0  0  0  0  0  0
   11.4657   38.4080   18.2004 H   0  0  0  0  0  0
    9.7738   40.3247   19.4670 H   0  0  0  0  0  0
    8.7385   40.0891   17.2012 H   0  0  0  0  0  0
    6.9119   38.8692   17.0612 H   0  0  0  0  0  0
    7.6817   37.6511   18.1337 H   0  0  0  0  0  0
    6.1920   40.1207   19.1566 H   0  0  0  0  0  0
    5.4291   38.5085   18.9438 H   0  0  0  0  0  0
    6.0945   38.6198   21.2381 H   0  0  0  0  0  0
    7.3166   37.5836   20.4260 H   0  0  0  0  0  0
    7.8677   40.4681   20.4208 H   0  0  0  0  0  0
    7.8844   39.6628   22.0263 H   0  0  0  0  0  0
    9.2331   37.8525   20.7839 H   0  0  0  0  0  0
   10.0112   39.3729   21.3400 H   0  0  0  0  0  0
    8.1920   40.9996   13.4177 H   0  0  0  0  0  0
    6.8766   42.7631   12.2797 H   0  0  0  0  0  0
    5.4717   44.2053   16.0908 H   0  0  0  0  0  0
    6.7626   42.4043   17.2356 H   0  0  0  0  0  0
    2.9049   45.4454   13.8375 H   0  0  0  0  0  0
    2.2507   47.6298   14.8491 H   0  0  0  0  0  0
    4.0048   49.2112   15.6124 H   0  0  0  0  0  0
    6.4037   48.6371   15.3617 H   0  0  0  0  0  0
    7.6185   45.4640   13.8744 H   0  0  0  0  0  0
  1  2  1  0  0  0
  1 36  1  0  0  0
  2  3  2  0  0  0
  2  7  1  0  0  0
  3  4  1  0  0  0
  3 37  1  0  0  0
  4  5  2  0  0  0
  4 38  1  0  0  0
  5  6  1  0  0  0
  5  8  1  0  0  0
  6  7  2  0  0  0
  6 39  1  0  0  0
  7 40  1  0  0  0
  8  9  2  0  0  0
  8 10  1  0  0  0
 10 11  1  0  0  0
 10 41  1  0  0  0
 11 12  1  0  0  0
 11 17  1  0  0  0
 11 42  1  0  0  0
 12 13  1  0  0  0
 12 18  1  0  0  0
 12 43  1  0  0  0
 13 14  1  0  0  0
 13 44  1  0  0  0
 13 45  1  0  0  0
 14 15  1  0  0  0
 14 46  1  0  0  0
 14 47  1  0  0  0
 15 16  1  0  0  0
 15 48  1  0  0  0
 15 49  1  0  0  0
 16 17  1  0  0  0
 16 50  1  0  0  0
 16 51  1  0  0  0
 17 52  1  0  0  0
 17 53  1  0  0  0
 18 19  1  0  0  0
 19 20  2  0  0  0
 19 21  1  0  0  0
 21 22  2  0  0  0
 21 26  1  0  0  0
 22 23  1  0  0  0
 22 54  1  0  0  0
 23 24  2  0  0  0
 23 55  1  0  0  0
 24 25  1  0  0  0
 24 27  1  0  0  0
 25 26  2  0  0  0
 25 56  1  0  0  0
 26 57  1  0  0  0
 27 28  2  0  0  0
 27 29  1  0  0  0
 29 30  2  0  0  0
 29 34  1  0  0  0
 30 31  1  0  0  0
 30 58  1  0  0  0
 31 32  2  0  0  0
 31 59  1  0  0  0
 32 33  1  0  0  0
 32 60  1  0  0  0
 33 34  2  0  0  0
 33 61  1  0  0  0
 34 35  1  0  0  0
 35 62  1  0  0  0
M  CHG  1  16   1
M  END
> <s_m_source_file>
../1re8_ligand.sdf

> <i_m_source_file_index>
1

> <s_epik_input>
W09IXWMxW2NIXVtjSF1jKFtjSF1bY0hdMSlDKD1PKVtOSF1bQ0BIXTJbQ0BASF0oW0NIMl1bQ0gyXVtDSDJdW05IMitdW0NIMl0yKU9DKD1PKWMzW2NIXVtjSF1jKFtjSF1bY0hdMylDKD1PKWM0W2NIXVtjSF1bY0hdW2NIXWM0W09IXQ==

> <s_epik_cmdline>
J2VwaWtfYXBwJywgJy1pbWFlJywgJ2xpZ2FuZF9wcm8ubWFlJywgJy1vbWFlJywgJ2xpZ2FuZF9wcmVwLm1hZScsICctbXMnLCAnMScsICctcGgnLCAnNycsICctcGh0JywgJzAuNScsICctbnQn

> <r_lp_tautomer_probability>
0.999999999997365

> <r_epik_Ionization_Penalty>
  0.0460

> <r_epik_Ionization_Penalty_Charging>
  0.0086

> <r_epik_Ionization_Penalty_Neutral>
  0.0373

> <r_epik_State_Penalty>
  0.0261

> <r_epik_Charging_Adjusted_Penalty>
0.0347892739818312

> <i_epik_Tot_Q>
1

> <i_epik_Tot_abs_Q>
1

> <s_epik_Chemistry_Notes>
This compound has an ester and may undergo hydrolysis at high or low pH.

$$$$
