1rev_ligand
                    3D
 Schrodinger Suite 2020-3.
 41 43  0  0  1  0            999 V2000
    0.8980  -37.3110   18.5140 N   0  0  0  0  0  0
    0.2840  -37.1300   19.7030 C   0  0  0  0  0  0
    2.1420  -37.7570   18.7700 C   0  0  0  0  0  0
    3.3020  -38.0590   17.5780 S   0  5  0  0  0  0
    2.3500  -37.8790   20.1140 N   0  0  0  0  0  0
    1.2110  -37.4930   20.7250 C   0  0  0  0  0  0
    3.6220  -38.3840   20.6320 C   0  0  0  0  0  0
    3.5360  -38.9920   22.0390 C   0  0  1  0  0  0
    3.0190  -38.0210   23.0050 N   0  3  2  0  0  0
    1.5670  -38.1600   23.1250 C   0  0  0  0  0  0
    0.8230  -37.3720   22.0740 C   0  0  0  0  0  0
   -0.4320  -36.8990   22.3890 C   0  0  0  0  0  0
   -1.3250  -36.5530   21.3970 C   0  0  0  0  0  0
   -2.8610  -36.0010   21.8380 Cl  0  0  0  0  0  0
   -0.9800  -36.6610   20.0660 C   0  0  0  0  0  0
    2.7330  -40.2820   22.0090 C   0  0  0  0  0  0
    3.7770  -36.8760   23.5370 C   0  0  0  0  0  0
    3.0080  -36.1580   24.6020 C   0  0  0  0  0  0
    3.4910  -35.2020   25.3750 C   0  0  0  0  0  0
    2.6420  -34.5480   26.4230 C   0  0  0  0  0  0
    4.8940  -34.7090   25.2550 C   0  0  0  0  0  0
    4.0030  -39.1711   19.9647 H   0  0  0  0  0  0
    4.3503  -37.5611   20.6817 H   0  0  0  0  0  0
    4.5399  -39.2271   22.4222 H   0  0  0  0  0  0
    3.5566  -38.1273   23.9588 H   0  0  0  0  0  0
    1.2897  -39.2187   23.0145 H   0  0  0  0  0  0
    1.2443  -37.7975   24.1122 H   0  0  0  0  0  0
   -0.7224  -36.7971   23.4346 H   0  0  0  0  0  0
   -1.6968  -36.3792   19.2947 H   0  0  0  0  0  0
    3.1686  -40.9679   21.2675 H   0  0  0  0  0  0
    1.6913  -40.0591   21.7349 H   0  0  0  0  0  0
    2.7580  -40.7526   23.0029 H   0  0  0  0  0  0
    4.7232  -37.2322   23.9703 H   0  0  0  0  0  0
    3.9902  -36.1674   22.7231 H   0  0  0  0  0  0
    1.9633  -36.4827   24.7165 H   0  0  0  0  0  0
    1.6371  -34.9953   26.4125 H   0  0  0  0  0  0
    2.5661  -33.4708   26.2137 H   0  0  0  0  0  0
    3.0998  -34.6980   27.4119 H   0  0  0  0  0  0
    5.4104  -35.2632   24.4574 H   0  0  0  0  0  0
    5.4198  -34.8638   26.2087 H   0  0  0  0  0  0
    4.8861  -33.6366   25.0105 H   0  0  0  0  0  0
  1  2  1  0  0  0
  1  3  2  0  0  0
  2  6  2  0  0  0
  2 15  1  0  0  0
  3  4  1  0  0  0
  3  5  1  0  0  0
  5  6  1  0  0  0
  5  7  1  0  0  0
  6 11  1  0  0  0
  7  8  1  0  0  0
  7 22  1  0  0  0
  7 23  1  0  0  0
  8  9  1  0  0  0
  8 16  1  0  0  0
  8 24  1  0  0  0
  9 10  1  0  0  0
  9 17  1  0  0  0
  9 25  1  0  0  0
 10 11  1  0  0  0
 10 26  1  0  0  0
 10 27  1  0  0  0
 11 12  2  0  0  0
 12 13  1  0  0  0
 12 28  1  0  0  0
 13 14  1  0  0  0
 13 15  2  0  0  0
 15 29  1  0  0  0
 16 30  1  0  0  0
 16 31  1  0  0  0
 16 32  1  0  0  0
 17 18  1  0  0  0
 17 33  1  0  0  0
 17 34  1  0  0  0
 18 19  2  0  0  0
 18 35  1  0  0  0
 19 20  1  0  0  0
 19 21  1  0  0  0
 20 36  1  0  0  0
 20 37  1  0  0  0
 20 38  1  0  0  0
 21 39  1  0  0  0
 21 40  1  0  0  0
 21 41  1  0  0  0
M  CHG  2   4  -1   9   1
M  END
> <s_m_source_file>
../1rev_ligand.sdf

> <i_m_source_file_index>
1

> <s_epik_input>
W25IXTFjKD1TKW4oYzJjMTMpW0NIMl1bQ0BIXShbQ0gzXSlbTkBASCtdKFtDSDJdW0NIXT1DKFtDSDNdKVtDSDNdKVtDSDJdYzJbY0hdYyhDbClbY0hdMw==

> <s_epik_cmdline>
J2VwaWtfYXBwJywgJy1pbWFlJywgJ2xpZ2FuZF9wcm8ubWFlJywgJy1vbWFlJywgJ2xpZ2FuZF9wcmVwLm1hZScsICctbXMnLCAnMScsICctcGgnLCAnNycsICctcGh0JywgJzAuNScsICctbnQn

> <r_epik_Ionization_Penalty>
  0.2778

> <r_epik_Ionization_Penalty_Charging>
  0.0098

> <r_epik_Ionization_Penalty_Neutral>
  0.2680

> <r_epik_State_Penalty>
  0.2600

> <r_epik_Charging_Adjusted_Penalty>
0.269814192612412

> <i_epik_Tot_Q>
0

> <i_epik_Tot_abs_Q>
2

$$$$
