1rgj_ligand
                    3D
 Schrodinger Suite 2020-3.
225230  0  0  1  0            999 V2000
   -4.5740   -7.4040    7.8750 N   0  3  0  0  0  0
   -5.1310   -6.0620    7.8990 C   0  0  2  0  0  0
   -4.9110   -5.3530    6.5620 C   0  0  0  0  0  0
   -5.5410   -4.3330    6.2850 O   0  0  0  0  0  0
   -4.3970   -5.2930    8.9980 C   0  0  0  0  0  0
   -4.9260   -5.5660   10.4080 C   0  0  0  0  0  0
   -6.2010   -5.2230   10.7340 C   0  0  0  0  0  0
   -4.1210   -6.1510   11.3360 C   0  0  0  0  0  0
   -6.6920   -5.4760   12.0430 C   0  0  0  0  0  0
   -4.6110   -6.4040   12.6440 C   0  0  0  0  0  0
   -5.8860   -6.0610   12.9700 C   0  0  0  0  0  0
   -4.0150   -5.9200    5.7680 N   0  0  0  0  0  0
   -3.7040   -5.3540    4.4650 C   0  0  2  0  0  0
   -4.4050   -6.1470    3.3600 C   0  0  0  0  0  0
   -5.1870   -7.0550    3.6430 O   0  0  0  0  0  0
   -2.1960   -5.3590    4.2090 C   0  0  0  0  0  0
   -1.4310   -5.8340    5.4460 C   0  0  0  0  0  0
   -0.1120   -5.0740    5.6010 C   0  0  0  0  0  0
   -0.2040   -4.1260    6.7330 N   0  0  0  0  0  0
    0.8650   -3.5600    7.3340 C   0  0  0  0  0  0
    2.1160   -3.8410    6.9150 N   0  0  0  0  0  0
    0.6650   -2.7270    8.3390 N   0  0  0  0  0  0
   -4.1010   -5.7760    2.1260 N   0  0  0  0  0  0
   -4.6920   -6.4420    0.9770 C   0  0  2  0  0  0
   -3.7820   -7.5590    0.4620 C   0  0  0  0  0  0
   -3.9380   -8.0200   -0.6670 O   0  0  0  0  0  0
   -4.8270   -5.3710   -0.1070 C   0  0  0  0  0  0
   -5.5540   -4.1060    0.3550 C   0  0  0  0  0  0
   -6.5850   -4.1970    1.2680 C   0  0  0  0  0  0
   -5.1760   -2.8740   -0.1410 C   0  0  0  0  0  0
   -7.2690   -3.0060    1.7020 C   0  0  0  0  0  0
   -5.8600   -1.6840    0.2940 C   0  0  0  0  0  0
   -6.8740   -1.8080    1.1940 C   0  0  0  0  0  0
   -7.5190   -0.6840    1.6050 O   0  0  0  0  0  0
   -2.8530   -7.9620    1.3170 N   0  0  0  0  0  0
   -1.9180   -9.0170    0.9620 C   0  0  2  0  0  0
   -2.1060   -9.4500   -0.4920 C   0  0  0  0  0  0
   -3.2220   -9.7550   -0.9140 O   0  0  0  0  0  0
   -2.2450  -10.1970    1.8800 C   0  0  0  0  0  0
   -1.7950  -10.0010    3.3290 C   0  0  0  0  0  0
   -2.5500   -9.2320    4.1890 C   0  0  0  0  0  0
   -0.6310  -10.5950    3.7750 C   0  0  0  0  0  0
   -2.1250   -9.0480    5.5540 C   0  0  0  0  0  0
   -0.2060  -10.4120    5.1390 C   0  0  0  0  0  0
   -0.9740   -9.6470    5.9610 C   0  0  0  0  0  0
   -0.5720   -9.4750    7.2480 O   0  0  0  0  0  0
   -1.0000   -9.4660   -1.2200 N   0  0  0  0  0  0
   -1.0290   -9.8580   -2.6180 C   0  0  2  0  0  0
   -1.9660  -11.0510   -2.8160 C   0  0  0  0  0  0
   -2.3940  -11.3310   -3.9360 O   0  0  0  0  0  0
    0.3780  -10.1770   -3.1290 C   0  0  0  0  0  0
    0.4040  -10.2530   -4.6560 C   0  0  0  0  0  0
    0.8310  -11.6440   -5.1290 C   0  0  0  0  0  0
    1.5180  -12.3660   -4.3920 O   0  0  0  0  0  0
    0.4220  -11.9690   -6.3090 O   0  0  0  0  0  0
   -2.2580  -11.7220   -1.7120 N   0  0  0  0  0  0
   -3.1380  -12.8790   -1.7510 C   0  0  2  0  0  0
   -4.5300  -12.4620   -2.2300 C   0  0  0  0  0  0
   -5.0960  -13.0900   -3.1250 O   0  0  0  0  0  0
   -3.2290  -13.5480   -0.3770 C   0  0  0  0  0  0
   -3.2690  -12.5920    0.6790 O   0  0  0  0  0  0
   -5.0420  -11.4060   -1.6150 N   0  0  0  0  0  0
   -6.3560  -10.8980   -1.9700 C   0  0  2  0  0  0
   -6.4870   -9.4350   -1.5380 C   0  0  0  0  0  0
   -5.7270   -8.5820   -1.9930 O   0  0  0  0  0  0
   -7.4620  -11.7400   -1.3310 C   0  0  0  0  0  0
   -7.4170  -13.0980   -1.7610 O   0  0  0  0  0  0
   -7.4550   -9.1920   -0.6680 N   0  0  0  0  0  0
   -7.6940   -7.8480   -0.1700 C   0  0  2  0  0  0
   -8.3850   -7.9290    1.1920 C   0  0  0  0  0  0
   -9.0430   -6.9790    1.6150 O   0  0  0  0  0  0
   -8.4660   -7.0250   -1.2030 C   0  0  0  0  0  0
   -7.6250   -6.3680   -2.3000 C   0  0  0  0  0  0
   -7.6880   -7.1760   -3.5980 C   0  0  0  0  0  0
   -8.0430   -4.9100   -2.5120 C   0  0  0  0  0  0
   -8.2110   -9.0710    1.8410 N   0  0  0  0  0  0
   -8.8100   -9.2880    3.1480 C   0  0  2  0  0  0
   -7.8790   -8.7740    4.2490 C   0  0  0  0  0  0
   -6.6580   -8.8620    4.1270 O   0  0  0  0  0  0
   -9.1450  -10.7640    3.3590 C   0  0  0  0  0  0
   -9.7310  -11.3810    2.0870 C   0  0  0  0  0  0
  -10.3490  -12.7510    2.3760 C   0  0  0  0  0  0
  -11.2400  -12.8620    3.2300 O   0  0  0  0  0  0
   -9.8690  -13.7230    1.6740 O   0  0  0  0  0  0
   -8.5090   -8.2340    5.3270 N   0  0  0  0  0  0
   -7.7520   -7.7070    6.4500 C   0  0  2  0  0  0
   -7.1790   -8.8390    7.3060 C   0  0  0  0  0  0
   -7.3480   -8.8460    8.5250 O   0  0  0  0  0  0
   -8.7310   -6.8260    7.2070 C   0  0  0  0  0  0
  -10.1160   -7.2590    6.7530 C   0  0  0  0  0  0
   -9.9520   -8.1140    5.5070 C   0  0  0  0  0  0
   -6.5150   -9.7680    6.6350 N   0  0  0  0  0  0
   -5.9170  -10.9020    7.3180 C   0  0  2  0  0  0
   -5.3420  -11.8440    6.2590 C   0  0  0  0  0  0
   -5.8220  -12.9650    6.0940 O   0  0  0  0  0  0
   -6.9300  -11.5840    8.2380 C   0  0  0  0  0  0
   -6.7540  -11.2420    9.7200 C   0  0  0  0  0  0
   -7.6280  -10.6370   10.5360 C   0  0  0  0  0  0
   -5.5930  -11.5130   10.5330 C   0  0  0  0  0  0
   -7.1160  -10.4980   11.8100 N   0  0  0  0  0  0
   -5.8390  -11.0470   11.8080 C   0  0  0  0  0  0
   -4.3750  -12.1310   10.2010 C   0  0  0  0  0  0
   -4.9150  -11.1520   12.8550 C   0  0  0  0  0  0
   -3.4610  -12.2260   11.2580 C   0  0  0  0  0  0
   -3.6940  -11.7630   12.5470 C   0  0  0  0  0  0
   -4.3230  -11.3550    5.5670 N   0  0  0  0  0  0
   -3.6790  -12.1400    4.5270 C   0  0  2  0  0  0
   -4.7490  -12.8270    3.6770 C   0  0  0  0  0  0
   -4.8480  -14.0540    3.6680 O   0  0  0  0  0  0
   -2.7860  -13.2260    5.1310 C   0  0  0  0  0  0
   -3.4500  -14.0830    6.2110 C   0  0  0  0  0  0
   -3.2360  -13.8730    7.4140 O   0  0  0  0  0  0
   -4.2260  -15.0130    5.7680 O   0  0  0  0  0  0
   -5.5230  -12.0080    2.9800 N   0  0  0  0  0  0
   -6.5820  -12.5210    2.1290 C   0  0  2  0  0  0
   -7.5750  -13.3150    2.9780 C   0  0  0  0  0  0
   -7.3030  -13.6160    4.1400 O   0  0  0  0  0  0
   -6.0200  -13.4580    1.0570 C   0  0  0  0  0  0
   -6.8050  -14.7560    0.8590 C   0  0  0  0  0  0
   -6.9930  -15.5390    1.8020 O   0  0  0  0  0  0
   -7.2380  -14.9530   -0.3410 O   0  0  0  0  0  0
   -8.7419  -13.6834    2.4569 O   0  0  0  0  0  0
   -4.7460   -7.8898    8.8468 H   0  0  0  0  0  0
   -3.4930   -7.3489    7.6788 H   0  0  0  0  0  0
   -5.0614   -7.9891    7.0812 H   0  0  0  0  0  0
   -6.2106   -6.1592    8.0862 H   0  0  0  0  0  0
   -3.3325   -5.5703    8.9912 H   0  0  0  0  0  0
   -4.4955   -4.2123    8.8178 H   0  0  0  0  0  0
   -6.8462   -4.7540    9.9911 H   0  0  0  0  0  0
   -3.0990   -6.4256   11.0748 H   0  0  0  0  0  0
   -7.7140   -5.2016   12.3045 H   0  0  0  0  0  0
   -3.9657   -6.8730   13.3868 H   0  0  0  0  0  0
   -6.2624   -6.2548   13.9744 H   0  0  0  0  0  0
   -3.5033   -6.8326    6.1076 H   0  0  0  0  0  0
   -4.0796   -4.3211    4.5089 H   0  0  0  0  0  0
   -1.9684   -6.0358    3.3723 H   0  0  0  0  0  0
   -1.8633   -4.3410    3.9581 H   0  0  0  0  0  0
   -2.0435   -5.6638    6.3437 H   0  0  0  0  0  0
   -1.2103   -6.9074    5.3509 H   0  0  0  0  0  0
    0.7024   -5.7882    5.7925 H   0  0  0  0  0  0
    0.1000   -4.5153    4.6775 H   0  0  0  0  0  0
   -1.1881   -3.8429    7.1347 H   0  0  0  0  0  0
    2.2722   -4.5362    6.0770 H   0  0  0  0  0  0
    2.9800   -3.3749    7.4113 H   0  0  0  0  0  0
   -0.3590   -2.5043    8.6733 H   0  0  0  0  0  0
   -3.3895   -4.9504    1.9773 H   0  0  0  0  0  0
   -5.6514   -6.8775    1.2931 H   0  0  0  0  0  0
   -3.8265   -5.0648   -0.4465 H   0  0  0  0  0  0
   -5.3937   -5.7790   -0.9570 H   0  0  0  0  0  0
   -6.8815   -5.1697    1.6605 H   0  0  0  0  0  0
   -4.3608   -2.8024   -0.8610 H   0  0  0  0  0  0
   -8.0854   -3.0637    2.4219 H   0  0  0  0  0  0
   -5.5722   -0.7049   -0.0890 H   0  0  0  0  0  0
   -8.3418   -0.7565    2.3315 H   0  0  0  0  0  0
   -2.7954   -7.4863    2.3071 H   0  0  0  0  0  0
   -0.8983   -8.6246    1.0893 H   0  0  0  0  0  0
   -3.3330  -10.3579    1.8968 H   0  0  0  0  0  0
   -1.7462  -11.1027    1.5048 H   0  0  0  0  0  0
   -3.4686   -8.7630    3.8365 H   0  0  0  0  0  0
   -0.0338  -11.2024    3.0949 H   0  0  0  0  0  0
   -2.7127   -8.4426    6.2441 H   0  0  0  0  0  0
    0.7102  -10.8759    5.5043 H   0  0  0  0  0  0
   -1.1736   -8.8615    7.9348 H   0  0  0  0  0  0
   -0.0488   -9.1761   -0.7497 H   0  0  0  0  0  0
   -1.4193   -8.9820   -3.1569 H   0  0  0  0  0  0
    1.0735   -9.3893   -2.8037 H   0  0  0  0  0  0
    0.7049  -11.1455   -2.7226 H   0  0  0  0  0  0
   -0.6002  -10.0392   -5.0509 H   0  0  0  0  0  0
    1.1173   -9.5130   -5.0479 H   0  0  0  0  0  0
    0.6821  -12.9513   -6.7301 H   0  0  0  0  0  0
   -1.8244  -11.3927   -0.7562 H   0  0  0  0  0  0
   -2.6753  -13.5734   -2.4677 H   0  0  0  0  0  0
   -4.1441  -14.1563   -0.3252 H   0  0  0  0  0  0
   -2.3510  -14.1928   -0.2242 H   0  0  0  0  0  0
   -3.3347  -12.9292    1.7240 H   0  0  0  0  0  0
   -4.4566  -10.9127   -0.8251 H   0  0  0  0  0  0
   -6.4151  -10.9848   -3.0650 H   0  0  0  0  0  0
   -7.3500  -11.7229   -0.2368 H   0  0  0  0  0  0
   -8.4433  -11.3257   -1.6056 H   0  0  0  0  0  0
   -8.1549  -13.8199   -1.3811 H   0  0  0  0  0  0
   -8.0830  -10.0264   -0.3224 H   0  0  0  0  0  0
   -6.7144   -7.3662   -0.0347 H   0  0  0  0  0  0
   -9.1909   -7.6715   -1.7193 H   0  0  0  0  0  0
   -8.9997   -6.2076   -0.6960 H   0  0  0  0  0  0
   -6.5751   -6.3624   -1.9720 H   0  0  0  0  0  0
   -7.3807   -8.2134   -3.3994 H   0  0  0  0  0  0
   -7.0115   -6.7290   -4.3413 H   0  0  0  0  0  0
   -8.7172   -7.1664   -3.9863 H   0  0  0  0  0  0
   -7.9829   -4.3687   -1.5563 H   0  0  0  0  0  0
   -9.0760   -4.8758   -2.8885 H   0  0  0  0  0  0
   -7.3703   -4.4384   -3.2435 H   0  0  0  0  0  0
   -7.6028   -9.8613    1.3767 H   0  0  0  0  0  0
   -9.7434   -8.7061    3.1441 H   0  0  0  0  0  0
   -8.2304  -11.3127    3.6280 H   0  0  0  0  0  0
   -9.8823  -10.8604    4.1696 H   0  0  0  0  0  0
  -10.5124  -10.7194    1.6850 H   0  0  0  0  0  0
   -8.9343  -11.5044    1.3386 H   0  0  0  0  0  0
  -10.2530  -14.7443    1.8137 H   0  0  0  0  0  0
   -6.8891   -7.1298    6.0864 H   0  0  0  0  0  0
   -8.6003   -6.9779    8.2886 H   0  0  0  0  0  0
   -8.5420   -5.7710    6.9595 H   0  0  0  0  0  0
  -10.5992   -7.8395    7.5527 H   0  0  0  0  0  0
  -10.7228   -6.3696    6.5278 H   0  0  0  0  0  0
  -10.3933   -7.6338    4.6212 H   0  0  0  0  0  0
  -10.3897   -9.1147    5.6379 H   0  0  0  0  0  0
   -6.4201   -9.6709    5.5434 H   0  0  0  0  0  0
   -5.1090  -10.5198    7.9591 H   0  0  0  0  0  0
   -7.9477  -11.2788    7.9530 H   0  0  0  0  0  0
   -6.8345  -12.6757    8.1432 H   0  0  0  0  0  0
   -8.6182  -10.2976   10.2319 H   0  0  0  0  0  0
   -4.1590  -12.5064    9.2007 H   0  0  0  0  0  0
   -5.1346  -10.7783   13.8551 H   0  0  0  0  0  0
   -2.4989  -12.6964   11.0550 H   0  0  0  0  0  0
   -2.9290  -11.8751   13.3153 H   0  0  0  0  0  0
   -3.9658  -10.3388    5.7898 H   0  0  0  0  0  0
   -3.0810  -11.4203    3.9487 H   0  0  0  0  0  0
   -2.4599  -13.9154    4.3383 H   0  0  0  0  0  0
   -1.9052  -12.7596    5.5965 H   0  0  0  0  0  0
   -4.7458  -15.6780    6.4734 H   0  0  0  0  0  0
   -5.3531  -10.9237    3.0535 H   0  0  0  0  0  0
   -7.0403  -11.6322    1.6707 H   0  0  0  0  0  0
   -6.0135  -12.9418    0.0857 H   0  0  0  0  0  0
   -4.9933  -13.7479    1.3250 H   0  0  0  0  0  0
   -7.8130  -15.8608   -0.5761 H   0  0  0  0  0  0
   -9.4595  -14.2548    3.0640 H   0  0  0  0  0  0
  1  2  1  0  0  0
  1123  1  0  0  0
  1124  1  0  0  0
  1125  1  0  0  0
  2  5  1  0  0  0
  2  3  1  0  0  0
  2126  1  0  0  0
  3  4  2  0  0  0
  3 12  1  0  0  0
  5  6  1  0  0  0
  5127  1  0  0  0
  5128  1  0  0  0
  6  7  2  0  0  0
  6  8  1  0  0  0
  7  9  1  0  0  0
  7129  1  0  0  0
  8 10  2  0  0  0
  8130  1  0  0  0
  9 11  2  0  0  0
  9131  1  0  0  0
 10 11  1  0  0  0
 10132  1  0  0  0
 11133  1  0  0  0
 12 13  1  0  0  0
 12134  1  0  0  0
 13 16  1  0  0  0
 13 14  1  0  0  0
 13135  1  0  0  0
 14 15  2  0  0  0
 14 23  1  0  0  0
 16 17  1  0  0  0
 16136  1  0  0  0
 16137  1  0  0  0
 17 18  1  0  0  0
 17138  1  0  0  0
 17139  1  0  0  0
 18 19  1  0  0  0
 18140  1  0  0  0
 18141  1  0  0  0
 19 20  1  0  0  0
 19142  1  0  0  0
 20 22  2  0  0  0
 20 21  1  0  0  0
 21143  1  0  0  0
 21144  1  0  0  0
 22145  1  0  0  0
 23 24  1  0  0  0
 23146  1  0  0  0
 24 27  1  0  0  0
 24 25  1  0  0  0
 24147  1  0  0  0
 25 26  2  0  0  0
 25 35  1  0  0  0
 27 28  1  0  0  0
 27148  1  0  0  0
 27149  1  0  0  0
 28 29  2  0  0  0
 28 30  1  0  0  0
 29 31  1  0  0  0
 29150  1  0  0  0
 30 32  2  0  0  0
 30151  1  0  0  0
 31 33  2  0  0  0
 31152  1  0  0  0
 32 33  1  0  0  0
 32153  1  0  0  0
 33 34  1  0  0  0
 34154  1  0  0  0
 35 36  1  0  0  0
 35155  1  0  0  0
 36 39  1  0  0  0
 36 37  1  0  0  0
 36156  1  0  0  0
 37 38  2  0  0  0
 37 47  1  0  0  0
 39 40  1  0  0  0
 39157  1  0  0  0
 39158  1  0  0  0
 40 41  2  0  0  0
 40 42  1  0  0  0
 41 43  1  0  0  0
 41159  1  0  0  0
 42 44  2  0  0  0
 42160  1  0  0  0
 43 45  2  0  0  0
 43161  1  0  0  0
 44 45  1  0  0  0
 44162  1  0  0  0
 45 46  1  0  0  0
 46163  1  0  0  0
 47 48  1  0  0  0
 47164  1  0  0  0
 48 51  1  0  0  0
 48 49  1  0  0  0
 48165  1  0  0  0
 49 50  2  0  0  0
 49 56  1  0  0  0
 51 52  1  0  0  0
 51166  1  0  0  0
 51167  1  0  0  0
 52 53  1  0  0  0
 52168  1  0  0  0
 52169  1  0  0  0
 53 55  1  0  0  0
 53 54  2  0  0  0
 55170  1  0  0  0
 56 57  1  0  0  0
 56171  1  0  0  0
 57 60  1  0  0  0
 57 58  1  0  0  0
 57172  1  0  0  0
 58 59  2  0  0  0
 58 62  1  0  0  0
 60 61  1  0  0  0
 60173  1  0  0  0
 60174  1  0  0  0
 61175  1  0  0  0
 62 63  1  0  0  0
 62176  1  0  0  0
 63 66  1  0  0  0
 63 64  1  0  0  0
 63177  1  0  0  0
 64 65  2  0  0  0
 64 68  1  0  0  0
 66 67  1  0  0  0
 66178  1  0  0  0
 66179  1  0  0  0
 67180  1  0  0  0
 68 69  1  0  0  0
 68181  1  0  0  0
 69 72  1  0  0  0
 69 70  1  0  0  0
 69182  1  0  0  0
 70 71  2  0  0  0
 70 76  1  0  0  0
 72 73  1  0  0  0
 72183  1  0  0  0
 72184  1  0  0  0
 73 74  1  0  0  0
 73 75  1  0  0  0
 73185  1  0  0  0
 74186  1  0  0  0
 74187  1  0  0  0
 74188  1  0  0  0
 75189  1  0  0  0
 75190  1  0  0  0
 75191  1  0  0  0
 76 77  1  0  0  0
 76192  1  0  0  0
 77 80  1  0  0  0
 77 78  1  0  0  0
 77193  1  0  0  0
 78 79  2  0  0  0
 78 85  1  0  0  0
 80 81  1  0  0  0
 80194  1  0  0  0
 80195  1  0  0  0
 81 82  1  0  0  0
 81196  1  0  0  0
 81197  1  0  0  0
 82 84  1  0  0  0
 82 83  2  0  0  0
 84198  1  0  0  0
 85 86  1  0  0  0
 85 91  1  0  0  0
 86 87  1  0  0  0
 86 89  1  0  0  0
 86199  1  0  0  0
 87 88  2  0  0  0
 87 92  1  0  0  0
 89 90  1  0  0  0
 89200  1  0  0  0
 89201  1  0  0  0
 90 91  1  0  0  0
 90202  1  0  0  0
 90203  1  0  0  0
 91204  1  0  0  0
 91205  1  0  0  0
 92 93  1  0  0  0
 92206  1  0  0  0
 93 96  1  0  0  0
 93 94  1  0  0  0
 93207  1  0  0  0
 94 95  2  0  0  0
 94106  1  0  0  0
 96 97  1  0  0  0
 96208  1  0  0  0
 96209  1  0  0  0
 97 98  2  0  0  0
 97 99  1  0  0  0
 98100  1  0  0  0
 98210  1  0  0  0
 99102  2  0  0  0
 99101  1  0  0  0
100101  1  0  0  0
101103  2  0  0  0
102104  1  0  0  0
102211  1  0  0  0
103105  1  0  0  0
103212  1  0  0  0
104105  2  0  0  0
104213  1  0  0  0
105214  1  0  0  0
106107  1  0  0  0
106215  1  0  0  0
107110  1  0  0  0
107108  1  0  0  0
107216  1  0  0  0
108109  2  0  0  0
108114  1  0  0  0
110111  1  0  0  0
110217  1  0  0  0
110218  1  0  0  0
111112  2  0  0  0
111113  1  0  0  0
113219  1  0  0  0
114115  1  0  0  0
114220  1  0  0  0
115118  1  0  0  0
115116  1  0  0  0
115221  1  0  0  0
116117  2  0  0  0
116122  1  0  0  0
118119  1  0  0  0
118222  1  0  0  0
118223  1  0  0  0
119120  2  0  0  0
119121  1  0  0  0
121224  1  0  0  0
122225  1  0  0  0
M  CHG  1   1   1
M  END
> <s_m_source_file>
../1rgj_ligand.sdf

> <i_m_source_file_index>
1

> <s_epik_input>
W2NIXTFbY0hdW2NIXVtjSF1bY0hdYzFbQ0gyXVtDQEhdKFtOSDMrXSlDKD1PKVtOSF1bQ0BASF0oW0NIMl1bQ0gyXVtDSDJdW05IXS9DKFtOSDJdKT1OXFtIXSlDKD1PKVtOSF1bQ0BASF0oW0NIMl1jMltjSF1bY0hdYyhbT0hdKVtjSF1bY0hdMilDKD1PKVtOSF1bQ0BASF0oW0NIMl1jM1tjSF1bY0hdYyhbT0hdKVtjSF1bY0hdMylDKD1PKVtOSF1bQ0BASF0oW0NIMl1bQ0gyXUMoPU8pW09IXSlDKD1PKVtOSF1bQ0BASF0oW0NIMl1bT0hdKUMoPU8pW05IXVtDQEBIXShbQ0gyXVtPSF0pQyg9TylbTkhdW0NAQEhdKFtDSDJdW0NIXShbQ0gzXSlbQ0gzXSlDKD1PKVtOSF1bQ0BASF0oW0NIMl1bQ0gyXUMoPU8pW09IXSlDKD1PKU40W0NAQEhdKFtDSDJdW0NIMl1bQ0gyXTQpQyg9TylbTkhdW0NASF0oQyg9TylbTkhdW0NAQEhdKFtDSDJdQyg9TylbT0hdKUMoPU8pW05IXVtDQEhdKEMoPU8pW09IXSlbQ0gyXUMoPU8pW09IXSlbQ0gyXWM1W2NIXVtuSF1jKGM1NilbY0hdW2NIXVtjSF1bY0hdNg==

> <s_epik_cmdline>
J2VwaWtfYXBwJywgJy1pbWFlJywgJ2xpZ2FuZF9wcm8ubWFlJywgJy1vbWFlJywgJ2xpZ2FuZF9wcmVwLm1hZScsICctbXMnLCAnMScsICctcGgnLCAnNycsICctcGh0JywgJzAuNScsICctbnQn

> <s_epik_pKa_notes>
Molecule size exceeds maximum supported for generating protonation states

> <s_epik_Chemistry_Notes>
This compound has an imine and may undergo hydrolysis.

$$$$
