1rgk_ligand
                    3D
 Schrodinger Suite 2020-3.
 35 37  0  0  1  0            999 V2000
   19.7920   13.7520    1.2250 P   0  0  0  0  0  0
   20.8270   14.5940    1.8960 O   0  0  0  0  0  0
   19.7170   12.3620    1.7990 O   0  5  0  0  0  0
   18.4580   14.4390    1.1070 O   0  5  0  0  0  0
   24.9700   13.4850   -0.9810 O   0  0  0  0  0  0
   24.5220   14.2450   -2.1090 C   0  0  0  0  0  0
   23.1270   13.8080   -2.5000 C   0  0  1  0  0  0
   22.9760   12.3730   -2.2650 O   0  0  0  0  0  0
   22.0030   14.4660   -1.7040 C   0  0  1  0  0  0
   20.9330   14.7360   -2.5910 O   0  0  0  0  0  0
   21.5990   13.3690   -0.7050 C   0  0  1  0  0  0
   20.2570   13.5510   -0.2960 O   0  0  0  0  0  0
   21.7400   12.1560   -1.6280 C   0  0  2  0  0  0
   21.8020   10.8520   -0.9780 N   0  0  0  0  0  0
   22.5210   10.6580    0.1690 C   0  0  0  0  0  0
   22.4930    9.4040    0.6080 N   0  0  0  0  0  0
   21.6930    8.7420   -0.3220 C   0  0  0  0  0  0
   21.2660    7.3980   -0.4120 C   0  0  0  0  0  0
   21.6000    6.4780    0.5070 N   0  0  0  0  0  0
   20.4860    7.0540   -1.4610 N   0  0  0  0  0  0
   20.1470    7.9990   -2.3500 C   0  0  0  0  0  0
   20.4790    9.2980   -2.3670 N   0  0  0  0  0  0
   21.2690    9.6090   -1.3200 C   0  0  0  0  0  0
   25.9681   13.6675   -0.5563 H   0  0  0  0  0  0
   24.5089   15.3138   -1.8492 H   0  0  0  0  0  0
   25.2050   14.0818   -2.9557 H   0  0  0  0  0  0
   23.0370   14.0629   -3.5663 H   0  0  0  0  0  0
   22.2333   15.4430   -1.2540 H   0  0  0  0  0  0
   21.0481   15.4981   -3.3758 H   0  0  0  0  0  0
   22.1113   13.3266    0.2675 H   0  0  0  0  0  0
   20.8879   12.0632   -2.3174 H   0  0  0  0  0  0
   23.0650   11.4557    0.6748 H   0  0  0  0  0  0
   22.2348    6.7584    1.3605 H   0  0  0  0  0  0
   21.2389    5.4438    0.4065 H   0  0  0  0  0  0
   19.5142    7.6651   -3.1723 H   0  0  0  0  0  0
  1  2  2  0  0  0
  1  3  1  0  0  0
  1  4  1  0  0  0
  1 12  1  0  0  0
  5  6  1  0  0  0
  5 24  1  0  0  0
  6  7  1  0  0  0
  6 25  1  0  0  0
  6 26  1  0  0  0
  7  8  1  0  0  0
  7  9  1  0  0  0
  7 27  1  0  0  0
  8 13  1  0  0  0
  9 10  1  0  0  0
  9 11  1  0  0  0
  9 28  1  0  0  0
 10 29  1  0  0  0
 11 12  1  0  0  0
 11 13  1  0  0  0
 11 30  1  0  0  0
 13 14  1  0  0  0
 13 31  1  0  0  0
 14 15  1  0  0  0
 14 23  1  0  0  0
 15 16  2  0  0  0
 15 32  1  0  0  0
 16 17  1  0  0  0
 17 18  2  0  0  0
 17 23  1  0  0  0
 18 19  1  0  0  0
 18 20  1  0  0  0
 19 33  1  0  0  0
 19 34  1  0  0  0
 20 21  2  0  0  0
 21 22  1  0  0  0
 21 35  1  0  0  0
 22 23  2  0  0  0
M  CHG  2   3  -1   4  -1
M  END
> <s_m_source_file>
../1rgk_ligand.sdf

> <i_m_source_file_index>
1

> <s_epik_input>
Tz1QKFtPSF0pKFtPSF0pT1tDQEhdKFtDQEBIXTFbT0hdKVtDQEBIXShPW0NAQEhdMVtDSDJdW09IXSluKFtjSF1uMiljKGMyMyluW2NIXW5jM1tOSDJd

> <s_epik_cmdline>
J2VwaWtfYXBwJywgJy1pbWFlJywgJ2xpZ2FuZF9wcm8ubWFlJywgJy1vbWFlJywgJ2xpZ2FuZF9wcmVwLm1hZScsICctbXMnLCAnMScsICctcGgnLCAnNycsICctcGh0JywgJzAuNScsICctbnQn

> <r_lp_tautomer_probability>
0.999997216410988

> <r_epik_Ionization_Penalty>
  0.0698

> <r_epik_Ionization_Penalty_Charging>
  0.0692

> <r_epik_Ionization_Penalty_Neutral>
  0.0006

> <r_epik_State_Penalty>
  0.0606

> <r_epik_Charging_Adjusted_Penalty>
0.129879144666702

> <i_epik_Tot_Q>
-2

> <i_epik_Tot_abs_Q>
2

> <s_epik_Chemistry_Notes>
This compound contains an acetal/aminal-like group ( X-CH(R)-Y where X, Y are N, S, or O) that may be acid/base labile, releasing an aldehyde.

$$$$
