1rgl_ligand
                    3D
 Schrodinger Suite 2020-3.
 36 38  0  0  1  0            999 V2000
   19.9730   13.7230    1.2210 P   0  0  0  0  0  0
   21.0390   14.4190    2.0320 O   0  5  0  0  0  0
   19.7390   12.3150    1.6690 O   0  0  0  0  0  0
   18.7110   14.5160    1.0680 O   0  5  0  0  0  0
   25.9810   11.8310   -1.7380 O   0  0  0  0  0  0
   24.9080   12.2890   -0.8550 C   0  0  0  0  0  0
   23.8590   13.1470   -1.5770 C   0  0  1  0  0  0
   22.9950   12.2990   -2.3790 O   0  0  0  0  0  0
   22.9060   13.9170   -0.6690 C   0  0  1  0  0  0
   22.5150   15.1310   -1.3260 O   0  0  0  0  0  0
   21.7510   12.9170   -0.4870 C   0  0  1  0  0  0
   20.5270   13.5590   -0.2440 O   0  0  0  0  0  0
   21.6750   12.3280   -1.8910 C   0  0  2  0  0  0
   21.1660   10.9690   -1.9760 N   0  0  0  0  0  0
   20.2250   10.4820   -2.8690 C   0  0  0  0  0  0
   20.0050    9.1960   -2.7140 N   0  0  0  0  0  0
   20.8660    8.8110   -1.6670 C   0  0  0  0  0  0
   21.0770    7.5400   -1.0480 C   0  0  0  0  0  0
   20.5250    6.4590   -1.2980 O   0  0  0  0  0  0
   22.0420    7.5970   -0.0320 N   0  0  0  0  0  0
   22.7150    8.7360    0.3410 C   0  0  0  0  0  0
   23.6110    8.6010    1.3260 N   0  0  0  0  0  0
   22.5300    9.9260   -0.2180 N   0  0  0  0  0  0
   21.5890    9.8940   -1.2050 C   0  0  0  0  0  0
   26.7940   11.2073   -1.3379 H   0  0  0  0  0  0
   24.3892   11.4188   -0.4266 H   0  0  0  0  0  0
   25.3350   12.8972   -0.0440 H   0  0  0  0  0  0
   24.4349   13.8489   -2.1979 H   0  0  0  0  0  0
   23.3126   14.2982    0.2793 H   0  0  0  0  0  0
   23.2584   15.9205   -1.5107 H   0  0  0  0  0  0
   21.8441   12.2407    0.3755 H   0  0  0  0  0  0
   21.0042   12.9322   -2.5194 H   0  0  0  0  0  0
   19.7235   11.0969   -3.6163 H   0  0  0  0  0  0
   22.3056    6.6876    0.5279 H   0  0  0  0  0  0
   23.7699    7.6183    1.7941 H   0  0  0  0  0  0
   24.1885    9.4727    1.6675 H   0  0  0  0  0  0
  1  2  1  0  0  0
  1  3  2  0  0  0
  1  4  1  0  0  0
  1 12  1  0  0  0
  5  6  1  0  0  0
  5 25  1  0  0  0
  6  7  1  0  0  0
  6 26  1  0  0  0
  6 27  1  0  0  0
  7  8  1  0  0  0
  7  9  1  0  0  0
  7 28  1  0  0  0
  8 13  1  0  0  0
  9 10  1  0  0  0
  9 11  1  0  0  0
  9 29  1  0  0  0
 10 30  1  0  0  0
 11 12  1  0  0  0
 11 13  1  0  0  0
 11 31  1  0  0  0
 13 14  1  0  0  0
 13 32  1  0  0  0
 14 15  1  0  0  0
 14 24  1  0  0  0
 15 16  2  0  0  0
 15 33  1  0  0  0
 16 17  1  0  0  0
 17 18  1  0  0  0
 17 24  2  0  0  0
 18 19  2  0  0  0
 18 20  1  0  0  0
 20 21  1  0  0  0
 20 34  1  0  0  0
 21 22  1  0  0  0
 21 23  2  0  0  0
 22 35  1  0  0  0
 22 36  1  0  0  0
 23 24  1  0  0  0
M  CHG  2   2  -1   4  -1
M  END
> <s_m_source_file>
../1rgl_ligand.sdf

> <i_m_source_file_index>
1

> <s_epik_input>
W09IXVAoPU8pKFtPSF0pT1tDQEhdKFtDQEBIXTFbT0hdKVtDQEBIXShPW0NAQEhdMVtDSDJdW09IXSluKFtjSF1uMiljKGMyMyluYyhbTkgyXSlbbkhdYzM9Tw==

> <s_epik_cmdline>
J2VwaWtfYXBwJywgJy1pbWFlJywgJ2xpZ2FuZF9wcm8ubWFlJywgJy1vbWFlJywgJ2xpZ2FuZF9wcmVwLm1hZScsICctbXMnLCAnMScsICctcGgnLCAnNycsICctcGh0JywgJzAuNScsICctbnQn

> <r_lp_tautomer_probability>
0.999940409345307

> <r_epik_Ionization_Penalty>
  0.0708

> <r_epik_Ionization_Penalty_Charging>
  0.0707

> <r_epik_Ionization_Penalty_Neutral>
  0.0001

> <r_epik_State_Penalty>
  0.0606

> <r_epik_Charging_Adjusted_Penalty>
0.131326667537995

> <i_epik_Tot_Q>
-2

> <i_epik_Tot_abs_Q>
2

> <s_epik_Chemistry_Notes>
This compound contains an acetal/aminal-like group ( X-CH(R)-Y where X, Y are N, S, or O) that may be acid/base labile, releasing an aldehyde.

$$$$
