1rhj_ligand
                    3D
 Schrodinger Suite 2020-3.
 88 89  0  0  1  0            999 V2000
  -76.3660   37.3190   79.5680 C   0  0  0  0  0  0
  -77.8220   36.9900   79.9480 C   0  0  0  0  0  0
  -78.5830   36.2350   78.8410 C   0  0  0  0  0  0
  -79.7460   35.3980   79.4070 C   0  0  0  0  0  0
  -79.8080   33.9890   78.7840 C   0  0  0  0  0  0
  -80.4810   32.9510   79.7320 C   0  0  0  0  0  0
  -81.6440   32.1230   79.2760 N   0  3  2  0  0  0
  -81.2650   31.2510   78.1230 C   0  0  0  0  0  0
  -82.8560   32.9410   78.9310 C   0  0  0  0  0  0
  -84.2740   32.4330   79.3750 C   0  0  1  0  0  0
  -84.1730   31.3950   78.7340 O   0  0  0  0  0  0
  -84.5520   32.4560   80.8810 C   0  0  1  0  0  0
  -84.8690   33.8330   81.2520 N   0  0  0  0  0  0
  -85.7800   31.5450   81.2190 C   0  0  0  0  0  0
  -86.0070   31.1610   82.6880 C   0  0  0  0  0  0
  -87.2050   31.1050   83.0980 O   0  5  0  0  0  0
  -85.0100   30.8910   83.4120 O   0  0  0  0  0  0
  -84.1700   34.5540   82.1450 C   0  0  0  0  0  0
  -84.6060   36.0280   82.3160 C   0  0  2  0  0  0
  -83.2400   34.1000   82.8080 O   0  0  0  0  0  0
  -84.0840   36.8430   81.1040 C   0  0  0  0  0  0
  -84.8500   38.1590   80.8700 C   0  0  0  0  0  0
  -84.2290   36.7310   83.6010 N   0  0  0  0  0  0
  -84.5990   37.4160   85.9360 C   0  0  0  0  0  0
  -83.3660   38.1290   85.9050 N   0  0  0  0  0  0
  -82.5310   38.1770   84.7530 C   0  0  0  0  0  0
  -82.9300   37.5030   83.6430 C   0  0  0  0  0  0
  -85.0770   36.6590   84.6890 C   0  0  0  0  0  0
  -86.1500   36.0580   84.7260 O   0  0  0  0  0  0
  -81.2700   39.0450   84.8490 C   0  0  0  0  0  0
  -80.3210   38.8120   83.6400 C   0  0  0  0  0  0
  -80.5010   38.7270   86.1480 C   0  0  0  0  0  0
  -81.6830   40.5300   84.8730 C   0  0  0  0  0  0
  -85.2860   37.4620   87.0990 N   0  0  0  0  0  0
  -85.1200   38.4330   88.1820 C   0  0  0  0  0  0
  -85.7240   39.7790   87.7590 C   0  0  0  0  0  0
  -87.1370   40.2250   87.5540 C   0  0  0  0  0  0
  -87.1010   41.5030   87.1880 N   0  0  0  0  0  0
  -85.7430   41.9140   87.1440 O   0  0  0  0  0  0
  -84.9350   40.8190   87.5030 N   0  0  0  0  0  0
  -88.4450   39.4560   87.7010 C   0  0  0  0  0  0
  -75.8827   37.8552   80.3980 H   0  0  0  0  0  0
  -76.3559   37.9511   78.6678 H   0  0  0  0  0  0
  -75.8197   36.3857   79.3669 H   0  0  0  0  0  0
  -77.8321   36.3579   80.8482 H   0  0  0  0  0  0
  -78.3683   37.9233   80.1492 H   0  0  0  0  0  0
  -78.9979   36.9577   78.1230 H   0  0  0  0  0  0
  -77.8929   35.5553   78.3197 H   0  0  0  0  0  0
  -79.6215   35.2853   80.4941 H   0  0  0  0  0  0
  -80.6991   35.9059   79.1978 H   0  0  0  0  0  0
  -80.3903   34.0257   77.8515 H   0  0  0  0  0  0
  -78.7881   33.6393   78.5658 H   0  0  0  0  0  0
  -79.7389   32.1990   80.0383 H   0  0  0  0  0  0
  -80.8701   33.4661   80.6226 H   0  0  0  0  0  0
  -81.9150   31.4873   80.1318 H   0  0  0  0  0  0
  -80.3773   30.6579   78.3881 H   0  0  0  0  0  0
  -81.0392   31.8780   77.2478 H   0  0  0  0  0  0
  -82.0996   30.5753   77.8845 H   0  0  0  0  0  0
  -82.7671   33.9383   79.3866 H   0  0  0  0  0  0
  -82.9310   33.0425   77.8383 H   0  0  0  0  0  0
  -85.2455   32.8299   79.0454 H   0  0  0  0  0  0
  -83.9725   31.4334   77.6531 H   0  0  0  0  0  0
  -83.6592   32.1438   81.4426 H   0  0  0  0  0  0
  -85.7275   34.3431   80.7908 H   0  0  0  0  0  0
  -86.7070   32.0489   80.9079 H   0  0  0  0  0  0
  -85.6853   30.5885   80.6840 H   0  0  0  0  0  0
  -85.7025   35.9919   82.3965 H   0  0  0  0  0  0
  -83.0271   37.1022   81.2643 H   0  0  0  0  0  0
  -84.1790   36.2404   80.1886 H   0  0  0  0  0  0
  -84.4262   38.6800   79.9988 H   0  0  0  0  0  0
  -84.7594   38.7992   81.7599 H   0  0  0  0  0  0
  -85.9113   37.9374   80.6843 H   0  0  0  0  0  0
  -82.2952   37.5193   82.7571 H   0  0  0  0  0  0
  -80.0178   37.7550   83.6103 H   0  0  0  0  0  0
  -79.4288   39.4466   83.7466 H   0  0  0  0  0  0
  -80.8449   39.0695   82.7077 H   0  0  0  0  0  0
  -80.1991   37.6692   86.1457 H   0  0  0  0  0  0
  -81.1496   38.9214   87.0149 H   0  0  0  0  0  0
  -79.6061   39.3636   86.2095 H   0  0  0  0  0  0
  -82.2332   40.7725   83.9519 H   0  0  0  0  0  0
  -80.7835   41.1597   84.9394 H   0  0  0  0  0  0
  -82.3270   40.7174   85.7449 H   0  0  0  0  0  0
  -86.0358   36.6621   87.1877 H   0  0  0  0  0  0
  -85.6334   38.0678   89.0837 H   0  0  0  0  0  0
  -84.0491   38.5629   88.3970 H   0  0  0  0  0  0
  -88.2300   38.4227   88.0108 H   0  0  0  0  0  0
  -88.9753   39.4470   86.7373 H   0  0  0  0  0  0
  -89.0735   39.9434   88.4609 H   0  0  0  0  0  0
  1  2  1  0  0  0
  1 42  1  0  0  0
  1 43  1  0  0  0
  1 44  1  0  0  0
  2  3  1  0  0  0
  2 45  1  0  0  0
  2 46  1  0  0  0
  3  4  1  0  0  0
  3 47  1  0  0  0
  3 48  1  0  0  0
  4  5  1  0  0  0
  4 49  1  0  0  0
  4 50  1  0  0  0
  5  6  1  0  0  0
  5 51  1  0  0  0
  5 52  1  0  0  0
  6  7  1  0  0  0
  6 53  1  0  0  0
  6 54  1  0  0  0
  7  8  1  0  0  0
  7  9  1  0  0  0
  7 55  1  0  0  0
  8 56  1  0  0  0
  8 57  1  0  0  0
  8 58  1  0  0  0
  9 10  1  0  0  0
  9 59  1  0  0  0
  9 60  1  0  0  0
 10 11  1  0  0  0
 10 12  1  0  0  0
 10 61  1  0  0  0
 11 62  1  0  0  0
 12 13  1  0  0  0
 12 14  1  0  0  0
 12 63  1  0  0  0
 13 18  1  0  0  0
 13 64  1  0  0  0
 14 15  1  0  0  0
 14 65  1  0  0  0
 14 66  1  0  0  0
 15 16  1  0  0  0
 15 17  2  0  0  0
 18 19  1  0  0  0
 18 20  2  0  0  0
 19 21  1  0  0  0
 19 23  1  0  0  0
 19 67  1  0  0  0
 21 22  1  0  0  0
 21 68  1  0  0  0
 21 69  1  0  0  0
 22 70  1  0  0  0
 22 71  1  0  0  0
 22 72  1  0  0  0
 23 27  1  0  0  0
 23 28  1  0  0  0
 24 25  2  0  0  0
 24 28  1  0  0  0
 24 34  1  0  0  0
 25 26  1  0  0  0
 26 27  2  0  0  0
 26 30  1  0  0  0
 27 73  1  0  0  0
 28 29  2  0  0  0
 30 31  1  0  0  0
 30 32  1  0  0  0
 30 33  1  0  0  0
 31 74  1  0  0  0
 31 75  1  0  0  0
 31 76  1  0  0  0
 32 77  1  0  0  0
 32 78  1  0  0  0
 32 79  1  0  0  0
 33 80  1  0  0  0
 33 81  1  0  0  0
 33 82  1  0  0  0
 34 35  1  0  0  0
 34 83  1  0  0  0
 35 36  1  0  0  0
 35 84  1  0  0  0
 35 85  1  0  0  0
 36 37  1  0  0  0
 36 40  2  0  0  0
 37 38  2  0  0  0
 37 41  1  0  0  0
 38 39  1  0  0  0
 39 40  1  0  0  0
 41 86  1  0  0  0
 41 87  1  0  0  0
 41 88  1  0  0  0
M  CHG  2   7   1  16  -1
M  END
> <s_m_source_file>
../1rhj_ligand.sdf

> <i_m_source_file_index>
1

> <s_epik_input>
W0NIM11bQ0gyXVtDSDJdW0NIMl1bQ0gyXVtDSDJdW05ASCtdKFtDSDNdKVtDSDJdW0NAQEhdKFtPSF0pW0NASF0oW0NIMl1DKD1PKVtPSF0pW05IXUMoPU8pW0NASF0oW0NIMl1bQ0gzXSluMVtjSF1jKEMoW0NIM10pKFtDSDNdKVtDSDNdKW5jKGMxPU8pW05IXVtDSDJdYzJjKFtDSDNdKW5vbjI=

> <s_epik_cmdline>
J2VwaWtfYXBwJywgJy1pbWFlJywgJ2xpZ2FuZF9wcm8ubWFlJywgJy1vbWFlJywgJ2xpZ2FuZF9wcmVwLm1hZScsICctbXMnLCAnMScsICctcGgnLCAnNycsICctcGh0JywgJzAuNScsICctbnQn

> <r_lp_tautomer_probability>
1

> <r_epik_Ionization_Penalty>
  0.0493

> <r_epik_Ionization_Penalty_Charging>
  0.0439

> <r_epik_Ionization_Penalty_Neutral>
  0.0054

> <r_epik_State_Penalty>
  0.0361

> <r_epik_Charging_Adjusted_Penalty>
0.0799853508804542

> <i_epik_Tot_Q>
0

> <i_epik_Tot_abs_Q>
2

$$$$
