1rhk_ligand
                    3D
 Schrodinger Suite 2020-3.
 83 83  0  0  1  0            999 V2000
   41.7610   98.6430   26.9710 C   0  0  0  0  0  0
   40.5730   98.5920   26.6670 O   0  0  0  0  0  0
   42.1700   98.8670   28.4120 C   0  0  0  0  0  0
   42.7230   98.4790   26.0680 N   0  0  0  0  0  0
   42.3460   98.2710   24.6680 C   0  0  2  0  0  0
   41.9070   96.8480   24.3650 C   0  0  0  0  0  0
   42.5150   95.8870   24.8410 O   0  0  0  0  0  0
   43.4760   98.6390   23.7120 C   0  0  0  0  0  0
   43.9090  100.0980   23.8290 C   0  0  0  0  0  0
   43.0610  101.0080   23.9970 O   0  5  0  0  0  0
   45.1310  100.3190   23.7340 O   0  0  0  0  0  0
   40.8330   96.7340   23.5880 N   0  0  0  0  0  0
   40.2810   95.4460   23.1870 C   0  0  2  0  0  0
   39.9170   95.4700   21.7160 C   0  0  0  0  0  0
   39.8920   96.5530   21.1290 O   0  0  0  0  0  0
   39.0520   95.1300   23.9970 C   0  0  0  0  0  0
   39.3980   94.9070   25.4380 C   0  0  0  0  0  0
   38.2010   94.4600   26.2270 C   0  0  0  0  0  0
   37.5870   93.4300   25.8560 O   0  5  0  0  0  0
   37.8910   95.1250   27.2310 O   0  0  0  0  0  0
   39.6690   94.2950   21.1170 N   0  0  0  0  0  0
   39.3050   94.2260   19.6920 C   0  0  2  0  0  0
   37.8340   93.8610   19.3640 C   0  0  0  0  0  0
   37.1660   93.2180   20.1680 O   0  0  0  0  0  0
   40.2490   93.2540   18.9100 C   0  0  0  0  0  0
   41.5930   93.9220   18.6850 C   0  0  0  0  0  0
   40.4390   91.9400   19.6700 C   0  0  0  0  0  0
   37.3240   94.2850   18.2040 N   0  0  0  0  0  0
   35.9680   93.9230   17.8330 C   0  0  2  0  0  0
   35.9790   92.9190   16.7400 C   0  0  2  0  0  0
   34.6600   92.8420   16.2670 O   0  0  0  0  0  0
   35.1310   95.1220   17.3830 C   0  0  0  0  0  0
   34.5150   95.8790   18.5370 C   0  0  0  0  0  0
   34.1710   95.2610   19.5560 O   0  0  0  0  0  0
   34.3680   97.1070   18.4140 O   0  5  0  0  0  0
   36.3740   91.5900   17.3790 C   0  0  0  0  0  0
   36.1520   90.4640   16.4100 C   0  0  0  0  0  0
   36.6000   89.1340   16.9940 C   0  0  0  0  0  0
   36.6030   87.9890   16.0120 C   0  0  0  0  0  0
   37.4550   86.9090   16.1960 C   0  0  0  0  0  0
   37.4850   85.8630   15.2850 C   0  0  0  0  0  0
   36.6530   85.8900   14.1740 C   0  0  0  0  0  0
   35.7930   86.9640   13.9830 C   0  0  0  0  0  0
   35.7720   88.0020   14.8980 C   0  0  0  0  0  0
   41.2706   98.9846   29.0343 H   0  0  0  0  0  0
   42.7854   99.7761   28.4814 H   0  0  0  0  0  0
   42.7510   98.0030   28.7668 H   0  0  0  0  0  0
   43.7848   98.4972   26.3548 H   0  0  0  0  0  0
   41.4887   98.9509   24.5548 H   0  0  0  0  0  0
   44.3549   98.0128   23.9249 H   0  0  0  0  0  0
   43.1486   98.4710   22.6754 H   0  0  0  0  0  0
   40.3589   97.6659   23.2463 H   0  0  0  0  0  0
   41.0632   94.6976   23.3824 H   0  0  0  0  0  0
   38.3437   95.9690   23.9311 H   0  0  0  0  0  0
   38.5781   94.2184   23.6039 H   0  0  0  0  0  0
   40.1744   94.1314   25.5129 H   0  0  0  0  0  0
   39.7730   95.8445   25.8744 H   0  0  0  0  0  0
   39.7419   93.3723   21.7113 H   0  0  0  0  0  0
   39.4412   95.2853   19.4288 H   0  0  0  0  0  0
   39.8103   93.0116   17.9308 H   0  0  0  0  0  0
   41.4467   94.8653   18.1383 H   0  0  0  0  0  0
   42.2405   93.2544   18.0976 H   0  0  0  0  0  0
   42.0659   94.1305   19.6560 H   0  0  0  0  0  0
   39.4604   91.4633   19.8284 H   0  0  0  0  0  0
   40.9093   92.1440   20.6432 H   0  0  0  0  0  0
   41.0839   91.2679   19.0848 H   0  0  0  0  0  0
   37.9308   94.9079   17.5304 H   0  0  0  0  0  0
   35.5521   93.4859   18.7527 H   0  0  0  0  0  0
   36.6143   93.1921   15.8846 H   0  0  0  0  0  0
   34.2013   93.7112   15.7729 H   0  0  0  0  0  0
   35.7672   95.8244   16.8245 H   0  0  0  0  0  0
   34.3119   94.7752   16.7359 H   0  0  0  0  0  0
   37.4372   91.6198   17.6597 H   0  0  0  0  0  0
   35.7623   91.4188   18.2771 H   0  0  0  0  0  0
   35.0815   90.3956   16.1664 H   0  0  0  0  0  0
   36.7259   90.6528   15.4907 H   0  0  0  0  0  0
   37.6266   89.2292   17.3775 H   0  0  0  0  0  0
   35.9266   88.8489   17.8157 H   0  0  0  0  0  0
   38.1091   86.8822   17.0675 H   0  0  0  0  0  0
   38.1604   85.0218   15.4413 H   0  0  0  0  0  0
   36.6745   85.0716   13.4544 H   0  0  0  0  0  0
   35.1358   86.9891   13.1138 H   0  0  0  0  0  0
   35.0943   88.8415   14.7429 H   0  0  0  0  0  0
  1  2  2  0  0  0
  1  3  1  0  0  0
  1  4  1  0  0  0
  3 45  1  0  0  0
  3 46  1  0  0  0
  3 47  1  0  0  0
  4  5  1  0  0  0
  4 48  1  0  0  0
  5  6  1  0  0  0
  5  8  1  0  0  0
  5 49  1  0  0  0
  6  7  2  0  0  0
  6 12  1  0  0  0
  8  9  1  0  0  0
  8 50  1  0  0  0
  8 51  1  0  0  0
  9 10  1  0  0  0
  9 11  2  0  0  0
 12 13  1  0  0  0
 12 52  1  0  0  0
 13 14  1  0  0  0
 13 16  1  0  0  0
 13 53  1  0  0  0
 14 15  2  0  0  0
 14 21  1  0  0  0
 16 17  1  0  0  0
 16 54  1  0  0  0
 16 55  1  0  0  0
 17 18  1  0  0  0
 17 56  1  0  0  0
 17 57  1  0  0  0
 18 19  1  0  0  0
 18 20  2  0  0  0
 21 22  1  0  0  0
 21 58  1  0  0  0
 22 23  1  0  0  0
 22 25  1  0  0  0
 22 59  1  0  0  0
 23 24  2  0  0  0
 23 28  1  0  0  0
 25 26  1  0  0  0
 25 27  1  0  0  0
 25 60  1  0  0  0
 26 61  1  0  0  0
 26 62  1  0  0  0
 26 63  1  0  0  0
 27 64  1  0  0  0
 27 65  1  0  0  0
 27 66  1  0  0  0
 28 29  1  0  0  0
 28 67  1  0  0  0
 29 30  1  0  0  0
 29 32  1  0  0  0
 29 68  1  0  0  0
 30 31  1  0  0  0
 30 36  1  0  0  0
 30 69  1  0  0  0
 31 70  1  0  0  0
 32 33  1  0  0  0
 32 71  1  0  0  0
 32 72  1  0  0  0
 33 34  2  0  0  0
 33 35  1  0  0  0
 36 37  1  0  0  0
 36 73  1  0  0  0
 36 74  1  0  0  0
 37 38  1  0  0  0
 37 75  1  0  0  0
 37 76  1  0  0  0
 38 39  1  0  0  0
 38 77  1  0  0  0
 38 78  1  0  0  0
 39 40  2  0  0  0
 39 44  1  0  0  0
 40 41  1  0  0  0
 40 79  1  0  0  0
 41 42  2  0  0  0
 41 80  1  0  0  0
 42 43  1  0  0  0
 42 81  1  0  0  0
 43 44  2  0  0  0
 43 82  1  0  0  0
 44 83  1  0  0  0
M  CHG  3  10  -1  19  -1  35  -1
M  END
> <s_m_source_file>
../1rhk_ligand.sdf

> <i_m_source_file_index>
1

> <s_epik_input>
Tz1DKFtDSDNdKVtOSF1bQ0BASF0oW0NIMl1DKD1PKVtPSF0pQyg9TylbTkhdW0NAQEhdKFtDSDJdW0NIMl1DKD1PKVtPSF0pQyg9TylbTkhdW0NAQEhdKFtDSF0oW0NIM10pW0NIM10pQyg9TylbTkhdW0NAQEhdKFtDSDJdQyg9TylbT0hdKVtDQEhdKFtPSF0pW0NIMl1bQ0gyXVtDSDJdYzFbY0hdW2NIXVtjSF1bY0hdW2NIXTE=

> <s_epik_cmdline>
J2VwaWtfYXBwJywgJy1pbWFlJywgJ2xpZ2FuZF9wcm8ubWFlJywgJy1vbWFlJywgJ2xpZ2FuZF9wcmVwLm1hZScsICctbXMnLCAnMScsICctcGgnLCAnNycsICctcGh0JywgJzAuNScsICctbnQn

> <r_lp_tautomer_probability>
1

> <r_epik_Ionization_Penalty>
  0.0050

> <r_epik_Ionization_Penalty_Charging>
  0.0050

> <r_epik_Ionization_Penalty_Neutral>
  0.0000

> <r_epik_State_Penalty>
 -0.0000

> <r_epik_Charging_Adjusted_Penalty>
0.00502728226454299

> <i_epik_Tot_Q>
-3

> <i_epik_Tot_abs_Q>
3

$$$$
