1rhm_ligand
                    3D
 Schrodinger Suite 2020-3.
 39 40  0  0  1  0            999 V2000
  -44.2300   38.5980   90.0000 C   0  0  0  0  0  0
  -44.2130   39.4770   91.0470 C   0  0  0  0  0  0
  -45.3710   39.7180   91.7550 C   0  0  0  0  0  0
  -46.5280   39.1320   91.4680 N   0  0  0  0  0  0
  -46.5380   38.2710   90.4390 C   0  0  0  0  0  0
  -45.4200   37.9600   89.6710 C   0  0  0  0  0  0
  -45.4580   36.8850   88.6230 C   0  0  0  0  0  0
  -44.4380   36.4160   88.1170 O   0  0  0  0  0  0
  -46.6910   36.5090   88.2860 N   0  0  0  0  0  0
  -46.9760   35.4450   87.3330 C   0  0  1  0  0  0
  -48.1330   34.5600   87.8220 C   0  0  0  0  0  0
  -47.0570   35.8550   85.8100 C   0  0  0  0  0  0
  -47.0660   34.6830   84.9760 O   0  0  0  0  0  0
  -47.8760   33.9770   89.2150 C   0  0  0  0  0  0
  -48.8260   33.5150   89.8880 O   0  5  0  0  0  0
  -46.7120   33.9510   89.6400 O   0  0  0  0  0  0
  -42.1310   42.4560   91.8260 C   0  0  0  0  0  0
  -43.2250   41.6520   91.5830 C   0  0  0  0  0  0
  -43.0400   40.3440   91.2110 C   0  0  0  0  0  0
  -41.7650   39.8270   91.0750 C   0  0  0  0  0  0
  -40.6690   40.6280   91.3180 C   0  0  0  0  0  0
  -40.8560   41.9470   91.6920 C   0  0  0  0  0  0
  -39.7560   42.7850   91.9310 C   0  0  0  0  0  0
  -38.6160   42.2920   91.7780 O   0  0  0  0  0  0
  -39.9900   43.9690   92.2780 O   0  5  0  0  0  0
  -43.3219   38.4001   89.4306 H   0  0  0  0  0  0
  -45.3356   40.4208   92.5874 H   0  0  0  0  0  0
  -47.4809   37.7847   90.1890 H   0  0  0  0  0  0
  -47.5176   37.0497   88.7701 H   0  0  0  0  0  0
  -46.0427   34.8682   87.4123 H   0  0  0  0  0  0
  -49.0561   35.1563   87.8691 H   0  0  0  0  0  0
  -48.2734   33.7214   87.1242 H   0  0  0  0  0  0
  -47.9791   36.4281   85.6331 H   0  0  0  0  0  0
  -46.1853   36.4735   85.5499 H   0  0  0  0  0  0
  -47.1193   34.7867   83.8822 H   0  0  0  0  0  0
  -42.2741   43.4946   92.1242 H   0  0  0  0  0  0
  -44.2329   42.0540   91.6860 H   0  0  0  0  0  0
  -41.6263   38.7880   90.7762 H   0  0  0  0  0  0
  -39.6616   40.2245   91.2161 H   0  0  0  0  0  0
  1  2  2  0  0  0
  1  6  1  0  0  0
  1 26  1  0  0  0
  2  3  1  0  0  0
  2 19  1  0  0  0
  3  4  2  0  0  0
  3 27  1  0  0  0
  4  5  1  0  0  0
  5  6  2  0  0  0
  5 28  1  0  0  0
  6  7  1  0  0  0
  7  8  2  0  0  0
  7  9  1  0  0  0
  9 10  1  0  0  0
  9 29  1  0  0  0
 10 11  1  0  0  0
 10 12  1  0  0  0
 10 30  1  0  0  0
 11 14  1  0  0  0
 11 31  1  0  0  0
 11 32  1  0  0  0
 12 13  1  0  0  0
 12 33  1  0  0  0
 12 34  1  0  0  0
 13 35  1  0  0  0
 14 15  1  0  0  0
 14 16  2  0  0  0
 17 18  2  0  0  0
 17 22  1  0  0  0
 17 36  1  0  0  0
 18 19  1  0  0  0
 18 37  1  0  0  0
 19 20  2  0  0  0
 20 21  1  0  0  0
 20 38  1  0  0  0
 21 22  2  0  0  0
 21 39  1  0  0  0
 22 23  1  0  0  0
 23 24  2  0  0  0
 23 25  1  0  0  0
M  CHG  2  15  -1  25  -1
M  END
> <s_m_source_file>
../1rhm_ligand.sdf

> <i_m_source_file_index>
1

> <s_epik_input>
W2NIXTFbY0hdYyhDKD1PKVtPSF0pW2NIXVtjSF1jMS1jMltjSF1jKFtjSF1uW2NIXTIpQyg9TylbTkhdW0NASF0oW0NIMl1bT0hdKVtDSDJdQyg9TylbT0hd

> <s_epik_cmdline>
J2VwaWtfYXBwJywgJy1pbWFlJywgJ2xpZ2FuZF9wcm8ubWFlJywgJy1vbWFlJywgJ2xpZ2FuZF9wcmVwLm1hZScsICctbXMnLCAnMScsICctcGgnLCAnNycsICctcGh0JywgJzAuNScsICctbnQn

> <r_lp_tautomer_probability>
1

> <r_epik_Ionization_Penalty>
  0.0021

> <r_epik_Ionization_Penalty_Charging>
  0.0021

> <r_epik_Ionization_Penalty_Neutral>
  0.0001

> <r_epik_State_Penalty>
 -0.0000

> <r_epik_Charging_Adjusted_Penalty>
0.00206805354510198

> <i_epik_Tot_Q>
-2

> <i_epik_Tot_abs_Q>
2

$$$$
