1rhq_ligand
                    3D
 Schrodinger Suite 2020-3.
 35 34  0  0  1  0            999 V2000
   50.0410   29.2620   95.7490 C   0  0  0  0  0  0
   50.9980   28.7110   96.2680 O   0  0  0  0  0  0
   49.7010   30.6990   96.1230 C   0  0  0  0  0  0
   49.2650   28.6590   94.8450 N   0  0  0  0  0  0
   49.4730   27.2670   94.4230 C   0  0  2  0  0  0
   49.9000   27.0700   92.9560 C   0  0  0  0  0  0
   49.7400   27.9660   92.1180 O   0  0  0  0  0  0
   48.1880   26.4470   94.6150 C   0  0  0  0  0  0
   47.8250   26.3740   96.0680 C   0  0  0  0  0  0
   47.0640   27.0760   93.8160 C   0  0  0  0  0  0
   50.4320   25.8820   92.6600 N   0  0  0  0  0  0
   50.8500   25.5250   91.3040 C   0  0  2  0  0  0
   49.8620   24.5120   90.6770 C   0  0  0  0  0  0
   50.4120   24.0590   89.4260 O   0  0  0  0  0  0
   52.2580   24.9390   91.3230 C   0  0  0  0  0  0
   53.3190   26.0000   91.2880 C   0  0  0  0  0  0
   53.8240   26.3050   90.2000 O   0  5  0  0  0  0
   53.6430   26.5420   92.3470 O   0  0  0  0  0  0
   50.4197   31.0627   96.8721 H   0  0  0  0  0  0
   48.6842   30.7383   96.5409 H   0  0  0  0  0  0
   49.7535   31.3335   95.2260 H   0  0  0  0  0  0
   48.4429   29.2479   94.4122 H   0  0  0  0  0  0
   50.3012   26.9757   95.0857 H   0  0  0  0  0  0
   48.3396   25.4142   94.2682 H   0  0  0  0  0  0
   48.6520   25.9154   96.6299 H   0  0  0  0  0  0
   46.9172   25.7647   96.1890 H   0  0  0  0  0  0
   47.6395   27.3884   96.4510 H   0  0  0  0  0  0
   47.3490   27.1205   92.7545 H   0  0  0  0  0  0
   46.8748   28.0938   94.1879 H   0  0  0  0  0  0
   46.1525   26.4701   93.9258 H   0  0  0  0  0  0
   50.5517   25.1594   93.4806 H   0  0  0  0  0  0
   50.8485   26.4673   90.7365 H   0  0  0  0  0  0
   48.8910   24.1275   91.0223 H   0  0  0  0  0  0
   52.3973   24.3491   92.2410 H   0  0  0  0  0  0
   52.3970   24.2902   90.4457 H   0  0  0  0  0  0
  1  2  2  0  0  0
  1  3  1  0  0  0
  1  4  1  0  0  0
  3 19  1  0  0  0
  3 20  1  0  0  0
  3 21  1  0  0  0
  4  5  1  0  0  0
  4 22  1  0  0  0
  5  8  1  0  0  0
  5  6  1  0  0  0
  5 23  1  0  0  0
  6  7  2  0  0  0
  6 11  1  0  0  0
  8 10  1  0  0  0
  8  9  1  0  0  0
  8 24  1  0  0  0
  9 25  1  0  0  0
  9 26  1  0  0  0
  9 27  1  0  0  0
 10 28  1  0  0  0
 10 29  1  0  0  0
 10 30  1  0  0  0
 11 12  1  0  0  0
 11 31  1  0  0  0
 12 15  1  0  0  0
 12 13  1  0  0  0
 12 32  1  0  0  0
 13 14  2  0  0  0
 13 33  1  0  0  0
 15 16  1  0  0  0
 15 34  1  0  0  0
 15 35  1  0  0  0
 16 18  2  0  0  0
 16 17  1  0  0  0
M  CHG  1  17  -1
M  END
> <s_m_source_file>
../1rhq_ligand.sdf

> <i_m_source_file_index>
1

> <s_epik_input>
Tz1DKFtDSDNdKVtOSF1bQ0BASF0oW0NIXShbQ0gzXSlbQ0gzXSlDKD1PKVtOSF1bQ0BIXShbQ0hdPU8pW0NIMl1DKD1PKVtPSF0=

> <s_epik_cmdline>
J2VwaWtfYXBwJywgJy1pbWFlJywgJ2xpZ2FuZF9wcm8ubWFlJywgJy1vbWFlJywgJ2xpZ2FuZF9wcmVwLm1hZScsICctbXMnLCAnMScsICctcGgnLCAnNycsICctcGh0JywgJzAuNScsICctbnQn

> <r_lp_tautomer_probability>
1

> <r_epik_Ionization_Penalty>
  0.0007

> <r_epik_Ionization_Penalty_Charging>
  0.0006

> <r_epik_Ionization_Penalty_Neutral>
  0.0001

> <r_epik_State_Penalty>
 -0.0000

> <r_epik_Charging_Adjusted_Penalty>
0.000580850223631419

> <i_epik_Tot_Q>
-1

> <i_epik_Tot_abs_Q>
1

$$$$
