1rhr_ligand
                    3D
 Schrodinger Suite 2020-3.
 81 82  0  0  1  0            999 V2000
   80.9400  -23.6640   99.7520 C   0  0  0  0  0  0
   79.5780  -23.5630   99.3320 C   0  0  0  0  0  0
   78.5300  -23.4940  100.3120 C   0  0  0  0  0  0
   78.9030  -23.5350  101.6970 C   0  0  0  0  0  0
   80.2640  -23.6340  102.1120 C   0  0  0  0  0  0
   81.2790  -23.7010  101.1260 C   0  0  0  0  0  0
   80.6490  -23.6800  103.5360 C   0  0  0  0  0  0
   80.1000  -22.9160  104.5120 C   0  0  0  0  0  0
   80.5470  -23.0220  105.9290 C   0  0  0  0  0  0
   81.5180  -23.8870  106.2650 O   0  0  0  0  0  0
   80.0180  -22.3180  106.7340 O   0  0  0  0  0  0
   81.9530  -23.9870  107.6330 C   0  0  0  0  0  0
   79.3990  -23.5430   97.9320 O   0  0  0  0  0  0
   79.5690  -22.3410   97.2010 C   0  0  0  0  0  0
   79.2850  -22.6270   95.7150 C   0  0  0  0  0  0
   77.0930  -23.3870   99.8480 C   0  0  0  0  0  0
   76.5700  -21.9330   99.9680 C   0  0  0  0  0  0
   76.7550  -21.1690   98.8180 N   0  0  0  0  0  0
   76.0350  -21.5260  100.9980 O   0  0  0  0  0  0
   76.3110  -19.7600   98.7310 C   0  0  2  0  0  0
   74.8070  -19.8060   98.5360 C   0  0  0  0  0  0
   76.9780  -19.0180   97.5430 C   0  0  0  0  0  0
   76.6770  -19.6440   96.1720 C   0  0  0  0  0  0
   78.4900  -18.9350   97.7540 C   0  0  0  0  0  0
   74.1970  -20.8640   98.4520 O   0  0  0  0  0  0
   74.2420  -18.5900   98.4750 N   0  0  0  0  0  0
   72.8140  -18.5040   98.2830 C   0  0  2  0  0  0
   72.3810  -17.4030   97.2530 C   0  0  1  0  0  0
   72.1990  -18.2720   99.7080 C   0  0  0  0  0  0
   70.9930  -19.1250  100.0510 C   0  0  0  0  0  0
   70.5070  -19.0490  101.1700 O   0  5  0  0  0  0
   70.5200  -19.8520   99.2490 O   0  0  0  0  0  0
   73.0220  -17.5900   95.8540 C   0  0  0  0  0  0
   70.9930  -17.5120   97.1160 O   0  0  0  0  0  0
   72.4410  -16.3460   94.6880 S   0  0  0  0  0  0
   73.2740  -16.7400   93.1410 C   0  0  0  0  0  0
   72.8030  -15.7960   92.0370 C   0  0  0  0  0  0
   72.3790  -16.3360   90.7800 C   0  0  0  0  0  0
   71.9230  -15.5280   89.7170 C   0  0  0  0  0  0
   71.8820  -14.1230   89.8730 C   0  0  0  0  0  0
   72.2920  -13.5380   91.0910 C   0  0  0  0  0  0
   72.7490  -14.3510   92.1590 C   0  0  0  0  0  0
   72.3920  -17.6620   90.5610 F   0  0  0  0  0  0
   73.2280  -13.4880   93.6070 Cl  0  0  0  0  0  0
   81.7302  -23.7133   99.0029 H   0  0  0  0  0  0
   78.1218  -23.4890  102.4557 H   0  0  0  0  0  0
   82.3238  -23.7813  101.4261 H   0  0  0  0  0  0
   81.4432  -24.4000  103.7825 H   0  0  0  0  0  0
   79.3049  -22.1968  104.2657 H   0  0  0  0  0  0
   82.7487  -24.7426  107.7104 H   0  0  0  0  0  0
   81.1040  -24.2823  108.2670 H   0  0  0  0  0  0
   82.3388  -23.0126  107.9672 H   0  0  0  0  0  0
   78.8684  -21.5809   97.5771 H   0  0  0  0  0  0
   80.6011  -21.9806   97.3229 H   0  0  0  0  0  0
   79.4128  -21.7025   95.1328 H   0  0  0  0  0  0
   78.2533  -22.9916   95.6025 H   0  0  0  0  0  0
   79.9860  -23.3912   95.3482 H   0  0  0  0  0  0
   77.0235  -23.6983   98.7953 H   0  0  0  0  0  0
   76.4586  -24.0394  100.4660 H   0  0  0  0  0  0
   77.2484  -21.6443   97.9574 H   0  0  0  0  0  0
   76.5935  -19.2476   99.6625 H   0  0  0  0  0  0
   76.5493  -18.0052   97.5209 H   0  0  0  0  0  0
   75.5882  -19.7010   96.0261 H   0  0  0  0  0  0
   77.1063  -20.6559   96.1288 H   0  0  0  0  0  0
   77.1211  -19.0231   95.3800 H   0  0  0  0  0  0
   78.6990  -18.4864   98.7364 H   0  0  0  0  0  0
   78.9368  -18.3131   96.9643 H   0  0  0  0  0  0
   78.9219  -19.9458   97.7131 H   0  0  0  0  0  0
   74.8408  -17.6719   98.5676 H   0  0  0  0  0  0
   72.5216  -19.4634   97.8314 H   0  0  0  0  0  0
   72.6084  -16.3911   97.6195 H   0  0  0  0  0  0
   72.9577  -18.4887  100.4745 H   0  0  0  0  0  0
   71.8727  -17.2256   99.8006 H   0  0  0  0  0  0
   74.1155  -17.5044   95.9373 H   0  0  0  0  0  0
   72.7609  -18.5836   95.4609 H   0  0  0  0  0  0
   70.3435  -17.4095   97.9979 H   0  0  0  0  0  0
   74.3607  -16.6298   93.2713 H   0  0  0  0  0  0
   73.0425  -17.7762   92.8534 H   0  0  0  0  0  0
   71.6039  -15.9845   88.7801 H   0  0  0  0  0  0
   71.5345  -13.4928   89.0544 H   0  0  0  0  0  0
   72.2570  -12.4552   91.2109 H   0  0  0  0  0  0
  1  2  2  0  0  0
  1  6  1  0  0  0
  1 45  1  0  0  0
  2  3  1  0  0  0
  2 13  1  0  0  0
  3  4  2  0  0  0
  3 16  1  0  0  0
  4  5  1  0  0  0
  4 46  1  0  0  0
  5  6  2  0  0  0
  5  7  1  0  0  0
  6 47  1  0  0  0
  7  8  2  0  0  0
  7 48  1  0  0  0
  8  9  1  0  0  0
  8 49  1  0  0  0
  9 10  1  0  0  0
  9 11  2  0  0  0
 10 12  1  0  0  0
 12 50  1  0  0  0
 12 51  1  0  0  0
 12 52  1  0  0  0
 13 14  1  0  0  0
 14 15  1  0  0  0
 14 53  1  0  0  0
 14 54  1  0  0  0
 15 55  1  0  0  0
 15 56  1  0  0  0
 15 57  1  0  0  0
 16 17  1  0  0  0
 16 58  1  0  0  0
 16 59  1  0  0  0
 17 18  1  0  0  0
 17 19  2  0  0  0
 18 20  1  0  0  0
 18 60  1  0  0  0
 20 21  1  0  0  0
 20 22  1  0  0  0
 20 61  1  0  0  0
 21 25  2  0  0  0
 21 26  1  0  0  0
 22 23  1  0  0  0
 22 24  1  0  0  0
 22 62  1  0  0  0
 23 63  1  0  0  0
 23 64  1  0  0  0
 23 65  1  0  0  0
 24 66  1  0  0  0
 24 67  1  0  0  0
 24 68  1  0  0  0
 26 27  1  0  0  0
 26 69  1  0  0  0
 27 28  1  0  0  0
 27 29  1  0  0  0
 27 70  1  0  0  0
 28 33  1  0  0  0
 28 34  1  0  0  0
 28 71  1  0  0  0
 29 30  1  0  0  0
 29 72  1  0  0  0
 29 73  1  0  0  0
 30 31  1  0  0  0
 30 32  2  0  0  0
 33 35  1  0  0  0
 33 74  1  0  0  0
 33 75  1  0  0  0
 34 76  1  0  0  0
 35 36  1  0  0  0
 36 37  1  0  0  0
 36 77  1  0  0  0
 36 78  1  0  0  0
 37 38  2  0  0  0
 37 42  1  0  0  0
 38 39  1  0  0  0
 38 43  1  0  0  0
 39 40  2  0  0  0
 39 79  1  0  0  0
 40 41  1  0  0  0
 40 80  1  0  0  0
 41 42  2  0  0  0
 41 81  1  0  0  0
 42 44  1  0  0  0
M  CHG  1  31  -1
M  END
> <s_m_source_file>
../1rhr_ligand.sdf

> <i_m_source_file_index>
1

> <s_epik_input>
W0NIM11bQ0gyXU9jMVtjSF1bY0hdYygvW0NIXT1bQ0hdL0MoPU8pT1tDSDNdKVtjSF1jMVtDSDJdQyg9TylbTkhdW0NAQEhdKFtDSF0oW0NIM10pW0NIM10pQyg9TylbTkhdW0NAQEhdKFtDSDJdQyg9TylbT0hdKVtDQEhdKFtPSF0pW0NIMl1TW0NIMl1jMmMoRilbY0hdW2NIXVtjSF1jMkNs

> <s_epik_cmdline>
J2VwaWtfYXBwJywgJy1pbWFlJywgJ2xpZ2FuZF9wcm8ubWFlJywgJy1vbWFlJywgJ2xpZ2FuZF9wcmVwLm1hZScsICctbXMnLCAnMScsICctcGgnLCAnNycsICctcGh0JywgJzAuNScsICctbnQn

> <r_lp_tautomer_probability>
1

> <r_epik_Ionization_Penalty>
  0.0015

> <r_epik_Ionization_Penalty_Charging>
  0.0015

> <r_epik_Ionization_Penalty_Neutral>
  0.0000

> <r_epik_State_Penalty>
 -0.0000

> <r_epik_Charging_Adjusted_Penalty>
0.00149753113040468

> <i_epik_Tot_Q>
-1

> <i_epik_Tot_abs_Q>
1

> <s_epik_Chemistry_Notes>
This compound has an ester and may undergo hydrolysis at high or low pH.

$$$$
