1rhu_ligand
                    3D
 Schrodinger Suite 2020-3.
 79 82  0  0  1  0            999 V2000
   73.7440  -15.4720   90.4530 C   0  0  0  0  0  0
   73.3650  -14.7380   89.2950 C   0  0  0  0  0  0
   72.0270  -14.2770   89.1530 C   0  0  0  0  0  0
   71.0670  -14.5540   90.1610 C   0  0  0  0  0  0
   71.4520  -15.2850   91.3110 C   0  0  0  0  0  0
   72.7960  -15.7560   91.4750 C   0  0  0  0  0  0
   73.1700  -16.5480   92.7270 C   0  0  0  0  0  0
   72.2070  -16.0310   94.1560 S   0  0  0  0  0  0
   72.7440  -17.1960   95.4220 C   0  0  0  0  0  0
   71.9900  -16.9800   96.7540 C   0  0  2  0  0  0
   72.3740  -18.0130   97.8450 C   0  0  1  0  0  0
   70.7480  -17.0500   96.4400 O   0  0  0  0  0  0
   73.7830  -18.1420   98.0930 N   0  0  0  0  0  0
   71.6720  -17.7070   99.2130 C   0  0  0  0  0  0
   70.6410  -18.7410   99.6630 C   0  0  0  0  0  0
   70.2550  -18.7530  100.8120 O   0  5  0  0  0  0
   70.2090  -19.5430   98.8810 O   0  0  0  0  0  0
   74.3530  -19.3070   97.8240 C   0  0  0  0  0  0
   73.7500  -20.3150   97.3490 O   0  0  0  0  0  0
   76.8000  -21.0770   96.9440 C   0  0  0  0  0  0
   76.2500  -20.8240   98.1760 N   0  0  0  0  0  0
   75.8420  -19.4090   98.1700 C   0  0  1  0  0  0
   76.8720  -18.7420   97.1670 C   0  0  0  0  0  0
   77.1930  -19.9200   96.3250 C   0  0  0  0  0  0
   77.8080  -19.9540   95.0560 C   0  0  0  0  0  0
   78.0000  -21.2070   94.4230 C   0  0  0  0  0  0
   77.5740  -22.4130   95.0560 C   0  0  0  0  0  0
   76.9540  -22.3790   96.3400 C   0  0  0  0  0  0
   76.4300  -23.6430   97.0530 C   0  0  0  0  0  0
   76.6620  -23.9330   98.5530 C   0  0  0  0  0  0
   77.2360  -22.7900   99.3680 C   0  0  1  0  0  0
   76.3490  -21.5310   99.3550 C   0  0  0  0  0  0
   75.7820  -21.1930  100.4330 O   0  0  0  0  0  0
   77.4380  -23.1660  100.7700 N   0  0  0  0  0  0
   78.5350  -23.8260  101.1540 C   0  0  0  0  0  0
   78.6190  -24.1060  102.6620 C   0  0  1  0  0  0
   79.4840  -24.1970  100.3920 O   0  0  0  0  0  0
   79.0480  -25.5000  102.8890 N   0  0  0  0  0  0
   78.1690  -26.5370  102.9220 C   0  0  0  0  0  0
   78.8400  -27.8940  103.1730 C   0  0  0  0  0  0
   76.9060  -26.4380  102.7660 O   0  0  0  0  0  0
   79.6160  -23.0970  103.2830 C   0  0  0  0  0  0
   79.8120  -23.2420  104.7860 C   0  0  0  0  0  0
   80.9340  -23.3080  105.2410 O   0  0  0  0  0  0
   78.8490  -23.2800  105.5260 O   0  5  0  0  0  0
   74.7714  -15.8205   90.5584 H   0  0  0  0  0  0
   74.0994  -14.5290   88.5171 H   0  0  0  0  0  0
   71.7383  -13.7098   88.2681 H   0  0  0  0  0  0
   70.0399  -14.2062   90.0506 H   0  0  0  0  0  0
   70.7135  -15.4932   92.0851 H   0  0  0  0  0  0
   72.9834  -17.6181   92.5533 H   0  0  0  0  0  0
   74.2352  -16.3937   92.9539 H   0  0  0  0  0  0
   72.5536  -18.2237   95.0790 H   0  0  0  0  0  0
   73.8202  -17.0650   95.6081 H   0  0  0  0  0  0
   72.0697  -15.9688   97.1795 H   0  0  0  0  0  0
   72.1124  -18.9931   97.4197 H   0  0  0  0  0  0
   70.3347  -16.3743   95.6767 H   0  0  0  0  0  0
   74.3513  -17.2895   98.4932 H   0  0  0  0  0  0
   72.4288  -17.6534  100.0095 H   0  0  0  0  0  0
   71.1415  -16.7457   99.1460 H   0  0  0  0  0  0
   75.8796  -18.9325   99.1607 H   0  0  0  0  0  0
   76.3777  -17.9221   96.6253 H   0  0  0  0  0  0
   77.7285  -18.3446   97.7314 H   0  0  0  0  0  0
   78.1299  -19.0325   94.5709 H   0  0  0  0  0  0
   78.4773  -21.2502   93.4440 H   0  0  0  0  0  0
   77.7238  -23.3687   94.5537 H   0  0  0  0  0  0
   75.3331  -23.6779   96.9785 H   0  0  0  0  0  0
   76.8585  -24.5370   96.5764 H   0  0  0  0  0  0
   75.7055  -24.1973   99.0276 H   0  0  0  0  0  0
   77.3679  -24.7699   98.6598 H   0  0  0  0  0  0
   78.2197  -22.5869   98.9195 H   0  0  0  0  0  0
   76.6807  -22.9052  101.5240 H   0  0  0  0  0  0
   77.6343  -24.0290  103.1463 H   0  0  0  0  0  0
   80.1131  -25.7301  103.0392 H   0  0  0  0  0  0
   79.9258  -27.7523  103.2779 H   0  0  0  0  0  0
   78.6380  -28.5653  102.3253 H   0  0  0  0  0  0
   78.4372  -28.3371  104.0957 H   0  0  0  0  0  0
   80.6049  -23.2258  102.8188 H   0  0  0  0  0  0
   79.2585  -22.0719  103.1057 H   0  0  0  0  0  0
  1  2  2  0  0  0
  1  6  1  0  0  0
  1 46  1  0  0  0
  2  3  1  0  0  0
  2 47  1  0  0  0
  3  4  2  0  0  0
  3 48  1  0  0  0
  4  5  1  0  0  0
  4 49  1  0  0  0
  5  6  2  0  0  0
  5 50  1  0  0  0
  6  7  1  0  0  0
  7  8  1  0  0  0
  7 51  1  0  0  0
  7 52  1  0  0  0
  8  9  1  0  0  0
  9 10  1  0  0  0
  9 53  1  0  0  0
  9 54  1  0  0  0
 10 11  1  0  0  0
 10 12  1  0  0  0
 10 55  1  0  0  0
 11 13  1  0  0  0
 11 14  1  0  0  0
 11 56  1  0  0  0
 12 57  1  0  0  0
 13 18  1  0  0  0
 13 58  1  0  0  0
 14 15  1  0  0  0
 14 59  1  0  0  0
 14 60  1  0  0  0
 15 16  1  0  0  0
 15 17  2  0  0  0
 18 19  2  0  0  0
 18 22  1  0  0  0
 20 21  1  0  0  0
 20 24  2  0  0  0
 20 28  1  0  0  0
 21 22  1  0  0  0
 21 32  1  0  0  0
 22 23  1  0  0  0
 22 61  1  0  0  0
 23 24  1  0  0  0
 23 62  1  0  0  0
 23 63  1  0  0  0
 24 25  1  0  0  0
 25 26  2  0  0  0
 25 64  1  0  0  0
 26 27  1  0  0  0
 26 65  1  0  0  0
 27 28  2  0  0  0
 27 66  1  0  0  0
 28 29  1  0  0  0
 29 30  1  0  0  0
 29 67  1  0  0  0
 29 68  1  0  0  0
 30 31  1  0  0  0
 30 69  1  0  0  0
 30 70  1  0  0  0
 31 32  1  0  0  0
 31 34  1  0  0  0
 31 71  1  0  0  0
 32 33  2  0  0  0
 34 35  1  0  0  0
 34 72  1  0  0  0
 35 36  1  0  0  0
 35 37  2  0  0  0
 36 38  1  0  0  0
 36 42  1  0  0  0
 36 73  1  0  0  0
 38 39  1  0  0  0
 38 74  1  0  0  0
 39 40  1  0  0  0
 39 41  2  0  0  0
 40 75  1  0  0  0
 40 76  1  0  0  0
 40 77  1  0  0  0
 42 43  1  0  0  0
 42 78  1  0  0  0
 42 79  1  0  0  0
 43 44  2  0  0  0
 43 45  1  0  0  0
M  CHG  2  16  -1  45  -1
M  END
> <s_m_source_file>
../1rhu_ligand.sdf

> <i_m_source_file_index>
1

> <s_epik_input>
W2NIXTFbY0hdW2NIXVtjSF1bY0hdYzFbQ0gyXVNbQ0gyXVtDQEBIXShbT0hdKVtDQEhdKFtDSDJdQyg9TylbT0hdKVtOSF1DKD1PKVtDQEhdKFtDSDJdMilOM0MoPU8pW0NAQEhdKFtOSF1DKD1PKVtDQEBIXShbTkhdQyg9TylbQ0gzXSlbQ0gyXUMoPU8pW09IXSlbQ0gyXVtDSDJdYzRbY0hdW2NIXVtjSF1jMmMzNA==

> <s_epik_cmdline>
J2VwaWtfYXBwJywgJy1pbWFlJywgJ2xpZ2FuZF9wcm8ubWFlJywgJy1vbWFlJywgJ2xpZ2FuZF9wcmVwLm1hZScsICctbXMnLCAnMScsICctcGgnLCAnNycsICctcGh0JywgJzAuNScsICctbnQn

> <r_lp_tautomer_probability>
1

> <r_epik_Ionization_Penalty>
  0.0029

> <r_epik_Ionization_Penalty_Charging>
  0.0029

> <r_epik_Ionization_Penalty_Neutral>
  0.0000

> <r_epik_State_Penalty>
 -0.0000

> <r_epik_Charging_Adjusted_Penalty>
0.00289422020298953

> <i_epik_Tot_Q>
-2

> <i_epik_Tot_abs_Q>
2

$$$$
