1rin_ligand
                    3D
 Schrodinger Suite 2020-3.
 24 24  0  0  1  0            999 V2000
   15.4930    5.7790   24.4630 C   0  0  1  0  0  0
   16.0590    5.3190   25.8110 C   0  0  2  0  0  0
   16.7680    6.4850   26.4760 C   0  0  2  0  0  0
   17.8410    6.9760   25.5660 C   0  0  1  0  0  0
   17.2340    7.3580   24.2370 C   0  0  1  0  0  0
   18.2780    7.8450   23.2640 C   0  0  0  0  0  0
   14.4730    6.7840   24.5860 O   0  0  0  0  0  0
   16.9320    4.1970   25.6540 O   0  0  0  0  0  0
   17.3040    6.1310   27.7390 O   0  0  0  0  0  0
   18.4430    8.0980   26.1450 O   0  0  0  0  0  0
   16.5800    6.2370   23.6650 O   0  0  0  0  0  0
   19.0670    6.8100   22.7520 O   0  0  0  0  0  0
   14.9824    4.9699   23.9201 H   0  0  0  0  0  0
   15.2671    4.9262   26.4657 H   0  0  0  0  0  0
   16.0620    7.2922   26.7208 H   0  0  0  0  0  0
   18.6380    6.2271   25.4477 H   0  0  0  0  0  0
   16.4723    8.1342   24.4020 H   0  0  0  0  0  0
   17.7850    8.3425   22.4158 H   0  0  0  0  0  0
   18.9460    8.5580   23.7694 H   0  0  0  0  0  0
   13.5666    6.5786   25.1744 H   0  0  0  0  0  0
   16.5613    3.2729   25.1864 H   0  0  0  0  0  0
   16.6420    5.7481   28.5297 H   0  0  0  0  0  0
   18.9405    8.0124   27.1223 H   0  0  0  0  0  0
   19.8667    7.0334   22.0305 H   0  0  0  0  0  0
  1  2  1  0  0  0
  1  7  1  0  0  0
  1 11  1  0  0  0
  1 13  1  0  0  0
  2  3  1  0  0  0
  2  8  1  0  0  0
  2 14  1  0  0  0
  3  4  1  0  0  0
  3  9  1  0  0  0
  3 15  1  0  0  0
  4  5  1  0  0  0
  4 10  1  0  0  0
  4 16  1  0  0  0
  5  6  1  0  0  0
  5 11  1  0  0  0
  5 17  1  0  0  0
  6 12  1  0  0  0
  6 18  1  0  0  0
  6 19  1  0  0  0
  7 20  1  0  0  0
  8 21  1  0  0  0
  9 22  1  0  0  0
 10 23  1  0  0  0
 12 24  1  0  0  0
M  END
> <s_m_source_file>
../1rin_ligand.sdf

> <i_m_source_file_index>
1

> <s_epik_input>
W09IXVtDQEBIXTFbQ0BASF0oW09IXSlbQ0BASF0oW09IXSlbQ0BIXShbT0hdKVtDQEhdKE8xKVtDSDJdW09IXQ==

> <s_epik_cmdline>
J2VwaWtfYXBwJywgJy1pbWFlJywgJ2xpZ2FuZF9wcm8ubWFlJywgJy1vbWFlJywgJ2xpZ2FuZF9wcmVwLm1hZScsICctbXMnLCAnMScsICctcGgnLCAnNycsICctcGh0JywgJzAuNScsICctbnQn

> <r_lp_tautomer_probability>
1

> <r_epik_Ionization_Penalty>
  0.0000

> <r_epik_Ionization_Penalty_Charging>
  0.0000

> <r_epik_Ionization_Penalty_Neutral>
  0.0000

> <r_epik_State_Penalty>
 -0.0000

> <r_epik_Charging_Adjusted_Penalty>
0

> <i_epik_Tot_Q>
0

> <i_epik_Tot_abs_Q>
0

> <s_epik_Chemistry_Notes>
This compound contains an acetal/aminal-like group ( X-CH(R)-Y where X, Y are N, S, or O) that may be acid/base labile, releasing an aldehyde.

$$$$
