1riw_ligand
                    3D
 Schrodinger Suite 2020-3.
 87 91  0  0  1  0            999 V2000
   18.4050  -13.5480   21.8650 N   0  0  0  0  0  0
   19.4900  -14.3840   21.2580 C   0  0  2  0  0  0
   18.3810  -12.2470   21.1490 C   0  0  1  0  0  0
   17.5840  -13.9150   22.9060 C   0  0  0  0  0  0
   20.4930  -13.3190   20.7590 C   0  0  2  0  0  0
   18.9240  -15.3080   20.1270 C   0  0  0  0  0  0
   19.5200  -12.3060   20.1090 C   0  0  0  0  0  0
   17.0690  -12.0270   20.4460 C   0  0  0  0  0  0
   17.7360  -15.2770   23.5560 C   0  0  1  0  0  0
   16.7260  -13.1460   23.3220 O   0  0  0  0  0  0
   21.4710  -13.8360   19.6810 C   0  0  0  0  0  0
   20.0350  -15.9170   19.2430 C   0  0  1  0  0  0
   16.5950  -10.7680   20.2880 N   0  0  0  0  0  0
   16.4520  -12.9840   20.0210 O   0  0  0  0  0  0
   18.1880  -15.1470   25.0260 C   0  0  0  0  0  0
   16.4580  -15.9760   23.4660 N   0  0  0  0  0  0
   20.8400  -14.7580   18.5940 C   0  0  0  0  0  0
   20.9030  -16.7430   20.0270 O   0  0  0  0  0  0
   15.3240  -10.5270   19.5950 C   0  0  0  0  0  0
   19.6350  -14.6800   25.0880 C   0  0  0  0  0  0
   16.3590  -17.1460   22.7830 C   0  0  0  0  0  0
   14.4230   -9.6100   20.4410 C   0  0  0  0  0  0
   19.9470  -13.4180   25.6400 C   0  0  0  0  0  0
   20.6780  -15.5050   24.5880 C   0  0  0  0  0  0
   15.0270  -17.8340   22.6890 C   0  0  1  0  0  0
   17.3370  -17.6390   22.2380 O   0  0  0  0  0  0
   13.6670  -10.3860   21.5090 C   0  0  0  0  0  0
   21.2890  -12.9790   25.6940 C   0  0  0  0  0  0
   22.0160  -15.0640   24.6430 C   0  0  0  0  0  0
   14.9200  -18.9580   23.7300 C   0  0  0  0  0  0
   13.9840  -16.8740   22.8990 O   0  0  0  0  0  0
   13.1040   -9.7600   22.7550 C   0  0  0  0  0  0
   13.4000  -11.6670   21.4920 C   0  0  0  0  0  0
   22.3210  -13.8010   25.1950 C   0  0  0  0  0  0
   13.7510  -19.8490   23.3690 C   0  0  0  0  0  0
   12.2350  -10.7910   23.3500 N   0  0  0  0  0  0
   12.6320  -12.0660   22.7220 C   0  0  0  0  0  0
   13.9230  -20.9320   22.4740 C   0  0  0  0  0  0
   12.4830  -19.5950   23.9250 C   0  0  0  0  0  0
   11.2620  -10.6050   24.3040 C   0  0  0  0  0  0
   12.8230  -21.7550   22.1410 C   0  0  0  0  0  0
   11.3850  -20.4150   23.5930 C   0  0  0  0  0  0
   10.5890  -11.6870   24.8210 N   0  0  0  0  0  0
   10.9720   -9.4030   24.7190 N   0  0  0  0  0  0
   11.5540  -21.4920   22.7020 C   0  0  0  0  0  0
   19.9481  -15.0747   21.9812 H   0  0  0  0  0  0
   18.4873  -11.4336   21.8818 H   0  0  0  0  0  0
   21.1456  -12.9470   21.5626 H   0  0  0  0  0  0
   18.3604  -16.1375   20.5790 H   0  0  0  0  0  0
   18.2574  -14.7239   19.4756 H   0  0  0  0  0  0
   19.1185  -12.6506   19.1446 H   0  0  0  0  0  0
   19.9575  -11.3041   19.9871 H   0  0  0  0  0  0
   18.4752  -15.8763   23.0043 H   0  0  0  0  0  0
   21.9128  -12.9819   19.1468 H   0  0  0  0  0  0
   22.2694  -14.4212   20.1606 H   0  0  0  0  0  0
   19.6221  -16.6091   18.4943 H   0  0  0  0  0  0
   17.1737   -9.9213   20.6857 H   0  0  0  0  0  0
   17.5497  -14.4150   25.5425 H   0  0  0  0  0  0
   18.1021  -16.1241   25.5238 H   0  0  0  0  0  0
   15.5658  -15.5559   23.9533 H   0  0  0  0  0  0
   20.1599  -14.1677   17.9623 H   0  0  0  0  0  0
   21.6374  -15.1892   17.9710 H   0  0  0  0  0  0
   20.4981  -17.6156   20.5605 H   0  0  0  0  0  0
   15.5204  -10.0445   18.6262 H   0  0  0  0  0  0
   14.8090  -11.4849   19.4298 H   0  0  0  0  0  0
   15.0404   -8.8489   20.9405 H   0  0  0  0  0  0
   13.6877   -9.1157   19.7891 H   0  0  0  0  0  0
   19.1507  -12.7812   26.0253 H   0  0  0  0  0  0
   20.4435  -16.4802   24.1613 H   0  0  0  0  0  0
   14.8894  -18.2302   21.6721 H   0  0  0  0  0  0
   21.5268  -12.0049   26.1214 H   0  0  0  0  0  0
   22.8150  -15.6983   24.2593 H   0  0  0  0  0  0
   15.8497  -19.5459   23.7316 H   0  0  0  0  0  0
   14.7610  -18.5207   24.7267 H   0  0  0  0  0  0
   13.9052  -15.9950   22.2424 H   0  0  0  0  0  0
   13.2974   -8.7575   23.1367 H   0  0  0  0  0  0
   13.6939  -12.3509   20.6957 H   0  0  0  0  0  0
   23.3556  -13.4605   25.2357 H   0  0  0  0  0  0
   12.4161  -13.0752   23.0726 H   0  0  0  0  0  0
   14.9035  -21.1314   22.0416 H   0  0  0  0  0  0
   12.3494  -18.7615   24.6146 H   0  0  0  0  0  0
   12.9539  -22.5903   21.4531 H   0  0  0  0  0  0
   10.4050  -20.2150   24.0263 H   0  0  0  0  0  0
    9.8090  -11.5372   25.5820 H   0  0  0  0  0  0
   11.5081   -8.5349   24.3079 H   0  0  0  0  0  0
   10.7039  -22.1239   22.4448 H   0  0  0  0  0  0
   10.1913   -9.2573   25.4801 H   0  0  0  0  0  0
  1  2  1  0  0  0
  1  3  1  0  0  0
  1  4  1  0  0  0
  2  5  1  0  0  0
  2  6  1  0  0  0
  2 46  1  0  0  0
  3  7  1  0  0  0
  3  8  1  0  0  0
  3 47  1  0  0  0
  4  9  1  0  0  0
  4 10  2  0  0  0
  5  7  1  0  0  0
  5 11  1  0  0  0
  5 48  1  0  0  0
  6 12  1  0  0  0
  6 49  1  0  0  0
  6 50  1  0  0  0
  7 51  1  0  0  0
  7 52  1  0  0  0
  8 13  1  0  0  0
  8 14  2  0  0  0
  9 15  1  0  0  0
  9 16  1  0  0  0
  9 53  1  0  0  0
 11 17  1  0  0  0
 11 54  1  0  0  0
 11 55  1  0  0  0
 12 17  1  0  0  0
 12 18  1  0  0  0
 12 56  1  0  0  0
 13 19  1  0  0  0
 13 57  1  0  0  0
 15 20  1  0  0  0
 15 58  1  0  0  0
 15 59  1  0  0  0
 16 21  1  0  0  0
 16 60  1  0  0  0
 17 61  1  0  0  0
 17 62  1  0  0  0
 18 63  1  0  0  0
 19 22  1  0  0  0
 19 64  1  0  0  0
 19 65  1  0  0  0
 20 23  2  0  0  0
 20 24  1  0  0  0
 21 25  1  0  0  0
 21 26  2  0  0  0
 22 27  1  0  0  0
 22 66  1  0  0  0
 22 67  1  0  0  0
 23 28  1  0  0  0
 23 68  1  0  0  0
 24 29  2  0  0  0
 24 69  1  0  0  0
 25 30  1  0  0  0
 25 31  1  0  0  0
 25 70  1  0  0  0
 27 32  2  0  0  0
 27 33  1  0  0  0
 28 34  2  0  0  0
 28 71  1  0  0  0
 29 34  1  0  0  0
 29 72  1  0  0  0
 30 35  1  0  0  0
 30 73  1  0  0  0
 30 74  1  0  0  0
 31 75  1  0  0  0
 32 36  1  0  0  0
 32 76  1  0  0  0
 33 37  2  0  0  0
 33 77  1  0  0  0
 34 78  1  0  0  0
 35 38  2  0  0  0
 35 39  1  0  0  0
 36 37  1  0  0  0
 36 40  1  0  0  0
 37 79  1  0  0  0
 38 41  1  0  0  0
 38 80  1  0  0  0
 39 42  2  0  0  0
 39 81  1  0  0  0
 40 43  2  0  0  0
 40 44  1  0  0  0
 41 45  2  0  0  0
 41 82  1  0  0  0
 42 45  1  0  0  0
 42 83  1  0  0  0
 43 84  1  0  0  0
 44 85  1  0  0  0
 44 87  1  0  0  0
 45 86  1  0  0  0
M  END
> <s_m_source_file>
../1riw_ligand.sdf

> <i_m_source_file_index>
1

> <s_epik_input>
W0hdL049QyhbTkgyXSlcbihbY0hdW2NIXTEpW2NIXWMxW0NIMl1bQ0gyXVtOSF1DKD1PKVtDQEhdKFtDSDJdW0NAQEhdKFtDQEBIXTIzKVtDSDJdW0NIMl1bQ0BIXShbQ0gyXTMpW09IXSlOMkMoPU8pW0NAQEhdKFtDSDJdYzRbY0hdW2NIXVtjSF1bY0hdW2NIXTQpW05IXUMoPU8pW0NASF0oW09IXSlbQ0gyXWM1W2NIXVtjSF1bY0hdW2NIXVtjSF01

> <s_epik_cmdline>
J2VwaWtfYXBwJywgJy1pbWFlJywgJ2xpZ2FuZF9wcm8ubWFlJywgJy1vbWFlJywgJ2xpZ2FuZF9wcmVwLm1hZScsICctbXMnLCAnMScsICctcGgnLCAnNycsICctcGh0JywgJzAuNScsICctbnQn

> <r_epik_Ionization_Penalty>
  0.3680

> <r_epik_Ionization_Penalty_Charging>
  0.0000

> <r_epik_Ionization_Penalty_Neutral>
  0.3680

> <r_epik_State_Penalty>
  0.6210

> <r_epik_Charging_Adjusted_Penalty>
0.62100578124884

> <i_epik_Tot_Q>
0

> <i_epik_Tot_abs_Q>
0

> <s_epik_Chemistry_Notes>
This compound has an imine and may undergo hydrolysis.

$$$$
