1rjk_ligand
                    3D
 Schrodinger Suite 2020-3.
 74 76  0  0  1  0            999 V2000
   60.7500    4.4650    2.3210 O   0  0  0  0  0  0
   60.3420    5.6240    1.5500 C   0  0  1  0  0  0
   60.7740    6.9480    2.0310 C   0  0  0  0  0  0
   61.4370    7.0540    3.1640 C   0  0  0  0  0  0
   60.5680    8.2070    1.2310 C   0  0  2  0  0  0
   59.0680    8.2300    1.2610 O   0  0  0  0  0  0
   60.9350    8.1270   -0.2230 C   0  0  0  0  0  0
   60.9120    5.5430    0.1050 C   0  0  0  0  0  0
   60.7380    6.7730   -0.8220 C   0  0  0  0  0  0
   60.3730    6.8190   -2.1860 C   0  0  0  0  0  0
   60.0870    5.5890   -2.9850 C   0  0  0  0  0  0
   60.4170    5.4320   -4.2500 C   0  0  0  0  0  0
   61.2090    6.4650   -5.0040 C   0  0  0  0  0  0
   62.5240    5.7880   -5.4630 C   0  0  0  0  0  0
   60.0790    4.1080   -4.9030 C   0  0  1  0  0  0
   61.4720    3.4610   -5.3350 C   0  0  1  0  0  0
   62.3850    4.4010   -6.1410 C   0  0  0  0  0  0
   62.2880    3.1140   -3.9840 C   0  0  0  0  0  0
   59.1980    3.0270   -4.3210 C   0  0  0  0  0  0
   59.6510    1.7530   -5.1050 C   0  0  0  0  0  0
   60.9460    2.1400   -5.9090 C   0  0  2  0  0  0
   61.8400    0.9140   -6.0080 C   0  0  1  0  0  0
   61.0040   -0.1080   -6.8150 C   0  0  0  0  0  0
   63.2710    1.1470   -6.5570 C   0  0  0  0  0  0
   64.0700   -0.1510   -6.5920 C   0  0  0  0  0  0
   65.5740    0.0140   -6.8040 C   0  0  0  0  0  0
   66.3780   -1.3180   -6.6720 C   0  0  0  0  0  0
   67.6920   -1.0490   -7.3470 C   0  0  0  0  0  0
   66.5370   -1.8900   -5.2340 C   0  0  0  0  0  0
   65.7230   -2.3130   -7.4020 O   0  0  0  0  0  0
   60.4324    4.3620    3.3691 H   0  0  0  0  0  0
   59.2541    5.5592    1.6989 H   0  0  0  0  0  0
   61.6130    6.1624    3.7837 H   0  0  0  0  0  0
   61.8147    8.0341    3.4906 H   0  0  0  0  0  0
   61.1586    9.0455    1.6286 H   0  0  0  0  0  0
   58.5379    8.2870    2.2232 H   0  0  0  0  0  0
   60.3145    8.8309   -0.7970 H   0  0  0  0  0  0
   61.9963    8.3876   -0.3482 H   0  0  0  0  0  0
   61.9978    5.3721    0.1482 H   0  0  0  0  0  0
   60.4312    4.7126   -0.4328 H   0  0  0  0  0  0
   60.2899    7.7876   -2.7007 H   0  0  0  0  0  0
   59.5654    4.7827   -2.4485 H   0  0  0  0  0  0
   60.6282    6.8107   -5.8718 H   0  0  0  0  0  0
   61.4229    7.3176   -4.3427 H   0  0  0  0  0  0
   63.0316    6.4323   -6.1959 H   0  0  0  0  0  0
   63.1801    5.6341   -4.5936 H   0  0  0  0  0  0
   59.3232    4.4672   -5.6170 H   0  0  0  0  0  0
   61.9531    4.5253   -7.1450 H   0  0  0  0  0  0
   63.3767    3.9323   -6.2239 H   0  0  0  0  0  0
   62.6808    4.0426   -3.5442 H   0  0  0  0  0  0
   63.1234    2.4395   -4.2232 H   0  0  0  0  0  0
   61.6152    2.6237   -3.2650 H   0  0  0  0  0  0
   59.3812    2.9475   -3.2393 H   0  0  0  0  0  0
   58.1421    3.2805   -4.4964 H   0  0  0  0  0  0
   59.8644    0.9414   -4.3938 H   0  0  0  0  0  0
   58.8491    1.4392   -5.7895 H   0  0  0  0  0  0
   60.8417    2.3837   -6.9766 H   0  0  0  0  0  0
   62.0811    0.5616   -4.9943 H   0  0  0  0  0  0
   60.0089   -0.2105   -6.3575 H   0  0  0  0  0  0
   61.5124   -1.0834   -6.8094 H   0  0  0  0  0  0
   60.8964    0.2435   -7.8518 H   0  0  0  0  0  0
   63.2106    1.5480   -7.5795 H   0  0  0  0  0  0
   63.7987    1.8651   -5.9121 H   0  0  0  0  0  0
   63.9458   -0.6839   -5.6377 H   0  0  0  0  0  0
   63.7062   -0.7835   -7.4152 H   0  0  0  0  0  0
   65.7608    0.4098   -7.8132 H   0  0  0  0  0  0
   65.9752    0.7134   -6.0558 H   0  0  0  0  0  0
   68.2345   -0.2674   -6.7950 H   0  0  0  0  0  0
   67.5121   -0.7117   -8.3784 H   0  0  0  0  0  0
   68.2920   -1.9709   -7.3620 H   0  0  0  0  0  0
   67.0497   -1.1514   -4.6002 H   0  0  0  0  0  0
   67.1299   -2.8158   -5.2712 H   0  0  0  0  0  0
   65.5438   -2.1072   -4.8139 H   0  0  0  0  0  0
   65.4888   -2.1515   -8.4646 H   0  0  0  0  0  0
  1  2  1  0  0  0
  1 31  1  0  0  0
  2  3  1  0  0  0
  2  8  1  0  0  0
  2 32  1  0  0  0
  3  4  2  0  0  0
  3  5  1  0  0  0
  4 33  1  0  0  0
  4 34  1  0  0  0
  5  6  1  0  0  0
  5  7  1  0  0  0
  5 35  1  0  0  0
  6 36  1  0  0  0
  7  9  1  0  0  0
  7 37  1  0  0  0
  7 38  1  0  0  0
  8  9  1  0  0  0
  8 39  1  0  0  0
  8 40  1  0  0  0
  9 10  2  0  0  0
 10 11  1  0  0  0
 10 41  1  0  0  0
 11 12  2  0  0  0
 11 42  1  0  0  0
 12 13  1  0  0  0
 12 15  1  0  0  0
 13 14  1  0  0  0
 13 43  1  0  0  0
 13 44  1  0  0  0
 14 17  1  0  0  0
 14 45  1  0  0  0
 14 46  1  0  0  0
 15 16  1  0  0  0
 15 19  1  0  0  0
 15 47  1  0  0  0
 16 17  1  0  0  0
 16 18  1  0  0  0
 16 21  1  0  0  0
 17 48  1  0  0  0
 17 49  1  0  0  0
 18 50  1  0  0  0
 18 51  1  0  0  0
 18 52  1  0  0  0
 19 20  1  0  0  0
 19 53  1  0  0  0
 19 54  1  0  0  0
 20 21  1  0  0  0
 20 55  1  0  0  0
 20 56  1  0  0  0
 21 22  1  0  0  0
 21 57  1  0  0  0
 22 23  1  0  0  0
 22 24  1  0  0  0
 22 58  1  0  0  0
 23 59  1  0  0  0
 23 60  1  0  0  0
 23 61  1  0  0  0
 24 25  1  0  0  0
 24 62  1  0  0  0
 24 63  1  0  0  0
 25 26  1  0  0  0
 25 64  1  0  0  0
 25 65  1  0  0  0
 26 27  1  0  0  0
 26 66  1  0  0  0
 26 67  1  0  0  0
 27 28  1  0  0  0
 27 29  1  0  0  0
 27 30  1  0  0  0
 28 68  1  0  0  0
 28 69  1  0  0  0
 28 70  1  0  0  0
 29 71  1  0  0  0
 29 72  1  0  0  0
 29 73  1  0  0  0
 30 74  1  0  0  0
M  END
> <s_m_source_file>
../1rjk_ligand.sdf

> <i_m_source_file_index>
1

> <s_epik_input>
W09IXVtDQEhdMUMoPVtDSDJdKVtDQEhdKFtPSF0pW0NIMl1DKFtDSDJdMSk9W0NIXS9bQ0hdPUMoXFtDSDJdW0NIMl1bQ0gyXTIpW0NAQEhdKFtDQF0yM1tDSDNdKVtDSDJdW0NIMl1bQ0BASF0zW0NAQEhdKFtDSDNdKVtDSDJdW0NIMl1bQ0gyXUMoW0NIM10pKFtDSDNdKVtPSF0=

> <s_epik_cmdline>
J2VwaWtfYXBwJywgJy1pbWFlJywgJ2xpZ2FuZF9wcm8ubWFlJywgJy1vbWFlJywgJ2xpZ2FuZF9wcmVwLm1hZScsICctbXMnLCAnMScsICctcGgnLCAnNycsICctcGh0JywgJzAuNScsICctbnQn

> <r_lp_tautomer_probability>
1

> <r_epik_Ionization_Penalty>
  0.0000

> <r_epik_Ionization_Penalty_Charging>
  0.0000

> <r_epik_Ionization_Penalty_Neutral>
  0.0000

> <r_epik_State_Penalty>
 -0.0000

> <r_epik_Charging_Adjusted_Penalty>
0

> <i_epik_Tot_Q>
0

> <i_epik_Tot_abs_Q>
0

$$$$
