1rlp_ligand
                    3D
 Schrodinger Suite 2020-3.
161164  0  0  1  0            999 V2000
   14.2590    1.8740   -1.9260 N   0  3  0  0  0  0
   12.9640    2.4470   -2.3900 C   0  0  2  0  0  0
   11.9780    1.3130   -2.6750 C   0  0  0  0  0  0
   11.7570    0.9400   -3.8100 O   0  0  0  0  0  0
   13.1940    3.2590   -3.6670 C   0  0  0  0  0  0
   12.1880    4.4100   -3.7270 C   0  0  0  0  0  0
   12.4090    5.3430   -2.5340 C   0  0  0  0  0  0
   12.5810    6.7400   -3.0220 N   0  0  0  0  0  0
   11.5440    7.4290   -3.4200 C   0  0  0  0  0  0
   10.3520    6.8960   -3.3900 N   0  0  0  0  0  0
   11.6990    8.6510   -3.8480 N   0  0  0  0  0  0
   11.3840    0.7610   -1.6520 N   0  0  0  0  0  0
   10.4130   -0.3490   -1.8620 C   0  0  2  0  0  0
    9.3270    0.1010   -2.8420 C   0  0  0  0  0  0
    8.9860    1.2650   -2.9160 O   0  0  0  0  0  0
    9.7690   -0.7230   -0.5250 C   0  0  0  0  0  0
    8.7790   -0.8140   -3.5950 N   0  0  0  0  0  0
    7.7160   -0.4400   -4.5700 C   0  0  2  0  0  0
    6.4680    0.0230   -3.8110 C   0  0  0  0  0  0
    6.3090   -0.2750   -2.6430 O   0  0  0  0  0  0
    7.3680   -1.6540   -5.4340 C   0  0  0  0  0  0
    8.4580   -1.8580   -6.4880 C   0  0  0  0  0  0
    8.5510   -3.3430   -6.8450 C   0  0  0  0  0  0
    8.1120   -1.0530   -7.7420 C   0  0  0  0  0  0
    5.6150    0.7390   -4.5010 N   0  0  0  0  0  0
    4.3680    1.2580   -3.9130 C   0  0  2  0  0  0
    3.4520    0.0970   -3.5020 C   0  0  0  0  0  0
    3.3510   -0.8860   -4.2100 O   0  0  0  0  0  0
    3.7210    2.0820   -5.0280 C   0  0  0  0  0  0
    4.6090    1.9470   -6.2930 C   0  0  0  0  0  0
    5.8270    1.0870   -5.9180 C   0  0  0  0  0  0
    2.8110    0.2430   -2.3680 N   0  0  0  0  0  0
    1.8980   -0.7890   -1.8460 C   0  0  2  0  0  0
    0.7100   -0.9690   -2.7950 C   0  0  0  0  0  0
    0.1920   -0.0170   -3.3450 O   0  0  0  0  0  0
    1.4240   -0.2490   -0.4910 C   0  0  0  0  0  0
    2.0660    1.1480   -0.2900 C   0  0  0  0  0  0
    2.9490    1.4370   -1.5150 C   0  0  0  0  0  0
    0.2760   -2.1830   -2.9920 N   0  0  0  0  0  0
   -0.8770   -2.4220   -3.9050 C   0  0  2  0  0  0
   -2.1230   -1.7300   -3.3400 C   0  0  0  0  0  0
   -2.1740   -1.4130   -2.1690 O   0  0  0  0  0  0
   -1.1300   -3.9260   -4.0160 C   0  0  0  0  0  0
   -0.0750   -4.5520   -4.9310 C   0  0  0  0  0  0
   -0.2670   -6.0690   -4.9680 C   0  0  0  0  0  0
   -0.2240   -3.9840   -6.3440 C   0  0  0  0  0  0
   -3.0930   -1.5140   -4.1950 N   0  0  0  0  0  0
   -4.3530   -0.8580   -3.8000 C   0  0  2  0  0  0
   -5.0290   -1.6400   -2.6700 C   0  0  0  0  0  0
   -4.5900   -2.7090   -2.2940 O   0  0  0  0  0  0
   -5.2190   -0.8750   -5.0670 C   0  0  0  0  0  0
   -4.3740   -1.5030   -6.2070 C   0  0  0  0  0  0
   -3.0130   -1.9060   -5.6150 C   0  0  0  0  0  0
   -6.0930   -1.1150   -2.1230 N   0  0  0  0  0  0
   -6.7900   -1.8320   -1.0180 C   0  0  2  0  0  0
   -6.9150   -3.3150   -1.3710 C   0  0  0  0  0  0
   -7.4590   -3.6760   -2.3960 O   0  0  0  0  0  0
   -8.1860   -1.2380   -0.8150 C   0  0  0  0  0  0
   -8.6780   -1.5790    0.5940 C   0  0  0  0  0  0
  -10.2060   -1.6670    0.6060 C   0  0  0  0  0  0
  -10.7880   -0.3280    0.2890 N   0  0  0  0  0  0
  -11.2080   -0.0380   -0.9190 C   0  0  0  0  0  0
  -11.1090   -0.9030   -1.8960 N   0  0  0  0  0  0
  -11.7260    1.1370   -1.1530 N   0  0  0  0  0  0
   -6.4150   -4.1770   -0.5290 N   0  0  0  0  0  0
   -6.5040   -5.6360   -0.8160 C   0  0  2  0  0  0
   -6.4560   -6.4160    0.4990 C   0  0  0  0  0  0
   -6.6760   -7.6160    0.4620 O   0  0  0  0  0  0
   -5.3290   -6.0550   -1.7020 C   0  0  0  0  0  0
   -5.8270   -6.3010   -3.1270 C   0  0  0  0  0  0
   -6.0430   -5.2420   -3.9870 C   0  0  0  0  0  0
   -6.0690   -7.5840   -3.5730 C   0  0  0  0  0  0
   -6.4930   -5.4650   -5.2720 C   0  0  0  0  0  0
   -6.5200   -7.8060   -4.8580 C   0  0  0  0  0  0
   -6.7350   -6.7480   -5.7180 C   0  0  0  0  0  0
   -7.1840   -6.9700   -7.0030 O   0  0  0  0  0  0
   -6.1990   -5.8010    1.5200 O   0  0  0  0  0  0
   14.0939    1.2904   -1.0083 H   0  0  0  0  0  0
   14.9677    2.6895   -1.7194 H   0  0  0  0  0  0
   14.6713    1.2191   -2.7078 H   0  0  0  0  0  0
   12.5728    3.0966   -1.5931 H   0  0  0  0  0  0
   14.2163    3.6651   -3.6641 H   0  0  0  0  0  0
   13.0602    2.6088   -4.5441 H   0  0  0  0  0  0
   12.3284    4.9713   -4.6625 H   0  0  0  0  0  0
   11.1656    4.0056   -3.6919 H   0  0  0  0  0  0
   11.5385    5.2932   -1.8634 H   0  0  0  0  0  0
   13.3113    5.0317   -1.9872 H   0  0  0  0  0  0
   13.5826    7.1941   -3.0480 H   0  0  0  0  0  0
   10.2193    5.8653   -3.0293 H   0  0  0  0  0  0
    9.4808    7.4778   -3.7254 H   0  0  0  0  0  0
   12.7021    9.1016   -3.8740 H   0  0  0  0  0  0
   11.6012    1.1165   -0.6339 H   0  0  0  0  0  0
   10.9630   -1.2085   -2.2729 H   0  0  0  0  0  0
   10.5490   -1.0466    0.1799 H   0  0  0  0  0  0
    9.0520   -1.5427   -0.6800 H   0  0  0  0  0  0
    9.2432    0.1514   -0.1140 H   0  0  0  0  0  0
    9.1027   -1.8618   -3.5092 H   0  0  0  0  0  0
    8.1020    0.3748   -5.2001 H   0  0  0  0  0  0
    7.3001   -2.5491   -4.7983 H   0  0  0  0  0  0
    6.4023   -1.4844   -5.9328 H   0  0  0  0  0  0
    9.4236   -1.5157   -6.0875 H   0  0  0  0  0  0
    8.7998   -3.9220   -5.9434 H   0  0  0  0  0  0
    9.3348   -3.4895   -7.6028 H   0  0  0  0  0  0
    7.5853   -3.6850   -7.2455 H   0  0  0  0  0  0
    8.0451    0.0146   -7.4855 H   0  0  0  0  0  0
    7.1463   -1.3951   -8.1424 H   0  0  0  0  0  0
    8.8958   -1.1997   -8.4997 H   0  0  0  0  0  0
    4.5878    1.8533   -3.0145 H   0  0  0  0  0  0
    2.7100    1.6977   -5.2284 H   0  0  0  0  0  0
    3.6579    3.1350   -4.7163 H   0  0  0  0  0  0
    4.0323    1.4647   -7.0960 H   0  0  0  0  0  0
    4.9321    2.9455   -6.6225 H   0  0  0  0  0  0
    6.7693    1.6450   -6.0215 H   0  0  0  0  0  0
    5.8782    0.1664   -6.5180 H   0  0  0  0  0  0
    2.4178   -1.7551   -1.7655 H   0  0  0  0  0  0
    0.3269   -0.1695   -0.4915 H   0  0  0  0  0  0
    1.7415   -0.9347    0.3084 H   0  0  0  0  0  0
    1.2740    1.9062   -0.2018 H   0  0  0  0  0  0
    2.6734    1.1439    0.6271 H   0  0  0  0  0  0
    4.0047    1.5676   -1.2351 H   0  0  0  0  0  0
    2.6036    2.3237   -2.0667 H   0  0  0  0  0  0
    0.7606   -3.0302   -2.4846 H   0  0  0  0  0  0
   -0.6269   -2.0079   -4.8929 H   0  0  0  0  0  0
   -1.0682   -4.3829   -3.0173 H   0  0  0  0  0  0
   -2.1313   -4.0993   -4.4371 H   0  0  0  0  0  0
    0.9290   -4.3197   -4.5462 H   0  0  0  0  0  0
   -0.1598   -6.4770   -3.9521 H   0  0  0  0  0  0
    0.4915   -6.5186   -5.6257 H   0  0  0  0  0  0
   -1.2707   -6.3023   -5.3528 H   0  0  0  0  0  0
   -0.0859   -2.8930   -6.3171 H   0  0  0  0  0  0
   -1.2277   -4.2171   -6.7289 H   0  0  0  0  0  0
    0.5345   -4.4335   -7.0017 H   0  0  0  0  0  0
   -4.1560    0.1584   -3.4284 H   0  0  0  0  0  0
   -6.1228   -1.4752   -4.8853 H   0  0  0  0  0  0
   -5.5083    0.1539   -5.3273 H   0  0  0  0  0  0
   -4.8942   -2.3868   -6.6048 H   0  0  0  0  0  0
   -4.2373   -0.7651   -7.0113 H   0  0  0  0  0  0
   -2.1824   -1.3698   -6.0972 H   0  0  0  0  0  0
   -2.8405   -2.9900   -5.6870 H   0  0  0  0  0  0
   -6.4745   -0.1457   -2.4765 H   0  0  0  0  0  0
   -6.1902   -1.7068   -0.1045 H   0  0  0  0  0  0
   -8.1408   -0.1456   -0.9360 H   0  0  0  0  0  0
   -8.8764   -1.6611   -1.5596 H   0  0  0  0  0  0
   -8.2567   -2.5462    0.9054 H   0  0  0  0  0  0
   -8.3545   -0.7955    1.2950 H   0  0  0  0  0  0
  -10.5371   -2.3970   -0.1473 H   0  0  0  0  0  0
  -10.5470   -1.9872    1.6016 H   0  0  0  0  0  0
  -10.8704    0.4362    1.0759 H   0  0  0  0  0  0
  -10.6740   -1.8960   -1.7095 H   0  0  0  0  0  0
  -11.4608   -0.6371   -2.9037 H   0  0  0  0  0  0
  -11.8138    1.8714   -0.3388 H   0  0  0  0  0  0
   -5.9277   -3.8265    0.3928 H   0  0  0  0  0  0
   -7.4553   -5.8245   -1.3351 H   0  0  0  0  0  0
   -6.6499   -8.2088    1.3883 H   0  0  0  0  0  0
   -4.5731   -5.2559   -1.7107 H   0  0  0  0  0  0
   -4.8818   -6.9784   -1.3054 H   0  0  0  0  0  0
   -5.8566   -4.2229   -3.6481 H   0  0  0  0  0  0
   -5.9026   -8.4290   -2.9049 H   0  0  0  0  0  0
   -6.6588   -4.6203   -5.9406 H   0  0  0  0  0  0
   -6.7080   -8.8249   -5.1966 H   0  0  0  0  0  0
   -7.3525   -6.1205   -7.6812 H   0  0  0  0  0  0
  1  2  1  0  0  0
  1 78  1  0  0  0
  1 79  1  0  0  0
  1 80  1  0  0  0
  2  3  1  0  0  0
  2  5  1  0  0  0
  2 81  1  0  0  0
  3  4  2  0  0  0
  3 12  1  0  0  0
  5  6  1  0  0  0
  5 82  1  0  0  0
  5 83  1  0  0  0
  6  7  1  0  0  0
  6 84  1  0  0  0
  6 85  1  0  0  0
  7  8  1  0  0  0
  7 86  1  0  0  0
  7 87  1  0  0  0
  8  9  1  0  0  0
  8 88  1  0  0  0
  9 10  1  0  0  0
  9 11  2  0  0  0
 10 89  1  0  0  0
 10 90  1  0  0  0
 11 91  1  0  0  0
 12 13  1  0  0  0
 12 92  1  0  0  0
 13 14  1  0  0  0
 13 16  1  0  0  0
 13 93  1  0  0  0
 14 15  2  0  0  0
 14 17  1  0  0  0
 16 94  1  0  0  0
 16 95  1  0  0  0
 16 96  1  0  0  0
 17 18  1  0  0  0
 17 97  1  0  0  0
 18 19  1  0  0  0
 18 21  1  0  0  0
 18 98  1  0  0  0
 19 20  2  0  0  0
 19 25  1  0  0  0
 21 22  1  0  0  0
 21 99  1  0  0  0
 21100  1  0  0  0
 22 23  1  0  0  0
 22 24  1  0  0  0
 22101  1  0  0  0
 23102  1  0  0  0
 23103  1  0  0  0
 23104  1  0  0  0
 24105  1  0  0  0
 24106  1  0  0  0
 24107  1  0  0  0
 25 26  1  0  0  0
 25 31  1  0  0  0
 26 27  1  0  0  0
 26 29  1  0  0  0
 26108  1  0  0  0
 27 28  2  0  0  0
 27 32  1  0  0  0
 29 30  1  0  0  0
 29109  1  0  0  0
 29110  1  0  0  0
 30 31  1  0  0  0
 30111  1  0  0  0
 30112  1  0  0  0
 31113  1  0  0  0
 31114  1  0  0  0
 32 33  1  0  0  0
 32 38  1  0  0  0
 33 34  1  0  0  0
 33 36  1  0  0  0
 33115  1  0  0  0
 34 35  2  0  0  0
 34 39  1  0  0  0
 36 37  1  0  0  0
 36116  1  0  0  0
 36117  1  0  0  0
 37 38  1  0  0  0
 37118  1  0  0  0
 37119  1  0  0  0
 38120  1  0  0  0
 38121  1  0  0  0
 39 40  1  0  0  0
 39122  1  0  0  0
 40 41  1  0  0  0
 40 43  1  0  0  0
 40123  1  0  0  0
 41 42  2  0  0  0
 41 47  1  0  0  0
 43 44  1  0  0  0
 43124  1  0  0  0
 43125  1  0  0  0
 44 45  1  0  0  0
 44 46  1  0  0  0
 44126  1  0  0  0
 45127  1  0  0  0
 45128  1  0  0  0
 45129  1  0  0  0
 46130  1  0  0  0
 46131  1  0  0  0
 46132  1  0  0  0
 47 48  1  0  0  0
 47 53  1  0  0  0
 48 49  1  0  0  0
 48 51  1  0  0  0
 48133  1  0  0  0
 49 50  2  0  0  0
 49 54  1  0  0  0
 51 52  1  0  0  0
 51134  1  0  0  0
 51135  1  0  0  0
 52 53  1  0  0  0
 52136  1  0  0  0
 52137  1  0  0  0
 53138  1  0  0  0
 53139  1  0  0  0
 54 55  1  0  0  0
 54140  1  0  0  0
 55 56  1  0  0  0
 55 58  1  0  0  0
 55141  1  0  0  0
 56 57  2  0  0  0
 56 65  1  0  0  0
 58 59  1  0  0  0
 58142  1  0  0  0
 58143  1  0  0  0
 59 60  1  0  0  0
 59144  1  0  0  0
 59145  1  0  0  0
 60 61  1  0  0  0
 60146  1  0  0  0
 60147  1  0  0  0
 61 62  1  0  0  0
 61148  1  0  0  0
 62 63  1  0  0  0
 62 64  2  0  0  0
 63149  1  0  0  0
 63150  1  0  0  0
 64151  1  0  0  0
 65 66  1  0  0  0
 65152  1  0  0  0
 66 67  1  0  0  0
 66 69  1  0  0  0
 66153  1  0  0  0
 67 68  1  0  0  0
 67 77  2  0  0  0
 68154  1  0  0  0
 69 70  1  0  0  0
 69155  1  0  0  0
 69156  1  0  0  0
 70 71  2  0  0  0
 70 72  1  0  0  0
 71 73  1  0  0  0
 71157  1  0  0  0
 72 74  2  0  0  0
 72158  1  0  0  0
 73 75  2  0  0  0
 73159  1  0  0  0
 74 75  1  0  0  0
 74160  1  0  0  0
 75 76  1  0  0  0
 76161  1  0  0  0
M  CHG  1   1   1
M  END
> <s_m_source_file>
../1rlp_ligand.sdf

> <i_m_source_file_index>
1

> <s_epik_input>
W0hdL049QyhbTkgyXSlcW05IXVtDSDJdW0NIMl1bQ0gyXVtDQEhdKFtOSDMrXSlDKD1PKVtOSF1bQ0BASF0oW0NIM10pQyg9TylbTkhdW0NAQEhdKFtDSDJdW0NIXShbQ0gzXSlbQ0gzXSlDKD1PKU4xW0NAQEhdKFtDSDJdW0NIMl1bQ0gyXTEpQyg9TylOMltDQEBIXShbQ0gyXVtDSDJdW0NIMl0yKUMoPU8pW05IXVtDQEBIXShbQ0gyXVtDSF0oW0NIM10pW0NIM10pQyg9TylOM1tDQEBIXShbQ0gyXVtDSDJdW0NIMl0zKUMoPU8pW05IXVtDQEBIXShbQ0gyXVtDSDJdW0NIMl1bTkhdL0MoW05IMl0pPU5cW0hdKUMoPU8pW05IXVtDQEhdKEMoPU8pW09IXSlbQ0gyXWM0W2NIXVtjSF1jKFtPSF0pW2NIXVtjSF00

> <s_epik_cmdline>
J2VwaWtfYXBwJywgJy1pbWFlJywgJ2xpZ2FuZF9wcm8ubWFlJywgJy1vbWFlJywgJ2xpZ2FuZF9wcmVwLm1hZScsICctbXMnLCAnMScsICctcGgnLCAnNycsICctcGh0JywgJzAuNScsICctbnQn

> <s_epik_pKa_notes>
Molecule size exceeds maximum supported for generating protonation states

> <s_epik_Chemistry_Notes>
This compound has an imine and may undergo hydrolysis.

$$$$
