1rlq_ligand
                    3D
 Schrodinger Suite 2020-3.
161164  0  0  1  0            999 V2000
   14.1260    2.1820   -1.5550 N   0  3  0  0  0  0
   12.9430    2.6890   -2.3060 C   0  0  2  0  0  0
   11.8520    1.6160   -2.3220 C   0  0  0  0  0  0
   11.4460    1.1470   -3.3660 O   0  0  0  0  0  0
   13.3540    3.0200   -3.7420 C   0  0  0  0  0  0
   12.1690    3.6460   -4.4820 C   0  0  0  0  0  0
   12.1330    5.1510   -4.2040 C   0  0  0  0  0  0
   11.5810    5.8630   -5.3910 N   0  0  0  0  0  0
   11.7520    7.1510   -5.5230 C   0  0  0  0  0  0
   12.4120    7.8220   -4.6160 N   0  0  0  0  0  0
   11.2640    7.7700   -6.5640 N   0  0  0  0  0  0
   11.3730    1.2260   -1.1720 N   0  0  0  0  0  0
   10.3090    0.1840   -1.1220 C   0  0  2  0  0  0
    9.2040    0.5350   -2.1200 C   0  0  0  0  0  0
    8.6140    1.5950   -2.0590 O   0  0  0  0  0  0
    9.7210    0.1210    0.2900 C   0  0  0  0  0  0
    8.9220   -0.3450   -3.0420 N   0  0  0  0  0  0
    7.8560   -0.0590   -4.0420 C   0  0  2  0  0  0
    6.5570    0.2990   -3.3130 C   0  0  0  0  0  0
    6.3740   -0.0570   -2.1660 O   0  0  0  0  0  0
    7.6290   -1.2950   -4.9140 C   0  0  0  0  0  0
    8.7810   -1.4320   -5.9120 C   0  0  0  0  0  0
    8.6750   -2.7790   -6.6300 C   0  0  0  0  0  0
    8.7040   -0.2990   -6.9360 C   0  0  0  0  0  0
    5.6920    0.9940   -4.0060 N   0  0  0  0  0  0
    4.3970    1.4170   -3.4470 C   0  0  2  0  0  0
    3.5050    0.1930   -3.1930 C   0  0  0  0  0  0
    3.3810   -0.6610   -4.0480 O   0  0  0  0  0  0
    3.7790    2.3090   -4.5260 C   0  0  0  0  0  0
    4.7080    2.2610   -5.7680 C   0  0  0  0  0  0
    5.9370    1.4170   -5.3970 C   0  0  0  0  0  0
    2.9090    0.1410   -2.0260 N   0  0  0  0  0  0
    2.0270   -0.9770   -1.6550 C   0  0  2  0  0  0
    0.8400   -1.0390   -2.6190 C   0  0  0  0  0  0
   -0.0580   -0.2230   -2.5620 O   0  0  0  0  0  0
    1.5530   -0.6520   -0.2310 C   0  0  0  0  0  0
    2.2040    0.6930    0.1850 C   0  0  0  0  0  0
    3.0620    1.1820   -0.9930 C   0  0  0  0  0  0
    0.8330   -1.9940   -3.5090 N   0  0  0  0  0  0
   -0.2960   -2.1030   -4.4760 C   0  0  2  0  0  0
   -1.6230   -1.8700   -3.7480 C   0  0  0  0  0  0
   -1.7200   -2.0860   -2.5560 O   0  0  0  0  0  0
   -0.2980   -3.4960   -5.1030 C   0  0  0  0  0  0
    0.7370   -3.5500   -6.2270 C   0  0  0  0  0  0
    1.1810   -4.9990   -6.4350 C   0  0  0  0  0  0
    0.1150   -3.0140   -7.5180 C   0  0  0  0  0  0
   -2.6090   -1.4370   -4.4920 N   0  0  0  0  0  0
   -3.9460   -1.1660   -3.9400 C   0  0  2  0  0  0
   -4.5100   -2.4220   -3.2710 C   0  0  0  0  0  0
   -5.0800   -3.2700   -3.9240 O   0  0  0  0  0  0
   -4.7990   -0.7610   -5.1490 C   0  0  0  0  0  0
   -3.8720   -0.7430   -6.3920 C   0  0  0  0  0  0
   -2.4720   -1.1910   -5.9390 C   0  0  0  0  0  0
   -4.3350   -2.5180   -1.9710 N   0  0  0  0  0  0
   -4.8280   -3.6890   -1.1660 C   0  0  2  0  0  0
   -5.4290   -4.7890   -2.0450 C   0  0  0  0  0  0
   -4.8380   -5.8310   -2.2280 O   0  0  0  0  0  0
   -5.8850   -3.2000   -0.1740 C   0  0  0  0  0  0
   -5.8280   -4.0550    1.0960 C   0  0  0  0  0  0
   -6.9730   -3.6640    2.0370 C   0  0  0  0  0  0
   -8.1250   -3.1490    1.2440 N   0  0  0  0  0  0
   -8.8110   -3.9590    0.4840 C   0  0  0  0  0  0
   -8.4980   -5.2260    0.4250 N   0  0  0  0  0  0
   -9.8130   -3.5010   -0.2140 N   0  0  0  0  0  0
   -6.6010   -4.5630   -2.5780 N   0  0  0  0  0  0
   -7.2570   -5.5890   -3.4480 C   0  0  2  0  0  0
   -7.9010   -6.6580   -2.5570 C   0  0  0  0  0  0
   -8.7950   -7.3380   -3.0330 O   0  0  0  0  0  0
   -6.2150   -6.2040   -4.4190 C   0  0  0  0  0  0
   -6.1410   -7.7410   -4.3000 C   0  0  0  0  0  0
   -5.7630   -8.3520   -3.1170 C   0  0  0  0  0  0
   -6.4380   -8.5350   -5.3900 C   0  0  0  0  0  0
   -5.6820   -9.7280   -3.0310 C   0  0  0  0  0  0
   -6.3570   -9.9110   -5.3020 C   0  0  0  0  0  0
   -5.9780  -10.5170   -4.1230 C   0  0  0  0  0  0
   -5.8940  -11.8920   -4.0390 O   0  0  0  0  0  0
   -7.4880   -6.7760   -1.4150 O   0  0  0  0  0  0
   13.8304    1.9440   -0.5225 H   0  0  0  0  0  0
   14.9108    2.9527   -1.5434 H   0  0  0  0  0  0
   14.5100    1.2750   -2.0448 H   0  0  0  0  0  0
   12.5785    3.5941   -1.7980 H   0  0  0  0  0  0
   14.1939    3.7302   -3.7285 H   0  0  0  0  0  0
   13.6617    2.0981   -4.2571 H   0  0  0  0  0  0
   12.2799    3.4748   -5.5629 H   0  0  0  0  0  0
   11.2334    3.1855   -4.1320 H   0  0  0  0  0  0
   11.4950    5.3472   -3.3296 H   0  0  0  0  0  0
   13.1526    5.5111   -4.0021 H   0  0  0  0  0  0
   11.0274    5.3036   -6.1596 H   0  0  0  0  0  0
   12.8238    7.3021   -3.7384 H   0  0  0  0  0  0
   12.5557    8.9066   -4.7303 H   0  0  0  0  0  0
   10.7083    7.2068   -7.3282 H   0  0  0  0  0  0
   11.7552    1.6670   -0.2396 H   0  0  0  0  0  0
   10.7655   -0.7813   -1.3862 H   0  0  0  0  0  0
   10.5159   -0.1314    1.0073 H   0  0  0  0  0  0
    8.9363   -0.6490    0.3264 H   0  0  0  0  0  0
    9.2884    1.0981    0.5509 H   0  0  0  0  0  0
    9.4712   -1.2973   -3.0806 H   0  0  0  0  0  0
    8.1896    0.7851   -4.6635 H   0  0  0  0  0  0
    7.5868   -2.1906   -4.2767 H   0  0  0  0  0  0
    6.6803   -1.1889   -5.4606 H   0  0  0  0  0  0
    9.7406   -1.3766   -5.3772 H   0  0  0  0  0  0
    8.7305   -3.5931   -5.8923 H   0  0  0  0  0  0
    9.5024   -2.8778   -7.3481 H   0  0  0  0  0  0
    7.7159   -2.8344   -7.1658 H   0  0  0  0  0  0
    8.7803    0.6687   -6.4185 H   0  0  0  0  0  0
    7.7449   -0.3537   -7.4718 H   0  0  0  0  0  0
    9.5314   -0.3970   -7.6542 H   0  0  0  0  0  0
    4.5456    1.9390   -2.4902 H   0  0  0  0  0  0
    2.7776    1.9334   -4.7830 H   0  0  0  0  0  0
    3.6985    3.3390   -4.1484 H   0  0  0  0  0  0
    4.1695    1.8039   -6.6112 H   0  0  0  0  0  0
    5.0122    3.2830   -6.0381 H   0  0  0  0  0  0
    6.8659    2.0044   -5.4434 H   0  0  0  0  0  0
    6.0324    0.5289   -6.0390 H   0  0  0  0  0  0
    2.5666   -1.9336   -1.7166 H   0  0  0  0  0  0
    0.4564   -0.5665   -0.2202 H   0  0  0  0  0  0
    1.8649   -1.4561    0.4518 H   0  0  0  0  0  0
    1.4166    1.4260    0.4145 H   0  0  0  0  0  0
    2.8306    0.5371    1.0755 H   0  0  0  0  0  0
    4.1229    1.2707   -0.7162 H   0  0  0  0  0  0
    2.7041    2.1447   -1.3868 H   0  0  0  0  0  0
    1.6602   -2.7182   -3.5453 H   0  0  0  0  0  0
   -0.1505   -1.3382   -5.2531 H   0  0  0  0  0  0
   -0.0462   -4.2435   -4.3363 H   0  0  0  0  0  0
   -1.2958   -3.7124   -5.5124 H   0  0  0  0  0  0
    1.6074   -2.9336   -5.9579 H   0  0  0  0  0  0
    1.6278   -5.3825   -5.5059 H   0  0  0  0  0  0
    1.9245   -5.0420   -7.2445 H   0  0  0  0  0  0
    0.3099   -5.6144   -6.7042 H   0  0  0  0  0  0
   -0.2036   -1.9721   -7.3664 H   0  0  0  0  0  0
   -0.7566   -3.6284   -7.7877 H   0  0  0  0  0  0
    0.8581   -3.0561   -8.3280 H   0  0  0  0  0  0
   -3.8899   -0.3787   -3.1738 H   0  0  0  0  0  0
   -5.6103   -1.4910   -5.2863 H   0  0  0  0  0  0
   -5.2288    0.2368   -4.9768 H   0  0  0  0  0  0
   -4.2661   -1.4322   -7.1533 H   0  0  0  0  0  0
   -3.8323    0.2757   -6.8051 H   0  0  0  0  0  0
   -1.7177   -0.4084   -6.1081 H   0  0  0  0  0  0
   -2.1572   -2.1181   -6.4404 H   0  0  0  0  0  0
   -3.8024   -1.6940   -1.4737 H   0  0  0  0  0  0
   -3.9540   -4.1091   -0.6468 H   0  0  0  0  0  0
   -5.6883   -2.1486    0.0827 H   0  0  0  0  0  0
   -6.8827   -3.2858   -0.6293 H   0  0  0  0  0  0
   -5.9246   -5.1173    0.8274 H   0  0  0  0  0  0
   -4.8668   -3.8915    1.6053 H   0  0  0  0  0  0
   -7.2925   -4.5457    2.6118 H   0  0  0  0  0  0
   -6.6283   -2.8808    2.7283 H   0  0  0  0  0  0
   -8.3984   -2.0849    1.2985 H   0  0  0  0  0  0
   -7.6528   -5.6117    1.0139 H   0  0  0  0  0  0
   -9.0797   -5.9071   -0.2136 H   0  0  0  0  0  0
  -10.0761   -2.4341   -0.1639 H   0  0  0  0  0  0
   -7.1053   -3.6056   -2.3807 H   0  0  0  0  0  0
   -8.0444   -5.0974   -4.0382 H   0  0  0  0  0  0
   -6.4876   -5.9549   -5.4552 H   0  0  0  0  0  0
   -5.2185   -5.7961   -4.1939 H   0  0  0  0  0  0
   -5.5271   -7.7416   -2.2453 H   0  0  0  0  0  0
   -6.7394   -8.0712   -6.3292 H   0  0  0  0  0  0
   -5.3817  -10.1943   -2.0926 H   0  0  0  0  0  0
   -6.5947  -10.5230   -6.1721 H   0  0  0  0  0  0
   -5.5909  -12.3678   -3.0947 H   0  0  0  0  0  0
   -7.9261   -7.5322   -0.7471 H   0  0  0  0  0  0
  1  2  1  0  0  0
  1 78  1  0  0  0
  1 79  1  0  0  0
  1 80  1  0  0  0
  2  3  1  0  0  0
  2  5  1  0  0  0
  2 81  1  0  0  0
  3  4  2  0  0  0
  3 12  1  0  0  0
  5  6  1  0  0  0
  5 82  1  0  0  0
  5 83  1  0  0  0
  6  7  1  0  0  0
  6 84  1  0  0  0
  6 85  1  0  0  0
  7  8  1  0  0  0
  7 86  1  0  0  0
  7 87  1  0  0  0
  8  9  1  0  0  0
  8 88  1  0  0  0
  9 10  1  0  0  0
  9 11  2  0  0  0
 10 89  1  0  0  0
 10 90  1  0  0  0
 11 91  1  0  0  0
 12 13  1  0  0  0
 12 92  1  0  0  0
 13 14  1  0  0  0
 13 16  1  0  0  0
 13 93  1  0  0  0
 14 15  2  0  0  0
 14 17  1  0  0  0
 16 94  1  0  0  0
 16 95  1  0  0  0
 16 96  1  0  0  0
 17 18  1  0  0  0
 17 97  1  0  0  0
 18 19  1  0  0  0
 18 21  1  0  0  0
 18 98  1  0  0  0
 19 20  2  0  0  0
 19 25  1  0  0  0
 21 22  1  0  0  0
 21 99  1  0  0  0
 21100  1  0  0  0
 22 23  1  0  0  0
 22 24  1  0  0  0
 22101  1  0  0  0
 23102  1  0  0  0
 23103  1  0  0  0
 23104  1  0  0  0
 24105  1  0  0  0
 24106  1  0  0  0
 24107  1  0  0  0
 25 26  1  0  0  0
 25 31  1  0  0  0
 26 27  1  0  0  0
 26 29  1  0  0  0
 26108  1  0  0  0
 27 28  2  0  0  0
 27 32  1  0  0  0
 29 30  1  0  0  0
 29109  1  0  0  0
 29110  1  0  0  0
 30 31  1  0  0  0
 30111  1  0  0  0
 30112  1  0  0  0
 31113  1  0  0  0
 31114  1  0  0  0
 32 33  1  0  0  0
 32 38  1  0  0  0
 33 34  1  0  0  0
 33 36  1  0  0  0
 33115  1  0  0  0
 34 35  2  0  0  0
 34 39  1  0  0  0
 36 37  1  0  0  0
 36116  1  0  0  0
 36117  1  0  0  0
 37 38  1  0  0  0
 37118  1  0  0  0
 37119  1  0  0  0
 38120  1  0  0  0
 38121  1  0  0  0
 39 40  1  0  0  0
 39122  1  0  0  0
 40 41  1  0  0  0
 40 43  1  0  0  0
 40123  1  0  0  0
 41 42  2  0  0  0
 41 47  1  0  0  0
 43 44  1  0  0  0
 43124  1  0  0  0
 43125  1  0  0  0
 44 45  1  0  0  0
 44 46  1  0  0  0
 44126  1  0  0  0
 45127  1  0  0  0
 45128  1  0  0  0
 45129  1  0  0  0
 46130  1  0  0  0
 46131  1  0  0  0
 46132  1  0  0  0
 47 48  1  0  0  0
 47 53  1  0  0  0
 48 49  1  0  0  0
 48 51  1  0  0  0
 48133  1  0  0  0
 49 50  2  0  0  0
 49 54  1  0  0  0
 51 52  1  0  0  0
 51134  1  0  0  0
 51135  1  0  0  0
 52 53  1  0  0  0
 52136  1  0  0  0
 52137  1  0  0  0
 53138  1  0  0  0
 53139  1  0  0  0
 54 55  1  0  0  0
 54140  1  0  0  0
 55 56  1  0  0  0
 55 58  1  0  0  0
 55141  1  0  0  0
 56 57  2  0  0  0
 56 65  1  0  0  0
 58 59  1  0  0  0
 58142  1  0  0  0
 58143  1  0  0  0
 59 60  1  0  0  0
 59144  1  0  0  0
 59145  1  0  0  0
 60 61  1  0  0  0
 60146  1  0  0  0
 60147  1  0  0  0
 61 62  1  0  0  0
 61148  1  0  0  0
 62 63  1  0  0  0
 62 64  2  0  0  0
 63149  1  0  0  0
 63150  1  0  0  0
 64151  1  0  0  0
 65 66  1  0  0  0
 65152  1  0  0  0
 66 67  1  0  0  0
 66 69  1  0  0  0
 66153  1  0  0  0
 67 68  2  0  0  0
 67 77  1  0  0  0
 69 70  1  0  0  0
 69154  1  0  0  0
 69155  1  0  0  0
 70 71  2  0  0  0
 70 72  1  0  0  0
 71 73  1  0  0  0
 71156  1  0  0  0
 72 74  2  0  0  0
 72157  1  0  0  0
 73 75  2  0  0  0
 73158  1  0  0  0
 74 75  1  0  0  0
 74159  1  0  0  0
 75 76  1  0  0  0
 76160  1  0  0  0
 77161  1  0  0  0
M  CHG  1   1   1
M  END
> <s_m_source_file>
../1rlq_ligand.sdf

> <i_m_source_file_index>
1

> <s_epik_input>
W0hdL049QyhbTkgyXSlcW05IXVtDSDJdW0NIMl1bQ0gyXVtDQEhdKFtOSDMrXSlDKD1PKVtOSF1bQ0BASF0oW0NIM10pQyg9TylbTkhdW0NAQEhdKFtDSDJdW0NIXShbQ0gzXSlbQ0gzXSlDKD1PKU4xW0NAQEhdKFtDSDJdW0NIMl1bQ0gyXTEpQyg9TylOMltDQEBIXShbQ0gyXVtDSDJdW0NIMl0yKUMoPU8pW05IXVtDQEBIXShbQ0gyXVtDSF0oW0NIM10pW0NIM10pQyg9TylOM1tDQEBIXShbQ0gyXVtDSDJdW0NIMl0zKUMoPU8pW05IXVtDQEBIXShbQ0gyXVtDSDJdW0NIMl1bTkhdL0MoW05IMl0pPU5cW0hdKUMoPU8pW05IXVtDQEhdKEMoPU8pW09IXSlbQ0gyXWM0W2NIXVtjSF1jKFtPSF0pW2NIXVtjSF00

> <s_epik_cmdline>
J2VwaWtfYXBwJywgJy1pbWFlJywgJ2xpZ2FuZF9wcm8ubWFlJywgJy1vbWFlJywgJ2xpZ2FuZF9wcmVwLm1hZScsICctbXMnLCAnMScsICctcGgnLCAnNycsICctcGh0JywgJzAuNScsICctbnQn

> <s_epik_pKa_notes>
Molecule size exceeds maximum supported for generating protonation states

> <s_epik_Chemistry_Notes>
This compound has an imine and may undergo hydrolysis.

$$$$
