1rne_ligand
                    3D
 Schrodinger Suite 2020-3.
113115  0  0  1  0            999 V2000
    9.1160   16.0980   59.0500 C   0  0  0  0  0  0
    7.8530   16.9150   59.3700 C   0  0  0  0  0  0
    8.7990   15.0250   57.9910 C   0  0  0  0  0  0
   10.2730   16.9410   58.5040 C   0  0  0  0  0  0
    9.8840   16.5330   61.7090 C   0  0  0  0  0  0
   10.5650   15.8190   62.8580 C   0  0  1  0  0  0
   11.2310   16.8380   63.6810 C   0  0  0  0  0  0
   12.3950   17.4700   62.9910 C   0  0  0  0  0  0
   12.1620   18.6860   62.4280 C   0  0  0  0  0  0
   13.2060   19.3510   61.7750 C   0  0  0  0  0  0
   14.5050   18.7940   61.7260 C   0  0  0  0  0  0
   14.7640   17.5730   62.3190 C   0  0  0  0  0  0
   13.7010   16.9050   62.9720 C   0  0  0  0  0  0
    9.6000   15.3690   63.8630 C   0  0  0  0  0  0
    9.1070   13.6870   65.4460 C   0  0  1  0  0  0
    8.1770   12.5680   64.9110 C   0  0  0  0  0  0
    6.8770   12.2330   65.6820 C   0  0  0  0  0  0
    5.6480   12.7740   65.5600 C   0  0  0  0  0  0
    5.5210   11.1890   67.0860 C   0  0  0  0  0  0
   10.0840   13.1450   66.4600 C   0  0  0  0  0  0
   10.9580   13.6050   68.7020 C   0  0  1  0  0  0
   11.5650   14.8660   69.2410 C   0  0  0  0  0  0
   12.3190   15.4980   68.1170 C   0  0  0  0  0  0
   13.1700   16.6640   68.6050 C   0  0  0  0  0  0
   13.8010   17.2940   67.3620 C   0  0  0  0  0  0
   14.8180   16.3160   66.7630 C   0  0  0  0  0  0
   14.2450   14.9070   66.5540 C   0  0  0  0  0  0
   13.2460   14.4230   67.6390 C   0  0  0  0  0  0
   10.2730   12.9040   69.8880 C   0  0  2  0  0  0
    9.5990   11.6040   69.4900 C   0  0  0  0  0  0
    9.4900   10.6970   70.6930 C   0  0  1  0  0  0
    8.3540    9.6780   70.5370 C   0  0  0  0  0  0
    8.6710    8.5120   71.3910 C   0  0  0  0  0  0
    7.0380   10.1740   71.0900 C   0  0  0  0  0  0
   10.7830    9.9610   70.9650 C   0  0  0  0  0  0
   12.0110    8.9910   72.9110 C   0  0  0  0  0  0
   13.3710    9.5010   72.6680 C   0  0  0  0  0  0
   14.2550    8.5750   73.4820 C   0  0  0  0  0  0
   15.6900    8.7540   72.9610 C   0  0  0  0  0  0
    9.7080   15.3800   60.4890 S   0  0  0  0  0  0
   10.9360   14.7290   60.1540 O   0  0  0  0  0  0
    8.8400   14.4200   60.9770 O   0  0  0  0  0  0
    8.6780   16.0960   64.1250 O   0  0  0  0  0  0
   10.7220   12.0980   66.2910 O   0  0  0  0  0  0
    9.3960   13.7580   70.6190 O   0  0  0  0  0  0
   11.5020    9.6090   70.0400 O   0  0  0  0  0  0
    9.9130   14.2450   64.4430 N   0  0  0  0  0  0
    6.7750   11.2140   66.6560 N   0  0  0  0  0  0
    4.8150   12.1090   66.4480 N   0  0  0  0  0  0
   10.1340   13.8920   67.5440 N   0  0  0  0  0  0
   10.9780    9.7270   72.2600 N   0  0  0  0  0  0
    8.0913   17.6772   60.1265 H   0  0  0  0  0  0
    7.0715   16.2451   59.7579 H   0  0  0  0  0  0
    7.4929   17.4071   58.4545 H   0  0  0  0  0  0
    9.7089   14.4475   57.7704 H   0  0  0  0  0  0
    8.4416   15.5117   57.0715 H   0  0  0  0  0  0
    8.0202   14.3497   58.3750 H   0  0  0  0  0  0
   11.1362   16.2904   58.2999 H   0  0  0  0  0  0
   10.5547   17.7018   59.2468 H   0  0  0  0  0  0
    9.9587   17.4359   57.5733 H   0  0  0  0  0  0
   10.4973   17.3678   61.3388 H   0  0  0  0  0  0
    8.8932   16.9087   62.0042 H   0  0  0  0  0  0
   11.1805   15.0132   62.4316 H   0  0  0  0  0  0
   10.5144   17.6350   63.9287 H   0  0  0  0  0  0
   11.6008   16.3761   64.6083 H   0  0  0  0  0  0
   11.1718   19.1381   62.4848 H   0  0  0  0  0  0
   13.0152   20.3120   61.2973 H   0  0  0  0  0  0
   15.3061   19.3307   61.2178 H   0  0  0  0  0  0
   15.7618   17.1355   62.2847 H   0  0  0  0  0  0
   13.8840   15.9500   63.4644 H   0  0  0  0  0  0
    8.4771   14.5015   65.8330 H   0  0  0  0  0  0
    8.4314   12.0145   63.9951 H   0  0  0  0  0  0
    5.2468   13.5800   64.9280 H   0  0  0  0  0  0
    5.1312   10.5142   67.8481 H   0  0  0  0  0  0
   11.6870   12.9205   68.2438 H   0  0  0  0  0  0
   10.7670   15.5330   69.5993 H   0  0  0  0  0  0
   12.2398   14.6210   70.0744 H   0  0  0  0  0  0
   11.6241   15.8651   67.3474 H   0  0  0  0  0  0
   12.5315   17.3889   69.1312 H   0  0  0  0  0  0
   13.9440   16.2909   69.2917 H   0  0  0  0  0  0
   13.0163   17.5102   66.6220 H   0  0  0  0  0  0
   14.3084   18.2289   67.6421 H   0  0  0  0  0  0
   15.1525   16.6890   65.7837 H   0  0  0  0  0  0
   15.6830   16.2281   67.4368 H   0  0  0  0  0  0
   13.7048   14.8692   65.5965 H   0  0  0  0  0  0
   15.0663   14.1754   66.5407 H   0  0  0  0  0  0
   13.8367   14.0448   68.4863 H   0  0  0  0  0  0
   12.6598   13.5999   67.2043 H   0  0  0  0  0  0
   11.0400   12.6782   70.6435 H   0  0  0  0  0  0
    8.5920   11.8169   69.1018 H   0  0  0  0  0  0
   10.1945   11.1058   68.7108 H   0  0  0  0  0  0
    9.2816   11.3614   71.5446 H   0  0  0  0  0  0
    8.2602    9.4392   69.4673 H   0  0  0  0  0  0
    9.6250    8.0697   71.0682 H   0  0  0  0  0  0
    7.8704    7.7630   71.3008 H   0  0  0  0  0  0
    8.7532    8.8365   72.4388 H   0  0  0  0  0  0
    6.7076   11.0530   70.5172 H   0  0  0  0  0  0
    7.1657   10.4517   72.1467 H   0  0  0  0  0  0
    6.2829    9.3783   71.0087 H   0  0  0  0  0  0
   11.8497    9.0165   73.9988 H   0  0  0  0  0  0
   11.9937    7.9479   72.5622 H   0  0  0  0  0  0
   13.5946    9.4508   71.5921 H   0  0  0  0  0  0
   13.4373   10.5451   73.0079 H   0  0  0  0  0  0
   14.1901    8.8475   74.5457 H   0  0  0  0  0  0
   13.9190    7.5361   73.3485 H   0  0  0  0  0  0
   16.3694    8.0983   73.5253 H   0  0  0  0  0  0
   15.9993    9.8016   73.0911 H   0  0  0  0  0  0
   15.7282    8.4902   71.8938 H   0  0  0  0  0  0
    9.7506   14.7372   70.9732 H   0  0  0  0  0  0
   10.8340   13.7322   64.1288 H   0  0  0  0  0  0
    9.4931   14.7860   67.5329 H   0  0  0  0  0  0
   10.1843   10.2038   72.8539 H   0  0  0  0  0  0
    7.6594   10.6161   66.9211 H   0  0  0  0  0  0
  1 40  1  0  0  0
  1  4  1  0  0  0
  1  3  1  0  0  0
  1  2  1  0  0  0
  2 52  1  0  0  0
  2 53  1  0  0  0
  2 54  1  0  0  0
  3 55  1  0  0  0
  3 56  1  0  0  0
  3 57  1  0  0  0
  4 58  1  0  0  0
  4 59  1  0  0  0
  4 60  1  0  0  0
  5 40  1  0  0  0
  5  6  1  0  0  0
  5 61  1  0  0  0
  5 62  1  0  0  0
  6 14  1  0  0  0
  6  7  1  0  0  0
  6 63  1  0  0  0
  7  8  1  0  0  0
  7 64  1  0  0  0
  7 65  1  0  0  0
  8 13  2  0  0  0
  8  9  1  0  0  0
  9 10  2  0  0  0
  9 66  1  0  0  0
 10 11  1  0  0  0
 10 67  1  0  0  0
 11 12  2  0  0  0
 11 68  1  0  0  0
 12 13  1  0  0  0
 12 69  1  0  0  0
 13 70  1  0  0  0
 14 47  1  0  0  0
 14 43  2  0  0  0
 15 47  1  0  0  0
 15 20  1  0  0  0
 15 16  1  0  0  0
 15 71  1  0  0  0
 16 17  2  0  0  0
 16 72  1  0  0  0
 17 48  1  0  0  0
 17 18  1  0  0  0
 18 49  2  0  0  0
 18 73  1  0  0  0
 19 49  1  0  0  0
 19 48  1  0  0  0
 19 74  1  0  0  0
 20 50  1  0  0  0
 20 44  2  0  0  0
 21 50  1  0  0  0
 21 29  1  0  0  0
 21 22  1  0  0  0
 21 75  1  0  0  0
 22 23  1  0  0  0
 22 76  1  0  0  0
 22 77  1  0  0  0
 23 28  1  0  0  0
 23 24  1  0  0  0
 23 78  1  0  0  0
 24 25  1  0  0  0
 24 79  1  0  0  0
 24 80  1  0  0  0
 25 26  1  0  0  0
 25 81  1  0  0  0
 25 82  1  0  0  0
 26 27  1  0  0  0
 26 83  1  0  0  0
 26 84  1  0  0  0
 27 28  1  0  0  0
 27 85  1  0  0  0
 27 86  1  0  0  0
 28 87  1  0  0  0
 28 88  1  0  0  0
 29 45  1  0  0  0
 29 30  1  0  0  0
 29 89  1  0  0  0
 30 31  1  0  0  0
 30 90  1  0  0  0
 30 91  1  0  0  0
 31 35  1  0  0  0
 31 32  1  0  0  0
 31 92  1  0  0  0
 32 34  1  0  0  0
 32 33  1  0  0  0
 32 93  1  0  0  0
 33 94  1  0  0  0
 33 95  1  0  0  0
 33 96  1  0  0  0
 34 97  1  0  0  0
 34 98  1  0  0  0
 34 99  1  0  0  0
 35 51  1  0  0  0
 35 46  2  0  0  0
 36 51  1  0  0  0
 36 37  1  0  0  0
 36100  1  0  0  0
 36101  1  0  0  0
 37 38  1  0  0  0
 37102  1  0  0  0
 37103  1  0  0  0
 38 39  1  0  0  0
 38104  1  0  0  0
 38105  1  0  0  0
 39106  1  0  0  0
 39107  1  0  0  0
 39108  1  0  0  0
 40 42  2  0  0  0
 40 41  2  0  0  0
 45109  1  0  0  0
 47110  1  0  0  0
 48113  1  0  0  0
 50111  1  0  0  0
 51112  1  0  0  0
M  END
> <s_m_source_file>
../1rne_ligand.sdf

> <i_m_source_file_index>
1

> <s_epik_input>
W2NIXTFbY0hdW2NIXVtjSF1bY0hdYzFbQ0gyXVtDQEhdKFtDSDJdUyg9TykoPU8pQyhbQ0gzXSkoW0NIM10pW0NIM10pQyg9TylbTkhdW0NAQEhdKFtDSDJdQzI9TltDSDJdTj1bQ0hdMilDKD1PKVtOSF1bQ0BASF0oW0NIMl1bQ0hdM1tDSDJdW0NIMl1bQ0gyXVtDSDJdW0NIMl0zKVtDQEBIXShbT0hdKVtDSDJdW0NAQEhdKFtDSF0oW0NIM10pW0NIM10pQyg9TylbTkhdW0NIMl1bQ0gyXVtDSDJdW0NIM10=

> <s_epik_cmdline>
J2VwaWtfYXBwJywgJy1pbWFlJywgJ2xpZ2FuZF9wcm8ubWFlJywgJy1vbWFlJywgJ2xpZ2FuZF9wcmVwLm1hZScsICctbXMnLCAnMScsICctcGgnLCAnNycsICctcGh0JywgJzAuNScsICctbnQn

> <r_lp_tautomer_probability>
1

> <r_epik_Ionization_Penalty>
  0.0000

> <r_epik_Ionization_Penalty_Charging>
  0.0000

> <r_epik_Ionization_Penalty_Neutral>
  0.0000

> <r_epik_State_Penalty>
 -0.0000

> <r_epik_Charging_Adjusted_Penalty>
4.9794121352579e-07

> <i_epik_Tot_Q>
0

> <i_epik_Tot_abs_Q>
0

> <s_epik_Chemistry_Notes>
This compound has an imine and may undergo hydrolysis.

$$$$
