1rnt_ligand
                    3D
 Schrodinger Suite 2020-3.
 36 38  0  0  1  0            999 V2000
   19.6640   35.4300   19.2180 P   0  0  0  0  0  0
   20.7560   35.1860   18.0640 O   0  5  0  0  0  0
   20.1580   36.6050   20.0270 O   0  5  0  0  0  0
   18.4070   35.4500   18.5110 O   0  0  0  0  0  0
   17.7700   34.7750   23.9900 O   0  0  0  0  0  0
   18.7590   33.9350   24.5860 C   0  0  0  0  0  0
   19.4260   33.0730   23.5410 C   0  0  1  0  0  0
   18.3890   32.3120   22.8240 O   0  0  0  0  0  0
   20.2770   33.7640   22.4530 C   0  0  1  0  0  0
   21.2650   32.8320   22.0490 O   0  0  0  0  0  0
   19.2330   33.9200   21.3340 C   0  0  1  0  0  0
   19.9030   34.1540   20.1060 O   0  0  0  0  0  0
   18.5040   32.6080   21.4160 C   0  0  2  0  0  0
   17.1880   32.4230   20.8480 N   0  0  0  0  0  0
   16.7810   31.3610   20.1310 C   0  0  0  0  0  0
   15.4920   31.2710   20.0350 N   0  0  0  0  0  0
   14.9600   32.3310   20.7650 C   0  0  0  0  0  0
   13.6370   32.7550   21.0280 C   0  0  0  0  0  0
   12.5270   32.2980   20.6690 O   0  0  0  0  0  0
   13.5740   33.8900   21.8150 N   0  0  0  0  0  0
   14.7280   34.5260   22.2670 C   0  0  0  0  0  0
   14.4850   35.5960   23.0320 N   0  0  0  0  0  0
   15.9480   34.1530   22.0390 N   0  0  0  0  0  0
   16.0190   33.0400   21.2750 C   0  0  0  0  0  0
   17.1882   35.4684   24.6150 H   0  0  0  0  0  0
   19.5231   34.5578   25.0741 H   0  0  0  0  0  0
   18.2841   33.2835   25.3344 H   0  0  0  0  0  0
   20.1010   32.4463   24.1424 H   0  0  0  0  0  0
   20.8379   34.6712   22.7220 H   0  0  0  0  0  0
   22.0998   32.5887   22.7227 H   0  0  0  0  0  0
   18.5469   34.7796   21.3528 H   0  0  0  0  0  0
   19.0864   31.9186   20.7871 H   0  0  0  0  0  0
   17.4671   30.6468   19.6758 H   0  0  0  0  0  0
   12.5973   34.3100   22.0974 H   0  0  0  0  0  0
   13.4487   35.9108   23.2242 H   0  0  0  0  0  0
   15.3215   36.1611   23.4689 H   0  0  0  0  0  0
  1  2  1  0  0  0
  1  3  1  0  0  0
  1  4  2  0  0  0
  1 12  1  0  0  0
  5  6  1  0  0  0
  5 25  1  0  0  0
  6  7  1  0  0  0
  6 26  1  0  0  0
  6 27  1  0  0  0
  7  8  1  0  0  0
  7  9  1  0  0  0
  7 28  1  0  0  0
  8 13  1  0  0  0
  9 10  1  0  0  0
  9 11  1  0  0  0
  9 29  1  0  0  0
 10 30  1  0  0  0
 11 12  1  0  0  0
 11 13  1  0  0  0
 11 31  1  0  0  0
 13 14  1  0  0  0
 13 32  1  0  0  0
 14 15  1  0  0  0
 14 24  1  0  0  0
 15 16  2  0  0  0
 15 33  1  0  0  0
 16 17  1  0  0  0
 17 18  1  0  0  0
 17 24  2  0  0  0
 18 19  2  0  0  0
 18 20  1  0  0  0
 20 21  1  0  0  0
 20 34  1  0  0  0
 21 22  1  0  0  0
 21 23  2  0  0  0
 22 35  1  0  0  0
 22 36  1  0  0  0
 23 24  1  0  0  0
M  CHG  2   2  -1   3  -1
M  END
> <s_m_source_file>
../1rnt_ligand.sdf

> <i_m_source_file_index>
1

> <s_epik_input>
W09IXVAoPU8pKFtPSF0pT1tDQEhdKFtDQEBIXTFbT0hdKVtDQEBIXShPW0NAQEhdMVtDSDJdW09IXSluKFtjSF1uMiljKGMyMyluYyhbTkgyXSlbbkhdYzM9Tw==

> <s_epik_cmdline>
J2VwaWtfYXBwJywgJy1pbWFlJywgJ2xpZ2FuZF9wcm8ubWFlJywgJy1vbWFlJywgJ2xpZ2FuZF9wcmVwLm1hZScsICctbXMnLCAnMScsICctcGgnLCAnNycsICctcGh0JywgJzAuNScsICctbnQn

> <r_lp_tautomer_probability>
0.999940409345307

> <r_epik_Ionization_Penalty>
  0.0708

> <r_epik_Ionization_Penalty_Charging>
  0.0707

> <r_epik_Ionization_Penalty_Neutral>
  0.0001

> <r_epik_State_Penalty>
  0.0606

> <r_epik_Charging_Adjusted_Penalty>
0.131326667537995

> <i_epik_Tot_Q>
-2

> <i_epik_Tot_abs_Q>
2

> <s_epik_Chemistry_Notes>
This compound contains an acetal/aminal-like group ( X-CH(R)-Y where X, Y are N, S, or O) that may be acid/base labile, releasing an aldehyde.

$$$$
