1ro6_ligand
                    3D
 Schrodinger Suite 2020-3.
 41 43  0  0  1  0            999 V2000
   32.3880   75.3670   22.0660 C   0  0  0  0  0  0
   32.0700   75.9080   20.8170 C   0  0  0  0  0  0
   31.7440   77.2840   20.6410 C   0  0  0  0  0  0
   31.7800   78.1470   21.7500 C   0  0  0  0  0  0
   32.0800   77.6010   23.0140 C   0  0  0  0  0  0
   32.3680   76.2310   23.1800 C   0  0  0  0  0  0
   32.7140   73.8820   22.1460 C   0  0  1  0  0  0
   34.0240   73.4890   22.8680 C   0  0  0  0  0  0
   33.5700   72.4390   23.8950 C   0  0  0  0  0  0
   34.2760   71.9940   24.7980 O   0  0  0  0  0  0
   32.2890   72.1030   23.6680 N   0  0  0  0  0  0
   31.6120   73.0950   22.8460 C   0  0  0  0  0  0
   31.3730   77.8860   19.4320 O   0  0  0  0  0  0
   31.1640   77.0760   18.2680 C   0  0  0  0  0  0
   32.5030   76.7930   17.5870 C   0  0  0  0  0  0
   32.8320   78.1180   16.9100 C   0  0  0  0  0  0
   31.4860   78.6660   16.4470 C   0  0  0  0  0  0
   30.4150   77.9020   17.2180 C   0  0  0  0  0  0
   31.5020   79.4880   21.4880 O   0  0  0  0  0  0
   31.6980   80.4640   22.5060 C   0  0  0  0  0  0
   32.0714   75.2532   19.9456 H   0  0  0  0  0  0
   32.0896   78.2549   23.8860 H   0  0  0  0  0  0
   32.5763   75.8376   24.1749 H   0  0  0  0  0  0
   32.8080   73.6391   21.0773 H   0  0  0  0  0  0
   34.7362   73.0780   22.1374 H   0  0  0  0  0  0
   34.4607   74.3786   23.3453 H   0  0  0  0  0  0
   31.7435   71.2145   24.0188 H   0  0  0  0  0  0
   31.0088   73.7777   23.4625 H   0  0  0  0  0  0
   30.9688   72.6158   22.0932 H   0  0  0  0  0  0
   30.6379   76.1851   18.6414 H   0  0  0  0  0  0
   33.2476   76.5101   18.3456 H   0  0  0  0  0  0
   32.3817   75.9699   16.8675 H   0  0  0  0  0  0
   33.3174   78.7890   17.6339 H   0  0  0  0  0  0
   33.5113   77.9386   16.0636 H   0  0  0  0  0  0
   31.4335   79.7427   16.6660 H   0  0  0  0  0  0
   31.3781   78.5065   15.3640 H   0  0  0  0  0  0
   29.8511   77.2286   16.5557 H   0  0  0  0  0  0
   29.7189   78.5896   17.7206 H   0  0  0  0  0  0
   31.4282   81.4574   22.1183 H   0  0  0  0  0  0
   32.7539   80.4651   22.8145 H   0  0  0  0  0  0
   31.0633   80.2235   23.3716 H   0  0  0  0  0  0
  1  2  2  0  0  0
  1  6  1  0  0  0
  1  7  1  0  0  0
  2  3  1  0  0  0
  2 21  1  0  0  0
  3  4  2  0  0  0
  3 13  1  0  0  0
  4  5  1  0  0  0
  4 19  1  0  0  0
  5  6  2  0  0  0
  5 22  1  0  0  0
  6 23  1  0  0  0
  7  8  1  0  0  0
  7 12  1  0  0  0
  7 24  1  0  0  0
  8  9  1  0  0  0
  8 25  1  0  0  0
  8 26  1  0  0  0
  9 10  2  0  0  0
  9 11  1  0  0  0
 11 12  1  0  0  0
 11 27  1  0  0  0
 12 28  1  0  0  0
 12 29  1  0  0  0
 13 14  1  0  0  0
 14 15  1  0  0  0
 14 18  1  0  0  0
 14 30  1  0  0  0
 15 16  1  0  0  0
 15 31  1  0  0  0
 15 32  1  0  0  0
 16 17  1  0  0  0
 16 33  1  0  0  0
 16 34  1  0  0  0
 17 18  1  0  0  0
 17 35  1  0  0  0
 17 36  1  0  0  0
 18 37  1  0  0  0
 18 38  1  0  0  0
 19 20  1  0  0  0
 20 39  1  0  0  0
 20 40  1  0  0  0
 20 41  1  0  0  0
M  END
> <s_m_source_file>
../1ro6_ligand.sdf

> <i_m_source_file_index>
1

> <s_epik_input>
W0NIMl0xW05IXUMoPU8pW0NIMl1bQ0BASF0xYzJbY0hdYyhjKFtjSF1bY0hdMilPW0NIM10pT1tDSF0zW0NIMl1bQ0gyXVtDSDJdW0NIMl0z

> <s_epik_cmdline>
J2VwaWtfYXBwJywgJy1pbWFlJywgJ2xpZ2FuZF9wcm8ubWFlJywgJy1vbWFlJywgJ2xpZ2FuZF9wcmVwLm1hZScsICctbXMnLCAnMScsICctcGgnLCAnNycsICctcGh0JywgJzAuNScsICctbnQn

> <r_lp_tautomer_probability>
1

> <r_epik_Ionization_Penalty>
  0.0000

> <r_epik_Ionization_Penalty_Charging>
  0.0000

> <r_epik_Ionization_Penalty_Neutral>
  0.0000

> <r_epik_State_Penalty>
 -0.0000

> <r_epik_Charging_Adjusted_Penalty>
0

> <i_epik_Tot_Q>
0

> <i_epik_Tot_abs_Q>
0

$$$$
