1rp7_ligand
                    3D
 Schrodinger Suite 2020-3.
 42 43  0  0  1  0            999 V2000
   26.8550  -36.6420    7.9760 N   0  0  0  0  0  0
   27.5730  -37.5100    8.7760 C   0  0  0  0  0  0
   27.5250  -38.9560    8.4210 C   0  0  0  0  0  0
   28.3060  -37.1010    9.8140 N   0  0  0  0  0  0
   28.3570  -35.7320   10.1070 C   0  0  0  0  0  0
   29.1190  -35.3850   11.1210 N   0  0  0  0  0  0
   27.5980  -34.7660    9.2700 C   0  0  0  0  0  0
   26.8740  -35.2860    8.2260 C   0  0  0  0  0  0
   27.5830  -33.2690    9.4980 C   0  0  0  0  0  0
   26.9290  -32.8530   10.8070 N   0  0  0  0  0  0
   27.6390  -32.5760   11.9350 C   0  0  0  0  0  0
   28.8740  -32.6730   12.0850 O   0  0  0  0  0  0
   26.5460  -32.0710   13.2170 S   0  0  0  0  0  0
   25.1530  -32.2660   12.1810 C   0  0  0  0  0  0
   25.5170  -32.6810   10.9290 C   0  0  0  0  0  0
   24.5980  -32.9440    9.7640 C   0  0  0  0  0  0
   23.7660  -32.0640   12.7000 C   0  0  0  0  0  0
   23.5580  -32.7590   14.0120 C   0  0  0  0  0  0
   22.1430  -32.8900   14.2210 O   0  0  0  0  0  0
   21.5720  -33.7640   15.4290 P   0  0  1  0  0  0
   22.3700  -33.2020   16.6960 O   0  0  0  0  0  0
   20.1370  -33.4400   15.5840 O   0  0  0  0  0  0
   21.9760  -35.1850   15.2240 O   0  5  0  0  0  0
   22.3160  -31.8670   17.5750 P   0  0  0  0  0  0
   22.3320  -32.3180   19.0680 O   0  5  0  0  0  0
   23.5540  -31.1030   17.2820 O   0  5  0  0  0  0
   21.0240  -31.2100   17.2810 O   0  0  0  0  0  0
   26.8748  -39.0971    7.5450 H   0  0  0  0  0  0
   27.1252  -39.5290    9.2706 H   0  0  0  0  0  0
   28.5396  -39.3095    8.1853 H   0  0  0  0  0  0
   29.6524  -36.1555   11.6971 H   0  0  0  0  0  0
   29.2230  -34.3243   11.3931 H   0  0  0  0  0  0
   26.3040  -34.6151    7.5832 H   0  0  0  0  0  0
   28.6156  -32.8903    9.5145 H   0  0  0  0  0  0
   27.0260  -32.7799    8.6853 H   0  0  0  0  0  0
   25.1906  -33.2654    8.8948 H   0  0  0  0  0  0
   24.0501  -32.0235    9.5141 H   0  0  0  0  0  0
   23.8825  -33.7351   10.0327 H   0  0  0  0  0  0
   23.5815  -30.9893   12.8446 H   0  0  0  0  0  0
   23.0416  -32.4663   11.9766 H   0  0  0  0  0  0
   24.0323  -33.7510   13.9807 H   0  0  0  0  0  0
   24.0090  -32.1623   14.8186 H   0  0  0  0  0  0
  1  2  2  0  0  0
  1  8  1  0  0  0
  2  3  1  0  0  0
  2  4  1  0  0  0
  3 28  1  0  0  0
  3 29  1  0  0  0
  3 30  1  0  0  0
  4  5  2  0  0  0
  5  6  1  0  0  0
  5  7  1  0  0  0
  6 31  1  0  0  0
  6 32  1  0  0  0
  7  8  2  0  0  0
  7  9  1  0  0  0
  8 33  1  0  0  0
  9 10  1  0  0  0
  9 34  1  0  0  0
  9 35  1  0  0  0
 10 11  1  0  0  0
 10 15  1  0  0  0
 11 12  2  0  0  0
 11 13  1  0  0  0
 13 14  1  0  0  0
 14 15  2  0  0  0
 14 17  1  0  0  0
 15 16  1  0  0  0
 16 36  1  0  0  0
 16 37  1  0  0  0
 16 38  1  0  0  0
 17 18  1  0  0  0
 17 39  1  0  0  0
 17 40  1  0  0  0
 18 19  1  0  0  0
 18 41  1  0  0  0
 18 42  1  0  0  0
 19 20  1  0  0  0
 20 21  1  0  0  0
 20 22  2  0  0  0
 20 23  1  0  0  0
 21 24  1  0  0  0
 24 25  1  0  0  0
 24 26  1  0  0  0
 24 27  2  0  0  0
M  CHG  3  23  -1  25  -1  26  -1
M  END
> <s_m_source_file>
../1rp7_ligand.sdf

> <i_m_source_file_index>
1

> <s_epik_input>
W0NIM11jMW5bY0hdYyhjKG4xKVtOSDJdKVtDSDJdbjJjKD1PKXNjKGMyW0NIM10pW0NIMl1bQ0gyXU9bUEBAXSg9TykoW09IXSlPUCg9TykoW09IXSlbT0hd

> <s_epik_cmdline>
J2VwaWtfYXBwJywgJy1pbWFlJywgJ2xpZ2FuZF9wcm8ubWFlJywgJy1vbWFlJywgJ2xpZ2FuZF9wcmVwLm1hZScsICctbXMnLCAnMScsICctcGgnLCAnNycsICctcGh0JywgJzAuNScsICctbnQn

> <r_lp_tautomer_probability>
1

> <r_epik_Ionization_Penalty>
  0.1081

> <r_epik_Ionization_Penalty_Charging>
  0.0846

> <r_epik_Ionization_Penalty_Neutral>
  0.0235

> <r_epik_State_Penalty>
 -0.0000

> <r_epik_Charging_Adjusted_Penalty>
0.0846162928704449

> <i_epik_Tot_Q>
-3

> <i_epik_Tot_abs_Q>
3

$$$$
