1rq2_ligand
                    3D
 Schrodinger Suite 2020-3.
 18 17  0  0  1  0            999 V2000
  -10.6580   41.9950    4.6430 C   0  0  0  0  0  0
  -11.3460   41.0660    5.1250 O   0  0  0  0  0  0
  -10.5770   43.0840    5.2650 O   0  5  0  0  0  0
   -9.9550   41.7830    3.3270 C   0  0  0  0  0  0
   -8.4460   41.5450    3.4900 C   0  0  0  0  0  0
   -7.8450   42.6840    4.1630 O   0  0  0  0  0  0
   -8.2180   40.2660    4.3010 C   0  0  0  0  0  0
   -6.7650   40.0060    4.5800 C   0  0  0  0  0  0
   -6.4660   39.4410    5.6710 O   0  5  0  0  0  0
   -5.8950   40.3140    3.7340 O   0  0  0  0  0  0
   -7.8990   41.4360    2.0670 C   0  0  0  0  0  0
   -8.0450   40.3900    1.4040 O   0  0  0  0  0  0
   -7.3290   42.4020    1.5090 O   0  5  0  0  0  0
  -10.3811   40.9041    2.8211 H   0  0  0  0  0  0
  -10.0884   42.6717    2.6926 H   0  0  0  0  0  0
   -8.1219   42.9182    5.2015 H   0  0  0  0  0  0
   -8.7367   40.3474    5.2676 H   0  0  0  0  0  0
   -8.6132   39.4035    3.7443 H   0  0  0  0  0  0
  1  2  2  0  0  0
  1  3  1  0  0  0
  1  4  1  0  0  0
  4  5  1  0  0  0
  4 14  1  0  0  0
  4 15  1  0  0  0
  5  6  1  0  0  0
  5  7  1  0  0  0
  5 11  1  0  0  0
  6 16  1  0  0  0
  7  8  1  0  0  0
  7 17  1  0  0  0
  7 18  1  0  0  0
  8  9  1  0  0  0
  8 10  2  0  0  0
 11 12  2  0  0  0
 11 13  1  0  0  0
M  CHG  3   3  -1   9  -1  13  -1
M  END
> <s_m_source_file>
../1rq2_ligand.sdf

> <i_m_source_file_index>
1

> <s_epik_input>
Tz1DKFtPSF0pW0NIMl1DKFtPSF0pKEMoPU8pW09IXSlbQ0gyXUMoPU8pW09IXQ==

> <s_epik_cmdline>
J2VwaWtfYXBwJywgJy1pbWFlJywgJ2xpZ2FuZF9wcm8ubWFlJywgJy1vbWFlJywgJ2xpZ2FuZF9wcmVwLm1hZScsICctbXMnLCAnMScsICctcGgnLCAnNycsICctcGh0JywgJzAuNScsICctbnQn

> <r_lp_tautomer_probability>
1

> <r_epik_Ionization_Penalty>
  0.0046

> <r_epik_Ionization_Penalty_Charging>
  0.0046

> <r_epik_Ionization_Penalty_Neutral>
  0.0000

> <r_epik_State_Penalty>
 -0.0000

> <r_epik_Charging_Adjusted_Penalty>
0.0045906918398983

> <i_epik_Tot_Q>
-3

> <i_epik_Tot_abs_Q>
3

$$$$
