1rri_ligand
                    3D
 Schrodinger Suite 2020-3.
 27 29  0  0  1  0            999 V2000
   33.6210   53.8810   59.9950 N   0  0  0  0  0  0
   33.9020   54.6570   61.0760 C   0  0  0  0  0  0
   32.8320   55.2340   61.8070 N   0  0  0  0  0  0
   33.0410   56.0220   62.8790 C   0  0  0  0  0  0
   31.9550   56.5550   63.5550 O   0  0  0  0  0  0
   34.4390   56.3120   63.3390 C   0  0  0  0  0  0
   34.9830   57.0220   64.3210 N   0  0  0  0  0  0
   36.4280   56.8950   64.2220 N   0  0  0  0  0  0
   36.6930   56.0340   63.0620 N   0  0  0  0  0  0
   35.5350   55.6770   62.5290 C   0  0  0  0  0  0
   35.1740   54.8640   61.4100 N   0  0  0  0  0  0
   37.3970   57.4810   65.0740 C   0  0  0  0  0  0
   37.8380   58.8170   64.8420 C   0  0  0  0  0  0
   38.8160   59.4120   65.7150 C   0  0  0  0  0  0
   39.3710   58.6590   66.8000 C   0  0  0  0  0  0
   38.9310   57.3150   67.0280 C   0  0  0  0  0  0
   37.9480   56.7260   66.1610 C   0  0  0  0  0  0
   39.4900   56.5200   68.1520 C   0  0  0  0  0  0
   39.1090   55.3760   68.3510 O   0  0  0  0  0  0
   40.4020   57.0410   68.9520 O   0  5  0  0  0  0
   32.5755   53.6996   59.7050 H   0  0  0  0  0  0
   34.4392   53.4347   59.4107 H   0  0  0  0  0  0
   31.7922   55.0428   61.5032 H   0  0  0  0  0  0
   37.4352   59.3870   64.0048 H   0  0  0  0  0  0
   39.1359   60.4408   65.5496 H   0  0  0  0  0  0
   40.1241   59.1064   67.4486 H   0  0  0  0  0  0
   37.6198   55.7005   66.3306 H   0  0  0  0  0  0
  1  2  1  0  0  0
  1 21  1  0  0  0
  1 22  1  0  0  0
  2  3  1  0  0  0
  2 11  2  0  0  0
  3  4  1  0  0  0
  3 23  1  0  0  0
  4  5  2  0  0  0
  4  6  1  0  0  0
  6  7  2  0  0  0
  6 10  1  0  0  0
  7  8  1  0  0  0
  8  9  1  0  0  0
  8 12  1  0  0  0
  9 10  2  0  0  0
 10 11  1  0  0  0
 12 13  2  0  0  0
 12 17  1  0  0  0
 13 14  1  0  0  0
 13 24  1  0  0  0
 14 15  2  0  0  0
 14 25  1  0  0  0
 15 16  1  0  0  0
 15 26  1  0  0  0
 16 17  2  0  0  0
 16 18  1  0  0  0
 17 27  1  0  0  0
 18 19  2  0  0  0
 18 20  1  0  0  0
M  CHG  1  20  -1
M  END
> <s_m_source_file>
../1rri_ligand.sdf

> <i_m_source_file_index>
1

> <s_epik_input>
Tz1jMVtuSF1jKFtOSDJdKW5jKGMxMilubihuMiktYzNbY0hdW2NIXVtjSF1jKFtjSF0zKUMoPU8pW09IXQ==

> <s_epik_cmdline>
J2VwaWtfYXBwJywgJy1pbWFlJywgJ2xpZ2FuZF9wcm8ubWFlJywgJy1vbWFlJywgJ2xpZ2FuZF9wcmVwLm1hZScsICctbXMnLCAnMScsICctcGgnLCAnNycsICctcGh0JywgJzAuNScsICctbnQn

> <r_lp_tautomer_probability>
1

> <r_epik_Ionization_Penalty>
  0.0008

> <r_epik_Ionization_Penalty_Charging>
  0.0007

> <r_epik_Ionization_Penalty_Neutral>
  0.0000

> <r_epik_State_Penalty>
 -0.0000

> <r_epik_Charging_Adjusted_Penalty>
0.000745631003862906

> <i_epik_Tot_Q>
-1

> <i_epik_Tot_abs_Q>
1

$$$$
