1rrw_ligand
                    3D
 Schrodinger Suite 2020-3.
 19 20  0  0  1  0            999 V2000
   51.2670   45.6840   74.4570 C   0  0  0  0  0  0
   50.0290   46.4900   74.5330 N   0  0  0  0  0  0
   49.6010   47.4500   73.6390 C   0  0  0  0  0  0
   48.4430   47.9600   74.0280 N   0  0  0  0  0  0
   48.0550   47.3390   75.2220 C   0  0  0  0  0  0
   46.9480   47.4370   76.1020 C   0  0  0  0  0  0
   45.9320   48.3240   75.8400 O   0  0  0  0  0  0
   46.9150   46.6380   77.2300 N   0  0  0  0  0  0
   47.9310   45.7480   77.5070 C   0  0  0  0  0  0
   47.8780   44.9530   78.6640 N   0  0  0  0  0  0
   48.9830   45.6350   76.6720 N   0  0  0  0  0  0
   49.0770   46.3980   75.5520 C   0  0  0  0  0  0
   51.8301   45.9612   73.5536 H   0  0  0  0  0  0
   51.0071   44.6160   74.4138 H   0  0  0  0  0  0
   51.8844   45.8754   75.3471 H   0  0  0  0  0  0
   50.1403   47.7466   72.7394 H   0  0  0  0  0  0
   46.0667   46.7052   77.9270 H   0  0  0  0  0  0
   47.0234   45.0383   79.3513 H   0  0  0  0  0  0
   48.6911   44.2451   78.8827 H   0  0  0  0  0  0
  1  2  1  0  0  0
  1 13  1  0  0  0
  1 14  1  0  0  0
  1 15  1  0  0  0
  2  3  1  0  0  0
  2 12  1  0  0  0
  3  4  2  0  0  0
  3 16  1  0  0  0
  4  5  1  0  0  0
  5  6  1  0  0  0
  5 12  2  0  0  0
  6  7  2  0  0  0
  6  8  1  0  0  0
  8  9  1  0  0  0
  8 17  1  0  0  0
  9 10  1  0  0  0
  9 11  2  0  0  0
 10 18  1  0  0  0
 10 19  1  0  0  0
 11 12  1  0  0  0
M  END
> <s_m_source_file>
../1rrw_ligand.sdf

> <i_m_source_file_index>
1

> <s_epik_input>
bjFbY0hdbihbQ0gzXSljKGMxMiluYyhbTkgyXSlbbkhdYzI9Tw==

> <s_epik_cmdline>
J2VwaWtfYXBwJywgJy1pbWFlJywgJ2xpZ2FuZF9wcm8ubWFlJywgJy1vbWFlJywgJ2xpZ2FuZF9wcmVwLm1hZScsICctbXMnLCAnMScsICctcGgnLCAnNycsICctcGh0JywgJzAuNScsICctbnQn

> <r_lp_tautomer_probability>
1

> <r_epik_Ionization_Penalty>
  0.0012

> <r_epik_Ionization_Penalty_Charging>
  0.0010

> <r_epik_Ionization_Penalty_Neutral>
  0.0002

> <r_epik_State_Penalty>
 -0.0000

> <r_epik_Charging_Adjusted_Penalty>
0.00103922842874542

> <i_epik_Tot_Q>
0

> <i_epik_Tot_abs_Q>
0

$$$$
