1rry_ligand
                    3D
 Schrodinger Suite 2020-3.
 22 22  0  0  1  0            999 V2000
   51.3450   47.2590   71.5030 C   0  0  0  0  0  0
   50.0950   47.8670   72.1010 C   0  0  0  0  0  0
   49.7930   47.1800   73.3110 O   0  0  0  0  0  0
   48.6980   47.5250   74.0390 C   0  0  0  0  0  0
   47.9600   48.4380   73.6740 O   0  0  0  0  0  0
   48.4060   46.7720   75.2910 C   0  0  0  0  0  0
   49.2530   45.7290   75.7220 C   0  0  0  0  0  0
   48.9870   45.0360   76.8640 N   0  0  0  0  0  0
   47.9040   45.3210   77.6110 C   0  0  0  0  0  0
   47.6520   44.5870   78.7770 N   0  0  0  0  0  0
   47.0600   46.3070   77.2340 N   0  0  0  0  0  0
   47.2720   47.0460   76.1100 C   0  0  0  0  0  0
   46.3850   48.0410   75.7740 O   0  0  0  0  0  0
   51.5933   47.7787   70.5658 H   0  0  0  0  0  0
   51.1712   46.1927   71.2960 H   0  0  0  0  0  0
   52.1791   47.3636   72.2124 H   0  0  0  0  0  0
   50.2688   48.9333   72.3080 H   0  0  0  0  0  0
   49.2609   47.7624   71.3916 H   0  0  0  0  0  0
   50.1334   45.4740   75.1321 H   0  0  0  0  0  0
   48.3405   43.7850   79.0816 H   0  0  0  0  0  0
   46.7656   44.8125   79.3881 H   0  0  0  0  0  0
   46.1710   46.5322   77.8415 H   0  0  0  0  0  0
  1  2  1  0  0  0
  1 14  1  0  0  0
  1 15  1  0  0  0
  1 16  1  0  0  0
  2  3  1  0  0  0
  2 17  1  0  0  0
  2 18  1  0  0  0
  3  4  1  0  0  0
  4  5  2  0  0  0
  4  6  1  0  0  0
  6  7  2  0  0  0
  6 12  1  0  0  0
  7  8  1  0  0  0
  7 19  1  0  0  0
  8  9  2  0  0  0
  9 10  1  0  0  0
  9 11  1  0  0  0
 10 20  1  0  0  0
 10 21  1  0  0  0
 11 12  1  0  0  0
 11 22  1  0  0  0
 12 13  2  0  0  0
M  END
> <s_m_source_file>
../1rry_ligand.sdf

> <i_m_source_file_index>
1

> <s_epik_input>
W0NIM11bQ0gyXU9DKD1PKWMxW2NIXW5jKFtOSDJdKVtuSF1jMT1P

> <s_epik_cmdline>
J2VwaWtfYXBwJywgJy1pbWFlJywgJ2xpZ2FuZF9wcm8ubWFlJywgJy1vbWFlJywgJ2xpZ2FuZF9wcmVwLm1hZScsICctbXMnLCAnMScsICctcGgnLCAnNycsICctcGh0JywgJzAuNScsICctbnQn

> <r_lp_tautomer_probability>
1

> <r_epik_Ionization_Penalty>
  0.0087

> <r_epik_Ionization_Penalty_Charging>
  0.0086

> <r_epik_Ionization_Penalty_Neutral>
  0.0000

> <r_epik_State_Penalty>
 -0.0000

> <r_epik_Charging_Adjusted_Penalty>
0.0086325474376922

> <i_epik_Tot_Q>
0

> <i_epik_Tot_abs_Q>
0

> <s_epik_Chemistry_Notes>
This compound has an ester and may undergo hydrolysis at high or low pH.

$$$$
