1rs2_ligand
                    3D
 Schrodinger Suite 2020-3.
 23 24  0  0  1  0            999 V2000
   48.0840   47.9700   74.0810 N   0  0  0  0  0  0
   47.3250   47.7430   75.2340 C   0  0  0  0  0  0
   47.7940   46.7250   76.1850 C   0  0  0  0  0  0
   48.9050   46.0440   75.9490 C   0  0  0  0  0  0
   49.6740   46.3260   74.7110 N   0  0  0  0  0  0
   49.2610   47.2860   73.7820 C   0  0  0  0  0  0
   47.2170   46.2670   77.4540 N   0  0  0  0  0  0
   48.0480   45.3130   77.9120 C   0  0  0  0  0  0
   49.1050   45.0990   77.0690 N   0  0  0  0  0  0
   47.8650   44.6400   79.0350 N   0  0  0  0  0  0
   50.9050   45.5810   74.4290 C   0  0  0  0  0  0
   47.6260   48.9900   73.1150 C   0  0  0  0  0  0
   49.9130   47.5100   72.7470 O   0  0  0  0  0  0
   46.2750   48.3110   75.5490 O   0  0  0  0  0  0
   46.2829   46.7131   77.8262 H   0  0  0  0  0  0
   46.9947   44.8582   79.6714 H   0  0  0  0  0  0
   51.0973   44.8684   75.2446 H   0  0  0  0  0  0
   51.7482   46.2829   74.3490 H   0  0  0  0  0  0
   50.7930   45.0329   73.4819 H   0  0  0  0  0  0
   46.6925   49.4452   73.4774 H   0  0  0  0  0  0
   47.4479   48.5162   72.1384 H   0  0  0  0  0  0
   48.3967   49.7678   73.0101 H   0  0  0  0  0  0
   48.5830   43.8618   79.3331 H   0  0  0  0  0  0
  1  2  1  0  0  0
  1  6  1  0  0  0
  1 12  1  0  0  0
  2  3  1  0  0  0
  2 14  2  0  0  0
  3  4  2  0  0  0
  3  7  1  0  0  0
  4  5  1  0  0  0
  4  9  1  0  0  0
  5  6  1  0  0  0
  5 11  1  0  0  0
  6 13  2  0  0  0
  7  8  1  0  0  0
  7 15  1  0  0  0
  8  9  2  0  0  0
  8 10  1  0  0  0
 10 16  1  0  0  0
 10 23  1  0  0  0
 11 17  1  0  0  0
 11 18  1  0  0  0
 11 19  1  0  0  0
 12 20  1  0  0  0
 12 21  1  0  0  0
 12 22  1  0  0  0
M  END
> <s_m_source_file>
../1rs2_ligand.sdf

> <i_m_source_file_index>
1

> <s_epik_input>
Tz1jMW4oW0NIM10pYyg9TyluKFtDSDNdKWMoYzEyKVtuSF1jKFxbbkhdMik9Ti9bSF0=

> <s_epik_cmdline>
J2VwaWtfYXBwJywgJy1pbWFlJywgJ2xpZ2FuZF9wcm8ubWFlJywgJy1vbWFlJywgJ2xpZ2FuZF9wcmVwLm1hZScsICctbXMnLCAnMScsICctcGgnLCAnNycsICctcGh0JywgJzAuNScsICctbnQn

> <r_epik_Ionization_Penalty>
  0.0030

> <r_epik_Ionization_Penalty_Charging>
  0.0000

> <r_epik_Ionization_Penalty_Neutral>
  0.0030

> <r_epik_State_Penalty>
  0.0070

> <r_epik_Charging_Adjusted_Penalty>
0.00697741822115617

> <i_epik_Tot_Q>
0

> <i_epik_Tot_abs_Q>
0

$$$$
