1rsi_ligand
                    3D
 Schrodinger Suite 2020-3.
 23 24  0  0  1  0            999 V2000
   47.8010   44.9010   78.9940 N   0  0  0  0  0  0
   47.8660   45.6470   77.8720 C   0  0  0  0  0  0
   48.9410   45.5550   77.0970 N   0  0  0  0  0  0
   49.0550   46.3020   75.9260 C   0  0  0  0  0  0
   48.0250   47.1780   75.5140 C   0  0  0  0  0  0
   48.1460   48.2120   73.8810 Br  0  0  0  0  0  0
   46.8040   47.2640   76.4030 C   0  0  0  0  0  0
   45.8350   48.0110   76.1340 O   0  0  0  0  0  0
   46.8000   46.4920   77.5330 N   0  0  0  0  0  0
   50.2730   46.1180   75.1110 C   0  0  0  0  0  0
   51.2510   47.1380   75.0150 C   0  0  0  0  0  0
   52.3990   46.9520   74.2010 C   0  0  0  0  0  0
   52.5650   45.7410   73.4750 C   0  0  0  0  0  0
   51.5910   44.7120   73.5740 C   0  0  0  0  0  0
   50.4480   44.8940   74.3850 C   0  0  0  0  0  0
   48.6361   44.2372   79.2622 H   0  0  0  0  0  0
   46.9129   44.9565   79.6407 H   0  0  0  0  0  0
   45.9168   46.5522   78.1859 H   0  0  0  0  0  0
   51.1218   48.0685   75.5678 H   0  0  0  0  0  0
   53.1524   47.7368   74.1327 H   0  0  0  0  0  0
   53.4410   45.6020   72.8415 H   0  0  0  0  0  0
   51.7253   43.7807   73.0237 H   0  0  0  0  0  0
   49.7001   44.1045   74.4585 H   0  0  0  0  0  0
  1  2  1  0  0  0
  1 16  1  0  0  0
  1 17  1  0  0  0
  2  3  2  0  0  0
  2  9  1  0  0  0
  3  4  1  0  0  0
  4  5  2  0  0  0
  4 10  1  0  0  0
  5  6  1  0  0  0
  5  7  1  0  0  0
  7  8  2  0  0  0
  7  9  1  0  0  0
  9 18  1  0  0  0
 10 11  2  0  0  0
 10 15  1  0  0  0
 11 12  1  0  0  0
 11 19  1  0  0  0
 12 13  2  0  0  0
 12 20  1  0  0  0
 13 14  1  0  0  0
 13 21  1  0  0  0
 14 15  2  0  0  0
 14 22  1  0  0  0
 15 23  1  0  0  0
M  END
> <s_m_source_file>
../1rsi_ligand.sdf

> <i_m_source_file_index>
1

> <s_epik_input>
W05IMl1jMW5jKGMoQnIpYyg9TylbbkhdMSktYzJbY0hdW2NIXVtjSF1bY0hdW2NIXTI=

> <s_epik_cmdline>
J2VwaWtfYXBwJywgJy1pbWFlJywgJ2xpZ2FuZF9wcm8ubWFlJywgJy1vbWFlJywgJ2xpZ2FuZF9wcmVwLm1hZScsICctbXMnLCAnMScsICctcGgnLCAnNycsICctcGh0JywgJzAuNScsICctbnQn

> <r_lp_tautomer_probability>
0.878315377147829

> <r_epik_Ionization_Penalty>
  0.0135

> <r_epik_Ionization_Penalty_Charging>
  0.0135

> <r_epik_Ionization_Penalty_Neutral>
  0.0000

> <r_epik_State_Penalty>
  0.0618

> <r_epik_Charging_Adjusted_Penalty>
0.075346554869017

> <i_epik_Tot_Q>
0

> <i_epik_Tot_abs_Q>
0

$$$$
