1rst_ligand
                    3D
 Schrodinger Suite 2020-3.
142146  0  0  1  0            999 V2000
    3.8210   -0.7100   69.2420 N   0  3  0  0  0  0
    4.1630   -1.7340   68.2120 C   0  0  2  0  0  0
    5.6700   -1.6580   68.0440 C   0  0  0  0  0  0
    6.4020   -2.5000   68.5800 O   0  0  0  0  0  0
    3.4520   -1.4350   66.8680 C   0  0  0  0  0  0
    6.1150   -0.5940   67.3650 N   0  0  0  0  0  0
    7.5350   -0.3390   67.1090 C   0  0  2  0  0  0
    8.3320   -0.3600   68.4380 C   0  0  0  0  0  0
    7.8090    0.0100   69.5060 O   0  0  0  0  0  0
    7.6910    0.9850   66.3090 C   0  0  0  0  0  0
    8.2660    2.1570   67.0510 C   0  0  0  0  0  0
    9.3970    2.8540   66.7230 C   0  0  0  0  0  0
    7.7750    2.7430   68.2720 C   0  0  0  0  0  0
    9.6480    3.8250   67.6680 N   0  3  0  0  0  0
    8.6700    3.7780   68.6280 C   0  0  0  0  0  0
    6.6670    2.4860   69.1050 C   0  0  0  0  0  0
    8.4950    4.5590   69.7780 C   0  0  0  0  0  0
    6.4950    3.2600   70.2460 C   0  0  0  0  0  0
    7.4050    4.2840   70.5700 C   0  0  0  0  0  0
    9.5650   -0.8510   68.3780 N   0  0  0  0  0  0
   10.3940   -0.9480   69.5650 C   0  0  2  0  0  0
   10.6370    0.3890   70.2310 C   0  0  0  0  0  0
   11.2800    1.2740   69.6760 O   0  0  0  0  0  0
   11.7240   -1.6050   69.2340 C   0  0  0  0  0  0
   11.8840   -2.9820   69.8010 C   0  0  0  0  0  0
   11.6240   -2.9940   71.2830 C   0  0  0  0  0  0
   12.0260   -4.2760   71.8590 N   0  0  0  0  0  0
   11.3530   -5.4220   71.7250 C   0  0  0  0  0  0
   10.2140   -5.4700   71.0290 N   0  0  0  0  0  0
   11.8360   -6.5360   72.2770 N   0  3  0  0  0  0
   10.0760    0.5460   71.4160 N   0  0  0  0  0  0
   10.2640    1.7660   72.1670 C   0  0  2  0  0  0
   11.7290    1.7600   72.6250 C   0  0  0  0  0  0
   12.2650    0.7030   72.9630 O   0  0  0  0  0  0
    9.3170    1.7670   73.3750 C   0  0  0  0  0  0
    9.3660    3.0270   74.1800 C   0  0  0  0  0  0
   10.3400    3.2690   75.1230 N   0  0  0  0  0  0
    8.6010    4.1450   74.1310 C   0  0  0  0  0  0
   10.1800    4.4860   75.6100 C   0  0  0  0  0  0
    9.1310    5.0380   75.0270 N   0  0  0  0  0  0
   12.3790    2.9440   72.6880 N   0  0  0  0  0  0
   13.7790    3.0050   73.1170 C   0  0  2  0  0  0
   14.0860    2.4610   74.5040 C   0  0  0  0  0  0
   15.2300    2.1190   74.7910 O   0  0  0  0  0  0
   14.1380    4.4840   72.9880 C   0  0  0  0  0  0
   12.8170    5.1920   72.9190 C   0  0  0  0  0  0
   11.9310    4.2510   72.1830 C   0  0  0  0  0  0
   13.0850    2.4070   75.3820 N   0  0  0  0  0  0
   13.3120    1.8810   76.7270 C   0  0  2  0  0  0
   13.7320    0.4260   76.6710 C   0  0  0  0  0  0
   14.4930   -0.0400   77.5120 O   0  0  0  0  0  0
   12.0470    1.9840   77.5930 C   0  0  0  0  0  0
   12.2130    1.3930   79.0000 C   0  0  0  0  0  0
   11.0160    1.6200   79.9200 C   0  0  0  0  0  0
   10.7990    0.8710   80.8820 O   0  0  0  0  0  0
   10.2190    2.6260   79.6120 N   0  0  0  0  0  0
   13.2400   -0.2780   75.6560 N   0  0  0  0  0  0
   13.4910   -1.6950   75.5020 C   0  0  2  0  0  0
   14.4740   -2.0830   74.4000 C   0  0  0  0  0  0
   14.3910   -3.1710   73.8360 O   0  0  0  0  0  0
   12.1470   -2.4050   75.3460 C   0  0  0  0  0  0
   11.1340   -1.9810   76.3810 C   0  0  0  0  0  0
   11.1880   -2.4860   77.6770 C   0  0  0  0  0  0
   10.1770   -1.0200   76.0780 C   0  0  0  0  0  0
   10.3070   -2.0300   78.6560 C   0  0  0  0  0  0
    9.3000   -0.5620   77.0410 C   0  0  0  0  0  0
    9.3660   -1.0700   78.3370 C   0  0  0  0  0  0
   15.4600   -1.2230   74.1720 N   0  0  0  0  0  0
   16.4660   -1.4910   73.1650 C   0  0  0  0  0  0
   15.9860   -1.1240   71.7800 C   0  0  0  0  0  0
   16.6010   -1.5180   70.7880 O   0  0  0  0  0  0
   14.8610   -0.4120   71.7190 N   0  0  0  0  0  0
   14.3060    0.0190   70.4540 C   0  0  0  0  0  0
   14.9950    1.2550   69.8880 C   0  0  0  0  0  0
   14.6660    1.6190   68.7420 O   0  0  0  0  0  0
   15.8650    1.8600   70.5700 O   0  5  0  0  0  0
    4.3393   -0.9486   70.1824 H   0  0  0  0  0  0
    2.7342   -0.7098   69.4121 H   0  0  0  0  0  0
    4.1374    0.2832   68.8907 H   0  0  0  0  0  0
    3.8403   -2.7283   68.5546 H   0  0  0  0  0  0
    2.3626   -1.4944   67.0084 H   0  0  0  0  0  0
    3.7655   -2.1732   66.1152 H   0  0  0  0  0  0
    3.7232   -0.4251   66.5265 H   0  0  0  0  0  0
    5.3543    0.1076   66.9921 H   0  0  0  0  0  0
    7.9045   -1.1682   66.4879 H   0  0  0  0  0  0
    8.3583    0.8182   65.4506 H   0  0  0  0  0  0
    6.7052    1.3140   65.9486 H   0  0  0  0  0  0
    9.9562    2.5973   65.8112 H   0  0  0  0  0  0
    5.9587    1.6950   68.8586 H   0  0  0  0  0  0
    9.1955    5.3536   70.0349 H   0  0  0  0  0  0
    5.6433    3.0716   70.8996 H   0  0  0  0  0  0
    7.2414    4.8740   71.4718 H   0  0  0  0  0  0
    9.9548   -1.1873   67.4059 H   0  0  0  0  0  0
    9.7976   -1.5708   70.2479 H   0  0  0  0  0  0
   11.8292   -1.6903   68.1424 H   0  0  0  0  0  0
   12.5453   -0.9927   69.6347 H   0  0  0  0  0  0
   11.1713   -3.6640   69.3143 H   0  0  0  0  0  0
   12.9102   -3.3353   69.6220 H   0  0  0  0  0  0
   12.1997   -2.1888   71.7628 H   0  0  0  0  0  0
   10.5510   -2.8381   71.4683 H   0  0  0  0  0  0
   12.9474   -4.3461   72.4558 H   0  0  0  0  0  0
    9.8102   -4.5549   70.5712 H   0  0  0  0  0  0
    9.6798   -6.4246   70.9136 H   0  0  0  0  0  0
   12.7735   -6.5034   72.8514 H   0  0  0  0  0  0
    9.4596   -0.2654   71.8303 H   0  0  0  0  0  0
   10.0319    2.6275   71.5235 H   0  0  0  0  0  0
    8.6428    0.9503   73.6723 H   0  0  0  0  0  0
    7.7120    4.4176   73.5433 H   0  0  0  0  0  0
   10.8083    4.9563   76.3664 H   0  0  0  0  0  0
   14.3514    2.3235   72.4706 H   0  0  0  0  0  0
   14.7238    4.7969   73.8648 H   0  0  0  0  0  0
   14.7326    4.6388   72.0756 H   0  0  0  0  0  0
   12.4524    5.3880   73.9381 H   0  0  0  0  0  0
   12.9393    6.1452   72.3838 H   0  0  0  0  0  0
   12.0728    4.2911   71.0929 H   0  0  0  0  0  0
   10.8658    4.3900   72.4195 H   0  0  0  0  0  0
   12.0847    2.7603   75.0912 H   0  0  0  0  0  0
   14.1223    2.5054   77.1314 H   0  0  0  0  0  0
   11.7697    3.0417   77.7126 H   0  0  0  0  0  0
   11.2235    1.4420   77.1051 H   0  0  0  0  0  0
   12.3610    0.3055   78.9258 H   0  0  0  0  0  0
   13.0864    1.8494   79.4887 H   0  0  0  0  0  0
   10.4504    3.2664   78.7481 H   0  0  0  0  0  0
    9.3234    2.8240   80.2192 H   0  0  0  0  0  0
   12.6225    0.2546   74.9177 H   0  0  0  0  0  0
   14.0081   -1.9645   76.4347 H   0  0  0  0  0  0
   11.7266   -2.1804   74.3547 H   0  0  0  0  0  0
   12.2922   -3.4909   75.4452 H   0  0  0  0  0  0
   11.9273   -3.2463   77.9289 H   0  0  0  0  0  0
   10.1179   -0.6219   75.0650 H   0  0  0  0  0  0
   10.3602   -2.4290   79.6689 H   0  0  0  0  0  0
    8.5578    0.1951   76.7882 H   0  0  0  0  0  0
    8.6750   -0.7099   79.0992 H   0  0  0  0  0  0
   15.5055   -0.2955   74.7617 H   0  0  0  0  0  0
   17.3697   -0.9034   73.3841 H   0  0  0  0  0  0
   16.7149   -2.5625   73.1714 H   0  0  0  0  0  0
   14.3527   -0.1528   72.6595 H   0  0  0  0  0  0
   14.4099   -0.7882   69.7140 H   0  0  0  0  0  0
   13.2411    0.2619   70.5845 H   0  0  0  0  0  0
   10.5267    4.4786   67.5650 H   0  0  0  0  0  0
   11.2968   -7.4874   72.1578 H   0  0  0  0  0  0
   11.0858    2.4943   75.3547 H   0  0  0  0  0  0
  1  2  1  0  0  0
  1 77  1  0  0  0
  1 78  1  0  0  0
  1 79  1  0  0  0
  2  3  1  0  0  0
  2  5  1  0  0  0
  2 80  1  0  0  0
  3  4  2  0  0  0
  3  6  1  0  0  0
  5 81  1  0  0  0
  5 82  1  0  0  0
  5 83  1  0  0  0
  6  7  1  0  0  0
  6 84  1  0  0  0
  7  8  1  0  0  0
  7 10  1  0  0  0
  7 85  1  0  0  0
  8  9  2  0  0  0
  8 20  1  0  0  0
 10 11  1  0  0  0
 10 86  1  0  0  0
 10 87  1  0  0  0
 11 12  2  0  0  0
 11 13  1  0  0  0
 12 14  1  0  0  0
 12 88  1  0  0  0
 13 15  2  0  0  0
 13 16  1  0  0  0
 14 15  1  0  0  0
 14140  1  0  0  0
 15 17  1  0  0  0
 16 18  2  0  0  0
 16 89  1  0  0  0
 17 19  2  0  0  0
 17 90  1  0  0  0
 18 19  1  0  0  0
 18 91  1  0  0  0
 19 92  1  0  0  0
 20 21  1  0  0  0
 20 93  1  0  0  0
 21 22  1  0  0  0
 21 24  1  0  0  0
 21 94  1  0  0  0
 22 23  2  0  0  0
 22 31  1  0  0  0
 24 25  1  0  0  0
 24 95  1  0  0  0
 24 96  1  0  0  0
 25 26  1  0  0  0
 25 97  1  0  0  0
 25 98  1  0  0  0
 26 27  1  0  0  0
 26 99  1  0  0  0
 26100  1  0  0  0
 27 28  1  0  0  0
 27101  1  0  0  0
 28 29  1  0  0  0
 28 30  2  0  0  0
 29102  1  0  0  0
 29103  1  0  0  0
 30104  1  0  0  0
 30141  1  0  0  0
 31 32  1  0  0  0
 31105  1  0  0  0
 32 33  1  0  0  0
 32 35  1  0  0  0
 32106  1  0  0  0
 33 34  2  0  0  0
 33 41  1  0  0  0
 35 36  2  0  0  0
 35107  1  0  0  0
 36 37  1  0  0  0
 36 38  1  0  0  0
 37 39  1  0  0  0
 37142  1  0  0  0
 38 40  2  0  0  0
 38108  1  0  0  0
 39 40  1  0  0  0
 39109  1  0  0  0
 41 42  1  0  0  0
 41 47  1  0  0  0
 42 43  1  0  0  0
 42 45  1  0  0  0
 42110  1  0  0  0
 43 44  2  0  0  0
 43 48  1  0  0  0
 45 46  1  0  0  0
 45111  1  0  0  0
 45112  1  0  0  0
 46 47  1  0  0  0
 46113  1  0  0  0
 46114  1  0  0  0
 47115  1  0  0  0
 47116  1  0  0  0
 48 49  1  0  0  0
 48117  1  0  0  0
 49 50  1  0  0  0
 49 52  1  0  0  0
 49118  1  0  0  0
 50 51  2  0  0  0
 50 57  1  0  0  0
 52 53  1  0  0  0
 52119  1  0  0  0
 52120  1  0  0  0
 53 54  1  0  0  0
 53121  1  0  0  0
 53122  1  0  0  0
 54 55  2  0  0  0
 54 56  1  0  0  0
 56123  1  0  0  0
 56124  1  0  0  0
 57 58  1  0  0  0
 57125  1  0  0  0
 58 59  1  0  0  0
 58 61  1  0  0  0
 58126  1  0  0  0
 59 60  2  0  0  0
 59 68  1  0  0  0
 61 62  1  0  0  0
 61127  1  0  0  0
 61128  1  0  0  0
 62 63  2  0  0  0
 62 64  1  0  0  0
 63 65  1  0  0  0
 63129  1  0  0  0
 64 66  2  0  0  0
 64130  1  0  0  0
 65 67  2  0  0  0
 65131  1  0  0  0
 66 67  1  0  0  0
 66132  1  0  0  0
 67133  1  0  0  0
 68 69  1  0  0  0
 68134  1  0  0  0
 69 70  1  0  0  0
 69135  1  0  0  0
 69136  1  0  0  0
 70 71  2  0  0  0
 70 72  1  0  0  0
 72 73  1  0  0  0
 72137  1  0  0  0
 73 74  1  0  0  0
 73138  1  0  0  0
 73139  1  0  0  0
 74 75  2  0  0  0
 74 76  1  0  0  0
M  CHG  4   1   1  14   1  30   1  76  -1
M  END
> <s_m_source_file>
../1rst_ligand.sdf

> <i_m_source_file_index>
1

> <s_epik_input>
W2NIXTFbY0hdW2NIXVtjSF1jKGMxMilbbkhdW2NIXWMyW0NIMl1bQ0BIXShbTkhdQyg9TylbQ0BASF0oW05IMytdKVtDSDNdKUMoPU8pW05IXVtDQEBIXShbQ0gyXVtDSDJdW0NIMl1bTkhdL0MoW05IMl0pPU5cW0hdKUMoPU8pW05IXVtDQEBIXShbQ0gyXUMzPU5bQ0gyXU49W0NIXTMpQyg9TylONFtDQEBIXShbQ0gyXVtDSDJdW0NIMl00KUMoPU8pW05IXVtDQEBIXShbQ0gyXVtDSDJdQyg9TylbTkgyXSlDKD1PKVtOSF1bQ0BASF0oW0NIMl1jNVtjSF1bY0hdW2NIXVtjSF1bY0hdNSlDKD1PKVtOSF1bQ0gyXUMoPU8pW05IXVtDSDJdQyg9TylbT0hd

> <s_epik_cmdline>
J2VwaWtfYXBwJywgJy1pbWFlJywgJ2xpZ2FuZF9wcm8ubWFlJywgJy1vbWFlJywgJ2xpZ2FuZF9wcmVwLm1hZScsICctbXMnLCAnMScsICctcGgnLCAnNycsICctcGh0JywgJzAuNScsICctbnQn

> <r_epik_Ionization_Penalty>
  0.1301

> <r_epik_Ionization_Penalty_Charging>
  0.1301

> <r_epik_Ionization_Penalty_Neutral>
  0.0000

> <r_epik_State_Penalty>
  0.1193

> <r_epik_Charging_Adjusted_Penalty>
0.249325191806069

> <i_epik_Tot_Q>
2

> <i_epik_Tot_abs_Q>
4

> <s_epik_Chemistry_Notes>
This compound has an imine and may undergo hydrolysis.

$$$$
