1rt1_ligand
                    3D
 Schrodinger Suite 2020-3.
 44 45  0  0  1  0            999 V2000
   -1.0830  -33.7260   26.7730 C   0  0  0  0  0  0
   -1.5740  -33.1070   27.9140 C   0  0  0  0  0  0
   -0.7970  -32.1960   28.6140 C   0  0  0  0  0  0
    0.4880  -31.8870   28.1790 C   0  0  0  0  0  0
    0.9870  -32.4870   27.0450 C   0  0  0  0  0  0
    0.2040  -33.4020   26.3410 C   0  0  0  0  0  0
   -1.8470  -34.8860   24.6220 C   0  0  0  0  0  0
   -2.6800  -34.0170   23.9500 N   0  0  0  0  0  0
   -2.8330  -34.0570   22.5710 C   0  0  0  0  0  0
   -3.6270  -33.3340   21.9680 O   0  0  0  0  0  0
   -2.0840  -34.9970   21.9110 N   0  0  0  0  0  0
   -1.2040  -35.8940   22.4960 C   0  0  0  0  0  0
   -0.5470  -36.6700   21.8100 O   0  0  0  0  0  0
   -1.1190  -35.8150   23.9210 C   0  0  0  0  0  0
   -1.8560  -34.8520   26.1390 C   0  0  0  0  0  0
   -0.2140  -36.8770   24.5210 C   0  0  0  0  0  0
   -0.9370  -38.0870   25.0730 C   0  0  0  0  0  0
    0.8910  -36.3690   25.4020 C   0  0  0  0  0  0
   -3.3510  -32.9190   24.6740 C   0  0  0  0  0  0
   -4.4930  -33.3780   25.3960 O   0  0  0  0  0  0
   -5.7050  -33.5160   24.6380 C   0  0  0  0  0  0
   -6.8360  -34.2140   25.3000 C   0  0  0  0  0  0
   -2.5801  -33.3391   28.2634 H   0  0  0  0  0  0
   -1.1952  -31.7195   29.5098 H   0  0  0  0  0  0
    1.0968  -31.1730   28.7337 H   0  0  0  0  0  0
    1.9921  -32.2476   26.6978 H   0  0  0  0  0  0
    0.6028  -33.8704   25.4412 H   0  0  0  0  0  0
   -2.1532  -35.0862   20.8168 H   0  0  0  0  0  0
   -1.4400  -35.8147   26.4708 H   0  0  0  0  0  0
   -2.9123  -34.7862   26.4390 H   0  0  0  0  0  0
    0.3353  -37.2551   23.6462 H   0  0  0  0  0  0
   -1.7266  -38.3940   24.3714 H   0  0  0  0  0  0
   -1.3875  -37.8336   26.0440 H   0  0  0  0  0  0
   -0.2222  -38.9127   25.2047 H   0  0  0  0  0  0
    1.3624  -35.4938   24.9311 H   0  0  0  0  0  0
    1.6426  -37.1601   25.5405 H   0  0  0  0  0  0
    0.4774  -36.0810   26.3797 H   0  0  0  0  0  0
   -2.6482  -32.4690   25.3907 H   0  0  0  0  0  0
   -3.6819  -32.1545   23.9557 H   0  0  0  0  0  0
   -6.0867  -32.5192   24.3721 H   0  0  0  0  0  0
   -5.5006  -34.0871   23.7203 H   0  0  0  0  0  0
   -7.6958  -34.2506   24.6148 H   0  0  0  0  0  0
   -7.1181  -33.6703   26.2137 H   0  0  0  0  0  0
   -6.5320  -35.2382   25.5619 H   0  0  0  0  0  0
  1  2  2  0  0  0
  1  6  1  0  0  0
  1 15  1  0  0  0
  2  3  1  0  0  0
  2 23  1  0  0  0
  3  4  2  0  0  0
  3 24  1  0  0  0
  4  5  1  0  0  0
  4 25  1  0  0  0
  5  6  2  0  0  0
  5 26  1  0  0  0
  6 27  1  0  0  0
  7  8  1  0  0  0
  7 14  2  0  0  0
  7 15  1  0  0  0
  8  9  1  0  0  0
  8 19  1  0  0  0
  9 10  2  0  0  0
  9 11  1  0  0  0
 11 12  1  0  0  0
 11 28  1  0  0  0
 12 13  2  0  0  0
 12 14  1  0  0  0
 14 16  1  0  0  0
 15 29  1  0  0  0
 15 30  1  0  0  0
 16 17  1  0  0  0
 16 18  1  0  0  0
 16 31  1  0  0  0
 17 32  1  0  0  0
 17 33  1  0  0  0
 17 34  1  0  0  0
 18 35  1  0  0  0
 18 36  1  0  0  0
 18 37  1  0  0  0
 19 20  1  0  0  0
 19 38  1  0  0  0
 19 39  1  0  0  0
 20 21  1  0  0  0
 21 22  1  0  0  0
 21 40  1  0  0  0
 21 41  1  0  0  0
 22 42  1  0  0  0
 22 43  1  0  0  0
 22 44  1  0  0  0
M  END
> <s_m_source_file>
../1rt1_ligand.sdf

> <i_m_source_file_index>
1

> <s_epik_input>
W2NIXTFbY0hdW2NIXVtjSF1bY0hdYzFbQ0gyXWMybihbQ0gyXU9bQ0gyXVtDSDNdKWMoPU8pW25IXWMoPU8pYzJbQ0hdKFtDSDNdKVtDSDNd

> <s_epik_cmdline>
J2VwaWtfYXBwJywgJy1pbWFlJywgJ2xpZ2FuZF9wcm8ubWFlJywgJy1vbWFlJywgJ2xpZ2FuZF9wcmVwLm1hZScsICctbXMnLCAnMScsICctcGgnLCAnNycsICctcGh0JywgJzAuNScsICctbnQn

> <r_lp_tautomer_probability>
1

> <r_epik_Ionization_Penalty>
  0.0006

> <r_epik_Ionization_Penalty_Charging>
  0.0006

> <r_epik_Ionization_Penalty_Neutral>
  0.0000

> <r_epik_State_Penalty>
 -0.0000

> <r_epik_Charging_Adjusted_Penalty>
0.000636928942666984

> <i_epik_Tot_Q>
0

> <i_epik_Tot_abs_Q>
0

> <s_epik_Chemistry_Notes>
This compound contains an acetal/aminal-like group ( X-CH(R)-Y where X, Y are N, S, or O) that may be acid/base labile, releasing an aldehyde.

$$$$
