1rt2_ligand
                    3D
 Schrodinger Suite 2020-3.
 51 53  0  0  1  0            999 V2000
   -1.2100  -34.5120   26.5980 C   0  0  0  0  0  0
   -1.7060  -33.8430   27.7000 C   0  0  0  0  0  0
   -0.9010  -32.9710   28.4240 C   0  0  0  0  0  0
    0.4100  -32.7590   28.0510 C   0  0  0  0  0  0
    0.9210  -33.4170   26.9480 C   0  0  0  0  0  0
    0.1100  -34.2910   26.2230 C   0  0  0  0  0  0
   -1.8060  -35.5930   24.3900 C   0  0  0  0  0  0
   -2.5730  -34.8770   23.5310 N   0  0  0  0  0  0
   -2.4700  -35.0290   22.1300 C   0  0  0  0  0  0
   -3.1430  -34.4090   21.3230 O   0  0  0  0  0  0
   -1.5470  -35.9270   21.6820 N   0  0  0  0  0  0
   -0.7180  -36.6810   22.4670 C   0  0  0  0  0  0
    0.0850  -37.4310   21.9230 O   0  0  0  0  0  0
   -0.8960  -36.4660   23.9180 C   0  0  0  0  0  0
   -2.0670  -35.4850   25.8710 C   0  0  0  0  0  0
   -0.0190  -37.2660   24.8480 C   0  0  0  0  0  0
   -0.5780  -38.6370   25.1270 C   0  0  0  0  0  0
    1.4560  -37.2920   24.4280 C   0  0  0  0  0  0
   -3.5170  -33.9150   24.0820 C   0  0  0  0  0  0
   -4.7760  -34.1070   23.5020 O   0  0  0  0  0  0
   -5.9090  -33.8880   24.3300 C   0  0  0  0  0  0
   -6.9890  -34.8930   24.1830 C   0  0  0  0  0  0
   -6.8960  -35.8680   23.1900 C   0  0  0  0  0  0
   -7.8420  -36.8520   23.0770 C   0  0  0  0  0  0
   -8.9070  -36.8820   23.9580 C   0  0  0  0  0  0
   -9.0200  -35.9140   24.9510 C   0  0  0  0  0  0
   -8.0580  -34.9180   25.0590 C   0  0  0  0  0  0
   -2.7404  -34.0006   28.0054 H   0  0  0  0  0  0
   -1.3082  -32.4517   29.2916 H   0  0  0  0  0  0
    1.0392  -32.0767   28.6226 H   0  0  0  0  0  0
    1.9552  -33.2535   26.6452 H   0  0  0  0  0  0
    0.5163  -34.8063   25.3527 H   0  0  0  0  0  0
   -1.4214  -36.0943   20.6021 H   0  0  0  0  0  0
   -1.9151  -36.4912   26.2888 H   0  0  0  0  0  0
   -3.1230  -35.1977   25.9816 H   0  0  0  0  0  0
   -0.0540  -36.7307   25.8083 H   0  0  0  0  0  0
   -1.6341  -38.5493   25.4217 H   0  0  0  0  0  0
   -0.0076  -39.1066   25.9420 H   0  0  0  0  0  0
   -0.5003  -39.2560   24.2210 H   0  0  0  0  0  0
    1.8018  -36.2649   24.2399 H   0  0  0  0  0  0
    1.5656  -37.8896   23.5110 H   0  0  0  0  0  0
    2.0583  -37.7402   25.2320 H   0  0  0  0  0  0
   -3.5909  -34.0559   25.1704 H   0  0  0  0  0  0
   -3.1677  -32.8943   23.8673 H   0  0  0  0  0  0
   -5.6005  -33.9058   25.3857 H   0  0  0  0  0  0
   -6.3520  -32.9092   24.0939 H   0  0  0  0  0  0
   -6.0579  -35.8466   22.4934 H   0  0  0  0  0  0
   -7.7556  -37.6077   22.2963 H   0  0  0  0  0  0
   -9.6599  -37.6658   23.8745 H   0  0  0  0  0  0
   -9.8619  -35.9373   25.6429 H   0  0  0  0  0  0
   -8.1459  -34.1566   25.8340 H   0  0  0  0  0  0
  1  2  2  0  0  0
  1  6  1  0  0  0
  1 15  1  0  0  0
  2  3  1  0  0  0
  2 28  1  0  0  0
  3  4  2  0  0  0
  3 29  1  0  0  0
  4  5  1  0  0  0
  4 30  1  0  0  0
  5  6  2  0  0  0
  5 31  1  0  0  0
  6 32  1  0  0  0
  7  8  1  0  0  0
  7 14  2  0  0  0
  7 15  1  0  0  0
  8  9  1  0  0  0
  8 19  1  0  0  0
  9 10  2  0  0  0
  9 11  1  0  0  0
 11 12  1  0  0  0
 11 33  1  0  0  0
 12 13  2  0  0  0
 12 14  1  0  0  0
 14 16  1  0  0  0
 15 34  1  0  0  0
 15 35  1  0  0  0
 16 17  1  0  0  0
 16 18  1  0  0  0
 16 36  1  0  0  0
 17 37  1  0  0  0
 17 38  1  0  0  0
 17 39  1  0  0  0
 18 40  1  0  0  0
 18 41  1  0  0  0
 18 42  1  0  0  0
 19 20  1  0  0  0
 19 43  1  0  0  0
 19 44  1  0  0  0
 20 21  1  0  0  0
 21 22  1  0  0  0
 21 45  1  0  0  0
 21 46  1  0  0  0
 22 23  2  0  0  0
 22 27  1  0  0  0
 23 24  1  0  0  0
 23 47  1  0  0  0
 24 25  2  0  0  0
 24 48  1  0  0  0
 25 26  1  0  0  0
 25 49  1  0  0  0
 26 27  2  0  0  0
 26 50  1  0  0  0
 27 51  1  0  0  0
M  END
> <s_m_source_file>
../1rt2_ligand.sdf

> <i_m_source_file_index>
1

> <s_epik_input>
W2NIXTFbY0hdW2NIXVtjSF1bY0hdYzFbQ0gyXWMybihjKD1PKVtuSF1jKD1PKWMyW0NIXShbQ0gzXSlbQ0gzXSlbQ0gyXU9bQ0gyXWMzW2NIXVtjSF1bY0hdW2NIXVtjSF0z

> <s_epik_cmdline>
J2VwaWtfYXBwJywgJy1pbWFlJywgJ2xpZ2FuZF9wcm8ubWFlJywgJy1vbWFlJywgJ2xpZ2FuZF9wcmVwLm1hZScsICctbXMnLCAnMScsICctcGgnLCAnNycsICctcGh0JywgJzAuNScsICctbnQn

> <r_lp_tautomer_probability>
1

> <r_epik_Ionization_Penalty>
  0.0008

> <r_epik_Ionization_Penalty_Charging>
  0.0008

> <r_epik_Ionization_Penalty_Neutral>
  0.0000

> <r_epik_State_Penalty>
 -0.0000

> <r_epik_Charging_Adjusted_Penalty>
0.000794638256946123

> <i_epik_Tot_Q>
0

> <i_epik_Tot_abs_Q>
0

> <s_epik_Chemistry_Notes>
This compound contains an acetal/aminal-like group ( X-CH(R)-Y where X, Y are N, S, or O) that may be acid/base labile, releasing an aldehyde.

$$$$
