1rt9_ligand
                    3D
 Schrodinger Suite 2020-3.
 33 35  0  0  1  0            999 V2000
    1.9690   21.5960   23.5140 O   0  0  0  0  0  0
    1.8330   20.2210   23.1900 C   0  0  0  0  0  0
    3.1680   19.5870   23.2690 C   0  0  1  0  0  0
    3.7740   19.7160   24.5680 N   0  0  1  0  0  0
    3.0670   18.1310   22.9340 C   0  0  1  0  0  0
    3.8370   17.9750   21.7320 O   0  0  0  0  0  0
    3.6800   17.4240   24.1050 C   0  0  1  0  0  0
    4.8190   16.6650   23.6690 O   0  0  0  0  0  0
    4.1040   18.4620   25.1840 C   0  0  2  0  0  0
    3.2740   18.3960   26.4820 C   0  0  0  0  0  0
    3.1840   19.4330   27.4110 C   0  0  0  0  0  0
    2.4170   19.1890   28.4370 N   0  3  0  0  0  0
    1.9350   17.9010   28.2310 C   0  0  0  0  0  0
    1.0370   17.1220   29.0360 C   0  0  0  0  0  0
    0.5190   17.4600   30.0930 O   0  0  0  0  0  0
    0.7700   15.8470   28.5070 N   0  0  0  0  0  0
    1.3060   15.3630   27.3090 C   0  0  0  0  0  0
    2.1550   16.1010   26.5330 N   0  0  0  0  0  0
    2.4360   17.3720   27.0380 C   0  0  0  0  0  0
    1.0854   22.2512   23.5134 H   0  0  0  0  0  0
    1.1467   19.7422   23.9039 H   0  0  0  0  0  0
    1.4298   20.1224   22.1713 H   0  0  0  0  0  0
    3.8214   20.1326   22.5723 H   0  0  0  0  0  0
    4.7075   20.2914   24.4816 H   0  0  0  0  0  0
    2.0635   17.7300   22.7284 H   0  0  0  0  0  0
    3.4981   18.4447   20.7969 H   0  0  0  0  0  0
    2.9679   16.6849   24.5008 H   0  0  0  0  0  0
    4.6990   15.8830   22.9047 H   0  0  0  0  0  0
    5.1665   18.3614   25.4503 H   0  0  0  0  0  0
    3.7381   20.3688   27.2461 H   0  0  0  0  0  0
    0.1005   15.1583   29.0431 H   0  0  0  0  0  0
    1.0362   14.3588   26.9819 H   0  0  0  0  0  0
    2.2843   19.9519   29.2182 H   0  0  0  0  0  0
  1  2  1  0  0  0
  1 20  1  0  0  0
  2  3  1  0  0  0
  2 21  1  0  0  0
  2 22  1  0  0  0
  3  4  1  0  0  0
  3  5  1  0  0  0
  3 23  1  0  0  0
  4  9  1  0  0  0
  4 24  1  0  0  0
  5  6  1  0  0  0
  5  7  1  0  0  0
  5 25  1  0  0  0
  6 26  1  0  0  0
  7  8  1  0  0  0
  7  9  1  0  0  0
  7 27  1  0  0  0
  8 28  1  0  0  0
  9 10  1  0  0  0
  9 29  1  0  0  0
 10 11  2  0  0  0
 10 19  1  0  0  0
 11 12  1  0  0  0
 11 30  1  0  0  0
 12 13  1  0  0  0
 12 33  1  0  0  0
 13 14  1  0  0  0
 13 19  2  0  0  0
 14 15  2  0  0  0
 14 16  1  0  0  0
 16 17  1  0  0  0
 16 31  1  0  0  0
 17 18  2  0  0  0
 17 32  1  0  0  0
 18 19  1  0  0  0
M  CHG  1  12   1
M  END
> <s_m_source_file>
../1rt9_ligand.sdf

> <i_m_source_file_index>
1

> <s_epik_input>
W09IXVtDSDJdW0NASF0xW05IMitdW0NASF0oW0NASF0oW09IXSlbQ0BASF0xW09IXSljKFtjSF1bbkhdMiljKGMyMyluW2NIXVtuSF1jMz1P

> <s_epik_cmdline>
J2VwaWtfYXBwJywgJy1pbWFlJywgJ2xpZ2FuZF9wcm8ubWFlJywgJy1vbWFlJywgJ2xpZ2FuZF9wcmVwLm1hZScsICctbXMnLCAnMScsICctcGgnLCAnNycsICctcGh0JywgJzAuNScsICctbnQn

> <r_epik_Ionization_Penalty>
  0.0679

> <r_epik_Ionization_Penalty_Charging>
  0.0000

> <r_epik_Ionization_Penalty_Neutral>
  0.0679

> <r_epik_State_Penalty>
  0.0590

> <r_epik_Charging_Adjusted_Penalty>
0.0590486943449857

> <i_epik_Tot_Q>
1

> <i_epik_Tot_abs_Q>
1

$$$$
