1rth_ligand
                    3D
 Schrodinger Suite 2020-3.
 36 38  0  0  1  0            999 V2000
   -1.5530  -35.6200   23.1860 N   0  0  0  0  0  0
   -2.4820  -35.0520   22.3410 C   0  0  0  0  0  0
   -3.4460  -34.1360   22.8040 C   0  0  0  0  0  0
   -3.4460  -33.7790   24.2040 C   0  0  0  0  0  0
   -2.4880  -34.3490   25.0450 C   0  0  0  0  0  0
   -2.4630  -33.9540   26.5200 C   0  0  0  0  0  0
   -3.5450  -33.6850   27.0400 O   0  0  0  0  0  0
   -1.3080  -33.8460   27.2310 N   0  0  0  0  0  0
   -1.4150  -33.5610   28.6910 C   0  0  0  0  0  0
    0.0770  -34.0530   26.7760 C   0  0  0  0  0  0
    1.1310  -33.2750   27.2920 C   0  0  0  0  0  0
    2.4600  -33.4350   26.7960 C   0  0  0  0  0  0
    2.7370  -34.3700   25.7890 C   0  0  0  0  0  0
    4.1550  -34.5340   25.2150 N   0  3  0  0  0  0
    4.3450  -35.3100   24.2770 O   0  5  0  0  0  0
    5.0340  -33.9020   25.7420 O   0  0  0  0  0  0
    1.6850  -35.1500   25.3050 C   0  0  0  0  0  0
    0.3740  -34.9970   25.8070 C   0  0  0  0  0  0
   -0.6670  -35.8440   25.4330 N   0  0  0  0  0  0
   -0.3720  -37.3680   25.4130 C   0  0  0  0  0  0
   -0.1980  -37.9540   24.0750 C   0  0  0  0  0  0
   -1.5670  -35.2720   24.5080 C   0  0  0  0  0  0
   -2.4701  -35.3195   21.2844 H   0  0  0  0  0  0
   -4.1773  -33.7051   22.1202 H   0  0  0  0  0  0
   -4.1812  -33.0768   24.5970 H   0  0  0  0  0  0
   -2.4719  -33.4178   28.9601 H   0  0  0  0  0  0
   -0.8491  -32.6482   28.9288 H   0  0  0  0  0  0
   -1.0029  -34.4068   29.2608 H   0  0  0  0  0  0
    0.9307  -32.5449   28.0762 H   0  0  0  0  0  0
    3.2661  -32.8250   27.2037 H   0  0  0  0  0  0
    1.8787  -35.8888   24.5273 H   0  0  0  0  0  0
    0.5572  -37.5689   25.9664 H   0  0  0  0  0  0
   -1.2048  -37.9089   25.8862 H   0  0  0  0  0  0
    0.0055  -39.0308   24.1700 H   0  0  0  0  0  0
    0.6463  -37.4647   23.5674 H   0  0  0  0  0  0
   -1.1157  -37.8047   23.4872 H   0  0  0  0  0  0
  1 22  2  0  0  0
  1  2  1  0  0  0
  2  3  2  0  0  0
  2 23  1  0  0  0
  3  4  1  0  0  0
  3 24  1  0  0  0
  4  5  2  0  0  0
  4 25  1  0  0  0
  5 22  1  0  0  0
  5  6  1  0  0  0
  6  8  1  0  0  0
  6  7  2  0  0  0
  8 10  1  0  0  0
  8  9  1  0  0  0
  9 26  1  0  0  0
  9 27  1  0  0  0
  9 28  1  0  0  0
 10 18  2  0  0  0
 10 11  1  0  0  0
 11 12  2  0  0  0
 11 29  1  0  0  0
 12 13  1  0  0  0
 12 30  1  0  0  0
 13 17  2  0  0  0
 13 14  1  0  0  0
 14 16  2  0  0  0
 14 15  1  0  0  0
 17 18  1  0  0  0
 17 31  1  0  0  0
 18 19  1  0  0  0
 19 22  1  0  0  0
 19 20  1  0  0  0
 20 21  1  0  0  0
 20 32  1  0  0  0
 20 33  1  0  0  0
 21 34  1  0  0  0
 21 35  1  0  0  0
 21 36  1  0  0  0
M  CHG  2  14   1  15  -1
M  END
> <s_m_source_file>
../1rth_ligand.sdf

> <i_m_source_file_index>
1

> <s_epik_input>
W2NIXTFbY0hdW2NIXW5jKGMxMilOKFtDSDJdW0NIM10pYzNjKE4oQzI9TylbQ0gzXSlbY0hdW2NIXWMoW04rXShbTy1dKT1PKVtjSF0z

> <s_epik_cmdline>
J2VwaWtfYXBwJywgJy1pbWFlJywgJ2xpZ2FuZF9wcm8ubWFlJywgJy1vbWFlJywgJ2xpZ2FuZF9wcmVwLm1hZScsICctbXMnLCAnMScsICctcGgnLCAnNycsICctcGh0JywgJzAuNScsICctbnQn

> <r_lp_tautomer_probability>
1

> <r_epik_Ionization_Penalty>
  0.0000

> <r_epik_Ionization_Penalty_Charging>
  0.0000

> <r_epik_Ionization_Penalty_Neutral>
  0.0000

> <r_epik_State_Penalty>
 -0.0000

> <r_epik_Charging_Adjusted_Penalty>
0

> <i_epik_Tot_Q>
0

> <i_epik_Tot_abs_Q>
2

$$$$
