1rtl_ligand
                    3D
 Schrodinger Suite 2020-3.
 70 73  0  0  1  0            999 V2000
    4.8260   30.8300   12.2650 O   0  0  0  0  0  0
    6.6250   23.4690   16.7460 C   0  0  0  0  0  0
    5.3020   22.8850   16.3040 C   0  0  0  0  0  0
    6.5370   22.6110   15.4880 C   0  0  0  0  0  0
    5.8020   31.4630   11.7920 C   0  0  0  0  0  0
    6.2450   32.7490   11.9290 N   0  0  0  0  0  0
    6.0400   34.1040   12.4640 C   0  0  0  0  0  0
    7.2020   34.6780   13.4240 C   0  0  0  0  0  0
    8.1220   35.6180   12.6150 C   0  0  0  0  0  0
    7.4970   35.7500   11.2190 C   0  0  0  0  0  0
    6.0610   35.1680   11.3020 C   0  0  0  0  0  0
    6.6750   30.7830   10.9390 N   0  0  0  0  0  0
    6.8190   29.4480   10.4320 C   0  0  1  0  0  0
    7.6070   29.7190    9.1350 C   0  0  0  0  0  0
    8.5570   28.5730    8.7830 C   0  0  0  0  0  0
    6.5860   30.0850    8.0690 C   0  0  0  0  0  0
    7.5140   28.5430   11.4820 C   0  0  0  0  0  0
    8.2960   29.1290   12.2850 O   0  0  0  0  0  0
    7.2520   27.1940   11.5600 N   0  0  0  0  0  0
    7.8580   26.3970   12.5960 C   0  0  1  0  0  0
    6.7460   25.1940   12.6910 C   0  0  2  0  0  0
    5.7580   25.7870   12.0260 C   0  0  0  0  0  0
    6.4090   26.3280   10.7190 C   0  0  0  0  0  0
    6.2670   24.6760   14.0570 N   0  0  0  0  0  0
    6.8340   23.4070   14.2340 C   0  0  0  0  0  0
    7.6390   22.8180   13.4420 O   0  0  0  0  0  0
    9.2430   26.0840   12.8890 C   0  0  0  0  0  0
    9.5660   25.2840   14.1790 C   0  0  0  0  0  0
    9.8210   24.0930   13.6900 O   0  0  0  0  0  0
   10.4380   27.0010   12.9140 C   0  0  0  0  0  0
   10.9070   26.6140   11.5360 C   0  0  0  0  0  0
   10.0520   25.3670   11.7440 C   0  0  0  0  0  0
    6.5516   24.5663   16.7702 H   0  0  0  0  0  0
    6.8732   23.0959   17.7506 H   0  0  0  0  0  0
    4.9086   22.2287   17.0942 H   0  0  0  0  0  0
    4.5870   23.6991   16.1139 H   0  0  0  0  0  0
    6.9505   21.6730   15.0891 H   0  0  0  0  0  0
    7.1436   32.5217   11.3367 H   0  0  0  0  0  0
    5.0838   33.9090   12.9717 H   0  0  0  0  0  0
    6.7479   35.2366   14.2557 H   0  0  0  0  0  0
    7.7937   33.8414   13.8240 H   0  0  0  0  0  0
    8.1764   36.5967   13.1142 H   0  0  0  0  0  0
    9.1297   35.1812   12.5536 H   0  0  0  0  0  0
    7.4684   36.8107   10.9289 H   0  0  0  0  0  0
    8.1011   35.1873   10.4921 H   0  0  0  0  0  0
    5.7910   34.6805   10.3536 H   0  0  0  0  0  0
    5.3374   35.9665   11.5228 H   0  0  0  0  0  0
    7.3898   31.5644   10.6415 H   0  0  0  0  0  0
    5.8586   28.9452   10.2455 H   0  0  0  0  0  0
    8.3004   30.5674    9.2327 H   0  0  0  0  0  0
    9.2464   28.3974    9.6220 H   0  0  0  0  0  0
    9.1333   28.8374    7.8841 H   0  0  0  0  0  0
    7.9745   27.6601    8.5897 H   0  0  0  0  0  0
    5.9614   30.9157    8.4294 H   0  0  0  0  0  0
    5.9497   29.2133    7.8561 H   0  0  0  0  0  0
    7.1084   30.3907    7.1505 H   0  0  0  0  0  0
    8.2159   27.1697   13.2924 H   0  0  0  0  0  0
    7.0138   24.2300   12.2339 H   0  0  0  0  0  0
    4.9689   25.0519   11.8093 H   0  0  0  0  0  0
    5.3422   26.6019   12.6368 H   0  0  0  0  0  0
    5.8046   26.9500   10.0424 H   0  0  0  0  0  0
    7.0486   25.6570   10.1268 H   0  0  0  0  0  0
    5.6023   25.2949   14.6776 H   0  0  0  0  0  0
    9.6240   25.4571   15.2637 H   0  0  0  0  0  0
   10.1003   28.0400   13.0422 H   0  0  0  0  0  0
   11.0958   26.7234   13.7508 H   0  0  0  0  0  0
   10.5927   27.3810   10.8129 H   0  0  0  0  0  0
   12.0040   26.5332   11.5313 H   0  0  0  0  0  0
   10.5432   24.4698   12.1487 H   0  0  0  0  0  0
    9.3644   25.0758   10.9363 H   0  0  0  0  0  0
  1  5  2  0  0  0
  2  3  1  0  0  0
  2  4  1  0  0  0
  2 33  1  0  0  0
  2 34  1  0  0  0
  3  4  1  0  0  0
  3 35  1  0  0  0
  3 36  1  0  0  0
  4 25  1  0  0  0
  4 37  1  0  0  0
  5  6  1  0  0  0
  5 12  1  0  0  0
  6  7  1  0  0  0
  6 38  1  0  0  0
  7  8  1  0  0  0
  7 11  1  0  0  0
  7 39  1  0  0  0
  8  9  1  0  0  0
  8 40  1  0  0  0
  8 41  1  0  0  0
  9 10  1  0  0  0
  9 42  1  0  0  0
  9 43  1  0  0  0
 10 11  1  0  0  0
 10 44  1  0  0  0
 10 45  1  0  0  0
 11 46  1  0  0  0
 11 47  1  0  0  0
 12 13  1  0  0  0
 12 48  1  0  0  0
 13 14  1  0  0  0
 13 17  1  0  0  0
 13 49  1  0  0  0
 14 15  1  0  0  0
 14 16  1  0  0  0
 14 50  1  0  0  0
 15 51  1  0  0  0
 15 52  1  0  0  0
 15 53  1  0  0  0
 16 54  1  0  0  0
 16 55  1  0  0  0
 16 56  1  0  0  0
 17 18  2  0  0  0
 17 19  1  0  0  0
 19 20  1  0  0  0
 19 23  1  0  0  0
 20 21  1  0  0  0
 20 27  1  0  0  0
 20 57  1  0  0  0
 21 22  1  0  0  0
 21 24  1  0  0  0
 21 58  1  0  0  0
 22 23  1  0  0  0
 22 59  1  0  0  0
 22 60  1  0  0  0
 23 61  1  0  0  0
 23 62  1  0  0  0
 24 25  1  0  0  0
 24 63  1  0  0  0
 25 26  2  0  0  0
 27 28  1  0  0  0
 27 30  1  0  0  0
 27 32  1  0  0  0
 28 29  2  0  0  0
 28 64  1  0  0  0
 30 31  1  0  0  0
 30 65  1  0  0  0
 30 66  1  0  0  0
 31 32  1  0  0  0
 31 67  1  0  0  0
 31 68  1  0  0  0
 32 69  1  0  0  0
 32 70  1  0  0  0
M  END
> <s_m_source_file>
../1rtl_ligand.sdf

> <i_m_source_file_index>
1

> <s_epik_input>
W0NIMl0xW0NIMl1bQ0gyXVtDSDJdW0NIXTFbTkhdQyg9TylbTkhdW0NAQEhdKFtDSF0oW0NIM10pW0NIM10pQyg9TylOMltDQEhdKEMzKFtDSF09TylbQ0gyXVtDSDJdW0NIMl0zKVtDQEhdKFtDSDJdW0NIMl0yKVtOSF1DKD1PKVtDSF00W0NIMl1bQ0gyXTQ=

> <s_epik_cmdline>
J2VwaWtfYXBwJywgJy1pbWFlJywgJ2xpZ2FuZF9wcm8ubWFlJywgJy1vbWFlJywgJ2xpZ2FuZF9wcmVwLm1hZScsICctbXMnLCAnMScsICctcGgnLCAnNycsICctcGh0JywgJzAuNScsICctbnQn

> <r_lp_tautomer_probability>
1

> <r_epik_Ionization_Penalty>
  0.0001

> <r_epik_Ionization_Penalty_Charging>
  0.0000

> <r_epik_Ionization_Penalty_Neutral>
  0.0001

> <r_epik_State_Penalty>
 -0.0000

> <r_epik_Charging_Adjusted_Penalty>
0

> <i_epik_Tot_Q>
0

> <i_epik_Tot_abs_Q>
0

$$$$
