1ru1_ligand
                    3D
 Schrodinger Suite 2020-3.
 45 47  0  0  1  0            999 V2000
    9.7880   -3.5710    9.9220 P   0  0  0  0  0  0
   10.1840   -2.2190   10.3700 O   0  0  0  0  0  0
   10.8670   -4.3210    9.1410 O   0  5  0  0  0  0
    8.4910   -3.5320    9.1350 O   0  5  0  0  0  0
    8.4870   -4.1590   12.3790 P   0  0  1  0  0  0
    7.3730   -3.3240   11.7950 O   0  5  0  0  0  0
    8.1280   -5.4270   13.1010 O   0  0  0  0  0  0
    9.5400   -4.5170   11.2260 O   0  0  0  0  0  0
    8.4450   -2.7690   15.0150 P   0  0  1  0  0  0
    6.9870   -2.6150   14.6580 O   0  5  0  0  0  0
    8.7380   -3.7350   16.1200 O   0  0  0  0  0  0
    9.4070   -3.1740   13.5620 C   0  0  0  0  0  0
    8.8340   -1.2880   15.4460 O   0  0  0  0  0  0
   10.0490   -0.8860   16.1610 C   0  0  0  0  0  0
   10.1790    0.6090   16.1260 C   0  0  1  0  0  0
   10.1930    1.0640   14.7590 O   0  0  0  0  0  0
    9.2310    1.4640   16.8610 C   0  0  1  0  0  0
    9.4760    1.5580   18.2330 O   0  0  0  0  0  0
    9.3590    2.7890   16.1370 C   0  0  1  0  0  0
   10.0240    3.7890   16.9660 O   0  0  0  0  0  0
   10.2650    2.5070   14.9290 C   0  0  2  0  0  0
    9.8510    3.0540   13.6420 N   0  0  0  0  0  0
   10.7740    3.7340   12.7960 C   0  0  0  0  0  0
   10.1770    4.1450   11.6790 N   0  0  0  0  0  0
    8.8410    3.7060   11.8330 C   0  0  0  0  0  0
    7.7680    3.8730   10.9400 C   0  0  0  0  0  0
    7.8960    4.4900    9.8030 N   0  0  0  0  0  0
    6.5280    3.3360   11.3380 N   0  0  0  0  0  0
    6.4150    2.7180   12.4880 C   0  0  0  0  0  0
    7.4350    2.4980   13.4560 N   0  0  0  0  0  0
    8.6510    3.0480   13.0200 C   0  0  0  0  0  0
   10.2965   -3.7316   13.8904 H   0  0  0  0  0  0
    9.7192   -2.2308   13.0898 H   0  0  0  0  0  0
    9.9884   -1.2243   17.2059 H   0  0  0  0  0  0
   10.9262   -1.3416   15.6784 H   0  0  0  0  0  0
   11.1275    0.7739   16.6582 H   0  0  0  0  0  0
    8.2212    1.0329   16.9275 H   0  0  0  0  0  0
    9.4129    0.6604   18.8657 H   0  0  0  0  0  0
    8.3688    3.2055   15.9003 H   0  0  0  0  0  0
    9.5465    4.1413   17.8922 H   0  0  0  0  0  0
   11.2582    2.9451   15.1067 H   0  0  0  0  0  0
   11.8259    3.8958   13.0312 H   0  0  0  0  0  0
    8.8719    4.9032    9.5083 H   0  0  0  0  0  0
    7.0284    4.5989    9.1356 H   0  0  0  0  0  0
    5.4267    2.3277   12.7311 H   0  0  0  0  0  0
  1  2  2  0  0  0
  1  3  1  0  0  0
  1  4  1  0  0  0
  1  8  1  0  0  0
  5  6  1  0  0  0
  5  7  2  0  0  0
  5  8  1  0  0  0
  5 12  1  0  0  0
  9 10  1  0  0  0
  9 11  2  0  0  0
  9 12  1  0  0  0
  9 13  1  0  0  0
 12 32  1  0  0  0
 12 33  1  0  0  0
 13 14  1  0  0  0
 14 15  1  0  0  0
 14 34  1  0  0  0
 14 35  1  0  0  0
 15 16  1  0  0  0
 15 17  1  0  0  0
 15 36  1  0  0  0
 16 21  1  0  0  0
 17 18  1  0  0  0
 17 19  1  0  0  0
 17 37  1  0  0  0
 18 38  1  0  0  0
 19 20  1  0  0  0
 19 21  1  0  0  0
 19 39  1  0  0  0
 20 40  1  0  0  0
 21 22  1  0  0  0
 21 41  1  0  0  0
 22 23  1  0  0  0
 22 31  1  0  0  0
 23 24  2  0  0  0
 23 42  1  0  0  0
 24 25  1  0  0  0
 25 26  2  0  0  0
 25 31  1  0  0  0
 26 27  1  0  0  0
 26 28  1  0  0  0
 27 43  1  0  0  0
 27 44  1  0  0  0
 28 29  2  0  0  0
 29 30  1  0  0  0
 29 45  1  0  0  0
 30 31  2  0  0  0
M  CHG  4   3  -1   4  -1   6  -1  10  -1
M  END
> <s_m_source_file>
../1ru1_ligand.sdf

> <i_m_source_file_index>
1

> <s_epik_input>
Tz1QKFtPSF0pKFtPSF0pT1tQQF0oPU8pKFtPSF0pW0NIMl1bUEBdKD1PKShbT0hdKU9bQ0gyXVtDQEhdMU9bQ0BIXShbQ0BIXShbT0hdKVtDQEBIXTFbT0hdKW4oW2NIXW4yKWMoYzIzKW5bY0hdbmMzW05IMl0=

> <s_epik_cmdline>
J2VwaWtfYXBwJywgJy1pbWFlJywgJ2xpZ2FuZF9wcm8ubWFlJywgJy1vbWFlJywgJ2xpZ2FuZF9wcmVwLm1hZScsICctbXMnLCAnMScsICctcGgnLCAnNycsICctcGh0JywgJzAuNScsICctbnQn

> <r_lp_tautomer_probability>
0.999997216410988

> <r_epik_Ionization_Penalty>
  0.1361

> <r_epik_Ionization_Penalty_Charging>
  0.1357

> <r_epik_Ionization_Penalty_Neutral>
  0.0004

> <r_epik_State_Penalty>
  0.1250

> <r_epik_Charging_Adjusted_Penalty>
0.260643809970156

> <i_epik_Tot_Q>
-4

> <i_epik_Tot_abs_Q>
4

> <s_epik_Chemistry_Notes>
This compound contains an acetal/aminal-like group ( X-CH(R)-Y where X, Y are N, S, or O) that may be acid/base labile, releasing an aldehyde.

$$$$
