1ru2_ligand
                    3D
 Schrodinger Suite 2020-3.
 45 47  0  0  1  0            999 V2000
    3.2350   18.3530   10.0550 P   0  0  0  0  0  0
    2.8070   16.9570   10.3160 O   0  0  0  0  0  0
    2.1900   19.1380    9.2910 O   0  5  0  0  0  0
    4.6110   18.3660    9.4160 O   0  5  0  0  0  0
    4.4380   18.9410   12.6020 P   0  0  1  0  0  0
    5.6410   18.3420   11.9300 O   0  5  0  0  0  0
    4.6100   20.2030   13.3730 O   0  0  0  0  0  0
    3.3830   19.1800   11.4330 O   0  0  0  0  0  0
    4.4800   17.5920   15.2320 P   0  0  1  0  0  0
    5.9790   17.6070   14.9680 O   0  5  0  0  0  0
    4.0130   18.5470   16.2640 O   0  0  0  0  0  0
    3.6500   17.7420   13.6720 C   0  0  0  0  0  0
    4.2550   16.0990   15.7650 O   0  0  0  0  0  0
    2.9430   15.7130   16.3100 C   0  0  0  0  0  0
    2.7550   14.2360   16.1380 C   0  0  1  0  0  0
    2.8020   13.7880   14.7830 O   0  0  0  0  0  0
    3.6570   13.3680   16.9320 C   0  0  1  0  0  0
    3.2610   13.3650   18.2700 O   0  0  0  0  0  0
    3.5640   12.0510   16.2350 C   0  0  1  0  0  0
    2.8660   11.0080   16.9780 O   0  0  0  0  0  0
    2.7960   12.3360   14.9640 C   0  0  2  0  0  0
    3.2680   11.8230   13.6890 N   0  0  0  0  0  0
    2.3350   11.1650   12.8250 C   0  0  0  0  0  0
    2.9630   10.7790   11.7260 N   0  0  0  0  0  0
    4.3070   11.1970   11.8980 C   0  0  0  0  0  0
    5.3800   11.0380   11.0340 C   0  0  0  0  0  0
    5.3540   10.4590    9.8750 N   0  0  0  0  0  0
    6.6290   11.5540   11.4500 N   0  0  0  0  0  0
    6.7290   12.1540   12.6180 C   0  0  0  0  0  0
    5.6760   12.3680   13.5810 N   0  0  0  0  0  0
    4.4750   11.8330   13.1020 C   0  0  0  0  0  0
    2.6115   18.0493   13.8649 H   0  0  0  0  0  0
    3.6561   16.7558   13.1848 H   0  0  0  0  0  0
    2.9002   15.9692   17.3789 H   0  0  0  0  0  0
    2.1494   16.2519   15.7717 H   0  0  0  0  0  0
    1.7234   14.0899   16.4909 H   0  0  0  0  0  0
    4.6975   13.7061   17.0464 H   0  0  0  0  0  0
    3.2986   14.2946   18.8568 H   0  0  0  0  0  0
    4.5762   11.6389   16.1104 H   0  0  0  0  0  0
    3.2674   10.6552   17.9395 H   0  0  0  0  0  0
    1.8303   11.8291   15.1074 H   0  0  0  0  0  0
    1.2777   11.0074   13.0381 H   0  0  0  0  0  0
    4.4133   10.0362    9.4924 H   0  0  0  0  0  0
    6.2726   10.3903    9.2738 H   0  0  0  0  0  0
    7.7160   12.5304   12.8869 H   0  0  0  0  0  0
  1  2  2  0  0  0
  1  3  1  0  0  0
  1  4  1  0  0  0
  1  8  1  0  0  0
  5  6  1  0  0  0
  5  7  2  0  0  0
  5  8  1  0  0  0
  5 12  1  0  0  0
  9 10  1  0  0  0
  9 11  2  0  0  0
  9 12  1  0  0  0
  9 13  1  0  0  0
 12 32  1  0  0  0
 12 33  1  0  0  0
 13 14  1  0  0  0
 14 15  1  0  0  0
 14 34  1  0  0  0
 14 35  1  0  0  0
 15 16  1  0  0  0
 15 17  1  0  0  0
 15 36  1  0  0  0
 16 21  1  0  0  0
 17 18  1  0  0  0
 17 19  1  0  0  0
 17 37  1  0  0  0
 18 38  1  0  0  0
 19 20  1  0  0  0
 19 21  1  0  0  0
 19 39  1  0  0  0
 20 40  1  0  0  0
 21 22  1  0  0  0
 21 41  1  0  0  0
 22 23  1  0  0  0
 22 31  1  0  0  0
 23 24  2  0  0  0
 23 42  1  0  0  0
 24 25  1  0  0  0
 25 26  2  0  0  0
 25 31  1  0  0  0
 26 27  1  0  0  0
 26 28  1  0  0  0
 27 43  1  0  0  0
 27 44  1  0  0  0
 28 29  2  0  0  0
 29 30  1  0  0  0
 29 45  1  0  0  0
 30 31  2  0  0  0
M  CHG  4   3  -1   4  -1   6  -1  10  -1
M  END
> <s_m_source_file>
../1ru2_ligand.sdf

> <i_m_source_file_index>
1

> <s_epik_input>
Tz1QKFtPSF0pKFtPSF0pT1tQQF0oPU8pKFtPSF0pW0NIMl1bUEBdKD1PKShbT0hdKU9bQ0gyXVtDQEhdMU9bQ0BIXShbQ0BIXShbT0hdKVtDQEBIXTFbT0hdKW4oW2NIXW4yKWMoYzIzKW5bY0hdbmMzW05IMl0=

> <s_epik_cmdline>
J2VwaWtfYXBwJywgJy1pbWFlJywgJ2xpZ2FuZF9wcm8ubWFlJywgJy1vbWFlJywgJ2xpZ2FuZF9wcmVwLm1hZScsICctbXMnLCAnMScsICctcGgnLCAnNycsICctcGh0JywgJzAuNScsICctbnQn

> <r_lp_tautomer_probability>
0.999997216410988

> <r_epik_Ionization_Penalty>
  0.1361

> <r_epik_Ionization_Penalty_Charging>
  0.1357

> <r_epik_Ionization_Penalty_Neutral>
  0.0004

> <r_epik_State_Penalty>
  0.1250

> <r_epik_Charging_Adjusted_Penalty>
0.260643809970156

> <i_epik_Tot_Q>
-4

> <i_epik_Tot_abs_Q>
4

> <s_epik_Chemistry_Notes>
This compound contains an acetal/aminal-like group ( X-CH(R)-Y where X, Y are N, S, or O) that may be acid/base labile, releasing an aldehyde.

$$$$
