1rv1_ligand
                    3D
 Schrodinger Suite 2020-3.
 75 79  0  0  1  0            999 V2000
   12.2280    8.6240   13.6240 C   0  0  2  0  0  0
   12.8510    8.9460   14.9790 C   0  0  0  0  0  0
   12.0550    9.3540   16.0490 C   0  0  0  0  0  0
   12.6320    9.6520   17.2950 C   0  0  0  0  0  0
   14.2290    8.8410   15.1600 C   0  0  0  0  0  0
   14.8070    9.1350   16.3850 C   0  0  0  0  0  0
   14.0090    9.5350   17.4490 C   0  0  0  0  0  0
   14.7790    9.8260   19.1110 Br  0  0  0  0  0  0
   10.9310    9.2340   13.4740 N   0  0  0  0  0  0
   10.0650    8.3550   12.8880 C   0  0  0  0  0  0
    8.6620    8.6530   12.5560 C   0  0  0  0  0  0
    7.6100    7.6900   12.6200 C   0  0  0  0  0  0
    7.9380    6.3730   12.8810 O   0  0  0  0  0  0
    6.9030    5.6050   13.4720 C   0  0  0  0  0  0
    7.4580    4.3070   13.9540 C   0  0  0  0  0  0
    6.3000    8.0540   12.3790 C   0  0  0  0  0  0
    8.3180    9.9750   12.2220 C   0  0  0  0  0  0
    6.9840   10.3350   11.9760 C   0  0  0  0  0  0
    5.9760    9.3620   12.0610 C   0  0  0  0  0  0
    4.6550    9.6950   11.8340 O   0  0  0  0  0  0
    4.4580   10.8450   10.9880 C   0  0  0  0  0  0
   10.7080    7.1140   12.6170 N   0  0  0  0  0  0
   10.2210    6.1400   11.8090 C   0  0  0  0  0  0
   10.3110    4.9580   12.1250 O   0  0  0  0  0  0
    9.5790    6.5030   10.6780 N   0  0  0  0  0  0
    8.6520    5.5510   10.0230 C   0  0  0  0  0  0
    7.3870    6.2560    9.5610 C   0  0  0  0  0  0
    7.7360    7.5210    8.8490 N   0  0  0  0  0  0
    7.7600    7.5260    7.3830 C   0  0  0  0  0  0
    6.5910    6.7500    6.8410 C   0  0  0  0  0  0
    5.4180    7.1650    7.5190 O   0  0  0  0  0  0
    9.9240    7.7300    9.9280 C   0  0  0  0  0  0
    8.6490    8.4490    9.5400 C   0  0  0  0  0  0
   11.9950    7.0870   13.3310 C   0  0  2  0  0  0
   11.8920    6.2580   14.6360 C   0  0  0  0  0  0
   10.7880    6.3830   15.4780 C   0  0  0  0  0  0
   10.7390    5.7060   16.7070 C   0  0  0  0  0  0
   12.9470    5.4260   15.0270 C   0  0  0  0  0  0
   12.9020    4.7420   16.2520 C   0  0  0  0  0  0
   11.8020    4.8940   17.0880 C   0  0  0  0  0  0
   11.8210    4.1460   18.7870 Br  0  0  0  0  0  0
   12.9299    9.0922   12.9182 H   0  0  0  0  0  0
   10.9766    9.4424   15.9176 H   0  0  0  0  0  0
   12.0082    9.9708   18.1301 H   0  0  0  0  0  0
   14.8591    8.5242   14.3289 H   0  0  0  0  0  0
   15.8863    9.0524   16.5131 H   0  0  0  0  0  0
    6.4752    6.1581   14.3211 H   0  0  0  0  0  0
    6.1174    5.4129   12.7264 H   0  0  0  0  0  0
    6.6542    3.7121   14.4123 H   0  0  0  0  0  0
    8.2434    4.4985   14.7000 H   0  0  0  0  0  0
    7.8857    3.7533   13.1052 H   0  0  0  0  0  0
    5.5122    7.3032   12.4398 H   0  0  0  0  0  0
    9.0995   10.7317   12.1531 H   0  0  0  0  0  0
    6.7322   11.3643   11.7204 H   0  0  0  0  0  0
    3.3806   11.0305   10.8664 H   0  0  0  0  0  0
    4.9113   10.6578   10.0034 H   0  0  0  0  0  0
    4.9318   11.7244   11.4485 H   0  0  0  0  0  0
    9.1455    5.1015    9.1487 H   0  0  0  0  0  0
    8.3755    4.7596   10.7352 H   0  0  0  0  0  0
    6.8298    5.5987    8.8773 H   0  0  0  0  0  0
    6.7603    6.4936   10.4332 H   0  0  0  0  0  0
    7.7037    8.5625    7.0189 H   0  0  0  0  0  0
    8.6936    7.0636    7.0300 H   0  0  0  0  0  0
    6.4891    6.9455    5.7633 H   0  0  0  0  0  0
    6.7570    5.6750    7.0045 H   0  0  0  0  0  0
    4.4475    6.7132    7.2660 H   0  0  0  0  0  0
   10.5404    8.3854   10.5609 H   0  0  0  0  0  0
   10.4867    7.4601    9.0222 H   0  0  0  0  0  0
    8.8956    9.2867    8.8711 H   0  0  0  0  0  0
    8.1615    8.8354   10.4472 H   0  0  0  0  0  0
   12.7753    6.5913   12.7348 H   0  0  0  0  0  0
    9.9518    7.0147   15.1782 H   0  0  0  0  0  0
    9.8725    5.8162   17.3591 H   0  0  0  0  0  0
   13.8119    5.3079   14.3742 H   0  0  0  0  0  0
   13.7272    4.0937   16.5467 H   0  0  0  0  0  0
  1  2  1  0  0  0
  1  9  1  0  0  0
  1 34  1  0  0  0
  1 42  1  0  0  0
  2  3  2  0  0  0
  2  5  1  0  0  0
  3  4  1  0  0  0
  3 43  1  0  0  0
  4  7  2  0  0  0
  4 44  1  0  0  0
  5  6  2  0  0  0
  5 45  1  0  0  0
  6  7  1  0  0  0
  6 46  1  0  0  0
  7  8  1  0  0  0
  9 10  2  0  0  0
 10 11  1  0  0  0
 10 22  1  0  0  0
 11 12  1  0  0  0
 11 17  2  0  0  0
 12 13  1  0  0  0
 12 16  2  0  0  0
 13 14  1  0  0  0
 14 15  1  0  0  0
 14 47  1  0  0  0
 14 48  1  0  0  0
 15 49  1  0  0  0
 15 50  1  0  0  0
 15 51  1  0  0  0
 16 19  1  0  0  0
 16 52  1  0  0  0
 17 18  1  0  0  0
 17 53  1  0  0  0
 18 19  2  0  0  0
 18 54  1  0  0  0
 19 20  1  0  0  0
 20 21  1  0  0  0
 21 55  1  0  0  0
 21 56  1  0  0  0
 21 57  1  0  0  0
 22 23  1  0  0  0
 22 34  1  0  0  0
 23 24  2  0  0  0
 23 25  1  0  0  0
 25 26  1  0  0  0
 25 32  1  0  0  0
 26 27  1  0  0  0
 26 58  1  0  0  0
 26 59  1  0  0  0
 27 28  1  0  0  0
 27 60  1  0  0  0
 27 61  1  0  0  0
 28 29  1  0  0  0
 28 33  1  0  0  0
 29 30  1  0  0  0
 29 62  1  0  0  0
 29 63  1  0  0  0
 30 31  1  0  0  0
 30 64  1  0  0  0
 30 65  1  0  0  0
 31 66  1  0  0  0
 32 33  1  0  0  0
 32 67  1  0  0  0
 32 68  1  0  0  0
 33 69  1  0  0  0
 33 70  1  0  0  0
 34 35  1  0  0  0
 34 71  1  0  0  0
 35 36  2  0  0  0
 35 38  1  0  0  0
 36 37  1  0  0  0
 36 72  1  0  0  0
 37 40  2  0  0  0
 37 73  1  0  0  0
 38 39  2  0  0  0
 38 74  1  0  0  0
 39 40  1  0  0  0
 39 75  1  0  0  0
 40 41  1  0  0  0
M  END
> <s_m_source_file>
../1rv1_ligand.sdf

> <i_m_source_file_index>
1

> <s_epik_input>
W2NIXTFbY0hdYyhCcilbY0hdW2NIXWMxW0NAQEhdMk49QyhjM2MoT1tDSDJdW0NIM10pW2NIXWMoW2NIXVtjSF0zKU9bQ0gzXSlOKFtDQEBIXTJjNFtjSF1bY0hdYyhCcilbY0hdW2NIXTQpQyg9TylONVtDSDJdW0NIMl1bTkgrXShbQ0gyXVtDSDJdNSlbQ0gyXVtDSDJdW09IXQ==

> <s_epik_cmdline>
J2VwaWtfYXBwJywgJy1pbWFlJywgJ2xpZ2FuZF9wcm8ubWFlJywgJy1vbWFlJywgJ2xpZ2FuZF9wcmVwLm1hZScsICctbXMnLCAnMScsICctcGgnLCAnNycsICctcGh0JywgJzAuNScsICctbnQn

> <r_lp_tautomer_probability>
1

> <r_epik_Ionization_Penalty>
  0.2529

> <r_epik_Ionization_Penalty_Charging>
  0.0000

> <r_epik_Ionization_Penalty_Neutral>
  0.2529

> <r_epik_State_Penalty>
 -0.0000

> <r_epik_Charging_Adjusted_Penalty>
0

> <i_epik_Tot_Q>
0

> <i_epik_Tot_abs_Q>
0

> <s_epik_Chemistry_Notes>
This compound has an imine and may undergo hydrolysis.

$$$$
