1rwq_ligand
                    3D
 Schrodinger Suite 2020-3.
 46 48  0  0  1  0            999 V2000
   49.7120   53.4030   37.3160 Cl  0  0  0  0  0  0
   49.0030   51.8890   37.7150 C   0  0  0  0  0  0
   48.9580   51.4980   38.9990 C   0  0  0  0  0  0
   48.4020   50.2830   39.1680 C   0  0  0  0  0  0
   48.2710   49.6890   40.7980 Cl  0  0  0  0  0  0
   47.8940   49.5360   38.1530 C   0  0  0  0  0  0
   47.9610   49.9740   36.8460 C   0  0  0  0  0  0
   48.5410   51.1900   36.6580 C   0  0  0  0  0  0
   48.6760   51.7490   35.3720 C   0  0  0  0  0  0
   47.7750   52.8440   34.9850 C   0  0  0  0  0  0
   46.6030   53.1770   35.7970 C   0  0  0  0  0  0
   46.7590   53.9680   36.8430 N   0  3  0  0  0  0
   48.1050   53.5440   33.7510 C   0  0  0  0  0  0
   47.3510   54.5960   33.3240 N   0  0  0  0  0  0
   49.7210   51.4440   34.6400 N   0  0  0  0  0  0
   49.9730   52.1070   33.5250 C   0  0  0  0  0  0
   49.1880   53.1040   33.0970 N   0  0  0  0  0  0
   51.1550   51.6750   32.7300 C   0  0  0  0  0  0
   51.9650   50.6280   33.0980 C   0  0  0  0  0  0
   53.0750   50.2850   32.2980 C   0  0  0  0  0  0
   53.8770   49.2440   32.6210 O   0  0  0  0  0  0
   53.4690   48.3310   33.6290 C   0  0  0  0  0  0
   53.3930   50.9660   31.1500 C   0  0  0  0  0  0
   52.5550   52.0000   30.7970 C   0  0  0  0  0  0
   51.4710   52.3630   31.5880 C   0  0  0  0  0  0
   52.8140   52.7630   29.7000 O   0  0  0  0  0  0
   53.6810   53.8530   29.9870 C   0  0  0  0  0  0
   49.3343   52.1042   39.8231 H   0  0  0  0  0  0
   47.4266   48.5765   38.3744 H   0  0  0  0  0  0
   47.5735   49.3827   36.0164 H   0  0  0  0  0  0
   45.8563   53.6874   35.1710 H   0  0  0  0  0  0
   46.1677   52.2543   36.2083 H   0  0  0  0  0  0
   45.7883   54.1159   37.3388 H   0  0  0  0  0  0
   47.1536   54.9400   36.5120 H   0  0  0  0  0  0
   47.4651   53.5069   37.5493 H   0  0  0  0  0  0
   46.4712   54.9130   33.9031 H   0  0  0  0  0  0
   47.6223   55.1280   32.4002 H   0  0  0  0  0  0
   51.7504   50.0639   34.0057 H   0  0  0  0  0  0
   54.2397   47.5565   33.7559 H   0  0  0  0  0  0
   52.5201   47.8592   33.3341 H   0  0  0  0  0  0
   53.3312   48.8700   34.5779 H   0  0  0  0  0  0
   54.2633   50.7023   30.5490 H   0  0  0  0  0  0
   50.8582   53.2147   31.2929 H   0  0  0  0  0  0
   53.8560   54.4338   29.0693 H   0  0  0  0  0  0
   54.6395   53.4691   30.3663 H   0  0  0  0  0  0
   53.2182   54.4993   30.7473 H   0  0  0  0  0  0
  1  2  1  0  0  0
  2  3  2  0  0  0
  2  8  1  0  0  0
  3  4  1  0  0  0
  3 28  1  0  0  0
  4  5  1  0  0  0
  4  6  2  0  0  0
  6  7  1  0  0  0
  6 29  1  0  0  0
  7  8  2  0  0  0
  7 30  1  0  0  0
  8  9  1  0  0  0
  9 10  2  0  0  0
  9 15  1  0  0  0
 10 11  1  0  0  0
 10 13  1  0  0  0
 11 12  1  0  0  0
 11 31  1  0  0  0
 11 32  1  0  0  0
 12 33  1  0  0  0
 12 34  1  0  0  0
 12 35  1  0  0  0
 13 14  1  0  0  0
 13 17  2  0  0  0
 14 36  1  0  0  0
 14 37  1  0  0  0
 15 16  2  0  0  0
 16 17  1  0  0  0
 16 18  1  0  0  0
 18 19  2  0  0  0
 18 25  1  0  0  0
 19 20  1  0  0  0
 19 38  1  0  0  0
 20 21  1  0  0  0
 20 23  2  0  0  0
 21 22  1  0  0  0
 22 39  1  0  0  0
 22 40  1  0  0  0
 22 41  1  0  0  0
 23 24  1  0  0  0
 23 42  1  0  0  0
 24 25  2  0  0  0
 24 26  1  0  0  0
 25 43  1  0  0  0
 26 27  1  0  0  0
 27 44  1  0  0  0
 27 45  1  0  0  0
 27 46  1  0  0  0
M  CHG  1  12   1
M  END
> <s_m_source_file>
../1rwq_ligand.sdf

> <i_m_source_file_index>
1

> <s_epik_input>
Q2xjMVtjSF1jKENsKVtjSF1bY0hdYzEtYzJjKFtDSDJdW05IMytdKWMoW05IMl0pbmMobjIpLWMzW2NIXWMoT1tDSDNdKVtjSF1jKFtjSF0zKU9bQ0gzXQ==

> <s_epik_cmdline>
J2VwaWtfYXBwJywgJy1pbWFlJywgJ2xpZ2FuZF9wcm8ubWFlJywgJy1vbWFlJywgJ2xpZ2FuZF9wcmVwLm1hZScsICctbXMnLCAnMScsICctcGgnLCAnNycsICctcGh0JywgJzAuNScsICctbnQn

> <r_lp_tautomer_probability>
0.999999583200174

> <r_epik_Ionization_Penalty>
  0.1349

> <r_epik_Ionization_Penalty_Charging>
  0.1346

> <r_epik_Ionization_Penalty_Neutral>
  0.0002

> <r_epik_State_Penalty>
  0.1240

> <r_epik_Charging_Adjusted_Penalty>
0.258632352050151

> <i_epik_Tot_Q>
1

> <i_epik_Tot_abs_Q>
1

$$$$
