1rww_ligand
                    3D
 Schrodinger Suite 2020-3.
 58 61  0  0  1  0            999 V2000
   32.7740   61.5760    2.0540 O   0  0  0  0  0  0
   33.9600   61.3840    2.3970 C   0  0  0  0  0  0
   34.8810   62.1560    2.0490 O   0  5  0  0  0  0
   34.3050   60.1830    3.2540 C   0  0  0  0  0  0
   33.1080   59.7180    4.0860 C   0  0  1  0  0  0
   33.1900   58.2320    4.3470 C   0  0  0  0  0  0
   33.0140   57.4310    3.4430 O   0  0  0  0  0  0
   33.0030   60.4690    5.3280 N   0  0  0  0  0  0
   31.8130   60.8100    5.8320 C   0  0  0  0  0  0
   30.7920   60.2330    5.4880 O   0  0  0  0  0  0
   31.7030   61.9290    6.8350 C   0  0  0  0  0  0
   32.6670   62.9380    6.9110 C   0  0  0  0  0  0
   32.5570   63.9350    7.8080 N   0  0  0  0  0  0
   30.6170   61.9730    7.7040 C   0  0  0  0  0  0
   30.5290   63.0150    8.6220 C   0  0  0  0  0  0
   31.5170   63.9980    8.6600 C   0  0  0  0  0  0
   31.3840   65.1170    9.6750 C   0  0  0  0  0  0
   32.3750   66.1690    9.5010 N   0  0  0  0  0  0
   32.9000   66.8030   10.5530 C   0  0  0  0  0  0
   32.7330   66.3840   11.6880 O   0  0  0  0  0  0
   33.7220   68.0510   10.3720 C   0  0  0  0  0  0
   33.7760   68.9960   11.3970 C   0  0  0  0  0  0
   34.4310   68.2810    9.1960 C   0  0  0  0  0  0
   35.1910   69.4420    9.0420 C   0  0  0  0  0  0
   35.2510   70.3900   10.0680 C   0  0  0  0  0  0
   34.5400   70.1530   11.2470 C   0  0  0  0  0  0
   35.9740   71.5450    9.9820 N   0  0  0  0  0  0
   36.7340   71.9890    8.9400 C   0  0  0  0  0  0
   37.3870   73.2160    9.0840 C   0  0  0  0  0  0
   38.1420   73.6990    8.0840 N   0  0  0  0  0  0
   36.8670   71.3040    7.7910 N   0  0  0  0  0  0
   37.5890   71.8040    6.7740 C   0  0  0  0  0  0
   38.2500   73.0220    6.9270 C   0  0  0  0  0  0
   37.6860   71.1040    5.5700 C   0  0  0  0  0  0
   38.4370   71.6290    4.5180 C   0  0  0  0  0  0
   39.0930   72.8530    4.6690 C   0  0  0  0  0  0
   38.9960   73.5530    5.8710 C   0  0  0  0  0  0
   34.6217   59.3507    2.6083 H   0  0  0  0  0  0
   35.1228   60.4457    3.9412 H   0  0  0  0  0  0
   32.1715   59.9334    3.5507 H   0  0  0  0  0  0
   33.4108   57.8743    5.3635 H   0  0  0  0  0  0
   33.9131   60.7663    5.8696 H   0  0  0  0  0  0
   33.5207   62.9170    6.2336 H   0  0  0  0  0  0
   29.8467   61.2027    7.6661 H   0  0  0  0  0  0
   29.6867   63.0628    9.3122 H   0  0  0  0  0  0
   30.3897   65.5786    9.5837 H   0  0  0  0  0  0
   31.5070   64.7088   10.6890 H   0  0  0  0  0  0
   32.7033   66.4536    8.4905 H   0  0  0  0  0  0
   33.2187   68.8293   12.3188 H   0  0  0  0  0  0
   34.3924   67.5490    8.3893 H   0  0  0  0  0  0
   35.7410   69.6104    8.1161 H   0  0  0  0  0  0
   34.5829   70.8799   12.0581 H   0  0  0  0  0  0
   35.9868   72.2500   10.8263 H   0  0  0  0  0  0
   37.2833   73.7821   10.0097 H   0  0  0  0  0  0
   37.1755   70.1482    5.4520 H   0  0  0  0  0  0
   38.5120   71.0835    3.5773 H   0  0  0  0  0  0
   39.6809   73.2610    3.8469 H   0  0  0  0  0  0
   39.5008   74.5121    5.9869 H   0  0  0  0  0  0
  1  2  2  0  0  0
  2  3  1  0  0  0
  2  4  1  0  0  0
  4  5  1  0  0  0
  4 38  1  0  0  0
  4 39  1  0  0  0
  5  6  1  0  0  0
  5  8  1  0  0  0
  5 40  1  0  0  0
  6  7  2  0  0  0
  6 41  1  0  0  0
  8  9  1  0  0  0
  8 42  1  0  0  0
  9 10  2  0  0  0
  9 11  1  0  0  0
 11 12  2  0  0  0
 11 14  1  0  0  0
 12 13  1  0  0  0
 12 43  1  0  0  0
 13 16  2  0  0  0
 14 15  2  0  0  0
 14 44  1  0  0  0
 15 16  1  0  0  0
 15 45  1  0  0  0
 16 17  1  0  0  0
 17 18  1  0  0  0
 17 46  1  0  0  0
 17 47  1  0  0  0
 18 19  1  0  0  0
 18 48  1  0  0  0
 19 20  2  0  0  0
 19 21  1  0  0  0
 21 22  2  0  0  0
 21 23  1  0  0  0
 22 26  1  0  0  0
 22 49  1  0  0  0
 23 24  2  0  0  0
 23 50  1  0  0  0
 24 25  1  0  0  0
 24 51  1  0  0  0
 25 26  2  0  0  0
 25 27  1  0  0  0
 26 52  1  0  0  0
 27 28  1  0  0  0
 27 53  1  0  0  0
 28 29  2  0  0  0
 28 31  1  0  0  0
 29 30  1  0  0  0
 29 54  1  0  0  0
 30 33  2  0  0  0
 31 32  2  0  0  0
 32 33  1  0  0  0
 32 34  1  0  0  0
 33 37  1  0  0  0
 34 35  2  0  0  0
 34 55  1  0  0  0
 35 36  1  0  0  0
 35 56  1  0  0  0
 36 37  2  0  0  0
 36 57  1  0  0  0
 37 58  1  0  0  0
M  CHG  1   3  -1
M  END
> <s_m_source_file>
../1rww_ligand.sdf

> <i_m_source_file_index>
1

> <s_epik_input>
Tz1DKFtPSF0pW0NIMl1bQ0BASF0oW0NIXT1PKVtOSF1DKD1PKWMxW2NIXW5jKFtjSF1bY0hdMSlbQ0gyXVtOSF1DKD1PKWMyW2NIXVtjSF1jKFtjSF1bY0hdMilbTkhdYyhuMylbY0hdbmMoYzM0KVtjSF1bY0hdW2NIXVtjSF00

> <s_epik_cmdline>
J2VwaWtfYXBwJywgJy1pbWFlJywgJ2xpZ2FuZF9wcm8ubWFlJywgJy1vbWFlJywgJ2xpZ2FuZF9wcmVwLm1hZScsICctbXMnLCAnMScsICctcGgnLCAnNycsICctcGh0JywgJzAuNScsICctbnQn

> <r_lp_tautomer_probability>
1

> <r_epik_Ionization_Penalty>
  0.0008

> <r_epik_Ionization_Penalty_Charging>
  0.0006

> <r_epik_Ionization_Penalty_Neutral>
  0.0002

> <r_epik_State_Penalty>
 -0.0000

> <r_epik_Charging_Adjusted_Penalty>
0.000629407442997656

> <i_epik_Tot_Q>
-1

> <i_epik_Tot_abs_Q>
1

$$$$
