1rwx_ligand
                    3D
 Schrodinger Suite 2020-3.
 67 70  0  0  1  0            999 V2000
   33.1450   58.1130    3.4910 O   0  0  0  0  0  0
   33.3880   58.8620    4.4260 C   0  0  0  0  0  0
   33.2710   60.3580    4.2450 C   0  0  2  0  0  0
   34.4370   60.8530    3.3890 C   0  0  0  0  0  0
   34.0240   61.9940    2.4840 C   0  0  0  0  0  0
   32.8100   62.2510    2.3240 O   0  5  0  0  0  0
   34.9290   62.6430    1.9180 O   0  0  0  0  0  0
   33.2220   61.0760    5.5120 N   0  0  0  0  0  0
   32.0780   61.3780    6.1360 C   0  0  0  0  0  0
   30.9860   60.9800    5.7580 O   0  0  0  0  0  0
   32.1900   62.2490    7.3620 C   0  0  2  0  0  0
   31.9320   61.4690    8.6260 C   0  0  0  0  0  0
   33.1760   60.8570    9.6230 S   0  0  0  0  0  0
   30.6610   61.1730    9.1300 C   0  0  0  0  0  0
   30.7840   60.5850   10.4190 C   0  0  0  0  0  0
   32.0550   60.3840   10.7990 C   0  0  0  0  0  0
   31.2390   63.4460    7.2670 C   0  0  0  0  0  0
   31.6280   64.5610    8.2350 C   0  0  0  0  0  0
   30.5160   65.5960    8.3780 C   0  0  0  0  0  0
   30.6150   66.3310    9.7110 C   0  0  0  0  0  0
   31.4670   67.5050    9.6370 N   0  0  0  0  0  0
   31.9450   68.1230   10.7210 C   0  0  0  0  0  0
   31.3700   68.0730   11.7990 O   0  0  0  0  0  0
   33.2230   68.9100   10.6140 C   0  0  0  0  0  0
   33.5070   69.9120   11.5460 C   0  0  0  0  0  0
   34.6890   70.6460   11.4520 C   0  0  0  0  0  0
   35.5980   70.3780   10.4270 C   0  0  0  0  0  0
   35.3110   69.3840    9.4890 C   0  0  0  0  0  0
   34.1300   68.6480    9.5850 C   0  0  0  0  0  0
   36.7540   71.1150   10.3380 O   0  0  0  0  0  0
   38.0160   70.6220   10.5750 C   0  0  0  0  0  0
   39.0170   71.5060   10.9760 C   0  0  0  0  0  0
   40.2590   71.0560   11.2110 N   0  0  0  0  0  0
   38.3090   69.3200   10.4170 N   0  0  0  0  0  0
   39.5550   68.8710   10.6410 C   0  0  0  0  0  0
   40.5490   69.7570   11.0500 C   0  0  0  0  0  0
   41.8470   69.2990   11.2800 C   0  0  0  0  0  0
   42.1470   67.9480   11.1050 C   0  0  0  0  0  0
   41.1510   67.0620   10.6970 C   0  0  0  0  0  0
   39.8540   67.5220   10.4660 C   0  0  0  0  0  0
   33.6916   58.4471    5.3985 H   0  0  0  0  0  0
   32.2998   60.5807    3.7791 H   0  0  0  0  0  0
   35.2477   61.2066    4.0430 H   0  0  0  0  0  0
   34.8059   60.0292    2.7603 H   0  0  0  0  0  0
   34.1548   61.3960    5.9993 H   0  0  0  0  0  0
   33.2294   62.6062    7.4069 H   0  0  0  0  0  0
   29.7202   61.3639    8.6136 H   0  0  0  0  0  0
   29.9271   60.3225   11.0394 H   0  0  0  0  0  0
   32.3358   59.9607   11.7634 H   0  0  0  0  0  0
   31.2629   63.8531    6.2454 H   0  0  0  0  0  0
   30.2160   63.1217    7.5086 H   0  0  0  0  0  0
   31.8311   64.1311    9.2269 H   0  0  0  0  0  0
   32.5299   65.0702    7.8645 H   0  0  0  0  0  0
   30.5937   66.3324    7.5646 H   0  0  0  0  0  0
   29.5387   65.0938    8.3258 H   0  0  0  0  0  0
   29.6128   66.6591   10.0241 H   0  0  0  0  0  0
   31.0341   65.6559   10.4717 H   0  0  0  0  0  0
   31.7447   67.9222    8.6578 H   0  0  0  0  0  0
   32.8013   70.1207   12.3501 H   0  0  0  0  0  0
   34.9032   71.4293   12.1791 H   0  0  0  0  0  0
   36.0122   69.1826    8.6792 H   0  0  0  0  0  0
   33.9147   67.8671    8.8557 H   0  0  0  0  0  0
   38.7900   72.5650   11.0988 H   0  0  0  0  0  0
   42.6243   69.9950   11.5955 H   0  0  0  0  0  0
   43.1587   67.5856   11.2870 H   0  0  0  0  0  0
   41.3861   66.0068   10.5580 H   0  0  0  0  0  0
   39.0764   66.8269   10.1492 H   0  0  0  0  0  0
  1  2  2  0  0  0
  2  3  1  0  0  0
  2 41  1  0  0  0
  3  4  1  0  0  0
  3  8  1  0  0  0
  3 42  1  0  0  0
  4  5  1  0  0  0
  4 43  1  0  0  0
  4 44  1  0  0  0
  5  6  1  0  0  0
  5  7  2  0  0  0
  8  9  1  0  0  0
  8 45  1  0  0  0
  9 10  2  0  0  0
  9 11  1  0  0  0
 11 12  1  0  0  0
 11 17  1  0  0  0
 11 46  1  0  0  0
 12 13  1  0  0  0
 12 14  2  0  0  0
 13 16  1  0  0  0
 14 15  1  0  0  0
 14 47  1  0  0  0
 15 16  2  0  0  0
 15 48  1  0  0  0
 16 49  1  0  0  0
 17 18  1  0  0  0
 17 50  1  0  0  0
 17 51  1  0  0  0
 18 19  1  0  0  0
 18 52  1  0  0  0
 18 53  1  0  0  0
 19 20  1  0  0  0
 19 54  1  0  0  0
 19 55  1  0  0  0
 20 21  1  0  0  0
 20 56  1  0  0  0
 20 57  1  0  0  0
 21 22  1  0  0  0
 21 58  1  0  0  0
 22 23  2  0  0  0
 22 24  1  0  0  0
 24 25  2  0  0  0
 24 29  1  0  0  0
 25 26  1  0  0  0
 25 59  1  0  0  0
 26 27  2  0  0  0
 26 60  1  0  0  0
 27 28  1  0  0  0
 27 30  1  0  0  0
 28 29  2  0  0  0
 28 61  1  0  0  0
 29 62  1  0  0  0
 30 31  1  0  0  0
 31 32  2  0  0  0
 31 34  1  0  0  0
 32 33  1  0  0  0
 32 63  1  0  0  0
 33 36  2  0  0  0
 34 35  2  0  0  0
 35 36  1  0  0  0
 35 40  1  0  0  0
 36 37  1  0  0  0
 37 38  2  0  0  0
 37 64  1  0  0  0
 38 39  1  0  0  0
 38 65  1  0  0  0
 39 40  2  0  0  0
 39 66  1  0  0  0
 40 67  1  0  0  0
M  CHG  1   6  -1
M  END
> <s_m_source_file>
../1rwx_ligand.sdf

> <i_m_source_file_index>
1

> <s_epik_input>
W09IXUMoPU8pW0NIMl1bQ0BASF0oW0NIXT1PKVtOSF1DKD1PKVtDQEhdKGMxc1tjSF1bY0hdW2NIXTEpW0NIMl1bQ0gyXVtDSDJdW0NIMl1bTkhdQyg9TyljMltjSF1bY0hdYyhbY0hdW2NIXTIpT2MobjMpW2NIXW5jKGMzNClbY0hdW2NIXVtjSF1bY0hdNA==

> <s_epik_cmdline>
J2VwaWtfYXBwJywgJy1pbWFlJywgJ2xpZ2FuZF9wcm8ubWFlJywgJy1vbWFlJywgJ2xpZ2FuZF9wcmVwLm1hZScsICctbXMnLCAnMScsICctcGgnLCAnNycsICctcGh0JywgJzAuNScsICctbnQn

> <r_lp_tautomer_probability>
1

> <r_epik_Ionization_Penalty>
  0.0007

> <r_epik_Ionization_Penalty_Charging>
  0.0006

> <r_epik_Ionization_Penalty_Neutral>
  0.0001

> <r_epik_State_Penalty>
 -0.0000

> <r_epik_Charging_Adjusted_Penalty>
0.000594076106335625

> <i_epik_Tot_Q>
-1

> <i_epik_Tot_abs_Q>
1

$$$$
