1rxp_ligand
                    3D
 Schrodinger Suite 2020-3.
 63 63  0  0  1  0            999 V2000
   -0.0580   21.7020   30.4130 C   0  0  0  0  0  0
    0.7520   21.4590   29.1230 C   0  0  0  0  0  0
    1.3380   22.8030   28.6460 C   0  0  0  0  0  0
    1.9140   20.4920   29.4290 C   0  0  0  0  0  0
   -0.7800   18.7820   27.1110 N   0  0  0  0  0  0
   -1.9520   18.5330   26.1750 C   0  0  0  0  0  0
   -1.7320   19.3560   24.8910 C   0  0  0  0  0  0
    0.6210   18.5060   26.5600 C   0  0  0  0  0  0
    0.8190   19.2190   25.2040 C   0  0  0  0  0  0
   -0.3200   17.8640   23.3350 C   0  0  0  0  0  0
    0.3170   16.8710   23.5740 O   0  0  0  0  0  0
   -0.3900   18.9840   24.3160 N   0  0  0  0  0  0
   -1.1460   16.1930   20.4830 C   0  0  1  0  0  0
   -0.9680   15.1650   21.5720 C   0  0  0  0  0  0
   -1.0250   18.0520   22.1610 N   0  0  0  0  0  0
   -0.4520   17.5140   20.9210 C   0  0  2  0  0  0
   -1.8680   14.8670   22.3280 O   0  0  0  0  0  0
   -0.6830   15.5500   19.1450 C   0  0  0  0  0  0
   -1.2950   14.1690   18.7860 C   0  0  0  0  0  0
   -0.9520   13.6370   17.3850 C   0  0  0  0  0  0
   -1.8020   14.1970   16.3760 N   0  0  0  0  0  0
   -2.0120   13.5910   15.2660 C   0  0  0  0  0  0
   -2.6570   14.1180   14.1700 N   0  3  0  0  0  0
   -1.6300   12.2950   14.9500 N   0  0  0  0  0  0
   -0.6400   18.5270   19.8500 C   0  0  0  0  0  0
   -1.6830   19.0990   19.6510 O   0  0  0  0  0  0
    0.4570   18.7500   19.0970 O   0  5  0  0  0  0
   -0.9530   19.8050   28.2040 C   0  0  0  0  0  0
   -1.7580   19.6610   29.0960 O   0  0  0  0  0  0
   -0.1210   20.8820   28.0640 N   0  0  0  0  0  0
    0.6003   22.1278   31.1845 H   0  0  0  0  0  0
   -0.4728   20.7480   30.7707 H   0  0  0  0  0  0
   -0.8791   22.4034   30.2037 H   0  0  0  0  0  0
    1.9814   23.2226   29.4334 H   0  0  0  0  0  0
    0.5185   23.5042   28.4297 H   0  0  0  0  0  0
    1.9322   22.6411   27.7346 H   0  0  0  0  0  0
    2.5545   20.9245   30.2118 H   0  0  0  0  0  0
    2.5074   20.3316   28.5168 H   0  0  0  0  0  0
    1.5088   19.5303   29.7767 H   0  0  0  0  0  0
   -2.0052   17.4617   25.9310 H   0  0  0  0  0  0
   -2.8859   18.8440   26.6660 H   0  0  0  0  0  0
   -2.5290   19.1276   24.1680 H   0  0  0  0  0  0
   -1.7543   20.4285   25.1345 H   0  0  0  0  0  0
    1.3742   18.8756   27.2714 H   0  0  0  0  0  0
    0.7520   17.4232   26.4169 H   0  0  0  0  0  0
    0.9415   20.2991   25.3722 H   0  0  0  0  0  0
    1.7166   18.8210   24.7081 H   0  0  0  0  0  0
   -2.2002   16.4694   20.3338 H   0  0  0  0  0  0
    0.0149   14.6807   21.6690 H   0  0  0  0  0  0
   -1.9868   18.5853   22.1364 H   0  0  0  0  0  0
    0.6168   17.3450   21.1186 H   0  0  0  0  0  0
   -0.9407   16.2170   18.3092 H   0  0  0  0  0  0
    0.4060   15.3966   19.1694 H   0  0  0  0  0  0
   -0.9382   13.4129   19.5008 H   0  0  0  0  0  0
   -2.3922   14.2304   18.8344 H   0  0  0  0  0  0
    0.0888   13.8948   17.1396 H   0  0  0  0  0  0
   -1.0727   12.5438   17.3682 H   0  0  0  0  0  0
   -2.2910   15.1677   16.5454 H   0  0  0  0  0  0
   -3.0470   15.1460   14.2030 H   0  0  0  0  0  0
   -1.0939   11.6835   15.6908 H   0  0  0  0  0  0
   -1.8632   11.8791   13.9587 H   0  0  0  0  0  0
   -0.1337   21.3277   27.0584 H   0  0  0  0  0  0
   -2.7824   13.5111   13.2612 H   0  0  0  0  0  0
  1  2  1  0  0  0
  1 31  1  0  0  0
  1 32  1  0  0  0
  1 33  1  0  0  0
  2  3  1  0  0  0
  2  4  1  0  0  0
  2 30  1  0  0  0
  3 34  1  0  0  0
  3 35  1  0  0  0
  3 36  1  0  0  0
  4 37  1  0  0  0
  4 38  1  0  0  0
  4 39  1  0  0  0
  5  6  1  0  0  0
  5  8  1  0  0  0
  5 28  1  0  0  0
  6  7  1  0  0  0
  6 40  1  0  0  0
  6 41  1  0  0  0
  7 12  1  0  0  0
  7 42  1  0  0  0
  7 43  1  0  0  0
  8  9  1  0  0  0
  8 44  1  0  0  0
  8 45  1  0  0  0
  9 12  1  0  0  0
  9 46  1  0  0  0
  9 47  1  0  0  0
 10 11  2  0  0  0
 10 12  1  0  0  0
 10 15  1  0  0  0
 13 14  1  0  0  0
 13 16  1  0  0  0
 13 18  1  0  0  0
 13 48  1  0  0  0
 14 17  2  0  0  0
 14 49  1  0  0  0
 15 16  1  0  0  0
 15 50  1  0  0  0
 16 25  1  0  0  0
 16 51  1  0  0  0
 18 19  1  0  0  0
 18 52  1  0  0  0
 18 53  1  0  0  0
 19 20  1  0  0  0
 19 54  1  0  0  0
 19 55  1  0  0  0
 20 21  1  0  0  0
 20 56  1  0  0  0
 20 57  1  0  0  0
 21 22  1  0  0  0
 21 58  1  0  0  0
 22 23  2  0  0  0
 22 24  1  0  0  0
 23 59  1  0  0  0
 23 63  1  0  0  0
 24 60  1  0  0  0
 24 61  1  0  0  0
 25 26  2  0  0  0
 25 27  1  0  0  0
 28 29  2  0  0  0
 28 30  1  0  0  0
 30 62  1  0  0  0
M  CHG  2  23   1  27  -1
M  END
> <s_m_source_file>
../1rxp_ligand.sdf

> <i_m_source_file_index>
1

> <s_epik_input>
W0NIM11DKFtDSDNdKShbQ0gzXSlbTkhdQyg9TylOMVtDSDJdW0NIMl1OKFtDSDJdW0NIMl0xKUMoPU8pW05IXVtDQEhdKEMoPU8pW09IXSlbQ0BIXShbQ0hdPU8pW0NIMl1bQ0gyXVtDSDJdW05IXS9DKD1OXFtIXSlbTkgyXQ==

> <s_epik_cmdline>
J2VwaWtfYXBwJywgJy1pbWFlJywgJ2xpZ2FuZF9wcm8ubWFlJywgJy1vbWFlJywgJ2xpZ2FuZF9wcmVwLm1hZScsICctbXMnLCAnMScsICctcGgnLCAnNycsICctcGh0JywgJzAuNScsICctbnQn

> <r_lp_tautomer_probability>
1

> <r_epik_Ionization_Penalty>
  0.0009

> <r_epik_Ionization_Penalty_Charging>
  0.0008

> <r_epik_Ionization_Penalty_Neutral>
  0.0001

> <r_epik_State_Penalty>
 -0.0000

> <r_epik_Charging_Adjusted_Penalty>
0.000763175155322118

> <i_epik_Tot_Q>
0

> <i_epik_Tot_abs_Q>
2

> <s_epik_Chemistry_Notes>
This compound has an imine and may undergo hydrolysis.

$$$$
