1ryf_ligand
                    3D
 Schrodinger Suite 2020-3.
 40 42  0  0  1  0            999 V2000
   -6.0300   71.8690   35.9780 P   0  0  0  0  0  0
   -6.4980   70.8830   37.0280 O   0  5  0  0  0  0
   -5.4230   71.2010   34.7190 O   0  5  0  0  0  0
   -7.0300   72.9560   35.6890 O   0  0  0  0  0  0
   -4.7530   72.5760   36.7200 O   0  0  0  0  0  0
   -3.3350   72.9640   36.0270 P   0  0  1  0  0  0
   -2.4450   71.7770   35.8540 O   0  0  0  0  0  0
   -3.5640   73.9080   34.8500 O   0  5  0  0  0  0
   -2.6310   73.7990   37.2590 O   0  0  0  0  0  0
   -3.3070   74.9420   37.7940 C   0  0  0  0  0  0
   -2.3600   75.8340   38.6380 C   0  0  1  0  0  0
   -1.7780   75.0490   39.6880 O   0  0  0  0  0  0
   -1.2410   76.3290   37.7600 C   0  0  1  0  0  0
   -0.9220   77.6940   38.0290 O   0  0  0  0  0  0
   -0.1180   75.3980   38.0630 C   0  0  1  0  0  0
    1.1330   75.9880   37.8510 O   0  0  0  0  0  0
   -0.3550   75.0800   39.5530 C   0  0  2  0  0  0
    0.1870   73.7810   39.9830 N   0  0  0  0  0  0
   -0.0090   72.5820   39.3620 C   0  0  0  0  0  0
    0.5980   71.5810   40.0710 N   0  0  0  0  0  0
    1.2120   72.1760   41.1230 C   0  0  0  0  0  0
    1.9860   71.7050   42.1700 C   0  0  0  0  0  0
    2.2300   70.5090   42.2590 O   0  0  0  0  0  0
    2.4700   72.6030   43.1190 N   0  0  0  0  0  0
    2.1830   73.9470   43.0350 C   0  0  0  0  0  0
    2.7380   74.8500   43.8540 N   0  0  0  0  0  0
    1.4560   74.4370   41.9810 N   0  0  0  0  0  0
    0.9300   73.5530   41.0840 C   0  0  0  0  0  0
   -3.7078   75.5501   36.9696 H   0  0  0  0  0  0
   -4.1331   74.6103   38.4401 H   0  0  0  0  0  0
   -2.8935   76.6703   39.1134 H   0  0  0  0  0  0
   -1.4800   76.3741   36.6872 H   0  0  0  0  0  0
   -1.6696   78.4799   37.8460 H   0  0  0  0  0  0
   -0.0408   74.5455   37.3721 H   0  0  0  0  0  0
    1.4424   76.2711   36.8341 H   0  0  0  0  0  0
    0.1127   75.8149   40.2247 H   0  0  0  0  0  0
   -0.5674   72.4418   38.4365 H   0  0  0  0  0  0
    3.0916   72.2416   43.9514 H   0  0  0  0  0  0
    3.3329   74.5172   44.7173 H   0  0  0  0  0  0
    2.5988   75.9244   43.6633 H   0  0  0  0  0  0
  1  2  1  0  0  0
  1  3  1  0  0  0
  1  4  2  0  0  0
  1  5  1  0  0  0
  5  6  1  0  0  0
  6  7  2  0  0  0
  6  8  1  0  0  0
  6  9  1  0  0  0
  9 10  1  0  0  0
 10 11  1  0  0  0
 10 29  1  0  0  0
 10 30  1  0  0  0
 11 12  1  0  0  0
 11 13  1  0  0  0
 11 31  1  0  0  0
 12 17  1  0  0  0
 13 14  1  0  0  0
 13 15  1  0  0  0
 13 32  1  0  0  0
 14 33  1  0  0  0
 15 16  1  0  0  0
 15 17  1  0  0  0
 15 34  1  0  0  0
 16 35  1  0  0  0
 17 18  1  0  0  0
 17 36  1  0  0  0
 18 19  1  0  0  0
 18 28  1  0  0  0
 19 20  2  0  0  0
 19 37  1  0  0  0
 20 21  1  0  0  0
 21 22  1  0  0  0
 21 28  2  0  0  0
 22 23  2  0  0  0
 22 24  1  0  0  0
 24 25  1  0  0  0
 24 38  1  0  0  0
 25 26  1  0  0  0
 25 27  2  0  0  0
 26 39  1  0  0  0
 26 40  1  0  0  0
 27 28  1  0  0  0
M  CHG  3   2  -1   3  -1   8  -1
M  END
> <s_m_source_file>
../1ryf_ligand.sdf

> <i_m_source_file_index>
1

> <s_epik_input>
W09IXVAoPU8pKFtPSF0pT1tQQEBdKD1PKShbT0hdKU9bQ0gyXVtDQEhdMU9bQ0BIXShbQ0BIXShbT0hdKVtDQEBIXTFbT0hdKW4oW2NIXW4yKWMoYzIzKW5jKFtOSDJdKVtuSF1jMz1P

> <s_epik_cmdline>
J2VwaWtfYXBwJywgJy1pbWFlJywgJ2xpZ2FuZF9wcm8ubWFlJywgJy1vbWFlJywgJ2xpZ2FuZF9wcmVwLm1hZScsICctbXMnLCAnMScsICctcGgnLCAnNycsICctcGh0JywgJzAuNScsICctbnQn

> <r_lp_tautomer_probability>
0.999940409345307

> <r_epik_Ionization_Penalty>
  0.1052

> <r_epik_Ionization_Penalty_Charging>
  0.1051

> <r_epik_Ionization_Penalty_Neutral>
  0.0001

> <r_epik_State_Penalty>
  0.0922

> <r_epik_Charging_Adjusted_Penalty>
0.197315167096652

> <i_epik_Tot_Q>
-3

> <i_epik_Tot_abs_Q>
3

> <s_epik_Chemistry_Notes>
This compound contains an acetal/aminal-like group ( X-CH(R)-Y where X, Y are N, S, or O) that may be acid/base labile, releasing an aldehyde.

$$$$
