1ryh_ligand
                    3D
 Schrodinger Suite 2020-3.
 45 47  0  0  1  0            999 V2000
   -8.6030   72.9660   34.4650 P   0  0  0  0  0  0
   -9.5890   72.0280   35.1350 O   0  5  0  0  0  0
   -8.0480   72.6470   33.0800 O   0  5  0  0  0  0
   -9.2550   74.2540   34.4380 O   0  0  0  0  0  0
   -7.3600   73.1320   35.5270 N   0  0  1  0  0  0
   -6.2810   72.0080   35.9460 P   0  0  1  0  0  0
   -6.8600   71.1520   36.9690 O   0  0  0  0  0  0
   -5.7960   71.3870   34.7080 O   0  5  0  0  0  0
   -5.0780   72.7350   36.6320 O   0  0  0  0  0  0
   -3.6580   73.0790   36.0400 P   0  0  1  0  0  0
   -2.8320   71.8800   35.9170 O   0  0  0  0  0  0
   -3.8790   74.0200   34.9130 O   0  5  0  0  0  0
   -2.9460   73.9110   37.2140 O   0  0  0  0  0  0
   -3.6630   74.9820   37.8680 C   0  0  0  0  0  0
   -2.7260   75.9640   38.5920 C   0  0  1  0  0  0
   -2.1160   75.2220   39.6910 O   0  0  0  0  0  0
   -1.5900   76.4920   37.7600 C   0  0  1  0  0  0
   -1.2080   77.8010   38.1540 O   0  0  0  0  0  0
   -0.4540   75.5420   38.0350 C   0  0  1  0  0  0
    0.8490   76.0810   37.8900 O   0  0  0  0  0  0
   -0.7060   75.2510   39.5250 C   0  0  2  0  0  0
   -0.2010   73.9530   39.9660 N   0  0  0  0  0  0
   -0.4570   72.7360   39.3930 C   0  0  0  0  0  0
    0.1050   71.7260   40.0300 N   0  0  0  0  0  0
    0.7940   72.3400   41.0850 C   0  0  0  0  0  0
    1.5870   71.7700   42.1070 C   0  0  0  0  0  0
    1.8520   70.5700   42.2900 O   0  0  0  0  0  0
    2.0560   72.7060   43.0250 N   0  0  0  0  0  0
    1.8500   74.0890   42.9520 C   0  0  0  0  0  0
    2.3990   74.9380   43.8900 N   0  0  0  0  0  0
    1.1040   74.6400   41.9510 N   0  0  0  0  0  0
    0.5820   73.6910   41.1000 C   0  0  0  0  0  0
   -6.6842   73.9271   35.1791 H   0  0  0  0  0  0
   -4.2356   75.5501   37.1201 H   0  0  0  0  0  0
   -4.3522   74.5598   38.6142 H   0  0  0  0  0  0
   -3.3136   76.8327   38.9239 H   0  0  0  0  0  0
   -1.8597   76.6113   36.7003 H   0  0  0  0  0  0
   -1.9096   78.6392   38.0307 H   0  0  0  0  0  0
   -0.3959   74.7227   37.3033 H   0  0  0  0  0  0
    1.2220   76.3574   36.8928 H   0  0  0  0  0  0
   -0.2302   76.0058   40.1683 H   0  0  0  0  0  0
   -1.0660   72.6133   38.4974 H   0  0  0  0  0  0
    2.6418   72.3766   43.8958 H   0  0  0  0  0  0
    3.0064   74.5308   44.7117 H   0  0  0  0  0  0
    2.2294   76.0224   43.8164 H   0  0  0  0  0  0
  1  2  1  0  0  0
  1  3  1  0  0  0
  1  4  2  0  0  0
  1  5  1  0  0  0
  5  6  1  0  0  0
  5 33  1  0  0  0
  6  7  2  0  0  0
  6  8  1  0  0  0
  6  9  1  0  0  0
  9 10  1  0  0  0
 10 11  2  0  0  0
 10 12  1  0  0  0
 10 13  1  0  0  0
 13 14  1  0  0  0
 14 15  1  0  0  0
 14 34  1  0  0  0
 14 35  1  0  0  0
 15 16  1  0  0  0
 15 17  1  0  0  0
 15 36  1  0  0  0
 16 21  1  0  0  0
 17 18  1  0  0  0
 17 19  1  0  0  0
 17 37  1  0  0  0
 18 38  1  0  0  0
 19 20  1  0  0  0
 19 21  1  0  0  0
 19 39  1  0  0  0
 20 40  1  0  0  0
 21 22  1  0  0  0
 21 41  1  0  0  0
 22 23  1  0  0  0
 22 32  1  0  0  0
 23 24  2  0  0  0
 23 42  1  0  0  0
 24 25  1  0  0  0
 25 26  1  0  0  0
 25 32  2  0  0  0
 26 27  2  0  0  0
 26 28  1  0  0  0
 28 29  1  0  0  0
 28 43  1  0  0  0
 29 30  1  0  0  0
 29 31  2  0  0  0
 30 44  1  0  0  0
 30 45  1  0  0  0
 31 32  1  0  0  0
M  CHG  4   2  -1   3  -1   8  -1  12  -1
M  END
> <s_m_source_file>
../1ryh_ligand.sdf

> <i_m_source_file_index>
1

> <s_epik_input>
W09IXVAoPU8pKFtPSF0pW05IXVtQQEBdKD1PKShbT0hdKU9bUEBAXSg9TykoW09IXSlPW0NIMl1bQ0BIXTFPW0NASF0oW0NASF0oW09IXSlbQ0BASF0xW09IXSluKFtjSF1uMiljKGMyMyluYyhbTkgyXSlbbkhdYzM9Tw==

> <s_epik_cmdline>
J2VwaWtfYXBwJywgJy1pbWFlJywgJ2xpZ2FuZF9wcm8ubWFlJywgJy1vbWFlJywgJ2xpZ2FuZF9wcmVwLm1hZScsICctbXMnLCAnMScsICctcGgnLCAnNycsICctcGh0JywgJzAuNScsICctbnQn

> <r_lp_tautomer_probability>
0.999940409345307

> <r_epik_Ionization_Penalty>
  0.3593

> <r_epik_Ionization_Penalty_Charging>
  0.3365

> <r_epik_Ionization_Penalty_Neutral>
  0.0228

> <r_epik_State_Penalty>
  0.3402

> <r_epik_Charging_Adjusted_Penalty>
0.676618689254664

> <i_epik_Tot_Q>
-4

> <i_epik_Tot_abs_Q>
4

> <s_epik_Chemistry_Notes>
This compound contains an acetal/aminal-like group ( X-CH(R)-Y where X, Y are N, S, or O) that may be acid/base labile, releasing an aldehyde.

$$$$
