1rzx_ligand
                    3D
 Schrodinger Suite 2020-3.
106105  0  0  1  0            999 V2000
    5.3050   29.5130   -2.9530 C   0  0  0  0  0  0
    5.3300   28.3070   -2.6930 O   0  0  0  0  0  0
    3.9920   30.2180   -3.2980 C   0  0  0  0  0  0
    6.2120   30.3680   -2.4950 N   0  0  0  0  0  0
    7.6390   30.1140   -2.6460 C   0  0  2  0  0  0
    8.0850   28.9530   -1.7580 C   0  0  0  0  0  0
    7.6490   28.8270   -0.6130 O   0  0  0  0  0  0
    8.4680   31.3620   -2.2720 C   0  0  0  0  0  0
    9.9390   31.1240   -2.5780 C   0  0  0  0  0  0
    7.9510   32.5740   -3.0300 C   0  0  0  0  0  0
    8.9490   28.1020   -2.2990 N   0  0  0  0  0  0
    9.4740   26.9650   -1.5540 C   0  0  2  0  0  0
   10.8350   27.3530   -0.9930 C   0  0  0  0  0  0
   11.7440   27.6830   -1.7450 O   0  0  0  0  0  0
    9.6270   25.7510   -2.4720 C   0  0  0  0  0  0
   10.3300   24.5540   -1.8310 C   0  0  0  0  0  0
    9.4640   23.8770   -0.7810 C   0  0  0  0  0  0
   10.1440   22.6210   -0.2350 C   0  0  0  0  0  0
    9.2250   21.8070    0.6190 N   0  3  0  0  0  0
   10.9730   27.3310    0.3260 N   0  0  0  0  0  0
   12.2440   27.6720    0.9480 C   0  0  2  0  0  0
   12.6900   26.5640    1.8850 C   0  0  0  0  0  0
   11.8740   25.7900    2.3780 O   0  0  0  0  0  0
   12.1480   29.0210    1.6760 C   0  0  0  0  0  0
   11.1800   29.0680    2.8310 C   0  0  0  0  0  0
   10.6130   30.4640    3.0470 C   0  0  0  0  0  0
   11.3700   31.4520    2.9340 O   0  5  0  0  0  0
    9.4040   30.5760    3.3410 O   0  0  0  0  0  0
   13.9970   26.4950    2.1120 N   0  0  0  0  0  0
   14.5950   25.4650    2.9520 C   0  0  2  0  0  0
   15.4590   26.0790    4.0500 C   0  0  0  0  0  0
   16.3550   26.8790    3.7670 O   0  0  0  0  0  0
   15.4320   24.5270    2.0680 C   0  0  0  0  0  0
   16.2600   23.6750    2.8390 O   0  0  0  0  0  0
   15.1700   25.7130    5.2980 N   0  0  0  0  0  0
   15.8990   26.2370    6.4490 C   0  0  2  0  0  0
   17.2520   25.5460    6.6440 C   0  0  0  0  0  0
   17.3830   24.3310    6.4900 O   0  0  0  0  0  0
   15.0740   26.0420    7.7190 C   0  0  0  0  0  0
   15.7440   26.3650    9.0590 C   0  0  0  0  0  0
   15.9820   27.8690    9.1410 C   0  0  0  0  0  0
   14.8580   25.9090   10.2250 C   0  0  0  0  0  0
   18.2560   26.3370    6.9810 N   0  0  0  0  0  0
   19.5830   25.8070    7.2520 C   0  0  2  0  0  0
   20.0380   26.4630    8.5580 C   0  0  0  0  0  0
   19.5840   27.6060    8.7990 O   0  0  0  0  0  0
   20.5660   26.1330    6.1000 C   0  0  0  0  0  0
   20.0870   25.4590    4.8120 C   0  0  0  0  0  0
   20.6840   27.6230    5.8920 C   0  0  0  0  0  0
   20.8150   25.8400    9.3220 O   0  5  0  0  0  0
    3.2672   29.4803   -3.6729 H   0  0  0  0  0  0
    4.1760   30.9774   -4.0722 H   0  0  0  0  0  0
    3.5886   30.7032   -2.3970 H   0  0  0  0  0  0
    5.8665   31.2837   -1.9929 H   0  0  0  0  0  0
    7.7534   29.8573   -3.7095 H   0  0  0  0  0  0
    8.3744   31.5671   -1.1954 H   0  0  0  0  0  0
   10.2918   30.2440   -2.0202 H   0  0  0  0  0  0
   10.5233   32.0065   -2.2784 H   0  0  0  0  0  0
   10.0655   30.9493   -3.6566 H   0  0  0  0  0  0
    6.8875   32.7275   -2.7945 H   0  0  0  0  0  0
    8.0668   32.4071   -4.1111 H   0  0  0  0  0  0
    8.5246   33.4644   -2.7329 H   0  0  0  0  0  0
    9.2674   28.2732   -3.3379 H   0  0  0  0  0  0
    8.7550   26.7389   -0.7528 H   0  0  0  0  0  0
    8.6327   25.4044   -2.7903 H   0  0  0  0  0  0
   10.2177   26.0321   -3.3563 H   0  0  0  0  0  0
   10.5710   23.8120   -2.6064 H   0  0  0  0  0  0
   11.2575   24.8907   -1.3448 H   0  0  0  0  0  0
    9.2873   24.5726    0.0526 H   0  0  0  0  0  0
    8.5014   23.5899   -1.2292 H   0  0  0  0  0  0
   10.4788   21.9917   -1.0728 H   0  0  0  0  0  0
   11.0118   22.9100    0.3761 H   0  0  0  0  0  0
    9.7578   20.9177    0.9867 H   0  0  0  0  0  0
    8.3542   21.4931    0.0248 H   0  0  0  0  0  0
    8.8871   22.4115    1.4736 H   0  0  0  0  0  0
   10.1124   27.0508    0.9512 H   0  0  0  0  0  0
   12.9702   27.7509    0.1256 H   0  0  0  0  0  0
   13.1333   29.2872    2.0861 H   0  0  0  0  0  0
   11.8237   29.7976    0.9677 H   0  0  0  0  0  0
   10.3410   28.3843    2.6343 H   0  0  0  0  0  0
   11.6946   28.7610    3.7535 H   0  0  0  0  0  0
   14.6340   27.2557    1.6370 H   0  0  0  0  0  0
   13.7591   24.9300    3.4264 H   0  0  0  0  0  0
   14.7619   23.9000    1.4615 H   0  0  0  0  0  0
   16.0748   25.1247    1.4050 H   0  0  0  0  0  0
   16.9171   22.9476    2.3399 H   0  0  0  0  0  0
   14.3527   24.9919    5.4464 H   0  0  0  0  0  0
   16.0506   27.3005    6.2122 H   0  0  0  0  0  0
   14.1822   26.6848    7.6792 H   0  0  0  0  0  0
   14.7641   24.9894    7.7969 H   0  0  0  0  0  0
   16.7060   25.8358    9.1262 H   0  0  0  0  0  0
   16.6179   28.1859    8.3012 H   0  0  0  0  0  0
   16.4820   28.1098   10.0908 H   0  0  0  0  0  0
   15.0178   28.3961    9.0902 H   0  0  0  0  0  0
   14.6923   24.8237   10.1570 H   0  0  0  0  0  0
   13.8911   26.4313   10.1768 H   0  0  0  0  0  0
   15.3552   26.1450   11.1774 H   0  0  0  0  0  0
   18.0702   27.4187    7.0546 H   0  0  0  0  0  0
   19.5027   24.7132    7.3366 H   0  0  0  0  0  0
   21.5708   25.7667    6.3572 H   0  0  0  0  0  0
   20.0045   24.3742    4.9746 H   0  0  0  0  0  0
   20.8087   25.6550    4.0053 H   0  0  0  0  0  0
   19.1035   25.8634    4.5304 H   0  0  0  0  0  0
   21.0286   28.0970    6.8229 H   0  0  0  0  0  0
   19.7021   28.0332    5.6133 H   0  0  0  0  0  0
   21.4073   27.8248    5.0882 H   0  0  0  0  0  0
  1  2  2  0  0  0
  1  3  1  0  0  0
  1  4  1  0  0  0
  3 51  1  0  0  0
  3 52  1  0  0  0
  3 53  1  0  0  0
  4  5  1  0  0  0
  4 54  1  0  0  0
  5  6  1  0  0  0
  5  8  1  0  0  0
  5 55  1  0  0  0
  6  7  2  0  0  0
  6 11  1  0  0  0
  8  9  1  0  0  0
  8 10  1  0  0  0
  8 56  1  0  0  0
  9 57  1  0  0  0
  9 58  1  0  0  0
  9 59  1  0  0  0
 10 60  1  0  0  0
 10 61  1  0  0  0
 10 62  1  0  0  0
 11 12  1  0  0  0
 11 63  1  0  0  0
 12 13  1  0  0  0
 12 15  1  0  0  0
 12 64  1  0  0  0
 13 14  2  0  0  0
 13 20  1  0  0  0
 15 16  1  0  0  0
 15 65  1  0  0  0
 15 66  1  0  0  0
 16 17  1  0  0  0
 16 67  1  0  0  0
 16 68  1  0  0  0
 17 18  1  0  0  0
 17 69  1  0  0  0
 17 70  1  0  0  0
 18 19  1  0  0  0
 18 71  1  0  0  0
 18 72  1  0  0  0
 19 73  1  0  0  0
 19 74  1  0  0  0
 19 75  1  0  0  0
 20 21  1  0  0  0
 20 76  1  0  0  0
 21 22  1  0  0  0
 21 24  1  0  0  0
 21 77  1  0  0  0
 22 23  2  0  0  0
 22 29  1  0  0  0
 24 25  1  0  0  0
 24 78  1  0  0  0
 24 79  1  0  0  0
 25 26  1  0  0  0
 25 80  1  0  0  0
 25 81  1  0  0  0
 26 27  1  0  0  0
 26 28  2  0  0  0
 29 30  1  0  0  0
 29 82  1  0  0  0
 30 31  1  0  0  0
 30 33  1  0  0  0
 30 83  1  0  0  0
 31 32  2  0  0  0
 31 35  1  0  0  0
 33 34  1  0  0  0
 33 84  1  0  0  0
 33 85  1  0  0  0
 34 86  1  0  0  0
 35 36  1  0  0  0
 35 87  1  0  0  0
 36 37  1  0  0  0
 36 39  1  0  0  0
 36 88  1  0  0  0
 37 38  2  0  0  0
 37 43  1  0  0  0
 39 40  1  0  0  0
 39 89  1  0  0  0
 39 90  1  0  0  0
 40 41  1  0  0  0
 40 42  1  0  0  0
 40 91  1  0  0  0
 41 92  1  0  0  0
 41 93  1  0  0  0
 41 94  1  0  0  0
 42 95  1  0  0  0
 42 96  1  0  0  0
 42 97  1  0  0  0
 43 44  1  0  0  0
 43 98  1  0  0  0
 44 45  1  0  0  0
 44 47  1  0  0  0
 44 99  1  0  0  0
 45 46  2  0  0  0
 45 50  1  0  0  0
 47 48  1  0  0  0
 47 49  1  0  0  0
 47100  1  0  0  0
 48101  1  0  0  0
 48102  1  0  0  0
 48103  1  0  0  0
 49104  1  0  0  0
 49105  1  0  0  0
 49106  1  0  0  0
M  CHG  3  19   1  27  -1  50  -1
M  END
> <s_m_source_file>
../1rzx_ligand.sdf

> <i_m_source_file_index>
1

> <s_epik_input>
Tz1DKFtDSDNdKVtOSF1bQ0BASF0oW0NIXShbQ0gzXSlbQ0gzXSlDKD1PKVtOSF1bQ0BASF0oW0NIMl1bQ0gyXVtDSDJdW0NIMl1bTkgzK10pQyg9TylbTkhdW0NAQEhdKFtDSDJdW0NIMl1DKD1PKVtPSF0pQyg9TylbTkhdW0NAQEhdKFtDSDJdW09IXSlDKD1PKVtOSF1bQ0BASF0oW0NIMl1bQ0hdKFtDSDNdKVtDSDNdKUMoPU8pW05IXVtDQEhdKEMoPU8pW09IXSlbQ0hdKFtDSDNdKVtDSDNd

> <s_epik_cmdline>
J2VwaWtfYXBwJywgJy1pbWFlJywgJ2xpZ2FuZF9wcm8ubWFlJywgJy1vbWFlJywgJ2xpZ2FuZF9wcmVwLm1hZScsICctbXMnLCAnMScsICctcGgnLCAnNycsICctcGh0JywgJzAuNScsICctbnQn

> <r_lp_tautomer_probability>
1

> <r_epik_Ionization_Penalty>
  0.0024

> <r_epik_Ionization_Penalty_Charging>
  0.0024

> <r_epik_Ionization_Penalty_Neutral>
  0.0000

> <r_epik_State_Penalty>
 -0.0000

> <r_epik_Charging_Adjusted_Penalty>
0.00237365649084622

> <i_epik_Tot_Q>
-1

> <i_epik_Tot_abs_Q>
3

$$$$
