1s26_ligand
                    3D
 Schrodinger Suite 2020-3.
 45 47  0  0  1  0            999 V2000
   31.4970   73.4170   44.7920 P   0  0  0  0  0  0
   31.7570   74.8660   44.6250 O   0  5  0  0  0  0
   30.0670   73.1650   44.7420 O   0  0  0  0  0  0
   32.0270   72.9320   46.1970 O   0  5  0  0  0  0
   33.6690   71.9200   43.4350 P   0  0  1  0  0  0
   33.8930   71.5410   41.9960 O   0  5  0  0  0  0
   34.7350   72.8770   43.8550 O   0  0  0  0  0  0
   32.1730   72.5870   43.5970 O   0  0  0  0  0  0
   34.1390   68.7660   43.9930 P   0  0  1  0  0  0
   35.3200   68.2770   44.7710 O   0  0  0  0  0  0
   32.9750   67.8810   44.3660 O   0  5  0  0  0  0
   33.7310   70.4530   44.5210 C   0  0  0  0  0  0
   34.4510   68.6550   42.4240 O   0  0  0  0  0  0
   34.1040   67.4000   41.7830 C   0  0  0  0  0  0
   35.1520   66.3290   42.0540 C   0  0  1  0  0  0
   34.6570   65.5760   43.2000 O   0  0  0  0  0  0
   35.3920   65.3130   40.9150 C   0  0  1  0  0  0
   36.7730   65.3250   40.4120 O   0  0  0  0  0  0
   34.9270   63.9630   41.5070 C   0  0  1  0  0  0
   35.9720   62.9730   41.4960 O   0  0  0  0  0  0
   34.5330   64.2210   42.9440 C   0  0  2  0  0  0
   33.1590   63.8220   43.3700 N   0  0  0  0  0  0
   32.0120   64.6090   43.3910 C   0  0  0  0  0  0
   30.9310   63.9890   43.8410 N   0  0  0  0  0  0
   31.3730   62.6840   44.1450 C   0  0  0  0  0  0
   30.6830   61.5310   44.6850 C   0  0  0  0  0  0
   29.5030   61.4700   44.9850 N   0  0  0  0  0  0
   31.5350   60.4620   44.8180 N   0  0  0  0  0  0
   32.8870   60.4120   44.5120 C   0  0  0  0  0  0
   33.5240   61.4370   44.0320 N   0  0  0  0  0  0
   32.7410   62.5660   43.8650 C   0  0  0  0  0  0
   34.4813   70.6120   45.3095 H   0  0  0  0  0  0
   32.7441   70.2949   44.9804 H   0  0  0  0  0  0
   33.1362   67.0467   42.1685 H   0  0  0  0  0  0
   34.0325   67.5510   40.6958 H   0  0  0  0  0  0
   36.1065   66.8403   42.2474 H   0  0  0  0  0  0
   34.8750   65.5593   39.9758 H   0  0  0  0  0  0
   37.1904   66.2431   39.9728 H   0  0  0  0  0  0
   34.1216   63.5170   40.9051 H   0  0  0  0  0  0
   36.4042   62.6401   40.5408 H   0  0  0  0  0  0
   35.2368   63.6471   43.5648 H   0  0  0  0  0  0
   32.0034   65.6489   43.0645 H   0  0  0  0  0  0
   28.8578   62.3523   44.8614 H   0  0  0  0  0  0
   29.0835   60.5327   45.3793 H   0  0  0  0  0  0
   33.4321   59.4831   44.6797 H   0  0  0  0  0  0
  1  2  1  0  0  0
  1  3  2  0  0  0
  1  4  1  0  0  0
  1  8  1  0  0  0
  5  6  1  0  0  0
  5  7  2  0  0  0
  5  8  1  0  0  0
  5 12  1  0  0  0
  9 10  2  0  0  0
  9 11  1  0  0  0
  9 12  1  0  0  0
  9 13  1  0  0  0
 12 32  1  0  0  0
 12 33  1  0  0  0
 13 14  1  0  0  0
 14 15  1  0  0  0
 14 34  1  0  0  0
 14 35  1  0  0  0
 15 16  1  0  0  0
 15 17  1  0  0  0
 15 36  1  0  0  0
 16 21  1  0  0  0
 17 18  1  0  0  0
 17 19  1  0  0  0
 17 37  1  0  0  0
 18 38  1  0  0  0
 19 20  1  0  0  0
 19 21  1  0  0  0
 19 39  1  0  0  0
 20 40  1  0  0  0
 21 22  1  0  0  0
 21 41  1  0  0  0
 22 23  1  0  0  0
 22 31  1  0  0  0
 23 24  2  0  0  0
 23 42  1  0  0  0
 24 25  1  0  0  0
 25 26  2  0  0  0
 25 31  1  0  0  0
 26 27  1  0  0  0
 26 28  1  0  0  0
 27 43  1  0  0  0
 27 44  1  0  0  0
 28 29  2  0  0  0
 29 30  1  0  0  0
 29 45  1  0  0  0
 30 31  2  0  0  0
M  CHG  4   2  -1   4  -1   6  -1  11  -1
M  END
> <s_m_source_file>
../1s26_ligand.sdf

> <i_m_source_file_index>
1

> <s_epik_input>
W09IXVAoPU8pKFtPSF0pT1tQQF0oPU8pKFtPSF0pW0NIMl1bUEBAXSg9TykoW09IXSlPW0NIMl1bQ0BIXTFPW0NASF0oW0NASF0oW09IXSlbQ0BASF0xW09IXSluKFtjSF1uMiljKGMyMyluW2NIXW5jM1tOSDJd

> <s_epik_cmdline>
J2VwaWtfYXBwJywgJy1pbWFlJywgJ2xpZ2FuZF9wcm8ubWFlJywgJy1vbWFlJywgJ2xpZ2FuZF9wcmVwLm1hZScsICctbXMnLCAnMScsICctcGgnLCAnNycsICctcGh0JywgJzAuNScsICctbnQn

> <r_lp_tautomer_probability>
0.999997216410988

> <r_epik_Ionization_Penalty>
  0.1361

> <r_epik_Ionization_Penalty_Charging>
  0.1357

> <r_epik_Ionization_Penalty_Neutral>
  0.0004

> <r_epik_State_Penalty>
  0.1250

> <r_epik_Charging_Adjusted_Penalty>
0.260643809970156

> <i_epik_Tot_Q>
-4

> <i_epik_Tot_abs_Q>
4

> <s_epik_Chemistry_Notes>
This compound contains an acetal/aminal-like group ( X-CH(R)-Y where X, Y are N, S, or O) that may be acid/base labile, releasing an aldehyde.

$$$$
