1s3k_ligand
                    3D
 Schrodinger Suite 2020-3.
 91 94  0  0  1  0            999 V2000
  -36.5030   46.2510   15.6590 C   0  0  1  0  0  0
  -37.5680   47.2350   16.1480 C   0  0  2  0  0  0
  -38.6740   46.4810   16.8880 C   0  0  1  0  0  0
  -38.0680   45.6660   18.0300 C   0  0  1  0  0  0
  -37.0060   44.7220   17.4690 C   0  0  2  0  0  0
  -36.2940   43.9450   18.5580 C   0  0  0  0  0  0
  -38.1210   47.9380   15.0460 O   0  0  0  0  0  0
  -39.6240   47.4030   17.4030 O   0  0  0  0  0  0
  -37.4680   46.5450   18.9770 O   0  0  0  0  0  0
  -36.0010   45.4840   16.7550 O   0  0  0  0  0  0
  -36.4530   43.3880   13.4410 C   0  0  1  0  0  0
  -36.0460   44.8300   13.7850 C   0  0  1  0  0  0
  -35.9170   45.6280   12.4880 C   0  0  2  0  0  0
  -34.8730   44.9570   11.5950 C   0  0  2  0  0  0
  -35.3180   43.5150   11.3250 C   0  0  1  0  0  0
  -34.3480   42.7310   10.4540 C   0  0  0  0  0  0
  -37.0280   45.4430   14.6390 O   0  0  0  0  0  0
  -35.5420   46.9710   12.7630 O   0  0  0  0  0  0
  -33.6170   44.9550   12.2620 O   0  0  0  0  0  0
  -35.4620   42.7980   12.5720 O   0  0  0  0  0  0
  -33.0300   42.7620   10.9820 O   0  0  0  0  0  0
  -38.8550   39.2100   15.5750 C   0  0  2  0  0  0
  -37.4000   38.9760   15.1180 C   0  0  1  0  0  0
  -36.5700   40.2590   15.2520 C   0  0  2  0  0  0
  -37.2740   41.3850   14.4910 C   0  0  1  0  0  0
  -38.6940   41.5550   15.0590 C   0  0  1  0  0  0
  -39.4790   42.6460   14.3660 C   0  0  0  0  0  0
  -36.2470   36.8650   15.2440 C   0  0  0  0  0  0
  -35.6940   35.7290   16.0890 C   0  0  0  0  0  0
  -39.4370   40.3300   14.8890 O   0  0  0  0  0  0
  -35.2670   40.0340   14.6830 O   0  0  0  0  0  0
  -36.5340   42.6230   14.6000 O   0  0  0  0  0  0
  -40.7200   42.8820   15.0230 O   0  0  0  0  0  0
  -36.1800   36.7970   14.0160 O   0  0  0  0  0  0
  -36.7930   37.9000   15.8790 N   0  0  0  0  0  0
  -38.9070   39.4530   16.9360 O   0  0  0  0  0  0
  -34.2280   39.8330   15.6010 C   0  0  1  0  0  0
  -33.0510   39.1570   14.8860 C   0  0  2  0  0  0
  -32.5180   40.1010   13.8000 C   0  0  1  0  0  0
  -32.1290   41.4440   14.4270 C   0  0  1  0  0  0
  -33.3130   42.0310   15.2130 C   0  0  2  0  0  0
  -32.9430   43.2870   15.9840 C   0  0  0  0  0  0
  -33.4780   37.9300   14.3050 O   0  0  0  0  0  0
  -31.3810   39.5200   13.1710 O   0  0  0  0  0  0
  -31.0280   41.2440   15.3010 O   0  0  0  0  0  0
  -33.7920   41.0620   16.1750 O   0  0  0  0  0  0
  -35.6236   46.7287   15.2023 H   0  0  0  0  0  0
  -37.1222   48.0118   16.7867 H   0  0  0  0  0  0
  -39.2439   45.8370   16.2021 H   0  0  0  0  0  0
  -38.8425   45.1159   18.5845 H   0  0  0  0  0  0
  -37.4953   44.0280   16.7698 H   0  0  0  0  0  0
  -37.0271   43.3517   19.1242 H   0  0  0  0  0  0
  -35.7869   44.6463   19.2370 H   0  0  0  0  0  0
  -35.5513   43.2731   18.1032 H   0  0  0  0  0  0
  -37.4700   48.5399   14.3949 H   0  0  0  0  0  0
  -40.1629   48.0764   16.7203 H   0  0  0  0  0  0
  -38.0801   47.3013   19.4902 H   0  0  0  0  0  0
  -37.4424   43.3226   12.9647 H   0  0  0  0  0  0
  -35.1132   44.8529   14.3676 H   0  0  0  0  0  0
  -36.8868   45.7227   11.9776 H   0  0  0  0  0  0
  -34.7046   45.5157   10.6626 H   0  0  0  0  0  0
  -36.2978   43.5605   10.8270 H   0  0  0  0  0  0
  -34.6740   41.6821   10.3948 H   0  0  0  0  0  0
  -34.3280   43.1663    9.4440 H   0  0  0  0  0  0
  -36.1838   47.6029   13.3945 H   0  0  0  0  0  0
  -33.1393   45.9067   12.5379 H   0  0  0  0  0  0
  -32.2159   42.2379   10.4600 H   0  0  0  0  0  0
  -39.4942   38.3310   15.4053 H   0  0  0  0  0  0
  -37.3861   38.6349   14.0723 H   0  0  0  0  0  0
  -36.4040   40.5335   16.3042 H   0  0  0  0  0  0
  -37.2920   41.1733   13.4117 H   0  0  0  0  0  0
  -38.6130   41.7830   16.1321 H   0  0  0  0  0  0
  -38.8952   43.5782   14.3722 H   0  0  0  0  0  0
  -39.6825   42.3478   13.3269 H   0  0  0  0  0  0
  -35.2784   34.9515   15.4312 H   0  0  0  0  0  0
  -36.5018   35.2994   16.6996 H   0  0  0  0  0  0
  -34.9016   36.1141   16.7477 H   0  0  0  0  0  0
  -41.4086   43.6490   14.6388 H   0  0  0  0  0  0
  -36.7846   37.9405   16.9782 H   0  0  0  0  0  0
  -38.5087   38.7103   17.6429 H   0  0  0  0  0  0
  -34.6723   39.2494   16.4207 H   0  0  0  0  0  0
  -32.2581   38.8661   15.5908 H   0  0  0  0  0  0
  -33.2554   40.2362   12.9950 H   0  0  0  0  0  0
  -31.7793   42.1524   13.6616 H   0  0  0  0  0  0
  -34.1209   42.2565   14.5013 H   0  0  0  0  0  0
  -32.5727   44.0509   15.2845 H   0  0  0  0  0  0
  -32.1578   43.0494   16.7168 H   0  0  0  0  0  0
  -33.8307   43.6699   16.5088 H   0  0  0  0  0  0
  -33.8904   37.1338   14.9422 H   0  0  0  0  0  0
  -31.4697   38.5477   12.6642 H   0  0  0  0  0  0
  -30.0863   40.8283   14.9131 H   0  0  0  0  0  0
  1  2  1  0  0  0
  1 10  1  0  0  0
  1 17  1  0  0  0
  1 47  1  0  0  0
  2  3  1  0  0  0
  2  7  1  0  0  0
  2 48  1  0  0  0
  3  4  1  0  0  0
  3  8  1  0  0  0
  3 49  1  0  0  0
  4  5  1  0  0  0
  4  9  1  0  0  0
  4 50  1  0  0  0
  5  6  1  0  0  0
  5 10  1  0  0  0
  5 51  1  0  0  0
  6 52  1  0  0  0
  6 53  1  0  0  0
  6 54  1  0  0  0
  7 55  1  0  0  0
  8 56  1  0  0  0
  9 57  1  0  0  0
 11 12  1  0  0  0
 11 20  1  0  0  0
 11 32  1  0  0  0
 11 58  1  0  0  0
 12 13  1  0  0  0
 12 17  1  0  0  0
 12 59  1  0  0  0
 13 14  1  0  0  0
 13 18  1  0  0  0
 13 60  1  0  0  0
 14 15  1  0  0  0
 14 19  1  0  0  0
 14 61  1  0  0  0
 15 16  1  0  0  0
 15 20  1  0  0  0
 15 62  1  0  0  0
 16 21  1  0  0  0
 16 63  1  0  0  0
 16 64  1  0  0  0
 18 65  1  0  0  0
 19 66  1  0  0  0
 21 67  1  0  0  0
 22 23  1  0  0  0
 22 30  1  0  0  0
 22 36  1  0  0  0
 22 68  1  0  0  0
 23 24  1  0  0  0
 23 35  1  0  0  0
 23 69  1  0  0  0
 24 25  1  0  0  0
 24 31  1  0  0  0
 24 70  1  0  0  0
 25 26  1  0  0  0
 25 32  1  0  0  0
 25 71  1  0  0  0
 26 27  1  0  0  0
 26 30  1  0  0  0
 26 72  1  0  0  0
 27 33  1  0  0  0
 27 73  1  0  0  0
 27 74  1  0  0  0
 28 29  1  0  0  0
 28 34  2  0  0  0
 28 35  1  0  0  0
 29 75  1  0  0  0
 29 76  1  0  0  0
 29 77  1  0  0  0
 31 37  1  0  0  0
 33 78  1  0  0  0
 35 79  1  0  0  0
 36 80  1  0  0  0
 37 38  1  0  0  0
 37 46  1  0  0  0
 37 81  1  0  0  0
 38 39  1  0  0  0
 38 43  1  0  0  0
 38 82  1  0  0  0
 39 40  1  0  0  0
 39 44  1  0  0  0
 39 83  1  0  0  0
 40 41  1  0  0  0
 40 45  1  0  0  0
 40 84  1  0  0  0
 41 42  1  0  0  0
 41 46  1  0  0  0
 41 85  1  0  0  0
 42 86  1  0  0  0
 42 87  1  0  0  0
 42 88  1  0  0  0
 43 89  1  0  0  0
 44 90  1  0  0  0
 45 91  1  0  0  0
M  END
> <s_m_source_file>
../1s3k_ligand.sdf

> <i_m_source_file_index>
1

> <s_epik_input>
W0NIM11bQ0BIXShPMSlbQ0BASF0oW09IXSlbQ0BASF0oW09IXSlbQ0BIXShbT0hdKVtDQEBIXTFPW0NASF0oW0NAQEhdKFtPSF0pW0NAQEhdKFtPSF0pW0NASF0oTzIpW0NIMl1bT0hdKVtDQEBIXTJPW0NASF0oW0NASF0oTzMpW0NIMl1bT0hdKVtDQEBIXShbQ0BIXShbQ0BIXTNbT0hdKVtOSF1DKD1PKVtDSDNdKU9bQ0BIXTRbQ0BASF0oW09IXSlbQ0BIXShbT0hdKVtDQEhdKFtPSF0pW0NAQEhdKE80KVtDSDNd

> <s_epik_cmdline>
J2VwaWtfYXBwJywgJy1pbWFlJywgJ2xpZ2FuZF9wcm8ubWFlJywgJy1vbWFlJywgJ2xpZ2FuZF9wcmVwLm1hZScsICctbXMnLCAnMScsICctcGgnLCAnNycsICctcGh0JywgJzAuNScsICctbnQn

> <r_lp_tautomer_probability>
1

> <r_epik_Ionization_Penalty>
  0.0000

> <r_epik_Ionization_Penalty_Charging>
  0.0000

> <r_epik_Ionization_Penalty_Neutral>
  0.0000

> <r_epik_State_Penalty>
 -0.0000

> <r_epik_Charging_Adjusted_Penalty>
0

> <i_epik_Tot_Q>
0

> <i_epik_Tot_abs_Q>
0

> <s_epik_Chemistry_Notes>
This compound contains an acetal/aminal-like group ( X-CH(R)-Y where X, Y are N, S, or O) that may be acid/base labile, releasing an aldehyde.

$$$$
