1s4d_ligand
                    3D
 Schrodinger Suite 2020-3.
 46 48  0  0  1  0            999 V2000
   81.6350   90.0850    9.8730 N   0  3  0  0  0  0
   82.2770   91.3110    9.4220 C   0  0  1  0  0  0
   83.7900   91.2960    9.6630 C   0  0  0  0  0  0
   84.2470   91.4610   11.1180 C   0  0  0  0  0  0
   86.0440   91.5690   11.3810 S   0  0  0  0  0  0
   81.9460   91.5410    7.9550 C   0  0  0  0  0  0
   81.4580   90.6390    7.2710 O   0  5  0  0  0  0
   82.1400   92.6350    7.4300 O   0  0  0  0  0  0
   86.0730   93.3900   11.3730 C   0  0  0  0  0  0
   86.8000   93.9460   10.1500 C   0  0  1  0  0  0
   85.8770   94.0850    9.0920 O   0  0  0  0  0  0
   87.4220   95.3240   10.2980 C   0  0  1  0  0  0
   88.7430   95.3200   10.7710 O   0  0  0  0  0  0
   87.3690   95.8810    8.8950 C   0  0  1  0  0  0
   88.4520   95.4500    8.1080 O   0  0  0  0  0  0
   86.1270   95.2390    8.3310 C   0  0  2  0  0  0
   84.9670   96.1560    8.3730 N   0  0  0  0  0  0
   83.8230   96.0020    9.0910 C   0  0  0  0  0  0
   83.0230   97.0430    8.8460 N   0  0  0  0  0  0
   83.6210   97.8630    7.9700 C   0  0  0  0  0  0
   83.2430   99.0680    7.3770 C   0  0  0  0  0  0
   82.0750   99.6380    7.6210 N   0  0  0  0  0  0
   84.1190   99.6820    6.5170 N   0  0  0  0  0  0
   85.3390   99.1140    6.2230 C   0  0  0  0  0  0
   85.7140   97.9320    6.8070 N   0  0  0  0  0  0
   84.8610   97.3190    7.6680 C   0  0  0  0  0  0
   81.8723   89.9156   10.9337 H   0  0  0  0  0  0
   82.0020   89.2376    9.2753 H   0  0  0  0  0  0
   80.5455   90.1753    9.7509 H   0  0  0  0  0  0
   81.8477   92.1148   10.0381 H   0  0  0  0  0  0
   84.2061   90.3366    9.3218 H   0  0  0  0  0  0
   84.2587   92.1188    9.1032 H   0  0  0  0  0  0
   83.8211   92.3862   11.5334 H   0  0  0  0  0  0
   83.9025   90.6005   11.7104 H   0  0  0  0  0  0
   85.0419   93.7731   11.3629 H   0  0  0  0  0  0
   86.5900   93.7525   12.2738 H   0  0  0  0  0  0
   87.5844   93.2127    9.9112 H   0  0  0  0  0  0
   86.9493   95.9277   11.0868 H   0  0  0  0  0  0
   88.9644   94.9448   11.7811 H   0  0  0  0  0  0
   87.4403   96.9781    8.8600 H   0  0  0  0  0  0
   89.4707   95.7959    8.3375 H   0  0  0  0  0  0
   86.2557   94.9287    7.2836 H   0  0  0  0  0  0
   83.5965   95.1683    9.7556 H   0  0  0  0  0  0
   81.3619   99.1587    8.3078 H   0  0  0  0  0  0
   81.8166  100.5915    7.1372 H   0  0  0  0  0  0
   86.0109   99.6079    5.5211 H   0  0  0  0  0  0
  1  2  1  0  0  0
  1 27  1  0  0  0
  1 28  1  0  0  0
  1 29  1  0  0  0
  2  3  1  0  0  0
  2  6  1  0  0  0
  2 30  1  0  0  0
  3  4  1  0  0  0
  3 31  1  0  0  0
  3 32  1  0  0  0
  4  5  1  0  0  0
  4 33  1  0  0  0
  4 34  1  0  0  0
  5  9  1  0  0  0
  6  7  1  0  0  0
  6  8  2  0  0  0
  9 10  1  0  0  0
  9 35  1  0  0  0
  9 36  1  0  0  0
 10 11  1  0  0  0
 10 12  1  0  0  0
 10 37  1  0  0  0
 11 16  1  0  0  0
 12 13  1  0  0  0
 12 14  1  0  0  0
 12 38  1  0  0  0
 13 39  1  0  0  0
 14 15  1  0  0  0
 14 16  1  0  0  0
 14 40  1  0  0  0
 15 41  1  0  0  0
 16 17  1  0  0  0
 16 42  1  0  0  0
 17 18  1  0  0  0
 17 26  1  0  0  0
 18 19  2  0  0  0
 18 43  1  0  0  0
 19 20  1  0  0  0
 20 21  2  0  0  0
 20 26  1  0  0  0
 21 22  1  0  0  0
 21 23  1  0  0  0
 22 44  1  0  0  0
 22 45  1  0  0  0
 23 24  2  0  0  0
 24 25  1  0  0  0
 24 46  1  0  0  0
 25 26  2  0  0  0
M  CHG  2   1   1   7  -1
M  END
> <s_m_source_file>
../1s4d_ligand.sdf

> <i_m_source_file_index>
1

> <s_epik_input>
W09IXUMoPU8pW0NAQEhdKFtOSDMrXSlbQ0gyXVtDSDJdU1tDSDJdW0NASF0xT1tDQEhdKFtDQEhdKFtPSF0pW0NAQEhdMVtPSF0pbihbY0hdbjIpYyhjMjMpbltjSF1uYzNbTkgyXQ==

> <s_epik_cmdline>
J2VwaWtfYXBwJywgJy1pbWFlJywgJ2xpZ2FuZF9wcm8ubWFlJywgJy1vbWFlJywgJ2xpZ2FuZF9wcmVwLm1hZScsICctbXMnLCAnMScsICctcGgnLCAnNycsICctcGh0JywgJzAuNScsICctbnQn

> <r_lp_tautomer_probability>
1

> <r_epik_Ionization_Penalty>
  0.0026

> <r_epik_Ionization_Penalty_Charging>
  0.0022

> <r_epik_Ionization_Penalty_Neutral>
  0.0004

> <r_epik_State_Penalty>
 -0.0000

> <r_epik_Charging_Adjusted_Penalty>
0.00216156469931729

> <i_epik_Tot_Q>
0

> <i_epik_Tot_abs_Q>
2

> <s_epik_Chemistry_Notes>
This compound contains an acetal/aminal-like group ( X-CH(R)-Y where X, Y are N, S, or O) that may be acid/base labile, releasing an aldehyde.

$$$$
