1s50_ligand
                    3D
 Schrodinger Suite 2020-3.
 18 17  0  0  1  0            999 V2000
   11.2350    2.0370   -1.4510 N   0  3  0  0  0  0
   11.2960    3.4810   -1.8360 C   0  0  2  0  0  0
   12.6620    3.8100   -2.4330 C   0  0  0  0  0  0
   13.3860    2.8550   -2.8120 O   0  5  0  0  0  0
   11.0320    4.3670   -0.6100 C   0  0  0  0  0  0
    9.5570    4.5100   -0.2210 C   0  0  0  0  0  0
    8.7420    5.2660   -1.2640 C   0  0  0  0  0  0
    9.3340    6.0960   -1.9860 O   0  0  0  0  0  0
    7.5140    5.0450   -1.3470 O   0  5  0  0  0  0
   12.9950    5.0120   -2.5170 O   0  0  0  0  0  0
   11.4255    1.4130   -2.3367 H   0  0  0  0  0  0
   10.2377    1.8068   -1.0479 H   0  0  0  0  0  0
   11.9969    1.8292   -0.6853 H   0  0  0  0  0  0
   10.5176    3.6522   -2.5942 H   0  0  0  0  0  0
   11.5494    3.9462    0.2647 H   0  0  0  0  0  0
   11.4068    5.3828   -0.8041 H   0  0  0  0  0  0
    9.1101    3.5117   -0.1043 H   0  0  0  0  0  0
    9.4799    5.0595    0.7288 H   0  0  0  0  0  0
  1  2  1  0  0  0
  1 11  1  0  0  0
  1 12  1  0  0  0
  1 13  1  0  0  0
  2  3  1  0  0  0
  2  5  1  0  0  0
  2 14  1  0  0  0
  3  4  1  0  0  0
  3 10  2  0  0  0
  5  6  1  0  0  0
  5 15  1  0  0  0
  5 16  1  0  0  0
  6  7  1  0  0  0
  6 17  1  0  0  0
  6 18  1  0  0  0
  7  8  2  0  0  0
  7  9  1  0  0  0
M  CHG  3   1   1   4  -1   9  -1
M  END
> <s_m_source_file>
../1s50_ligand.sdf

> <i_m_source_file_index>
1

> <s_epik_input>
W09IXUMoPU8pW0NAQEhdKFtOSDMrXSlbQ0gyXVtDSDJdQyg9TylbT0hd

> <s_epik_cmdline>
J2VwaWtfYXBwJywgJy1pbWFlJywgJ2xpZ2FuZF9wcm8ubWFlJywgJy1vbWFlJywgJ2xpZ2FuZF9wcmVwLm1hZScsICctbXMnLCAnMScsICctcGgnLCAnNycsICctcGh0JywgJzAuNScsICctbnQn

> <r_lp_tautomer_probability>
1

> <r_epik_Ionization_Penalty>
  0.0027

> <r_epik_Ionization_Penalty_Charging>
  0.0027

> <r_epik_Ionization_Penalty_Neutral>
  0.0000

> <r_epik_State_Penalty>
 -0.0000

> <r_epik_Charging_Adjusted_Penalty>
0.00270099915882496

> <i_epik_Tot_Q>
-1

> <i_epik_Tot_abs_Q>
3

$$$$
