1s5q_ligand
                    3D
 Schrodinger Suite 2020-3.
277277  0  0  1  0            999 V2000
   -9.5950    8.9760    3.6870 N   0  3  0  0  0  0
   -9.0250    7.6080    3.5660 C   0  0  2  0  0  0
   -7.5000    7.6530    3.5390 C   0  0  0  0  0  0
   -6.9010    8.1900    2.6070 O   0  0  0  0  0  0
   -9.5470    6.9290    2.2970 C   0  0  0  0  0  0
   -9.0290    5.5140    2.1070 C   0  0  0  0  0  0
   -9.6410    4.8580    0.8820 C   0  0  0  0  0  0
  -11.0910    4.7310    1.0000 N   0  0  0  0  0  0
  -11.8580    4.1500    0.0820 C   0  0  0  0  0  0
  -11.3160    3.6400   -1.0150 N   0  0  0  0  0  0
  -13.1700    4.0780    0.2630 N   0  0  0  0  0  0
   -6.8800    7.0820    4.5670 N   0  0  0  0  0  0
   -5.4240    7.0530    4.6670 C   0  0  2  0  0  0
   -4.9350    5.6790    5.1180 C   0  0  0  0  0  0
   -4.9480    5.3640    6.3070 O   0  0  0  0  0  0
   -4.9340    8.1340    5.6360 C   0  0  0  0  0  0
   -5.9970    8.6170    6.6130 C   0  0  0  0  0  0
   -6.4890    7.3480    7.7970 S   0  0  0  0  0  0
   -4.9910    7.1850    8.7670 C   0  0  0  0  0  0
   -4.5040    4.8620    4.1590 N   0  0  0  0  0  0
   -4.0180    3.5200    4.4630 C   0  0  2  0  0  0
   -3.3570    2.8790    3.2440 C   0  0  0  0  0  0
   -2.2530    2.3420    3.3370 O   0  0  0  0  0  0
   -5.1730    2.6470    4.9530 C   0  0  0  0  0  0
   -6.3130    2.5910    3.9560 C   0  0  0  0  0  0
   -6.4760    1.6070    3.2340 O   0  0  0  0  0  0
   -7.0990    3.6590    3.8980 N   0  0  0  0  0  0
   -4.0400    2.9390    2.1050 N   0  0  0  0  0  0
   -3.5200    2.3610    0.8700 C   0  0  2  0  0  0
   -3.5160    3.3870   -0.2600 C   0  0  0  0  0  0
   -2.5340    3.5130   -0.9910 O   0  0  0  0  0  0
   -4.3450    1.1300    0.4360 C   0  0  2  0  0  0
   -4.3310    0.0580    1.5320 C   0  0  0  0  0  0
   -3.8140    0.5640   -0.8740 C   0  0  0  0  0  0
   -2.9490   -0.4730    1.8540 C   0  0  0  0  0  0
   -4.6200    4.1180   -0.3960 N   0  0  0  0  0  0
   -4.7410    5.1330   -1.4380 C   0  0  2  0  0  0
   -3.6060    6.1490   -1.3420 C   0  0  0  0  0  0
   -3.1320    6.6670   -2.3560 O   0  0  0  0  0  0
   -6.0920    5.8450   -1.3320 C   0  0  0  0  0  0
   -6.3390    6.8550   -2.4420 C   0  0  0  0  0  0
   -7.7060    7.5050   -2.3490 C   0  0  0  0  0  0
   -8.2590    7.6620   -1.2610 O   0  0  0  0  0  0
   -8.2580    7.8870   -3.4950 N   0  0  0  0  0  0
   -3.1720    6.4250   -0.1160 N   0  0  0  0  0  0
   -2.0930    7.3760    0.1190 C   0  0  2  0  0  0
   -0.7970    6.8960   -0.5270 C   0  0  0  0  0  0
   -0.1820    7.6120   -1.3200 O   0  0  0  0  0  0
   -1.8880    7.5800    1.6220 C   0  0  0  0  0  0
   -0.7380    8.5180    1.9580 C   0  0  0  0  0  0
   -0.5350    8.7600    3.7330 S   0  0  0  0  0  0
   -2.0900    9.5440    4.1450 C   0  0  0  0  0  0
   -0.3890    5.6770   -0.1850 N   0  0  0  0  0  0
    0.8340    5.1020   -0.7290 C   0  0  2  0  0  0
    0.7360    4.9560   -2.2440 C   0  0  0  0  0  0
    1.7450    5.0070   -2.9480 O   0  0  0  0  0  0
    1.1150    3.7400   -0.0880 C   0  0  0  0  0  0
    1.1060    3.7230    1.4430 C   0  0  0  0  0  0
    1.2680    2.3030    1.9620 C   0  0  0  0  0  0
    2.2040    4.6210    1.9940 C   0  0  0  0  0  0
   -0.4840    4.7740   -2.7410 N   0  0  0  0  0  0
   -0.7110    4.6250   -4.1740 C   0  0  2  0  0  0
   -0.3380    5.9030   -4.9190 C   0  0  0  0  0  0
    0.4380    5.8700   -5.8750 O   0  0  0  0  0  0
   -2.1720    4.2660   -4.4540 C   0  0  0  0  0  0
   -2.5720    2.8320   -4.0970 C   0  0  0  0  0  0
   -4.0690    2.6370   -4.2760 C   0  0  0  0  0  0
   -1.8010    1.8310   -4.9480 C   0  0  0  0  0  0
   -0.8950    7.0260   -4.4760 N   0  0  0  0  0  0
   -0.6150    8.3150   -5.1010 C   0  0  2  0  0  0
    0.8620    8.6710   -4.9730 C   0  0  0  0  0  0
    1.4570    9.2340   -5.8930 O   0  0  0  0  0  0
   -1.4710    9.4130   -4.4680 C   0  0  0  0  0  0
   -2.9650    9.1920   -4.6330 C   0  0  0  0  0  0
   -3.3800    9.0830   -6.0870 C   0  0  0  0  0  0
   -3.5950   10.1360   -6.7240 O   0  0  0  0  0  0
   -3.4890    7.9450   -6.5900 O   0  0  0  0  0  0
    1.4480    8.3400   -3.8260 N   0  0  0  0  0  0
    2.8570    8.6220   -3.5760 C   0  0  2  0  0  0
    3.7450    7.9370   -4.6100 C   0  0  0  0  0  0
    4.6170    8.5670   -5.2110 O   0  0  0  0  0  0
    3.2420    8.1810   -2.1720 C   0  0  0  0  0  0
    3.5160    6.6420   -4.8120 N   0  0  0  0  0  0
    4.2940    5.8670   -5.7720 C   0  0  2  0  0  0
    4.0770    6.3730   -7.1940 C   0  0  0  0  0  0
    5.0210    6.4720   -7.9770 O   0  0  0  0  0  0
    3.9360    4.3920   -5.6750 C   0  0  0  0  0  0
    2.8280    6.6920   -7.5220 N   0  0  0  0  0  0
    2.4900    7.1870   -8.8520 C   0  0  2  0  0  0
    3.1150    8.5560   -9.0910 C   0  0  0  0  0  0
    3.3600    8.9500  -10.2310 O   0  0  0  0  0  0
    0.9720    7.2700   -9.0220 C   0  0  0  0  0  0
    0.5710    7.7110  -10.4160 C   0  0  0  0  0  0
    0.4450    8.9340  -10.6390 O   0  0  0  0  0  0
    0.3800    6.8340  -11.2840 O   0  0  0  0  0  0
    3.3690    9.2750   -8.0030 N   0  0  0  0  0  0
    3.9700   10.6010   -8.0800 C   0  0  2  0  0  0
    5.4560   10.5040   -8.4170 C   0  0  0  0  0  0
    5.9110   11.0490   -9.4230 O   0  0  0  0  0  0
    3.7750   11.3410   -6.7530 C   0  0  0  0  0  0
    4.5100   12.6610   -6.6700 C   0  0  0  0  0  0
    3.9250   13.8370   -7.1240 C   0  0  0  0  0  0
    5.7900   12.7300   -6.1340 C   0  0  0  0  0  0
    4.5960   15.0430   -7.0460 C   0  0  0  0  0  0
    6.4660   13.9320   -6.0530 C   0  0  0  0  0  0
    5.8650   15.0850   -6.5100 C   0  0  0  0  0  0
    6.5360   16.2830   -6.4300 O   0  0  0  0  0  0
    6.2050    9.8090   -7.5660 N   0  0  0  0  0  0
    7.6410    9.6400   -7.7670 C   0  0  2  0  0  0
    7.9280    8.9670   -9.1040 C   0  0  0  0  0  0
    8.8760    9.3280   -9.8030 O   0  0  0  0  0  0
    8.2360    8.8060   -6.6310 C   0  0  0  0  0  0
    7.8670    9.2740   -5.2250 C   0  0  0  0  0  0
    8.3010    8.2490   -4.1890 C   0  0  0  0  0  0
    8.4950   10.6290   -4.9300 C   0  0  0  0  0  0
    7.1030    7.9860   -9.4500 N   0  0  0  0  0  0
    7.2630    7.2550  -10.7030 C   0  0  2  0  0  0
    7.0860    8.1810  -11.9040 C   0  0  0  0  0  0
    7.9930    8.3300  -12.7230 O   0  0  0  0  0  0
    6.2590    6.1020  -10.7760 C   0  0  0  0  0  0
    6.3970    5.2510  -12.0280 C   0  0  0  0  0  0
    5.4570    4.0610  -12.0310 C   0  0  0  0  0  0
    4.2800    4.2360  -12.4100 O   0  0  0  0  0  0
    5.8980    2.9560  -11.6520 O   0  0  0  0  0  0
    5.9130    8.7990  -12.0020 N   0  0  0  0  0  0
    5.6170    9.7110  -13.1020 C   0  0  2  0  0  0
    4.5460   10.7190  -12.6960 C   0  0  0  0  0  0
    3.3480   10.4070  -12.8590 O   0  0  0  0  0  0
    5.1590    8.9260  -14.3340 C   0  0  0  0  0  0
    4.9340    9.7930  -15.5630 C   0  0  0  0  0  0
    4.4770    8.9630  -16.7520 C   0  0  0  0  0  0
    5.4500    7.9320  -17.1050 N   0  0  0  0  0  0
    5.2740    7.0550  -18.0890 C   0  0  0  0  0  0
    4.1640    7.0800  -18.8180 N   0  0  0  0  0  0
    6.2070    6.1470  -18.3430 N   0  0  0  0  0  0
    4.9160   11.8130  -12.2200 O   0  0  0  0  0  0
   -9.2128    9.4529    4.6016 H   0  0  0  0  0  0
  -10.6920    8.9130    3.7373 H   0  0  0  0  0  0
   -9.3018    9.5741    2.8116 H   0  0  0  0  0  0
   -9.3531    7.0518    4.4565 H   0  0  0  0  0  0
  -10.6450    6.8742    2.3356 H   0  0  0  0  0  0
   -9.2398    7.5120    1.4163 H   0  0  0  0  0  0
   -7.9365    5.5374    1.9805 H   0  0  0  0  0  0
   -9.2830    4.9089    2.9898 H   0  0  0  0  0  0
   -9.4196    5.4651   -0.0082 H   0  0  0  0  0  0
   -9.2162    3.8514    0.7543 H   0  0  0  0  0  0
  -11.6076    5.1282    1.8862 H   0  0  0  0  0  0
  -10.2284    3.6976   -1.1690 H   0  0  0  0  0  0
  -13.6238    4.4999    1.1719 H   0  0  0  0  0  0
  -13.8043    3.5964   -0.4958 H   0  0  0  0  0  0
   -7.4947    6.6233    5.3555 H   0  0  0  0  0  0
   -5.0566    7.2563    3.6503 H   0  0  0  0  0  0
   -4.0989    7.7395    6.2335 H   0  0  0  0  0  0
   -4.5945    9.0112    5.0656 H   0  0  0  0  0  0
   -5.6092    9.4746    7.1823 H   0  0  0  0  0  0
   -6.8951    8.9225    6.0562 H   0  0  0  0  0  0
   -5.1416    6.4268    9.5496 H   0  0  0  0  0  0
   -4.7498    8.1512    9.2342 H   0  0  0  0  0  0
   -4.1622    6.8770    8.1126 H   0  0  0  0  0  0
   -4.5198    5.2187    3.1185 H   0  0  0  0  0  0
   -3.2664    3.6519    5.2553 H   0  0  0  0  0  0
   -4.8128    1.6207    5.1173 H   0  0  0  0  0  0
   -5.5650    3.0535    5.8970 H   0  0  0  0  0  0
   -6.9140    4.5149    4.5638 H   0  0  0  0  0  0
   -7.9354    3.6882    3.1842 H   0  0  0  0  0  0
   -5.0195    3.4395    2.1082 H   0  0  0  0  0  0
   -2.4887    2.0741    1.1230 H   0  0  0  0  0  0
   -5.3872    1.4396    0.2686 H   0  0  0  0  0  0
   -4.7428    0.4784    2.4613 H   0  0  0  0  0  0
   -4.9431   -0.7990    1.2145 H   0  0  0  0  0  0
   -3.8322    1.3474   -1.6460 H   0  0  0  0  0  0
   -4.4453   -0.2789   -1.1919 H   0  0  0  0  0  0
   -2.7809    0.2146   -0.7304 H   0  0  0  0  0  0
   -3.0236   -1.2336    2.6452 H   0  0  0  0  0  0
   -2.3099    0.3533    2.1987 H   0  0  0  0  0  0
   -2.5102   -0.9242    0.9518 H   0  0  0  0  0  0
   -5.4533    3.9425    0.3003 H   0  0  0  0  0  0
   -4.6683    4.5872   -2.3903 H   0  0  0  0  0  0
   -6.9023    5.1026   -1.3783 H   0  0  0  0  0  0
   -6.1464    6.3880   -0.3769 H   0  0  0  0  0  0
   -5.5828    7.6520   -2.3874 H   0  0  0  0  0  0
   -6.2713    6.3515   -3.4177 H   0  0  0  0  0  0
   -7.7245    7.7253   -4.4433 H   0  0  0  0  0  0
   -9.2487    8.3651   -3.4959 H   0  0  0  0  0  0
   -3.6497    5.9143    0.7331 H   0  0  0  0  0  0
   -2.4156    8.3140   -0.3565 H   0  0  0  0  0  0
   -2.8007    8.0086    2.0617 H   0  0  0  0  0  0
   -1.6718    6.6118    2.0973 H   0  0  0  0  0  0
    0.2013    8.1020    1.5647 H   0  0  0  0  0  0
   -0.9224    9.5021    1.5024 H   0  0  0  0  0  0
   -2.1176    9.7596    5.2233 H   0  0  0  0  0  0
   -2.9203    8.8712    3.8842 H   0  0  0  0  0  0
   -2.1880   10.4831    3.5807 H   0  0  0  0  0  0
   -0.9988    5.1005    0.5262 H   0  0  0  0  0  0
    1.6309    5.8169   -0.4761 H   0  0  0  0  0  0
    0.3517    3.0175   -0.4127 H   0  0  0  0  0  0
    2.1095    3.3869   -0.3982 H   0  0  0  0  0  0
    0.1376    4.1084    1.7948 H   0  0  0  0  0  0
    0.4666    1.6697    1.5536 H   0  0  0  0  0  0
    1.2098    2.3052    3.0605 H   0  0  0  0  0  0
    2.2448    1.9068    1.6474 H   0  0  0  0  0  0
    2.0704    5.6424    1.6082 H   0  0  0  0  0  0
    3.1851    4.2356    1.6795 H   0  0  0  0  0  0
    2.1502    4.6340    3.0926 H   0  0  0  0  0  0
   -1.3332    4.7370   -2.0428 H   0  0  0  0  0  0
   -0.0493    3.8042   -4.4876 H   0  0  0  0  0  0
   -2.8302    4.9282   -3.8724 H   0  0  0  0  0  0
   -2.3812    4.3911   -5.5266 H   0  0  0  0  0  0
   -2.3238    2.6508   -3.0408 H   0  0  0  0  0  0
   -4.6105    3.3664   -3.6557 H   0  0  0  0  0  0
   -4.3453    1.6176   -3.9687 H   0  0  0  0  0  0
   -4.3343    2.7859   -5.3331 H   0  0  0  0  0  0
   -0.7210    1.9852   -4.8073 H   0  0  0  0  0  0
   -2.0572    1.9767   -6.0078 H   0  0  0  0  0  0
   -2.0681    0.8083   -4.6434 H   0  0  0  0  0  0
   -1.5808    6.9682   -3.6179 H   0  0  0  0  0  0
   -0.8761    8.1887   -6.1621 H   0  0  0  0  0  0
   -1.2640    9.4629   -3.3888 H   0  0  0  0  0  0
   -1.2292   10.3802   -4.9328 H   0  0  0  0  0  0
   -3.2557    8.2592   -4.1276 H   0  0  0  0  0  0
   -3.5119   10.0361   -4.1877 H   0  0  0  0  0  0
   -3.8975   10.0877   -7.7805 H   0  0  0  0  0  0
    0.8418    7.8413   -3.0555 H   0  0  0  0  0  0
    2.9624    9.7130   -3.6690 H   0  0  0  0  0  0
    2.5933    8.6831   -1.4392 H   0  0  0  0  0  0
    4.2909    8.4496   -1.9780 H   0  0  0  0  0  0
    3.1202    7.0913   -2.0836 H   0  0  0  0  0  0
    2.7163    6.1571   -4.2329 H   0  0  0  0  0  0
    5.3460    6.0178   -5.4882 H   0  0  0  0  0  0
    4.0977    4.0425   -4.6446 H   0  0  0  0  0  0
    4.5718    3.8144   -6.3621 H   0  0  0  0  0  0
    2.8796    4.2524   -5.9481 H   0  0  0  0  0  0
    2.0411    6.5748   -6.7624 H   0  0  0  0  0  0
    2.9141    6.4557   -9.5558 H   0  0  0  0  0  0
    0.5277    6.2808   -8.8373 H   0  0  0  0  0  0
    0.5618    7.9959   -8.3045 H   0  0  0  0  0  0
    0.1550    9.2834  -11.6409 H   0  0  0  0  0  0
    3.1127    8.8433   -7.0243 H   0  0  0  0  0  0
    3.4439   11.1218   -8.8936 H   0  0  0  0  0  0
    2.7061   11.5551   -6.6063 H   0  0  0  0  0  0
    4.1402   10.7139   -5.9263 H   0  0  0  0  0  0
    2.9214   13.8079   -7.5482 H   0  0  0  0  0  0
    6.2688   11.8204   -5.7713 H   0  0  0  0  0  0
    4.1236   15.9567   -7.4068 H   0  0  0  0  0  0
    7.4698   13.9684   -5.6297 H   0  0  0  0  0  0
    6.0598   17.2055   -6.7937 H   0  0  0  0  0  0
    5.7148    9.3553   -6.6920 H   0  0  0  0  0  0
    8.0618   10.6563   -7.7670 H   0  0  0  0  0  0
    7.8879    7.7662   -6.7184 H   0  0  0  0  0  0
    9.3339    8.8316   -6.6935 H   0  0  0  0  0  0
    6.7736    9.3794   -5.1677 H   0  0  0  0  0  0
    7.8382    7.2777   -4.4180 H   0  0  0  0  0  0
    7.9826    8.5804   -3.1896 H   0  0  0  0  0  0
    9.3961    8.1475   -4.2101 H   0  0  0  0  0  0
    8.1703   11.3565   -5.6884 H   0  0  0  0  0  0
    9.5910   10.5383   -4.9544 H   0  0  0  0  0  0
    8.1775   10.9712   -3.9340 H   0  0  0  0  0  0
    6.2823    7.7289   -8.7642 H   0  0  0  0  0  0
    8.2926    6.8680  -10.6869 H   0  0  0  0  0  0
    6.4002    5.4375   -9.9108 H   0  0  0  0  0  0
    5.2358    6.5055  -10.7652 H   0  0  0  0  0  0
    6.1703    5.8625  -12.9138 H   0  0  0  0  0  0
    7.4259    4.8687  -12.0999 H   0  0  0  0  0  0
    3.5751    3.3916  -12.4231 H   0  0  0  0  0  0
    5.1562    8.6083  -11.2269 H   0  0  0  0  0  0
    6.5597   10.2378  -13.3115 H   0  0  0  0  0  0
    5.9215    8.1779  -14.5964 H   0  0  0  0  0  0
    4.2084    8.4186  -14.1130 H   0  0  0  0  0  0
    4.1613   10.5449  -15.3448 H   0  0  0  0  0  0
    5.8729   10.2994  -15.8314 H   0  0  0  0  0  0
    3.5248    8.4685  -16.5096 H   0  0  0  0  0  0
    4.3382    9.6180  -17.6248 H   0  0  0  0  0  0
    6.3925    7.8500  -16.5438 H   0  0  0  0  0  0
    3.3872    7.8309  -18.6115 H   0  0  0  0  0  0
    4.0216    6.3498  -19.6282 H   0  0  0  0  0  0
    7.1281    6.1220  -17.7422 H   0  0  0  0  0  0
    4.1693   12.5618  -11.9173 H   0  0  0  0  0  0
  1  2  1  0  0  0
  1137  1  0  0  0
  1138  1  0  0  0
  1139  1  0  0  0
  2  3  1  0  0  0
  2  5  1  0  0  0
  2140  1  0  0  0
  3  4  2  0  0  0
  3 12  1  0  0  0
  5  6  1  0  0  0
  5141  1  0  0  0
  5142  1  0  0  0
  6  7  1  0  0  0
  6143  1  0  0  0
  6144  1  0  0  0
  7  8  1  0  0  0
  7145  1  0  0  0
  7146  1  0  0  0
  8  9  1  0  0  0
  8147  1  0  0  0
  9 10  2  0  0  0
  9 11  1  0  0  0
 10148  1  0  0  0
 11149  1  0  0  0
 11150  1  0  0  0
 12 13  1  0  0  0
 12151  1  0  0  0
 13 14  1  0  0  0
 13 16  1  0  0  0
 13152  1  0  0  0
 14 15  2  0  0  0
 14 20  1  0  0  0
 16 17  1  0  0  0
 16153  1  0  0  0
 16154  1  0  0  0
 17 18  1  0  0  0
 17155  1  0  0  0
 17156  1  0  0  0
 18 19  1  0  0  0
 19157  1  0  0  0
 19158  1  0  0  0
 19159  1  0  0  0
 20 21  1  0  0  0
 20160  1  0  0  0
 21 22  1  0  0  0
 21 24  1  0  0  0
 21161  1  0  0  0
 22 23  2  0  0  0
 22 28  1  0  0  0
 24 25  1  0  0  0
 24162  1  0  0  0
 24163  1  0  0  0
 25 26  2  0  0  0
 25 27  1  0  0  0
 27164  1  0  0  0
 27165  1  0  0  0
 28 29  1  0  0  0
 28166  1  0  0  0
 29 30  1  0  0  0
 29 32  1  0  0  0
 29167  1  0  0  0
 30 31  2  0  0  0
 30 36  1  0  0  0
 32 33  1  0  0  0
 32 34  1  0  0  0
 32168  1  0  0  0
 33 35  1  0  0  0
 33169  1  0  0  0
 33170  1  0  0  0
 34171  1  0  0  0
 34172  1  0  0  0
 34173  1  0  0  0
 35174  1  0  0  0
 35175  1  0  0  0
 35176  1  0  0  0
 36 37  1  0  0  0
 36177  1  0  0  0
 37 38  1  0  0  0
 37 40  1  0  0  0
 37178  1  0  0  0
 38 39  2  0  0  0
 38 45  1  0  0  0
 40 41  1  0  0  0
 40179  1  0  0  0
 40180  1  0  0  0
 41 42  1  0  0  0
 41181  1  0  0  0
 41182  1  0  0  0
 42 43  2  0  0  0
 42 44  1  0  0  0
 44183  1  0  0  0
 44184  1  0  0  0
 45 46  1  0  0  0
 45185  1  0  0  0
 46 47  1  0  0  0
 46 49  1  0  0  0
 46186  1  0  0  0
 47 48  2  0  0  0
 47 53  1  0  0  0
 49 50  1  0  0  0
 49187  1  0  0  0
 49188  1  0  0  0
 50 51  1  0  0  0
 50189  1  0  0  0
 50190  1  0  0  0
 51 52  1  0  0  0
 52191  1  0  0  0
 52192  1  0  0  0
 52193  1  0  0  0
 53 54  1  0  0  0
 53194  1  0  0  0
 54 55  1  0  0  0
 54 57  1  0  0  0
 54195  1  0  0  0
 55 56  2  0  0  0
 55 61  1  0  0  0
 57 58  1  0  0  0
 57196  1  0  0  0
 57197  1  0  0  0
 58 59  1  0  0  0
 58 60  1  0  0  0
 58198  1  0  0  0
 59199  1  0  0  0
 59200  1  0  0  0
 59201  1  0  0  0
 60202  1  0  0  0
 60203  1  0  0  0
 60204  1  0  0  0
 61 62  1  0  0  0
 61205  1  0  0  0
 62 63  1  0  0  0
 62 65  1  0  0  0
 62206  1  0  0  0
 63 64  2  0  0  0
 63 69  1  0  0  0
 65 66  1  0  0  0
 65207  1  0  0  0
 65208  1  0  0  0
 66 67  1  0  0  0
 66 68  1  0  0  0
 66209  1  0  0  0
 67210  1  0  0  0
 67211  1  0  0  0
 67212  1  0  0  0
 68213  1  0  0  0
 68214  1  0  0  0
 68215  1  0  0  0
 69 70  1  0  0  0
 69216  1  0  0  0
 70 71  1  0  0  0
 70 73  1  0  0  0
 70217  1  0  0  0
 71 72  2  0  0  0
 71 78  1  0  0  0
 73 74  1  0  0  0
 73218  1  0  0  0
 73219  1  0  0  0
 74 75  1  0  0  0
 74220  1  0  0  0
 74221  1  0  0  0
 75 76  1  0  0  0
 75 77  2  0  0  0
 76222  1  0  0  0
 78 79  1  0  0  0
 78223  1  0  0  0
 79 80  1  0  0  0
 79 82  1  0  0  0
 79224  1  0  0  0
 80 81  2  0  0  0
 80 83  1  0  0  0
 82225  1  0  0  0
 82226  1  0  0  0
 82227  1  0  0  0
 83 84  1  0  0  0
 83228  1  0  0  0
 84 85  1  0  0  0
 84 87  1  0  0  0
 84229  1  0  0  0
 85 86  2  0  0  0
 85 88  1  0  0  0
 87230  1  0  0  0
 87231  1  0  0  0
 87232  1  0  0  0
 88 89  1  0  0  0
 88233  1  0  0  0
 89 90  1  0  0  0
 89 92  1  0  0  0
 89234  1  0  0  0
 90 91  2  0  0  0
 90 96  1  0  0  0
 92 93  1  0  0  0
 92235  1  0  0  0
 92236  1  0  0  0
 93 94  1  0  0  0
 93 95  2  0  0  0
 94237  1  0  0  0
 96 97  1  0  0  0
 96238  1  0  0  0
 97 98  1  0  0  0
 97100  1  0  0  0
 97239  1  0  0  0
 98 99  2  0  0  0
 98108  1  0  0  0
100101  1  0  0  0
100240  1  0  0  0
100241  1  0  0  0
101102  2  0  0  0
101103  1  0  0  0
102104  1  0  0  0
102242  1  0  0  0
103105  2  0  0  0
103243  1  0  0  0
104106  2  0  0  0
104244  1  0  0  0
105106  1  0  0  0
105245  1  0  0  0
106107  1  0  0  0
107246  1  0  0  0
108109  1  0  0  0
108247  1  0  0  0
109110  1  0  0  0
109112  1  0  0  0
109248  1  0  0  0
110111  2  0  0  0
110116  1  0  0  0
112113  1  0  0  0
112249  1  0  0  0
112250  1  0  0  0
113114  1  0  0  0
113115  1  0  0  0
113251  1  0  0  0
114252  1  0  0  0
114253  1  0  0  0
114254  1  0  0  0
115255  1  0  0  0
115256  1  0  0  0
115257  1  0  0  0
116117  1  0  0  0
116258  1  0  0  0
117118  1  0  0  0
117120  1  0  0  0
117259  1  0  0  0
118119  2  0  0  0
118125  1  0  0  0
120121  1  0  0  0
120260  1  0  0  0
120261  1  0  0  0
121122  1  0  0  0
121262  1  0  0  0
121263  1  0  0  0
122123  1  0  0  0
122124  2  0  0  0
123264  1  0  0  0
125126  1  0  0  0
125265  1  0  0  0
126127  1  0  0  0
126129  1  0  0  0
126266  1  0  0  0
127128  2  0  0  0
127136  1  0  0  0
129130  1  0  0  0
129267  1  0  0  0
129268  1  0  0  0
130131  1  0  0  0
130269  1  0  0  0
130270  1  0  0  0
131132  1  0  0  0
131271  1  0  0  0
131272  1  0  0  0
132133  1  0  0  0
132273  1  0  0  0
133134  1  0  0  0
133135  2  0  0  0
134274  1  0  0  0
134275  1  0  0  0
135276  1  0  0  0
136277  1  0  0  0
M  CHG  1   1   1
M  END
> <s_m_source_file>
../1s5q_ligand.sdf

> <i_m_source_file_index>
1

> <s_epik_input>
W0hdL049QyhbTkgyXSlcW05IXVtDSDJdW0NIMl1bQ0gyXVtDQEhdKFtOSDMrXSlDKD1PKVtOSF1bQ0BASF0oW0NIMl1bQ0gyXVNbQ0gzXSlDKD1PKVtOSF1bQ0BASF0oW0NIMl1DKD1PKVtOSDJdKUMoPU8pW05IXVtDQEBIXShbQ0BASF0oW0NIM10pW0NIMl1bQ0gzXSlDKD1PKVtOSF1bQ0BASF0oW0NIMl1bQ0gyXUMoPU8pW05IMl0pQyg9TylbTkhdW0NAQEhdKFtDSDJdW0NIMl1TW0NIM10pQyg9TylbTkhdW0NAQEhdKFtDSDJdW0NIXShbQ0gzXSlbQ0gzXSlDKD1PKVtOSF1bQ0BASF0oW0NIMl1bQ0hdKFtDSDNdKVtDSDNdKUMoPU8pW05IXVtDQEBIXShbQ0gyXVtDSDJdQyg9TylbT0hdKUMoPU8pW05IXVtDQEBIXShbQ0gzXSlDKD1PKVtOSF1bQ0BASF0oW0NIM10pQyg9TylbTkhdW0NAQEhdKFtDSDJdQyg9TylbT0hdKUMoPU8pW05IXVtDQEBIXShbQ0gyXWMxW2NIXVtjSF1jKFtPSF0pW2NIXVtjSF0xKUMoPU8pW05IXVtDQEBIXShbQ0gyXVtDSF0oW0NIM10pW0NIM10pQyg9TylbTkhdW0NAQEhdKFtDSDJdW0NIMl1DKD1PKVtPSF0pQyg9TylbTkhdW0NASF0oQyg9TylbT0hdKVtDSDJdW0NIMl1bQ0gyXVtOSF0vQyhbTkgyXSk9TlxbSF0=

> <s_epik_cmdline>
J2VwaWtfYXBwJywgJy1pbWFlJywgJ2xpZ2FuZF9wcm8ubWFlJywgJy1vbWFlJywgJ2xpZ2FuZF9wcmVwLm1hZScsICctbXMnLCAnMScsICctcGgnLCAnNycsICctcGh0JywgJzAuNScsICctbnQn

> <s_epik_pKa_notes>
Molecule size exceeds maximum supported for generating protonation states

> <s_epik_Chemistry_Notes>
This compound has an imine and may undergo hydrolysis.

$$$$
