1s5z_ligand
                    3D
 Schrodinger Suite 2020-3.
 41 43  0  0  1  0            999 V2000
    3.7600  -20.3990    4.8340 P   0  0  0  0  0  0
    4.9760  -21.2280    5.0220 O   0  5  0  0  0  0
    3.1160  -20.1060    6.1380 O   0  0  0  0  0  0
    4.2670  -18.9960    4.2730 O   0  0  0  0  0  0
    2.6530  -21.1830    3.7600 C   0  0  0  0  0  0
    1.5280  -22.0620    4.2610 C   0  0  0  0  0  0
    1.6760  -23.2840    4.2640 O   0  0  0  0  0  0
    0.5790  -21.3950    5.1000 O   0  0  0  0  0  0
    0.0090  -20.2850    4.4040 C   0  0  0  0  0  0
   -0.5100  -19.2630    5.3890 C   0  0  1  0  0  0
   -1.6570  -19.7930    6.1020 O   0  0  0  0  0  0
   -1.6940  -19.2550    7.4150 C   0  0  1  0  0  0
   -1.7240  -20.3640    8.3690 N   0  0  0  0  0  0
   -2.5590  -20.4800    9.4530 C   0  0  0  0  0  0
   -3.5100  -19.6160    9.8450 N   0  0  0  0  0  0
   -4.1230  -20.0620   10.9420 C   0  0  0  0  0  0
   -3.9070  -21.1900   11.6370 N   0  0  0  0  0  0
   -2.9420  -22.0350   11.2120 C   0  0  0  0  0  0
   -2.7230  -23.1570   11.9020 N   0  0  0  0  0  0
   -2.2210  -21.6770   10.0620 C   0  0  0  0  0  0
   -1.1930  -22.3040    9.3740 N   0  0  0  0  0  0
   -0.9360  -21.4880    8.3810 C   0  0  0  0  0  0
   -0.4660  -18.3560    7.5820 C   0  0  2  0  0  0
   -0.8360  -17.0050    7.3980 O   0  0  0  0  0  0
    0.4630  -18.8960    6.4970 C   0  0  2  0  0  0
    1.4010  -17.9240    6.0450 O   0  0  0  0  0  0
    4.9760  -18.3930    4.8592 H   0  0  0  0  0  0
    2.1228  -20.4261    3.1633 H   0  0  0  0  0  0
    3.2072  -21.8562    3.0894 H   0  0  0  0  0  0
    0.7761  -19.8169    3.7697 H   0  0  0  0  0  0
   -0.8232  -20.6345    3.7754 H   0  0  0  0  0  0
   -0.7646  -18.3886    4.7721 H   0  0  0  0  0  0
   -2.6267  -18.6901    7.5600 H   0  0  0  0  0  0
   -4.9126  -19.4185   11.3300 H   0  0  0  0  0  0
   -3.3240  -23.3790   12.7961 H   0  0  0  0  0  0
   -1.9415  -23.8593   11.5763 H   0  0  0  0  0  0
   -0.1673  -21.6839    7.6335 H   0  0  0  0  0  0
   -0.0022  -18.2950    8.5776 H   0  0  0  0  0  0
   -1.5034  -16.5141    8.1216 H   0  0  0  0  0  0
    1.1383  -19.6981    6.8297 H   0  0  0  0  0  0
    2.1296  -18.1847    5.2632 H   0  0  0  0  0  0
  1  2  1  0  0  0
  1  3  2  0  0  0
  1  4  1  0  0  0
  1  5  1  0  0  0
  4 27  1  0  0  0
  5  6  1  0  0  0
  5 28  1  0  0  0
  5 29  1  0  0  0
  6  7  2  0  0  0
  6  8  1  0  0  0
  8  9  1  0  0  0
  9 10  1  0  0  0
  9 30  1  0  0  0
  9 31  1  0  0  0
 10 11  1  0  0  0
 10 25  1  0  0  0
 10 32  1  0  0  0
 11 12  1  0  0  0
 12 13  1  0  0  0
 12 23  1  0  0  0
 12 33  1  0  0  0
 13 14  1  0  0  0
 13 22  1  0  0  0
 14 15  1  0  0  0
 14 20  2  0  0  0
 15 16  2  0  0  0
 16 17  1  0  0  0
 16 34  1  0  0  0
 17 18  2  0  0  0
 18 19  1  0  0  0
 18 20  1  0  0  0
 19 35  1  0  0  0
 19 36  1  0  0  0
 20 21  1  0  0  0
 21 22  2  0  0  0
 22 37  1  0  0  0
 23 24  1  0  0  0
 23 25  1  0  0  0
 23 38  1  0  0  0
 24 39  1  0  0  0
 25 26  1  0  0  0
 25 40  1  0  0  0
 26 41  1  0  0  0
M  CHG  1   2  -1
M  END
> <s_m_source_file>
../1s5z_ligand.sdf

> <i_m_source_file_index>
1

> <s_epik_input>
W09IXVAoPU8pKFtPSF0pW0NIMl1DKD1PKU9bQ0gyXVtDQEhdMU9bQ0BIXShbQ0BIXShbT0hdKVtDQEBIXTFbT0hdKW4yW2NIXW5jKGMyMyljKFtOSDJdKW5bY0hdbjM=

> <s_epik_cmdline>
J2VwaWtfYXBwJywgJy1pbWFlJywgJ2xpZ2FuZF9wcm8ubWFlJywgJy1vbWFlJywgJ2xpZ2FuZF9wcmVwLm1hZScsICctbXMnLCAnMScsICctcGgnLCAnNycsICctcGh0JywgJzAuNScsICctbnQn

> <r_lp_tautomer_probability>
0.999997216410988

> <r_epik_Ionization_Penalty>
  0.3166

> <r_epik_Ionization_Penalty_Charging>
  0.0000

> <r_epik_Ionization_Penalty_Neutral>
  0.3166

> <r_epik_State_Penalty>
  0.3105

> <r_epik_Charging_Adjusted_Penalty>
0.310470027705787

> <i_epik_Tot_Q>
-1

> <i_epik_Tot_abs_Q>
1

> <s_epik_Chemistry_Notes>
This compound has an ester and may undergo hydrolysis at high or low pH. This compound contains an acetal/aminal-like group ( X-CH(R)-Y where X, Y are N, S, or O) that may be acid/base labile, releasing an aldehyde.

$$$$
