1s64_ligand
                    3D
 Schrodinger Suite 2020-3.
 49 52  0  0  1  0            999 V2000
   29.9290   90.2660   63.5610 N   0  0  2  0  0  0
   30.3220   89.3280   64.6290 C   0  0  0  0  0  0
   28.5150   90.5410   63.3000 C   0  0  0  0  0  0
   30.4760   89.9420   62.2280 C   0  0  0  0  0  0
   31.8420   89.5790   64.7200 C   0  0  0  0  0  0
   27.7940   91.1470   64.5070 C   0  0  0  0  0  0
   32.0220   89.6180   62.2620 C   0  0  0  0  0  0
   32.6800   89.4250   63.5250 N   0  0  0  0  0  0
   27.8360   92.5000   64.8060 N   0  0  0  0  0  0
   27.0460   90.4840   65.4150 C   0  0  0  0  0  0
   32.6120   89.4690   61.1980 O   0  0  0  0  0  0
   34.0680   89.1790   63.7160 C   0  0  0  0  0  0
   28.5530   93.6010   64.0680 C   0  0  0  0  0  0
   27.1110   92.7200   65.9090 C   0  0  0  0  0  0
   26.5880   91.5040   66.3440 N   0  0  0  0  0  0
   34.7000   88.2070   62.8640 C   0  0  0  0  0  0
   34.8790   89.8470   64.7210 C   0  0  0  0  0  0
   30.1000   93.5400   64.2140 C   0  0  0  0  0  0
   36.0850   87.8990   62.9940 C   0  0  0  0  0  0
   36.2720   89.5330   64.8480 C   0  0  0  0  0  0
   30.9490   93.6930   63.0610 C   0  0  0  0  0  0
   30.7260   93.3230   65.4900 C   0  0  0  0  0  0
   36.8700   88.5630   63.9890 C   0  0  0  0  0  0
   36.7750   86.7320   61.9500 Cl  0  0  0  0  0  0
   32.3790   93.6320   63.1810 C   0  0  0  0  0  0
   32.1440   93.2620   65.6140 C   0  0  0  0  0  0
   32.9740   93.4180   64.4470 C   0  0  0  0  0  0
   34.2820   93.3640   64.5530 C   0  0  0  0  0  0
   35.4410   93.3150   64.6460 N   0  0  0  0  0  0
   29.7843   89.5804   65.5548 H   0  0  0  0  0  0
   30.0691   88.3011   64.3265 H   0  0  0  0  0  0
   28.4278   91.2523   62.4655 H   0  0  0  0  0  0
   28.0014   89.6041   63.0384 H   0  0  0  0  0  0
   29.9571   89.0606   61.8231 H   0  0  0  0  0  0
   30.3271   90.7975   61.5527 H   0  0  0  0  0  0
   32.0239   90.6148   65.0427 H   0  0  0  0  0  0
   32.2853   88.8847   65.4489 H   0  0  0  0  0  0
   26.8320   89.4156   65.4449 H   0  0  0  0  0  0
   28.3206   93.5349   62.9949 H   0  0  0  0  0  0
   28.2239   94.5767   64.4550 H   0  0  0  0  0  0
   26.9558   93.6874   66.3866 H   0  0  0  0  0  0
   34.1079   87.6965   62.1045 H   0  0  0  0  0  0
   34.4267   90.5885   65.3796 H   0  0  0  0  0  0
   36.8760   90.0366   65.6028 H   0  0  0  0  0  0
   30.4994   93.8577   62.0818 H   0  0  0  0  0  0
   30.1050   93.2031   66.3778 H   0  0  0  0  0  0
   37.9292   88.3270   64.0913 H   0  0  0  0  0  0
   33.0058   93.7505   62.2971 H   0  0  0  0  0  0
   32.6001   93.0976   66.5903 H   0  0  0  0  0  0
  1  2  1  0  0  0
  1  3  1  0  0  0
  1  4  1  0  0  0
  2  5  1  0  0  0
  2 30  1  0  0  0
  2 31  1  0  0  0
  3  6  1  0  0  0
  3 32  1  0  0  0
  3 33  1  0  0  0
  4  7  1  0  0  0
  4 34  1  0  0  0
  4 35  1  0  0  0
  5  8  1  0  0  0
  5 36  1  0  0  0
  5 37  1  0  0  0
  6  9  1  0  0  0
  6 10  2  0  0  0
  7  8  1  0  0  0
  7 11  2  0  0  0
  8 12  1  0  0  0
  9 13  1  0  0  0
  9 14  1  0  0  0
 10 15  1  0  0  0
 10 38  1  0  0  0
 12 16  2  0  0  0
 12 17  1  0  0  0
 13 18  1  0  0  0
 13 39  1  0  0  0
 13 40  1  0  0  0
 14 15  2  0  0  0
 14 41  1  0  0  0
 16 19  1  0  0  0
 16 42  1  0  0  0
 17 20  2  0  0  0
 17 43  1  0  0  0
 18 21  2  0  0  0
 18 22  1  0  0  0
 19 23  2  0  0  0
 19 24  1  0  0  0
 20 23  1  0  0  0
 20 44  1  0  0  0
 21 25  1  0  0  0
 21 45  1  0  0  0
 22 26  2  0  0  0
 22 46  1  0  0  0
 23 47  1  0  0  0
 25 27  2  0  0  0
 25 48  1  0  0  0
 26 27  1  0  0  0
 26 49  1  0  0  0
 27 28  1  0  0  0
 28 29  3  0  0  0
M  END
> <s_m_source_file>
../1s64_ligand.sdf

> <i_m_source_file_index>
1

> <s_epik_input>
W2NIXTFbY0hdW2NIXWMoQ2wpW2NIXWMxTihDKD1PKVtDSDJdMilbQ0gyXVtDSDJdW05AQEgrXTJbQ0gyXWMzbihbY0hdbltjSF0zKVtDSDJdYzRbY0hdW2NIXWMoQyNOKVtjSF1bY0hdNA==

> <s_epik_cmdline>
J2VwaWtfYXBwJywgJy1pbWFlJywgJ2xpZ2FuZF9wcm8ubWFlJywgJy1vbWFlJywgJ2xpZ2FuZF9wcmVwLm1hZScsICctbXMnLCAnMScsICctcGgnLCAnNycsICctcGh0JywgJzAuNScsICctbnQn

> <r_lp_tautomer_probability>
1

> <r_epik_Ionization_Penalty>
  0.4039

> <r_epik_Ionization_Penalty_Charging>
  0.3458

> <r_epik_Ionization_Penalty_Neutral>
  0.0582

> <r_epik_State_Penalty>
  0.3417

> <r_epik_Charging_Adjusted_Penalty>
0.687526254108006

> <i_epik_Tot_Q>
0

> <i_epik_Tot_abs_Q>
0

$$$$
