1sb1_ligand
                    3D
 Schrodinger Suite 2020-3.
 78 82  0  0  1  0            999 V2000
   10.2600  -13.7020   15.0490 N   0  0  0  0  0  0
   10.5710  -12.3900   15.6190 C   0  0  1  0  0  0
    9.5900  -12.6210   16.8250 C   0  0  0  0  0  0
    8.4750  -13.4070   16.2010 C   0  0  0  0  0  0
    9.3230  -14.5840   15.7800 C   0  0  0  0  0  0
   11.9710  -12.1810   16.1990 C   0  0  0  0  0  0
   12.0720  -11.4380   17.1950 O   0  0  0  0  0  0
   13.0980  -12.8640   15.5190 N   0  0  0  0  0  0
   14.4890  -12.6600   16.0300 C   0  0  2  0  0  0
   14.9880  -11.3300   15.3740 C   0  0  0  0  0  0
   15.8590  -11.4800   14.1330 C   0  0  0  0  0  0
   16.2950  -10.0690   13.2480 S   0  0  0  0  0  0
   17.1920  -11.1080   12.0590 C   0  0  0  0  0  0
   17.8310  -10.5530   10.9810 N   0  0  0  0  0  0
   17.1310  -12.3740   12.3690 N   0  0  0  0  0  0
   16.3400  -12.6680   13.5960 C   0  0  0  0  0  0
   16.0970  -14.0550   14.1900 C   0  0  0  0  0  0
   15.3730  -14.0020   15.6670 C   0  0  0  0  0  0
   10.7970  -14.1300   13.6970 C   0  0  0  0  0  0
   11.5270  -13.3320   13.0290 O   0  0  0  0  0  0
   10.3460  -15.5480   13.1120 C   0  0  2  0  0  0
   11.3260  -16.4730   13.9990 N   0  0  3  0  0  0
   13.0050  -16.7040   13.7760 S   0  0  0  0  0  0
   13.7590  -16.6480   12.5800 O   0  0  0  0  0  0
   13.5390  -17.4550   14.8680 O   0  0  0  0  0  0
   12.2270  -18.2760   13.0680 C   0  0  0  0  0  0
   13.1590  -19.2610   12.3180 C   0  0  0  0  0  0
   12.9240  -19.3990   10.8450 C   0  0  0  0  0  0
   13.7790  -20.2810   10.0350 C   0  0  0  0  0  0
   14.8920  -21.0430   10.6850 C   0  0  0  0  0  0
   15.1210  -20.9160   12.1410 C   0  0  0  0  0  0
   14.2450  -20.0120   12.9740 C   0  0  0  0  0  0
   10.6100  -15.6370   11.5500 C   0  0  0  0  0  0
    9.1870  -14.7650   11.1570 C   0  0  0  0  0  0
    7.7460  -15.5260   11.5660 C   0  0  0  0  0  0
    6.4220  -14.6620   11.2240 C   0  0  0  0  0  0
    6.4480  -14.0050    9.7640 C   0  0  0  0  0  0
    7.8460  -13.3470    9.3730 C   0  0  0  0  0  0
    9.0690  -14.3320    9.6570 C   0  0  0  0  0  0
   10.5053  -11.5785   14.8793 H   0  0  0  0  0  0
   10.1094  -13.1781   17.6186 H   0  0  0  0  0  0
    9.2562  -11.6491   17.2175 H   0  0  0  0  0  0
    7.7074  -13.6200   16.9595 H   0  0  0  0  0  0
    8.0291  -12.8239   15.3818 H   0  0  0  0  0  0
    8.8776  -15.3062   15.0800 H   0  0  0  0  0  0
    9.8677  -15.1250   16.5678 H   0  0  0  0  0  0
   12.9213  -13.5139   14.6493 H   0  0  0  0  0  0
   14.4947  -12.5062   17.1192 H   0  0  0  0  0  0
   14.1220  -10.7254   15.0666 H   0  0  0  0  0  0
   15.5897  -10.7655   16.1016 H   0  0  0  0  0  0
   17.8087   -9.4637   10.8293 H   0  0  0  0  0  0
   18.3661  -11.1968   10.2675 H   0  0  0  0  0  0
   15.4450  -14.6325   13.5181 H   0  0  0  0  0  0
   17.0580  -14.5774   14.3068 H   0  0  0  0  0  0
   16.1893  -14.1116   16.3962 H   0  0  0  0  0  0
   14.7247  -14.8898   15.7062 H   0  0  0  0  0  0
    9.2774  -15.8027   13.1687 H   0  0  0  0  0  0
   10.9667  -16.9071   14.9437 H   0  0  0  0  0  0
   11.7798  -18.8632   13.8836 H   0  0  0  0  0  0
   11.4470  -18.0040   12.3416 H   0  0  0  0  0  0
   12.1153  -18.8430   10.3707 H   0  0  0  0  0  0
   13.6025  -20.3795    8.9639 H   0  0  0  0  0  0
   15.5326  -21.6904   10.0862 H   0  0  0  0  0  0
   15.9261  -21.4779   12.6145 H   0  0  0  0  0  0
   14.4131  -19.9157   14.0466 H   0  0  0  0  0  0
   11.5693  -15.1540   11.3122 H   0  0  0  0  0  0
   10.6452  -16.6929   11.2436 H   0  0  0  0  0  0
    9.2942  -13.8187   11.7074 H   0  0  0  0  0  0
    7.6638  -16.4752   11.0162 H   0  0  0  0  0  0
    7.7312  -15.7262   12.6475 H   0  0  0  0  0  0
    5.5362  -15.3120   11.2770 H   0  0  0  0  0  0
    6.3202  -13.8435   11.9518 H   0  0  0  0  0  0
    6.2309  -14.7767    9.0108 H   0  0  0  0  0  0
    5.6885  -13.2115    9.7054 H   0  0  0  0  0  0
    7.8469  -13.0975    8.3017 H   0  0  0  0  0  0
    7.9979  -12.4311    9.9629 H   0  0  0  0  0  0
    9.9888  -13.8112    9.3523 H   0  0  0  0  0  0
    8.9268  -15.2233    9.0282 H   0  0  0  0  0  0
  1  2  1  0  0  0
  1  5  1  0  0  0
  1 19  1  0  0  0
  2  3  1  0  0  0
  2  6  1  0  0  0
  2 40  1  0  0  0
  3  4  1  0  0  0
  3 41  1  0  0  0
  3 42  1  0  0  0
  4  5  1  0  0  0
  4 43  1  0  0  0
  4 44  1  0  0  0
  5 45  1  0  0  0
  5 46  1  0  0  0
  6  7  2  0  0  0
  6  8  1  0  0  0
  8  9  1  0  0  0
  8 47  1  0  0  0
  9 10  1  0  0  0
  9 18  1  0  0  0
  9 48  1  0  0  0
 10 11  1  0  0  0
 10 49  1  0  0  0
 10 50  1  0  0  0
 11 12  1  0  0  0
 11 16  2  0  0  0
 12 13  1  0  0  0
 13 14  1  0  0  0
 13 15  2  0  0  0
 14 51  1  0  0  0
 14 52  1  0  0  0
 15 16  1  0  0  0
 16 17  1  0  0  0
 17 18  1  0  0  0
 17 53  1  0  0  0
 17 54  1  0  0  0
 18 55  1  0  0  0
 18 56  1  0  0  0
 19 20  2  0  0  0
 19 21  1  0  0  0
 21 22  1  0  0  0
 21 33  1  0  0  0
 21 57  1  0  0  0
 22 23  1  0  0  0
 22 58  1  0  0  0
 23 24  2  0  0  0
 23 25  2  0  0  0
 23 26  1  0  0  0
 26 27  1  0  0  0
 26 59  1  0  0  0
 26 60  1  0  0  0
 27 28  2  0  0  0
 27 32  1  0  0  0
 28 29  1  0  0  0
 28 61  1  0  0  0
 29 30  2  0  0  0
 29 62  1  0  0  0
 30 31  1  0  0  0
 30 63  1  0  0  0
 31 32  2  0  0  0
 31 64  1  0  0  0
 32 65  1  0  0  0
 33 34  1  0  0  0
 33 66  1  0  0  0
 33 67  1  0  0  0
 34 35  1  0  0  0
 34 39  1  0  0  0
 34 68  1  0  0  0
 35 36  1  0  0  0
 35 69  1  0  0  0
 35 70  1  0  0  0
 36 37  1  0  0  0
 36 71  1  0  0  0
 36 72  1  0  0  0
 37 38  1  0  0  0
 37 73  1  0  0  0
 37 74  1  0  0  0
 38 39  1  0  0  0
 38 75  1  0  0  0
 38 76  1  0  0  0
 39 77  1  0  0  0
 39 78  1  0  0  0
M  END
> <s_m_source_file>
../1sb1_ligand.sdf

> <i_m_source_file_index>
1

> <s_epik_input>
czFjKFtOSDJdKW5jKGMxMilbQ0gyXVtDSDJdW0NAQEhdKFtDSDJdMilbTkhdQyg9TylbQ0BIXShbQ0gyXVtDSDJdW0NIMl0zKU4zQyg9TylbQ0BASF0oW0NIMl1bQ0hdNFtDSDJdW0NIMl1bQ0gyXVtDSDJdW0NIMl00KVtOSF1TKD1PKSg9TylbQ0gyXWM1W2NIXVtjSF1bY0hdW2NIXVtjSF01

> <s_epik_cmdline>
J2VwaWtfYXBwJywgJy1pbWFlJywgJ2xpZ2FuZF9wcm8ubWFlJywgJy1vbWFlJywgJ2xpZ2FuZF9wcmVwLm1hZScsICctbXMnLCAnMScsICctcGgnLCAnNycsICctcGh0JywgJzAuNScsICctbnQn

> <r_epik_Ionization_Penalty>
  0.0664

> <r_epik_Ionization_Penalty_Charging>
  0.0000

> <r_epik_Ionization_Penalty_Neutral>
  0.0664

> <r_epik_State_Penalty>
  0.0579

> <r_epik_Charging_Adjusted_Penalty>
0.0579440247270262

> <i_epik_Tot_Q>
0

> <i_epik_Tot_abs_Q>
0

$$$$
