1sdt_ligand
                    3D
 Schrodinger Suite 2020-3.
 93 97  0  0  1  0            999 V2000
   23.3900   20.5370    2.9880 N   0  0  1  0  0  0
   23.4540   20.4130    4.4810 C   0  0  0  0  0  0
   24.4290   19.3630    4.9880 C   0  0  1  0  0  0
   24.4000   19.3790    6.4800 C   0  0  0  0  0  0
   23.3790   19.0220    7.0810 O   0  0  0  0  0  0
   25.5100   19.7920    7.0840 N   0  0  0  0  0  0
   25.6650   19.8940    8.5110 C   0  0  0  0  0  0
   27.0900   20.4650    8.7220 C   0  0  0  0  0  0
   25.5660   18.5900    9.0670 C   0  0  0  0  0  0
   24.7120   20.8320    9.0850 C   0  0  0  0  0  0
   23.9030   18.0630    4.4290 N   0  3  1  0  0  0
   23.8240   18.1050    2.9510 C   0  0  0  0  0  0
   23.0300   19.2800    2.4690 C   0  0  0  0  0  0
   24.7440   16.9360    4.7610 C   0  0  0  0  0  0
   23.8980   15.6800    5.0450 C   0  0  1  0  0  0
   24.6970   14.5980    4.7060 O   0  0  0  0  0  0
   23.4780   15.5640    6.5210 C   0  0  0  0  0  0
   22.5800   14.3360    6.8500 C   0  0  1  0  0  0
   22.4480   14.2260    8.3780 C   0  0  0  0  0  0
   21.4650   13.1890    8.7950 C   0  0  0  0  0  0
   21.6500   11.8650    8.4710 C   0  0  0  0  0  0
   20.7880   10.8820    8.9160 C   0  0  0  0  0  0
   19.6860   11.2710    9.6830 C   0  0  0  0  0  0
   19.4850   12.6030    9.9980 C   0  0  0  0  0  0
   20.3850   13.5700    9.5680 C   0  0  0  0  0  0
   21.2240   14.4900    6.2260 C   0  0  0  0  0  0
   20.5460   15.5200    6.3040 O   0  0  0  0  0  0
   20.7580   13.3900    5.6640 N   0  0  0  0  0  0
   19.3880   13.2060    5.3480 C   0  0  2  0  0  0
   18.7910   11.8560    5.6960 C   0  0  2  0  0  0
   19.6950   10.7930    5.3580 O   0  0  0  0  0  0
   17.5520   11.7290    4.8090 C   0  0  0  0  0  0
   17.9040   12.4140    3.5120 C   0  0  0  0  0  0
   17.4350   12.3500    2.2350 C   0  0  0  0  0  0
   18.0190   13.1800    1.2800 C   0  0  0  0  0  0
   19.0380   14.0690    1.5720 C   0  0  0  0  0  0
   19.5310   14.1560    2.8620 C   0  0  0  0  0  0
   19.0480   13.3900    3.8560 C   0  0  0  0  0  0
   22.4420   21.5980    2.6190 C   0  0  0  0  0  0
   22.7620   23.0540    2.9970 C   0  0  0  0  0  0
   23.8780   23.7120    2.4450 C   0  0  0  0  0  0
   24.2560   25.0500    2.6910 N   0  0  0  0  0  0
   23.3550   25.6440    3.5760 C   0  0  0  0  0  0
   22.2270   25.0720    4.1520 C   0  0  0  0  0  0
   21.9200   23.7500    3.8660 C   0  0  0  0  0  0
   23.7662   21.3740    4.9157 H   0  0  0  0  0  0
   22.4616   20.1402    4.8692 H   0  0  0  0  0  0
   25.4774   19.5233    4.6961 H   0  0  0  0  0  0
   26.3429   20.0650    6.4194 H   0  0  0  0  0  0
   27.8297   19.7716    8.2953 H   0  0  0  0  0  0
   27.2803   20.5873    9.7985 H   0  0  0  0  0  0
   27.1715   21.4414    8.2220 H   0  0  0  0  0  0
   26.3093   17.9320    8.5932 H   0  0  0  0  0  0
   24.5565   18.1910    8.8887 H   0  0  0  0  0  0
   25.7555   18.6376   10.1495 H   0  0  0  0  0  0
   24.8394   21.8181    8.6146 H   0  0  0  0  0  0
   24.8876   20.9167   10.1676 H   0  0  0  0  0  0
   23.6886   20.4702    8.9067 H   0  0  0  0  0  0
   22.9134   17.8978    4.8800 H   0  0  0  0  0  0
   24.8382   18.1784    2.5316 H   0  0  0  0  0  0
   23.3407   17.1878    2.5834 H   0  0  0  0  0  0
   21.9835   19.0621    2.7287 H   0  0  0  0  0  0
   23.1418   19.2894    1.3747 H   0  0  0  0  0  0
   25.4203   16.7229    3.9200 H   0  0  0  0  0  0
   25.3365   17.1721    5.6572 H   0  0  0  0  0  0
   22.9960   15.6373    4.4169 H   0  0  0  0  0  0
   25.0959   14.5074    3.6849 H   0  0  0  0  0  0
   24.3751   15.4786    7.1518 H   0  0  0  0  0  0
   22.9092   16.4595    6.8118 H   0  0  0  0  0  0
   23.0082   13.4127    6.4326 H   0  0  0  0  0  0
   23.4232   13.9605    8.8121 H   0  0  0  0  0  0
   22.1148   15.1910    8.7877 H   0  0  0  0  0  0
   22.4986   11.5845    7.8471 H   0  0  0  0  0  0
   20.9620    9.8331    8.6760 H   0  0  0  0  0  0
   18.9798   10.5192   10.0355 H   0  0  0  0  0  0
   18.6156   12.8954   10.5869 H   0  0  0  0  0  0
   20.2409   14.6164    9.8371 H   0  0  0  0  0  0
   21.4854   12.5956    5.4409 H   0  0  0  0  0  0
   19.0366   14.0029    6.0199 H   0  0  0  0  0  0
   18.6112   11.7462    6.7756 H   0  0  0  0  0  0
   20.6567   10.7008    5.8839 H   0  0  0  0  0  0
   17.3229   10.6650    4.6493 H   0  0  0  0  0  0
   16.6978   12.2183    5.3000 H   0  0  0  0  0  0
   16.6265   11.6695    1.9678 H   0  0  0  0  0  0
   17.6555   13.1262    0.2538 H   0  0  0  0  0  0
   19.4523   14.7006    0.7862 H   0  0  0  0  0  0
   20.3314   14.8636    3.0780 H   0  0  0  0  0  0
   22.3222   21.6187    1.5257 H   0  0  0  0  0  0
   21.4683   21.4001    3.0908 H   0  0  0  0  0  0
   24.5071   23.1361    1.7662 H   0  0  0  0  0  0
   23.5604   26.6794    3.8476 H   0  0  0  0  0  0
   21.5921   25.6545    4.8196 H   0  0  0  0  0  0
   21.0470   23.2687    4.3068 H   0  0  0  0  0  0
  1  2  1  0  0  0
  1 13  1  0  0  0
  1 39  1  0  0  0
  2  3  1  0  0  0
  2 46  1  0  0  0
  2 47  1  0  0  0
  3  4  1  0  0  0
  3 11  1  0  0  0
  3 48  1  0  0  0
  4  5  2  0  0  0
  4  6  1  0  0  0
  6  7  1  0  0  0
  6 49  1  0  0  0
  7  8  1  0  0  0
  7  9  1  0  0  0
  7 10  1  0  0  0
  8 50  1  0  0  0
  8 51  1  0  0  0
  8 52  1  0  0  0
  9 53  1  0  0  0
  9 54  1  0  0  0
  9 55  1  0  0  0
 10 56  1  0  0  0
 10 57  1  0  0  0
 10 58  1  0  0  0
 11 12  1  0  0  0
 11 14  1  0  0  0
 11 59  1  0  0  0
 12 13  1  0  0  0
 12 60  1  0  0  0
 12 61  1  0  0  0
 13 62  1  0  0  0
 13 63  1  0  0  0
 14 15  1  0  0  0
 14 64  1  0  0  0
 14 65  1  0  0  0
 15 16  1  0  0  0
 15 17  1  0  0  0
 15 66  1  0  0  0
 16 67  1  0  0  0
 17 18  1  0  0  0
 17 68  1  0  0  0
 17 69  1  0  0  0
 18 19  1  0  0  0
 18 26  1  0  0  0
 18 70  1  0  0  0
 19 20  1  0  0  0
 19 71  1  0  0  0
 19 72  1  0  0  0
 20 21  2  0  0  0
 20 25  1  0  0  0
 21 22  1  0  0  0
 21 73  1  0  0  0
 22 23  2  0  0  0
 22 74  1  0  0  0
 23 24  1  0  0  0
 23 75  1  0  0  0
 24 25  2  0  0  0
 24 76  1  0  0  0
 25 77  1  0  0  0
 26 27  2  0  0  0
 26 28  1  0  0  0
 28 29  1  0  0  0
 28 78  1  0  0  0
 29 30  1  0  0  0
 29 38  1  0  0  0
 29 79  1  0  0  0
 30 31  1  0  0  0
 30 32  1  0  0  0
 30 80  1  0  0  0
 31 81  1  0  0  0
 32 33  1  0  0  0
 32 82  1  0  0  0
 32 83  1  0  0  0
 33 34  2  0  0  0
 33 38  1  0  0  0
 34 35  1  0  0  0
 34 84  1  0  0  0
 35 36  2  0  0  0
 35 85  1  0  0  0
 36 37  1  0  0  0
 36 86  1  0  0  0
 37 38  2  0  0  0
 37 87  1  0  0  0
 39 40  1  0  0  0
 39 88  1  0  0  0
 39 89  1  0  0  0
 40 41  2  0  0  0
 40 45  1  0  0  0
 41 42  1  0  0  0
 41 90  1  0  0  0
 42 43  2  0  0  0
 43 44  1  0  0  0
 43 91  1  0  0  0
 44 45  2  0  0  0
 44 92  1  0  0  0
 45 93  1  0  0  0
M  CHG  1  11   1
M  END
> <s_m_source_file>
../1sdt_ligand.sdf

> <i_m_source_file_index>
1

> <s_epik_input>
W2NIXTFbY0hdW2NIXW5bY0hdYzFbQ0gyXVtOQEgrXTJbQ0gyXVtDQEBIXShDKD1PKVtOSF1DKFtDSDNdKShbQ0gzXSlbQ0gzXSlbTkBASCtdKFtDSDJdW0NIMl0yKVtDSDJdW0NAQEhdKFtPSF0pW0NIMl1bQ0BASF0oW0NIMl1jM1tjSF1bY0hdW2NIXVtjSF1bY0hdMylDKD1PKVtOSF1bQ0BIXShbQ0BIXShbT0hdKVtDSDJdNCljKGM0NSlbY0hdW2NIXVtjSF1bY0hdNQ==

> <s_epik_cmdline>
J2VwaWtfYXBwJywgJy1pbWFlJywgJ2xpZ2FuZF9wcm8ubWFlJywgJy1vbWFlJywgJ2xpZ2FuZF9wcmVwLm1hZScsICctbXMnLCAnMScsICctcGgnLCAnNycsICctcGh0JywgJzAuNScsICctbnQn

> <r_epik_Ionization_Penalty>
  0.1676

> <r_epik_Ionization_Penalty_Charging>
  0.1567

> <r_epik_Ionization_Penalty_Neutral>
  0.0108

> <r_epik_State_Penalty>
  0.3908

> <r_epik_Charging_Adjusted_Penalty>
0.547583055920383

> <i_epik_Tot_Q>
1

> <i_epik_Tot_abs_Q>
1

$$$$
