1sdv_ligand
                    3D
 Schrodinger Suite 2020-3.
 93 97  0  0  1  0            999 V2000
   23.5910   20.5680    2.9010 N   0  0  1  0  0  0
   23.5320   20.3780    4.3900 C   0  0  0  0  0  0
   24.4930   19.3320    4.9700 C   0  0  1  0  0  0
   24.4050   19.3170    6.4600 C   0  0  0  0  0  0
   23.3770   18.9420    7.0090 O   0  0  0  0  0  0
   25.4990   19.7270    7.0960 N   0  0  0  0  0  0
   25.6710   19.7460    8.5380 C   0  0  0  0  0  0
   27.0690   20.2970    8.8310 C   0  0  0  0  0  0
   25.5490   18.4430    9.0430 C   0  0  0  0  0  0
   24.6680   20.6270    9.1400 C   0  0  0  0  0  0
   23.9590   18.0700    4.3150 N   0  3  1  0  0  0
   23.9500   18.1470    2.8330 C   0  0  0  0  0  0
   23.2510   19.3740    2.2800 C   0  0  0  0  0  0
   24.7690   16.8890    4.6800 C   0  0  0  0  0  0
   23.8660   15.6730    4.9390 C   0  0  1  0  0  0
   24.6310   14.5740    4.5980 O   0  0  0  0  0  0
   23.3970   15.5450    6.4000 C   0  0  0  0  0  0
   22.5180   14.3080    6.7430 C   0  0  1  0  0  0
   22.3560   14.2170    8.2740 C   0  0  0  0  0  0
   21.4340   13.1780    8.7560 C   0  0  0  0  0  0
   21.7070   11.8270    8.5270 C   0  0  0  0  0  0
   20.8290   10.8650    9.0160 C   0  0  0  0  0  0
   19.6990   11.2460    9.7230 C   0  0  0  0  0  0
   19.4370   12.5900    9.9640 C   0  0  0  0  0  0
   20.3120   13.5360    9.4770 C   0  0  0  0  0  0
   21.1560   14.4840    6.1000 C   0  0  0  0  0  0
   20.4720   15.5250    6.1120 O   0  0  0  0  0  0
   20.7220   13.3530    5.5760 N   0  0  0  0  0  0
   19.3100   13.2310    5.2450 C   0  0  2  0  0  0
   18.6950   11.8770    5.5690 C   0  0  2  0  0  0
   19.5970   10.8120    5.2650 O   0  0  0  0  0  0
   17.4730   11.7970    4.6840 C   0  0  0  0  0  0
   17.8380   12.4530    3.3660 C   0  0  0  0  0  0
   17.3650   12.3900    2.0830 C   0  0  0  0  0  0
   17.9900   13.1970    1.1420 C   0  0  0  0  0  0
   19.0450   14.0510    1.4600 C   0  0  0  0  0  0
   19.5280   14.1430    2.7420 C   0  0  0  0  0  0
   19.0030   13.3900    3.7380 C   0  0  0  0  0  0
   22.8200   21.6920    2.3900 C   0  0  0  0  0  0
   23.0380   23.0670    3.0360 C   0  0  0  0  0  0
   24.2070   23.8070    2.8140 C   0  0  0  0  0  0
   24.4410   25.1230    3.2750 N   0  0  0  0  0  0
   23.3450   25.5640    3.9970 C   0  0  0  0  0  0
   22.1730   24.8660    4.2610 C   0  0  0  0  0  0
   21.9880   23.5740    3.7910 C   0  0  0  0  0  0
   23.7735   21.3272    4.8906 H   0  0  0  0  0  0
   22.5200   20.0582    4.6790 H   0  0  0  0  0  0
   25.5679   19.4889    4.7968 H   0  0  0  0  0  0
   26.3129   20.0703    6.4405 H   0  0  0  0  0  0
   27.8250   19.6374    8.3801 H   0  0  0  0  0  0
   27.2244   20.3428    9.9190 H   0  0  0  0  0  0
   27.1620   21.3067    8.4044 H   0  0  0  0  0  0
   26.3096   17.7975    8.5796 H   0  0  0  0  0  0
   24.5468   18.0527    8.8122 H   0  0  0  0  0  0
   25.6949   18.4571   10.1332 H   0  0  0  0  0  0
   24.7797   21.6424    8.7320 H   0  0  0  0  0  0
   24.8095   20.6524   10.2306 H   0  0  0  0  0  0
   23.6614   20.2479    8.9096 H   0  0  0  0  0  0
   22.9259   17.9477    4.6725 H   0  0  0  0  0  0
   24.9849   18.1692    2.4607 H   0  0  0  0  0  0
   23.4317   17.2675    2.4233 H   0  0  0  0  0  0
   22.1705   19.1989    2.3888 H   0  0  0  0  0  0
   23.5076   19.4302    1.2118 H   0  0  0  0  0  0
   25.4607   16.6507    3.8585 H   0  0  0  0  0  0
   25.3441   17.1065    5.5921 H   0  0  0  0  0  0
   22.9725   15.6812    4.2974 H   0  0  0  0  0  0
   25.0551   14.4916    3.5864 H   0  0  0  0  0  0
   24.2731   15.4830    7.0622 H   0  0  0  0  0  0
   22.7947   16.4249    6.6702 H   0  0  0  0  0  0
   22.9703   13.3810    6.3608 H   0  0  0  0  0  0
   23.3317   14.0012    8.7338 H   0  0  0  0  0  0
   21.9724   15.1731    8.6596 H   0  0  0  0  0  0
   22.5970   11.5304    7.9720 H   0  0  0  0  0  0
   21.0303    9.8079    8.8426 H   0  0  0  0  0  0
   19.0106   10.4860   10.0928 H   0  0  0  0  0  0
   18.5543   12.8900   10.5287 H   0  0  0  0  0  0
   20.1142   14.5913    9.6651 H   0  0  0  0  0  0
   21.4055   12.5118    5.3886 H   0  0  0  0  0  0
   18.9396   14.0421    5.8891 H   0  0  0  0  0  0
   18.4864   11.7292    6.6389 H   0  0  0  0  0  0
   20.5434   10.7181    5.8177 H   0  0  0  0  0  0
   17.1993   10.7426    4.5313 H   0  0  0  0  0  0
   16.6372   12.3269    5.1642 H   0  0  0  0  0  0
   16.5358   11.7363    1.8126 H   0  0  0  0  0  0
   17.6408   13.1613    0.1101 H   0  0  0  0  0  0
   19.4957   14.6581    0.6749 H   0  0  0  0  0  0
   20.3446   14.8310    2.9611 H   0  0  0  0  0  0
   23.0469   21.8377    1.3236 H   0  0  0  0  0  0
   21.7464   21.4857    2.5116 H   0  0  0  0  0  0
   25.0004   23.3293    2.2392 H   0  0  0  0  0  0
   23.4088   26.5730    4.4044 H   0  0  0  0  0  0
   21.3862   25.3413    4.8469 H   0  0  0  0  0  0
   21.0855   22.9992    3.9988 H   0  0  0  0  0  0
  1  2  1  0  0  0
  1 13  1  0  0  0
  1 39  1  0  0  0
  2  3  1  0  0  0
  2 46  1  0  0  0
  2 47  1  0  0  0
  3  4  1  0  0  0
  3 11  1  0  0  0
  3 48  1  0  0  0
  4  5  2  0  0  0
  4  6  1  0  0  0
  6  7  1  0  0  0
  6 49  1  0  0  0
  7  8  1  0  0  0
  7  9  1  0  0  0
  7 10  1  0  0  0
  8 50  1  0  0  0
  8 51  1  0  0  0
  8 52  1  0  0  0
  9 53  1  0  0  0
  9 54  1  0  0  0
  9 55  1  0  0  0
 10 56  1  0  0  0
 10 57  1  0  0  0
 10 58  1  0  0  0
 11 12  1  0  0  0
 11 14  1  0  0  0
 11 59  1  0  0  0
 12 13  1  0  0  0
 12 60  1  0  0  0
 12 61  1  0  0  0
 13 62  1  0  0  0
 13 63  1  0  0  0
 14 15  1  0  0  0
 14 64  1  0  0  0
 14 65  1  0  0  0
 15 16  1  0  0  0
 15 17  1  0  0  0
 15 66  1  0  0  0
 16 67  1  0  0  0
 17 18  1  0  0  0
 17 68  1  0  0  0
 17 69  1  0  0  0
 18 19  1  0  0  0
 18 26  1  0  0  0
 18 70  1  0  0  0
 19 20  1  0  0  0
 19 71  1  0  0  0
 19 72  1  0  0  0
 20 21  2  0  0  0
 20 25  1  0  0  0
 21 22  1  0  0  0
 21 73  1  0  0  0
 22 23  2  0  0  0
 22 74  1  0  0  0
 23 24  1  0  0  0
 23 75  1  0  0  0
 24 25  2  0  0  0
 24 76  1  0  0  0
 25 77  1  0  0  0
 26 27  2  0  0  0
 26 28  1  0  0  0
 28 29  1  0  0  0
 28 78  1  0  0  0
 29 30  1  0  0  0
 29 38  1  0  0  0
 29 79  1  0  0  0
 30 31  1  0  0  0
 30 32  1  0  0  0
 30 80  1  0  0  0
 31 81  1  0  0  0
 32 33  1  0  0  0
 32 82  1  0  0  0
 32 83  1  0  0  0
 33 34  2  0  0  0
 33 38  1  0  0  0
 34 35  1  0  0  0
 34 84  1  0  0  0
 35 36  2  0  0  0
 35 85  1  0  0  0
 36 37  1  0  0  0
 36 86  1  0  0  0
 37 38  2  0  0  0
 37 87  1  0  0  0
 39 40  1  0  0  0
 39 88  1  0  0  0
 39 89  1  0  0  0
 40 41  2  0  0  0
 40 45  1  0  0  0
 41 42  1  0  0  0
 41 90  1  0  0  0
 42 43  2  0  0  0
 43 44  1  0  0  0
 43 91  1  0  0  0
 44 45  2  0  0  0
 44 92  1  0  0  0
 45 93  1  0  0  0
M  CHG  1  11   1
M  END
> <s_m_source_file>
../1sdv_ligand.sdf

> <i_m_source_file_index>
1

> <s_epik_input>
W2NIXTFbY0hdW2NIXW5bY0hdYzFbQ0gyXVtOQEgrXTJbQ0gyXVtDQEBIXShDKD1PKVtOSF1DKFtDSDNdKShbQ0gzXSlbQ0gzXSlbTkBASCtdKFtDSDJdW0NIMl0yKVtDSDJdW0NAQEhdKFtPSF0pW0NIMl1bQ0BASF0oW0NIMl1jM1tjSF1bY0hdW2NIXVtjSF1bY0hdMylDKD1PKVtOSF1bQ0BIXShbQ0BIXShbT0hdKVtDSDJdNCljKGM0NSlbY0hdW2NIXVtjSF1bY0hdNQ==

> <s_epik_cmdline>
J2VwaWtfYXBwJywgJy1pbWFlJywgJ2xpZ2FuZF9wcm8ubWFlJywgJy1vbWFlJywgJ2xpZ2FuZF9wcmVwLm1hZScsICctbXMnLCAnMScsICctcGgnLCAnNycsICctcGh0JywgJzAuNScsICctbnQn

> <r_epik_Ionization_Penalty>
  0.1676

> <r_epik_Ionization_Penalty_Charging>
  0.1567

> <r_epik_Ionization_Penalty_Neutral>
  0.0108

> <r_epik_State_Penalty>
  0.3908

> <r_epik_Charging_Adjusted_Penalty>
0.547583055920383

> <i_epik_Tot_Q>
1

> <i_epik_Tot_abs_Q>
1

$$$$
