1sfi_ligand
                    3D
 Schrodinger Suite 2020-3.
210215  0  0  1  0            999 V2000
    5.3590   45.3880   12.1820 N   0  0  0  0  0  0
    5.1710   43.9580   11.9730 C   0  0  0  0  0  0
    6.4200   43.2370   11.4750 C   0  0  0  0  0  0
    6.3500   42.0360   11.1990 O   0  0  0  0  0  0
    7.5370   43.9420   11.3230 N   0  0  0  0  0  0
    8.7720   43.2630   10.9270 C   0  0  2  0  0  0
    9.2970   42.4930   12.1540 C   0  0  0  0  0  0
    9.1860   43.0120   13.2520 O   0  0  0  0  0  0
    9.8810   44.2270   10.5360 C   0  0  0  0  0  0
    9.7170   44.8670    9.1610 C   0  0  0  0  0  0
   10.8450   45.8500    8.9050 C   0  0  0  0  0  0
   11.2440   46.5370   10.1310 N   0  0  0  0  0  0
   12.1300   47.5080   10.2370 C   0  0  0  0  0  0
   12.7300   47.9660    9.1310 N   0  0  0  0  0  0
   12.4080   48.0220   11.4200 N   0  0  0  0  0  0
    9.8510   41.3090   11.8910 N   0  0  0  0  0  0
   10.4660   40.5490   12.9800 C   0  0  2  0  0  0
   11.7190   39.8530   12.4180 C   0  0  0  0  0  0
   11.7250   39.3980   11.2680 O   0  0  0  0  0  0
    9.5920   39.4730   13.6090 C   0  0  0  0  0  0
    8.0980   39.8990   14.5170 S   0  0  0  0  0  0
   12.7480   39.7760   13.2840 N   0  0  0  0  0  0
   13.9520   38.9960   12.9620 C   0  0  2  0  0  0
   13.5320   37.5330   13.1090 C   0  0  0  0  0  0
   12.5250   37.2260   13.7630 O   0  0  0  0  0  0
   15.1070   39.2340   13.9650 C   0  0  2  0  0  0
   14.6820   38.6400   15.2200 O   0  0  0  0  0  0
   15.4890   40.6880   14.1540 C   0  0  0  0  0  0
   14.3170   36.5600   12.6060 N   0  0  0  0  0  0
   13.8510   35.1720   12.6650 C   0  0  2  0  0  0
   14.5620   34.3640   13.7500 C   0  0  0  0  0  0
   15.0160   33.2530   13.4810 O   0  0  0  0  0  0
   13.9380   34.5330   11.2350 C   0  0  0  0  0  0
   12.8450   35.1560   10.3360 C   0  0  0  0  0  0
   12.9950   34.8270    8.8540 C   0  0  0  0  0  0
   11.9000   35.5060    8.0020 C   0  0  0  0  0  0
   11.9840   35.1210    6.5450 N   0  3  0  0  0  0
   14.9380   34.9960   14.8600 N   0  0  0  0  0  0
   15.6540   34.2950   15.9250 C   0  0  2  0  0  0
   14.6650   33.6760   16.8950 C   0  0  0  0  0  0
   13.4740   34.0070   16.7830 O   0  0  0  0  0  0
   16.4960   35.3720   16.6680 C   0  0  0  0  0  0
   15.6800   36.5330   16.9470 O   0  0  0  0  0  0
   15.1170   32.8910   17.8700 N   0  0  0  0  0  0
   14.1830   32.4960   18.9640 C   0  0  2  0  0  0
   14.6920   33.2030   20.2130 C   0  0  0  0  0  0
   15.8270   32.8960   20.6190 O   0  0  0  0  0  0
   14.2160   30.9680   19.1710 C   0  0  2  0  0  0
   13.5350   30.2410   18.0110 C   0  0  0  0  0  0
   13.5540   30.6100   20.5140 C   0  0  0  0  0  0
   13.8030   28.7420   17.9720 C   0  0  0  0  0  0
   13.9500   34.0880   20.8820 N   0  0  0  0  0  0
   12.6810   34.5970   20.3860 C   0  0  2  0  0  0
   12.8820   35.7260   19.3900 C   0  0  0  0  0  0
   14.0020   36.2270   19.2110 O   0  0  0  0  0  0
   12.0580   35.1850   21.6490 C   0  0  0  0  0  0
   13.2230   35.6560   22.4730 C   0  0  0  0  0  0
   14.4170   34.8110   22.0980 C   0  0  0  0  0  0
   11.8770   36.0190   18.5540 N   0  0  0  0  0  0
   12.0100   37.0610   17.5480 C   0  0  2  0  0  0
   12.1760   38.4510   18.1310 C   0  0  0  0  0  0
   11.6240   38.7640   19.2020 O   0  0  0  0  0  0
   10.6760   37.0390   16.8020 C   0  0  0  0  0  0
    9.6960   36.3710   17.7020 C   0  0  0  0  0  0
   10.5280   35.4280   18.5680 C   0  0  0  0  0  0
   12.8690   39.3100   17.4070 N   0  0  0  0  0  0
   12.9810   40.7140   17.7520 C   0  0  2  0  0  0
   12.0220   41.4080   16.7650 C   0  0  0  0  0  0
   12.2540   41.2970   15.5580 O   0  0  0  0  0  0
   14.4110   41.2400   17.6480 C   0  0  2  0  0  0
   15.3120   40.4370   18.5930 C   0  0  0  0  0  0
   14.4030   42.7170   18.0600 C   0  0  0  0  0  0
   16.7800   40.3430   18.2760 C   0  0  0  0  0  0
   10.9760   42.0550   17.2920 N   0  0  0  0  0  0
    9.9760   42.6350   16.3920 C   0  0  2  0  0  0
    9.6770   44.0860   16.6440 C   0  0  0  0  0  0
   10.3210   44.7650   17.4590 O   0  0  0  0  0  0
    8.6650   41.9570   16.5780 C   0  0  0  0  0  0
    8.6110   40.1870   16.4810 S   0  0  0  0  0  0
    9.2230   44.7970   15.5740 N   0  0  0  0  0  0
    8.9590   46.2370   15.4660 C   0  0  2  0  0  0
    7.5310   46.6340   15.2370 C   0  0  0  0  0  0
    6.8160   45.7000   14.9330 O   0  0  0  0  0  0
    9.8840   46.6810   14.3210 C   0  0  0  0  0  0
   11.3240   46.3130   14.4790 C   0  0  0  0  0  0
   12.1960   47.0850   15.1450 C   0  0  0  0  0  0
   11.9000   45.1360   14.0200 C   0  0  0  0  0  0
   13.4930   46.8850   15.4020 C   0  0  0  0  0  0
   13.2350   44.8250   14.2100 C   0  0  0  0  0  0
   13.9980   45.6890   14.8810 C   0  0  0  0  0  0
    7.1490   47.8730   15.4220 N   0  0  0  0  0  0
    5.7680   48.2960   15.2880 C   0  0  2  0  0  0
    5.1060   48.1150   13.9450 C   0  0  0  0  0  0
    3.8710   48.0460   13.9080 O   0  0  0  0  0  0
    5.7970   49.7590   15.7230 C   0  0  0  0  0  0
    7.0690   49.9360   16.4670 C   0  0  0  0  0  0
    8.0480   48.9720   15.8350 C   0  0  0  0  0  0
    5.8620   47.9380   12.8670 N   0  0  0  0  0  0
    5.2610   47.7390   11.5470 C   0  0  2  0  0  0
    5.0080   46.2660   11.2410 C   0  0  0  0  0  0
    4.5570   45.9240   10.1390 O   0  0  0  0  0  0
    6.1590   48.3320   10.4600 C   0  0  0  0  0  0
    7.5720   47.7710   10.4660 C   0  0  0  0  0  0
    7.8870   46.8050   11.1900 O   0  0  0  0  0  0
    8.3750   48.3800    9.7120 O   0  0  0  0  0  0
    5.7945   45.7537   13.1236 H   0  0  0  0  0  0
    4.8779   43.4843   12.9215 H   0  0  0  0  0  0
    4.3818   43.7976   11.2237 H   0  0  0  0  0  0
    7.5370   45.0288   11.4928 H   0  0  0  0  0  0
    8.4910   42.6481   10.0593 H   0  0  0  0  0  0
    9.9259   45.0494   11.2651 H   0  0  0  0  0  0
   10.8432   43.6940   10.5248 H   0  0  0  0  0  0
    9.7374   44.0849    8.3878 H   0  0  0  0  0  0
    8.7562   45.4008    9.1172 H   0  0  0  0  0  0
   11.7178   45.3111    8.5077 H   0  0  0  0  0  0
   10.5158   46.6038    8.1746 H   0  0  0  0  0  0
   10.7900   46.2547   11.0923 H   0  0  0  0  0  0
   12.4876   47.5272    8.1519 H   0  0  0  0  0  0
   13.4653   48.7811    9.2015 H   0  0  0  0  0  0
   11.9067   47.6350   12.3194 H   0  0  0  0  0  0
    9.8492   40.9022   10.8690 H   0  0  0  0  0  0
   10.6441   41.3128   13.7513 H   0  0  0  0  0  0
    9.2274   38.7925   12.8255 H   0  0  0  0  0  0
   10.1817   38.9044   14.3432 H   0  0  0  0  0  0
   12.6778   40.3079   14.2443 H   0  0  0  0  0  0
   14.2729   39.3005   11.9549 H   0  0  0  0  0  0
   16.0350   38.7522   13.6234 H   0  0  0  0  0  0
   14.3708   37.5854   15.2518 H   0  0  0  0  0  0
   15.8062   41.1121   13.1899 H   0  0  0  0  0  0
   16.3161   40.7590   14.8757 H   0  0  0  0  0  0
   14.6220   41.2485   14.5337 H   0  0  0  0  0  0
   15.2933   36.7937   12.1564 H   0  0  0  0  0  0
   12.8043   35.2209   12.9996 H   0  0  0  0  0  0
   14.9302   34.7326   10.8040 H   0  0  0  0  0  0
   13.7820   33.4466   11.3087 H   0  0  0  0  0  0
   11.8574   34.7878   10.6509 H   0  0  0  0  0  0
   12.8744   36.2517   10.4288 H   0  0  0  0  0  0
   13.9755   35.1764    8.4983 H   0  0  0  0  0  0
   12.9192   33.7390    8.7104 H   0  0  0  0  0  0
   10.9086   35.2096    8.3752 H   0  0  0  0  0  0
   12.0063   36.5987    8.0714 H   0  0  0  0  0  0
   11.1855   35.6295    5.9848 H   0  0  0  0  0  0
   11.8650   34.0319    6.4461 H   0  0  0  0  0  0
   12.9627   35.4210    6.1423 H   0  0  0  0  0  0
   14.7008   36.0647   14.9677 H   0  0  0  0  0  0
   16.2534   33.4900   15.4749 H   0  0  0  0  0  0
   16.8693   34.9562   17.6155 H   0  0  0  0  0  0
   17.3469   35.6709   16.0383 H   0  0  0  0  0  0
   16.1143   37.3976   17.4703 H   0  0  0  0  0  0
   16.1575   32.5341   17.8795 H   0  0  0  0  0  0
   13.1543   32.7929   18.7117 H   0  0  0  0  0  0
   15.2629   30.6309   19.1893 H   0  0  0  0  0  0
   12.4454   30.3728   18.0848 H   0  0  0  0  0  0
   13.8910   30.6579   17.0574 H   0  0  0  0  0  0
   14.0633   31.1462   21.3283 H   0  0  0  0  0  0
   13.6319   29.5260   20.6837 H   0  0  0  0  0  0
   12.4938   30.9020   20.4895 H   0  0  0  0  0  0
   13.2796   28.2982   17.1123 H   0  0  0  0  0  0
   13.4387   28.2801   18.9015 H   0  0  0  0  0  0
   14.8843   28.5653   17.8741 H   0  0  0  0  0  0
   12.1201   33.7970   19.8807 H   0  0  0  0  0  0
   11.3909   36.0160   21.3761 H   0  0  0  0  0  0
   11.4804   34.4069   22.1694 H   0  0  0  0  0  0
   13.4201   36.7164   22.2569 H   0  0  0  0  0  0
   12.9886   35.5369   23.5411 H   0  0  0  0  0  0
   14.6806   34.0826   22.8790 H   0  0  0  0  0  0
   15.3007   35.4164   21.8479 H   0  0  0  0  0  0
   12.9134   36.8346   16.9626 H   0  0  0  0  0  0
   10.3638   38.0698   16.5786 H   0  0  0  0  0  0
   10.7906   36.4788   15.8623 H   0  0  0  0  0  0
    9.1801   37.1292   18.3095 H   0  0  0  0  0  0
    8.9589   35.8214   17.0981 H   0  0  0  0  0  0
   10.5687   34.4116   18.1494 H   0  0  0  0  0  0
   10.1578   35.3838   19.6029 H   0  0  0  0  0  0
   13.3736   38.9222   16.5098 H   0  0  0  0  0  0
   12.7162   40.8497   18.8110 H   0  0  0  0  0  0
   14.7888   41.1359   16.6202 H   0  0  0  0  0  0
   15.2694   40.8754   19.6009 H   0  0  0  0  0  0
   14.9652   39.3938   18.6320 H   0  0  0  0  0  0
   13.7543   43.2847   17.3767 H   0  0  0  0  0  0
   15.4266   43.1169   18.0109 H   0  0  0  0  0  0
   14.0224   42.8088   19.0879 H   0  0  0  0  0  0
   17.2829   39.7373   19.0442 H   0  0  0  0  0  0
   17.2171   41.3523   18.2605 H   0  0  0  0  0  0
   16.9130   39.8707   17.2915 H   0  0  0  0  0  0
   10.8596   42.1553   18.3812 H   0  0  0  0  0  0
   10.4284   42.4919   15.3996 H   0  0  0  0  0  0
    8.2660   42.1974   17.5745 H   0  0  0  0  0  0
    7.9604   42.3035   15.8076 H   0  0  0  0  0  0
    9.0522   44.1401   14.7084 H   0  0  0  0  0  0
    9.1440   46.7008   16.4462 H   0  0  0  0  0  0
    9.5478   46.2226   13.3793 H   0  0  0  0  0  0
    9.8518   47.7765   14.2275 H   0  0  0  0  0  0
   11.7852   48.0160   15.5357 H   0  0  0  0  0  0
   11.2715   44.4239   13.4852 H   0  0  0  0  0  0
   14.1021   47.5907   15.9668 H   0  0  0  0  0  0
   13.6528   43.8965   13.8208 H   0  0  0  0  0  0
   15.0523   45.4549   15.0286 H   0  0  0  0  0  0
    5.1705   47.6099   15.9062 H   0  0  0  0  0  0
    5.7616   50.4065   14.8345 H   0  0  0  0  0  0
    4.9279   49.9683   16.3640 H   0  0  0  0  0  0
    7.4105   50.9769   16.3670 H   0  0  0  0  0  0
    6.9075   49.7036   17.5300 H   0  0  0  0  0  0
    8.7980   48.5864   16.5412 H   0  0  0  0  0  0
    8.5552   49.3832   14.9497 H   0  0  0  0  0  0
    6.9564   47.9426   12.9780 H   0  0  0  0  0  0
    4.2970   48.2659   11.6035 H   0  0  0  0  0  0
    5.7258   48.1211    9.4711 H   0  0  0  0  0  0
    6.2367   49.4201   10.6018 H   0  0  0  0  0  0
    9.4228   48.0519    9.6447 H   0  0  0  0  0  0
  1  2  1  0  0  0
  1100  1  0  0  0
  1106  1  0  0  0
  2  3  1  0  0  0
  2107  1  0  0  0
  2108  1  0  0  0
  3  4  2  0  0  0
  3  5  1  0  0  0
  5  6  1  0  0  0
  5109  1  0  0  0
  6  7  1  0  0  0
  6  9  1  0  0  0
  6110  1  0  0  0
  7  8  2  0  0  0
  7 16  1  0  0  0
  9 10  1  0  0  0
  9111  1  0  0  0
  9112  1  0  0  0
 10 11  1  0  0  0
 10113  1  0  0  0
 10114  1  0  0  0
 11 12  1  0  0  0
 11115  1  0  0  0
 11116  1  0  0  0
 12 13  1  0  0  0
 12117  1  0  0  0
 13 14  1  0  0  0
 13 15  2  0  0  0
 14118  1  0  0  0
 14119  1  0  0  0
 15120  1  0  0  0
 16 17  1  0  0  0
 16121  1  0  0  0
 17 18  1  0  0  0
 17 20  1  0  0  0
 17122  1  0  0  0
 18 19  2  0  0  0
 18 22  1  0  0  0
 20 21  1  0  0  0
 20123  1  0  0  0
 20124  1  0  0  0
 21 79  1  0  0  0
 22 23  1  0  0  0
 22125  1  0  0  0
 23 24  1  0  0  0
 23 26  1  0  0  0
 23126  1  0  0  0
 24 25  2  0  0  0
 24 29  1  0  0  0
 26 27  1  0  0  0
 26 28  1  0  0  0
 26127  1  0  0  0
 27128  1  0  0  0
 28129  1  0  0  0
 28130  1  0  0  0
 28131  1  0  0  0
 29 30  1  0  0  0
 29132  1  0  0  0
 30 31  1  0  0  0
 30 33  1  0  0  0
 30133  1  0  0  0
 31 32  2  0  0  0
 31 38  1  0  0  0
 33 34  1  0  0  0
 33134  1  0  0  0
 33135  1  0  0  0
 34 35  1  0  0  0
 34136  1  0  0  0
 34137  1  0  0  0
 35 36  1  0  0  0
 35138  1  0  0  0
 35139  1  0  0  0
 36 37  1  0  0  0
 36140  1  0  0  0
 36141  1  0  0  0
 37142  1  0  0  0
 37143  1  0  0  0
 37144  1  0  0  0
 38 39  1  0  0  0
 38145  1  0  0  0
 39 40  1  0  0  0
 39 42  1  0  0  0
 39146  1  0  0  0
 40 41  2  0  0  0
 40 44  1  0  0  0
 42 43  1  0  0  0
 42147  1  0  0  0
 42148  1  0  0  0
 43149  1  0  0  0
 44 45  1  0  0  0
 44150  1  0  0  0
 45 46  1  0  0  0
 45 48  1  0  0  0
 45151  1  0  0  0
 46 47  2  0  0  0
 46 52  1  0  0  0
 48 49  1  0  0  0
 48 50  1  0  0  0
 48152  1  0  0  0
 49 51  1  0  0  0
 49153  1  0  0  0
 49154  1  0  0  0
 50155  1  0  0  0
 50156  1  0  0  0
 50157  1  0  0  0
 51158  1  0  0  0
 51159  1  0  0  0
 51160  1  0  0  0
 52 53  1  0  0  0
 52 58  1  0  0  0
 53 54  1  0  0  0
 53 56  1  0  0  0
 53161  1  0  0  0
 54 55  2  0  0  0
 54 59  1  0  0  0
 56 57  1  0  0  0
 56162  1  0  0  0
 56163  1  0  0  0
 57 58  1  0  0  0
 57164  1  0  0  0
 57165  1  0  0  0
 58166  1  0  0  0
 58167  1  0  0  0
 59 60  1  0  0  0
 59 65  1  0  0  0
 60 61  1  0  0  0
 60 63  1  0  0  0
 60168  1  0  0  0
 61 62  2  0  0  0
 61 66  1  0  0  0
 63 64  1  0  0  0
 63169  1  0  0  0
 63170  1  0  0  0
 64 65  1  0  0  0
 64171  1  0  0  0
 64172  1  0  0  0
 65173  1  0  0  0
 65174  1  0  0  0
 66 67  1  0  0  0
 66175  1  0  0  0
 67 68  1  0  0  0
 67 70  1  0  0  0
 67176  1  0  0  0
 68 69  2  0  0  0
 68 74  1  0  0  0
 70 71  1  0  0  0
 70 72  1  0  0  0
 70177  1  0  0  0
 71 73  1  0  0  0
 71178  1  0  0  0
 71179  1  0  0  0
 72180  1  0  0  0
 72181  1  0  0  0
 72182  1  0  0  0
 73183  1  0  0  0
 73184  1  0  0  0
 73185  1  0  0  0
 74 75  1  0  0  0
 74186  1  0  0  0
 75 76  1  0  0  0
 75 78  1  0  0  0
 75187  1  0  0  0
 76 77  2  0  0  0
 76 80  1  0  0  0
 78 79  1  0  0  0
 78188  1  0  0  0
 78189  1  0  0  0
 80 81  1  0  0  0
 80190  1  0  0  0
 81 82  1  0  0  0
 81 84  1  0  0  0
 81191  1  0  0  0
 82 83  2  0  0  0
 82 91  1  0  0  0
 84 85  1  0  0  0
 84192  1  0  0  0
 84193  1  0  0  0
 85 86  2  0  0  0
 85 87  1  0  0  0
 86 88  1  0  0  0
 86194  1  0  0  0
 87 89  2  0  0  0
 87195  1  0  0  0
 88 90  2  0  0  0
 88196  1  0  0  0
 89 90  1  0  0  0
 89197  1  0  0  0
 90198  1  0  0  0
 91 92  1  0  0  0
 91 97  1  0  0  0
 92 93  1  0  0  0
 92 95  1  0  0  0
 92199  1  0  0  0
 93 94  2  0  0  0
 93 98  1  0  0  0
 95 96  1  0  0  0
 95200  1  0  0  0
 95201  1  0  0  0
 96 97  1  0  0  0
 96202  1  0  0  0
 96203  1  0  0  0
 97204  1  0  0  0
 97205  1  0  0  0
 98 99  1  0  0  0
 98206  1  0  0  0
 99100  1  0  0  0
 99102  1  0  0  0
 99207  1  0  0  0
100101  2  0  0  0
102103  1  0  0  0
102208  1  0  0  0
102209  1  0  0  0
103104  2  0  0  0
103105  1  0  0  0
105210  1  0  0  0
M  CHG  1  37   1
M  END
> <s_m_source_file>
../1sfi_ligand.sdf

> <i_m_source_file_index>
1

> <s_epik_input>
W0hdL049QyhbTkgyXSlcW05IXVtDSDJdW0NIMl1bQ0gyXVtDQEBIXShDKD1PKVtOSF1bQ0BIXTEyKVtOSF1DKD1PKVtDSDJdW05IXUMoPU8pW0NASF0oW0NIMl1DKD1PKVtPSF0pW05IXUMoPU8pW0NASF0zTihbQ0gyXVtDSDJdW0NIMl0zKUMoPU8pW0NASF0oW0NIMl1jNFtjSF1bY0hdW2NIXVtjSF1bY0hdNClbTkhdQyg9TylbQ0BIXShbQ0gyXVNTW0NIMl0yKVtOSF1DKD1PKVtDQEhdKFtDQEBIXShbQ0gzXSlbQ0gyXVtDSDNdKVtOSF1DKD1PKVtDQEhdNU4oW0NIMl1bQ0gyXVtDSDJdNSlDKD1PKVtDQEhdNk4oW0NIMl1bQ0gyXVtDSDJdNilDKD1PKVtDQEhdKFtDQEBIXShbQ0gzXSlbQ0gyXVtDSDNdKVtOSF1DKD1PKVtDQEhdKFtDSDJdW09IXSlbTkhdQyg9TylbQ0BASF0oW05IXUMoPU8pW0NAQEhdKFtOSF1DMT1PKVtDQEhdKFtPSF0pW0NIM10pW0NIMl1bQ0gyXVtDSDJdW0NIMl1bTkgzK10=

> <s_epik_cmdline>
J2VwaWtfYXBwJywgJy1pbWFlJywgJ2xpZ2FuZF9wcm8ubWFlJywgJy1vbWFlJywgJ2xpZ2FuZF9wcmVwLm1hZScsICctbXMnLCAnMScsICctcGgnLCAnNycsICctcGh0JywgJzAuNScsICctbnQn

> <s_epik_pKa_notes>
Molecule size exceeds maximum supported for generating protonation states

> <s_epik_Chemistry_Notes>
This compound has an imine and may undergo hydrolysis.

$$$$
