1shd_ligand
                    3D
 Schrodinger Suite 2020-3.
 74 74  0  0  1  0            999 V2000
   20.7640   10.9560    0.7630 C   0  0  0  0  0  0
   21.0510   10.5680    1.8950 O   0  0  0  0  0  0
   19.5190   10.9080    0.3160 N   0  0  0  0  0  0
   18.3880   10.5610    1.1440 C   0  0  2  0  0  0
   17.8530    9.2640    0.6210 C   0  0  0  0  0  0
   17.6700    9.1500   -0.5930 O   0  0  0  0  0  0
   17.3500   11.5990    1.0170 C   0  0  0  0  0  0
   17.8040   12.8650    1.6990 C   0  0  0  0  0  0
   17.6180   12.9890    3.0610 C   0  0  0  0  0  0
   18.4430   13.8600    0.9800 C   0  0  0  0  0  0
   18.0880   14.1120    3.7050 C   0  0  0  0  0  0
   18.9210   14.9840    1.6050 C   0  0  0  0  0  0
   18.7330   15.0940    2.9630 C   0  0  0  0  0  0
   19.1520   16.2890    3.6410 O   0  0  0  0  0  0
   17.6570    8.2820    1.5000 N   0  0  0  0  0  0
   17.1330    6.9650    1.1670 C   0  0  2  0  0  0
   15.6590    7.0440    0.8450 C   0  0  0  0  0  0
   14.8810    7.7650    1.4790 O   0  0  0  0  0  0
   17.2630    5.9760    2.3130 C   0  0  0  0  0  0
   18.7000    5.5520    2.6270 C   0  0  0  0  0  0
   19.3780    4.6690    1.6140 C   0  0  0  0  0  0
   18.6990    4.1790    0.7490 O   0  0  0  0  0  0
   20.5720    4.4410    1.6700 O   0  5  0  0  0  0
   15.2840    6.3560   -0.2200 N   0  0  0  0  0  0
   13.8890    6.2270   -0.5920 C   0  0  2  0  0  0
   13.4520    4.8890   -0.0220 C   0  0  0  0  0  0
   14.1630    3.8740   -0.0640 O   0  0  0  0  0  0
   13.7320    6.2610   -2.1060 C   0  0  0  0  0  0
   14.0980    7.6440   -2.6690 C   0  0  0  0  0  0
   13.3130    8.8500   -2.0980 C   0  0  0  0  0  0
   12.0650    8.7970   -2.0510 O   0  0  0  0  0  0
   13.9570    9.8470   -1.7010 O   0  5  0  0  0  0
   12.3670    4.9510    0.7060 N   0  0  0  0  0  0
   11.7610    3.7710    1.2790 C   0  0  2  0  0  0
   10.7130    3.3260    0.2190 C   0  0  0  0  0  0
   10.1510    4.1510   -0.5300 O   0  5  0  0  0  0
   11.2130    4.1980    2.6760 C   0  0  2  0  0  0
   10.2060    3.2340    3.2000 C   0  0  0  0  0  0
   10.5300    5.5300    2.5690 C   0  0  0  0  0  0
    9.5970    3.7230    4.5410 C   0  0  0  0  0  0
   10.5610    2.1130    0.0300 O   0  0  0  0  0  0
   21.6723   11.4074    0.0154 O   0  5  0  0  0  0
   19.3691   11.1502   -0.7465 H   0  0  0  0  0  0
   18.7027   10.4984    2.1962 H   0  0  0  0  0  0
   17.1669   11.8061   -0.0477 H   0  0  0  0  0  0
   16.4200   11.2470    1.4873 H   0  0  0  0  0  0
   17.1049   12.2069    3.6206 H   0  0  0  0  0  0
   18.5682   13.7492   -0.0971 H   0  0  0  0  0  0
   17.9560   14.2288    4.7807 H   0  0  0  0  0  0
   19.4334   15.7649    1.0432 H   0  0  0  0  0  0
   19.0055   16.3854    4.7269 H   0  0  0  0  0  0
   17.9216    8.5217    2.5404 H   0  0  0  0  0  0
   17.7444    6.6615    0.3044 H   0  0  0  0  0  0
   16.8540    6.4229    3.2311 H   0  0  0  0  0  0
   16.7051    5.0593    2.0713 H   0  0  0  0  0  0
   19.3345    6.4460    2.7179 H   0  0  0  0  0  0
   18.7185    4.9915    3.5733 H   0  0  0  0  0  0
   16.0626    5.8745   -0.8299 H   0  0  0  0  0  0
   13.3142    7.0702   -0.1815 H   0  0  0  0  0  0
   14.3945    5.5095   -2.5603 H   0  0  0  0  0  0
   12.6881    6.0379   -2.3715 H   0  0  0  0  0  0
   15.1591    7.8527   -2.4677 H   0  0  0  0  0  0
   13.9214    7.6564   -3.7547 H   0  0  0  0  0  0
   11.9156    5.9394    0.8770 H   0  0  0  0  0  0
   12.4660    2.9435    1.4471 H   0  0  0  0  0  0
   12.0471    4.2411    3.3918 H   0  0  0  0  0  0
    9.3924    3.1199    2.4686 H   0  0  0  0  0  0
   10.6857    2.2588    3.3699 H   0  0  0  0  0  0
   11.2404    6.2764    2.1839 H   0  0  0  0  0  0
   10.1744    5.8406    3.5625 H   0  0  0  0  0  0
    9.6746    5.4493    1.8821 H   0  0  0  0  0  0
    8.8595    2.9891    4.8980 H   0  0  0  0  0  0
    9.1032    4.6938    4.3870 H   0  0  0  0  0  0
   10.3966    3.8327    5.2884 H   0  0  0  0  0  0
  1  2  2  0  0  0
  1  3  1  0  0  0
  1 42  1  0  0  0
  3  4  1  0  0  0
  3 43  1  0  0  0
  4  5  1  0  0  0
  4  7  1  0  0  0
  4 44  1  0  0  0
  5  6  2  0  0  0
  5 15  1  0  0  0
  7  8  1  0  0  0
  7 45  1  0  0  0
  7 46  1  0  0  0
  8 10  2  0  0  0
  8  9  1  0  0  0
  9 11  2  0  0  0
  9 47  1  0  0  0
 10 12  1  0  0  0
 10 48  1  0  0  0
 11 13  1  0  0  0
 11 49  1  0  0  0
 12 13  2  0  0  0
 12 50  1  0  0  0
 13 14  1  0  0  0
 14 51  1  0  0  0
 15 16  1  0  0  0
 15 52  1  0  0  0
 16 17  1  0  0  0
 16 19  1  0  0  0
 16 53  1  0  0  0
 17 18  2  0  0  0
 17 24  1  0  0  0
 19 20  1  0  0  0
 19 54  1  0  0  0
 19 55  1  0  0  0
 20 21  1  0  0  0
 20 56  1  0  0  0
 20 57  1  0  0  0
 21 22  2  0  0  0
 21 23  1  0  0  0
 24 25  1  0  0  0
 24 58  1  0  0  0
 25 26  1  0  0  0
 25 28  1  0  0  0
 25 59  1  0  0  0
 26 27  2  0  0  0
 26 33  1  0  0  0
 28 29  1  0  0  0
 28 60  1  0  0  0
 28 61  1  0  0  0
 29 30  1  0  0  0
 29 62  1  0  0  0
 29 63  1  0  0  0
 30 31  2  0  0  0
 30 32  1  0  0  0
 33 34  1  0  0  0
 33 64  1  0  0  0
 34 35  1  0  0  0
 34 37  1  0  0  0
 34 65  1  0  0  0
 35 41  2  0  0  0
 35 36  1  0  0  0
 37 38  1  0  0  0
 37 39  1  0  0  0
 37 66  1  0  0  0
 38 40  1  0  0  0
 38 67  1  0  0  0
 38 68  1  0  0  0
 39 69  1  0  0  0
 39 70  1  0  0  0
 39 71  1  0  0  0
 40 72  1  0  0  0
 40 73  1  0  0  0
 40 74  1  0  0  0
M  CHG  4  23  -1  32  -1  36  -1  42  -1
M  END
> <s_m_source_file>
../1shd_ligand.sdf

> <i_m_source_file_index>
1

> <s_epik_input>
W2NIXTFbY0hdYyhbT0hdKVtjSF1bY0hdYzFbQ0gyXVtDQEhdKFtOSF1DKD1PKVtPSF0pQyg9TylbTkhdW0NAQEhdKFtDSDJdW0NIMl1DKD1PKVtPSF0pQyg9TylbTkhdW0NAQEhdKFtDSDJdW0NIMl1DKD1PKVtPSF0pQyg9TylbTkhdW0NASF0oQyg9TylbT0hdKVtDQEBIXShbQ0gzXSlbQ0gyXVtDSDNd

> <s_epik_cmdline>
J2VwaWtfYXBwJywgJy1pbWFlJywgJ2xpZ2FuZF9wcm8ubWFlJywgJy1vbWFlJywgJ2xpZ2FuZF9wcmVwLm1hZScsICctbXMnLCAnMScsICctcGgnLCAnNycsICctcGh0JywgJzAuNScsICctbnQn

> <r_lp_tautomer_probability>
1

> <r_epik_Ionization_Penalty>
  0.0059

> <r_epik_Ionization_Penalty_Charging>
  0.0053

> <r_epik_Ionization_Penalty_Neutral>
  0.0006

> <r_epik_State_Penalty>
 -0.0000

> <r_epik_Charging_Adjusted_Penalty>
0.00528952925835481

> <i_epik_Tot_Q>
-4

> <i_epik_Tot_abs_Q>
4

$$$$
