1siv_ligand
                    3D
 Schrodinger Suite 2020-3.
 89 89  0  0  1  0            999 V2000
    6.3210   16.3470   32.3890 N   0  3  0  0  0  0
    6.1780   15.1570   33.2190 C   0  0  1  0  0  0
    7.4680   14.8260   33.9450 C   0  0  0  0  0  0
    5.1000   15.4110   34.2600 C   0  0  0  0  0  0
    4.7450   16.5620   34.5420 O   0  0  0  0  0  0
    4.5530   14.3870   34.8220 N   0  0  0  0  0  0
    3.5220   14.5460   35.8010 C   0  0  1  0  0  0
    2.2050   14.3110   35.1050 C   0  0  0  0  0  0
    3.7600   13.5250   36.9140 C   0  0  0  0  0  0
    3.5460   12.3220   36.7610 O   0  0  0  0  0  0
    4.2150   13.9480   38.0820 N   0  0  0  0  0  0
    4.4520   13.0110   39.1770 C   0  0  1  0  0  0
    5.8220   13.3150   39.7520 C   0  0  0  0  0  0
    6.9110   13.0670   38.7320 C   0  0  0  0  0  0
    7.5420   14.1430   38.1310 C   0  0  0  0  0  0
    7.2680   11.7740   38.4250 C   0  0  0  0  0  0
    8.5410   13.9490   37.2100 C   0  0  0  0  0  0
    8.2690   11.5820   37.5010 C   0  0  0  0  0  0
    8.8990   12.6610   36.8980 C   0  0  0  0  0  0
    3.3430   13.1250   40.2330 C   0  0  1  0  0  0
    3.2270   14.4600   40.7050 O   0  0  0  0  0  0
    1.9690   12.7550   39.7840 C   0  0  0  0  0  0
    1.1170   12.3780   40.9510 C   0  0  0  0  0  0
    1.5270   11.0000   41.4510 C   0  0  0  0  0  0
    1.8450   10.1220   40.6350 O   0  0  0  0  0  0
    1.5240   10.7800   42.7580 N   0  0  0  0  0  0
    1.8820    9.4760   43.2270 C   0  0  1  0  0  0
    3.2720    9.3430   43.9190 C   0  0  0  0  0  0
    3.5120    7.8660   44.2020 C   0  0  0  0  0  0
    4.4250    9.8050   43.0380 C   0  0  0  0  0  0
    0.8310    9.2020   44.2720 C   0  0  0  0  0  0
    0.5940    9.9730   45.2060 O   0  0  0  0  0  0
    0.1870    8.0630   44.1370 N   0  0  0  0  0  0
   -0.8350    7.6230   45.0770 C   0  0  1  0  0  0
   -2.2130    7.4720   44.3940 C   0  0  0  0  0  0
   -2.6520    8.8320   43.8880 C   0  0  0  0  0  0
   -2.1560    6.4120   43.3150 C   0  0  0  0  0  0
   -0.3580    6.2630   45.6270 C   0  0  0  0  0  0
    0.6610    5.6870   45.2290 O   0  0  0  0  0  0
   -1.0360    5.6020   46.6760 O   0  0  0  0  0  0
   -0.1460    5.0100   47.6450 C   0  0  0  0  0  0
    5.3685   16.5554   31.8797 H   0  0  0  0  0  0
    7.1085   16.1788   31.6396 H   0  0  0  0  0  0
    6.5939   17.2046   33.0215 H   0  0  0  0  0  0
    5.9172   14.3395   32.5308 H   0  0  0  0  0  0
    8.2645   14.6379   33.2100 H   0  0  0  0  0  0
    7.3206   13.9286   34.5638 H   0  0  0  0  0  0
    7.7544   15.6715   34.5877 H   0  0  0  0  0  0
    4.8910   13.3795   34.5378 H   0  0  0  0  0  0
    3.5567   15.5678   36.2068 H   0  0  0  0  0  0
    2.0695   15.0625   34.3133 H   0  0  0  0  0  0
    1.3852   14.3942   35.8337 H   0  0  0  0  0  0
    2.1997   13.3049   34.6603 H   0  0  0  0  0  0
    4.4150   15.0205   38.2228 H   0  0  0  0  0  0
    4.4339   11.9883   38.7724 H   0  0  0  0  0  0
    5.8642   14.3700   40.0607 H   0  0  0  0  0  0
    6.0049   12.6702   40.6242 H   0  0  0  0  0  0
    7.2414   15.1575   38.3927 H   0  0  0  0  0  0
    6.7725   10.9272   38.8998 H   0  0  0  0  0  0
    9.0378   14.7967   36.7380 H   0  0  0  0  0  0
    8.5713   10.5681   37.2390 H   0  0  0  0  0  0
    9.6882   12.4838   36.1673 H   0  0  0  0  0  0
    3.6442   12.4523   41.0496 H   0  0  0  0  0  0
    4.1108   14.9825   41.1000 H   0  0  0  0  0  0
    1.5086   13.6111   39.2691 H   0  0  0  0  0  0
    2.0264   11.9000   39.0944 H   0  0  0  0  0  0
    1.2504   13.1158   41.7559 H   0  0  0  0  0  0
    0.0612   12.3582   40.6430 H   0  0  0  0  0  0
    1.2558   11.5685   43.4766 H   0  0  0  0  0  0
    1.8955    8.8408   42.3291 H   0  0  0  0  0  0
    3.2699    9.9638   44.8270 H   0  0  0  0  0  0
    2.7031    7.4785   44.8388 H   0  0  0  0  0  0
    4.4757    7.7434   44.7181 H   0  0  0  0  0  0
    3.5306    7.3092   43.2535 H   0  0  0  0  0  0
    4.3010   10.8721   42.8016 H   0  0  0  0  0  0
    4.4308    9.2212   42.1057 H   0  0  0  0  0  0
    5.3759    9.6554   43.5703 H   0  0  0  0  0  0
    0.4468    7.4340   43.2728 H   0  0  0  0  0  0
   -0.9225    8.3976   45.8531 H   0  0  0  0  0  0
   -2.9860    7.1220   45.0940 H   0  0  0  0  0  0
   -2.6693    9.5463   44.7243 H   0  0  0  0  0  0
   -3.6588    8.7535   43.4520 H   0  0  0  0  0  0
   -1.9464    9.1829   43.1206 H   0  0  0  0  0  0
   -1.8314    5.4577   43.7553 H   0  0  0  0  0  0
   -1.4413    6.7188   42.5371 H   0  0  0  0  0  0
   -3.1538    6.2893   42.8685 H   0  0  0  0  0  0
   -0.7360    4.5143   48.4300 H   0  0  0  0  0  0
    0.4789    5.7947   48.0963 H   0  0  0  0  0  0
    0.4976    4.2696   47.1474 H   0  0  0  0  0  0
  1  2  1  0  0  0
  1 42  1  0  0  0
  1 43  1  0  0  0
  1 44  1  0  0  0
  2  4  1  0  0  0
  2  3  1  0  0  0
  2 45  1  0  0  0
  3 46  1  0  0  0
  3 47  1  0  0  0
  3 48  1  0  0  0
  4  6  1  0  0  0
  4  5  2  0  0  0
  6  7  1  0  0  0
  6 49  1  0  0  0
  7  9  1  0  0  0
  7  8  1  0  0  0
  7 50  1  0  0  0
  8 51  1  0  0  0
  8 52  1  0  0  0
  8 53  1  0  0  0
  9 11  1  0  0  0
  9 10  2  0  0  0
 11 12  1  0  0  0
 11 54  1  0  0  0
 12 20  1  0  0  0
 12 13  1  0  0  0
 12 55  1  0  0  0
 13 14  1  0  0  0
 13 56  1  0  0  0
 13 57  1  0  0  0
 14 16  2  0  0  0
 14 15  1  0  0  0
 15 17  2  0  0  0
 15 58  1  0  0  0
 16 18  1  0  0  0
 16 59  1  0  0  0
 17 19  1  0  0  0
 17 60  1  0  0  0
 18 19  2  0  0  0
 18 61  1  0  0  0
 19 62  1  0  0  0
 20 22  1  0  0  0
 20 21  1  0  0  0
 20 63  1  0  0  0
 21 64  1  0  0  0
 22 23  1  0  0  0
 22 65  1  0  0  0
 22 66  1  0  0  0
 23 24  1  0  0  0
 23 67  1  0  0  0
 23 68  1  0  0  0
 24 26  1  0  0  0
 24 25  2  0  0  0
 26 27  1  0  0  0
 26 69  1  0  0  0
 27 31  1  0  0  0
 27 28  1  0  0  0
 27 70  1  0  0  0
 28 30  1  0  0  0
 28 29  1  0  0  0
 28 71  1  0  0  0
 29 72  1  0  0  0
 29 73  1  0  0  0
 29 74  1  0  0  0
 30 75  1  0  0  0
 30 76  1  0  0  0
 30 77  1  0  0  0
 31 33  1  0  0  0
 31 32  2  0  0  0
 33 34  1  0  0  0
 33 78  1  0  0  0
 34 38  1  0  0  0
 34 35  1  0  0  0
 34 79  1  0  0  0
 35 37  1  0  0  0
 35 36  1  0  0  0
 35 80  1  0  0  0
 36 81  1  0  0  0
 36 82  1  0  0  0
 36 83  1  0  0  0
 37 84  1  0  0  0
 37 85  1  0  0  0
 37 86  1  0  0  0
 38 40  1  0  0  0
 38 39  2  0  0  0
 40 41  1  0  0  0
 41 87  1  0  0  0
 41 88  1  0  0  0
 41 89  1  0  0  0
M  CHG  1   1   1
M  END
> <s_m_source_file>
../1siv_ligand.sdf

> <i_m_source_file_index>
1

> <s_epik_input>
W05IMytdW0NAQEhdKFtDSDNdKUMoPU8pW05IXVtDQEBIXShbQ0gzXSlDKD1PKVtOSF1bQ0BASF0oW0NIMl1jMVtjSF1bY0hdW2NIXVtjSF1bY0hdMSlbQ0BASF0oW09IXSlbQ0gyXVtDSDJdQyg9TylbTkhdW0NAQEhdKFtDSF0oW0NIM10pW0NIM10pQyg9TylbTkhdW0NAQEhdKFtDSF0oW0NIM10pW0NIM10pQyg9TylPW0NIM10=

> <s_epik_cmdline>
J2VwaWtfYXBwJywgJy1pbWFlJywgJ2xpZ2FuZF9wcm8ubWFlJywgJy1vbWFlJywgJ2xpZ2FuZF9wcmVwLm1hZScsICctbXMnLCAnMScsICctcGgnLCAnNycsICctcGh0JywgJzAuNScsICctbnQn

> <r_epik_Ionization_Penalty>
  0.1223

> <r_epik_Ionization_Penalty_Charging>
  0.1223

> <r_epik_Ionization_Penalty_Neutral>
  0.0000

> <r_epik_State_Penalty>
  0.1119

> <r_epik_Charging_Adjusted_Penalty>
0.234190287511832

> <i_epik_Tot_Q>
1

> <i_epik_Tot_abs_Q>
1

> <s_epik_Chemistry_Notes>
This compound has an ester and may undergo hydrolysis at high or low pH.

$$$$
