1sj0_ligand
                    3D
 Schrodinger Suite 2020-3.
 63 67  0  0  1  0            999 V2000
   31.1720   -0.2380   28.7070 C   0  0  2  0  0  0
   31.2760   -1.6690   28.1770 C   0  0  1  0  0  0
   30.0500   -2.3690   28.4310 O   0  0  0  0  0  0
   28.8610   -1.9480   27.9670 C   0  0  0  0  0  0
   27.9320   -2.9010   27.5800 C   0  0  0  0  0  0
   26.7240   -2.5350   27.0030 C   0  0  0  0  0  0
   26.3460   -1.1830   27.0310 C   0  0  0  0  0  0
   25.1280   -0.8570   26.5840 O   0  0  0  0  0  0
   27.2840   -0.2150   27.4260 C   0  0  0  0  0  0
   28.5550   -0.5630   27.8540 C   0  0  0  0  0  0
   29.6080    0.4570   28.1910 S   0  0  0  0  0  0
   32.4700    0.4800   28.4200 C   0  0  0  0  0  0
   32.6800    1.3800   27.3730 C   0  0  0  0  0  0
   33.9320    1.9870   27.2050 C   0  0  0  0  0  0
   34.9760    1.6980   28.0990 C   0  0  0  0  0  0
   36.1910    2.2510   27.9230 O   0  0  0  0  0  0
   34.7830    0.7840   29.1430 C   0  0  0  0  0  0
   33.5190    0.2030   29.3110 C   0  0  0  0  0  0
   31.6300   -1.8400   26.7020 C   0  0  0  0  0  0
   32.6480   -2.7670   26.4480 C   0  0  0  0  0  0
   33.0730   -3.0500   25.1480 C   0  0  0  0  0  0
   32.4960   -2.3520   24.0600 C   0  0  0  0  0  0
   31.4550   -1.4710   24.2950 C   0  0  0  0  0  0
   31.0470   -1.1710   25.6230 C   0  0  0  0  0  0
   32.9110   -2.5720   22.7850 O   0  0  0  0  0  0
   34.0020   -3.4000   22.3460 C   0  0  0  0  0  0
   33.6550   -4.3840   21.2060 C   0  0  0  0  0  0
   32.8000   -4.0120   20.0540 N   0  3  0  0  0  0
   31.5970   -3.2410   20.3190 C   0  0  0  0  0  0
   30.5570   -3.2640   19.1770 C   0  0  0  0  0  0
   31.1870   -2.9120   17.8130 C   0  0  0  0  0  0
   32.4130   -3.8420   17.6170 C   0  0  0  0  0  0
   33.4340   -3.6740   18.7760 C   0  0  0  0  0  0
   31.3047   -0.2233   29.7989 H   0  0  0  0  0  0
   32.0890   -2.1355   28.7526 H   0  0  0  0  0  0
   28.1542   -3.9573   27.7316 H   0  0  0  0  0  0
   26.0814   -3.2823   26.5373 H   0  0  0  0  0  0
   24.4227   -1.6461   26.2844 H   0  0  0  0  0  0
   27.0045    0.8381   27.3950 H   0  0  0  0  0  0
   31.8675    1.6111   26.6842 H   0  0  0  0  0  0
   34.0953    2.6824   26.3817 H   0  0  0  0  0  0
   36.3550    2.9700   27.1068 H   0  0  0  0  0  0
   35.6032    0.5288   29.8140 H   0  0  0  0  0  0
   33.3474   -0.4750   30.1470 H   0  0  0  0  0  0
   33.1205   -3.2805   27.2854 H   0  0  0  0  0  0
   33.8424   -3.8019   24.9727 H   0  0  0  0  0  0
   30.9433   -1.0029   23.4540 H   0  0  0  0  0  0
   30.2786   -0.4184   25.7997 H   0  0  0  0  0  0
   34.8194   -2.7637   21.9760 H   0  0  0  0  0  0
   34.3632   -4.0078   23.1887 H   0  0  0  0  0  0
   34.5811   -4.7175   20.7150 H   0  0  0  0  0  0
   33.1262   -5.2546   21.6213 H   0  0  0  0  0  0
   32.4081   -5.0220   19.8635 H   0  0  0  0  0  0
   31.0971   -3.6378   21.2149 H   0  0  0  0  0  0
   31.8659   -2.1875   20.4855 H   0  0  0  0  0  0
   30.1166   -4.2692   19.1023 H   0  0  0  0  0  0
   29.7643   -2.5312   19.3881 H   0  0  0  0  0  0
   30.4478   -3.0745   17.0148 H   0  0  0  0  0  0
   31.4990   -1.8572   17.8145 H   0  0  0  0  0  0
   32.0783   -4.8896   17.5923 H   0  0  0  0  0  0
   32.9132   -3.5945   16.6691 H   0  0  0  0  0  0
   33.7821   -2.6309   18.8039 H   0  0  0  0  0  0
   34.2908   -4.3419   18.6038 H   0  0  0  0  0  0
  1  2  1  0  0  0
  1 11  1  0  0  0
  1 12  1  0  0  0
  1 34  1  0  0  0
  2  3  1  0  0  0
  2 19  1  0  0  0
  2 35  1  0  0  0
  3  4  1  0  0  0
  4  5  2  0  0  0
  4 10  1  0  0  0
  5  6  1  0  0  0
  5 36  1  0  0  0
  6  7  2  0  0  0
  6 37  1  0  0  0
  7  8  1  0  0  0
  7  9  1  0  0  0
  8 38  1  0  0  0
  9 10  2  0  0  0
  9 39  1  0  0  0
 10 11  1  0  0  0
 12 13  2  0  0  0
 12 18  1  0  0  0
 13 14  1  0  0  0
 13 40  1  0  0  0
 14 15  2  0  0  0
 14 41  1  0  0  0
 15 16  1  0  0  0
 15 17  1  0  0  0
 16 42  1  0  0  0
 17 18  2  0  0  0
 17 43  1  0  0  0
 18 44  1  0  0  0
 19 20  2  0  0  0
 19 24  1  0  0  0
 20 21  1  0  0  0
 20 45  1  0  0  0
 21 22  2  0  0  0
 21 46  1  0  0  0
 22 23  1  0  0  0
 22 25  1  0  0  0
 23 24  2  0  0  0
 23 47  1  0  0  0
 24 48  1  0  0  0
 25 26  1  0  0  0
 26 27  1  0  0  0
 26 49  1  0  0  0
 26 50  1  0  0  0
 27 28  1  0  0  0
 27 51  1  0  0  0
 27 52  1  0  0  0
 28 29  1  0  0  0
 28 33  1  0  0  0
 28 53  1  0  0  0
 29 30  1  0  0  0
 29 54  1  0  0  0
 29 55  1  0  0  0
 30 31  1  0  0  0
 30 56  1  0  0  0
 30 57  1  0  0  0
 31 32  1  0  0  0
 31 58  1  0  0  0
 31 59  1  0  0  0
 32 33  1  0  0  0
 32 60  1  0  0  0
 32 61  1  0  0  0
 33 62  1  0  0  0
 33 63  1  0  0  0
M  CHG  1  28   1
M  END
> <s_m_source_file>
../1sj0_ligand.sdf

> <i_m_source_file_index>
1

> <s_epik_input>
W2NIXTFbY0hdYyhbT0hdKVtjSF1jKGMxMilTW0NASF0oYzNbY0hdW2NIXWMoW09IXSlbY0hdW2NIXTMpW0NAQEhdKE8yKWM0W2NIXVtjSF1jKFtjSF1bY0hdNClPW0NIMl1bQ0gyXVtOSCtdNVtDSDJdW0NIMl1bQ0gyXVtDSDJdW0NIMl01

> <s_epik_cmdline>
J2VwaWtfYXBwJywgJy1pbWFlJywgJ2xpZ2FuZF9wcm8ubWFlJywgJy1vbWFlJywgJ2xpZ2FuZF9wcmVwLm1hZScsICctbXMnLCAnMScsICctcGgnLCAnNycsICctcGh0JywgJzAuNScsICctbnQn

> <r_lp_tautomer_probability>
0.999999999997365

> <r_epik_Ionization_Penalty>
  0.0171

> <r_epik_Ionization_Penalty_Charging>
  0.0122

> <r_epik_Ionization_Penalty_Neutral>
  0.0049

> <r_epik_State_Penalty>
  0.0095

> <r_epik_Charging_Adjusted_Penalty>
0.0216736986220823

> <i_epik_Tot_Q>
1

> <i_epik_Tot_abs_Q>
1

$$$$
