1sje_ligand
                    3D
 Schrodinger Suite 2020-3.
218220  0  0  1  0            999 V2000
  127.4400   52.6790  -20.4400 N   0  3  0  0  0  0
  128.8210   53.1240  -20.1450 C   0  0  2  0  0  0
  129.1820   52.7090  -18.7200 C   0  0  0  0  0  0
  128.3810   52.8730  -17.7960 O   0  0  0  0  0  0
  128.8470   54.6450  -20.2710 C   0  0  0  0  0  0
  127.5420   54.9380  -21.0190 C   0  0  0  0  0  0
  126.5630   53.8550  -20.5500 C   0  0  0  0  0  0
  130.3890   52.1790  -18.5450 N   0  0  0  0  0  0
  130.8380   51.7450  -17.2290 C   0  0  2  0  0  0
  131.9000   52.6490  -16.6040 C   0  0  0  0  0  0
  132.8560   53.0530  -17.2670 O   0  0  0  0  0  0
  131.3750   50.3190  -17.3080 C   0  0  0  0  0  0
  132.0460   49.8490  -16.0380 C   0  0  0  0  0  0
  132.4060   48.3790  -16.0850 C   0  0  0  0  0  0
  133.0870   47.8950  -15.1560 O   0  0  0  0  0  0
  132.0040   47.7010  -17.0510 O   0  0  0  0  0  0
  131.7120   52.9810  -15.3270 N   0  0  0  0  0  0
  132.6920   53.7880  -14.5990 C   0  0  2  0  0  0
  133.7800   52.7970  -14.1810 C   0  0  0  0  0  0
  133.4870   51.7870  -13.5440 O   0  0  0  0  0  0
  132.0870   54.4250  -13.3280 C   0  0  0  0  0  0
  133.1930   55.0580  -12.4890 C   0  0  0  0  0  0
  131.0460   55.4770  -13.7090 C   0  0  0  0  0  0
  135.0270   53.0840  -14.5510 N   0  0  0  0  0  0
  136.1450   52.2010  -14.2320 C   0  0  2  0  0  0
  136.9650   52.6780  -13.0430 C   0  0  0  0  0  0
  137.3650   53.8420  -12.9680 O   0  0  0  0  0  0
  137.0860   52.0330  -15.4560 C   0  0  2  0  0  0
  136.5630   50.9260  -16.3710 C   0  0  0  0  0  0
  138.4920   51.6920  -15.0060 C   0  0  0  0  0  0
  135.2160   51.2060  -16.9750 C   0  0  0  0  0  0
  137.2430   51.7700  -12.0990 N   0  0  0  0  0  0
  138.0210   52.1040  -10.9090 C   0  0  2  0  0  0
  139.5110   51.8670  -11.0810 C   0  0  0  0  0  0
  139.9330   51.1050  -11.9530 O   0  0  0  0  0  0
  137.4600   51.1510   -9.8770 C   0  0  0  0  0  0
  137.3360   49.8960  -10.7040 C   0  0  0  0  0  0
  136.6810   50.4130  -11.9790 C   0  0  0  0  0  0
  140.2910   52.5390  -10.2370 N   0  0  0  0  0  0
  141.7350   52.3630  -10.1880 C   0  0  2  0  0  0
  141.8780   51.2640   -9.1330 C   0  0  0  0  0  0
  141.1290   51.2580   -8.1500 O   0  0  0  0  0  0
  142.4220   53.6350   -9.6870 C   0  0  0  0  0  0
  142.6010   54.7030  -10.7450 C   0  0  0  0  0  0
  143.7220   54.1540  -12.0380 S   0  0  0  0  0  0
  145.2780   54.6840  -11.3710 C   0  0  0  0  0  0
  142.8130   50.3380   -9.3190 N   0  0  0  0  0  0
  142.9810   49.2650   -8.3430 C   0  0  2  0  0  0
  144.1230   49.5360   -7.3740 C   0  0  0  0  0  0
  145.1820   50.0230   -7.7600 O   0  0  0  0  0  0
  143.1750   47.9230   -9.0610 C   0  0  0  0  0  0
  141.9580   47.4770   -9.8410 C   0  0  0  0  0  0
  140.8030   47.0510   -9.1750 C   0  0  0  0  0  0
  141.9540   47.5100  -11.2420 C   0  0  0  0  0  0
  139.6580   46.6640   -9.8850 C   0  0  0  0  0  0
  140.8130   47.1260  -11.9700 C   0  0  0  0  0  0
  139.6600   46.7010  -11.2900 C   0  0  0  0  0  0
  143.8790   49.2260   -6.1060 N   0  0  0  0  0  0
  144.8500   49.4300   -5.0400 C   0  0  2  0  0  0
  146.1200   48.6140   -5.2290 C   0  0  0  0  0  0
  146.0730   47.4590   -5.6420 O   0  0  0  0  0  0
  144.2320   49.0460   -3.6930 C   0  0  0  0  0  0
  142.9810   49.6680   -3.4970 O   0  0  0  0  0  0
  147.2580   49.2170   -4.9080 N   0  0  0  0  0  0
  148.5310   48.5190   -5.0020 C   0  0  2  0  0  0
  148.8940   48.0600   -3.5890 C   0  0  0  0  0  0
  148.7410   48.8150   -2.6270 O   0  0  0  0  0  0
  149.6060   49.4570   -5.5400 C   0  0  0  0  0  0
  149.3570   46.8220   -3.4690 N   0  0  0  0  0  0
  149.7530   46.2610   -2.1810 C   0  0  2  0  0  0
  151.1290   46.7560   -1.7360 C   0  0  0  0  0  0
  152.0530   46.8380   -2.5490 O   0  0  0  0  0  0
  149.7860   44.7310   -2.2650 C   0  0  0  0  0  0
  148.5230   43.9370   -1.9120 C   0  0  0  0  0  0
  148.6760   42.4720   -2.3530 C   0  0  0  0  0  0
  148.2770   44.0280   -0.4090 C   0  0  0  0  0  0
  151.2620   47.0990   -0.4550 N   0  0  0  0  0  0
  152.5580   47.5240    0.0820 C   0  0  2  0  0  0
  153.3880   46.2440    0.1880 C   0  0  0  0  0  0
  152.8300   45.1400    0.1820 O   0  0  0  0  0  0
  152.4150   48.1140    1.4890 C   0  0  0  0  0  0
  151.6080   49.2770    1.4910 O   0  0  0  0  0  0
  154.7090   46.3730    0.2860 N   0  0  0  0  0  0
  155.5420   45.1820    0.4200 C   0  0  2  0  0  0
  155.3760   44.6680    1.8470 C   0  0  0  0  0  0
  155.4150   45.4420    2.8130 O   0  0  0  0  0  0
  157.0090   45.5040    0.1300 C   0  0  0  0  0  0
  157.9070   44.2800    0.0910 C   0  0  0  0  0  0
  159.2160   44.5410   -0.6300 C   0  0  0  0  0  0
  159.8970   45.5310   -0.2890 O   0  0  0  0  0  0
  159.5670   43.7560   -1.5370 O   0  0  0  0  0  0
  155.1780   43.3630    1.9730 N   0  0  0  0  0  0
  154.9760   42.7740    3.2810 C   0  0  0  0  0  0
  153.5150   42.3860    3.3900 C   0  0  0  0  0  0
  153.1620   41.4150    4.0610 O   0  0  0  0  0  0
  152.6640   43.1610    2.7220 N   0  0  0  0  0  0
  151.2300   42.9050    2.7050 C   0  0  2  0  0  0
  150.9910   41.8470    1.6360 C   0  0  0  0  0  0
  149.9810   41.1380    1.6510 O   0  0  0  0  0  0
  150.4740   44.1800    2.3590 C   0  0  0  0  0  0
  151.9480   41.7550    0.7150 N   0  0  0  0  0  0
  151.9070   40.8040   -0.3900 C   0  0  2  0  0  0
  152.1880   39.3810    0.0930 C   0  0  0  0  0  0
  151.3310   38.5010   -0.1360 O   0  0  0  0  0  0
  152.9520   41.1690   -1.4690 C   0  0  2  0  0  0
  152.7360   42.5140   -1.9130 O   0  0  0  0  0  0
  152.8410   40.2270   -2.6580 C   0  0  0  0  0  0
  153.2620   39.1640    0.6940 O   0  0  0  0  0  0
  127.4291   52.1216  -21.3883 H   0  0  0  0  0  0
  127.0831   52.0283  -19.6281 H   0  0  0  0  0  0
  129.5220   52.6579  -20.8530 H   0  0  0  0  0  0
  128.8746   55.0956  -19.2679 H   0  0  0  0  0  0
  129.7404   54.9510  -20.8351 H   0  0  0  0  0  0
  127.1878   55.9460  -20.7573 H   0  0  0  0  0  0
  127.7202   54.8819  -22.1030 H   0  0  0  0  0  0
  125.7647   53.6502  -21.2785 H   0  0  0  0  0  0
  126.1166   54.0726  -19.5685 H   0  0  0  0  0  0
  131.0523   52.0708  -19.4158 H   0  0  0  0  0  0
  129.9258   51.8148  -16.6182 H   0  0  0  0  0  0
  130.5462   49.6261  -17.5152 H   0  0  0  0  0  0
  132.1196   50.2517  -18.1149 H   0  0  0  0  0  0
  132.9724   50.4205  -15.8797 H   0  0  0  0  0  0
  131.3684   50.0055  -15.1857 H   0  0  0  0  0  0
  133.3593   46.8293  -15.1711 H   0  0  0  0  0  0
  130.7985   52.6360  -14.8205 H   0  0  0  0  0  0
  133.0365   54.5927  -15.2651 H   0  0  0  0  0  0
  131.5910   53.6492  -12.7262 H   0  0  0  0  0  0
  133.9349   54.2911  -12.2217 H   0  0  0  0  0  0
  132.7595   55.4841  -11.5722 H   0  0  0  0  0  0
  133.6820   55.8551  -13.0682 H   0  0  0  0  0  0
  130.2551   55.0083  -14.3130 H   0  0  0  0  0  0
  131.5281   56.2755  -14.2921 H   0  0  0  0  0  0
  130.6056   55.9044  -12.7961 H   0  0  0  0  0  0
  135.2033   54.0142  -15.1110 H   0  0  0  0  0  0
  135.6397   51.2643  -13.9538 H   0  0  0  0  0  0
  137.1288   52.9784  -16.0166 H   0  0  0  0  0  0
  137.2645   50.7779  -17.2052 H   0  0  0  0  0  0
  136.4705   49.9908  -15.7993 H   0  0  0  0  0  0
  138.8694   52.4881  -14.3474 H   0  0  0  0  0  0
  139.1468   51.6024  -15.8853 H   0  0  0  0  0  0
  138.4805   50.7379  -14.4586 H   0  0  0  0  0  0
  134.9187   50.3623  -17.6152 H   0  0  0  0  0  0
  135.2686   52.1238  -17.5790 H   0  0  0  0  0  0
  134.4746   51.3368  -16.1730 H   0  0  0  0  0  0
  137.9150   53.1741  -10.6773 H   0  0  0  0  0  0
  138.1660   51.0618   -9.0382 H   0  0  0  0  0  0
  136.4981   51.5357   -9.5072 H   0  0  0  0  0  0
  138.3356   49.4707  -10.8771 H   0  0  0  0  0  0
  136.7138   49.1639  -10.1684 H   0  0  0  0  0  0
  135.5855   50.4754  -11.9010 H   0  0  0  0  0  0
  136.9524   49.8238  -12.8674 H   0  0  0  0  0  0
  139.8004   53.2517   -9.5578 H   0  0  0  0  0  0
  142.1408   52.1323  -11.1840 H   0  0  0  0  0  0
  141.8244   54.0801   -8.8778 H   0  0  0  0  0  0
  143.4241   53.3856   -9.3082 H   0  0  0  0  0  0
  141.6268   54.9352  -11.2000 H   0  0  0  0  0  0
  143.0156   55.6111  -10.2829 H   0  0  0  0  0  0
  146.0863   54.4127  -12.0660 H   0  0  0  0  0  0
  145.4477   54.1928  -10.4015 H   0  0  0  0  0  0
  145.2647   55.7751  -11.2319 H   0  0  0  0  0  0
  143.4601   50.3796  -10.2075 H   0  0  0  0  0  0
  142.0464   49.2634   -7.7629 H   0  0  0  0  0  0
  144.0108   48.0048   -9.7715 H   0  0  0  0  0  0
  143.3980   47.1402   -8.3211 H   0  0  0  0  0  0
  140.7937   47.0196   -8.0855 H   0  0  0  0  0  0
  142.8468   47.8375  -11.7747 H   0  0  0  0  0  0
  138.7680   46.3351   -9.3486 H   0  0  0  0  0  0
  140.8238   47.1583  -13.0595 H   0  0  0  0  0  0
  138.7728   46.4019  -11.8481 H   0  0  0  0  0  0
  142.8922   48.7975   -5.8765 H   0  0  0  0  0  0
  145.0932   50.5005   -5.1101 H   0  0  0  0  0  0
  144.0870   47.9563   -3.6535 H   0  0  0  0  0  0
  144.9042   49.3561   -2.8794 H   0  0  0  0  0  0
  142.4154   49.4863   -2.5712 H   0  0  0  0  0  0
  147.2277   50.2621   -4.5662 H   0  0  0  0  0  0
  148.4126   47.6747   -5.6971 H   0  0  0  0  0  0
  149.3352   49.7808   -6.5558 H   0  0  0  0  0  0
  150.5714   48.9305   -5.5681 H   0  0  0  0  0  0
  149.6869   50.3364   -4.8842 H   0  0  0  0  0  0
  149.4378   46.2138   -4.3820 H   0  0  0  0  0  0
  148.9859   46.6199   -1.4790 H   0  0  0  0  0  0
  150.0236   44.4254   -3.2946 H   0  0  0  0  0  0
  150.5547   44.3427   -1.5806 H   0  0  0  0  0  0
  147.6569   44.3664   -2.4369 H   0  0  0  0  0  0
  148.8521   42.4322   -3.4381 H   0  0  0  0  0  0
  147.7572   41.9181   -2.1101 H   0  0  0  0  0  0
  149.5281   42.0176   -1.8263 H   0  0  0  0  0  0
  148.1711   45.0835   -0.1181 H   0  0  0  0  0  0
  149.1268   43.5828    0.1292 H   0  0  0  0  0  0
  147.3558   43.4833   -0.1546 H   0  0  0  0  0  0
  150.3806   47.0596    0.2020 H   0  0  0  0  0  0
  152.9761   48.2896   -0.5881 H   0  0  0  0  0  0
  151.9508   47.3701    2.1531 H   0  0  0  0  0  0
  153.4088   48.3822    1.8769 H   0  0  0  0  0  0
  151.4156   49.8113    2.4331 H   0  0  0  0  0  0
  155.1737   47.3698    0.2665 H   0  0  0  0  0  0
  155.1967   44.4450   -0.3200 H   0  0  0  0  0  0
  157.0890   45.9999   -0.8486 H   0  0  0  0  0  0
  157.3995   46.1715    0.9123 H   0  0  0  0  0  0
  158.1436   43.9660    1.1183 H   0  0  0  0  0  0
  157.3899   43.4623   -0.4324 H   0  0  0  0  0  0
  160.5119   43.9239   -2.0746 H   0  0  0  0  0  0
  155.1678   42.7267    1.0758 H   0  0  0  0  0  0
  155.6168   41.8861    3.3862 H   0  0  0  0  0  0
  155.2362   43.5081    4.0578 H   0  0  0  0  0  0
  153.0761   44.0188    2.1703 H   0  0  0  0  0  0
  150.9164   42.5671    3.7037 H   0  0  0  0  0  0
  150.6542   44.9359    3.1376 H   0  0  0  0  0  0
  149.3971   43.9633    2.3006 H   0  0  0  0  0  0
  150.8243   44.5622    1.3888 H   0  0  0  0  0  0
  152.8003   42.4428    0.8173 H   0  0  0  0  0  0
  150.8789   40.8845   -0.7728 H   0  0  0  0  0  0
  153.9717   41.1408   -1.0573 H   0  0  0  0  0  0
  152.7766   43.3442   -1.1925 H   0  0  0  0  0  0
  153.0060   39.1924   -2.3228 H   0  0  0  0  0  0
  153.5986   40.4942   -3.4095 H   0  0  0  0  0  0
  151.8381   40.3131   -3.1016 H   0  0  0  0  0  0
  153.4955   38.1514    1.0548 H   0  0  0  0  0  0
  1  2  1  0  0  0
  1  7  1  0  0  0
  1109  1  0  0  0
  1110  1  0  0  0
  2  3  1  0  0  0
  2  5  1  0  0  0
  2111  1  0  0  0
  3  4  2  0  0  0
  3  8  1  0  0  0
  5  6  1  0  0  0
  5112  1  0  0  0
  5113  1  0  0  0
  6  7  1  0  0  0
  6114  1  0  0  0
  6115  1  0  0  0
  7116  1  0  0  0
  7117  1  0  0  0
  8  9  1  0  0  0
  8118  1  0  0  0
  9 10  1  0  0  0
  9 12  1  0  0  0
  9119  1  0  0  0
 10 11  2  0  0  0
 10 17  1  0  0  0
 12 13  1  0  0  0
 12120  1  0  0  0
 12121  1  0  0  0
 13 14  1  0  0  0
 13122  1  0  0  0
 13123  1  0  0  0
 14 15  1  0  0  0
 14 16  2  0  0  0
 15124  1  0  0  0
 17 18  1  0  0  0
 17125  1  0  0  0
 18 19  1  0  0  0
 18 21  1  0  0  0
 18126  1  0  0  0
 19 20  2  0  0  0
 19 24  1  0  0  0
 21 22  1  0  0  0
 21 23  1  0  0  0
 21127  1  0  0  0
 22128  1  0  0  0
 22129  1  0  0  0
 22130  1  0  0  0
 23131  1  0  0  0
 23132  1  0  0  0
 23133  1  0  0  0
 24 25  1  0  0  0
 24134  1  0  0  0
 25 26  1  0  0  0
 25 28  1  0  0  0
 25135  1  0  0  0
 26 27  2  0  0  0
 26 32  1  0  0  0
 28 29  1  0  0  0
 28 30  1  0  0  0
 28136  1  0  0  0
 29 31  1  0  0  0
 29137  1  0  0  0
 29138  1  0  0  0
 30139  1  0  0  0
 30140  1  0  0  0
 30141  1  0  0  0
 31142  1  0  0  0
 31143  1  0  0  0
 31144  1  0  0  0
 32 33  1  0  0  0
 32 38  1  0  0  0
 33 34  1  0  0  0
 33 36  1  0  0  0
 33145  1  0  0  0
 34 35  2  0  0  0
 34 39  1  0  0  0
 36 37  1  0  0  0
 36146  1  0  0  0
 36147  1  0  0  0
 37 38  1  0  0  0
 37148  1  0  0  0
 37149  1  0  0  0
 38150  1  0  0  0
 38151  1  0  0  0
 39 40  1  0  0  0
 39152  1  0  0  0
 40 41  1  0  0  0
 40 43  1  0  0  0
 40153  1  0  0  0
 41 42  2  0  0  0
 41 47  1  0  0  0
 43 44  1  0  0  0
 43154  1  0  0  0
 43155  1  0  0  0
 44 45  1  0  0  0
 44156  1  0  0  0
 44157  1  0  0  0
 45 46  1  0  0  0
 46158  1  0  0  0
 46159  1  0  0  0
 46160  1  0  0  0
 47 48  1  0  0  0
 47161  1  0  0  0
 48 49  1  0  0  0
 48 51  1  0  0  0
 48162  1  0  0  0
 49 50  2  0  0  0
 49 58  1  0  0  0
 51 52  1  0  0  0
 51163  1  0  0  0
 51164  1  0  0  0
 52 53  2  0  0  0
 52 54  1  0  0  0
 53 55  1  0  0  0
 53165  1  0  0  0
 54 56  2  0  0  0
 54166  1  0  0  0
 55 57  2  0  0  0
 55167  1  0  0  0
 56 57  1  0  0  0
 56168  1  0  0  0
 57169  1  0  0  0
 58 59  1  0  0  0
 58170  1  0  0  0
 59 60  1  0  0  0
 59 62  1  0  0  0
 59171  1  0  0  0
 60 61  2  0  0  0
 60 64  1  0  0  0
 62 63  1  0  0  0
 62172  1  0  0  0
 62173  1  0  0  0
 63174  1  0  0  0
 64 65  1  0  0  0
 64175  1  0  0  0
 65 66  1  0  0  0
 65 68  1  0  0  0
 65176  1  0  0  0
 66 67  2  0  0  0
 66 69  1  0  0  0
 68177  1  0  0  0
 68178  1  0  0  0
 68179  1  0  0  0
 69 70  1  0  0  0
 69180  1  0  0  0
 70 71  1  0  0  0
 70 73  1  0  0  0
 70181  1  0  0  0
 71 72  2  0  0  0
 71 77  1  0  0  0
 73 74  1  0  0  0
 73182  1  0  0  0
 73183  1  0  0  0
 74 75  1  0  0  0
 74 76  1  0  0  0
 74184  1  0  0  0
 75185  1  0  0  0
 75186  1  0  0  0
 75187  1  0  0  0
 76188  1  0  0  0
 76189  1  0  0  0
 76190  1  0  0  0
 77 78  1  0  0  0
 77191  1  0  0  0
 78 79  1  0  0  0
 78 81  1  0  0  0
 78192  1  0  0  0
 79 80  2  0  0  0
 79 83  1  0  0  0
 81 82  1  0  0  0
 81193  1  0  0  0
 81194  1  0  0  0
 82195  1  0  0  0
 83 84  1  0  0  0
 83196  1  0  0  0
 84 85  1  0  0  0
 84 87  1  0  0  0
 84197  1  0  0  0
 85 86  2  0  0  0
 85 92  1  0  0  0
 87 88  1  0  0  0
 87198  1  0  0  0
 87199  1  0  0  0
 88 89  1  0  0  0
 88200  1  0  0  0
 88201  1  0  0  0
 89 90  2  0  0  0
 89 91  1  0  0  0
 91202  1  0  0  0
 92 93  1  0  0  0
 92203  1  0  0  0
 93 94  1  0  0  0
 93204  1  0  0  0
 93205  1  0  0  0
 94 95  2  0  0  0
 94 96  1  0  0  0
 96 97  1  0  0  0
 96206  1  0  0  0
 97 98  1  0  0  0
 97100  1  0  0  0
 97207  1  0  0  0
 98 99  2  0  0  0
 98101  1  0  0  0
100208  1  0  0  0
100209  1  0  0  0
100210  1  0  0  0
101102  1  0  0  0
101211  1  0  0  0
102103  1  0  0  0
102105  1  0  0  0
102212  1  0  0  0
103104  2  0  0  0
103108  1  0  0  0
105106  1  0  0  0
105107  1  0  0  0
105213  1  0  0  0
106214  1  0  0  0
107215  1  0  0  0
107216  1  0  0  0
107217  1  0  0  0
108218  1  0  0  0
M  CHG  1   1   1
M  END
> <s_m_source_file>
../1sje_ligand.sdf

> <i_m_source_file_index>
1

> <s_epik_input>
W0NIMl0xW0NIMl1bQ0gyXVtOSDIrXVtDQEBIXTFDKD1PKVtOSF1bQ0BASF0oW0NIMl1bQ0gyXUMoPU8pW09IXSlDKD1PKVtOSF1bQ0BASF0oW0NIXShbQ0gzXSlbQ0gzXSlDKD1PKVtOSF1bQ0BASF0oW0NAQEhdKFtDSDNdKVtDSDJdW0NIM10pQyg9TylOMltDQEBIXShbQ0gyXVtDSDJdW0NIMl0yKUMoPU8pW05IXVtDQEBIXShbQ0gyXVtDSDJdU1tDSDNdKUMoPU8pW05IXVtDQEBIXShbQ0gyXWMzW2NIXVtjSF1bY0hdW2NIXVtjSF0zKUMoPU8pW05IXVtDQEBIXShbQ0gyXVtPSF0pQyg9TylbTkhdW0NAQEhdKFtDSDNdKUMoPU8pW05IXVtDQEBIXShbQ0gyXVtDSF0oW0NIM10pW0NIM10pQyg9TylbTkhdW0NAQEhdKFtDSDJdW09IXSlDKD1PKVtOSF1bQ0BASF0oW0NIMl1bQ0gyXUMoPU8pW09IXSlDKD1PKVtOSF1bQ0gyXUMoPU8pW05IXVtDQEBIXShbQ0gzXSlDKD1PKVtOSF1bQ0BIXShDKD1PKVtPSF0pW0NASF0oW09IXSlbQ0gzXQ==

> <s_epik_cmdline>
J2VwaWtfYXBwJywgJy1pbWFlJywgJ2xpZ2FuZF9wcm8ubWFlJywgJy1vbWFlJywgJ2xpZ2FuZF9wcmVwLm1hZScsICctbXMnLCAnMScsICctcGgnLCAnNycsICctcGh0JywgJzAuNScsICctbnQn

> <s_epik_pKa_notes>
Molecule size exceeds maximum supported for generating protonation states

$$$$
