1sjh_ligand
                    3D
 Schrodinger Suite 2020-3.
194196  0  0  1  0            999 V2000
  127.1410   52.6590  -20.4570 N   0  3  0  0  0  0
  128.5320   53.0750  -20.1770 C   0  0  2  0  0  0
  128.9110   52.6360  -18.7650 C   0  0  0  0  0  0
  128.0980   52.7130  -17.8430 O   0  0  0  0  0  0
  128.5810   54.5950  -20.2860 C   0  0  0  0  0  0
  127.3580   54.8890  -21.1370 C   0  0  0  0  0  0
  126.3130   53.8540  -20.6900 C   0  0  0  0  0  0
  130.1490   52.1850  -18.6000 N   0  0  0  0  0  0
  130.6050   51.7360  -17.2960 C   0  0  2  0  0  0
  131.6590   52.6280  -16.6490 C   0  0  0  0  0  0
  132.6140   53.0680  -17.2970 O   0  0  0  0  0  0
  131.1530   50.3160  -17.3910 C   0  0  0  0  0  0
  131.7680   49.8200  -16.1000 C   0  0  0  0  0  0
  132.2150   48.3800  -16.1900 C   0  0  0  0  0  0
  132.7850   47.8660  -15.2050 O   0  0  0  0  0  0
  131.9950   47.7560  -17.2490 O   0  0  0  0  0  0
  131.4610   52.9050  -15.3650 N   0  0  0  0  0  0
  132.4290   53.6780  -14.6030 C   0  0  2  0  0  0
  133.4820   52.6270  -14.2460 C   0  0  0  0  0  0
  133.1460   51.5520  -13.7550 O   0  0  0  0  0  0
  131.8120   54.2580  -13.3090 C   0  0  0  0  0  0
  132.9120   54.8770  -12.4410 C   0  0  0  0  0  0
  130.7690   55.3250  -13.6590 C   0  0  0  0  0  0
  134.7450   52.9260  -14.5260 N   0  0  0  0  0  0
  135.8340   51.9930  -14.2530 C   0  0  2  0  0  0
  136.6820   52.4970  -13.0980 C   0  0  0  0  0  0
  137.0690   53.6620  -13.0660 O   0  0  0  0  0  0
  136.7520   51.8330  -15.4910 C   0  0  2  0  0  0
  135.9280   51.3570  -16.6920 C   0  0  0  0  0  0
  137.8720   50.8480  -15.1850 C   0  0  0  0  0  0
  136.7180   51.2740  -17.9940 C   0  0  0  0  0  0
  136.9980   51.6210  -12.1360 N   0  0  0  0  0  0
  137.8140   52.0440  -10.9940 C   0  0  2  0  0  0
  139.3040   51.7550  -11.1850 C   0  0  0  0  0  0
  139.6840   50.9590  -12.0370 O   0  0  0  0  0  0
  137.2570   51.2020   -9.8640 C   0  0  0  0  0  0
  137.0770   49.8620  -10.5750 C   0  0  0  0  0  0
  136.4620   50.2620  -11.9250 C   0  0  0  0  0  0
  140.1300   52.4320  -10.3880 N   0  0  0  0  0  0
  141.5740   52.2120  -10.3620 C   0  0  2  0  0  0
  141.7120   51.1200   -9.3070 C   0  0  0  0  0  0
  140.9770   51.1360   -8.3270 O   0  0  0  0  0  0
  142.3050   53.4630   -9.8630 C   0  0  0  0  0  0
  142.4020   54.5820  -10.8720 C   0  0  0  0  0  0
  143.5230   54.1400  -12.1850 S   0  0  0  0  0  0
  145.0460   54.7910  -11.5380 C   0  0  0  0  0  0
  142.6330   50.1790   -9.4790 N   0  0  0  0  0  0
  142.7840   49.1160   -8.4820 C   0  0  2  0  0  0
  143.9040   49.3970   -7.4800 C   0  0  0  0  0  0
  144.9670   49.8990   -7.8370 O   0  0  0  0  0  0
  142.9970   47.7620   -9.1720 C   0  0  0  0  0  0
  141.8060   47.3010   -9.9800 C   0  0  0  0  0  0
  140.6030   46.9670   -9.3460 C   0  0  0  0  0  0
  141.8780   47.2140  -11.3750 C   0  0  0  0  0  0
  139.4880   46.5510  -10.0820 C   0  0  0  0  0  0
  140.7710   46.8020  -12.1260 C   0  0  0  0  0  0
  139.5690   46.4680  -11.4790 C   0  0  0  0  0  0
  143.6390   49.0690   -6.2190 N   0  0  0  0  0  0
  144.5770   49.2880   -5.1220 C   0  0  2  0  0  0
  145.9180   48.5970   -5.2760 C   0  0  0  0  0  0
  145.9880   47.4290   -5.6560 O   0  0  0  0  0  0
  143.9650   48.8110   -3.8050 C   0  0  0  0  0  0
  142.7020   49.3870   -3.5720 O   0  0  0  0  0  0
  146.9830   49.3260   -4.9580 N   0  0  0  0  0  0
  148.3340   48.7720   -5.0000 C   0  0  2  0  0  0
  148.6090   48.2440   -3.5900 C   0  0  0  0  0  0
  148.3510   48.9350   -2.6020 O   0  0  0  0  0  0
  149.3520   49.8660   -5.3590 C   0  0  0  0  0  0
  149.1240   47.0230   -3.5020 N   0  0  0  0  0  0
  149.4380   46.4060   -2.2150 C   0  0  2  0  0  0
  150.8540   46.7720   -1.7570 C   0  0  0  0  0  0
  151.7990   46.7480   -2.5550 O   0  0  0  0  0  0
  149.3140   44.8850   -2.3360 C   0  0  0  0  0  0
  149.4910   43.9750   -1.1150 C   0  0  0  0  0  0
  148.4870   44.3180   -0.0170 C   0  0  0  0  0  0
  149.2840   42.5320   -1.5720 C   0  0  0  0  0  0
  150.9950   47.1270   -0.4790 N   0  0  0  0  0  0
  152.3050   47.4590    0.0780 C   0  0  2  0  0  0
  153.0670   46.1460    0.2080 C   0  0  0  0  0  0
  152.4620   45.0730    0.2770 O   0  0  0  0  0  0
  152.1760   48.0780    1.4720 C   0  0  0  0  0  0
  151.3420   49.2190    1.4610 O   0  0  0  0  0  0
  154.3910   46.2240    0.2480 N   0  0  0  0  0  0
  155.1940   45.0140    0.3890 C   0  0  2  0  0  0
  155.0690   44.5380    1.8350 C   0  0  0  0  0  0
  155.2880   45.3120    2.7720 O   0  0  0  0  0  0
  156.6580   45.3060    0.0420 C   0  0  0  0  0  0
  157.5580   44.0830    0.0140 C   0  0  0  0  0  0
  158.8530   44.3320   -0.7410 C   0  0  0  0  0  0
  159.5370   45.3310   -0.4400 O   0  0  0  0  0  0
  159.1890   43.5260   -1.6350 O   0  0  0  0  0  0
  154.6900   43.2750    2.0020 N   0  0  0  0  0  0
  154.5260   42.7000    3.3260 C   0  0  0  0  0  0
  155.6260   43.0560    4.3110 C   0  0  0  0  0  0
  156.5070   42.2020    4.5470 O   0  0  0  0  0  0
  155.6160   44.1850    4.8460 O   0  0  0  0  0  0
  127.1228   52.0185  -21.3511 H   0  0  0  0  0  0
  126.7455   52.0991  -19.5967 H   0  0  0  0  0  0
  129.2135   52.6044  -20.9010 H   0  0  0  0  0  0
  128.5230   55.0368  -19.2803 H   0  0  0  0  0  0
  129.5233   54.8980  -20.7658 H   0  0  0  0  0  0
  127.0194   55.9186  -20.9490 H   0  0  0  0  0  0
  127.6155   54.7762  -22.2005 H   0  0  0  0  0  0
  125.5646   53.6359  -21.4661 H   0  0  0  0  0  0
  125.8025   54.1340  -19.7568 H   0  0  0  0  0  0
  130.8314   52.1533  -19.4622 H   0  0  0  0  0  0
  129.6868   51.7993  -16.6935 H   0  0  0  0  0  0
  130.3384   49.6255  -17.6549 H   0  0  0  0  0  0
  131.9334   50.2752  -18.1651 H   0  0  0  0  0  0
  132.6472   50.4334  -15.8533 H   0  0  0  0  0  0
  131.0288   49.8957  -15.2889 H   0  0  0  0  0  0
  133.1193   46.8189  -15.2476 H   0  0  0  0  0  0
  130.5449   52.5383  -14.8789 H   0  0  0  0  0  0
  132.7905   54.5233  -15.2070 H   0  0  0  0  0  0
  131.3210   53.4522  -12.7437 H   0  0  0  0  0  0
  133.6585   54.1084  -12.1919 H   0  0  0  0  0  0
  132.4693   55.2721  -11.5147 H   0  0  0  0  0  0
  133.3980   55.6949  -12.9931 H   0  0  0  0  0  0
  129.9810   54.8769  -14.2821 H   0  0  0  0  0  0
  131.2530   56.1433  -14.2122 H   0  0  0  0  0  0
  130.3244   55.7205  -12.7338 H   0  0  0  0  0  0
  134.9605   53.9066  -14.9754 H   0  0  0  0  0  0
  135.3337   51.0493  -13.9899 H   0  0  0  0  0  0
  137.2136   52.7985  -15.7455 H   0  0  0  0  0  0
  135.5312   50.3514  -16.4890 H   0  0  0  0  0  0
  135.0934   52.0529  -16.8630 H   0  0  0  0  0  0
  138.4506   51.2074  -14.3212 H   0  0  0  0  0  0
  138.5338   50.7620  -16.0595 H   0  0  0  0  0  0
  137.4408   49.8629  -14.9532 H   0  0  0  0  0  0
  136.0575   50.9264  -18.8021 H   0  0  0  0  0  0
  137.5520   50.5671  -17.8724 H   0  0  0  0  0  0
  137.1142   52.2686  -18.2465 H   0  0  0  0  0  0
  137.7321   53.1317  -10.8519 H   0  0  0  0  0  0
  137.9828   51.1706   -9.0380 H   0  0  0  0  0  0
  136.3148   51.6438   -9.5075 H   0  0  0  0  0  0
  138.0554   49.3717  -10.6864 H   0  0  0  0  0  0
  136.4100   49.2190   -9.9820 H   0  0  0  0  0  0
  135.3631   50.3016  -11.8966 H   0  0  0  0  0  0
  136.7841   49.6087  -12.7493 H   0  0  0  0  0  0
  139.6766   53.1866   -9.7284 H   0  0  0  0  0  0
  141.9514   51.9633  -11.3649 H   0  0  0  0  0  0
  141.7791   53.8699   -8.9868 H   0  0  0  0  0  0
  143.3350   53.1982   -9.5821 H   0  0  0  0  0  0
  141.4077   54.7766  -11.3005 H   0  0  0  0  0  0
  142.7720   55.4916  -10.3764 H   0  0  0  0  0  0
  145.8608   54.5943  -12.2504 H   0  0  0  0  0  0
  145.2735   54.3056  -10.5775 H   0  0  0  0  0  0
  144.9458   55.8758  -11.3859 H   0  0  0  0  0  0
  143.2817   50.1962  -10.3672 H   0  0  0  0  0  0
  141.8323   49.1241   -7.9305 H   0  0  0  0  0  0
  143.8532   47.8313   -9.8591 H   0  0  0  0  0  0
  143.1974   46.9912   -8.4132 H   0  0  0  0  0  0
  140.5339   47.0322   -8.2601 H   0  0  0  0  0  0
  142.8077   47.4703  -11.8830 H   0  0  0  0  0  0
  138.5604   46.2926   -9.5712 H   0  0  0  0  0  0
  140.8412   46.7403  -13.2120 H   0  0  0  0  0  0
  138.7047   46.1463  -12.0601 H   0  0  0  0  0  0
  142.6581   48.6121   -6.0210 H   0  0  0  0  0  0
  144.7407   50.3745   -5.1737 H   0  0  0  0  0  0
  143.8447   47.7179   -3.8313 H   0  0  0  0  0  0
  144.6277   49.0870   -2.9715 H   0  0  0  0  0  0
  142.1421   49.1342   -2.6595 H   0  0  0  0  0  0
  146.8268   50.3725   -4.6572 H   0  0  0  0  0  0
  148.3747   47.9853   -5.7677 H   0  0  0  0  0  0
  149.1468   50.2392   -6.3732 H   0  0  0  0  0  0
  150.3686   49.4476   -5.3210 H   0  0  0  0  0  0
  149.2692   50.6942   -4.6398 H   0  0  0  0  0  0
  149.3135   46.4738   -4.4361 H   0  0  0  0  0  0
  148.7040   46.8098   -1.5021 H   0  0  0  0  0  0
  148.3091   44.6270   -2.7015 H   0  0  0  0  0  0
  150.0687   44.5107   -3.0433 H   0  0  0  0  0  0
  150.4980   44.1128   -0.6942 H   0  0  0  0  0  0
  148.6403   45.3576    0.3083 H   0  0  0  0  0  0
  148.6328   43.6410    0.8377 H   0  0  0  0  0  0
  147.4646   44.2025   -0.4060 H   0  0  0  0  0  0
  150.0095   42.2902   -2.3627 H   0  0  0  0  0  0
  148.2626   42.4142   -1.9630 H   0  0  0  0  0  0
  149.4309   41.8527   -0.7194 H   0  0  0  0  0  0
  150.0998   47.1671    0.1590 H   0  0  0  0  0  0
  152.7812   48.1806   -0.6021 H   0  0  0  0  0  0
  151.7434   47.3392    2.1627 H   0  0  0  0  0  0
  153.1705   48.3791    1.8330 H   0  0  0  0  0  0
  151.1543   49.7721    2.3931 H   0  0  0  0  0  0
  154.8830   47.2051    0.1745 H   0  0  0  0  0  0
  154.8016   44.2629   -0.3123 H   0  0  0  0  0  0
  156.7137   45.7654   -0.9559 H   0  0  0  0  0  0
  157.0809   45.9957    0.7872 H   0  0  0  0  0  0
  157.8160   43.7940    1.0435 H   0  0  0  0  0  0
  157.0324   43.2521   -0.4793 H   0  0  0  0  0  0
  160.1219   43.6842   -2.1959 H   0  0  0  0  0  0
  154.4994   42.6621    1.1087 H   0  0  0  0  0  0
  153.5801   43.0516    3.7638 H   0  0  0  0  0  0
  154.5093   41.6028    3.2498 H   0  0  0  0  0  0
  157.3173   42.4290    5.2555 H   0  0  0  0  0  0
  1  2  1  0  0  0
  1  7  1  0  0  0
  1 97  1  0  0  0
  1 98  1  0  0  0
  2  3  1  0  0  0
  2  5  1  0  0  0
  2 99  1  0  0  0
  3  4  2  0  0  0
  3  8  1  0  0  0
  5  6  1  0  0  0
  5100  1  0  0  0
  5101  1  0  0  0
  6  7  1  0  0  0
  6102  1  0  0  0
  6103  1  0  0  0
  7104  1  0  0  0
  7105  1  0  0  0
  8  9  1  0  0  0
  8106  1  0  0  0
  9 10  1  0  0  0
  9 12  1  0  0  0
  9107  1  0  0  0
 10 11  2  0  0  0
 10 17  1  0  0  0
 12 13  1  0  0  0
 12108  1  0  0  0
 12109  1  0  0  0
 13 14  1  0  0  0
 13110  1  0  0  0
 13111  1  0  0  0
 14 15  1  0  0  0
 14 16  2  0  0  0
 15112  1  0  0  0
 17 18  1  0  0  0
 17113  1  0  0  0
 18 19  1  0  0  0
 18 21  1  0  0  0
 18114  1  0  0  0
 19 20  2  0  0  0
 19 24  1  0  0  0
 21 22  1  0  0  0
 21 23  1  0  0  0
 21115  1  0  0  0
 22116  1  0  0  0
 22117  1  0  0  0
 22118  1  0  0  0
 23119  1  0  0  0
 23120  1  0  0  0
 23121  1  0  0  0
 24 25  1  0  0  0
 24122  1  0  0  0
 25 26  1  0  0  0
 25 28  1  0  0  0
 25123  1  0  0  0
 26 27  2  0  0  0
 26 32  1  0  0  0
 28 29  1  0  0  0
 28 30  1  0  0  0
 28124  1  0  0  0
 29 31  1  0  0  0
 29125  1  0  0  0
 29126  1  0  0  0
 30127  1  0  0  0
 30128  1  0  0  0
 30129  1  0  0  0
 31130  1  0  0  0
 31131  1  0  0  0
 31132  1  0  0  0
 32 33  1  0  0  0
 32 38  1  0  0  0
 33 34  1  0  0  0
 33 36  1  0  0  0
 33133  1  0  0  0
 34 35  2  0  0  0
 34 39  1  0  0  0
 36 37  1  0  0  0
 36134  1  0  0  0
 36135  1  0  0  0
 37 38  1  0  0  0
 37136  1  0  0  0
 37137  1  0  0  0
 38138  1  0  0  0
 38139  1  0  0  0
 39 40  1  0  0  0
 39140  1  0  0  0
 40 41  1  0  0  0
 40 43  1  0  0  0
 40141  1  0  0  0
 41 42  2  0  0  0
 41 47  1  0  0  0
 43 44  1  0  0  0
 43142  1  0  0  0
 43143  1  0  0  0
 44 45  1  0  0  0
 44144  1  0  0  0
 44145  1  0  0  0
 45 46  1  0  0  0
 46146  1  0  0  0
 46147  1  0  0  0
 46148  1  0  0  0
 47 48  1  0  0  0
 47149  1  0  0  0
 48 49  1  0  0  0
 48 51  1  0  0  0
 48150  1  0  0  0
 49 50  2  0  0  0
 49 58  1  0  0  0
 51 52  1  0  0  0
 51151  1  0  0  0
 51152  1  0  0  0
 52 53  2  0  0  0
 52 54  1  0  0  0
 53 55  1  0  0  0
 53153  1  0  0  0
 54 56  2  0  0  0
 54154  1  0  0  0
 55 57  2  0  0  0
 55155  1  0  0  0
 56 57  1  0  0  0
 56156  1  0  0  0
 57157  1  0  0  0
 58 59  1  0  0  0
 58158  1  0  0  0
 59 60  1  0  0  0
 59 62  1  0  0  0
 59159  1  0  0  0
 60 61  2  0  0  0
 60 64  1  0  0  0
 62 63  1  0  0  0
 62160  1  0  0  0
 62161  1  0  0  0
 63162  1  0  0  0
 64 65  1  0  0  0
 64163  1  0  0  0
 65 66  1  0  0  0
 65 68  1  0  0  0
 65164  1  0  0  0
 66 67  2  0  0  0
 66 69  1  0  0  0
 68165  1  0  0  0
 68166  1  0  0  0
 68167  1  0  0  0
 69 70  1  0  0  0
 69168  1  0  0  0
 70 71  1  0  0  0
 70 73  1  0  0  0
 70169  1  0  0  0
 71 72  2  0  0  0
 71 77  1  0  0  0
 73 74  1  0  0  0
 73170  1  0  0  0
 73171  1  0  0  0
 74 75  1  0  0  0
 74 76  1  0  0  0
 74172  1  0  0  0
 75173  1  0  0  0
 75174  1  0  0  0
 75175  1  0  0  0
 76176  1  0  0  0
 76177  1  0  0  0
 76178  1  0  0  0
 77 78  1  0  0  0
 77179  1  0  0  0
 78 79  1  0  0  0
 78 81  1  0  0  0
 78180  1  0  0  0
 79 80  2  0  0  0
 79 83  1  0  0  0
 81 82  1  0  0  0
 81181  1  0  0  0
 81182  1  0  0  0
 82183  1  0  0  0
 83 84  1  0  0  0
 83184  1  0  0  0
 84 85  1  0  0  0
 84 87  1  0  0  0
 84185  1  0  0  0
 85 86  2  0  0  0
 85 92  1  0  0  0
 87 88  1  0  0  0
 87186  1  0  0  0
 87187  1  0  0  0
 88 89  1  0  0  0
 88188  1  0  0  0
 88189  1  0  0  0
 89 90  2  0  0  0
 89 91  1  0  0  0
 91190  1  0  0  0
 92 93  1  0  0  0
 92191  1  0  0  0
 93 94  1  0  0  0
 93192  1  0  0  0
 93193  1  0  0  0
 94 95  1  0  0  0
 94 96  2  0  0  0
 95194  1  0  0  0
M  CHG  1   1   1
M  END
> <s_m_source_file>
../1sjh_ligand.sdf

> <i_m_source_file_index>
1

> <s_epik_input>
W0NIMl0xW0NIMl1bQ0gyXVtOSDIrXVtDQEBIXTFDKD1PKVtOSF1bQ0BASF0oW0NIMl1bQ0gyXUMoPU8pW09IXSlDKD1PKVtOSF1bQ0BASF0oW0NIXShbQ0gzXSlbQ0gzXSlDKD1PKVtOSF1bQ0BASF0oW0NAQEhdKFtDSDNdKVtDSDJdW0NIM10pQyg9TylOMltDQEBIXShbQ0gyXVtDSDJdW0NIMl0yKUMoPU8pW05IXVtDQEBIXShbQ0gyXVtDSDJdU1tDSDNdKUMoPU8pW05IXVtDQEBIXShbQ0gyXWMzW2NIXVtjSF1bY0hdW2NIXVtjSF0zKUMoPU8pW05IXVtDQEBIXShbQ0gyXVtPSF0pQyg9TylbTkhdW0NAQEhdKFtDSDNdKUMoPU8pW05IXVtDQEBIXShbQ0gyXVtDSF0oW0NIM10pW0NIM10pQyg9TylbTkhdW0NAQEhdKFtDSDJdW09IXSlDKD1PKVtOSF1bQ0BASF0oW0NIMl1bQ0gyXUMoPU8pW09IXSlDKD1PKVtOSF1bQ0gyXUMoPU8pW09IXQ==

> <s_epik_cmdline>
J2VwaWtfYXBwJywgJy1pbWFlJywgJ2xpZ2FuZF9wcm8ubWFlJywgJy1vbWFlJywgJ2xpZ2FuZF9wcmVwLm1hZScsICctbXMnLCAnMScsICctcGgnLCAnNycsICctcGh0JywgJzAuNScsICctbnQn

> <s_epik_pKa_notes>
Molecule size exceeds maximum supported for generating protonation states

$$$$
