1skj_ligand
                    3D
 Schrodinger Suite 2020-3.
 73 74  0  0  1  0            999 V2000
   -7.1100   64.5380  -11.0730 C   0  0  0  0  0  0
   -6.4970   64.0650   -9.7980 N   0  0  0  0  0  0
   -6.9290   64.7190   -8.5520 C   0  0  0  0  0  0
   -8.3980   64.5260   -8.2680 C   0  0  0  0  0  0
   -8.9010   63.2280   -8.1240 C   0  0  0  0  0  0
  -10.2470   63.0190   -7.8090 C   0  0  0  0  0  0
   -9.2710   65.6200   -8.1230 C   0  0  0  0  0  0
  -10.6250   65.4060   -7.8200 C   0  0  0  0  0  0
  -11.0850   64.1160   -7.6500 C   0  0  0  0  0  0
  -12.4090   63.9410   -7.2260 O   0  0  0  0  0  0
  -13.5110   63.4510   -8.2060 P   0  0  0  0  0  0
  -13.6860   64.4910   -9.3170 O   0  5  0  0  0  0
  -14.7480   63.4230   -7.3040 O   0  5  0  0  0  0
  -13.0840   62.0690   -8.6910 O   0  0  0  0  0  0
   -5.5800   63.0390   -9.8930 C   0  0  0  0  0  0
   -5.2140   62.6040  -10.9750 O   0  0  0  0  0  0
   -5.1430   62.4870   -8.7660 N   0  0  0  0  0  0
   -4.1710   61.3780   -8.7820 C   0  0  1  0  0  0
   -3.5220   61.2980   -7.3780 C   0  0  0  0  0  0
   -2.8380   62.5780   -6.8800 C   0  0  0  0  0  0
   -1.8840   63.1860   -7.8940 C   0  0  0  0  0  0
   -1.9000   64.4040   -8.0130 O   0  0  0  0  0  0
   -1.1540   62.4470   -8.5550 O   0  5  0  0  0  0
   -4.8630   60.0060   -9.0780 C   0  0  0  0  0  0
   -6.0520   59.8920   -8.8180 O   0  0  0  0  0  0
   -4.1790   58.9330   -9.5880 N   0  0  0  0  0  0
   -4.9200   57.6600   -9.5760 C   0  0  0  0  0  0
   -2.8610   59.0060  -10.2270 C   0  0  0  0  0  0
   -1.6460   58.7820   -9.3240 C   0  0  0  0  0  0
   -1.7920   57.5170   -8.4690 C   0  0  0  0  0  0
   -0.7740   56.2870   -6.5000 C   0  0  0  0  0  0
   -0.4810   57.0390   -7.8040 C   0  0  0  0  0  0
    0.3480   56.1350   -8.7470 C   0  0  0  0  0  0
    1.6150   55.6020   -8.0670 C   0  0  0  0  0  0
    1.3240   54.9230   -6.7180 C   0  0  0  0  0  0
    0.5200   55.8680   -5.8150 C   0  0  0  0  0  0
   -6.4700   65.7650  -11.7780 C   0  0  0  0  0  0
   -7.1700   66.0650  -12.8840 O   0  5  0  0  0  0
   -5.5010   66.3810  -11.4640 O   0  0  0  0  0  0
   -8.1563   64.7648  -10.8203 H   0  0  0  0  0  0
   -7.0756   63.6689  -11.7465 H   0  0  0  0  0  0
   -6.3657   64.3015   -7.7044 H   0  0  0  0  0  0
   -6.7398   65.8004   -8.6208 H   0  0  0  0  0  0
   -8.2381   62.3732   -8.2585 H   0  0  0  0  0  0
  -10.6346   62.0073   -7.6895 H   0  0  0  0  0  0
   -8.8952   66.6357   -8.2462 H   0  0  0  0  0  0
  -11.3065   66.2508   -7.7200 H   0  0  0  0  0  0
   -5.5209   62.8734   -7.8079 H   0  0  0  0  0  0
   -3.4520   61.6210   -9.5782 H   0  0  0  0  0  0
   -4.2919   61.0527   -6.6316 H   0  0  0  0  0  0
   -2.7474   60.5170   -7.3761 H   0  0  0  0  0  0
   -3.6014   63.3356   -6.6491 H   0  0  0  0  0  0
   -2.2573   62.3543   -5.9729 H   0  0  0  0  0  0
   -5.8796   57.7992   -9.0566 H   0  0  0  0  0  0
   -4.3271   56.8956   -9.0524 H   0  0  0  0  0  0
   -5.1066   57.3346  -10.6101 H   0  0  0  0  0  0
   -2.7926   58.2413  -11.0148 H   0  0  0  0  0  0
   -2.7234   60.0030  -10.6709 H   0  0  0  0  0  0
   -0.7433   58.6758   -9.9436 H   0  0  0  0  0  0
   -1.5278   59.6419   -8.6482 H   0  0  0  0  0  0
   -2.5125   57.7031   -7.6589 H   0  0  0  0  0  0
   -2.1525   56.6893   -9.0974 H   0  0  0  0  0  0
   -1.3401   56.9400   -5.8195 H   0  0  0  0  0  0
   -1.3659   55.3865   -6.7210 H   0  0  0  0  0  0
    0.1100   57.9373   -7.5722 H   0  0  0  0  0  0
   -0.2616   55.2742   -9.0593 H   0  0  0  0  0  0
    0.6511   56.7107   -9.6340 H   0  0  0  0  0  0
    2.0973   54.8601   -8.7204 H   0  0  0  0  0  0
    2.3098   56.4345   -7.8821 H   0  0  0  0  0  0
    0.7431   54.0044   -6.8876 H   0  0  0  0  0  0
    2.2730   54.6704   -6.2224 H   0  0  0  0  0  0
    1.1269   56.7600   -5.6007 H   0  0  0  0  0  0
    0.2854   55.3494   -4.8737 H   0  0  0  0  0  0
  1 37  1  0  0  0
  1  2  1  0  0  0
  1 40  1  0  0  0
  1 41  1  0  0  0
  2 15  1  0  0  0
  2  3  1  0  0  0
  3  4  1  0  0  0
  3 42  1  0  0  0
  3 43  1  0  0  0
  4  7  2  0  0  0
  4  5  1  0  0  0
  5  6  2  0  0  0
  5 44  1  0  0  0
  6  9  1  0  0  0
  6 45  1  0  0  0
  7  8  1  0  0  0
  7 46  1  0  0  0
  8  9  2  0  0  0
  8 47  1  0  0  0
  9 10  1  0  0  0
 10 11  1  0  0  0
 11 14  2  0  0  0
 11 13  1  0  0  0
 11 12  1  0  0  0
 15 17  1  0  0  0
 15 16  2  0  0  0
 17 18  1  0  0  0
 17 48  1  0  0  0
 18 24  1  0  0  0
 18 19  1  0  0  0
 18 49  1  0  0  0
 19 20  1  0  0  0
 19 50  1  0  0  0
 19 51  1  0  0  0
 20 21  1  0  0  0
 20 52  1  0  0  0
 20 53  1  0  0  0
 21 23  1  0  0  0
 21 22  2  0  0  0
 24 26  1  0  0  0
 24 25  2  0  0  0
 26 28  1  0  0  0
 26 27  1  0  0  0
 27 54  1  0  0  0
 27 55  1  0  0  0
 27 56  1  0  0  0
 28 29  1  0  0  0
 28 57  1  0  0  0
 28 58  1  0  0  0
 29 30  1  0  0  0
 29 59  1  0  0  0
 29 60  1  0  0  0
 30 32  1  0  0  0
 30 61  1  0  0  0
 30 62  1  0  0  0
 31 32  1  0  0  0
 31 36  1  0  0  0
 31 63  1  0  0  0
 31 64  1  0  0  0
 32 33  1  0  0  0
 32 65  1  0  0  0
 33 34  1  0  0  0
 33 66  1  0  0  0
 33 67  1  0  0  0
 34 35  1  0  0  0
 34 68  1  0  0  0
 34 69  1  0  0  0
 35 36  1  0  0  0
 35 70  1  0  0  0
 35 71  1  0  0  0
 36 72  1  0  0  0
 36 73  1  0  0  0
 37 39  2  0  0  0
 37 38  1  0  0  0
M  CHG  4  12  -1  13  -1  23  -1  38  -1
M  END
> <s_m_source_file>
../1skj_ligand.sdf

> <i_m_source_file_index>
1

> <s_epik_input>
W09IXVAoPU8pKFtPSF0pT2MoW2NIXVtjSF0xKVtjSF1bY0hdYzFbQ0gyXU4oW0NIMl1DKD1PKVtPSF0pQyg9TylbTkhdW0NAQEhdKFtDSDJdW0NIMl1DKD1PKVtPSF0pQyg9TylOKFtDSDNdKVtDSDJdW0NIMl1bQ0gyXVtDSF0yW0NIMl1bQ0gyXVtDSDJdW0NIMl1bQ0gyXTI=

> <s_epik_cmdline>
J2VwaWtfYXBwJywgJy1pbWFlJywgJ2xpZ2FuZF9wcm8ubWFlJywgJy1vbWFlJywgJ2xpZ2FuZF9wcmVwLm1hZScsICctbXMnLCAnMScsICctcGgnLCAnNycsICctcGh0JywgJzAuNScsICctbnQn

> <r_epik_Ionization_Penalty>
  0.0865

> <r_epik_Ionization_Penalty_Charging>
  0.0865

> <r_epik_Ionization_Penalty_Neutral>
  0.0000

> <r_epik_State_Penalty>
  0.0749

> <r_epik_Charging_Adjusted_Penalty>
0.161350739885614

> <i_epik_Tot_Q>
-4

> <i_epik_Tot_abs_Q>
4

$$$$
