1sld_ligand
                    3D
 Schrodinger Suite 2020-3.
 97100  0  0  1  0            999 V2000
    8.1590   -0.0420  -19.8590 C   0  0  0  0  0  0
    7.8100    0.4600  -18.7900 O   0  0  0  0  0  0
    7.2350    0.0310  -21.0660 C   0  0  0  0  0  0
    9.3130   -0.7040  -19.9710 N   0  0  0  0  0  0
   10.1070   -0.9770  -18.7920 C   0  0  2  0  0  0
   10.8520    0.2700  -18.3020 C   0  0  0  0  0  0
   11.5850    0.9850  -19.0130 O   0  0  0  0  0  0
   11.0730   -2.1000  -19.0960 C   0  0  0  0  0  0
   12.0640   -2.4580  -17.6320 S   0  0  0  0  0  0
   10.4880    0.5110  -17.0350 N   0  0  0  0  0  0
   10.7190    1.7700  -16.3450 C   0  0  2  0  0  0
   12.1510    1.9000  -15.9020 C   0  0  0  0  0  0
   12.6740    0.8560  -15.4930 O   0  0  0  0  0  0
    9.7460    1.7980  -15.1660 C   0  0  0  0  0  0
    9.7600    3.0700  -14.3340 C   0  0  0  0  0  0
   10.6880    3.2400  -13.3950 N   0  0  0  0  0  0
    8.9030    4.1200  -14.4910 C   0  0  0  0  0  0
   10.3890    4.4480  -12.9460 C   0  0  0  0  0  0
    9.3480    4.9640  -13.5910 N   0  3  0  0  0  0
   12.7760    3.0910  -15.8250 N   0  0  0  0  0  0
   14.1370    3.2220  -15.3610 C   0  0  2  0  0  0
   14.4390    2.7090  -13.9480 C   0  0  0  0  0  0
   15.5950    2.4310  -13.6120 O   0  0  0  0  0  0
   14.4100    4.7100  -15.5830 C   0  0  0  0  0  0
   13.1200    5.4340  -15.7510 C   0  0  0  0  0  0
   12.2850    4.3550  -16.3940 C   0  0  0  0  0  0
   13.4400    2.5530  -13.0580 N   0  0  0  0  0  0
   13.6740    1.9140  -11.7580 C   0  0  2  0  0  0
   14.0970    0.4530  -11.9150 C   0  0  0  0  0  0
   14.7670   -0.1200  -11.0460 O   0  0  0  0  0  0
   12.4070    1.9790  -10.9160 C   0  0  0  0  0  0
   12.6090    1.6190   -9.4400 C   0  0  0  0  0  0
   11.3400    1.6990   -8.6100 C   0  0  0  0  0  0
   10.5330    2.5870   -8.8400 O   0  0  0  0  0  0
   10.9990    0.8540   -7.6540 N   0  0  0  0  0  0
   13.6980   -0.1040  -13.0590 N   0  0  0  0  0  0
   13.8550   -1.4970  -13.3700 C   0  0  2  0  0  0
   14.9460   -1.6830  -14.4570 C   0  0  0  0  0  0
   15.8460   -2.5240  -14.2760 O   0  0  0  0  0  0
   12.3900   -2.0190  -13.7410 C   0  0  0  0  0  0
   11.4310   -1.7700  -12.5690 C   0  0  0  0  0  0
   11.6030   -2.4610  -11.3620 C   0  0  0  0  0  0
   10.4290   -0.7780  -12.6330 C   0  0  0  0  0  0
   10.7850   -2.1500  -10.2470 C   0  0  0  0  0  0
    9.6240   -0.4850  -11.5060 C   0  0  0  0  0  0
    9.7980   -1.1670  -10.3040 C   0  0  0  0  0  0
   15.0010   -0.9050  -15.5410 N   0  0  0  0  0  0
   15.9540   -1.1400  -16.6100 C   0  0  2  0  0  0
   16.4820    0.1780  -17.1740 C   0  0  0  0  0  0
   15.7870    0.9430  -17.8450 O   0  0  0  0  0  0
   15.2370   -1.9560  -17.6860 C   0  0  0  0  0  0
   13.6200   -1.2340  -18.1550 S   0  0  0  0  0  0
   17.7400    0.4980  -16.9180 N   0  0  0  0  0  0
    6.3357    0.6081  -20.8049 H   0  0  0  0  0  0
    6.9435   -0.9862  -21.3666 H   0  0  0  0  0  0
    7.7580    0.5238  -21.8988 H   0  0  0  0  0  0
    9.6605   -1.0419  -20.9585 H   0  0  0  0  0  0
    9.3910   -1.2870  -18.0166 H   0  0  0  0  0  0
   10.5100   -2.9996  -19.3854 H   0  0  0  0  0  0
   11.7353   -1.8005  -19.9216 H   0  0  0  0  0  0
    9.9854   -0.3174  -16.5143 H   0  0  0  0  0  0
   10.5473    2.5993  -17.0470 H   0  0  0  0  0  0
    8.7170    1.6821  -15.5370 H   0  0  0  0  0  0
    9.9820    0.9743  -14.4762 H   0  0  0  0  0  0
    8.1033    4.0693  -15.2446 H   0  0  0  0  0  0
   10.9820    4.8956  -12.1348 H   0  0  0  0  0  0
   14.7712    2.5410  -15.9476 H   0  0  0  0  0  0
   14.9478    5.1177  -14.7144 H   0  0  0  0  0  0
   15.0226    4.8395  -16.4874 H   0  0  0  0  0  0
   12.7490    5.7553  -14.7666 H   0  0  0  0  0  0
   13.2749    6.3158  -16.3901 H   0  0  0  0  0  0
   12.4164    4.3410  -17.4860 H   0  0  0  0  0  0
   11.2181    4.4749  -16.1546 H   0  0  0  0  0  0
   12.4347    2.9145  -13.3202 H   0  0  0  0  0  0
   14.4897    2.4868  -11.2926 H   0  0  0  0  0  0
   11.9999    3.0005  -10.9444 H   0  0  0  0  0  0
   11.6626    1.2764  -11.3187 H   0  0  0  0  0  0
   12.9853    0.5883   -9.3622 H   0  0  0  0  0  0
   13.3371    2.3101   -8.9903 H   0  0  0  0  0  0
   11.6716    0.0258   -7.3863 H   0  0  0  0  0  0
   10.0424    0.9784   -7.1255 H   0  0  0  0  0  0
   13.2242    0.5719  -13.7861 H   0  0  0  0  0  0
   14.2613   -2.0211  -12.4924 H   0  0  0  0  0  0
   12.0234   -1.4824  -14.6285 H   0  0  0  0  0  0
   12.4281   -3.0974  -13.9543 H   0  0  0  0  0  0
   12.3647   -3.2365  -11.2808 H   0  0  0  0  0  0
   10.2730   -0.2303  -13.5624 H   0  0  0  0  0  0
   10.9323   -2.6967   -9.3156 H   0  0  0  0  0  0
    8.8567    0.2856  -11.5799 H   0  0  0  0  0  0
    9.1814   -0.9391   -9.4346 H   0  0  0  0  0  0
   14.2945   -0.0646  -15.6089 H   0  0  0  0  0  0
   16.8061   -1.6899  -16.1839 H   0  0  0  0  0  0
   15.8623   -2.0006  -18.5899 H   0  0  0  0  0  0
   15.0570   -2.9754  -17.3140 H   0  0  0  0  0  0
   18.3687   -0.1781  -16.3200 H   0  0  0  0  0  0
   18.1572    1.4401  -17.3032 H   0  0  0  0  0  0
    8.8586    5.9409  -13.4636 H   0  0  0  0  0  0
  1  2  2  0  0  0
  1  3  1  0  0  0
  1  4  1  0  0  0
  3 54  1  0  0  0
  3 55  1  0  0  0
  3 56  1  0  0  0
  4  5  1  0  0  0
  4 57  1  0  0  0
  5  6  1  0  0  0
  5  8  1  0  0  0
  5 58  1  0  0  0
  6  7  2  0  0  0
  6 10  1  0  0  0
  8  9  1  0  0  0
  8 59  1  0  0  0
  8 60  1  0  0  0
  9 52  1  0  0  0
 10 11  1  0  0  0
 10 61  1  0  0  0
 11 12  1  0  0  0
 11 14  1  0  0  0
 11 62  1  0  0  0
 12 13  2  0  0  0
 12 20  1  0  0  0
 14 15  1  0  0  0
 14 63  1  0  0  0
 14 64  1  0  0  0
 15 17  2  0  0  0
 15 16  1  0  0  0
 16 18  2  0  0  0
 17 19  1  0  0  0
 17 65  1  0  0  0
 18 19  1  0  0  0
 18 66  1  0  0  0
 19 97  1  0  0  0
 20 21  1  0  0  0
 20 26  1  0  0  0
 21 24  1  0  0  0
 21 22  1  0  0  0
 21 67  1  0  0  0
 22 23  2  0  0  0
 22 27  1  0  0  0
 24 25  1  0  0  0
 24 68  1  0  0  0
 24 69  1  0  0  0
 25 26  1  0  0  0
 25 70  1  0  0  0
 25 71  1  0  0  0
 26 72  1  0  0  0
 26 73  1  0  0  0
 27 28  1  0  0  0
 27 74  1  0  0  0
 28 29  1  0  0  0
 28 31  1  0  0  0
 28 75  1  0  0  0
 29 30  2  0  0  0
 29 36  1  0  0  0
 31 32  1  0  0  0
 31 76  1  0  0  0
 31 77  1  0  0  0
 32 33  1  0  0  0
 32 78  1  0  0  0
 32 79  1  0  0  0
 33 34  2  0  0  0
 33 35  1  0  0  0
 35 80  1  0  0  0
 35 81  1  0  0  0
 36 37  1  0  0  0
 36 82  1  0  0  0
 37 38  1  0  0  0
 37 40  1  0  0  0
 37 83  1  0  0  0
 38 39  2  0  0  0
 38 47  1  0  0  0
 40 41  1  0  0  0
 40 84  1  0  0  0
 40 85  1  0  0  0
 41 43  2  0  0  0
 41 42  1  0  0  0
 42 44  2  0  0  0
 42 86  1  0  0  0
 43 45  1  0  0  0
 43 87  1  0  0  0
 44 46  1  0  0  0
 44 88  1  0  0  0
 45 46  2  0  0  0
 45 89  1  0  0  0
 46 90  1  0  0  0
 47 48  1  0  0  0
 47 91  1  0  0  0
 48 49  1  0  0  0
 48 51  1  0  0  0
 48 92  1  0  0  0
 49 50  2  0  0  0
 49 53  1  0  0  0
 51 52  1  0  0  0
 51 93  1  0  0  0
 51 94  1  0  0  0
 53 95  1  0  0  0
 53 96  1  0  0  0
M  CHG  1  19   1
M  END
> <s_m_source_file>
../1sld_ligand.sdf

> <i_m_source_file_index>
1

> <s_epik_input>
W2NIXTFbbkhdW2NIXW5jMVtDSDJdW0NAQEhdKEMyPU8pW05IXUMoPU8pW0NAQEhdKFtOSF1DKD1PKVtDSDNdKVtDSDJdU1NbQ0gyXVtDQEBIXShDKD1PKVtOSDJdKVtOSF1DKD1PKVtDQEhdKFtDSDJdYzNbY0hdW2NIXVtjSF1bY0hdW2NIXTMpW05IXUMoPU8pW0NASF0oW0NIMl1bQ0gyXUMoPU8pW05IMl0pW05IXUMoPU8pW0NAQEhdKE4yNClbQ0gyXVtDSDJdW0NIMl00

> <s_epik_cmdline>
J2VwaWtfYXBwJywgJy1pbWFlJywgJ2xpZ2FuZF9wcm8ubWFlJywgJy1vbWFlJywgJ2xpZ2FuZF9wcmVwLm1hZScsICctbXMnLCAnMScsICctcGgnLCAnNycsICctcGh0JywgJzAuNScsICctbnQn

> <r_lp_tautomer_probability>
0.499999999999999

> <r_epik_Ionization_Penalty>
  0.0078

> <r_epik_Ionization_Penalty_Charging>
  0.0078

> <r_epik_Ionization_Penalty_Neutral>
  0.0000

> <r_epik_State_Penalty>
  0.0002

> <r_epik_Charging_Adjusted_Penalty>
0.00793898360610656

> <i_epik_Tot_Q>
1

> <i_epik_Tot_abs_Q>
1

> <s_epik_Chemistry_Notes>
This compound has an imine and may undergo hydrolysis.

$$$$
