1sle_ligand
                    3D
 Schrodinger Suite 2020-3.
112116  0  0  1  0            999 V2000
   20.3050   -1.7120   23.2220 C   0  0  0  0  0  0
   21.0950   -1.8610   24.1520 O   0  0  0  0  0  0
   19.7860   -2.9940   22.5720 C   0  0  0  0  0  0
   19.9970   -0.4720   22.8760 N   0  0  0  0  0  0
   19.0160   -0.1800   21.8560 C   0  0  2  0  0  0
   19.4960    1.0710   21.1320 C   0  0  0  0  0  0
   19.2470    2.1830   21.6030 O   0  0  0  0  0  0
   17.6770    0.0690   22.5320 C   0  0  0  0  0  0
   17.1530   -1.3490   23.5320 S   0  0  0  0  0  0
   20.2020    0.9120   20.0020 N   0  0  0  0  0  0
   20.7610    2.0480   19.2800 C   0  0  2  0  0  0
   19.7060    3.1080   18.9690 C   0  0  0  0  0  0
   18.6170    2.7480   18.5050 O   0  0  0  0  0  0
   21.3960    1.5440   17.9910 C   0  0  0  0  0  0
   22.1680    2.6450   17.2610 C   0  0  0  0  0  0
   21.5370    3.5340   16.4980 N   0  0  0  0  0  0
   23.5050    2.9120   17.4130 C   0  0  0  0  0  0
   22.4970    4.3760   16.1720 C   0  0  0  0  0  0
   23.6410    4.0100   16.7130 N   0  3  0  0  0  0
   19.9130    4.4140   19.1850 N   0  0  0  0  0  0
   18.8800    5.4220   18.9050 C   0  0  2  0  0  0
   18.3290    5.5150   17.4720 C   0  0  0  0  0  0
   17.3280    6.1990   17.2640 O   0  0  0  0  0  0
   19.5250    6.7020   19.4180 C   0  0  0  0  0  0
   20.9880    6.4160   19.3860 C   0  0  0  0  0  0
   21.0930    4.9910   19.8200 C   0  0  0  0  0  0
   18.9040    4.9020   16.4150 N   0  0  0  0  0  0
   18.3190    4.9580   15.0890 C   0  0  2  0  0  0
   17.2280    3.8910   14.9150 C   0  0  0  0  0  0
   16.3120    4.0770   14.1190 O   0  0  0  0  0  0
   19.4260    4.7700   14.0650 C   0  0  0  0  0  0
   18.9860    5.0310   12.6280 C   0  0  0  0  0  0
   20.0990    4.8320   11.6090 C   0  0  0  0  0  0
   21.2950    5.0300   11.8620 O   0  0  0  0  0  0
   19.7410    4.4490   10.4040 N   0  0  0  0  0  0
   17.2440    2.8060   15.6770 N   0  0  0  0  0  0
   16.2720    1.7430   15.5100 C   0  0  0  0  0  0
   14.9170    2.0320   16.1390 C   0  0  0  0  0  0
   14.6450    3.1670   16.5570 O   0  0  0  0  0  0
   14.0140    1.0340   16.2030 N   0  0  0  0  0  0
   12.6660    1.1600   16.7600 C   0  0  2  0  0  0
   12.6220    1.3570   18.2900 C   0  0  0  0  0  0
   13.6710    1.3540   18.9390 O   0  0  0  0  0  0
   12.0060   -0.1160   16.2530 C   0  0  0  0  0  0
   13.1170   -1.1370   16.3500 C   0  0  0  0  0  0
   14.2640   -0.3410   15.7590 C   0  0  0  0  0  0
   11.4700    1.5300   18.9620 N   0  0  0  0  0  0
   11.3010    1.2230   20.3900 C   0  0  2  0  0  0
   11.9040   -0.1500   20.6910 C   0  0  0  0  0  0
   11.7650   -1.0810   19.8820 O   0  0  0  0  0  0
    9.8120    1.2700   20.6150 C   0  0  0  0  0  0
    9.3670    2.2980   19.6030 C   0  0  0  0  0  0
   10.2040    1.9630   18.3760 C   0  0  0  0  0  0
   12.5570   -0.3210   21.8380 N   0  0  0  0  0  0
   13.2710   -1.5560   22.0620 C   0  0  2  0  0  0
   12.8630   -2.2700   23.3440 C   0  0  0  0  0  0
   12.7060   -1.7090   24.4340 O   0  0  0  0  0  0
   14.7520   -1.1650   21.9940 C   0  0  0  0  0  0
   16.0800   -2.3930   22.1790 S   0  0  0  0  0  0
   12.6370   -3.5660   23.1420 N   0  0  0  0  0  0
   20.2231   -3.8659   23.0807 H   0  0  0  0  0  0
   20.0714   -3.0080   21.5098 H   0  0  0  0  0  0
   18.6900   -3.0308   22.6577 H   0  0  0  0  0  0
   20.5148    0.3497   23.3924 H   0  0  0  0  0  0
   18.9297   -1.0344   21.1685 H   0  0  0  0  0  0
   17.7567    0.9458   23.1915 H   0  0  0  0  0  0
   16.9088    0.2544   21.7668 H   0  0  0  0  0  0
   20.3543   -0.1094   19.6231 H   0  0  0  0  0  0
   21.5103    2.4919   19.9520 H   0  0  0  0  0  0
   22.0978    0.7291   18.2222 H   0  0  0  0  0  0
   20.6108    1.1714   17.3167 H   0  0  0  0  0  0
   24.1346    2.2416   18.0165 H   0  0  0  0  0  0
   22.2755    5.2403   15.5287 H   0  0  0  0  0  0
   17.9593    5.1238   19.4279 H   0  0  0  0  0  0
   19.2545    7.5391   18.7576 H   0  0  0  0  0  0
   19.1681    6.9093   20.4376 H   0  0  0  0  0  0
   21.3685    6.5653   18.3648 H   0  0  0  0  0  0
   21.5098    7.0966   20.0749 H   0  0  0  0  0  0
   21.0242    4.8593   20.9099 H   0  0  0  0  0  0
   21.9952    4.4850   19.4458 H   0  0  0  0  0  0
   19.8407    4.3494   16.5800 H   0  0  0  0  0  0
   17.8624    5.9540   14.9918 H   0  0  0  0  0  0
   20.2507    5.4638   14.2851 H   0  0  0  0  0  0
   19.7956    3.7350   14.1104 H   0  0  0  0  0  0
   18.1696    4.3428   12.3638 H   0  0  0  0  0  0
   18.6349    6.0693   12.5349 H   0  0  0  0  0  0
   18.6796    4.2722   10.1757 H   0  0  0  0  0  0
   20.5028    4.3052    9.6236 H   0  0  0  0  0  0
   18.0207    2.7244   16.4516 H   0  0  0  0  0  0
   16.0994    1.5692   14.4376 H   0  0  0  0  0  0
   16.6531    0.8214   15.9741 H   0  0  0  0  0  0
   12.1753    2.0782   16.4049 H   0  0  0  0  0  0
   11.1472   -0.3642   16.8940 H   0  0  0  0  0  0
   11.6606    0.0354   15.2197 H   0  0  0  0  0  0
   13.2656   -1.4183   17.4030 H   0  0  0  0  0  0
   12.8467   -2.0296   15.7667 H   0  0  0  0  0  0
   14.2676   -0.3763   14.6596 H   0  0  0  0  0  0
   15.2395   -0.6777   16.1399 H   0  0  0  0  0  0
   11.8137    1.9517   21.0350 H   0  0  0  0  0  0
    9.3820    0.2742   20.4322 H   0  0  0  0  0  0
    9.6073    1.5730   21.6525 H   0  0  0  0  0  0
    8.2880    2.1886   19.4194 H   0  0  0  0  0  0
    9.5725    3.3068   19.9904 H   0  0  0  0  0  0
   10.3789    2.8350   17.7286 H   0  0  0  0  0  0
    9.7766    1.1434   17.7796 H   0  0  0  0  0  0
   12.5579    0.4626   22.6100 H   0  0  0  0  0  0
   12.9875   -2.2761   21.2803 H   0  0  0  0  0  0
   14.9677   -0.7148   21.0138 H   0  0  0  0  0  0
   14.9762   -0.4382   22.7887 H   0  0  0  0  0  0
   12.7967   -4.0034   22.1454 H   0  0  0  0  0  0
   12.2905   -4.1997   23.9717 H   0  0  0  0  0  0
   24.6242    4.4979   16.6407 H   0  0  0  0  0  0
  1  2  2  0  0  0
  1  3  1  0  0  0
  1  4  1  0  0  0
  3 61  1  0  0  0
  3 62  1  0  0  0
  3 63  1  0  0  0
  4  5  1  0  0  0
  4 64  1  0  0  0
  5  6  1  0  0  0
  5  8  1  0  0  0
  5 65  1  0  0  0
  6  7  2  0  0  0
  6 10  1  0  0  0
  8  9  1  0  0  0
  8 66  1  0  0  0
  8 67  1  0  0  0
  9 59  1  0  0  0
 10 11  1  0  0  0
 10 68  1  0  0  0
 11 12  1  0  0  0
 11 14  1  0  0  0
 11 69  1  0  0  0
 12 13  2  0  0  0
 12 20  1  0  0  0
 14 15  1  0  0  0
 14 70  1  0  0  0
 14 71  1  0  0  0
 15 17  2  0  0  0
 15 16  1  0  0  0
 16 18  2  0  0  0
 17 19  1  0  0  0
 17 72  1  0  0  0
 18 19  1  0  0  0
 18 73  1  0  0  0
 19112  1  0  0  0
 20 21  1  0  0  0
 20 26  1  0  0  0
 21 24  1  0  0  0
 21 22  1  0  0  0
 21 74  1  0  0  0
 22 23  2  0  0  0
 22 27  1  0  0  0
 24 25  1  0  0  0
 24 75  1  0  0  0
 24 76  1  0  0  0
 25 26  1  0  0  0
 25 77  1  0  0  0
 25 78  1  0  0  0
 26 79  1  0  0  0
 26 80  1  0  0  0
 27 28  1  0  0  0
 27 81  1  0  0  0
 28 29  1  0  0  0
 28 31  1  0  0  0
 28 82  1  0  0  0
 29 30  2  0  0  0
 29 36  1  0  0  0
 31 32  1  0  0  0
 31 83  1  0  0  0
 31 84  1  0  0  0
 32 33  1  0  0  0
 32 85  1  0  0  0
 32 86  1  0  0  0
 33 34  2  0  0  0
 33 35  1  0  0  0
 35 87  1  0  0  0
 35 88  1  0  0  0
 36 37  1  0  0  0
 36 89  1  0  0  0
 37 38  1  0  0  0
 37 90  1  0  0  0
 37 91  1  0  0  0
 38 39  2  0  0  0
 38 40  1  0  0  0
 40 41  1  0  0  0
 40 46  1  0  0  0
 41 44  1  0  0  0
 41 42  1  0  0  0
 41 92  1  0  0  0
 42 43  2  0  0  0
 42 47  1  0  0  0
 44 45  1  0  0  0
 44 93  1  0  0  0
 44 94  1  0  0  0
 45 46  1  0  0  0
 45 95  1  0  0  0
 45 96  1  0  0  0
 46 97  1  0  0  0
 46 98  1  0  0  0
 47 48  1  0  0  0
 47 53  1  0  0  0
 48 51  1  0  0  0
 48 49  1  0  0  0
 48 99  1  0  0  0
 49 50  2  0  0  0
 49 54  1  0  0  0
 51 52  1  0  0  0
 51100  1  0  0  0
 51101  1  0  0  0
 52 53  1  0  0  0
 52102  1  0  0  0
 52103  1  0  0  0
 53104  1  0  0  0
 53105  1  0  0  0
 54 55  1  0  0  0
 54106  1  0  0  0
 55 56  1  0  0  0
 55 58  1  0  0  0
 55107  1  0  0  0
 56 57  2  0  0  0
 56 60  1  0  0  0
 58 59  1  0  0  0
 58108  1  0  0  0
 58109  1  0  0  0
 60110  1  0  0  0
 60111  1  0  0  0
M  CHG  1  19   1
M  END
> <s_m_source_file>
../1sle_ligand.sdf

> <i_m_source_file_index>
1

> <s_epik_input>
W2NIXTFbbkhdW2NIXW5jMVtDSDJdW0NAQEhdKEMyPU8pW05IXUMoPU8pW0NAQEhdKFtOSF1DKD1PKVtDSDNdKVtDSDJdU1NbQ0gyXVtDQEBIXShDKD1PKVtOSDJdKVtOSF1DKD1PKVtDQEhdKFtDSDJdW0NIMl1bQ0gyXTMpTjNDKD1PKVtDQEhdKFtDSDJdW0NIMl1bQ0gyXTQpTjRDKD1PKVtDSDJdW05IXUMoPU8pW0NASF0oW0NIMl1bQ0gyXUMoPU8pW05IMl0pW05IXUMoPU8pW0NAQEhdKE4yNSlbQ0gyXVtDSDJdW0NIMl01

> <s_epik_cmdline>
J2VwaWtfYXBwJywgJy1pbWFlJywgJ2xpZ2FuZF9wcm8ubWFlJywgJy1vbWFlJywgJ2xpZ2FuZF9wcmVwLm1hZScsICctbXMnLCAnMScsICctcGgnLCAnNycsICctcGh0JywgJzAuNScsICctbnQn

> <r_lp_tautomer_probability>
0.499999999999999

> <r_epik_Ionization_Penalty>
  0.0078

> <r_epik_Ionization_Penalty_Charging>
  0.0078

> <r_epik_Ionization_Penalty_Neutral>
  0.0000

> <r_epik_State_Penalty>
  0.0002

> <r_epik_Charging_Adjusted_Penalty>
0.00793898360610656

> <i_epik_Tot_Q>
1

> <i_epik_Tot_abs_Q>
1

> <s_epik_Chemistry_Notes>
This compound has an imine and may undergo hydrolysis.

$$$$
