1slg_ligand
                    3D
 Schrodinger Suite 2020-3.
111113  0  0  1  0            999 V2000
   23.3250   -5.4260   18.9270 N   0  3  0  0  0  0
   23.7540   -4.1070   18.5170 C   0  0  2  0  0  0
   22.7200   -3.3310   19.3100 C   0  0  0  0  0  0
   22.8730   -3.4700   20.5380 O   0  0  0  0  0  0
   23.5960   -3.9150   17.0090 C   0  0  0  0  0  0
   24.3500   -2.6950   16.4840 C   0  0  0  0  0  0
   25.6810   -2.4820   16.8760 C   0  0  0  0  0  0
   23.7380   -1.8180   15.5800 C   0  0  0  0  0  0
   26.3890   -1.3880   16.3630 C   0  0  0  0  0  0
   24.4550   -0.7310   15.0790 C   0  0  0  0  0  0
   25.7760   -0.5100   15.4660 C   0  0  0  0  0  0
   21.6640   -2.7170   18.7120 N   0  0  0  0  0  0
   20.6230   -1.8840   19.4100 C   0  0  2  0  0  0
   21.3540   -0.5370   19.4810 C   0  0  0  0  0  0
   22.5820   -0.4610   19.7790 O   0  0  0  0  0  0
   20.1980   -2.3840   20.8930 C   0  0  0  0  0  0
   19.8460   -3.8300   20.7500 O   0  0  0  0  0  0
   20.5870    0.3800   18.8570 N   0  0  0  0  0  0
   21.1250    1.6660   18.4890 C   0  0  2  0  0  0
   19.9680    2.6800   18.5070 C   0  0  0  0  0  0
   18.8040    2.2320   18.4080 O   0  0  0  0  0  0
   21.7580    1.4290   17.1100 C   0  0  0  0  0  0
   22.3710    2.6780   16.5040 C   0  0  0  0  0  0
   21.5970    3.6200   15.9640 N   0  3  0  0  0  0
   23.6970    2.9990   16.5800 C   0  0  0  0  0  0
   22.4500    4.5620   15.6910 C   0  0  0  0  0  0
   23.6820    4.2120   16.0600 N   0  3  0  0  0  0
   20.2170    4.0320   18.6510 N   0  0  0  0  0  0
   19.1960    5.0700   18.6580 C   0  0  2  0  0  0
   18.4730    5.2870   17.3590 C   0  0  0  0  0  0
   17.4010    5.8650   17.3880 O   0  0  0  0  0  0
   19.8970    6.3470   19.0560 C   0  0  0  0  0  0
   21.1430    5.9120   19.7340 C   0  0  0  0  0  0
   21.4970    4.6600   18.9830 C   0  0  0  0  0  0
   19.0260    4.8640   16.2020 N   0  0  0  0  0  0
   18.4670    5.2880   14.9320 C   0  0  2  0  0  0
   17.0230    4.8590   14.6800 C   0  0  0  0  0  0
   16.2540    5.6240   14.0580 O   0  0  0  0  0  0
   19.4050    4.7790   13.8200 C   0  0  0  0  0  0
   18.9470    5.2200   12.4350 C   0  0  0  0  0  0
   19.9570    4.8720   11.3710 C   0  0  0  0  0  0
   21.1570    4.9650   11.6080 O   0  0  0  0  0  0
   19.4870    4.4750   10.1910 N   0  0  0  0  0  0
   16.5950    3.6800   15.1340 N   0  0  0  0  0  0
   15.2120    3.2970   14.9330 C   0  0  2  0  0  0
   14.7360    2.5160   16.1210 C   0  0  0  0  0  0
   15.5170    1.7150   16.6380 O   0  0  0  0  0  0
   15.0150    2.4060   13.6890 C   0  0  0  0  0  0
   15.0970    3.2200   12.4140 C   0  0  0  0  0  0
   14.2500    4.0640   12.1350 O   0  0  0  0  0  0
   16.1030    3.0030   11.5980 N   0  0  0  0  0  0
   13.4470    2.7890   16.3560 N   0  0  0  0  0  0
   12.5230    2.2840   17.3600 C   0  0  2  0  0  0
   13.0810    2.2470   18.7680 C   0  0  0  0  0  0
   13.6610    3.2850   19.1220 O   0  5  0  0  0  0
   12.0050    0.9050   16.7820 C   0  0  2  0  0  0
   10.7090    0.8190   17.3890 O   0  0  0  0  0  0
   12.8920   -0.3430   16.9620 C   0  0  0  0  0  0
   12.8970    1.2820   19.5150 O   0  0  0  0  0  0
   23.4514   -5.5311   20.0146 H   0  0  0  0  0  0
   23.9319   -6.1854   18.4123 H   0  0  0  0  0  0
   22.2655   -5.5646   18.6659 H   0  0  0  0  0  0
   24.8114   -3.8780   18.7159 H   0  0  0  0  0  0
   23.9838   -4.8004   16.4840 H   0  0  0  0  0  0
   22.5315   -3.7816   16.7659 H   0  0  0  0  0  0
   26.1613   -3.1651   17.5766 H   0  0  0  0  0  0
   22.7065   -1.9837   15.2692 H   0  0  0  0  0  0
   27.4229   -1.2209   16.6650 H   0  0  0  0  0  0
   23.9772   -0.0472   14.3774 H   0  0  0  0  0  0
   26.3274    0.3432   15.0708 H   0  0  0  0  0  0
   21.6069   -2.8705   17.6243 H   0  0  0  0  0  0
   19.6946   -1.8936   18.8200 H   0  0  0  0  0  0
   21.0434   -2.2454   21.5829 H   0  0  0  0  0  0
   19.3372   -1.7967   21.2453 H   0  0  0  0  0  0
   19.5205   -4.4063   21.6286 H   0  0  0  0  0  0
   19.5387    0.1367   18.6292 H   0  0  0  0  0  0
   21.8834    2.0295   19.1981 H   0  0  0  0  0  0
   22.5574    0.6785   17.1976 H   0  0  0  0  0  0
   20.9897    1.0664   16.4113 H   0  0  0  0  0  0
   24.4138    2.2793   17.0022 H   0  0  0  0  0  0
   22.1076    5.4933   15.2163 H   0  0  0  0  0  0
   18.4248    4.7180   19.3590 H   0  0  0  0  0  0
   20.1129    6.9424   18.1566 H   0  0  0  0  0  0
   19.2498    6.9253   19.7318 H   0  0  0  0  0  0
   21.9060    6.6986   19.6388 H   0  0  0  0  0  0
   20.9363    5.7287   20.7987 H   0  0  0  0  0  0
   22.0925    3.9733   19.6025 H   0  0  0  0  0  0
   22.0452    4.8871   18.0568 H   0  0  0  0  0  0
   19.9009    4.1975   16.2228 H   0  0  0  0  0  0
   18.4243    6.3846   15.0077 H   0  0  0  0  0  0
   20.4185    5.1728   13.9865 H   0  0  0  0  0  0
   19.4315    3.6795   13.8374 H   0  0  0  0  0  0
   17.9989    4.7208   12.1861 H   0  0  0  0  0  0
   18.8004    6.3102   12.4271 H   0  0  0  0  0  0
   18.4016    4.4072   10.0259 H   0  0  0  0  0  0
   20.1839    4.2146    9.3807 H   0  0  0  0  0  0
   17.2834    3.0004   15.6577 H   0  0  0  0  0  0
   14.6838    4.2559   14.8251 H   0  0  0  0  0  0
   15.7980    1.6338   13.6634 H   0  0  0  0  0  0
   14.0269    1.9249   13.7353 H   0  0  0  0  0  0
   16.8613    2.2467   11.8488 H   0  0  0  0  0  0
   16.1872    3.5776   10.6638 H   0  0  0  0  0  0
   13.1065    3.5312   15.6190 H   0  0  0  0  0  0
   11.7303    3.0331   17.5031 H   0  0  0  0  0  0
   11.9175    0.8689   15.6861 H   0  0  0  0  0  0
   10.0082    1.6633   17.3114 H   0  0  0  0  0  0
   13.8593   -0.1803   16.4641 H   0  0  0  0  0  0
   12.3922   -1.2155   16.5160 H   0  0  0  0  0  0
   13.0574   -0.5237   18.0344 H   0  0  0  0  0  0
   20.5313    3.7579   15.7287 H   0  0  0  0  0  0
   24.6157    4.7881   15.9809 H   0  0  0  0  0  0
  1  2  1  0  0  0
  1 60  1  0  0  0
  1 61  1  0  0  0
  1 62  1  0  0  0
  2  3  1  0  0  0
  2  5  1  0  0  0
  2 63  1  0  0  0
  3  4  2  0  0  0
  3 12  1  0  0  0
  5  6  1  0  0  0
  5 64  1  0  0  0
  5 65  1  0  0  0
  6  8  2  0  0  0
  6  7  1  0  0  0
  7  9  2  0  0  0
  7 66  1  0  0  0
  8 10  1  0  0  0
  8 67  1  0  0  0
  9 11  1  0  0  0
  9 68  1  0  0  0
 10 11  2  0  0  0
 10 69  1  0  0  0
 11 70  1  0  0  0
 12 13  1  0  0  0
 12 71  1  0  0  0
 13 14  1  0  0  0
 13 16  1  0  0  0
 13 72  1  0  0  0
 14 15  2  0  0  0
 14 18  1  0  0  0
 16 17  1  0  0  0
 16 73  1  0  0  0
 16 74  1  0  0  0
 17 75  1  0  0  0
 18 19  1  0  0  0
 18 76  1  0  0  0
 19 20  1  0  0  0
 19 22  1  0  0  0
 19 77  1  0  0  0
 20 21  2  0  0  0
 20 28  1  0  0  0
 22 23  1  0  0  0
 22 78  1  0  0  0
 22 79  1  0  0  0
 23 25  2  0  0  0
 23 24  1  0  0  0
 24 26  2  0  0  0
 24110  1  0  0  0
 25 27  1  0  0  0
 25 80  1  0  0  0
 26 27  1  0  0  0
 26 81  1  0  0  0
 27111  1  0  0  0
 28 29  1  0  0  0
 28 34  1  0  0  0
 29 32  1  0  0  0
 29 30  1  0  0  0
 29 82  1  0  0  0
 30 31  2  0  0  0
 30 35  1  0  0  0
 32 33  1  0  0  0
 32 83  1  0  0  0
 32 84  1  0  0  0
 33 34  1  0  0  0
 33 85  1  0  0  0
 33 86  1  0  0  0
 34 87  1  0  0  0
 34 88  1  0  0  0
 35 36  1  0  0  0
 35 89  1  0  0  0
 36 37  1  0  0  0
 36 39  1  0  0  0
 36 90  1  0  0  0
 37 38  2  0  0  0
 37 44  1  0  0  0
 39 40  1  0  0  0
 39 91  1  0  0  0
 39 92  1  0  0  0
 40 41  1  0  0  0
 40 93  1  0  0  0
 40 94  1  0  0  0
 41 42  2  0  0  0
 41 43  1  0  0  0
 43 95  1  0  0  0
 43 96  1  0  0  0
 44 45  1  0  0  0
 44 97  1  0  0  0
 45 46  1  0  0  0
 45 48  1  0  0  0
 45 98  1  0  0  0
 46 47  2  0  0  0
 46 52  1  0  0  0
 48 49  1  0  0  0
 48 99  1  0  0  0
 48100  1  0  0  0
 49 50  2  0  0  0
 49 51  1  0  0  0
 51101  1  0  0  0
 51102  1  0  0  0
 52 53  1  0  0  0
 52103  1  0  0  0
 53 54  1  0  0  0
 53 56  1  0  0  0
 53104  1  0  0  0
 54 59  2  0  0  0
 54 55  1  0  0  0
 56 57  1  0  0  0
 56 58  1  0  0  0
 56105  1  0  0  0
 57106  1  0  0  0
 58107  1  0  0  0
 58108  1  0  0  0
 58109  1  0  0  0
M  CHG  4   1   1  24   1  27   1  55  -1
M  END
> <s_m_source_file>
../1slg_ligand.sdf

> <i_m_source_file_index>
1

> <s_epik_input>
W2NIXTFbY0hdW2NIXVtjSF1bY0hdYzFbQ0gyXVtDQEhdKFtOSDMrXSlDKD1PKVtOSF1bQ0BASF0oW0NIMl1bT0hdKUMoPU8pW05IXVtDQEBIXShbQ0gyXWMybltjSF1bbkhdW2NIXTIpQyg9TylOM1tDQEBIXShbQ0gyXVtDSDJdW0NIMl0zKUMoPU8pW05IXVtDQEBIXShbQ0gyXVtDSDJdQyg9TylbTkgyXSlDKD1PKVtOSF1bQ0BASF0oW0NIMl1DKD1PKVtOSDJdKUMoPU8pW05IXVtDQEhdKEMoPU8pW09IXSlbQ0BIXShbT0hdKVtDSDNd

> <s_epik_cmdline>
J2VwaWtfYXBwJywgJy1pbWFlJywgJ2xpZ2FuZF9wcm8ubWFlJywgJy1vbWFlJywgJ2xpZ2FuZF9wcmVwLm1hZScsICctbXMnLCAnMScsICctcGgnLCAnNycsICctcGh0JywgJzAuNScsICctbnQn

> <r_lp_tautomer_probability>
1

> <r_epik_Ionization_Penalty>
 19.2318

> <r_epik_Ionization_Penalty_Charging>
 19.2318

> <r_epik_Ionization_Penalty_Neutral>
  0.0000

> <r_epik_State_Penalty>
 -0.0000

> <r_epik_Charging_Adjusted_Penalty>
19.231760065081

> <i_epik_Tot_Q>
2

> <i_epik_Tot_abs_Q>
4

> <s_epik_Chemistry_Notes>
This compound has an imine and may undergo hydrolysis.

$$$$
