1sm2_ligand
                    3D
 Schrodinger Suite 2020-3.
 62 69  0  0  1  0            999 V2000
   18.8100   -7.3760    4.9010 C   0  0  0  0  0  0
   17.5880   -7.2530    5.6540 C   0  0  0  0  0  0
   17.4940   -7.9160    6.9180 C   0  0  0  0  0  0
   18.6170   -8.7030    7.4300 C   0  0  0  0  0  0
   19.8470   -8.8110    6.6630 C   0  0  0  0  0  0
   21.0820   -9.4370    6.9110 N   0  0  0  0  0  0
   21.8600   -9.1270    5.8050 C   0  0  0  0  0  0
   23.2560   -9.5090    5.5120 C   0  0  0  0  0  0
   24.0750  -10.3030    6.3160 N   0  0  0  0  0  0
   25.2500  -10.3760    5.5560 C   0  0  0  0  0  0
   26.4660  -11.0660    5.7820 C   0  0  0  0  0  0
   27.5050  -10.9830    4.7960 C   0  0  0  0  0  0
   27.3300  -10.2110    3.5960 C   0  0  0  0  0  0
   26.1080   -9.5100    3.3490 C   0  0  0  0  0  0
   25.0620   -9.5960    4.3330 C   0  0  0  0  0  0
   23.7960   -9.0280    4.2670 C   0  0  0  0  0  0
   23.1030   -8.2380    3.3520 C   0  0  0  0  0  0
   23.4810   -7.6410    2.0720 C   0  0  0  0  0  0
   22.4740   -6.8630    1.6170 N   0  0  0  0  0  0
   21.2840   -6.9790    2.4990 C   0  0  0  0  0  0
   21.8090   -7.8830    3.6240 C   0  0  0  0  0  0
   21.1230   -8.3110    4.8590 C   0  0  0  0  0  0
   19.9010   -8.1440    5.4320 C   0  0  0  0  0  0
   21.5030  -10.1570    8.1460 C   0  0  2  0  0  0
   22.0880   -9.1060    9.1770 C   0  0  1  0  0  0
   23.3260   -9.7630    9.8150 C   0  0  1  0  0  0
   24.3480  -10.0430    8.7580 C   0  0  0  0  0  0
   23.8440  -10.9380    7.6170 C   0  0  1  0  0  0
   22.4260  -11.1890    7.8080 O   0  0  0  0  0  0
   24.5440   -7.7940    1.4950 O   0  0  0  0  0  0
   23.8930   -8.8670   10.8230 N   0  3  0  0  0  0
   24.7340   -9.5330   11.8500 C   0  0  0  0  0  0
   22.6120   -7.9060    8.5450 O   0  0  0  0  0  0
   21.8530   -6.7100    8.5560 C   0  0  0  0  0  0
   20.3860  -10.8800    8.9030 C   0  0  0  0  0  0
   18.9061   -6.8876    3.9313 H   0  0  0  0  0  0
   16.7532   -6.6674    5.2689 H   0  0  0  0  0  0
   16.5789   -7.8345    7.5046 H   0  0  0  0  0  0
   18.5305   -9.2104    8.3908 H   0  0  0  0  0  0
   26.6102  -11.6508    6.6905 H   0  0  0  0  0  0
   28.4427  -11.5142    4.9595 H   0  0  0  0  0  0
   28.1378  -10.1593    2.8660 H   0  0  0  0  0  0
   25.9727   -8.9257    2.4388 H   0  0  0  0  0  0
   22.4431   -6.2062    0.7352 H   0  0  0  0  0  0
   20.9896   -5.9792    2.8508 H   0  0  0  0  0  0
   20.4529   -7.4291    1.9362 H   0  0  0  0  0  0
   21.2992   -8.7655    9.8639 H   0  0  0  0  0  0
   23.0666  -10.7037   10.3227 H   0  0  0  0  0  0
   24.6756   -9.0958    8.3046 H   0  0  0  0  0  0
   25.2125  -10.5517    9.2094 H   0  0  0  0  0  0
   24.3620  -11.9081    7.5935 H   0  0  0  0  0  0
   24.5301   -8.1175   10.3306 H   0  0  0  0  0  0
   23.0793   -8.3595   11.3618 H   0  0  0  0  0  0
   25.1120   -8.7810   12.5583 H   0  0  0  0  0  0
   25.5818  -10.0346   11.3606 H   0  0  0  0  0  0
   24.1310  -10.2766   12.3918 H   0  0  0  0  0  0
   22.4094   -5.9179    8.0335 H   0  0  0  0  0  0
   21.6675   -6.4030    9.5959 H   0  0  0  0  0  0
   20.8928   -6.8804    8.0471 H   0  0  0  0  0  0
   19.6188  -10.1527    9.2070 H   0  0  0  0  0  0
   20.8041  -11.3669    9.7964 H   0  0  0  0  0  0
   19.9325  -11.6399    8.2496 H   0  0  0  0  0  0
  1  2  2  0  0  0
  1 23  1  0  0  0
  1 36  1  0  0  0
  2  3  1  0  0  0
  2 37  1  0  0  0
  3  4  2  0  0  0
  3 38  1  0  0  0
  4  5  1  0  0  0
  4 39  1  0  0  0
  5  6  1  0  0  0
  5 23  2  0  0  0
  6  7  1  0  0  0
  6 24  1  0  0  0
  7  8  1  0  0  0
  7 22  2  0  0  0
  8  9  1  0  0  0
  8 16  2  0  0  0
  9 10  1  0  0  0
  9 28  1  0  0  0
 10 11  1  0  0  0
 10 15  2  0  0  0
 11 12  2  0  0  0
 11 40  1  0  0  0
 12 13  1  0  0  0
 12 41  1  0  0  0
 13 14  2  0  0  0
 13 42  1  0  0  0
 14 15  1  0  0  0
 14 43  1  0  0  0
 15 16  1  0  0  0
 16 17  1  0  0  0
 17 18  1  0  0  0
 17 21  2  0  0  0
 18 19  1  0  0  0
 18 30  2  0  0  0
 19 20  1  0  0  0
 19 44  1  0  0  0
 20 21  1  0  0  0
 20 45  1  0  0  0
 20 46  1  0  0  0
 21 22  1  0  0  0
 22 23  1  0  0  0
 24 25  1  0  0  0
 24 29  1  0  0  0
 24 35  1  0  0  0
 25 26  1  0  0  0
 25 33  1  0  0  0
 25 47  1  0  0  0
 26 27  1  0  0  0
 26 31  1  0  0  0
 26 48  1  0  0  0
 27 28  1  0  0  0
 27 49  1  0  0  0
 27 50  1  0  0  0
 28 29  1  0  0  0
 28 51  1  0  0  0
 31 32  1  0  0  0
 31 52  1  0  0  0
 31 53  1  0  0  0
 32 54  1  0  0  0
 32 55  1  0  0  0
 32 56  1  0  0  0
 33 34  1  0  0  0
 34 57  1  0  0  0
 34 58  1  0  0  0
 34 59  1  0  0  0
 35 60  1  0  0  0
 35 61  1  0  0  0
 35 62  1  0  0  0
M  CHG  1  31   1
M  END
> <s_m_source_file>
../1sm2_ligand.sdf

> <i_m_source_file_index>
1

> <s_epik_input>
W2NIXTFbY0hdW2NIXVtjSF1jKGMxbjJbQ0BdMzRbQ0gzXSljNWMyYzZuKFtDQEhdKE80KVtDSDJdW0NAQEhdKFtOSDIrXVtDSDNdKVtDQEhdM09bQ0gzXSljN2MoW2NIXVtjSF1bY0hdW2NIXTcpYzZjOGM1W0NIMl1bTkhdQzg9Tw==

> <s_epik_cmdline>
J2VwaWtfYXBwJywgJy1pbWFlJywgJ2xpZ2FuZF9wcm8ubWFlJywgJy1vbWFlJywgJ2xpZ2FuZF9wcmVwLm1hZScsICctbXMnLCAnMScsICctcGgnLCAnNycsICctcGh0JywgJzAuNScsICctbnQn

> <r_epik_Ionization_Penalty>
  0.0560

> <r_epik_Ionization_Penalty_Charging>
  0.0560

> <r_epik_Ionization_Penalty_Neutral>
  0.0000

> <r_epik_State_Penalty>
  0.0482

> <r_epik_Charging_Adjusted_Penalty>
0.104192696511962

> <i_epik_Tot_Q>
1

> <i_epik_Tot_abs_Q>
1

> <s_epik_Chemistry_Notes>
This compound contains an acetal/aminal-like group ( X-CH(R)-Y where X, Y are N, S, or O) that may be acid/base labile, releasing an aldehyde.

$$$$
