1sm3_ligand
                    3D
 Schrodinger Suite 2020-3.
125127  0  0  1  0            999 V2000
   32.3380   -5.7780   -6.1170 N   0  3  0  0  0  0
   31.1590   -6.5260   -6.6770 C   0  0  2  0  0  0
   29.8630   -5.8680   -6.1700 C   0  0  0  0  0  0
   29.8090   -5.4610   -5.0150 O   0  0  0  0  0  0
   31.2370   -7.9930   -6.2540 C   0  0  0  0  0  0
   28.8440   -5.7880   -7.0370 N   0  0  0  0  0  0
   27.6000   -5.0820   -6.7360 C   0  0  2  0  0  0
   26.4980   -5.9550   -6.1320 C   0  0  0  0  0  0
   26.5230   -7.2020   -6.2120 O   0  0  0  0  0  0
   27.0640   -4.4600   -8.0210 C   0  0  0  0  0  0
   25.5310   -5.2800   -5.4710 N   0  0  0  0  0  0
   24.3650   -5.9150   -4.8780 C   0  0  2  0  0  0
   23.3500   -6.1580   -5.9980 C   0  0  0  0  0  0
   23.7200   -6.0840   -7.1470 O   0  0  0  0  0  0
   23.9120   -4.8710   -3.8710 C   0  0  0  0  0  0
   24.1580   -3.6240   -4.6220 C   0  0  0  0  0  0
   25.5690   -3.8410   -5.1200 C   0  0  0  0  0  0
   22.1100   -6.4360   -5.7070 N   0  0  0  0  0  0
   21.1870   -6.6990   -6.7480 C   0  0  2  0  0  0
   20.7340   -5.3850   -7.3860 C   0  0  0  0  0  0
   19.8760   -4.7070   -6.8670 O   0  0  0  0  0  0
   19.9760   -7.4980   -6.2310 C   0  0  0  0  0  0
   18.9470   -7.8300   -7.3220 C   0  0  0  0  0  0
   19.2860   -7.8120   -8.5520 O   0  5  0  0  0  0
   17.7870   -8.0990   -6.9710 O   0  0  0  0  0  0
   21.3100   -5.0450   -8.5420 N   0  0  0  0  0  0
   20.9840   -3.7970   -9.2020 C   0  0  2  0  0  0
   19.9440   -3.9520  -10.2960 C   0  0  0  0  0  0
   19.7890   -3.0500  -11.1220 O   0  0  0  0  0  0
   22.2630   -3.1370   -9.7740 C   0  0  2  0  0  0
   22.8960   -4.0010  -10.7310 O   0  0  0  0  0  0
   23.2630   -2.8840   -8.6510 C   0  0  0  0  0  0
   19.2130   -5.0650  -10.3380 N   0  0  0  0  0  0
   18.2040   -5.1900  -11.3720 C   0  0  2  0  0  0
   17.0540   -4.2420  -11.0850 C   0  0  0  0  0  0
   16.7300   -3.9910   -9.9080 O   0  0  0  0  0  0
   17.6790   -6.6250  -11.5290 C   0  0  0  0  0  0
   16.4160   -6.6940  -12.3780 C   0  0  0  0  0  0
   15.7410   -8.0450  -12.3830 C   0  0  0  0  0  0
   16.5210   -8.9850  -13.1320 N   0  0  0  0  0  0
   16.0620   -9.6670  -14.1640 C   0  0  0  0  0  0
   14.8070   -9.5470  -14.5760 N   0  0  0  0  0  0
   16.8770  -10.4890  -14.7800 N   0  3  0  0  0  0
   16.4450   -3.6360  -12.1510 N   0  0  0  0  0  0
   15.3320   -2.7250  -11.9930 C   0  0  2  0  0  0
   14.0990   -3.4430  -11.4260 C   0  0  0  0  0  0
   13.7310   -4.5780  -11.8240 O   0  0  0  0  0  0
   15.0820   -2.1630  -13.4180 C   0  0  0  0  0  0
   16.3980   -2.3720  -14.1130 C   0  0  0  0  0  0
   16.8480   -3.7230  -13.5960 C   0  0  0  0  0  0
   13.5130   -2.7540  -10.4520 N   0  0  0  0  0  0
   12.3180   -3.1740   -9.7660 C   0  0  2  0  0  0
   11.1430   -3.1850  -10.7270 C   0  0  0  0  0  0
   11.1970   -2.5260  -11.7600 O   0  0  0  0  0  0
   12.0350   -2.1410   -8.6390 C   0  0  0  0  0  0
   10.1360   -4.0110  -10.4810 N   0  0  0  0  0  0
    8.9500   -3.9990  -11.2920 C   0  0  2  0  0  0
    8.2800   -2.5850  -11.2460 C   0  0  0  0  0  0
    8.6630   -1.7610  -10.3740 O   0  0  0  0  0  0
    8.0880   -5.1040  -10.6800 C   0  0  0  0  0  0
    8.7080   -5.3840   -9.3670 C   0  0  0  0  0  0
   10.1490   -5.1760   -9.5800 C   0  0  0  0  0  0
   33.2695   -6.2414   -6.4742 H   0  0  0  0  0  0
   32.3077   -5.8156   -5.0181 H   0  0  0  0  0  0
   32.2989   -4.7301   -6.4493 H   0  0  0  0  0  0
   31.1878   -6.4810   -7.7757 H   0  0  0  0  0  0
   32.1718   -8.4339   -6.6304 H   0  0  0  0  0  0
   30.3792   -8.5409   -6.6710 H   0  0  0  0  0  0
   31.2161   -8.0597   -5.1562 H   0  0  0  0  0  0
   28.9736   -6.2832   -8.0106 H   0  0  0  0  0  0
   27.9038   -4.3441   -5.9789 H   0  0  0  0  0  0
   27.8411   -3.8266   -8.4737 H   0  0  0  0  0  0
   26.1798   -3.8474   -7.7908 H   0  0  0  0  0  0
   26.7844   -5.2573   -8.7254 H   0  0  0  0  0  0
   24.5690   -6.8850   -4.4011 H   0  0  0  0  0  0
   22.8518   -5.0330   -3.6267 H   0  0  0  0  0  0
   24.5165   -4.9575   -2.9560 H   0  0  0  0  0  0
   23.4207   -3.5331   -5.4333 H   0  0  0  0  0  0
   24.0649   -2.7630   -3.9437 H   0  0  0  0  0  0
   26.3360   -3.6716   -4.3499 H   0  0  0  0  0  0
   25.8126   -3.2513   -6.0161 H   0  0  0  0  0  0
   21.7796   -6.4668   -4.6582 H   0  0  0  0  0  0
   21.7633   -7.3040   -7.4635 H   0  0  0  0  0  0
   20.3209   -8.4512   -5.8040 H   0  0  0  0  0  0
   19.4564   -6.9157   -5.4558 H   0  0  0  0  0  0
   22.0428   -5.7305   -8.9927 H   0  0  0  0  0  0
   20.5311   -3.2014   -8.3956 H   0  0  0  0  0  0
   22.0054   -2.2122  -10.3110 H   0  0  0  0  0  0
   22.3504   -4.3164  -11.6326 H   0  0  0  0  0  0
   22.8090   -2.2233   -7.8978 H   0  0  0  0  0  0
   24.1638   -2.4058   -9.0631 H   0  0  0  0  0  0
   23.5375   -3.8404   -8.1821 H   0  0  0  0  0  0
   19.3603   -5.8782   -9.6121 H   0  0  0  0  0  0
   18.7314   -4.9033  -12.2938 H   0  0  0  0  0  0
   18.4472   -7.2455  -12.0135 H   0  0  0  0  0  0
   17.4440   -7.0400  -10.5378 H   0  0  0  0  0  0
   15.6801   -5.9690  -12.0001 H   0  0  0  0  0  0
   16.6630   -6.4548  -13.4229 H   0  0  0  0  0  0
   15.6365   -8.4065  -11.3494 H   0  0  0  0  0  0
   14.7456   -7.9559  -12.8426 H   0  0  0  0  0  0
   17.5692   -9.1730  -12.8565 H   0  0  0  0  0  0
   14.1223   -8.8578  -14.0601 H   0  0  0  0  0  0
   14.4509  -10.1367  -15.4336 H   0  0  0  0  0  0
   17.9181  -10.5895  -14.4393 H   0  0  0  0  0  0
   15.5999   -1.9524  -11.2573 H   0  0  0  0  0  0
   14.2634   -2.7224  -13.8943 H   0  0  0  0  0  0
   14.8085   -1.0997  -13.3501 H   0  0  0  0  0  0
   16.2424   -2.3672  -15.2019 H   0  0  0  0  0  0
   17.0905   -1.5628  -13.8380 H   0  0  0  0  0  0
   17.9351   -3.8764  -13.6649 H   0  0  0  0  0  0
   16.3277   -4.5675  -14.0716 H   0  0  0  0  0  0
   14.0000   -1.8064  -10.1784 H   0  0  0  0  0  0
   12.5040   -4.1939   -9.3982 H   0  0  0  0  0  0
   12.8808   -2.1245   -7.9359 H   0  0  0  0  0  0
   11.1178   -2.4257   -8.1026 H   0  0  0  0  0  0
   11.9061   -1.1421   -9.0812 H   0  0  0  0  0  0
    9.1974   -4.2114  -12.3426 H   0  0  0  0  0  0
    7.4886   -2.3054  -11.9570 H   0  0  0  0  0  0
    7.0534   -4.7456  -10.5740 H   0  0  0  0  0  0
    8.1047   -5.9874  -11.3352 H   0  0  0  0  0  0
    8.3028   -4.6910   -8.6149 H   0  0  0  0  0  0
    8.4850   -6.4193   -9.0695 H   0  0  0  0  0  0
   10.6449   -6.0209  -10.0803 H   0  0  0  0  0  0
   10.6962   -4.9221   -8.6602 H   0  0  0  0  0  0
   16.5196  -11.0781  -15.6375 H   0  0  0  0  0  0
  1  2  1  0  0  0
  1 63  1  0  0  0
  1 64  1  0  0  0
  1 65  1  0  0  0
  2  5  1  0  0  0
  2  3  1  0  0  0
  2 66  1  0  0  0
  3  4  2  0  0  0
  3  6  1  0  0  0
  5 67  1  0  0  0
  5 68  1  0  0  0
  5 69  1  0  0  0
  6  7  1  0  0  0
  6 70  1  0  0  0
  7 10  1  0  0  0
  7  8  1  0  0  0
  7 71  1  0  0  0
  8  9  2  0  0  0
  8 11  1  0  0  0
 10 72  1  0  0  0
 10 73  1  0  0  0
 10 74  1  0  0  0
 11 12  1  0  0  0
 11 17  1  0  0  0
 12 13  1  0  0  0
 12 15  1  0  0  0
 12 75  1  0  0  0
 13 14  2  0  0  0
 13 18  1  0  0  0
 15 16  1  0  0  0
 15 76  1  0  0  0
 15 77  1  0  0  0
 16 17  1  0  0  0
 16 78  1  0  0  0
 16 79  1  0  0  0
 17 80  1  0  0  0
 17 81  1  0  0  0
 18 19  1  0  0  0
 18 82  1  0  0  0
 19 22  1  0  0  0
 19 20  1  0  0  0
 19 83  1  0  0  0
 20 21  2  0  0  0
 20 26  1  0  0  0
 22 23  1  0  0  0
 22 84  1  0  0  0
 22 85  1  0  0  0
 23 24  1  0  0  0
 23 25  2  0  0  0
 26 27  1  0  0  0
 26 86  1  0  0  0
 27 30  1  0  0  0
 27 28  1  0  0  0
 27 87  1  0  0  0
 28 29  2  0  0  0
 28 33  1  0  0  0
 30 32  1  0  0  0
 30 31  1  0  0  0
 30 88  1  0  0  0
 31 89  1  0  0  0
 32 90  1  0  0  0
 32 91  1  0  0  0
 32 92  1  0  0  0
 33 34  1  0  0  0
 33 93  1  0  0  0
 34 37  1  0  0  0
 34 35  1  0  0  0
 34 94  1  0  0  0
 35 36  2  0  0  0
 35 44  1  0  0  0
 37 38  1  0  0  0
 37 95  1  0  0  0
 37 96  1  0  0  0
 38 39  1  0  0  0
 38 97  1  0  0  0
 38 98  1  0  0  0
 39 40  1  0  0  0
 39 99  1  0  0  0
 39100  1  0  0  0
 40 41  1  0  0  0
 40101  1  0  0  0
 41 43  2  0  0  0
 41 42  1  0  0  0
 42102  1  0  0  0
 42103  1  0  0  0
 43104  1  0  0  0
 43125  1  0  0  0
 44 45  1  0  0  0
 44 50  1  0  0  0
 45 46  1  0  0  0
 45 48  1  0  0  0
 45105  1  0  0  0
 46 47  2  0  0  0
 46 51  1  0  0  0
 48 49  1  0  0  0
 48106  1  0  0  0
 48107  1  0  0  0
 49 50  1  0  0  0
 49108  1  0  0  0
 49109  1  0  0  0
 50110  1  0  0  0
 50111  1  0  0  0
 51 52  1  0  0  0
 51112  1  0  0  0
 52 55  1  0  0  0
 52 53  1  0  0  0
 52113  1  0  0  0
 53 54  2  0  0  0
 53 56  1  0  0  0
 55114  1  0  0  0
 55115  1  0  0  0
 55116  1  0  0  0
 56 57  1  0  0  0
 56 62  1  0  0  0
 57 58  1  0  0  0
 57 60  1  0  0  0
 57117  1  0  0  0
 58 59  2  0  0  0
 58118  1  0  0  0
 60 61  1  0  0  0
 60119  1  0  0  0
 60120  1  0  0  0
 61 62  1  0  0  0
 61121  1  0  0  0
 61122  1  0  0  0
 62123  1  0  0  0
 62124  1  0  0  0
M  CHG  3   1   1  24  -1  43   1
M  END
> <s_m_source_file>
../1sm3_ligand.sdf

> <i_m_source_file_index>
1

> <s_epik_input>
W05IMytdW0NAQEhdKFtDSDNdKUMoPU8pW05IXVtDQEBIXShbQ0gzXSlDKD1PKU4xW0NAQEhdKFtDSDJdW0NIMl1bQ0gyXTEpQyg9TylbTkhdW0NAQEhdKFtDSDJdQyg9TylbT0hdKUMoPU8pW05IXVtDQEBIXShbQ0BIXShbT0hdKVtDSDNdKUMoPU8pW05IXVtDQEBIXShbQ0gyXVtDSDJdW0NIMl1bTkhdL0MoW05IMl0pPU5cW0hdKUMoPU8pTjJbQ0BASF0oW0NIMl1bQ0gyXVtDSDJdMilDKD1PKVtOSF1bQ0BASF0oW0NIM10pQyg9TylOM1tDQEhdKFtDSF09TylbQ0gyXVtDSDJdW0NIMl0z

> <s_epik_cmdline>
J2VwaWtfYXBwJywgJy1pbWFlJywgJ2xpZ2FuZF9wcm8ubWFlJywgJy1vbWFlJywgJ2xpZ2FuZF9wcmVwLm1hZScsICctbXMnLCAnMScsICctcGgnLCAnNycsICctcGh0JywgJzAuNScsICctbnQn

> <r_lp_tautomer_probability>
0.99990000499975

> <r_epik_Ionization_Penalty>
  0.1247

> <r_epik_Ionization_Penalty_Charging>
  0.1246

> <r_epik_Ionization_Penalty_Neutral>
  0.0002

> <r_epik_State_Penalty>
  0.1128

> <r_epik_Charging_Adjusted_Penalty>
0.237357885869936

> <i_epik_Tot_Q>
1

> <i_epik_Tot_abs_Q>
3

> <s_epik_Chemistry_Notes>
This compound has an imine and may undergo hydrolysis.

$$$$
