1sme_ligand
                    3D
 Schrodinger Suite 2020-3.
110109  0  0  1  0            999 V2000
   53.5200   70.8800   25.7180 C   0  0  0  0  0  0
   53.7210   71.0970   24.5220 O   0  5  0  0  0  0
   52.9550   71.6440   26.4560 O   0  0  0  0  0  0
   53.9880   69.5550   26.2460 C   0  0  0  0  0  0
   55.4410   69.5720   26.7170 C   0  0  2  0  0  0
   56.4300   70.1430   25.7290 O   0  0  0  0  0  0
   55.8390   68.1240   27.1890 C   0  0  1  0  0  0
   55.7760   67.1110   26.0940 N   0  0  0  0  0  0
   54.6050   66.5380   25.8280 C   0  0  0  0  0  0
   53.6450   66.6890   26.5800 O   0  0  0  0  0  0
   54.4730   65.7590   24.5200 C   0  0  1  0  0  0
   53.7450   64.5070   24.5850 N   0  0  0  0  0  0
   54.3870   63.3990   25.0330 C   0  0  0  0  0  0
   55.5330   63.3730   25.4960 O   0  0  0  0  0  0
   53.5510   62.1400   24.9610 C   0  0  0  0  0  0
   53.9450   61.2130   23.8010 C   0  0  2  0  0  0
   52.7970   60.3630   23.6930 O   0  0  0  0  0  0
   55.1590   60.3090   24.1610 C   0  0  2  0  0  0
   55.3820   59.2390   23.0920 C   0  0  0  0  0  0
   55.0270   59.5230   25.3810 N   0  0  0  0  0  0
   55.9920   59.2750   26.2730 C   0  0  0  0  0  0
   57.0720   59.8570   26.3580 O   0  0  0  0  0  0
   55.6770   58.1150   27.2010 C   0  0  1  0  0  0
   56.7370   57.1980   26.9180 N   0  0  0  0  0  0
   56.3990   56.0080   26.4680 C   0  0  0  0  0  0
   55.2870   55.4960   26.5140 O   0  0  0  0  0  0
   57.5840   55.2020   26.0000 C   0  0  1  0  0  0
   57.4650   54.0370   26.8890 N   0  0  0  0  0  0
   58.5740   53.7130   27.5300 C   0  0  0  0  0  0
   59.6490   54.3170   27.4650 O   0  0  0  0  0  0
   58.4290   52.4840   28.3790 C   0  0  0  0  0  0
   58.3060   52.8140   29.8670 C   0  0  0  0  0  0
   57.1520   53.7940   30.1240 C   0  0  0  0  0  0
   57.2610   68.1100   27.7710 C   0  0  0  0  0  0
   57.6600   66.7750   28.4270 C   0  0  0  0  0  0
   59.1130   66.8420   28.8860 C   0  0  0  0  0  0
   56.6320   66.4180   29.4920 C   0  0  0  0  0  0
   53.8380   66.6280   23.4500 C   0  0  0  0  0  0
   56.1270   59.6520   21.8370 C   0  0  0  0  0  0
   57.5460   59.9900   22.2170 C   0  0  0  0  0  0
   56.1950   58.4960   20.8880 C   0  0  0  0  0  0
   55.6650   58.6170   28.6700 C   0  0  0  0  0  0
   54.4330   59.4990   28.9160 C   0  0  0  0  0  0
   55.4490   57.4570   29.6180 C   0  0  0  0  0  0
   57.4500   54.8200   24.4890 C   0  0  0  0  0  0
   57.5930   56.0360   23.5910 C   0  0  0  0  0  0
   58.7450   54.1520   24.0040 C   0  0  0  0  0  0
   58.2600   51.4750   30.6280 C   0  0  0  0  0  0
   53.3650   69.2613   27.1037 H   0  0  0  0  0  0
   53.9048   68.7950   25.4551 H   0  0  0  0  0  0
   55.4954   70.3096   27.5313 H   0  0  0  0  0  0
   56.2749   71.1504   25.3154 H   0  0  0  0  0  0
   55.1044   67.8022   27.9419 H   0  0  0  0  0  0
   56.6843   66.8545   25.5291 H   0  0  0  0  0  0
   55.4925   65.4310   24.2691 H   0  0  0  0  0  0
   52.6906   64.4671   24.2740 H   0  0  0  0  0  0
   53.6664   61.5694   25.8943 H   0  0  0  0  0  0
   52.4933   62.4095   24.8245 H   0  0  0  0  0  0
   54.1612   61.7581   22.8703 H   0  0  0  0  0  0
   51.8159   60.7930   23.4430 H   0  0  0  0  0  0
   55.9897   61.0132   24.3156 H   0  0  0  0  0  0
   55.9660   58.4103   23.5189 H   0  0  0  0  0  0
   54.4097   58.8608   22.7433 H   0  0  0  0  0  0
   54.0598   59.0673   25.6397 H   0  0  0  0  0  0
   54.7248   57.5945   27.0208 H   0  0  0  0  0  0
   57.7826   57.4996   27.0784 H   0  0  0  0  0  0
   58.5574   55.7036   26.1042 H   0  0  0  0  0  0
   56.5039   53.5095   26.9787 H   0  0  0  0  0  0
   57.5251   51.9345   28.0773 H   0  0  0  0  0  0
   59.3109   51.8402   28.2459 H   0  0  0  0  0  0
   59.1757   53.3704   30.2465 H   0  0  0  0  0  0
   57.3033   54.7039   29.5246 H   0  0  0  0  0  0
   57.1262   54.0582   31.1915 H   0  0  0  0  0  0
   56.1999   53.3219   29.8400 H   0  0  0  0  0  0
   57.9875   68.3057   26.9686 H   0  0  0  0  0  0
   57.3489   68.8885   28.5431 H   0  0  0  0  0  0
   57.6390   65.9290   27.7243 H   0  0  0  0  0  0
   59.7551   67.1068   28.0330 H   0  0  0  0  0  0
   59.4173   65.8627   29.2839 H   0  0  0  0  0  0
   59.2144   67.6048   29.6720 H   0  0  0  0  0  0
   55.6284   66.4014   29.0419 H   0  0  0  0  0  0
   56.6610   67.1684   30.2958 H   0  0  0  0  0  0
   56.8639   65.4263   29.9077 H   0  0  0  0  0  0
   54.3780   67.5842   23.3860 H   0  0  0  0  0  0
   52.7858   66.8177   23.7085 H   0  0  0  0  0  0
   53.8900   66.1119   22.4800 H   0  0  0  0  0  0
   55.6145   60.5022   21.3632 H   0  0  0  0  0  0
   57.5459   60.8385   22.9171 H   0  0  0  0  0  0
   58.1131   60.2598   21.3139 H   0  0  0  0  0  0
   58.0145   59.1183   22.6973 H   0  0  0  0  0  0
   55.1772   58.2127   20.5817 H   0  0  0  0  0  0
   56.6796   57.6422   21.3843 H   0  0  0  0  0  0
   56.7782   58.7838   20.0008 H   0  0  0  0  0  0
   56.6182   59.1348   28.8525 H   0  0  0  0  0  0
   54.4833   60.3876   28.2696 H   0  0  0  0  0  0
   54.4115   59.8130   29.9700 H   0  0  0  0  0  0
   53.5215   58.9284   28.6847 H   0  0  0  0  0  0
   56.2853   56.7483   29.5267 H   0  0  0  0  0  0
   54.5074   56.9475   29.3654 H   0  0  0  0  0  0
   55.3974   57.8322   30.6507 H   0  0  0  0  0  0
   56.5056   54.2613   24.4121 H   0  0  0  0  0  0
   56.7420   56.7138   23.7534 H   0  0  0  0  0  0
   57.6105   55.7149   22.5391 H   0  0  0  0  0  0
   58.5301   56.5602   23.8301 H   0  0  0  0  0  0
   58.8841   53.1963   24.5306 H   0  0  0  0  0  0
   59.5990   54.8132   24.2125 H   0  0  0  0  0  0
   58.6795   53.9680   22.9215 H   0  0  0  0  0  0
   59.1371   50.8690   30.3570 H   0  0  0  0  0  0
   57.3419   50.9319   30.3593 H   0  0  0  0  0  0
   58.2682   51.6682   31.7109 H   0  0  0  0  0  0
  1  2  1  0  0  0
  1  3  2  0  0  0
  1  4  1  0  0  0
  4  5  1  0  0  0
  4 49  1  0  0  0
  4 50  1  0  0  0
  5  6  1  0  0  0
  5  7  1  0  0  0
  5 51  1  0  0  0
  6 52  1  0  0  0
  7  8  1  0  0  0
  7 34  1  0  0  0
  7 53  1  0  0  0
  8  9  1  0  0  0
  8 54  1  0  0  0
  9 10  2  0  0  0
  9 11  1  0  0  0
 11 12  1  0  0  0
 11 38  1  0  0  0
 11 55  1  0  0  0
 12 13  1  0  0  0
 12 56  1  0  0  0
 13 14  2  0  0  0
 13 15  1  0  0  0
 15 16  1  0  0  0
 15 57  1  0  0  0
 15 58  1  0  0  0
 16 17  1  0  0  0
 16 18  1  0  0  0
 16 59  1  0  0  0
 17 60  1  0  0  0
 18 19  1  0  0  0
 18 20  1  0  0  0
 18 61  1  0  0  0
 19 39  1  0  0  0
 19 62  1  0  0  0
 19 63  1  0  0  0
 20 21  1  0  0  0
 20 64  1  0  0  0
 21 22  2  0  0  0
 21 23  1  0  0  0
 23 24  1  0  0  0
 23 42  1  0  0  0
 23 65  1  0  0  0
 24 25  1  0  0  0
 24 66  1  0  0  0
 25 26  2  0  0  0
 25 27  1  0  0  0
 27 28  1  0  0  0
 27 45  1  0  0  0
 27 67  1  0  0  0
 28 29  1  0  0  0
 28 68  1  0  0  0
 29 30  2  0  0  0
 29 31  1  0  0  0
 31 32  1  0  0  0
 31 69  1  0  0  0
 31 70  1  0  0  0
 32 33  1  0  0  0
 32 48  1  0  0  0
 32 71  1  0  0  0
 33 72  1  0  0  0
 33 73  1  0  0  0
 33 74  1  0  0  0
 34 35  1  0  0  0
 34 75  1  0  0  0
 34 76  1  0  0  0
 35 36  1  0  0  0
 35 37  1  0  0  0
 35 77  1  0  0  0
 36 78  1  0  0  0
 36 79  1  0  0  0
 36 80  1  0  0  0
 37 81  1  0  0  0
 37 82  1  0  0  0
 37 83  1  0  0  0
 38 84  1  0  0  0
 38 85  1  0  0  0
 38 86  1  0  0  0
 39 40  1  0  0  0
 39 41  1  0  0  0
 39 87  1  0  0  0
 40 88  1  0  0  0
 40 89  1  0  0  0
 40 90  1  0  0  0
 41 91  1  0  0  0
 41 92  1  0  0  0
 41 93  1  0  0  0
 42 43  1  0  0  0
 42 44  1  0  0  0
 42 94  1  0  0  0
 43 95  1  0  0  0
 43 96  1  0  0  0
 43 97  1  0  0  0
 44 98  1  0  0  0
 44 99  1  0  0  0
 44100  1  0  0  0
 45 46  1  0  0  0
 45 47  1  0  0  0
 45101  1  0  0  0
 46102  1  0  0  0
 46103  1  0  0  0
 46104  1  0  0  0
 47105  1  0  0  0
 47106  1  0  0  0
 47107  1  0  0  0
 48108  1  0  0  0
 48109  1  0  0  0
 48110  1  0  0  0
M  CHG  1   2  -1
M  END
> <s_m_source_file>
../1sme_ligand.sdf

> <i_m_source_file_index>
1

> <s_epik_input>
W09IXUMoPU8pW0NIMl1bQ0BIXShbT0hdKVtDQEhdKFtDSDJdW0NIXShbQ0gzXSlbQ0gzXSlbTkhdQyg9TylbQ0BIXShbQ0gzXSlbTkhdQyg9TylbQ0gyXVtDQEhdKFtPSF0pW0NASF0oW0NIMl1bQ0hdKFtDSDNdKVtDSDNdKVtOSF1DKD1PKVtDQEhdKFtDSF0oW0NIM10pW0NIM10pW05IXUMoPU8pW0NASF0oW0NIXShbQ0gzXSlbQ0gzXSlbTkhdQyg9TylbQ0gyXVtDSF0oW0NIM10pW0NIM10=

> <s_epik_cmdline>
J2VwaWtfYXBwJywgJy1pbWFlJywgJ2xpZ2FuZF9wcm8ubWFlJywgJy1vbWFlJywgJ2xpZ2FuZF9wcmVwLm1hZScsICctbXMnLCAnMScsICctcGgnLCAnNycsICctcGh0JywgJzAuNScsICctbnQn

> <r_lp_tautomer_probability>
1

> <r_epik_Ionization_Penalty>
  0.0021

> <r_epik_Ionization_Penalty_Charging>
  0.0021

> <r_epik_Ionization_Penalty_Neutral>
  0.0000

> <r_epik_State_Penalty>
 -0.0000

> <r_epik_Charging_Adjusted_Penalty>
0.00208702823195129

> <i_epik_Tot_Q>
-1

> <i_epik_Tot_abs_Q>
1

$$$$
