1snk_ligand
                    3D
 Schrodinger Suite 2020-3.
 58 58  0  0  1  0            999 V2000
  -17.2420   30.7340   76.3180 C   0  0  0  0  0  0
  -17.0590   31.4290   77.6750 C   0  0  0  0  0  0
  -15.7270   32.2230   77.6910 C   0  0  0  0  0  0
  -15.6540   33.1020   78.9830 C   0  0  2  0  0  0
  -16.6100   34.1840   78.8960 N   0  0  0  0  0  0
  -17.4310   34.4170   79.9100 C   0  0  0  0  0  0
  -17.3960   33.6950   80.8890 O   0  0  0  0  0  0
  -18.4200   35.5780   79.8510 C   0  0  2  0  0  0
  -17.9180   36.6880   80.7920 C   0  0  0  0  0  0
  -18.0650   38.0980   80.1720 C   0  0  0  0  0  0
  -18.2100   39.1170   81.2920 C   0  0  0  0  0  0
  -19.2760   38.1740   79.2560 C   0  0  0  0  0  0
  -19.6880   35.1180   80.3480 N   0  0  0  0  0  0
  -20.5120   34.3410   79.6060 C   0  0  0  0  0  0
  -20.1100   33.7820   78.5810 O   0  0  0  0  0  0
  -21.7600   34.1870   79.9990 O   0  0  0  0  0  0
  -22.3260   32.9870   79.5440 C   0  0  0  0  0  0
  -23.1770   32.3890   80.6330 C   0  0  0  0  0  0
  -23.8470   31.2070   80.4030 C   0  0  0  0  0  0
  -24.6260   30.6500   81.3960 C   0  0  0  0  0  0
  -24.7420   31.2800   82.6310 C   0  0  0  0  0  0
  -25.8320   30.4850   84.0100 Br  0  0  0  0  0  0
  -24.0700   32.4700   82.8660 C   0  0  0  0  0  0
  -23.2890   33.0270   81.8690 C   0  0  0  0  0  0
  -14.2840   33.6910   79.1250 C   0  0  0  0  0  0
  -13.3350   32.6870   79.0380 O   0  0  0  0  0  0
  -16.5350   29.3660   76.3400 C   0  0  0  0  0  0
  -18.3146   30.5885   76.1223 H   0  0  0  0  0  0
  -16.8060   31.3585   75.5244 H   0  0  0  0  0  0
  -17.8951   32.1227   77.8474 H   0  0  0  0  0  0
  -17.0387   30.6734   78.4742 H   0  0  0  0  0  0
  -14.8810   31.5201   77.6794 H   0  0  0  0  0  0
  -15.6764   32.8722   76.8045 H   0  0  0  0  0  0
  -15.9028   32.5242   79.8854 H   0  0  0  0  0  0
  -16.6530   34.8085   77.9915 H   0  0  0  0  0  0
  -18.5736   35.9299   78.8202 H   0  0  0  0  0  0
  -18.4973   36.6660   81.7268 H   0  0  0  0  0  0
  -16.8535   36.5249   81.0164 H   0  0  0  0  0  0
  -17.1764   38.3295   79.5664 H   0  0  0  0  0  0
  -17.3334   39.0613   81.9542 H   0  0  0  0  0  0
  -19.1204   38.8997   81.8698 H   0  0  0  0  0  0
  -18.2810   40.1269   80.8619 H   0  0  0  0  0  0
  -19.1702   37.4368   78.4465 H   0  0  0  0  0  0
  -19.3473   39.1837   78.8254 H   0  0  0  0  0  0
  -20.1867   37.9565   79.8334 H   0  0  0  0  0  0
  -20.0155   35.3961   81.3606 H   0  0  0  0  0  0
  -22.9492   33.1875   78.6600 H   0  0  0  0  0  0
  -21.5251   32.2823   79.2758 H   0  0  0  0  0  0
  -23.7614   30.7118   79.4358 H   0  0  0  0  0  0
  -25.1523   29.7133   81.2124 H   0  0  0  0  0  0
  -24.1568   32.9651   83.8332 H   0  0  0  0  0  0
  -22.7614   33.9637   82.0489 H   0  0  0  0  0  0
  -14.1150   34.4239   78.3223 H   0  0  0  0  0  0
  -14.1990   34.1904   80.1014 H   0  0  0  0  0  0
  -12.2658   32.9321   79.1207 H   0  0  0  0  0  0
  -16.6670   28.8694   75.3674 H   0  0  0  0  0  0
  -16.9709   28.7407   77.1331 H   0  0  0  0  0  0
  -15.4622   29.5108   76.5352 H   0  0  0  0  0  0
  1  2  1  0  0  0
  1 27  1  0  0  0
  1 28  1  0  0  0
  1 29  1  0  0  0
  2  3  1  0  0  0
  2 30  1  0  0  0
  2 31  1  0  0  0
  3  4  1  0  0  0
  3 32  1  0  0  0
  3 33  1  0  0  0
  4  5  1  0  0  0
  4 25  1  0  0  0
  4 34  1  0  0  0
  5  6  1  0  0  0
  5 35  1  0  0  0
  6  7  2  0  0  0
  6  8  1  0  0  0
  8  9  1  0  0  0
  8 13  1  0  0  0
  8 36  1  0  0  0
  9 10  1  0  0  0
  9 37  1  0  0  0
  9 38  1  0  0  0
 10 11  1  0  0  0
 10 12  1  0  0  0
 10 39  1  0  0  0
 11 40  1  0  0  0
 11 41  1  0  0  0
 11 42  1  0  0  0
 12 43  1  0  0  0
 12 44  1  0  0  0
 12 45  1  0  0  0
 13 14  1  0  0  0
 13 46  1  0  0  0
 14 15  2  0  0  0
 14 16  1  0  0  0
 16 17  1  0  0  0
 17 18  1  0  0  0
 17 47  1  0  0  0
 17 48  1  0  0  0
 18 19  2  0  0  0
 18 24  1  0  0  0
 19 20  1  0  0  0
 19 49  1  0  0  0
 20 21  2  0  0  0
 20 50  1  0  0  0
 21 22  1  0  0  0
 21 23  1  0  0  0
 23 24  2  0  0  0
 23 51  1  0  0  0
 24 52  1  0  0  0
 25 26  1  0  0  0
 25 53  1  0  0  0
 25 54  1  0  0  0
 26 55  1  0  0  0
 27 56  1  0  0  0
 27 57  1  0  0  0
 27 58  1  0  0  0
M  END
> <s_m_source_file>
../1snk_ligand.sdf

> <i_m_source_file_index>
1

> <s_epik_input>
W0NIM11bQ0gyXVtDSDJdW0NIMl1bQ0BASF0oW0NIMl1bT0hdKVtOSF1DKD1PKVtDQEhdKFtDSDJdW0NIXShbQ0gzXSlbQ0gzXSlbTkhdQyg9TylPW0NIMl1jMVtjSF1bY0hdYyhCcilbY0hdW2NIXTE=

> <s_epik_cmdline>
J2VwaWtfYXBwJywgJy1pbWFlJywgJ2xpZ2FuZF9wcm8ubWFlJywgJy1vbWFlJywgJ2xpZ2FuZF9wcmVwLm1hZScsICctbXMnLCAnMScsICctcGgnLCAnNycsICctcGh0JywgJzAuNScsICctbnQn

> <r_lp_tautomer_probability>
1

> <r_epik_Ionization_Penalty>
  0.0000

> <r_epik_Ionization_Penalty_Charging>
  0.0000

> <r_epik_Ionization_Penalty_Neutral>
  0.0000

> <r_epik_State_Penalty>
 -0.0000

> <r_epik_Charging_Adjusted_Penalty>
0

> <i_epik_Tot_Q>
0

> <i_epik_Tot_abs_Q>
0

> <s_epik_Chemistry_Notes>
This compound has an ester and may undergo hydrolysis at high or low pH.

$$$$
