1so2_ligand
                    3D
 Schrodinger Suite 2020-3.
 54 57  0  0  1  0            999 V2000
   64.6380    1.7810    7.4770 C   0  0  0  0  0  0
   64.4330    2.4140    8.7490 C   0  0  0  0  0  0
   64.6860    1.7000    9.9980 C   0  0  0  0  0  0
   65.1560    0.3260    9.9120 C   0  0  0  0  0  0
   65.3740   -0.3470    8.6080 C   0  0  0  0  0  0
   65.1080    0.4050    7.4120 C   0  0  0  0  0  0
   64.4640    2.3950   11.3560 C   0  0  0  0  0  0
   63.2160    3.2920   11.3690 C   0  0  0  0  0  0
   61.9440    2.8970   11.5700 C   0  0  0  0  0  0
   60.9490    3.6210   12.5240 C   0  0  0  0  0  0
   60.9380    5.1950   12.2730 C   0  0  0  0  0  0
   62.5770    5.6440   12.4410 C   0  0  0  0  0  0
   63.6500    4.5510   12.2220 C   0  0  0  0  0  0
   61.5800    1.6900   10.7750 N   0  0  0  0  0  0
   60.4780    0.9210   10.6330 C   0  0  0  0  0  0
   59.4320    0.8880   11.5990 C   0  0  0  0  0  0
   58.3200    0.0610   11.4530 C   0  0  0  0  0  0
   58.2080   -0.7880   10.3090 C   0  0  0  0  0  0
   59.2420   -0.7720    9.3010 C   0  0  0  0  0  0
   60.3820    0.0900    9.4650 C   0  0  0  0  0  0
   57.0610   -1.6940   10.2260 C   0  0  0  0  0  0
   56.9590   -2.6250    9.2070 N   0  0  0  0  0  0
   56.0280   -3.4790    9.0970 N   0  0  0  0  0  0
   54.8330   -3.4740    9.7710 C   0  0  0  0  0  0
   54.6200   -2.2900   10.7390 C   0  0  0  0  0  0
   55.9320   -1.7220   11.3300 C   0  0  1  0  0  0
   64.7330    4.7000   12.7050 O   0  0  0  0  0  0
   54.0100   -4.3150    9.6430 O   0  0  0  0  0  0
   56.4010   -2.5900   12.5490 C   0  0  0  0  0  0
   66.0770   -2.3830    8.4970 I   0  0  0  0  0  0
   64.4412    2.3322    6.5575 H   0  0  0  0  0  0
   64.0824    3.4455    8.7835 H   0  0  0  0  0  0
   65.3536   -0.2246   10.8317 H   0  0  0  0  0  0
   65.2609   -0.0634    6.4397 H   0  0  0  0  0  0
   64.3394    1.6346   12.1410 H   0  0  0  0  0  0
   65.3337    3.0260   11.5915 H   0  0  0  0  0  0
   60.3643    3.0402   13.2526 H   0  0  0  0  0  0
   60.5503    5.4028   11.2648 H   0  0  0  0  0  0
   60.2941    5.6811   13.0208 H   0  0  0  0  0  0
   62.8173    6.4334   11.7136 H   0  0  0  0  0  0
   62.7518    6.0191   13.4602 H   0  0  0  0  0  0
   62.3200    1.2298   10.1037 H   0  0  0  0  0  0
   59.5034    1.5283   12.4782 H   0  0  0  0  0  0
   57.5364    0.0617   12.2107 H   0  0  0  0  0  0
   59.1591   -1.4095    8.4208 H   0  0  0  0  0  0
   61.1668    0.1125    8.7090 H   0  0  0  0  0  0
   56.1391   -4.3279    8.4063 H   0  0  0  0  0  0
   54.1187   -1.4676   10.2076 H   0  0  0  0  0  0
   53.9954   -2.6151   11.5841 H   0  0  0  0  0  0
   55.7241   -0.6987   11.6759 H   0  0  0  0  0  0
   57.3337   -2.1742   12.9579 H   0  0  0  0  0  0
   56.5750   -3.6243   12.2173 H   0  0  0  0  0  0
   55.6232   -2.5803   13.3268 H   0  0  0  0  0  0
   65.5096    3.9344   12.5608 H   0  0  0  0  0  0
  1  2  2  0  0  0
  1  6  1  0  0  0
  1 31  1  0  0  0
  2  3  1  0  0  0
  2 32  1  0  0  0
  3  4  2  0  0  0
  3  7  1  0  0  0
  4  5  1  0  0  0
  4 33  1  0  0  0
  5  6  2  0  0  0
  5 30  1  0  0  0
  6 34  1  0  0  0
  7  8  1  0  0  0
  7 35  1  0  0  0
  7 36  1  0  0  0
  8  9  1  0  0  0
  8 13  2  0  0  0
  9 10  2  0  0  0
  9 14  1  0  0  0
 10 11  1  0  0  0
 10 37  1  0  0  0
 11 12  1  0  0  0
 11 38  1  0  0  0
 11 39  1  0  0  0
 12 13  1  0  0  0
 12 40  1  0  0  0
 12 41  1  0  0  0
 13 27  1  0  0  0
 14 15  1  0  0  0
 14 42  1  0  0  0
 15 16  2  0  0  0
 15 20  1  0  0  0
 16 17  1  0  0  0
 16 43  1  0  0  0
 17 18  2  0  0  0
 17 44  1  0  0  0
 18 19  1  0  0  0
 18 21  1  0  0  0
 19 20  2  0  0  0
 19 45  1  0  0  0
 20 46  1  0  0  0
 21 22  2  0  0  0
 21 26  1  0  0  0
 22 23  1  0  0  0
 23 24  1  0  0  0
 23 47  1  0  0  0
 24 25  1  0  0  0
 24 28  2  0  0  0
 25 26  1  0  0  0
 25 48  1  0  0  0
 25 49  1  0  0  0
 26 29  1  0  0  0
 26 50  1  0  0  0
 27 54  1  0  0  0
 29 51  1  0  0  0
 29 52  1  0  0  0
 29 53  1  0  0  0
M  END
> <s_m_source_file>
../1so2_ligand.sdf

> <i_m_source_file_index>
1

> <s_epik_input>
W2NIXTFjKEkpW2NIXVtjSF1bY0hdYzFbQ0gyXUMyPUMoW0NIMl1bQ0gyXVtDSDJdQzI9TylbTkhdYzNbY0hdW2NIXWMoW2NIXVtjSF0zKUM0PU5bTkhdQyg9TylbQ0gyXVtDQEhdNFtDSDNd

> <s_epik_cmdline>
J2VwaWtfYXBwJywgJy1pbWFlJywgJ2xpZ2FuZF9wcm8ubWFlJywgJy1vbWFlJywgJ2xpZ2FuZF9wcmVwLm1hZScsICctbXMnLCAnMScsICctcGgnLCAnNycsICctcGh0JywgJzAuNScsICctbnQn

> <r_epik_Ionization_Penalty>
  0.0124

> <r_epik_Ionization_Penalty_Charging>
  0.0004

> <r_epik_Ionization_Penalty_Neutral>
  0.0119

> <r_epik_State_Penalty>
  0.0092

> <r_epik_Charging_Adjusted_Penalty>
0.00965101716730691

> <i_epik_Tot_Q>
0

> <i_epik_Tot_abs_Q>
0

> <s_epik_Chemistry_Notes>
This compound has an imine and may undergo hydrolysis.

$$$$
