1soj_ligand
                    3D
 Schrodinger Suite 2020-3.
 30 31  0  0  1  0            999 V2000
  114.4950   -2.4400   13.2200 N   0  0  0  0  0  0
  114.3200   -1.8640   12.0120 C   0  0  0  0  0  0
  113.4190   -0.8650   11.9970 N   0  3  0  0  0  0
  112.9490   -0.7670   13.3580 C   0  0  0  0  0  0
  113.5620   -1.6960   14.0840 C   0  0  0  0  0  0
  113.2670   -1.8060   15.5430 N   0  0  0  0  0  0
  112.3230   -0.9710   16.1560 C   0  0  0  0  0  0
  111.7000   -0.0140   15.3480 N   0  0  0  0  0  0
  111.9440    0.1280   13.9820 C   0  0  0  0  0  0
  111.4190    0.9550   13.2310 O   0  0  0  0  0  0
  112.0830   -1.0680   17.3540 O   0  0  0  0  0  0
  110.7100    0.8770   16.0020 C   0  0  0  0  0  0
  113.9690   -2.8230   16.3440 C   0  0  0  0  0  0
  115.5020   -2.5450   16.3940 C   0  0  0  0  0  0
  116.2430   -3.5970   17.2330 C   0  0  0  0  0  0
  115.7970   -1.1140   16.9250 C   0  0  0  0  0  0
  114.8933   -2.2215   11.1440 H   0  0  0  0  0  0
  110.6437    0.6288   17.0716 H   0  0  0  0  0  0
  109.7253    0.7386   15.5317 H   0  0  0  0  0  0
  111.0272    1.9240   15.8875 H   0  0  0  0  0  0
  113.5779   -2.8141   17.3721 H   0  0  0  0  0  0
  113.8076   -3.8159   15.8989 H   0  0  0  0  0  0
  115.8886   -2.6236   15.3672 H   0  0  0  0  0  0
  116.0213   -4.6008   16.8415 H   0  0  0  0  0  0
  115.9122   -3.5304   18.2800 H   0  0  0  0  0  0
  117.3261   -3.4131   17.1783 H   0  0  0  0  0  0
  115.2579   -0.3770   16.3116 H   0  0  0  0  0  0
  116.8779   -0.9176   16.8687 H   0  0  0  0  0  0
  115.4639   -1.0349   17.9704 H   0  0  0  0  0  0
  113.2014   -0.3347   11.0582 H   0  0  0  0  0  0
  1  2  2  0  0  0
  1  5  1  0  0  0
  2  3  1  0  0  0
  2 17  1  0  0  0
  3  4  1  0  0  0
  3 30  1  0  0  0
  4  5  2  0  0  0
  4  9  1  0  0  0
  5  6  1  0  0  0
  6  7  1  0  0  0
  6 13  1  0  0  0
  7  8  1  0  0  0
  7 11  2  0  0  0
  8  9  1  0  0  0
  8 12  1  0  0  0
  9 10  2  0  0  0
 12 18  1  0  0  0
 12 19  1  0  0  0
 12 20  1  0  0  0
 13 14  1  0  0  0
 13 21  1  0  0  0
 13 22  1  0  0  0
 14 15  1  0  0  0
 14 16  1  0  0  0
 14 23  1  0  0  0
 15 24  1  0  0  0
 15 25  1  0  0  0
 15 26  1  0  0  0
 16 27  1  0  0  0
 16 28  1  0  0  0
 16 29  1  0  0  0
M  CHG  1   3   1
M  END
> <s_m_source_file>
../1soj_ligand.sdf

> <i_m_source_file_index>
1

> <s_epik_input>
W25IXTFbY0hdbmMoYzEyKW4oYyg9TyluKGMyPU8pW0NIM10pW0NIMl1bQ0hdKFtDSDNdKVtDSDNd

> <s_epik_cmdline>
J2VwaWtfYXBwJywgJy1pbWFlJywgJ2xpZ2FuZF9wcm8ubWFlJywgJy1vbWFlJywgJ2xpZ2FuZF9wcmVwLm1hZScsICctbXMnLCAnMScsICctcGgnLCAnNycsICctcGh0JywgJzAuNScsICctbnQn

> <r_lp_tautomer_probability>
1

> <r_epik_Ionization_Penalty>
  0.0000

> <r_epik_Ionization_Penalty_Charging>
  0.0000

> <r_epik_Ionization_Penalty_Neutral>
  0.0000

> <r_epik_State_Penalty>
 -0.0000

> <r_epik_Charging_Adjusted_Penalty>
2.54524996633124e-08

> <i_epik_Tot_Q>
1

> <i_epik_Tot_abs_Q>
1

> <s_epik_Chemistry_Notes>
This compound has an imine and may undergo hydrolysis.

$$$$
