1sps_ligand
                    3D
 Schrodinger Suite 2020-3.
111113  0  0  1  0            999 V2000
   69.1890   95.0830   15.6060 N   0  3  0  0  0  0
   70.2630   95.4900   16.5160 C   0  0  2  0  0  0
   71.0660   94.2840   16.9690 C   0  0  0  0  0  0
   70.4880   93.2120   17.1230 O   0  0  0  0  0  0
   69.5890   96.2040   17.6710 C   0  0  0  0  0  0
   68.2580   95.4820   17.7770 C   0  0  0  0  0  0
   67.9200   95.2630   16.3100 C   0  0  0  0  0  0
   72.3680   94.4080   17.2300 N   0  0  0  0  0  0
   73.1510   93.2190   17.5880 C   0  0  2  0  0  0
   73.1020   92.9350   19.0720 C   0  0  0  0  0  0
   72.9640   93.7940   19.9420 O   0  0  0  0  0  0
   74.6320   93.3380   17.2400 C   0  0  0  0  0  0
   73.1430   91.6420   19.3050 N   0  0  0  0  0  0
   73.1040   91.1190   20.6440 C   0  0  2  0  0  0
   74.3120   90.2300   20.8510 C   0  0  0  0  0  0
   74.7250   89.5130   19.9420 O   0  0  0  0  0  0
   71.8360   90.3010   20.8620 C   0  0  0  0  0  0
   70.5210   91.0580   21.0580 C   0  0  0  0  0  0
   69.9530   91.7590   20.0120 C   0  0  0  0  0  0
   69.8770   90.9990   22.2780 C   0  0  0  0  0  0
   68.7370   92.3920   20.1700 C   0  0  0  0  0  0
   68.6640   91.6250   22.4540 C   0  0  0  0  0  0
   68.1180   92.3040   21.3930 C   0  0  0  0  0  0
   66.8260   92.8920   21.5470 O   0  0  0  0  0  0
   74.9110   90.2870   22.0330 N   0  0  0  0  0  0
   75.9820   89.3840   22.3480 C   0  0  2  0  0  0
   75.4570   87.9920   22.5910 C   0  0  0  0  0  0
   74.3720   87.7980   23.1210 O   0  0  0  0  0  0
   76.7000   89.8080   23.5820 C   0  0  0  0  0  0
   77.5070   91.0530   23.4770 C   0  0  0  0  0  0
   78.6670   90.9100   22.5290 C   0  0  0  0  0  0
   79.7530   90.4670   22.9280 O   0  5  0  0  0  0
   78.4660   91.2690   21.3760 O   0  0  0  0  0  0
   76.2170   87.0090   22.1430 N   0  0  0  0  0  0
   75.9160   85.6360   22.5060 C   0  0  2  0  0  0
   77.1100   85.0830   23.2660 C   0  0  0  0  0  0
   78.2470   85.4630   22.9860 O   0  0  0  0  0  0
   75.6530   84.7990   21.2550 C   0  0  0  0  0  0
   74.2700   85.0830   20.6560 C   0  0  0  0  0  0
   73.9870   84.4120   19.3130 C   0  0  0  0  0  0
   73.8540   83.1830   19.2760 O   0  0  0  0  0  0
   73.8890   85.1300   18.3090 O   0  5  0  0  0  0
   76.8130   84.2570   24.2800 N   0  0  0  0  0  0
   77.8270   83.5860   25.0920 C   0  0  2  0  0  0
   78.4480   82.5010   24.1970 C   0  0  0  0  0  0
   77.6740   81.7940   23.5460 O   0  0  0  0  0  0
   77.1330   82.9890   26.3620 C   0  0  2  0  0  0
   76.4920   84.1040   27.1940 C   0  0  0  0  0  0
   78.1680   82.1990   27.1700 C   0  0  0  0  0  0
   76.0240   83.6770   28.5950 C   0  0  0  0  0  0
   79.7670   82.3520   24.0260 N   0  0  0  0  0  0
   80.3390   81.8440   22.7780 C   0  0  2  0  0  0
   79.8830   80.4710   22.2690 C   0  0  0  0  0  0
   79.3310   80.3910   21.1430 O   0  0  0  0  0  0
   81.8410   81.9380   23.0240 C   0  0  0  0  0  0
   81.9790   82.1640   24.5110 C   0  0  0  0  0  0
   80.7850   83.0210   24.8000 C   0  0  0  0  0  0
   69.2177   95.7088   14.7018 H   0  0  0  0  0  0
   69.3256   94.0280   15.3261 H   0  0  0  0  0  0
   70.9657   96.1585   15.9970 H   0  0  0  0  0  0
   70.2041   96.0979   18.5768 H   0  0  0  0  0  0
   69.4764   97.2707   17.4271 H   0  0  0  0  0  0
   68.3924   94.5458   18.3386 H   0  0  0  0  0  0
   67.5338   96.1231   18.3010 H   0  0  0  0  0  0
   67.3919   96.1349   15.8967 H   0  0  0  0  0  0
   67.2992   94.3640   16.1824 H   0  0  0  0  0  0
   72.8556   95.3927   17.1785 H   0  0  0  0  0  0
   72.6554   92.4371   16.9939 H   0  0  0  0  0  0
   74.7405   93.5463   16.1654 H   0  0  0  0  0  0
   75.1429   92.3950   17.4842 H   0  0  0  0  0  0
   75.0800   94.1586   17.8196 H   0  0  0  0  0  0
   73.2086   90.9554   18.4481 H   0  0  0  0  0  0
   73.1194   91.9897   21.3161 H   0  0  0  0  0  0
   71.6654   89.6502   19.9918 H   0  0  0  0  0  0
   71.9488   89.6834   21.7652 H   0  0  0  0  0  0
   70.4697   91.8126   19.0537 H   0  0  0  0  0  0
   70.3314   90.4541   23.1055 H   0  0  0  0  0  0
   68.2813   92.9453   19.3488 H   0  0  0  0  0  0
   68.1487   91.5827   23.4136 H   0  0  0  0  0  0
   66.3683   93.4409   20.7108 H   0  0  0  0  0  0
   74.5832   91.0312   22.7738 H   0  0  0  0  0  0
   76.6445   89.4330   21.4712 H   0  0  0  0  0  0
   75.9719   89.9853   24.3872 H   0  0  0  0  0  0
   77.4005   89.0173   23.8887 H   0  0  0  0  0  0
   76.8707   91.8727   23.1121 H   0  0  0  0  0  0
   77.9091   91.3139   24.4671 H   0  0  0  0  0  0
   77.0778   87.2305   21.4950 H   0  0  0  0  0  0
   75.0120   85.6485   23.1326 H   0  0  0  0  0  0
   76.4120   85.0300   20.4931 H   0  0  0  0  0  0
   75.7041   83.7305   21.5113 H   0  0  0  0  0  0
   73.4912   84.7324   21.3492 H   0  0  0  0  0  0
   74.1560   86.1649   20.4933 H   0  0  0  0  0  0
   75.7453   84.0946   24.4888 H   0  0  0  0  0  0
   78.5997   84.3047   25.4026 H   0  0  0  0  0  0
   76.3207   82.3006   26.0858 H   0  0  0  0  0  0
   77.2178   84.9181   27.3372 H   0  0  0  0  0  0
   75.6063   84.4906   26.6686 H   0  0  0  0  0  0
   78.6028   81.4108   26.5378 H   0  0  0  0  0  0
   77.6799   81.7412   28.0430 H   0  0  0  0  0  0
   78.9643   82.8779   27.5092 H   0  0  0  0  0  0
   75.5803   84.5404   29.1123 H   0  0  0  0  0  0
   76.8842   83.3063   29.1718 H   0  0  0  0  0  0
   75.2727   82.8788   28.5031 H   0  0  0  0  0  0
   79.9492   82.4780   21.9680 H   0  0  0  0  0  0
   80.0328   79.5644   22.8737 H   0  0  0  0  0  0
   82.3235   81.0010   22.7089 H   0  0  0  0  0  0
   82.2556   82.7766   22.4453 H   0  0  0  0  0  0
   81.9543   81.1960   25.0328 H   0  0  0  0  0  0
   82.9346   82.6679   24.7182 H   0  0  0  0  0  0
   80.8935   84.0567   24.4458 H   0  0  0  0  0  0
   80.4955   83.0249   25.8612 H   0  0  0  0  0  0
  1  2  1  0  0  0
  1  7  1  0  0  0
  1 58  1  0  0  0
  1 59  1  0  0  0
  2  3  1  0  0  0
  2  5  1  0  0  0
  2 60  1  0  0  0
  3  4  2  0  0  0
  3  8  1  0  0  0
  5  6  1  0  0  0
  5 61  1  0  0  0
  5 62  1  0  0  0
  6  7  1  0  0  0
  6 63  1  0  0  0
  6 64  1  0  0  0
  7 65  1  0  0  0
  7 66  1  0  0  0
  8  9  1  0  0  0
  8 67  1  0  0  0
  9 12  1  0  0  0
  9 10  1  0  0  0
  9 68  1  0  0  0
 10 11  2  0  0  0
 10 13  1  0  0  0
 12 69  1  0  0  0
 12 70  1  0  0  0
 12 71  1  0  0  0
 13 14  1  0  0  0
 13 72  1  0  0  0
 14 17  1  0  0  0
 14 15  1  0  0  0
 14 73  1  0  0  0
 15 16  2  0  0  0
 15 25  1  0  0  0
 17 18  1  0  0  0
 17 74  1  0  0  0
 17 75  1  0  0  0
 18 19  2  0  0  0
 18 20  1  0  0  0
 19 21  1  0  0  0
 19 76  1  0  0  0
 20 22  2  0  0  0
 20 77  1  0  0  0
 21 23  2  0  0  0
 21 78  1  0  0  0
 22 23  1  0  0  0
 22 79  1  0  0  0
 23 24  1  0  0  0
 24 80  1  0  0  0
 25 26  1  0  0  0
 25 81  1  0  0  0
 26 29  1  0  0  0
 26 27  1  0  0  0
 26 82  1  0  0  0
 27 28  2  0  0  0
 27 34  1  0  0  0
 29 30  1  0  0  0
 29 83  1  0  0  0
 29 84  1  0  0  0
 30 31  1  0  0  0
 30 85  1  0  0  0
 30 86  1  0  0  0
 31 33  2  0  0  0
 31 32  1  0  0  0
 34 35  1  0  0  0
 34 87  1  0  0  0
 35 38  1  0  0  0
 35 36  1  0  0  0
 35 88  1  0  0  0
 36 37  2  0  0  0
 36 43  1  0  0  0
 38 39  1  0  0  0
 38 89  1  0  0  0
 38 90  1  0  0  0
 39 40  1  0  0  0
 39 91  1  0  0  0
 39 92  1  0  0  0
 40 42  1  0  0  0
 40 41  2  0  0  0
 43 44  1  0  0  0
 43 93  1  0  0  0
 44 47  1  0  0  0
 44 45  1  0  0  0
 44 94  1  0  0  0
 45 46  2  0  0  0
 45 51  1  0  0  0
 47 49  1  0  0  0
 47 48  1  0  0  0
 47 95  1  0  0  0
 48 50  1  0  0  0
 48 96  1  0  0  0
 48 97  1  0  0  0
 49 98  1  0  0  0
 49 99  1  0  0  0
 49100  1  0  0  0
 50101  1  0  0  0
 50102  1  0  0  0
 50103  1  0  0  0
 51 52  1  0  0  0
 51 57  1  0  0  0
 52 53  1  0  0  0
 52 55  1  0  0  0
 52104  1  0  0  0
 53 54  2  0  0  0
 53105  1  0  0  0
 55 56  1  0  0  0
 55106  1  0  0  0
 55107  1  0  0  0
 56 57  1  0  0  0
 56108  1  0  0  0
 56109  1  0  0  0
 57110  1  0  0  0
 57111  1  0  0  0
M  CHG  3   1   1  32  -1  42  -1
M  END
> <s_m_source_file>
../1sps_ligand.sdf

> <i_m_source_file_index>
1

> <s_epik_input>
W0NIMl0xW0NIMl1bQ0gyXVtOSDIrXVtDQEBIXTFDKD1PKVtOSF1bQ0BASF0oW0NIM10pQyg9TylbTkhdW0NAQEhdKFtDSDJdYzJbY0hdW2NIXWMoW09IXSlbY0hdW2NIXTIpQyg9TylbTkhdW0NAQEhdKFtDSDJdW0NIMl1DKD1PKVtPSF0pQyg9TylbTkhdW0NAQEhdKFtDSDJdW0NIMl1DKD1PKVtPSF0pQyg9TylbTkhdW0NAQEhdKFtDQEBIXShbQ0gzXSlbQ0gyXVtDSDNdKUMoPU8pTjNbQ0BIXShbQ0hdPU8pW0NIMl1bQ0gyXVtDSDJdMw==

> <s_epik_cmdline>
J2VwaWtfYXBwJywgJy1pbWFlJywgJ2xpZ2FuZF9wcm8ubWFlJywgJy1vbWFlJywgJ2xpZ2FuZF9wcmVwLm1hZScsICctbXMnLCAnMScsICctcGgnLCAnNycsICctcGh0JywgJzAuNScsICctbnQn

> <r_lp_tautomer_probability>
0.999900004997115

> <r_epik_Ionization_Penalty>
  0.0452

> <r_epik_Ionization_Penalty_Charging>
  0.0442

> <r_epik_Ionization_Penalty_Neutral>
  0.0010

> <r_epik_State_Penalty>
  0.0343

> <r_epik_Charging_Adjusted_Penalty>
0.078461282528436

> <i_epik_Tot_Q>
-1

> <i_epik_Tot_abs_Q>
3

$$$$
