1sqc_ligand
                    3D
 Schrodinger Suite 2020-3.
 47 46  0  0  1  0            999 V2000
  102.5810   33.4600   19.2120 N   0  3  0  0  0  0
  102.8530   32.3760   18.7100 O   0  5  0  0  0  0
  103.5840   34.4490   18.8610 C   0  0  0  0  0  0
  101.4770   34.0640   18.4940 C   0  0  0  0  0  0
  102.3320   33.4440   20.6670 C   0  0  0  0  0  0
  103.0950   32.3180   21.3980 C   0  0  0  0  0  0
  103.4200   32.7780   22.8450 C   0  0  0  0  0  0
  102.2540   32.3080   23.6980 C   0  0  0  0  0  0
  102.2000   32.9780   25.0480 C   0  0  0  0  0  0
  100.9560   32.3570   25.7470 C   0  0  0  0  0  0
  101.4720   31.1700   26.5600 C   0  0  0  0  0  0
  100.3550   30.4510   27.3390 C   0  0  0  0  0  0
  100.2830   31.3410   28.5710 C   0  0  0  0  0  0
  100.5650   30.5440   29.8380 C   0  0  0  0  0  0
   99.1970   30.1920   30.3850 C   0  0  0  0  0  0
   99.0590   28.6820   30.4450 C   0  0  0  0  0  0
  103.7465   34.4363   17.7731 H   0  0  0  0  0  0
  104.5272   34.2132   19.3755 H   0  0  0  0  0  0
  103.2382   35.4470   19.1684 H   0  0  0  0  0  0
  101.6947   34.0597   17.4158 H   0  0  0  0  0  0
  101.3402   35.1004   18.8364 H   0  0  0  0  0  0
  100.5580   33.4904   18.6848 H   0  0  0  0  0  0
  102.6510   34.4017   21.1041 H   0  0  0  0  0  0
  101.2582   33.2953   20.8536 H   0  0  0  0  0  0
  102.4708   31.4128   21.4297 H   0  0  0  0  0  0
  104.0300   32.1001   20.8610 H   0  0  0  0  0  0
  104.3649   32.3195   23.1720 H   0  0  0  0  0  0
  103.5166   33.8735   22.8685 H   0  0  0  0  0  0
  101.3088   32.5269   23.1796 H   0  0  0  0  0  0
  102.3369   31.2243   23.8672 H   0  0  0  0  0  0
  103.1275   32.7657   25.6000 H   0  0  0  0  0  0
  102.0936   34.0646   24.9141 H   0  0  0  0  0  0
  100.4879   33.1094   26.3987 H   0  0  0  0  0  0
  100.2324   32.0304   24.9855 H   0  0  0  0  0  0
  101.9363   30.4368   25.8841 H   0  0  0  0  0  0
  102.2178   31.5209   27.2884 H   0  0  0  0  0  0
   99.4344   30.4435   26.7369 H   0  0  0  0  0  0
  100.6630   29.4164   27.5507 H   0  0  0  0  0  0
  101.0292   32.1448   28.4868 H   0  0  0  0  0  0
   99.2776   31.7806   28.6475 H   0  0  0  0  0  0
  101.1465   29.6454   29.5841 H   0  0  0  0  0  0
  101.1384   31.1651   30.5419 H   0  0  0  0  0  0
   99.0862   30.6139   31.3948 H   0  0  0  0  0  0
   98.4205   30.6084   29.7265 H   0  0  0  0  0  0
   98.0670   28.4200   30.8417 H   0  0  0  0  0  0
   99.8378   28.2685   31.1026 H   0  0  0  0  0  0
   99.1721   28.2630   29.4342 H   0  0  0  0  0  0
  1  2  1  0  0  0
  1  3  1  0  0  0
  1  4  1  0  0  0
  1  5  1  0  0  0
  3 17  1  0  0  0
  3 18  1  0  0  0
  3 19  1  0  0  0
  4 20  1  0  0  0
  4 21  1  0  0  0
  4 22  1  0  0  0
  5  6  1  0  0  0
  5 23  1  0  0  0
  5 24  1  0  0  0
  6  7  1  0  0  0
  6 25  1  0  0  0
  6 26  1  0  0  0
  7  8  1  0  0  0
  7 27  1  0  0  0
  7 28  1  0  0  0
  8  9  1  0  0  0
  8 29  1  0  0  0
  8 30  1  0  0  0
  9 10  1  0  0  0
  9 31  1  0  0  0
  9 32  1  0  0  0
 10 11  1  0  0  0
 10 33  1  0  0  0
 10 34  1  0  0  0
 11 12  1  0  0  0
 11 35  1  0  0  0
 11 36  1  0  0  0
 12 13  1  0  0  0
 12 37  1  0  0  0
 12 38  1  0  0  0
 13 14  1  0  0  0
 13 39  1  0  0  0
 13 40  1  0  0  0
 14 15  1  0  0  0
 14 41  1  0  0  0
 14 42  1  0  0  0
 15 16  1  0  0  0
 15 43  1  0  0  0
 15 44  1  0  0  0
 16 45  1  0  0  0
 16 46  1  0  0  0
 16 47  1  0  0  0
M  CHG  2   1   1   2  -1
M  END
> <s_m_source_file>
../1sqc_ligand.sdf

> <i_m_source_file_index>
1

> <s_epik_input>
W09IXVtOK10oW0NIM10pKFtDSDNdKVtDSDJdW0NIMl1bQ0gyXVtDSDJdW0NIMl1bQ0gyXVtDSDJdW0NIMl1bQ0gyXVtDSDJdW0NIMl1bQ0gzXQ==

> <s_epik_cmdline>
J2VwaWtfYXBwJywgJy1pbWFlJywgJ2xpZ2FuZF9wcm8ubWFlJywgJy1vbWFlJywgJ2xpZ2FuZF9wcmVwLm1hZScsICctbXMnLCAnMScsICctcGgnLCAnNycsICctcGh0JywgJzAuNScsICctbnQn

> <r_epik_Ionization_Penalty>
  0.0228

> <r_epik_Ionization_Penalty_Charging>
  0.0228

> <r_epik_Ionization_Penalty_Neutral>
  0.0000

> <r_epik_State_Penalty>
  0.0184

> <r_epik_Charging_Adjusted_Penalty>
0.0411802834555044

> <i_epik_Tot_Q>
0

> <i_epik_Tot_abs_Q>
2

$$$$
