1sqi_ligand
                    3D
 Schrodinger Suite 2020-3.
 57 59  0  0  1  0            999 V2000
   45.7410    1.5990    8.0700 O   0  0  0  0  0  0
   47.1160    1.8760    8.3900 C   0  0  0  0  0  0
   44.8060    1.1630    5.7870 C   0  0  0  0  0  0
   44.9830    0.5580    4.5250 C   0  0  0  0  0  0
   46.1780   -0.1590    4.3240 C   0  0  0  0  0  0
   47.1740   -0.2880    5.2560 C   0  0  0  0  0  0
   46.9690    0.3120    6.5100 C   0  0  0  0  0  0
   45.7780    1.0360    6.7610 C   0  0  0  0  0  0
   44.9710   -1.3850    2.7410 C   0  0  0  0  0  0
   44.9260   -1.7960    1.3680 C   0  0  0  0  0  0
   46.0010   -1.3190    0.5940 C   0  0  0  0  0  0
   47.0630   -0.4980    1.0990 C   0  0  0  0  0  0
   47.0730   -0.0570    2.4270 C   0  0  0  0  0  0
   45.9910   -0.5360    3.2610 C   0  0  0  0  0  0
   43.9270   -1.8440    3.5890 C   0  0  0  0  0  0
   44.7360   -4.1020    0.6560 C   0  0  0  0  0  0
   43.6300   -4.8120    0.4470 C   0  0  0  0  0  0
   45.9510   -4.7200    0.7620 C   0  0  0  0  0  0
   44.1140   -6.0720    0.4150 N   0  0  0  0  0  0
   45.5960   -5.9980    0.6170 N   0  0  0  0  0  0
   42.2850   -4.5980    0.2980 O   0  0  0  0  0  0
   44.1030   -2.9680    0.6160 C   0  0  0  0  0  0
   42.8230   -2.6630    0.4160 O   0  0  0  0  0  0
   48.3160    0.7470    2.8370 S   0  0  0  0  0  0
   49.2610    0.2880    2.2240 O   0  0  0  0  0  0
   48.6460    0.6080    4.1630 O   0  0  0  0  0  0
   48.4050    1.9280    2.6670 C   0  0  0  0  0  0
   43.6240   -7.5700    0.4260 C   0  0  0  0  0  0
   43.3960   -7.8750    1.9170 C   0  0  0  0  0  0
   42.4490   -7.8120   -0.4330 C   0  0  0  0  0  0
   44.6530   -8.6610    0.0180 C   0  0  0  0  0  0
   47.1766    2.3175    9.3957 H   0  0  0  0  0  0
   47.5287    2.5819    7.6542 H   0  0  0  0  0  0
   47.6940    0.9404    8.3648 H   0  0  0  0  0  0
   43.8999    1.7323    5.9944 H   0  0  0  0  0  0
   44.2296    0.6417    3.7418 H   0  0  0  0  0  0
   48.0901   -0.8350    5.0333 H   0  0  0  0  0  0
   47.7260    0.2203    7.2889 H   0  0  0  0  0  0
   46.0280   -1.5923   -0.4608 H   0  0  0  0  0  0
   47.8787   -0.2118    0.4351 H   0  0  0  0  0  0
   43.2408   -2.4823    3.0131 H   0  0  0  0  0  0
   43.3752   -0.9815    3.9909 H   0  0  0  0  0  0
   44.3570   -2.4234    4.4193 H   0  0  0  0  0  0
   46.9387   -4.2873    0.9213 H   0  0  0  0  0  0
   48.1596    2.1675    1.6218 H   0  0  0  0  0  0
   49.4326    2.2536    2.8862 H   0  0  0  0  0  0
   47.7047    2.4486    3.3367 H   0  0  0  0  0  0
   42.6724   -7.1576    2.3315 H   0  0  0  0  0  0
   44.3494   -7.7887    2.4589 H   0  0  0  0  0  0
   43.0032   -8.8966    2.0264 H   0  0  0  0  0  0
   41.6678   -7.0727   -0.2025 H   0  0  0  0  0  0
   42.0616   -8.8247   -0.2476 H   0  0  0  0  0  0
   42.7416   -7.7190   -1.4893 H   0  0  0  0  0  0
   45.5665   -8.5468    0.6200 H   0  0  0  0  0  0
   44.9003   -8.5513   -1.0482 H   0  0  0  0  0  0
   44.2203   -9.6570    0.1935 H   0  0  0  0  0  0
   41.8850   -3.5736    0.3232 H   0  0  0  0  0  0
  1  2  1  0  0  0
  1  8  1  0  0  0
  2 32  1  0  0  0
  2 33  1  0  0  0
  2 34  1  0  0  0
  3  4  2  0  0  0
  3  8  1  0  0  0
  3 35  1  0  0  0
  4  5  1  0  0  0
  4 36  1  0  0  0
  5  6  2  0  0  0
  5 14  1  0  0  0
  6  7  1  0  0  0
  6 37  1  0  0  0
  7  8  2  0  0  0
  7 38  1  0  0  0
  9 10  2  0  0  0
  9 14  1  0  0  0
  9 15  1  0  0  0
 10 11  1  0  0  0
 10 22  1  0  0  0
 11 12  2  0  0  0
 11 39  1  0  0  0
 12 13  1  0  0  0
 12 40  1  0  0  0
 13 14  2  0  0  0
 13 24  1  0  0  0
 15 41  1  0  0  0
 15 42  1  0  0  0
 15 43  1  0  0  0
 16 17  2  0  0  0
 16 18  1  0  0  0
 16 22  1  0  0  0
 17 19  1  0  0  0
 17 21  1  0  0  0
 18 20  2  0  0  0
 18 44  1  0  0  0
 19 20  1  0  0  0
 19 28  1  0  0  0
 21 57  1  0  0  0
 22 23  2  0  0  0
 24 25  2  0  0  0
 24 26  2  0  0  0
 24 27  1  0  0  0
 27 45  1  0  0  0
 27 46  1  0  0  0
 27 47  1  0  0  0
 28 29  1  0  0  0
 28 30  1  0  0  0
 28 31  1  0  0  0
 29 48  1  0  0  0
 29 49  1  0  0  0
 29 50  1  0  0  0
 30 51  1  0  0  0
 30 52  1  0  0  0
 30 53  1  0  0  0
 31 54  1  0  0  0
 31 55  1  0  0  0
 31 56  1  0  0  0
M  END
> <s_m_source_file>
../1sqi_ligand.sdf

> <i_m_source_file_index>
1

> <s_epik_input>
W0NIM11PYyhbY0hdW2NIXTEpW2NIXVtjSF1jMS1jMmMoUyg9TykoPU8pW0NIM10pW2NIXVtjSF1jKGMyW0NIM10pQyg9TylbQ0hdM0MoPU8pTihOPVtDSF0zKUMoW0NIM10pKFtDSDNdKVtDSDNd

> <s_epik_cmdline>
J2VwaWtfYXBwJywgJy1pbWFlJywgJ2xpZ2FuZF9wcm8ubWFlJywgJy1vbWFlJywgJ2xpZ2FuZF9wcmVwLm1hZScsICctbXMnLCAnMScsICctcGgnLCAnNycsICctcGh0JywgJzAuNScsICctbnQn

> <r_lp_tautomer_probability>
1

> <r_epik_Ionization_Penalty>
  0.3571

> <r_epik_Ionization_Penalty_Charging>
  0.0000

> <r_epik_Ionization_Penalty_Neutral>
  0.3571

> <r_epik_State_Penalty>
  0.3537

> <r_epik_Charging_Adjusted_Penalty>
0.353707718861191

> <i_epik_Tot_Q>
0

> <i_epik_Tot_abs_Q>
0

$$$$
