1sqn_ligand
                    3D
 Schrodinger Suite 2020-3.
 49 52  0  0  1  0            999 V2000
   -4.1220   -1.1470   30.7680 O   0  0  0  0  0  0
   -3.7310   -0.3340   29.9590 C   0  0  0  0  0  0
   -4.4900    0.9880   29.7420 C   0  0  0  0  0  0
   -2.5860   -0.6780   29.1600 C   0  0  0  0  0  0
   -2.1910    0.2160   28.1060 C   0  0  3  0  0  0
   -0.8560   -0.1210   27.4590 C   0  0  0  0  0  0
   -2.9580    1.3330   27.6770 C   0  0  2  0  0  0
   -4.3850    1.2920   28.2630 C   0  0  0  0  0  0
   -2.8080    1.6270   26.2540 C   0  0  2  0  0  0
   -1.6160    1.3810   25.5500 C   0  0  1  0  0  0
   -0.9620    0.0700   25.9880 C   0  0  0  0  0  0
   -3.6500    2.8190   25.7550 C   0  0  0  0  0  0
   -3.4930    3.0750   24.1940 C   0  0  0  0  0  0
   -2.1050    2.9940   23.6570 C   0  0  2  0  0  0
   -1.4440    1.7140   24.1630 C   0  0  1  0  0  0
   -1.4140    4.2380   24.2320 C   0  0  0  0  0  0
   -1.8860    2.9150   22.1190 C   0  0  1  0  0  0
   -1.9890    4.1550   21.4200 O   0  0  0  0  0  0
   -0.4500    2.3470   22.0170 C   0  0  0  0  0  0
   -0.2250    1.5110   23.2800 C   0  0  0  0  0  0
   -2.8680    2.0190   21.4830 C   0  0  0  0  0  0
   -3.7620    1.2630   20.9700 C   0  0  0  0  0  0
   -5.5391    0.8630   30.0484 H   0  0  0  0  0  0
   -4.0241    1.7815   30.3447 H   0  0  0  0  0  0
   -1.6993   -0.7594   29.8059 H   0  0  0  0  0  0
   -2.7644   -1.6409   28.6590 H   0  0  0  0  0  0
   -1.6748    0.8527   28.8395 H   0  0  0  0  0  0
   -0.0758    0.5417   27.8616 H   0  0  0  0  0  0
   -0.5966   -1.1675   27.6772 H   0  0  0  0  0  0
   -2.4400    2.2105   28.0914 H   0  0  0  0  0  0
   -4.9264    0.5237   27.6914 H   0  0  0  0  0  0
   -4.8257    2.2791   28.0593 H   0  0  0  0  0  0
   -3.1150    0.6262   25.9163 H   0  0  0  0  0  0
   -1.1447    2.3235   25.8655 H   0  0  0  0  0  0
    0.0439    0.0567   25.5431 H   0  0  0  0  0  0
   -1.5650   -0.7419   25.5553 H   0  0  0  0  0  0
   -4.7139    2.6270   25.9582 H   0  0  0  0  0  0
   -3.3362    3.7342   26.2783 H   0  0  0  0  0  0
   -4.0800    2.3283   23.6391 H   0  0  0  0  0  0
   -3.8576    4.0836   23.9493 H   0  0  0  0  0  0
   -1.9506    0.7376   24.1656 H   0  0  0  0  0  0
   -1.5781    4.2791   25.3189 H   0  0  0  0  0  0
   -1.8339    5.1402   23.7633 H   0  0  0  0  0  0
   -0.3347    4.1862   24.0258 H   0  0  0  0  0  0
   -1.3504    5.0032   21.7077 H   0  0  0  0  0  0
   -0.3647    1.7259   21.1131 H   0  0  0  0  0  0
    0.2695    3.1771   21.9607 H   0  0  0  0  0  0
    0.6755    1.8465   23.8153 H   0  0  0  0  0  0
   -0.1268    0.4443   23.0301 H   0  0  0  0  0  0
  1  2  2  0  0  0
  2  3  1  0  0  0
  2  4  1  0  0  0
  3  8  1  0  0  0
  3 23  1  0  0  0
  3 24  1  0  0  0
  4  5  1  0  0  0
  4 25  1  0  0  0
  4 26  1  0  0  0
  5  6  1  0  0  0
  5  7  1  0  0  0
  5 27  1  0  0  0
  6 11  1  0  0  0
  6 28  1  0  0  0
  6 29  1  0  0  0
  7  8  1  0  0  0
  7  9  1  0  0  0
  7 30  1  0  0  0
  8 31  1  0  0  0
  8 32  1  0  0  0
  9 10  1  0  0  0
  9 12  1  0  0  0
  9 33  1  0  0  0
 10 11  1  0  0  0
 10 15  1  0  0  0
 10 34  1  0  0  0
 11 35  1  0  0  0
 11 36  1  0  0  0
 12 13  1  0  0  0
 12 37  1  0  0  0
 12 38  1  0  0  0
 13 14  1  0  0  0
 13 39  1  0  0  0
 13 40  1  0  0  0
 14 15  1  0  0  0
 14 16  1  0  0  0
 14 17  1  0  0  0
 15 20  1  0  0  0
 15 41  1  0  0  0
 16 42  1  0  0  0
 16 43  1  0  0  0
 16 44  1  0  0  0
 17 18  1  0  0  0
 17 19  1  0  0  0
 17 21  1  0  0  0
 18 45  1  0  0  0
 19 20  1  0  0  0
 19 46  1  0  0  0
 19 47  1  0  0  0
 20 48  1  0  0  0
 20 49  1  0  0  0
 21 22  3  0  0  0
M  END
> <s_m_source_file>
../1sqn_ligand.sdf

> <i_m_source_file_index>
1

> <s_epik_input>
W0NIMl0xW0NIMl1DKD1PKVtDSDJdW0NIXShbQ0gyXVtDSDJdMilbQ0BIXTFbQ0BASF0oW0NIMl1bQ0gyXTMpW0NAQEhdMltDQEBIXShbQ0BdMzRbQ0gzXSlbQ0gyXVtDSDJdW0NAQF00KFtPSF0pQyNbQ0hd

> <s_epik_cmdline>
J2VwaWtfYXBwJywgJy1pbWFlJywgJ2xpZ2FuZF9wcm8ubWFlJywgJy1vbWFlJywgJ2xpZ2FuZF9wcmVwLm1hZScsICctbXMnLCAnMScsICctcGgnLCAnNycsICctcGh0JywgJzAuNScsICctbnQn

> <r_lp_tautomer_probability>
1

> <r_epik_Ionization_Penalty>
  0.0000

> <r_epik_Ionization_Penalty_Charging>
  0.0000

> <r_epik_Ionization_Penalty_Neutral>
  0.0000

> <r_epik_State_Penalty>
 -0.0000

> <r_epik_Charging_Adjusted_Penalty>
0

> <i_epik_Tot_Q>
0

> <i_epik_Tot_abs_Q>
0

$$$$
