1sqo_ligand
                    3D
 Schrodinger Suite 2020-3.
 34 36  0  0  1  0            999 V2000
   22.8480   15.6040   33.4860 C   0  0  0  0  0  0
   21.5630   15.6150   32.9250 C   0  0  0  0  0  0
   20.6830   16.7430   33.1310 C   0  0  0  0  0  0
   21.1830   17.8310   33.9200 C   0  0  0  0  0  0
   22.4840   17.8600   34.4720 C   0  0  0  0  0  0
   23.3140   16.7200   34.2580 C   0  0  0  0  0  0
   19.3950   16.7020   32.5920 C   0  0  0  0  0  0
   18.5190   17.7660   32.9440 C   0  0  0  0  0  0
   18.9390   18.8490   33.7780 C   0  0  0  0  0  0
   20.2510   18.9260   34.2320 C   0  0  0  0  0  0
   23.0230   18.9790   35.1990 N   0  0  0  0  0  0
   23.5730   18.9350   36.4770 C   0  0  0  0  0  0
   23.5420   17.8270   37.2840 N   0  0  0  0  0  0
   24.0180   17.7620   38.5550 C   0  0  0  0  0  0
   24.6230   18.9260   39.1790 C   0  0  0  0  0  0
   24.5650   20.0600   38.2700 C   0  0  0  0  0  0
   24.1230   20.0870   37.0400 N   0  0  0  0  0  0
   18.1090   19.8910   34.1900 C   0  0  0  0  0  0
   16.8030   19.7790   34.1600 N   0  3  0  0  0  0
   18.5430   21.0900   34.6510 N   0  0  0  0  0  0
   23.4973   14.7417   33.3346 H   0  0  0  0  0  0
   21.2253   14.7669   32.3293 H   0  0  0  0  0  0
   24.3159   16.6963   34.6867 H   0  0  0  0  0  0
   19.0766   15.8938   31.9335 H   0  0  0  0  0  0
   17.4965   17.7555   32.5665 H   0  0  0  0  0  0
   20.5848   19.7866   34.8117 H   0  0  0  0  0  0
   23.0228   19.9811   34.7454 H   0  0  0  0  0  0
   23.9452   16.8277   39.1116 H   0  0  0  0  0  0
   25.0558   18.9465   40.1792 H   0  0  0  0  0  0
   24.9367   21.0060   38.6638 H   0  0  0  0  0  0
   16.3389   18.8477   33.8032 H   0  0  0  0  0  0
   19.6215   21.2952   34.7195 H   0  0  0  0  0  0
   17.8166   21.8575   34.9564 H   0  0  0  0  0  0
   16.1714   20.6163   34.4916 H   0  0  0  0  0  0
  1  2  2  0  0  0
  1  6  1  0  0  0
  1 21  1  0  0  0
  2  3  1  0  0  0
  2 22  1  0  0  0
  3  4  2  0  0  0
  3  7  1  0  0  0
  4  5  1  0  0  0
  4 10  1  0  0  0
  5  6  2  0  0  0
  5 11  1  0  0  0
  6 23  1  0  0  0
  7  8  2  0  0  0
  7 24  1  0  0  0
  8  9  1  0  0  0
  8 25  1  0  0  0
  9 10  2  0  0  0
  9 18  1  0  0  0
 10 26  1  0  0  0
 11 12  1  0  0  0
 11 27  1  0  0  0
 12 13  2  0  0  0
 12 17  1  0  0  0
 13 14  1  0  0  0
 14 15  2  0  0  0
 14 28  1  0  0  0
 15 16  1  0  0  0
 15 29  1  0  0  0
 16 17  2  0  0  0
 16 30  1  0  0  0
 18 19  2  0  0  0
 18 20  1  0  0  0
 19 31  1  0  0  0
 19 34  1  0  0  0
 20 32  1  0  0  0
 20 33  1  0  0  0
M  CHG  1  19   1
M  END
> <s_m_source_file>
../1sqo_ligand.sdf

> <i_m_source_file_index>
1

> <s_epik_input>
W0hdL049QyhbTkgyXSlcYyhbY0hdW2NIXTEpW2NIXWMoYzEyKWMoW2NIXVtjSF1bY0hdMilbTkhdYzNuW2NIXVtjSF1bY0hdbjM=

> <s_epik_cmdline>
J2VwaWtfYXBwJywgJy1pbWFlJywgJ2xpZ2FuZF9wcm8ubWFlJywgJy1vbWFlJywgJ2xpZ2FuZF9wcmVwLm1hZScsICctbXMnLCAnMScsICctcGgnLCAnNycsICctcGh0JywgJzAuNScsICctbnQn

> <r_lp_tautomer_probability>
1

> <r_epik_Ionization_Penalty>
  0.0004

> <r_epik_Ionization_Penalty_Charging>
  0.0003

> <r_epik_Ionization_Penalty_Neutral>
  0.0001

> <r_epik_State_Penalty>
 -0.0000

> <r_epik_Charging_Adjusted_Penalty>
0.0003115973184836

> <i_epik_Tot_Q>
1

> <i_epik_Tot_abs_Q>
1

> <s_epik_Chemistry_Notes>
This compound has an imine and may undergo hydrolysis.

$$$$
