1sqp_ligand
                    3D
 Schrodinger Suite 2020-3.
 66 67  0  0  1  0            999 V2000
   66.4770   58.6540  168.1130 O   0  0  0  0  0  0
   67.2970   59.5610  168.0940 C   0  0  0  0  0  0
   67.0800   60.6070  167.2990 N   0  0  0  0  0  0
   68.5770   59.5160  168.9290 C   0  0  0  0  0  0
   68.9790   58.5510  169.8500 C   0  0  0  0  0  0
   70.2340   58.6990  170.5960 O   0  0  0  0  0  0
   71.0910   59.8200  170.5010 C   0  0  0  0  0  0
   68.2020   57.2730  170.1130 C   0  0  2  0  0  0
   67.5670   57.3660  171.5030 C   0  0  0  0  0  0
   69.1270   56.0670  169.9760 C   0  0  1  0  0  0
   68.6270   54.8540  170.5710 O   0  0  0  0  0  0
   69.6580   54.0270  171.1430 C   0  0  0  0  0  0
   69.6750   55.9030  168.5610 C   0  0  0  0  0  0
   69.3830   54.8800  167.7490 C   0  0  0  0  0  0
   70.1060   54.7350  166.4380 C   0  0  0  0  0  0
   69.8170   53.6910  165.6560 C   0  0  0  0  0  0
   71.0290   55.5970  165.9880 N   0  0  0  0  0  0
   71.4770   55.1940  164.6790 C   0  0  0  0  0  0
   72.4960   55.8270  163.8630 C   0  0  0  0  0  0
   73.2610   56.8890  164.3330 C   0  0  0  0  0  0
   72.8590   55.3700  162.5920 N   0  0  0  0  0  0
   73.9370   56.1800  162.0650 C   0  0  0  0  0  0
   74.6260   55.9310  160.7130 C   0  0  1  0  0  0
   73.7770   55.0990  159.7700 C   0  0  0  0  0  0
   75.0820   57.2190  160.0430 C   0  0  0  0  0  0
   76.4290   57.4020  159.8280 C   0  0  0  0  0  0
   76.9030   58.6870  159.1660 C   0  0  0  0  0  0
   78.2520   58.8640  158.9540 C   0  0  0  0  0  0
   78.7640   60.1350  158.3020 C   0  0  0  0  0  0
   79.3620   61.0460  159.3630 C   0  0  0  0  0  0
   79.8150   59.8170  157.2440 C   0  0  0  0  0  0
   70.7080   53.7470  164.2160 S   0  0  0  0  0  0
   74.4640   57.3670  163.2160 S   0  0  0  0  0  0
   66.1643   60.6554  166.6914 H   0  0  0  0  0  0
   67.8164   61.4226  167.2499 H   0  0  0  0  0  0
   69.2189   60.3866  168.7290 H   0  0  0  0  0  0
   71.9580   59.6758  171.1624 H   0  0  0  0  0  0
   70.5451   60.7256  170.8042 H   0  0  0  0  0  0
   71.4364   59.9305  169.4625 H   0  0  0  0  0  0
   67.4008   57.1491  169.3696 H   0  0  0  0  0  0
   66.9123   58.2487  171.5487 H   0  0  0  0  0  0
   68.3579   57.4564  172.2621 H   0  0  0  0  0  0
   66.9746   56.4596  171.6969 H   0  0  0  0  0  0
   69.9848   56.2343  170.6440 H   0  0  0  0  0  0
   69.2048   53.1233  171.5765 H   0  0  0  0  0  0
   70.1831   54.5877  171.9304 H   0  0  0  0  0  0
   70.3736   53.7384  170.3590 H   0  0  0  0  0  0
   70.3528   56.6995  168.2202 H   0  0  0  0  0  0
   68.6159   54.1477  168.0409 H   0  0  0  0  0  0
   69.1031   52.9076  165.9105 H   0  0  0  0  0  0
   73.1108   57.3628  165.3031 H   0  0  0  0  0  0
   75.5294   55.3424  160.9309 H   0  0  0  0  0  0
   73.4616   54.1759  160.2784 H   0  0  0  0  0  0
   74.3652   54.8428  158.8765 H   0  0  0  0  0  0
   72.8887   55.6751  159.4715 H   0  0  0  0  0  0
   74.3653   57.9936  159.7327 H   0  0  0  0  0  0
   77.1453   56.6251  160.1336 H   0  0  0  0  0  0
   76.1909   59.4669  158.8583 H   0  0  0  0  0  0
   78.9637   58.0822  159.2577 H   0  0  0  0  0  0
   77.9172   60.6399  157.8142 H   0  0  0  0  0  0
   78.6002   61.2724  160.1236 H   0  0  0  0  0  0
   79.7014   61.9814  158.8941 H   0  0  0  0  0  0
   80.2169   60.5430  159.8386 H   0  0  0  0  0  0
   79.3778   59.1582  156.4793 H   0  0  0  0  0  0
   80.6704   59.3125  157.7170 H   0  0  0  0  0  0
   80.1549   60.7509  156.7725 H   0  0  0  0  0  0
  1  2  2  0  0  0
  2  3  1  0  0  0
  2  4  1  0  0  0
  3 34  1  0  0  0
  3 35  1  0  0  0
  4  5  2  0  0  0
  4 36  1  0  0  0
  5  6  1  0  0  0
  5  8  1  0  0  0
  6  7  1  0  0  0
  7 37  1  0  0  0
  7 38  1  0  0  0
  7 39  1  0  0  0
  8  9  1  0  0  0
  8 10  1  0  0  0
  8 40  1  0  0  0
  9 41  1  0  0  0
  9 42  1  0  0  0
  9 43  1  0  0  0
 10 11  1  0  0  0
 10 13  1  0  0  0
 10 44  1  0  0  0
 11 12  1  0  0  0
 12 45  1  0  0  0
 12 46  1  0  0  0
 12 47  1  0  0  0
 13 14  2  0  0  0
 13 48  1  0  0  0
 14 15  1  0  0  0
 14 49  1  0  0  0
 15 16  2  0  0  0
 15 17  1  0  0  0
 16 32  1  0  0  0
 16 50  1  0  0  0
 17 18  2  0  0  0
 18 19  1  0  0  0
 18 32  1  0  0  0
 19 20  2  0  0  0
 19 21  1  0  0  0
 20 33  1  0  0  0
 20 51  1  0  0  0
 21 22  2  0  0  0
 22 23  1  0  0  0
 22 33  1  0  0  0
 23 24  1  0  0  0
 23 25  1  0  0  0
 23 52  1  0  0  0
 24 53  1  0  0  0
 24 54  1  0  0  0
 24 55  1  0  0  0
 25 26  2  0  0  0
 25 56  1  0  0  0
 26 27  1  0  0  0
 26 57  1  0  0  0
 27 28  2  0  0  0
 27 58  1  0  0  0
 28 29  1  0  0  0
 28 59  1  0  0  0
 29 30  1  0  0  0
 29 31  1  0  0  0
 29 60  1  0  0  0
 30 61  1  0  0  0
 30 62  1  0  0  0
 30 63  1  0  0  0
 31 64  1  0  0  0
 31 65  1  0  0  0
 31 66  1  0  0  0
M  END
> <s_m_source_file>
../1sqp_ligand.sdf

> <i_m_source_file_index>
1

> <s_epik_input>
Tz1DKFtOSDJdKS9bQ0hdPUMoL09bQ0gzXSlbQ0BIXShbQ0gzXSlbQ0BASF0oT1tDSDNdKS9bQ0hdPVtDSF0vYzFbY0hdc2MobjEpLWMyW2NIXXNjKG4yKVtDQEBIXShbQ0gzXSkvW0NIXT1bQ0hdL1tDSF09W0NIXS9bQ0hdKFtDSDNdKVtDSDNd

> <s_epik_cmdline>
J2VwaWtfYXBwJywgJy1pbWFlJywgJ2xpZ2FuZF9wcm8ubWFlJywgJy1vbWFlJywgJ2xpZ2FuZF9wcmVwLm1hZScsICctbXMnLCAnMScsICctcGgnLCAnNycsICctcGh0JywgJzAuNScsICctbnQn

> <r_lp_tautomer_probability>
1

> <r_epik_Ionization_Penalty>
  0.0000

> <r_epik_Ionization_Penalty_Charging>
  0.0000

> <r_epik_Ionization_Penalty_Neutral>
  0.0000

> <r_epik_State_Penalty>
 -0.0000

> <r_epik_Charging_Adjusted_Penalty>
0

> <i_epik_Tot_Q>
0

> <i_epik_Tot_abs_Q>
0

$$$$
