1sqq_ligand
                    3D
 Schrodinger Suite 2020-3.
 40 41  0  0  1  0            999 V2000
   66.9710   60.6950  167.6360 C   0  0  0  0  0  0
   68.0210   59.9850  168.3810 O   0  0  0  0  0  0
   67.6520   58.9220  169.1640 C   0  0  0  0  0  0
   66.4620   58.6140  169.2520 O   0  0  0  0  0  0
   68.7090   58.3480  169.9920 C   0  0  0  0  0  0
   69.7140   59.2050  170.2050 C   0  0  0  0  0  0
   70.5170   58.9540  171.1770 O   0  0  0  0  0  0
   71.4390   60.0150  171.3910 C   0  0  0  0  0  0
   68.5800   56.9750  170.6280 C   0  0  0  0  0  0
   67.8510   56.8160  171.8800 C   0  0  0  0  0  0
   69.0740   55.7330  170.0120 C   0  0  0  0  0  0
   69.0330   54.4840  170.7290 C   0  0  0  0  0  0
   68.3360   54.3910  171.9600 C   0  0  0  0  0  0
   67.7600   55.5550  172.5470 C   0  0  0  0  0  0
   69.7730   55.7930  168.7330 C   0  0  0  0  0  0
   69.5290   54.8800  167.7650 C   0  0  0  0  0  0
   70.3550   54.7780  166.5650 C   0  0  0  0  0  0
   70.9670   55.9480  165.9730 C   0  0  0  0  0  0
   71.7400   55.8270  164.7720 C   0  0  0  0  0  0
   70.4770   53.5160  165.9190 C   0  0  0  0  0  0
   71.2340   53.3940  164.7120 C   0  0  0  0  0  0
   71.8820   54.5450  164.1450 C   0  0  0  0  0  0
   67.4219   61.5162  167.0595 H   0  0  0  0  0  0
   66.2335   61.1044  168.3420 H   0  0  0  0  0  0
   66.4720   59.9956  166.9491 H   0  0  0  0  0  0
   69.8306   60.0875  169.5587 H   0  0  0  0  0  0
   72.1045   59.7591  172.2286 H   0  0  0  0  0  0
   70.8882   60.9370  171.6288 H   0  0  0  0  0  0
   72.0375   60.1697  170.4812 H   0  0  0  0  0  0
   67.3608   57.6841  172.3207 H   0  0  0  0  0  0
   69.5394   53.6080  170.3238 H   0  0  0  0  0  0
   68.2404   53.4266  172.4589 H   0  0  0  0  0  0
   67.2488   55.4835  173.5070 H   0  0  0  0  0  0
   70.5068   56.5942  168.5610 H   0  0  0  0  0  0
   68.6847   54.1824  167.8672 H   0  0  0  0  0  0
   70.8398   56.9239  166.4416 H   0  0  0  0  0  0
   72.2176   56.7051  164.3373 H   0  0  0  0  0  0
   69.9914   52.6386  166.3460 H   0  0  0  0  0  0
   71.3199   52.4250  164.2203 H   0  0  0  0  0  0
   72.4805   54.4436  163.2397 H   0  0  0  0  0  0
  1  2  1  0  0  0
  1 23  1  0  0  0
  1 24  1  0  0  0
  1 25  1  0  0  0
  2  3  1  0  0  0
  3  4  2  0  0  0
  3  5  1  0  0  0
  5  6  2  0  0  0
  5  9  1  0  0  0
  6  7  1  0  0  0
  6 26  1  0  0  0
  7  8  1  0  0  0
  8 27  1  0  0  0
  8 28  1  0  0  0
  8 29  1  0  0  0
  9 10  2  0  0  0
  9 11  1  0  0  0
 10 14  1  0  0  0
 10 30  1  0  0  0
 11 12  2  0  0  0
 11 15  1  0  0  0
 12 13  1  0  0  0
 12 31  1  0  0  0
 13 14  2  0  0  0
 13 32  1  0  0  0
 14 33  1  0  0  0
 15 16  2  0  0  0
 15 34  1  0  0  0
 16 17  1  0  0  0
 16 35  1  0  0  0
 17 18  2  0  0  0
 17 20  1  0  0  0
 18 19  1  0  0  0
 18 36  1  0  0  0
 19 22  2  0  0  0
 19 37  1  0  0  0
 20 21  2  0  0  0
 20 38  1  0  0  0
 21 22  1  0  0  0
 21 39  1  0  0  0
 22 40  1  0  0  0
M  END
> <s_m_source_file>
../1sqq_ligand.sdf

> <i_m_source_file_index>
1

> <s_epik_input>
W0NIM11PQyg9TykvQyg9W0NIXS9PW0NIM10pYzFbY0hdW2NIXVtjSF1bY0hdYzEvW0NIXT1bQ0hdL2MyW2NIXVtjSF1bY0hdW2NIXVtjSF0y

> <s_epik_cmdline>
J2VwaWtfYXBwJywgJy1pbWFlJywgJ2xpZ2FuZF9wcm8ubWFlJywgJy1vbWFlJywgJ2xpZ2FuZF9wcmVwLm1hZScsICctbXMnLCAnMScsICctcGgnLCAnNycsICctcGh0JywgJzAuNScsICctbnQn

> <r_lp_tautomer_probability>
1

> <r_epik_Ionization_Penalty>
  0.0000

> <r_epik_Ionization_Penalty_Charging>
  0.0000

> <r_epik_Ionization_Penalty_Neutral>
  0.0000

> <r_epik_State_Penalty>
 -0.0000

> <r_epik_Charging_Adjusted_Penalty>
0

> <i_epik_Tot_Q>
0

> <i_epik_Tot_abs_Q>
0

> <s_epik_Chemistry_Notes>
This compound has an ester and may undergo hydrolysis at high or low pH.

$$$$
