1sr7_ligand
                    3D
 Schrodinger Suite 2020-3.
 67 71  0  0  1  0            999 V2000
   -5.1290  -11.2270   30.4090 O   0  0  0  0  0  0
   -4.6810  -10.3470   29.7000 C   0  0  0  0  0  0
   -5.6140   -9.3250   29.1610 C   0  0  0  0  0  0
   -3.2830  -10.3920   29.2260 C   0  0  0  0  0  0
   -2.7470   -9.5110   28.2950 C   0  0  0  0  0  0
   -1.2690   -9.6320   27.8690 C   0  0  0  0  0  0
   -3.5700   -8.3370   27.7820 C   0  0  1  0  0  0
   -5.0320   -8.3430   28.2080 C   0  0  0  0  0  0
   -2.9750   -7.0520   28.3980 C   0  0  0  0  0  0
   -3.4520   -8.4040   26.2290 C   0  0  1  0  0  0
   -4.1590  -10.0120   25.6640 Cl  0  0  0  0  0  0
   -4.3330   -7.3810   25.4680 C   0  0  1  0  0  0
   -4.3130   -6.0400   25.8700 O   0  0  0  0  0  0
   -1.9720   -8.3700   25.7530 C   0  0  1  0  0  0
   -1.2470   -9.5830   26.3190 C   0  0  0  0  0  0
   -1.9260   -8.3100   24.2330 C   0  0  2  0  0  0
   -0.6100   -8.4170   23.4000 C   0  0  0  0  0  0
   -1.0360   -8.0810   22.0220 C   0  0  1  0  0  0
   -0.3630   -9.0410   21.0370 C   0  0  0  0  0  0
   -2.8540   -7.3330   23.4930 C   0  0  1  0  0  0
   -4.3280   -7.4860   23.9950 C   0  0  0  0  0  0
   -2.3760   -5.8920   23.8480 C   0  0  0  0  0  0
   -2.5090   -7.6580   22.0240 C   0  0  1  0  0  0
   -2.9930   -6.6500   21.1020 C   0  0  0  0  0  0
   -2.1380   -6.0030   20.4660 O   0  0  0  0  0  0
   -4.4140   -6.3560   21.0480 C   0  0  0  0  0  0
   -4.7630   -5.4580   19.6100 Cl  0  0  0  0  0  0
   -3.2470   -8.9290   21.8580 O   0  0  0  0  0  0
   -3.4640   -9.3390   20.5610 C   0  0  0  0  0  0
   -3.2350   -8.6950   19.5440 O   0  0  0  0  0  0
   -3.8600  -10.7480   20.6120 C   0  0  0  0  0  0
   -3.9550  -11.4150   21.7380 C   0  0  0  0  0  0
   -4.3420  -12.7320   21.4170 C   0  0  0  0  0  0
   -4.4070  -12.7950   20.0210 C   0  0  0  0  0  0
   -4.1130  -11.5510   19.4790 O   0  0  0  0  0  0
   -6.4322   -9.8240   28.6209 H   0  0  0  0  0  0
   -6.0292   -8.7337   29.9905 H   0  0  0  0  0  0
   -2.6549  -11.1852   29.6578 H   0  0  0  0  0  0
   -0.6949   -8.7961   28.2953 H   0  0  0  0  0  0
   -0.8582  -10.5840   28.2365 H   0  0  0  0  0  0
   -5.5491   -8.4206   27.2402 H   0  0  0  0  0  0
   -5.1548   -7.3260   28.6088 H   0  0  0  0  0  0
   -3.0960   -7.0793   29.4910 H   0  0  0  0  0  0
   -3.4997   -6.1742   27.9928 H   0  0  0  0  0  0
   -1.9055   -6.9872   28.1490 H   0  0  0  0  0  0
   -5.3489   -7.6198   25.8156 H   0  0  0  0  0  0
   -4.3138   -5.7866   26.9404 H   0  0  0  0  0  0
   -1.4389   -7.4775   26.1124 H   0  0  0  0  0  0
   -0.2052   -9.5438   25.9682 H   0  0  0  0  0  0
   -1.7357  -10.4826   25.9167 H   0  0  0  0  0  0
   -2.3531   -9.3215   24.2992 H   0  0  0  0  0  0
    0.1309   -7.7047   23.7919 H   0  0  0  0  0  0
   -0.2109   -9.4393   23.4746 H   0  0  0  0  0  0
   -0.6360   -7.1474   21.5996 H   0  0  0  0  0  0
    0.7013   -9.1445   21.2950 H   0  0  0  0  0  0
   -0.4557   -8.6430   20.0157 H   0  0  0  0  0  0
   -0.8512  -10.0252   21.0927 H   0  0  0  0  0  0
   -4.7272   -8.4664   23.6960 H   0  0  0  0  0  0
   -4.9551   -6.6892   23.5685 H   0  0  0  0  0  0
   -2.6263   -5.6704   24.8960 H   0  0  0  0  0  0
   -2.8773   -5.1669   23.1900 H   0  0  0  0  0  0
   -1.2871   -5.8221   23.7084 H   0  0  0  0  0  0
   -4.9831   -7.2973   21.0397 H   0  0  0  0  0  0
   -4.6995   -5.7627   21.9292 H   0  0  0  0  0  0
   -3.7689  -11.0228   22.7378 H   0  0  0  0  0  0
   -4.5495  -13.5408   22.1176 H   0  0  0  0  0  0
   -4.6519  -13.6873   19.4449 H   0  0  0  0  0  0
  1  2  2  0  0  0
  2  3  1  0  0  0
  2  4  1  0  0  0
  3  8  1  0  0  0
  3 36  1  0  0  0
  3 37  1  0  0  0
  4  5  2  0  0  0
  4 38  1  0  0  0
  5  6  1  0  0  0
  5  7  1  0  0  0
  6 15  1  0  0  0
  6 39  1  0  0  0
  6 40  1  0  0  0
  7  8  1  0  0  0
  7  9  1  0  0  0
  7 10  1  0  0  0
  8 41  1  0  0  0
  8 42  1  0  0  0
  9 43  1  0  0  0
  9 44  1  0  0  0
  9 45  1  0  0  0
 10 11  1  0  0  0
 10 12  1  0  0  0
 10 14  1  0  0  0
 12 13  1  0  0  0
 12 21  1  0  0  0
 12 46  1  0  0  0
 13 47  1  0  0  0
 14 15  1  0  0  0
 14 16  1  0  0  0
 14 48  1  0  0  0
 15 49  1  0  0  0
 15 50  1  0  0  0
 16 17  1  0  0  0
 16 20  1  0  0  0
 16 51  1  0  0  0
 17 18  1  0  0  0
 17 52  1  0  0  0
 17 53  1  0  0  0
 18 19  1  0  0  0
 18 23  1  0  0  0
 18 54  1  0  0  0
 19 55  1  0  0  0
 19 56  1  0  0  0
 19 57  1  0  0  0
 20 21  1  0  0  0
 20 22  1  0  0  0
 20 23  1  0  0  0
 21 58  1  0  0  0
 21 59  1  0  0  0
 22 60  1  0  0  0
 22 61  1  0  0  0
 22 62  1  0  0  0
 23 24  1  0  0  0
 23 28  1  0  0  0
 24 25  2  0  0  0
 24 26  1  0  0  0
 26 27  1  0  0  0
 26 63  1  0  0  0
 26 64  1  0  0  0
 28 29  1  0  0  0
 29 30  2  0  0  0
 29 31  1  0  0  0
 31 32  2  0  0  0
 31 35  1  0  0  0
 32 33  1  0  0  0
 32 65  1  0  0  0
 33 34  2  0  0  0
 33 66  1  0  0  0
 34 35  1  0  0  0
 34 67  1  0  0  0
M  END
> <s_m_source_file>
../1sr7_ligand.sdf

> <i_m_source_file_index>
1

> <s_epik_input>
W0NIMl0xW0NIMl1DKD1PKVtDSF09QyhbQ0BdMTJbQ0gzXSlbQ0gyXVtDSDJdW0NAQEhdM1tDQF0yKENsKVtDQEBIXShbT0hdKVtDSDJdW0NAQF00KFtDSDNdKVtDQEhdM1tDSDJdW0NAQEhdKFtDSDNdKVtDQEBdNChDKD1PKVtDSDJdQ2wpT0MoPU8pYzVbY0hdW2NIXVtjSF1vNQ==

> <s_epik_cmdline>
J2VwaWtfYXBwJywgJy1pbWFlJywgJ2xpZ2FuZF9wcm8ubWFlJywgJy1vbWFlJywgJ2xpZ2FuZF9wcmVwLm1hZScsICctbXMnLCAnMScsICctcGgnLCAnNycsICctcGh0JywgJzAuNScsICctbnQn

> <r_lp_tautomer_probability>
1

> <r_epik_Ionization_Penalty>
  0.0000

> <r_epik_Ionization_Penalty_Charging>
  0.0000

> <r_epik_Ionization_Penalty_Neutral>
  0.0000

> <r_epik_State_Penalty>
 -0.0000

> <r_epik_Charging_Adjusted_Penalty>
0

> <i_epik_Tot_Q>
0

> <i_epik_Tot_abs_Q>
0

> <s_epik_Chemistry_Notes>
This compound has an ester and may undergo hydrolysis at high or low pH.

$$$$
