1sre_ligand
                    3D
 Schrodinger Suite 2020-3.
 27 28  0  0  1  0            999 V2000
   33.4080   12.2270   -5.3890 C   0  0  0  0  0  0
   34.4880   11.9540   -4.6170 C   0  0  0  0  0  0
   34.4630   10.8210   -3.7710 C   0  0  0  0  0  0
   33.3100   10.0230   -3.7440 C   0  0  0  0  0  0
   32.1880   10.3440   -4.5100 C   0  0  0  0  0  0
   32.2190   11.4550   -5.3560 C   0  0  0  0  0  0
   31.7790   14.3940   -7.8400 C   0  0  0  0  0  0
   32.6310   15.4890   -8.0010 C   0  0  0  0  0  0
   32.2270   16.5010   -8.8540 C   0  0  0  0  0  0
   31.0110   16.4270   -9.5220 C   0  0  0  0  0  0
   30.1510   15.3400   -9.3390 C   0  0  0  0  0  0
   30.5370   14.3020   -8.4820 C   0  0  0  0  0  0
   35.7370   12.8300   -4.6450 C   0  0  0  0  0  0
   33.3380   13.4220   -6.2980 N   0  0  0  0  0  0
   32.1900   13.3320   -6.9060 N   0  0  0  0  0  0
   36.5450   12.6660   -3.7250 O   0  0  0  0  0  0
   36.0000   13.8300   -5.6110 O   0  5  0  0  0  0
   30.6080   17.4910  -10.3380 O   0  0  0  0  0  0
   35.3244   10.5724   -3.1511 H   0  0  0  0  0  0
   33.2896    9.1348   -3.1125 H   0  0  0  0  0  0
   31.2900    9.7292   -4.4481 H   0  0  0  0  0  0
   31.3582   11.7197   -5.9701 H   0  0  0  0  0  0
   33.5826   15.5446   -7.4723 H   0  0  0  0  0  0
   32.8711   17.3675   -9.0038 H   0  0  0  0  0  0
   29.1926   15.3010   -9.8567 H   0  0  0  0  0  0
   29.8866   13.4428   -8.3182 H   0  0  0  0  0  0
   31.2761   18.3516  -10.4895 H   0  0  0  0  0  0
  1  2  2  0  0  0
  1  6  1  0  0  0
  1 14  1  0  0  0
  2  3  1  0  0  0
  2 13  1  0  0  0
  3  4  2  0  0  0
  3 19  1  0  0  0
  4  5  1  0  0  0
  4 20  1  0  0  0
  5  6  2  0  0  0
  5 21  1  0  0  0
  6 22  1  0  0  0
  7  8  2  0  0  0
  7 12  1  0  0  0
  7 15  1  0  0  0
  8  9  1  0  0  0
  8 23  1  0  0  0
  9 10  2  0  0  0
  9 24  1  0  0  0
 10 11  1  0  0  0
 10 18  1  0  0  0
 11 12  2  0  0  0
 11 25  1  0  0  0
 12 26  1  0  0  0
 13 16  2  0  0  0
 13 17  1  0  0  0
 14 15  2  0  0  0
 18 27  1  0  0  0
M  CHG  1  17  -1
M  END
> <s_m_source_file>
../1sre_ligand.sdf

> <i_m_source_file_index>
1

> <s_epik_input>
W2NIXTFbY0hdW2NIXVtjSF1jKEMoPU8pW09IXSljMS9OPU4vYzJbY0hdW2NIXWMoW09IXSlbY0hdW2NIXTI=

> <s_epik_cmdline>
J2VwaWtfYXBwJywgJy1pbWFlJywgJ2xpZ2FuZF9wcm8ubWFlJywgJy1vbWFlJywgJ2xpZ2FuZF9wcmVwLm1hZScsICctbXMnLCAnMScsICctcGgnLCAnNycsICctcGh0JywgJzAuNScsICctbnQn

> <r_epik_Ionization_Penalty>
  0.0316

> <r_epik_Ionization_Penalty_Charging>
  0.0002

> <r_epik_Ionization_Penalty_Neutral>
  0.0314

> <r_epik_State_Penalty>
  0.0259

> <r_epik_Charging_Adjusted_Penalty>
0.0261544515629529

> <i_epik_Tot_Q>
-1

> <i_epik_Tot_abs_Q>
1

$$$$
