1srg_ligand
                    3D
 Schrodinger Suite 2020-3.
 30 31  0  0  1  0            999 V2000
   33.3510   12.1830   -5.4430 C   0  0  0  0  0  0
   34.5890   12.1050   -4.8280 C   0  0  0  0  0  0
   34.8660   11.0850   -3.9010 C   0  0  0  0  0  0
   33.8790   10.1440   -3.6300 C   0  0  0  0  0  0
   32.6300   10.1870   -4.2640 C   0  0  0  0  0  0
   32.3580   11.2070   -5.1810 C   0  0  0  0  0  0
   31.7400   14.1650   -8.0990 C   0  0  0  0  0  0
   32.4780   15.3510   -8.1450 C   0  0  0  0  0  0
   32.0550   16.4220   -8.9240 C   0  0  0  0  0  0
   30.8620   16.2980   -9.6430 C   0  0  0  0  0  0
   30.0220   15.2040   -9.6590 C   0  0  0  0  0  0
   30.5500   14.0100   -8.7750 C   0  0  0  0  0  0
   35.6590   13.1820   -5.0410 C   0  0  0  0  0  0
   32.8480   17.7280   -8.9480 C   0  0  0  0  0  0
   33.0450   13.2660   -6.3890 N   0  0  0  0  0  0
   32.1540   13.0140   -7.2740 N   0  0  0  0  0  0
   35.4960   14.1610   -5.7470 O   0  0  0  0  0  0
   36.8220   13.0410   -4.2150 O   0  5  0  0  0  0
   30.4180   17.4680  -10.4760 O   0  0  0  0  0  0
   35.8351   11.0329   -3.4047 H   0  0  0  0  0  0
   34.0816    9.3538   -2.9070 H   0  0  0  0  0  0
   31.8762    9.4310   -4.0440 H   0  0  0  0  0  0
   31.3940   11.2507   -5.6879 H   0  0  0  0  0  0
   33.3958   15.4373   -7.5634 H   0  0  0  0  0  0
   29.0904   15.1687  -10.2238 H   0  0  0  0  0  0
   29.9849   13.0809   -8.7004 H   0  0  0  0  0  0
   33.7477   17.6222   -8.3240 H   0  0  0  0  0  0
   32.2231   18.5436   -8.5552 H   0  0  0  0  0  0
   33.1440   17.9583   -9.9821 H   0  0  0  0  0  0
   31.0328   18.3792  -10.5164 H   0  0  0  0  0  0
  1 15  1  0  0  0
  1  6  2  0  0  0
  1  2  1  0  0  0
  2 13  1  0  0  0
  2  3  2  0  0  0
  3  4  1  0  0  0
  3 20  1  0  0  0
  4  5  2  0  0  0
  4 21  1  0  0  0
  5  6  1  0  0  0
  5 22  1  0  0  0
  6 23  1  0  0  0
  7 16  1  0  0  0
  7 12  2  0  0  0
  7  8  1  0  0  0
  8  9  2  0  0  0
  8 24  1  0  0  0
  9 14  1  0  0  0
  9 10  1  0  0  0
 10 19  1  0  0  0
 10 11  2  0  0  0
 11 12  1  0  0  0
 11 25  1  0  0  0
 12 26  1  0  0  0
 13 18  1  0  0  0
 13 17  2  0  0  0
 14 27  1  0  0  0
 14 28  1  0  0  0
 14 29  1  0  0  0
 15 16  2  0  0  0
 19 30  1  0  0  0
M  CHG  1  18  -1
M  END
> <s_m_source_file>
../1srg_ligand.sdf

> <i_m_source_file_index>
1

> <s_epik_input>
W2NIXTFbY0hdW2NIXVtjSF1jKEMoPU8pW09IXSljMS9OPU4vYzJbY0hdYyhbQ0gzXSljKFtPSF0pW2NIXVtjSF0y

> <s_epik_cmdline>
J2VwaWtfYXBwJywgJy1pbWFlJywgJ2xpZ2FuZF9wcm8ubWFlJywgJy1vbWFlJywgJ2xpZ2FuZF9wcmVwLm1hZScsICctbXMnLCAnMScsICctcGgnLCAnNycsICctcGh0JywgJzAuNScsICctbnQn

> <r_epik_Ionization_Penalty>
  0.0117

> <r_epik_Ionization_Penalty_Charging>
  0.0002

> <r_epik_Ionization_Penalty_Neutral>
  0.0115

> <r_epik_State_Penalty>
  0.0089

> <r_epik_Charging_Adjusted_Penalty>
0.00909538894257203

> <i_epik_Tot_Q>
-1

> <i_epik_Tot_abs_Q>
1

$$$$
