1sri_ligand
                    3D
 Schrodinger Suite 2020-3.
 33 34  0  0  1  0            999 V2000
   18.7390    4.7560   11.9850 C   0  0  0  0  0  0
   17.5190    5.1370   11.4530 C   0  0  0  0  0  0
   17.2730    5.0360   10.0610 C   0  0  0  0  0  0
   18.2830    4.5460    9.2380 C   0  0  0  0  0  0
   19.5110    4.1590    9.7820 C   0  0  0  0  0  0
   19.7490    4.2570   11.1420 C   0  0  0  0  0  0
   20.5890    4.0840   15.0770 C   0  0  0  0  0  0
   20.2280    4.8620   16.1810 C   0  0  0  0  0  0
   21.1340    5.0440   17.2360 C   0  0  0  0  0  0
   22.3960    4.4560   17.1770 C   0  0  0  0  0  0
   22.7640    3.6660   16.0850 C   0  0  0  0  0  0
   21.8520    3.4780   15.0380 C   0  0  0  0  0  0
   16.3980    5.7470   12.3030 C   0  0  0  0  0  0
   20.7660    5.9060   18.4480 C   0  0  0  0  0  0
   24.1600    3.0170   16.0630 C   0  0  0  0  0  0
   18.9980    4.8460   13.4470 N   0  0  0  0  0  0
   19.6300    3.8870   13.9750 N   0  0  0  0  0  0
   15.3260    6.3100   11.5340 O   0  5  0  0  0  0
   16.4080    5.8770   13.4910 O   0  0  0  0  0  0
   23.3190    4.6550   18.2530 O   0  0  0  0  0  0
   16.3120    5.3360    9.6432 H   0  0  0  0  0  0
   18.1155    4.4637    8.1641 H   0  0  0  0  0  0
   20.2921    3.7747    9.1261 H   0  0  0  0  0  0
   20.7096    3.9505   11.5560 H   0  0  0  0  0  0
   19.2430    5.3269   16.2218 H   0  0  0  0  0  0
   22.1270    2.8555   14.1865 H   0  0  0  0  0  0
   19.7410    6.2872   18.3292 H   0  0  0  0  0  0
   21.4654    6.7517   18.5224 H   0  0  0  0  0  0
   20.8273    5.2979   19.3626 H   0  0  0  0  0  0
   24.7075    3.2939   16.9760 H   0  0  0  0  0  0
   24.7148    3.3704   15.1814 H   0  0  0  0  0  0
   24.0550    1.9230   16.0159 H   0  0  0  0  0  0
   23.0335    5.2762   19.1147 H   0  0  0  0  0  0
  1 16  1  0  0  0
  1  6  2  0  0  0
  1  2  1  0  0  0
  2 13  1  0  0  0
  2  3  2  0  0  0
  3  4  1  0  0  0
  3 21  1  0  0  0
  4  5  2  0  0  0
  4 22  1  0  0  0
  5  6  1  0  0  0
  5 23  1  0  0  0
  6 24  1  0  0  0
  7 17  1  0  0  0
  7 12  2  0  0  0
  7  8  1  0  0  0
  8  9  2  0  0  0
  8 25  1  0  0  0
  9 14  1  0  0  0
  9 10  1  0  0  0
 10 20  1  0  0  0
 10 11  2  0  0  0
 11 15  1  0  0  0
 11 12  1  0  0  0
 12 26  1  0  0  0
 13 19  2  0  0  0
 13 18  1  0  0  0
 14 27  1  0  0  0
 14 28  1  0  0  0
 14 29  1  0  0  0
 15 30  1  0  0  0
 15 31  1  0  0  0
 15 32  1  0  0  0
 16 17  2  0  0  0
 20 33  1  0  0  0
M  CHG  1  18  -1
M  END
> <s_m_source_file>
../1sri_ligand.sdf

> <i_m_source_file_index>
1

> <s_epik_input>
W2NIXTFbY0hdW2NIXVtjSF1jKEMoPU8pW09IXSljMS9OPU4vYzJbY0hdYyhbQ0gzXSljKFtPSF0pYyhbY0hdMilbQ0gzXQ==

> <s_epik_cmdline>
J2VwaWtfYXBwJywgJy1pbWFlJywgJ2xpZ2FuZF9wcm8ubWFlJywgJy1vbWFlJywgJ2xpZ2FuZF9wcmVwLm1hZScsICctbXMnLCAnMScsICctcGgnLCAnNycsICctcGh0JywgJzAuNScsICctbnQn

> <r_lp_tautomer_probability>
1

> <r_epik_Ionization_Penalty>
  0.0044

> <r_epik_Ionization_Penalty_Charging>
  0.0002

> <r_epik_Ionization_Penalty_Neutral>
  0.0042

> <r_epik_State_Penalty>
 -0.0000

> <r_epik_Charging_Adjusted_Penalty>
0.000229850954381319

> <i_epik_Tot_Q>
-1

> <i_epik_Tot_abs_Q>
1

$$$$
