1stc_ligand
                    3D
 Schrodinger Suite 2020-3.
 62 69  0  0  1  0            999 V2000
    9.9880   20.9530   30.6910 C   0  0  0  0  0  0
    9.2370   19.8050   30.5020 C   0  0  0  0  0  0
    7.8530   19.8760   30.2900 C   0  0  0  0  0  0
    7.1890   21.1000   30.2700 C   0  0  0  0  0  0
    7.9380   22.3000   30.4410 C   0  0  0  0  0  0
    7.5830   23.6680   30.3550 N   0  0  0  0  0  0
    8.7390   24.4230   30.5150 C   0  0  0  0  0  0
    8.9580   25.8320   30.4240 C   0  0  0  0  0  0
    8.0480   26.8590   30.2210 N   0  0  0  0  0  0
    8.7700   28.0600   30.1430 C   0  0  0  0  0  0
    8.3210   29.3610   29.8440 C   0  0  0  0  0  0
    9.2830   30.3890   29.7100 C   0  0  0  0  0  0
   10.6470   30.1260   29.8750 C   0  0  0  0  0  0
   11.0950   28.8440   30.1660 C   0  0  0  0  0  0
   10.1550   27.7780   30.2970 C   0  0  0  0  0  0
   10.2790   26.3560   30.4880 C   0  0  0  0  0  0
   11.3820   25.4440   30.6180 C   0  0  0  0  0  0
   12.8320   25.6660   30.8380 C   0  0  0  0  0  0
   13.3760   24.4780   31.1080 N   0  0  0  0  0  0
   12.4490   23.3720   31.0800 C   0  0  0  0  0  0
   11.1610   24.0810   30.7360 C   0  0  0  0  0  0
    9.8490   23.5510   30.6820 C   0  0  0  0  0  0
    9.3380   22.2140   30.6640 C   0  0  0  0  0  0
    6.2610   24.2550   29.9760 C   0  0  2  0  0  0
    5.9480   24.2960   28.4550 C   0  0  1  0  0  0
    5.3780   25.6340   27.9950 C   0  0  1  0  0  0
    6.2200   26.8090   28.4760 C   0  0  0  0  0  0
    6.6030   26.7220   29.9550 C   0  0  1  0  0  0
    6.0710   25.5490   30.5820 O   0  0  0  0  0  0
   13.4450   26.7050   30.8610 O   0  0  0  0  0  0
    5.0230   25.6030   26.5800 N   0  3  0  0  0  0
    3.6090   25.3390   26.3510 C   0  0  0  0  0  0
    7.2630   24.1670   27.8660 O   0  0  0  0  0  0
    7.4290   23.4860   26.6220 C   0  0  0  0  0  0
    5.0950   23.5360   30.6640 C   0  0  0  0  0  0
   11.0632   20.8888   30.8581 H   0  0  0  0  0  0
    9.7289   18.8324   30.5183 H   0  0  0  0  0  0
    7.2867   18.9571   30.1382 H   0  0  0  0  0  0
    6.1094   21.1395   30.1253 H   0  0  0  0  0  0
    7.2586   29.5704   29.7190 H   0  0  0  0  0  0
    8.9565   31.4019   29.4745 H   0  0  0  0  0  0
   11.3675   30.9377   29.7739 H   0  0  0  0  0  0
   12.1604   28.6527   30.2939 H   0  0  0  0  0  0
   14.4367   24.3009   31.3392 H   0  0  0  0  0  0
   12.7671   22.6462   30.3171 H   0  0  0  0  0  0
   12.4308   22.8837   32.0655 H   0  0  0  0  0  0
    5.2406   23.5150   28.1394 H   0  0  0  0  0  0
    4.3881   25.8157   28.4389 H   0  0  0  0  0  0
    7.1540   26.8523   27.8965 H   0  0  0  0  0  0
    5.6581   27.7443   28.3363 H   0  0  0  0  0  0
    6.1309   27.5674   30.4770 H   0  0  0  0  0  0
    5.2589   26.5746   26.1214 H   0  0  0  0  0  0
    5.5957   24.8108   26.0755 H   0  0  0  0  0  0
    3.4084   25.3288   25.2695 H   0  0  0  0  0  0
    3.0070   26.1263   26.8282 H   0  0  0  0  0  0
    3.3438   24.3625   26.7824 H   0  0  0  0  0  0
    8.4922   23.4919   26.3398 H   0  0  0  0  0  0
    6.8403   23.9945   25.8443 H   0  0  0  0  0  0
    7.0824   22.4470   26.7237 H   0  0  0  0  0  0
    5.0592   22.4896   30.3267 H   0  0  0  0  0  0
    4.1509   24.0374   30.4048 H   0  0  0  0  0  0
    5.2383   23.5651   31.7542 H   0  0  0  0  0  0
  1 23  2  0  0  0
  1  2  1  0  0  0
  1 36  1  0  0  0
  2  3  2  0  0  0
  2 37  1  0  0  0
  3  4  1  0  0  0
  3 38  1  0  0  0
  4  5  2  0  0  0
  4 39  1  0  0  0
  5 23  1  0  0  0
  5  6  1  0  0  0
  6 24  1  0  0  0
  6  7  1  0  0  0
  7 22  2  0  0  0
  7  8  1  0  0  0
  8 16  2  0  0  0
  8  9  1  0  0  0
  9 28  1  0  0  0
  9 10  1  0  0  0
 10 15  2  0  0  0
 10 11  1  0  0  0
 11 12  2  0  0  0
 11 40  1  0  0  0
 12 13  1  0  0  0
 12 41  1  0  0  0
 13 14  2  0  0  0
 13 42  1  0  0  0
 14 15  1  0  0  0
 14 43  1  0  0  0
 15 16  1  0  0  0
 16 17  1  0  0  0
 17 21  2  0  0  0
 17 18  1  0  0  0
 18 30  2  0  0  0
 18 19  1  0  0  0
 19 20  1  0  0  0
 19 44  1  0  0  0
 20 21  1  0  0  0
 20 45  1  0  0  0
 20 46  1  0  0  0
 21 22  1  0  0  0
 22 23  1  0  0  0
 24 25  1  0  0  0
 24 35  1  0  0  0
 24 29  1  0  0  0
 25 26  1  0  0  0
 25 33  1  0  0  0
 25 47  1  0  0  0
 26 27  1  0  0  0
 26 31  1  0  0  0
 26 48  1  0  0  0
 27 28  1  0  0  0
 27 49  1  0  0  0
 27 50  1  0  0  0
 28 29  1  0  0  0
 28 51  1  0  0  0
 31 32  1  0  0  0
 31 52  1  0  0  0
 31 53  1  0  0  0
 32 54  1  0  0  0
 32 55  1  0  0  0
 32 56  1  0  0  0
 33 34  1  0  0  0
 34 57  1  0  0  0
 34 58  1  0  0  0
 34 59  1  0  0  0
 35 60  1  0  0  0
 35 61  1  0  0  0
 35 62  1  0  0  0
M  CHG  1  31   1
M  END
> <s_m_source_file>
../1stc_ligand.sdf

> <i_m_source_file_index>
1

> <s_epik_input>
W2NIXTFbY0hdW2NIXVtjSF1jKGMxbjJbQ0BdMzRbQ0gzXSljNWMyYzZuKFtDQEhdKE80KVtDSDJdW0NAQEhdKFtOSDIrXVtDSDNdKVtDQEhdM09bQ0gzXSljN2MoW2NIXVtjSF1bY0hdW2NIXTcpYzZjOGM1W0NIMl1bTkhdQzg9Tw==

> <s_epik_cmdline>
J2VwaWtfYXBwJywgJy1pbWFlJywgJ2xpZ2FuZF9wcm8ubWFlJywgJy1vbWFlJywgJ2xpZ2FuZF9wcmVwLm1hZScsICctbXMnLCAnMScsICctcGgnLCAnNycsICctcGh0JywgJzAuNScsICctbnQn

> <r_epik_Ionization_Penalty>
  0.0560

> <r_epik_Ionization_Penalty_Charging>
  0.0560

> <r_epik_Ionization_Penalty_Neutral>
  0.0000

> <r_epik_State_Penalty>
  0.0482

> <r_epik_Charging_Adjusted_Penalty>
0.104192696511962

> <i_epik_Tot_Q>
1

> <i_epik_Tot_abs_Q>
1

> <s_epik_Chemistry_Notes>
This compound contains an acetal/aminal-like group ( X-CH(R)-Y where X, Y are N, S, or O) that may be acid/base labile, releasing an aldehyde.

$$$$
