1stp_ligand
                    3D
 Schrodinger Suite 2020-3.
 31 32  0  0  1  0            999 V2000
    9.0510    4.5760  -14.4590 C   0  0  0  0  0  0
    8.1470    5.3730  -14.1720 O   0  0  0  0  0  0
    8.6970    3.4980  -15.1320 O   0  5  0  0  0  0
   10.3210    4.4130  -13.7020 C   0  0  0  0  0  0
   10.2150    3.2470  -12.6580 C   0  0  0  0  0  0
   11.4870    2.9720  -11.9640 C   0  0  0  0  0  0
   11.6270    1.5580  -11.4020 C   0  0  0  0  0  0
   10.9230    1.0860  -10.1950 C   0  0  2  0  0  0
   10.8840    2.1030   -8.6620 S   0  0  0  0  0  0
   10.2990    0.6200   -7.7600 C   0  0  0  0  0  0
   11.1420   -0.5430   -8.2740 C   0  0  2  0  0  0
   12.4430   -0.6310   -7.6130 N   0  0  0  0  0  0
   13.4670   -0.4430   -8.4530 C   0  0  0  0  0  0
   14.6920   -0.4460   -8.2050 O   0  0  0  0  0  0
   12.9740   -0.2370   -9.6950 N   0  0  0  0  0  0
   11.5130   -0.2650   -9.7270 C   0  0  2  0  0  0
   11.1381    4.1835  -14.4018 H   0  0  0  0  0  0
   10.5496    5.3450  -13.1643 H   0  0  0  0  0  0
    9.4683    3.5065  -11.8931 H   0  0  0  0  0  0
    9.9092    2.3228  -13.1702 H   0  0  0  0  0  0
   12.3244    3.1164  -12.6625 H   0  0  0  0  0  0
   11.5966    3.6602  -11.1129 H   0  0  0  0  0  0
   11.2996    0.8290  -12.1579 H   0  0  0  0  0  0
   12.6790    1.3692  -11.1420 H   0  0  0  0  0  0
    9.9974    0.9842  -10.7806 H   0  0  0  0  0  0
   10.4420    0.7680   -6.6794 H   0  0  0  0  0  0
    9.2311    0.4606   -7.9700 H   0  0  0  0  0  0
   10.5759   -1.4669   -8.0842 H   0  0  0  0  0  0
   12.4987   -0.8336   -6.5333 H   0  0  0  0  0  0
   13.5412   -0.0619  -10.6211 H   0  0  0  0  0  0
   11.1649   -1.0315  -10.4350 H   0  0  0  0  0  0
  1  2  2  0  0  0
  1  3  1  0  0  0
  1  4  1  0  0  0
  4  5  1  0  0  0
  4 17  1  0  0  0
  4 18  1  0  0  0
  5  6  1  0  0  0
  5 19  1  0  0  0
  5 20  1  0  0  0
  6  7  1  0  0  0
  6 21  1  0  0  0
  6 22  1  0  0  0
  7  8  1  0  0  0
  7 23  1  0  0  0
  7 24  1  0  0  0
  8  9  1  0  0  0
  8 16  1  0  0  0
  8 25  1  0  0  0
  9 10  1  0  0  0
 10 11  1  0  0  0
 10 26  1  0  0  0
 10 27  1  0  0  0
 11 12  1  0  0  0
 11 16  1  0  0  0
 11 28  1  0  0  0
 12 13  1  0  0  0
 12 29  1  0  0  0
 13 14  2  0  0  0
 13 15  1  0  0  0
 15 16  1  0  0  0
 15 30  1  0  0  0
 16 31  1  0  0  0
M  CHG  1   3  -1
M  END
> <s_m_source_file>
../1stp_ligand.sdf

> <i_m_source_file_index>
1

> <s_epik_input>
Tz1DKFtPSF0pW0NIMl1bQ0gyXVtDSDJdW0NIMl1bQ0BIXShTW0NIMl0xKVtDQEhdKFtDQEhdMTIpW05IXUMoPU8pW05IXTI=

> <s_epik_cmdline>
J2VwaWtfYXBwJywgJy1pbWFlJywgJ2xpZ2FuZF9wcm8ubWFlJywgJy1vbWFlJywgJ2xpZ2FuZF9wcmVwLm1hZScsICctbXMnLCAnMScsICctcGgnLCAnNycsICctcGh0JywgJzAuNScsICctbnQn

> <r_lp_tautomer_probability>
1

> <r_epik_Ionization_Penalty>
  0.0045

> <r_epik_Ionization_Penalty_Charging>
  0.0044

> <r_epik_Ionization_Penalty_Neutral>
  0.0000

> <r_epik_State_Penalty>
 -0.0000

> <r_epik_Charging_Adjusted_Penalty>
0.00443833021372702

> <i_epik_Tot_Q>
-1

> <i_epik_Tot_abs_Q>
1

$$$$
