1str_ligand
                    3D
 Schrodinger Suite 2020-3.
 97 98  0  0  1  0            999 V2000
   17.6770   -2.2200   21.3980 C   0  0  0  0  0  0
   16.7060   -1.5320   21.7330 O   0  0  0  0  0  0
   17.5430   -3.7360   21.3210 C   0  0  0  0  0  0
   18.8400   -1.6640   21.0510 N   0  0  0  0  0  0
   18.9840   -0.2160   21.0570 C   0  0  2  0  0  0
   20.2410    0.4240   20.4650 C   0  0  0  0  0  0
   21.4250    0.1810   20.7530 O   0  0  0  0  0  0
   18.8880    0.3650   22.4510 C   0  0  0  0  0  0
   20.3070   -0.4020   23.2490 S   0  0  0  0  0  0
   19.8680    1.1490   19.4410 N   0  0  0  0  0  0
   20.7680    2.0060   18.7240 C   0  0  2  0  0  0
   19.7310    3.1570   18.6150 C   0  0  0  0  0  0
   18.5170    2.8830   18.4750 O   0  0  0  0  0  0
   21.2080    1.4720   17.3320 C   0  0  0  0  0  0
   22.0630    2.5630   16.6530 C   0  0  0  0  0  0
   21.4950    3.6170   16.0740 N   0  3  0  0  0  0
   23.4140    2.7350   16.8090 C   0  0  0  0  0  0
   22.4940    4.4550   15.8840 C   0  0  0  0  0  0
   23.6170    3.9270   16.3180 N   0  3  0  0  0  0
   20.0620    4.4660   18.7680 N   0  0  0  0  0  0
   19.0800    5.5310   18.7020 C   0  0  2  0  0  0
   18.3700    5.6830   17.3740 C   0  0  0  0  0  0
   17.2620    6.1990   17.3390 O   0  0  0  0  0  0
   19.8470    6.7740   19.0540 C   0  0  0  0  0  0
   21.1280    6.3430   19.6490 C   0  0  0  0  0  0
   21.3990    5.0270   19.0270 C   0  0  0  0  0  0
   18.9820    5.2420   16.2650 N   0  0  0  0  0  0
   18.4180    5.4150   14.9380 C   0  0  2  0  0  0
   17.0130    4.9100   14.7310 C   0  0  0  0  0  0
   16.2540    5.5840   14.0350 O   0  0  0  0  0  0
   19.3160    4.7700   13.9030 C   0  0  0  0  0  0
   18.9000    5.2390   12.4940 C   0  0  0  0  0  0
   19.9080    4.8800   11.4390 C   0  0  0  0  0  0
   21.1010    5.1020   11.6670 O   0  0  0  0  0  0
   19.4790    4.2930   10.3160 N   0  0  0  0  0  0
   16.6090    3.7520   15.2060 N   0  0  0  0  0  0
   15.2460    3.4060   14.9540 C   0  0  2  0  0  0
   14.8340    2.7290   16.1970 C   0  0  0  0  0  0
   15.6210    2.0070   16.8170 O   0  0  0  0  0  0
   15.1010    2.4780   13.7640 C   0  0  0  0  0  0
   15.0710    3.2400   12.4320 C   0  0  0  0  0  0
   14.1440    3.9800   12.0700 O   0  0  0  0  0  0
   16.0970    3.0280   11.6250 N   0  0  0  0  0  0
   13.5900    3.1180   16.4820 N   0  0  0  0  0  0
   12.7310    2.7450   17.6060 C   0  0  2  0  0  0
   13.4530    2.6730   18.9510 C   0  0  0  0  0  0
   14.2680    3.5530   19.2580 O   0  0  0  0  0  0
   11.9820    1.3940   17.1650 C   0  0  2  0  0  0
   10.9010    1.2270   18.0920 O   0  0  0  0  0  0
   12.8820    0.1320   17.1110 C   0  0  0  0  0  0
   13.2140    1.6980   19.8240 N   0  0  0  0  0  0
   16.5318   -4.0313   21.6379 H   0  0  0  0  0  0
   18.2861   -4.2039   21.9835 H   0  0  0  0  0  0
   17.7143   -4.0671   20.2861 H   0  0  0  0  0  0
   19.6892   -2.3000   20.7606 H   0  0  0  0  0  0
   18.1309   -0.0256   20.3893 H   0  0  0  0  0  0
   18.9567    1.4615   22.3967 H   0  0  0  0  0  0
   17.9259    0.0798   22.9017 H   0  0  0  0  0  0
   20.5299   -0.1829   24.3037 H   0  0  0  0  0  0
   18.8133    1.0809   19.1362 H   0  0  0  0  0  0
   21.7328    2.1607   19.2293 H   0  0  0  0  0  0
   21.7976    0.5524   17.4617 H   0  0  0  0  0  0
   20.3172    1.2538   16.7246 H   0  0  0  0  0  0
   24.0209    1.9386   17.2645 H   0  0  0  0  0  0
   22.3092    5.4347   15.4193 H   0  0  0  0  0  0
   18.2752    5.2754   19.4069 H   0  0  0  0  0  0
   20.0230    7.3663   18.1439 H   0  0  0  0  0  0
   19.2676    7.3710   19.7736 H   0  0  0  0  0  0
   21.9095    7.0793   19.4099 H   0  0  0  0  0  0
   21.0179    6.2667   20.7408 H   0  0  0  0  0  0
   21.9528    4.3581   19.7022 H   0  0  0  0  0  0
   21.9460    5.1245   18.0776 H   0  0  0  0  0  0
   19.9486    4.7319   16.3896 H   0  0  0  0  0  0
   18.3707    6.5117   14.8675 H   0  0  0  0  0  0
   20.3602    5.0601   14.0917 H   0  0  0  0  0  0
   19.2222    3.6759   13.9669 H   0  0  0  0  0  0
   17.9441    4.7695   12.2187 H   0  0  0  0  0  0
   18.7856    6.3330   12.4906 H   0  0  0  0  0  0
   18.4038    4.1184   10.1628 H   0  0  0  0  0  0
   20.2015    3.9850    9.5458 H   0  0  0  0  0  0
   17.2560    3.0637   15.7696 H   0  0  0  0  0  0
   14.6649    4.3137   14.7341 H   0  0  0  0  0  0
   15.9505    1.7796   13.7380 H   0  0  0  0  0  0
   14.1627    1.9109   13.8534 H   0  0  0  0  0  0
   16.9207    2.3721   11.9433 H   0  0  0  0  0  0
   16.1267    3.5075   10.6355 H   0  0  0  0  0  0
   13.2229    3.8194   15.7183 H   0  0  0  0  0  0
   12.0569    3.5958   17.7843 H   0  0  0  0  0  0
   11.5462    1.4538   16.1568 H   0  0  0  0  0  0
   10.1743    2.0391   18.2416 H   0  0  0  0  0  0
   13.6986    0.2945   16.3921 H   0  0  0  0  0  0
   12.2814   -0.7334   16.7942 H   0  0  0  0  0  0
   13.3043   -0.0601   18.1084 H   0  0  0  0  0  0
   12.4947    0.9031   19.5775 H   0  0  0  0  0  0
   13.7357    1.6867   20.7924 H   0  0  0  0  0  0
   20.4777    3.8938   15.7602 H   0  0  0  0  0  0
   24.6310    4.3534   16.3104 H   0  0  0  0  0  0
  1  2  2  0  0  0
  1  3  1  0  0  0
  1  4  1  0  0  0
  3 52  1  0  0  0
  3 53  1  0  0  0
  3 54  1  0  0  0
  4  5  1  0  0  0
  4 55  1  0  0  0
  5  6  1  0  0  0
  5  8  1  0  0  0
  5 56  1  0  0  0
  6  7  2  0  0  0
  6 10  1  0  0  0
  8  9  1  0  0  0
  8 57  1  0  0  0
  8 58  1  0  0  0
  9 59  1  0  0  0
 10 11  1  0  0  0
 10 60  1  0  0  0
 11 12  1  0  0  0
 11 14  1  0  0  0
 11 61  1  0  0  0
 12 13  2  0  0  0
 12 20  1  0  0  0
 14 15  1  0  0  0
 14 62  1  0  0  0
 14 63  1  0  0  0
 15 17  2  0  0  0
 15 16  1  0  0  0
 16 18  2  0  0  0
 16 96  1  0  0  0
 17 19  1  0  0  0
 17 64  1  0  0  0
 18 19  1  0  0  0
 18 65  1  0  0  0
 19 97  1  0  0  0
 20 21  1  0  0  0
 20 26  1  0  0  0
 21 24  1  0  0  0
 21 22  1  0  0  0
 21 66  1  0  0  0
 22 23  2  0  0  0
 22 27  1  0  0  0
 24 25  1  0  0  0
 24 67  1  0  0  0
 24 68  1  0  0  0
 25 26  1  0  0  0
 25 69  1  0  0  0
 25 70  1  0  0  0
 26 71  1  0  0  0
 26 72  1  0  0  0
 27 28  1  0  0  0
 27 73  1  0  0  0
 28 29  1  0  0  0
 28 31  1  0  0  0
 28 74  1  0  0  0
 29 30  2  0  0  0
 29 36  1  0  0  0
 31 32  1  0  0  0
 31 75  1  0  0  0
 31 76  1  0  0  0
 32 33  1  0  0  0
 32 77  1  0  0  0
 32 78  1  0  0  0
 33 34  2  0  0  0
 33 35  1  0  0  0
 35 79  1  0  0  0
 35 80  1  0  0  0
 36 37  1  0  0  0
 36 81  1  0  0  0
 37 38  1  0  0  0
 37 40  1  0  0  0
 37 82  1  0  0  0
 38 39  2  0  0  0
 38 44  1  0  0  0
 40 41  1  0  0  0
 40 83  1  0  0  0
 40 84  1  0  0  0
 41 42  2  0  0  0
 41 43  1  0  0  0
 43 85  1  0  0  0
 43 86  1  0  0  0
 44 45  1  0  0  0
 44 87  1  0  0  0
 45 46  1  0  0  0
 45 48  1  0  0  0
 45 88  1  0  0  0
 46 47  2  0  0  0
 46 51  1  0  0  0
 48 49  1  0  0  0
 48 50  1  0  0  0
 48 89  1  0  0  0
 49 90  1  0  0  0
 50 91  1  0  0  0
 50 92  1  0  0  0
 50 93  1  0  0  0
 51 94  1  0  0  0
 51 95  1  0  0  0
M  CHG  2  16   1  19   1
M  END
> <s_m_source_file>
../1str_ligand.sdf

> <i_m_source_file_index>
1

> <s_epik_input>
Tz1DKFtDSDNdKVtOSF1bQ0BASF0oW0NIMl1bU0hdKUMoPU8pW05IXVtDQEBIXShbQ0gyXWMxbltjSF1bbkhdW2NIXTEpQyg9TylOMltDQEBIXShbQ0gyXVtDSDJdW0NIMl0yKUMoPU8pW05IXVtDQEBIXShbQ0gyXVtDSDJdQyg9TylbTkgyXSlDKD1PKVtOSF1bQ0BASF0oW0NIMl1DKD1PKVtOSDJdKUMoPU8pW05IXVtDQEhdKEMoPU8pW05IMl0pW0NASF0oW09IXSlbQ0gzXQ==

> <s_epik_cmdline>
J2VwaWtfYXBwJywgJy1pbWFlJywgJ2xpZ2FuZF9wcm8ubWFlJywgJy1vbWFlJywgJ2xpZ2FuZF9wcmVwLm1hZScsICctbXMnLCAnMScsICctcGgnLCAnNycsICctcGh0JywgJzAuNScsICctbnQn

> <r_lp_tautomer_probability>
1

> <r_epik_Ionization_Penalty>
 19.0425

> <r_epik_Ionization_Penalty_Charging>
 19.0330

> <r_epik_Ionization_Penalty_Neutral>
  0.0095

> <r_epik_State_Penalty>
 -0.0000

> <r_epik_Charging_Adjusted_Penalty>
19.0329830866377

> <i_epik_Tot_Q>
2

> <i_epik_Tot_abs_Q>
2

> <s_epik_Chemistry_Notes>
This compound has an imine and may undergo hydrolysis.

$$$$
