1sts_ligand
                    3D
 Schrodinger Suite 2020-3.
111113  0  0  1  0            999 V2000
   15.4120   -2.5770   21.1650 N   0  3  0  0  0  0
   15.7730   -1.1840   20.9680 C   0  0  2  0  0  0
   17.1860   -1.1900   21.5450 C   0  0  0  0  0  0
   17.3380   -1.9530   22.4970 O   0  0  0  0  0  0
   15.0060   -0.1770   21.8490 C   0  0  0  0  0  0
   13.5060   -0.2560   22.1240 C   0  0  0  0  0  0
   12.7320   -1.3930   21.8690 C   0  0  0  0  0  0
   12.9030    0.8790   22.6730 C   0  0  0  0  0  0
   11.3640   -1.3850   22.1620 C   0  0  0  0  0  0
   11.5370    0.8800   22.9620 C   0  0  0  0  0  0
   10.7630   -0.2500   22.7070 C   0  0  0  0  0  0
   18.2050   -0.5270   20.9890 N   0  0  0  0  0  0
   19.5640   -0.4610   21.5470 C   0  0  2  0  0  0
   20.6430    0.1660   20.6640 C   0  0  0  0  0  0
   21.8170   -0.2120   20.5850 O   0  0  0  0  0  0
   20.1360   -1.8040   21.9970 C   0  0  0  0  0  0
   20.7260   -1.4620   23.6720 S   0  0  0  0  0  0
   20.1630    1.1340   19.9130 N   0  0  0  0  0  0
   20.9400    1.9930   19.0470 C   0  0  2  0  0  0
   19.8790    3.0810   18.8990 C   0  0  0  0  0  0
   18.6960    2.7630   18.6790 O   0  0  0  0  0  0
   21.3250    1.5140   17.6110 C   0  0  0  0  0  0
   22.2580    2.5970   16.9780 C   0  0  0  0  0  0
   21.7630    3.6490   16.3250 N   0  0  0  0  0  0
   23.6200    2.7390   17.2060 C   0  0  0  0  0  0
   22.8080    4.4430   16.1470 C   0  0  0  0  0  0
   23.8990    3.9080   16.6740 N   0  0  0  0  0  0
   20.2260    4.3630   19.1110 N   0  0  0  0  0  0
   19.2780    5.4490   19.0130 C   0  0  2  0  0  0
   18.5750    5.6420   17.6760 C   0  0  0  0  0  0
   17.5010    6.2460   17.6490 O   0  0  0  0  0  0
   20.0680    6.6940   19.3880 C   0  0  0  0  0  0
   21.3890    6.2190   19.9510 C   0  0  0  0  0  0
   21.5970    4.8610   19.3830 C   0  0  0  0  0  0
   19.1800    5.1970   16.5620 N   0  0  0  0  0  0
   18.6230    5.3950   15.2280 C   0  0  2  0  0  0
   17.2180    4.8570   15.0490 C   0  0  0  0  0  0
   16.3680    5.6160   14.5650 O   0  0  0  0  0  0
   19.5540    4.7760   14.2030 C   0  0  0  0  0  0
   19.1250    5.0850   12.7710 C   0  0  0  0  0  0
   20.2050    4.8740   11.7200 C   0  0  0  0  0  0
   21.3660    5.1360   11.9980 O   0  0  0  0  0  0
   19.9320    4.4070   10.5190 N   0  0  0  0  0  0
   16.8830    3.6080   15.3820 N   0  0  0  0  0  0
   15.5030    3.2400   15.1710 C   0  0  2  0  0  0
   14.9680    2.4980   16.3310 C   0  0  0  0  0  0
   15.6630    1.7490   17.0100 O   0  0  0  0  0  0
   15.2660    2.3580   13.9370 C   0  0  0  0  0  0
   15.1760    3.1570   12.6500 C   0  0  0  0  0  0
   14.3070    4.0140   12.4070 O   0  0  0  0  0  0
   16.1310    2.8830   11.7880 N   0  0  0  0  0  0
   13.7280    2.9520   16.4870 N   0  0  0  0  0  0
   12.7100    2.5560   17.4480 C   0  0  2  0  0  0
   13.0550    1.9640   18.8200 C   0  0  0  0  0  0
   14.1590    2.0670   19.3630 O   0  0  0  0  0  0
   11.7690    1.6350   16.5790 C   0  0  2  0  0  0
   10.4470    1.7990   17.0990 O   0  0  0  0  0  0
   12.2210    0.1630   16.5500 C   0  0  0  0  0  0
   12.0380    1.3770   19.4400 N   0  0  0  0  0  0
   14.3915   -2.7477   20.7915 H   0  0  0  0  0  0
   15.4553   -2.8189   22.2372 H   0  0  0  0  0  0
   16.1158   -3.2194   20.6155 H   0  0  0  0  0  0
   15.5912   -0.9340   19.9123 H   0  0  0  0  0  0
   15.4232   -0.1881   22.8667 H   0  0  0  0  0  0
   15.1048    0.8324   21.4232 H   0  0  0  0  0  0
   13.1939   -2.2836   21.4428 H   0  0  0  0  0  0
   13.5015    1.7670   22.8764 H   0  0  0  0  0  0
   10.7631   -2.2724   21.9629 H   0  0  0  0  0  0
   11.0738    1.7694   23.3893 H   0  0  0  0  0  0
    9.6964   -0.2474   22.9315 H   0  0  0  0  0  0
   17.9707   -0.0068   20.0485 H   0  0  0  0  0  0
   19.3161    0.2029   22.3883 H   0  0  0  0  0  0
   19.3425   -2.5655   21.9775 H   0  0  0  0  0  0
   20.9478   -2.1030   21.3176 H   0  0  0  0  0  0
   21.1988   -2.2607   24.2624 H   0  0  0  0  0  0
   19.0729    1.2639   19.9823 H   0  0  0  0  0  0
   21.9146    2.1607   19.5286 H   0  0  0  0  0  0
   21.0601    0.6132   17.0379 H   0  0  0  0  0  0
   24.4159    2.1472   17.6818 H   0  0  0  0  0  0
   22.7747    5.4055   15.6364 H   0  0  0  0  0  0
   18.4609    5.1711   19.6951 H   0  0  0  0  0  0
   20.2248    7.3125   18.4919 H   0  0  0  0  0  0
   19.5082    7.2713   20.1386 H   0  0  0  0  0  0
   22.1881    6.9098   19.6439 H   0  0  0  0  0  0
   21.3307    6.1908   21.0491 H   0  0  0  0  0  0
   22.0966    4.1886   20.0959 H   0  0  0  0  0  0
   22.1694    4.8906   18.4441 H   0  0  0  0  0  0
   20.1342    4.6639   16.6861 H   0  0  0  0  0  0
   18.5561    6.4879   15.1231 H   0  0  0  0  0  0
   20.5711    5.1695   14.3467 H   0  0  0  0  0  0
   19.5626    3.6832   14.3281 H   0  0  0  0  0  0
   18.2817    4.4359   12.4927 H   0  0  0  0  0  0
   18.8159    6.1383   12.7000 H   0  0  0  0  0  0
   18.8944    4.1641   10.2461 H   0  0  0  0  0  0
   20.7416    4.2599    9.7890 H   0  0  0  0  0  0
   17.5907    2.8746   15.7957 H   0  0  0  0  0  0
   15.0260    4.2254   15.0635 H   0  0  0  0  0  0
   16.0964    1.6444   13.8314 H   0  0  0  0  0  0
   14.3217    1.8066   14.0563 H   0  0  0  0  0  0
   16.8867    2.1206   12.0283 H   0  0  0  0  0  0
   16.1740    3.4162   10.8268 H   0  0  0  0  0  0
   13.5112    3.7380   15.7486 H   0  0  0  0  0  0
   12.3470    3.5168   17.8419 H   0  0  0  0  0  0
   11.7138    1.9357   15.5223 H   0  0  0  0  0  0
   10.0057    2.8039   17.1727 H   0  0  0  0  0  0
   13.2407    0.1005   16.1422 H   0  0  0  0  0  0
   11.5360   -0.4184   15.9154 H   0  0  0  0  0  0
   12.2091   -0.2444   17.5717 H   0  0  0  0  0  0
   11.0620    1.2950   18.9393 H   0  0  0  0  0  0
   12.1715    0.9727   20.4543 H   0  0  0  0  0  0
   20.6937    3.6844   16.0694 H   0  0  0  0  0  0
  1  2  1  0  0  0
  1 60  1  0  0  0
  1 61  1  0  0  0
  1 62  1  0  0  0
  2  5  1  0  0  0
  2  3  1  0  0  0
  2 63  1  0  0  0
  3  4  2  0  0  0
  3 12  1  0  0  0
  5  6  1  0  0  0
  5 64  1  0  0  0
  5 65  1  0  0  0
  6  7  2  0  0  0
  6  8  1  0  0  0
  7  9  1  0  0  0
  7 66  1  0  0  0
  8 10  2  0  0  0
  8 67  1  0  0  0
  9 11  2  0  0  0
  9 68  1  0  0  0
 10 11  1  0  0  0
 10 69  1  0  0  0
 11 70  1  0  0  0
 12 13  1  0  0  0
 12 71  1  0  0  0
 13 16  1  0  0  0
 13 14  1  0  0  0
 13 72  1  0  0  0
 14 15  2  0  0  0
 14 18  1  0  0  0
 16 17  1  0  0  0
 16 73  1  0  0  0
 16 74  1  0  0  0
 17 75  1  0  0  0
 18 19  1  0  0  0
 18 76  1  0  0  0
 19 22  1  0  0  0
 19 20  1  0  0  0
 19 77  1  0  0  0
 20 21  2  0  0  0
 20 28  1  0  0  0
 22 23  2  0  0  0
 22 78  1  0  0  0
 23 24  1  0  0  0
 23 25  1  0  0  0
 24 26  1  0  0  0
 24111  1  0  0  0
 25 27  2  0  0  0
 25 79  1  0  0  0
 26 27  1  0  0  0
 26 80  1  0  0  0
 28 29  1  0  0  0
 28 34  1  0  0  0
 29 30  1  0  0  0
 29 32  1  0  0  0
 29 81  1  0  0  0
 30 31  2  0  0  0
 30 35  1  0  0  0
 32 33  1  0  0  0
 32 82  1  0  0  0
 32 83  1  0  0  0
 33 34  1  0  0  0
 33 84  1  0  0  0
 33 85  1  0  0  0
 34 86  1  0  0  0
 34 87  1  0  0  0
 35 36  1  0  0  0
 35 88  1  0  0  0
 36 39  1  0  0  0
 36 37  1  0  0  0
 36 89  1  0  0  0
 37 38  2  0  0  0
 37 44  1  0  0  0
 39 40  1  0  0  0
 39 90  1  0  0  0
 39 91  1  0  0  0
 40 41  1  0  0  0
 40 92  1  0  0  0
 40 93  1  0  0  0
 41 43  1  0  0  0
 41 42  2  0  0  0
 43 94  1  0  0  0
 43 95  1  0  0  0
 44 45  1  0  0  0
 44 96  1  0  0  0
 45 48  1  0  0  0
 45 46  1  0  0  0
 45 97  1  0  0  0
 46 47  2  0  0  0
 46 52  1  0  0  0
 48 49  1  0  0  0
 48 98  1  0  0  0
 48 99  1  0  0  0
 49 51  1  0  0  0
 49 50  2  0  0  0
 51100  1  0  0  0
 51101  1  0  0  0
 52 53  1  0  0  0
 52102  1  0  0  0
 53 56  1  0  0  0
 53 54  1  0  0  0
 53103  1  0  0  0
 54 55  2  0  0  0
 54 59  1  0  0  0
 56 58  1  0  0  0
 56 57  1  0  0  0
 56104  1  0  0  0
 57105  1  0  0  0
 58106  1  0  0  0
 58107  1  0  0  0
 58108  1  0  0  0
 59109  1  0  0  0
 59110  1  0  0  0
M  CHG  1   1   1
M  END
> <s_m_source_file>
../1sts_ligand.sdf

> <i_m_source_file_index>
1

> <s_epik_input>
W2NIXTFbY0hdW2NIXVtjSF1bY0hdYzFbQ0gyXVtDQEhdKFtOSDMrXSlDKD1PKVtOSF1bQ0BASF0oW0NIMl1bU0hdKUMoPU8pW05IXVtDQEBIXShbQ0gyXUMyPU5bQ0gyXU49W0NIXTIpQyg9TylOM1tDQEBIXShbQ0gyXVtDSDJdW0NIMl0zKUMoPU8pW05IXVtDQEBIXShbQ0gyXVtDSDJdQyg9TylbTkgyXSlDKD1PKVtOSF1bQ0BASF0oW0NIMl1DKD1PKVtOSDJdKUMoPU8pW05IXVtDQEhdKEMoPU8pW05IMl0pW0NASF0oW09IXSlbQ0gzXQ==

> <s_epik_cmdline>
J2VwaWtfYXBwJywgJy1pbWFlJywgJ2xpZ2FuZF9wcm8ubWFlJywgJy1vbWFlJywgJ2xpZ2FuZF9wcmVwLm1hZScsICctbXMnLCAnMScsICctcGgnLCAnNycsICctcGh0JywgJzAuNScsICctbnQn

> <r_lp_tautomer_probability>
1

> <r_epik_Ionization_Penalty>
  0.2277

> <r_epik_Ionization_Penalty_Charging>
  0.2146

> <r_epik_Ionization_Penalty_Neutral>
  0.0131

> <r_epik_State_Penalty>
 -0.0000

> <r_epik_Charging_Adjusted_Penalty>
0.214579703743423

> <i_epik_Tot_Q>
1

> <i_epik_Tot_abs_Q>
1

> <s_epik_Chemistry_Notes>
This compound has an imine and may undergo hydrolysis.

$$$$
