1sv3_ligand
                    3D
 Schrodinger Suite 2020-3.
 18 18  0  0  1  0            999 V2000
   46.4200   30.7860    7.8740 C   0  0  0  0  0  0
   46.5350   30.4990    6.4750 O   0  0  0  0  0  0
   47.5800   30.9340    5.6840 C   0  0  0  0  0  0
   47.6250   30.5410    4.3510 C   0  0  0  0  0  0
   48.6570   30.9560    3.5140 C   0  0  0  0  0  0
   49.6670   31.7750    4.0070 C   0  0  0  0  0  0
   49.6250   32.1760    5.3340 C   0  0  0  0  0  0
   48.5940   31.7570    6.1740 C   0  0  0  0  0  0
   50.7940   32.2310    3.1220 C   0  0  0  0  0  0
   51.6910   32.9540    3.5400 O   0  0  0  0  0  0
   50.8170   31.8340    1.8630 O   0  5  0  0  0  0
   45.5014   30.3268    8.2682 H   0  0  0  0  0  0
   46.3784   31.8751    8.0226 H   0  0  0  0  0  0
   47.2918   30.3764    8.4052 H   0  0  0  0  0  0
   46.8394   29.8975    3.9550 H   0  0  0  0  0  0
   48.6734   30.6387    2.4713 H   0  0  0  0  0  0
   50.4074   32.8265    5.7249 H   0  0  0  0  0  0
   48.5804   32.0736    7.2169 H   0  0  0  0  0  0
  1  2  1  0  0  0
  1 12  1  0  0  0
  1 13  1  0  0  0
  1 14  1  0  0  0
  2  3  1  0  0  0
  3  4  2  0  0  0
  3  8  1  0  0  0
  4  5  1  0  0  0
  4 15  1  0  0  0
  5  6  2  0  0  0
  5 16  1  0  0  0
  6  7  1  0  0  0
  6  9  1  0  0  0
  7  8  2  0  0  0
  7 17  1  0  0  0
  8 18  1  0  0  0
  9 10  2  0  0  0
  9 11  1  0  0  0
M  CHG  1  11  -1
M  END
> <s_m_source_file>
../1sv3_ligand.sdf

> <i_m_source_file_index>
1

> <s_epik_input>
W0NIM11PYzFbY0hdW2NIXWMoW2NIXVtjSF0xKUMoPU8pW09IXQ==

> <s_epik_cmdline>
J2VwaWtfYXBwJywgJy1pbWFlJywgJ2xpZ2FuZF9wcm8ubWFlJywgJy1vbWFlJywgJ2xpZ2FuZF9wcmVwLm1hZScsICctbXMnLCAnMScsICctcGgnLCAnNycsICctcGh0JywgJzAuNScsICctbnQn

> <r_lp_tautomer_probability>
1

> <r_epik_Ionization_Penalty>
  0.0016

> <r_epik_Ionization_Penalty_Charging>
  0.0016

> <r_epik_Ionization_Penalty_Neutral>
  0.0000

> <r_epik_State_Penalty>
 -0.0000

> <r_epik_Charging_Adjusted_Penalty>
0.00155635043498898

> <i_epik_Tot_Q>
-1

> <i_epik_Tot_abs_Q>
1

$$$$
