1sve_ligand
                    3D
 Schrodinger Suite 2020-3.
 64 67  0  0  1  0            999 V2000
   16.9640   11.9350   -3.5410 F   0  0  0  0  0  0
   15.9570   11.6340   -4.3510 C   0  0  0  0  0  0
   16.2740   10.9660   -5.4930 C   0  0  0  0  0  0
   17.6140   10.6450   -5.6250 O   0  0  0  0  0  0
   18.0870   10.2850   -6.9000 C   0  0  0  0  0  0
   15.2230   10.6400   -6.3710 C   0  0  0  0  0  0
   13.9200   11.0270   -6.0500 C   0  0  0  0  0  0
   13.6150   11.7500   -4.8430 C   0  0  0  0  0  0
   12.4040   12.1290   -4.5410 O   0  0  0  0  0  0
   14.7000   12.0480   -3.9720 C   0  0  0  0  0  0
   14.5740   12.7890   -2.7270 C   0  0  0  0  0  0
   15.2440   13.8380   -2.5450 O   0  0  0  0  0  0
   13.7560   12.3760   -1.5800 C   0  0  0  0  0  0
   13.4500   11.0130   -1.3260 C   0  0  0  0  0  0
   12.7050   10.6880   -0.1990 C   0  0  0  0  0  0
   13.3220   13.3690   -0.6930 C   0  0  0  0  0  0
   12.5900   13.0410    0.4190 C   0  0  0  0  0  0
   12.2760   11.7040    0.6920 C   0  0  0  0  0  0
   11.5170   11.4040    1.9110 C   0  0  0  0  0  0
   11.3180   12.2070    2.8330 O   0  0  0  0  0  0
   11.0480   10.1530    2.0210 O   0  0  0  0  0  0
   10.4780    9.6780    3.2170 C   0  0  2  0  0  0
   11.5910    9.3580    4.2390 C   0  0  0  0  0  0
   12.7930    8.5620    3.7120 C   0  0  0  0  0  0
   12.5100    7.0730    3.7520 C   0  0  0  0  0  0
   11.4120    6.7720    2.8210 N   0  3  0  0  0  0
   10.0720    7.1110    3.3470 C   0  0  0  0  0  0
    9.5810    8.4880    2.8650 C   0  0  1  0  0  0
    8.2330    8.7490    3.3760 N   0  0  0  0  0  0
    7.1170    8.9480    2.5610 C   0  0  0  0  0  0
    7.2630    9.0250    1.3290 O   0  0  0  0  0  0
    5.7870    9.0600    3.1830 C   0  0  0  0  0  0
    4.6600    9.1210    2.3520 C   0  0  0  0  0  0
    3.3970    9.2150    2.9090 C   0  0  0  0  0  0
    3.2440    9.2480    4.2950 N   0  0  0  0  0  0
    4.3410    9.1810    5.1320 C   0  0  0  0  0  0
    5.6040    9.0860    4.5880 C   0  0  0  0  0  0
   19.1623   10.0603   -6.8422 H   0  0  0  0  0  0
   17.9235   11.1174   -7.6002 H   0  0  0  0  0  0
   17.5451    9.3958   -7.2545 H   0  0  0  0  0  0
   15.4239   10.0915   -7.2913 H   0  0  0  0  0  0
   13.1097   10.7741   -6.7338 H   0  0  0  0  0  0
   11.5695   11.8955   -5.2186 H   0  0  0  0  0  0
   13.7944   10.2330   -2.0051 H   0  0  0  0  0  0
   12.4493    9.6475    0.0009 H   0  0  0  0  0  0
   13.5685   14.4126   -0.8885 H   0  0  0  0  0  0
   12.2504   13.8259    1.0947 H   0  0  0  0  0  0
    9.8613   10.4900    3.6297 H   0  0  0  0  0  0
   12.0027   10.2965    4.6386 H   0  0  0  0  0  0
   11.1720    8.7614    5.0627 H   0  0  0  0  0  0
   13.0004    8.8563    2.6726 H   0  0  0  0  0  0
   13.6743    8.7729    4.3356 H   0  0  0  0  0  0
   13.4129    6.5200    3.4536 H   0  0  0  0  0  0
   12.2224    6.7817    4.7730 H   0  0  0  0  0  0
   11.5518    7.3441    1.8919 H   0  0  0  0  0  0
   11.4098    5.6961    2.5922 H   0  0  0  0  0  0
    9.3451    6.3561    3.0127 H   0  0  0  0  0  0
   10.1032    7.1283    4.4464 H   0  0  0  0  0  0
    9.5483    8.4276    1.7671 H   0  0  0  0  0  0
    8.0557    8.7974    4.4605 H   0  0  0  0  0  0
    4.7783    9.0944    1.2688 H   0  0  0  0  0  0
    2.5200    9.2634    2.2635 H   0  0  0  0  0  0
    4.2089    9.2031    6.2137 H   0  0  0  0  0  0
    6.4714    9.0303    5.2457 H   0  0  0  0  0  0
  1  2  1  0  0  0
  2  3  2  0  0  0
  2 10  1  0  0  0
  3  4  1  0  0  0
  3  6  1  0  0  0
  4  5  1  0  0  0
  5 38  1  0  0  0
  5 39  1  0  0  0
  5 40  1  0  0  0
  6  7  2  0  0  0
  6 41  1  0  0  0
  7  8  1  0  0  0
  7 42  1  0  0  0
  8  9  1  0  0  0
  8 10  2  0  0  0
  9 43  1  0  0  0
 10 11  1  0  0  0
 11 12  2  0  0  0
 11 13  1  0  0  0
 13 14  2  0  0  0
 13 16  1  0  0  0
 14 15  1  0  0  0
 14 44  1  0  0  0
 15 18  2  0  0  0
 15 45  1  0  0  0
 16 17  2  0  0  0
 16 46  1  0  0  0
 17 18  1  0  0  0
 17 47  1  0  0  0
 18 19  1  0  0  0
 19 20  2  0  0  0
 19 21  1  0  0  0
 21 22  1  0  0  0
 22 23  1  0  0  0
 22 28  1  0  0  0
 22 48  1  0  0  0
 23 24  1  0  0  0
 23 49  1  0  0  0
 23 50  1  0  0  0
 24 25  1  0  0  0
 24 51  1  0  0  0
 24 52  1  0  0  0
 25 26  1  0  0  0
 25 53  1  0  0  0
 25 54  1  0  0  0
 26 27  1  0  0  0
 26 55  1  0  0  0
 26 56  1  0  0  0
 27 28  1  0  0  0
 27 57  1  0  0  0
 27 58  1  0  0  0
 28 29  1  0  0  0
 28 59  1  0  0  0
 29 30  1  0  0  0
 29 60  1  0  0  0
 30 31  2  0  0  0
 30 32  1  0  0  0
 32 33  2  0  0  0
 32 37  1  0  0  0
 33 34  1  0  0  0
 33 61  1  0  0  0
 34 35  2  0  0  0
 34 62  1  0  0  0
 35 36  1  0  0  0
 36 37  2  0  0  0
 36 63  1  0  0  0
 37 64  1  0  0  0
M  CHG  1  26   1
M  END
> <s_m_source_file>
../1sve_ligand.sdf

> <i_m_source_file_index>
1

> <s_epik_input>
RmMxYyhPW0NIM10pW2NIXVtjSF1jKFtPSF0pYzFDKD1PKWMyW2NIXVtjSF1jKFtjSF1bY0hdMilDKD1PKU9bQ0BASF0zW0NIMl1bQ0gyXVtDSDJdW05IMitdW0NIMl1bQ0BIXTNbTkhdQyg9TyljNFtjSF1bY0hdbltjSF1bY0hdNA==

> <s_epik_cmdline>
J2VwaWtfYXBwJywgJy1pbWFlJywgJ2xpZ2FuZF9wcm8ubWFlJywgJy1vbWFlJywgJ2xpZ2FuZF9wcmVwLm1hZScsICctbXMnLCAnMScsICctcGgnLCAnNycsICctcGh0JywgJzAuNScsICctbnQn

> <r_epik_Ionization_Penalty>
  0.0950

> <r_epik_Ionization_Penalty_Charging>
  0.0070

> <r_epik_Ionization_Penalty_Neutral>
  0.0880

> <r_epik_State_Penalty>
  0.0783

> <r_epik_Charging_Adjusted_Penalty>
0.0853319431007845

> <i_epik_Tot_Q>
1

> <i_epik_Tot_abs_Q>
1

> <s_epik_Chemistry_Notes>
This compound has an ester and may undergo hydrolysis at high or low pH.

$$$$
