1svg_ligand
                    3D
 Schrodinger Suite 2020-3.
 65 68  0  0  1  0            999 V2000
   17.1040   12.0200   -3.4210 F   0  0  0  0  0  0
   16.1080   11.7360   -4.2890 C   0  0  0  0  0  0
   16.3970   11.0580   -5.4640 C   0  0  0  0  0  0
   17.7050   10.6830   -5.6690 O   0  0  0  0  0  0
   18.0500   10.2530   -6.9860 C   0  0  0  0  0  0
   15.3430   10.7900   -6.3870 C   0  0  0  0  0  0
   14.0600   11.1780   -6.0920 C   0  0  0  0  0  0
   13.7500   11.8590   -4.8680 C   0  0  0  0  0  0
   12.5420   12.2190   -4.6090 O   0  0  0  0  0  0
   14.8190   12.1390   -3.9570 C   0  0  0  0  0  0
   14.6480   12.8520   -2.7220 C   0  0  0  0  0  0
   15.3150   13.8970   -2.6300 O   0  0  0  0  0  0
   13.8380   12.4570   -1.5650 C   0  0  0  0  0  0
   13.6060   11.0960   -1.2660 C   0  0  0  0  0  0
   12.8840   10.7200   -0.1470 C   0  0  0  0  0  0
   13.3110   13.4530   -0.7260 C   0  0  0  0  0  0
   12.5920   13.0820    0.3790 C   0  0  0  0  0  0
   12.3790   11.7320    0.6820 C   0  0  0  0  0  0
   11.6290   11.4110    1.8830 C   0  0  0  0  0  0
   11.5290   12.2580    2.7560 O   0  0  0  0  0  0
   11.0620   10.1800    2.0090 N   0  0  0  0  0  0
   10.5010    9.6830    3.2260 C   0  0  2  0  0  0
   11.6340    9.2690    4.2060 C   0  0  0  0  0  0
   12.6890    8.3300    3.5950 C   0  0  0  0  0  0
   12.2660    6.8630    3.5850 C   0  0  0  0  0  0
   11.0890    6.6130    2.7100 N   0  3  0  0  0  0
    9.8640    7.0860    3.3330 C   0  0  0  0  0  0
    9.5190    8.5300    2.8830 C   0  0  1  0  0  0
    8.1940    8.7520    3.4130 N   0  0  0  0  0  0
    7.1140    8.9730    2.5750 C   0  0  0  0  0  0
    7.2880    8.9940    1.3350 O   0  0  0  0  0  0
    5.7780    9.1120    3.1660 C   0  0  0  0  0  0
    4.6850    9.0500    2.2800 C   0  0  0  0  0  0
    3.4040    9.1320    2.7500 C   0  0  0  0  0  0
    3.1600    9.2440    4.1130 N   0  0  0  0  0  0
    4.2120    9.2980    5.0180 C   0  0  0  0  0  0
    5.5190    9.2140    4.5440 C   0  0  0  0  0  0
   19.1160    9.9833   -7.0162 H   0  0  0  0  0  0
   17.8575   11.0675   -7.6998 H   0  0  0  0  0  0
   17.4423    9.3770   -7.2566 H   0  0  0  0  0  0
   15.5562   10.2778   -7.3252 H   0  0  0  0  0  0
   13.2608   10.9645   -6.8018 H   0  0  0  0  0  0
   11.7359   11.9938   -5.3228 H   0  0  0  0  0  0
   14.0032   10.3276   -1.9292 H   0  0  0  0  0  0
   12.7129    9.6684    0.0832 H   0  0  0  0  0  0
   13.4722   14.5072   -0.9515 H   0  0  0  0  0  0
   12.1790   13.8501    1.0329 H   0  0  0  0  0  0
   11.0508    9.5561    1.1031 H   0  0  0  0  0  0
    9.9456   10.5177    3.6785 H   0  0  0  0  0  0
   12.1655   10.1675    4.5525 H   0  0  0  0  0  0
   11.1986    8.7447    5.0695 H   0  0  0  0  0  0
   12.8820    8.6241    2.5528 H   0  0  0  0  0  0
   13.6215    8.3998    4.1743 H   0  0  0  0  0  0
   13.0977    6.2441    3.2173 H   0  0  0  0  0  0
   12.0003    6.5510    4.6058 H   0  0  0  0  0  0
   11.2240    7.1405    1.7542 H   0  0  0  0  0  0
   10.9942    5.5332    2.5226 H   0  0  0  0  0  0
    9.0308    6.4251    3.0519 H   0  0  0  0  0  0
    9.9831    7.0810    4.4265 H   0  0  0  0  0  0
    9.5173    8.5873    1.7845 H   0  0  0  0  0  0
    8.0288    8.7475    4.5005 H   0  0  0  0  0  0
    4.8620    8.9357    1.2106 H   0  0  0  0  0  0
    2.5683    9.1094    2.0506 H   0  0  0  0  0  0
    4.0174    9.4047    6.0852 H   0  0  0  0  0  0
    6.3501    9.2275    5.2492 H   0  0  0  0  0  0
  1  2  1  0  0  0
  2  3  2  0  0  0
  2 10  1  0  0  0
  3  4  1  0  0  0
  3  6  1  0  0  0
  4  5  1  0  0  0
  5 38  1  0  0  0
  5 39  1  0  0  0
  5 40  1  0  0  0
  6  7  2  0  0  0
  6 41  1  0  0  0
  7  8  1  0  0  0
  7 42  1  0  0  0
  8  9  1  0  0  0
  8 10  2  0  0  0
  9 43  1  0  0  0
 10 11  1  0  0  0
 11 12  2  0  0  0
 11 13  1  0  0  0
 13 14  2  0  0  0
 13 16  1  0  0  0
 14 15  1  0  0  0
 14 44  1  0  0  0
 15 18  2  0  0  0
 15 45  1  0  0  0
 16 17  2  0  0  0
 16 46  1  0  0  0
 17 18  1  0  0  0
 17 47  1  0  0  0
 18 19  1  0  0  0
 19 20  2  0  0  0
 19 21  1  0  0  0
 21 22  1  0  0  0
 21 48  1  0  0  0
 22 23  1  0  0  0
 22 28  1  0  0  0
 22 49  1  0  0  0
 23 24  1  0  0  0
 23 50  1  0  0  0
 23 51  1  0  0  0
 24 25  1  0  0  0
 24 52  1  0  0  0
 24 53  1  0  0  0
 25 26  1  0  0  0
 25 54  1  0  0  0
 25 55  1  0  0  0
 26 27  1  0  0  0
 26 56  1  0  0  0
 26 57  1  0  0  0
 27 28  1  0  0  0
 27 58  1  0  0  0
 27 59  1  0  0  0
 28 29  1  0  0  0
 28 60  1  0  0  0
 29 30  1  0  0  0
 29 61  1  0  0  0
 30 31  2  0  0  0
 30 32  1  0  0  0
 32 33  2  0  0  0
 32 37  1  0  0  0
 33 34  1  0  0  0
 33 62  1  0  0  0
 34 35  2  0  0  0
 34 63  1  0  0  0
 35 36  1  0  0  0
 36 37  2  0  0  0
 36 64  1  0  0  0
 37 65  1  0  0  0
M  CHG  1  26   1
M  END
> <s_m_source_file>
../1svg_ligand.sdf

> <i_m_source_file_index>
1

> <s_epik_input>
RmMxYyhPW0NIM10pW2NIXVtjSF1jKFtPSF0pYzFDKD1PKWMyW2NIXVtjSF1jKFtjSF1bY0hdMilDKD1PKVtOSF1bQ0BASF0zW0NIMl1bQ0gyXVtDSDJdW05IMitdW0NIMl1bQ0BIXTNbTkhdQyg9TyljNFtjSF1bY0hdbltjSF1bY0hdNA==

> <s_epik_cmdline>
J2VwaWtfYXBwJywgJy1pbWFlJywgJ2xpZ2FuZF9wcm8ubWFlJywgJy1vbWFlJywgJ2xpZ2FuZF9wcmVwLm1hZScsICctbXMnLCAnMScsICctcGgnLCAnNycsICctcGh0JywgJzAuNScsICctbnQn

> <r_epik_Ionization_Penalty>
  0.0917

> <r_epik_Ionization_Penalty_Charging>
  0.0037

> <r_epik_Ionization_Penalty_Neutral>
  0.0879

> <r_epik_State_Penalty>
  0.0783

> <r_epik_Charging_Adjusted_Penalty>
0.0820200557724647

> <i_epik_Tot_Q>
1

> <i_epik_Tot_abs_Q>
1

$$$$
