1svh_ligand
                    3D
 Schrodinger Suite 2020-3.
 65 68  0  0  1  0            999 V2000
   36.2690   16.2010    7.8140 F   0  0  0  0  0  0
   35.2130   15.3860    7.9370 C   0  0  0  0  0  0
   35.3840   14.2780    8.6890 C   0  0  0  0  0  0
   36.6400   14.0420    9.2690 O   0  0  0  0  0  0
   36.8280   12.7440    9.8580 C   0  0  0  0  0  0
   34.2510   13.4390    8.8510 C   0  0  0  0  0  0
   33.0460   13.7300    8.2610 C   0  0  0  0  0  0
   32.8590   14.9150    7.4870 C   0  0  0  0  0  0
   31.7240   15.1980    6.9160 O   0  0  0  0  0  0
   33.9910   15.7570    7.3450 C   0  0  0  0  0  0
   33.9010   16.9490    6.5340 C   0  0  0  0  0  0
   34.5150   16.9800    5.4770 O   0  0  0  0  0  0
   33.1070   18.1050    6.8670 C   0  0  0  0  0  0
   32.6400   18.2520    8.2050 C   0  0  0  0  0  0
   31.8910   19.3780    8.5770 C   0  0  0  0  0  0
   32.8100   19.0590    5.8800 C   0  0  0  0  0  0
   32.0510   20.1800    6.2420 C   0  0  0  0  0  0
   31.5830   20.3500    7.5990 C   0  0  0  0  0  0
   30.8150   21.5280    7.9710 C   0  0  0  0  0  0
   30.1810   21.6340    9.1630 C   0  0  0  0  0  0
   29.4440   22.8840    9.5330 C   0  0  2  0  0  0
   30.5220   23.9530    9.9280 C   0  0  0  0  0  0
   31.5550   23.4730   10.9920 C   0  0  0  0  0  0
   30.9480   23.6260   12.3880 C   0  0  0  0  0  0
   29.7770   22.7130   12.5480 N   0  3  0  0  0  0
   28.5170   23.2130   11.9460 C   0  0  0  0  0  0
   28.3080   22.6650   10.5580 C   0  0  1  0  0  0
   27.0710   23.2800   10.0710 N   0  0  0  0  0  0
   25.9750   22.5110    9.6990 C   0  0  0  0  0  0
   26.1490   21.3000    9.6080 O   0  0  0  0  0  0
   24.6550   23.0800    9.4930 C   0  0  0  0  0  0
   23.5840   22.1760    9.3710 C   0  0  0  0  0  0
   22.2970   22.6250    9.2180 C   0  0  0  0  0  0
   22.0460   23.9910    9.1270 N   0  0  0  0  0  0
   23.0790   24.9140    9.2220 C   0  0  0  0  0  0
   24.3860   24.4690    9.4110 C   0  0  0  0  0  0
   37.8424   12.6754   10.2779 H   0  0  0  0  0  0
   36.6967   11.9695    9.0880 H   0  0  0  0  0  0
   36.0888   12.5941   10.6587 H   0  0  0  0  0  0
   34.3398   12.5395    9.4602 H   0  0  0  0  0  0
   32.2119   13.0396    8.3865 H   0  0  0  0  0  0
   30.8619   14.5267    7.0431 H   0  0  0  0  0  0
   32.8664   17.4841    8.9447 H   0  0  0  0  0  0
   31.5516   19.5013    9.6054 H   0  0  0  0  0  0
   33.1617   18.9305    4.8563 H   0  0  0  0  0  0
   31.8107   20.9328    5.4913 H   0  0  0  0  0  0
   30.7598   22.3512    7.2435 H   0  0  0  0  0  0
   30.2031   20.7952    9.8742 H   0  0  0  0  0  0
   28.8751   23.2192    8.6532 H   0  0  0  0  0  0
   31.0959   24.2422    9.0352 H   0  0  0  0  0  0
   30.0231   24.8396   10.3463 H   0  0  0  0  0  0
   31.8034   22.4168   10.8114 H   0  0  0  0  0  0
   32.4679   24.0822   10.9178 H   0  0  0  0  0  0
   31.7045   23.3754   13.1462 H   0  0  0  0  0  0
   30.6153   24.6646   12.5314 H   0  0  0  0  0  0
   29.9972   21.7470   12.0701 H   0  0  0  0  0  0
   29.5783   22.5556   13.6184 H   0  0  0  0  0  0
   27.6653   22.9071   12.5713 H   0  0  0  0  0  0
   28.5507   24.3107   11.8838 H   0  0  0  0  0  0
   28.2226   21.5727   10.6560 H   0  0  0  0  0  0
   26.9946   24.3746    9.9931 H   0  0  0  0  0  0
   23.7796   21.1040    9.3984 H   0  0  0  0  0  0
   21.4727   21.9136    9.1678 H   0  0  0  0  0  0
   22.8687   25.9810    9.1491 H   0  0  0  0  0  0
   25.2005   25.1884    9.4957 H   0  0  0  0  0  0
  1  2  1  0  0  0
  2  3  2  0  0  0
  2 10  1  0  0  0
  3  4  1  0  0  0
  3  6  1  0  0  0
  4  5  1  0  0  0
  5 37  1  0  0  0
  5 38  1  0  0  0
  5 39  1  0  0  0
  6  7  2  0  0  0
  6 40  1  0  0  0
  7  8  1  0  0  0
  7 41  1  0  0  0
  8  9  1  0  0  0
  8 10  2  0  0  0
  9 42  1  0  0  0
 10 11  1  0  0  0
 11 12  2  0  0  0
 11 13  1  0  0  0
 13 14  2  0  0  0
 13 16  1  0  0  0
 14 15  1  0  0  0
 14 43  1  0  0  0
 15 18  2  0  0  0
 15 44  1  0  0  0
 16 17  2  0  0  0
 16 45  1  0  0  0
 17 18  1  0  0  0
 17 46  1  0  0  0
 18 19  1  0  0  0
 19 20  2  0  0  0
 19 47  1  0  0  0
 20 21  1  0  0  0
 20 48  1  0  0  0
 21 22  1  0  0  0
 21 27  1  0  0  0
 21 49  1  0  0  0
 22 23  1  0  0  0
 22 50  1  0  0  0
 22 51  1  0  0  0
 23 24  1  0  0  0
 23 52  1  0  0  0
 23 53  1  0  0  0
 24 25  1  0  0  0
 24 54  1  0  0  0
 24 55  1  0  0  0
 25 26  1  0  0  0
 25 56  1  0  0  0
 25 57  1  0  0  0
 26 27  1  0  0  0
 26 58  1  0  0  0
 26 59  1  0  0  0
 27 28  1  0  0  0
 27 60  1  0  0  0
 28 29  1  0  0  0
 28 61  1  0  0  0
 29 30  2  0  0  0
 29 31  1  0  0  0
 31 32  2  0  0  0
 31 36  1  0  0  0
 32 33  1  0  0  0
 32 62  1  0  0  0
 33 34  2  0  0  0
 33 63  1  0  0  0
 34 35  1  0  0  0
 35 36  2  0  0  0
 35 64  1  0  0  0
 36 65  1  0  0  0
M  CHG  1  25   1
M  END
> <s_m_source_file>
../1svh_ligand.sdf

> <i_m_source_file_index>
1

> <s_epik_input>
RmMxYyhPW0NIM10pW2NIXVtjSF1jKFtPSF0pYzFDKD1PKWMyW2NIXVtjSF1jKFtjSF1bY0hdMikvW0NIXT1bQ0hdL1tDQEBIXTNbQ0gyXVtDSDJdW0NIMl1bTkgyK11bQ0gyXVtDQEhdM1tOSF1DKD1PKWM0W2NIXVtjSF1uW2NIXVtjSF00

> <s_epik_cmdline>
J2VwaWtfYXBwJywgJy1pbWFlJywgJ2xpZ2FuZF9wcm8ubWFlJywgJy1vbWFlJywgJ2xpZ2FuZF9wcmVwLm1hZScsICctbXMnLCAnMScsICctcGgnLCAnNycsICctcGh0JywgJzAuNScsICctbnQn

> <r_epik_Ionization_Penalty>
  0.0900

> <r_epik_Ionization_Penalty_Charging>
  0.0021

> <r_epik_Ionization_Penalty_Neutral>
  0.0880

> <r_epik_State_Penalty>
  0.0783

> <r_epik_Charging_Adjusted_Penalty>
0.0803974991755156

> <i_epik_Tot_Q>
1

> <i_epik_Tot_abs_Q>
1

$$$$
