1sw1_ligand
                    3D
 Schrodinger Suite 2020-3.
 23 23  0  0  1  0            999 V2000
   13.5970    2.1320   15.1660 N   0  3  0  0  0  0
   12.3000    2.1790   15.7850 C   0  0  0  0  0  0
   13.9600    3.4960   14.8080 C   0  0  1  0  0  0
   13.4950    4.2730   16.0480 C   0  0  0  0  0  0
   12.5720    3.3170   16.7550 C   0  0  0  0  0  0
   14.4490    1.6270   16.2540 C   0  0  0  0  0  0
   13.5800    1.3710   13.9090 C   0  0  0  0  0  0
   15.4350    3.5270   14.5670 C   0  0  0  0  0  0
   15.8980    3.2440   13.4280 O   0  5  0  0  0  0
   16.1370    3.8610   15.5430 O   0  0  0  0  0  0
   11.5371    2.3932   15.0220 H   0  0  0  0  0  0
   12.0838    1.2095   16.2575 H   0  0  0  0  0  0
   13.5160    3.8776   13.8767 H   0  0  0  0  0  0
   14.3675    4.5372   16.6636 H   0  0  0  0  0  0
   12.9773    5.1909   15.7327 H   0  0  0  0  0  0
   11.6240    3.8091   17.0180 H   0  0  0  0  0  0
   13.0429    2.9181   17.6655 H   0  0  0  0  0  0
   14.3624    2.2917   17.1261 H   0  0  0  0  0  0
   15.4957    1.5987   15.9170 H   0  0  0  0  0  0
   14.1258    0.6130   16.5323 H   0  0  0  0  0  0
   12.9050    1.8618   13.1924 H   0  0  0  0  0  0
   13.2262    0.3480   14.1045 H   0  0  0  0  0  0
   14.5961    1.3336   13.4892 H   0  0  0  0  0  0
  1  2  1  0  0  0
  1  3  1  0  0  0
  1  6  1  0  0  0
  1  7  1  0  0  0
  2  5  1  0  0  0
  2 11  1  0  0  0
  2 12  1  0  0  0
  3  4  1  0  0  0
  3  8  1  0  0  0
  3 13  1  0  0  0
  4  5  1  0  0  0
  4 14  1  0  0  0
  4 15  1  0  0  0
  5 16  1  0  0  0
  5 17  1  0  0  0
  6 18  1  0  0  0
  6 19  1  0  0  0
  6 20  1  0  0  0
  7 21  1  0  0  0
  7 22  1  0  0  0
  7 23  1  0  0  0
  8  9  1  0  0  0
  8 10  2  0  0  0
M  CHG  2   1   1   9  -1
M  END
> <s_m_source_file>
../1sw1_ligand.sdf

> <i_m_source_file_index>
1

> <s_epik_input>
W0NIM11bTitdMShbQ0gzXSlbQ0gyXVtDSDJdW0NIMl1bQ0BIXTFDKD1PKVtPSF0=

> <s_epik_cmdline>
J2VwaWtfYXBwJywgJy1pbWFlJywgJ2xpZ2FuZF9wcm8ubWFlJywgJy1vbWFlJywgJ2xpZ2FuZF9wcmVwLm1hZScsICctbXMnLCAnMScsICctcGgnLCAnNycsICctcGh0JywgJzAuNScsICctbnQn

> <r_lp_tautomer_probability>
1

> <r_epik_Ionization_Penalty>
  0.0007

> <r_epik_Ionization_Penalty_Charging>
  0.0007

> <r_epik_Ionization_Penalty_Neutral>
  0.0000

> <r_epik_State_Penalty>
 -0.0000

> <r_epik_Charging_Adjusted_Penalty>
0.000745426268619281

> <i_epik_Tot_Q>
0

> <i_epik_Tot_abs_Q>
2

$$$$
