1swg_ligand
                    3D
 Schrodinger Suite 2020-3.
 31 32  0  0  1  0            999 V2000
   13.8230   15.4720   18.2480 C   0  0  0  0  0  0
   14.0450   15.9210   17.0920 O   0  0  0  0  0  0
   14.7540   15.0090   18.9720 O   0  5  0  0  0  0
   12.4110   15.4940   18.7050 C   0  0  0  0  0  0
   11.5780   16.5940   18.0180 C   0  0  0  0  0  0
   11.8760   17.9300   18.6780 C   0  0  0  0  0  0
   11.1330   19.1590   18.1180 C   0  0  0  0  0  0
   11.4950   20.4790   18.7970 C   0  0  2  0  0  0
   11.0380   20.5580   20.5830 S   0  0  0  0  0  0
   11.4720   22.3320   20.5860 C   0  0  0  0  0  0
   10.9390   22.9040   19.2940 C   0  0  2  0  0  0
    9.5410   23.3110   19.3310 N   0  0  0  0  0  0
    8.7770   22.5910   18.5060 C   0  0  0  0  0  0
    7.5460   22.7020   18.2980 O   0  0  0  0  0  0
    9.5720   21.7110   17.8520 N   0  0  0  0  0  0
   10.9550   21.7700   18.2320 C   0  0  2  0  0  0
   11.9384   14.5261   18.4821 H   0  0  0  0  0  0
   12.3793   15.6764   19.7893 H   0  0  0  0  0  0
   11.8422   16.6416   16.9512 H   0  0  0  0  0  0
   10.5078   16.3615   18.1207 H   0  0  0  0  0  0
   11.6096   17.8798   19.7441 H   0  0  0  0  0  0
   12.9476   18.1574   18.5781 H   0  0  0  0  0  0
   11.3670   19.2733   17.0493 H   0  0  0  0  0  0
   10.0490   19.0206   18.2432 H   0  0  0  0  0  0
   12.5161   20.4414   18.3897 H   0  0  0  0  0  0
   11.0075   22.8216   21.4546 H   0  0  0  0  0  0
   12.5649   22.4420   20.6441 H   0  0  0  0  0  0
   11.5321   23.8114   19.1075 H   0  0  0  0  0  0
    9.2242   24.1311   19.9922 H   0  0  0  0  0  0
    9.2417   20.9917   17.0881 H   0  0  0  0  0  0
   11.5728   21.9253   17.3352 H   0  0  0  0  0  0
  1  4  1  0  0  0
  1  3  1  0  0  0
  1  2  2  0  0  0
  4  5  1  0  0  0
  4 17  1  0  0  0
  4 18  1  0  0  0
  5  6  1  0  0  0
  5 19  1  0  0  0
  5 20  1  0  0  0
  6  7  1  0  0  0
  6 21  1  0  0  0
  6 22  1  0  0  0
  7  8  1  0  0  0
  7 23  1  0  0  0
  7 24  1  0  0  0
  8 16  1  0  0  0
  8  9  1  0  0  0
  8 25  1  0  0  0
  9 10  1  0  0  0
 10 11  1  0  0  0
 10 26  1  0  0  0
 10 27  1  0  0  0
 11 16  1  0  0  0
 11 12  1  0  0  0
 11 28  1  0  0  0
 12 13  1  0  0  0
 12 29  1  0  0  0
 13 15  1  0  0  0
 13 14  2  0  0  0
 15 16  1  0  0  0
 15 30  1  0  0  0
 16 31  1  0  0  0
M  CHG  1   3  -1
M  END
> <s_m_source_file>
../1swg_ligand.sdf

> <i_m_source_file_index>
1

> <s_epik_input>
Tz1DKFtPSF0pW0NIMl1bQ0gyXVtDSDJdW0NIMl1bQ0BIXShTW0NIMl0xKVtDQEhdKFtDQEhdMTIpW05IXUMoPU8pW05IXTI=

> <s_epik_cmdline>
J2VwaWtfYXBwJywgJy1pbWFlJywgJ2xpZ2FuZF9wcm8ubWFlJywgJy1vbWFlJywgJ2xpZ2FuZF9wcmVwLm1hZScsICctbXMnLCAnMScsICctcGgnLCAnNycsICctcGh0JywgJzAuNScsICctbnQn

> <r_lp_tautomer_probability>
1

> <r_epik_Ionization_Penalty>
  0.0045

> <r_epik_Ionization_Penalty_Charging>
  0.0044

> <r_epik_Ionization_Penalty_Neutral>
  0.0000

> <r_epik_State_Penalty>
 -0.0000

> <r_epik_Charging_Adjusted_Penalty>
0.00443833021372702

> <i_epik_Tot_Q>
-1

> <i_epik_Tot_abs_Q>
1

$$$$
