1swi_ligand
                    3D
 Schrodinger Suite 2020-3.
 12 12  0  0  1  0            999 V2000
  -10.2480   -9.5580   31.4800 C   0  0  0  0  0  0
  -10.0100   -8.6480   32.5110 C   0  0  0  0  0  0
   -8.7790   -7.9830   32.5400 C   0  0  0  0  0  0
   -7.8270   -8.1440   31.5320 C   0  0  0  0  0  0
   -8.1240   -8.9970   30.4700 C   0  0  0  0  0  0
   -9.3150   -9.7220   30.4580 C   0  0  0  0  0  0
  -11.1677  -10.1430   31.4741 H   0  0  0  0  0  0
  -10.7644   -8.4598   33.2749 H   0  0  0  0  0  0
   -8.5568   -7.3190   33.3753 H   0  0  0  0  0  0
   -6.8745   -7.6157   31.5741 H   0  0  0  0  0  0
   -7.4205   -9.0978   29.6436 H   0  0  0  0  0  0
   -9.5171  -10.4201   29.6456 H   0  0  0  0  0  0
  1  2  2  0  0  0
  1  6  1  0  0  0
  1  7  1  0  0  0
  2  3  1  0  0  0
  2  8  1  0  0  0
  3  4  2  0  0  0
  3  9  1  0  0  0
  4  5  1  0  0  0
  4 10  1  0  0  0
  5  6  2  0  0  0
  5 11  1  0  0  0
  6 12  1  0  0  0
M  END
> <s_m_source_file>
../1swi_ligand.sdf

> <i_m_source_file_index>
1

> <s_epik_input>
W2NIXTFbY0hdW2NIXVtjSF1bY0hdW2NIXTE=

> <s_epik_cmdline>
J2VwaWtfYXBwJywgJy1pbWFlJywgJ2xpZ2FuZF9wcm8ubWFlJywgJy1vbWFlJywgJ2xpZ2FuZF9wcmVwLm1hZScsICctbXMnLCAnMScsICctcGgnLCAnNycsICctcGh0JywgJzAuNScsICctbnQn

> <r_lp_tautomer_probability>
1

> <r_epik_Ionization_Penalty>
  0.0000

> <r_epik_Ionization_Penalty_Charging>
  0.0000

> <r_epik_Ionization_Penalty_Neutral>
  0.0000

> <r_epik_State_Penalty>
 -0.0000

> <r_epik_Charging_Adjusted_Penalty>
0

> <i_epik_Tot_Q>
0

> <i_epik_Tot_abs_Q>
0

$$$$
