1swk_ligand
                    3D
 Schrodinger Suite 2020-3.
 31 32  0  0  1  0            999 V2000
   17.5800   19.2980   31.5830 C   0  0  0  0  0  0
   18.3440   20.1310   31.0260 O   0  5  0  0  0  0
   16.3820   19.1300   31.2620 O   0  0  0  0  0  0
   18.2140   18.4710   32.6480 C   0  0  0  0  0  0
   19.6750   18.1690   32.2560 C   0  0  0  0  0  0
   19.6780   17.0250   31.2290 C   0  0  0  0  0  0
   21.1010   16.7010   30.6990 C   0  0  0  0  0  0
   21.1970   15.6630   29.6050 C   0  0  2  0  0  0
   20.4740   14.0040   29.9520 S   0  0  0  0  0  0
   21.1850   13.4210   28.3850 C   0  0  0  0  0  0
   22.5740   14.0190   28.2790 C   0  0  2  0  0  0
   23.6050   13.2520   28.9340 N   0  0  0  0  0  0
   24.1530   13.9150   29.9720 C   0  0  0  0  0  0
   25.0690   13.4980   30.7110 O   0  0  0  0  0  0
   23.5880   15.1410   30.0730 N   0  0  0  0  0  0
   22.5750   15.3580   29.0520 C   0  0  2  0  0  0
   18.1942   19.0214   33.6002 H   0  0  0  0  0  0
   17.6595   17.5274   32.7584 H   0  0  0  0  0  0
   20.1303   19.0689   31.8169 H   0  0  0  0  0  0
   20.2408   17.8714   33.1511 H   0  0  0  0  0  0
   19.2757   16.1132   31.6946 H   0  0  0  0  0  0
   19.0526   17.3035   30.3680 H   0  0  0  0  0  0
   21.5549   17.6138   30.2857 H   0  0  0  0  0  0
   21.7226   16.3237   31.5244 H   0  0  0  0  0  0
   20.7576   16.3909   28.9070 H   0  0  0  0  0  0
   21.2343   12.3221   28.3911 H   0  0  0  0  0  0
   20.5531   13.7550   27.5489 H   0  0  0  0  0  0
   22.8233   14.0372   27.2078 H   0  0  0  0  0  0
   23.8584   12.2460   28.5683 H   0  0  0  0  0  0
   23.8095   15.9318   30.8049 H   0  0  0  0  0  0
   22.8382   16.2575   28.4761 H   0  0  0  0  0  0
  1  4  1  0  0  0
  1  3  2  0  0  0
  1  2  1  0  0  0
  4  5  1  0  0  0
  4 17  1  0  0  0
  4 18  1  0  0  0
  5  6  1  0  0  0
  5 19  1  0  0  0
  5 20  1  0  0  0
  6  7  1  0  0  0
  6 21  1  0  0  0
  6 22  1  0  0  0
  7  8  1  0  0  0
  7 23  1  0  0  0
  7 24  1  0  0  0
  8 16  1  0  0  0
  8  9  1  0  0  0
  8 25  1  0  0  0
  9 10  1  0  0  0
 10 11  1  0  0  0
 10 26  1  0  0  0
 10 27  1  0  0  0
 11 16  1  0  0  0
 11 12  1  0  0  0
 11 28  1  0  0  0
 12 13  1  0  0  0
 12 29  1  0  0  0
 13 15  1  0  0  0
 13 14  2  0  0  0
 15 16  1  0  0  0
 15 30  1  0  0  0
 16 31  1  0  0  0
M  CHG  1   2  -1
M  END
> <s_m_source_file>
../1swk_ligand.sdf

> <i_m_source_file_index>
1

> <s_epik_input>
W09IXUMoPU8pW0NIMl1bQ0gyXVtDSDJdW0NIMl1bQ0BIXShTW0NIMl0xKVtDQEhdKFtDQEhdMTIpW05IXUMoPU8pW05IXTI=

> <s_epik_cmdline>
J2VwaWtfYXBwJywgJy1pbWFlJywgJ2xpZ2FuZF9wcm8ubWFlJywgJy1vbWFlJywgJ2xpZ2FuZF9wcmVwLm1hZScsICctbXMnLCAnMScsICctcGgnLCAnNycsICctcGh0JywgJzAuNScsICctbnQn

> <r_lp_tautomer_probability>
1

> <r_epik_Ionization_Penalty>
  0.0045

> <r_epik_Ionization_Penalty_Charging>
  0.0044

> <r_epik_Ionization_Penalty_Neutral>
  0.0000

> <r_epik_State_Penalty>
 -0.0000

> <r_epik_Charging_Adjusted_Penalty>
0.00443833021372702

> <i_epik_Tot_Q>
-1

> <i_epik_Tot_abs_Q>
1

$$$$
