1swn_ligand
                    3D
 Schrodinger Suite 2020-3.
 31 32  0  0  1  0            999 V2000
   16.5220    3.8650   29.4730 C   0  0  0  0  0  0
   15.5270    3.7200   30.2310 O   0  0  0  0  0  0
   17.1520    2.8740   29.0130 O   0  5  0  0  0  0
   16.9350    5.2480   29.1350 C   0  0  0  0  0  0
   15.7510    6.2040   28.9590 C   0  0  0  0  0  0
   15.1620    6.0920   27.5570 C   0  0  0  0  0  0
   13.9900    7.0720   27.2860 C   0  0  0  0  0  0
   13.2860    6.9630   25.9530 C   0  0  2  0  0  0
   14.2620    7.4620   24.4820 S   0  0  0  0  0  0
   12.7670    7.2340   23.4570 C   0  0  0  0  0  0
   11.6080    7.7930   24.2580 C   0  0  2  0  0  0
   11.4100    9.2220   24.1050 N   0  0  0  0  0  0
   11.5930    9.8920   25.2510 C   0  0  0  0  0  0
   11.4890   11.1330   25.4380 O   0  0  0  0  0  0
   11.9020    9.0120   26.2320 N   0  0  0  0  0  0
   11.9420    7.6410   25.7600 C   0  0  2  0  0  0
   17.5691    5.6483   29.9398 H   0  0  0  0  0  0
   17.5005    5.2416   28.1915 H   0  0  0  0  0  0
   14.9682    5.9568   29.6912 H   0  0  0  0  0  0
   16.0884    7.2388   29.1182 H   0  0  0  0  0  0
   15.9433    6.3060   26.8129 H   0  0  0  0  0  0
   14.7767    5.0735   27.4014 H   0  0  0  0  0  0
   13.2057    6.9238   28.0429 H   0  0  0  0  0  0
   14.3583    8.1072   27.3374 H   0  0  0  0  0  0
   13.0162    5.9303   26.2188 H   0  0  0  0  0  0
   12.8871    7.7765   22.5076 H   0  0  0  0  0  0
   12.6231    6.1630   23.2516 H   0  0  0  0  0  0
   10.7058    7.2928   23.8762 H   0  0  0  0  0  0
   11.1400    9.6378   23.1231 H   0  0  0  0  0  0
   12.1115    9.2364   27.2883 H   0  0  0  0  0  0
   11.2468    7.0354   26.3599 H   0  0  0  0  0  0
  1  4  1  0  0  0
  1  3  1  0  0  0
  1  2  2  0  0  0
  4  5  1  0  0  0
  4 17  1  0  0  0
  4 18  1  0  0  0
  5  6  1  0  0  0
  5 19  1  0  0  0
  5 20  1  0  0  0
  6  7  1  0  0  0
  6 21  1  0  0  0
  6 22  1  0  0  0
  7  8  1  0  0  0
  7 23  1  0  0  0
  7 24  1  0  0  0
  8 16  1  0  0  0
  8  9  1  0  0  0
  8 25  1  0  0  0
  9 10  1  0  0  0
 10 11  1  0  0  0
 10 26  1  0  0  0
 10 27  1  0  0  0
 11 16  1  0  0  0
 11 12  1  0  0  0
 11 28  1  0  0  0
 12 13  1  0  0  0
 12 29  1  0  0  0
 13 15  1  0  0  0
 13 14  2  0  0  0
 15 16  1  0  0  0
 15 30  1  0  0  0
 16 31  1  0  0  0
M  CHG  1   3  -1
M  END
> <s_m_source_file>
../1swn_ligand.sdf

> <i_m_source_file_index>
1

> <s_epik_input>
Tz1DKFtPSF0pW0NIMl1bQ0gyXVtDSDJdW0NIMl1bQ0BIXShTW0NIMl0xKVtDQEhdKFtDQEhdMTIpW05IXUMoPU8pW05IXTI=

> <s_epik_cmdline>
J2VwaWtfYXBwJywgJy1pbWFlJywgJ2xpZ2FuZF9wcm8ubWFlJywgJy1vbWFlJywgJ2xpZ2FuZF9wcmVwLm1hZScsICctbXMnLCAnMScsICctcGgnLCAnNycsICctcGh0JywgJzAuNScsICctbnQn

> <r_lp_tautomer_probability>
1

> <r_epik_Ionization_Penalty>
  0.0045

> <r_epik_Ionization_Penalty_Charging>
  0.0044

> <r_epik_Ionization_Penalty_Neutral>
  0.0000

> <r_epik_State_Penalty>
 -0.0000

> <r_epik_Charging_Adjusted_Penalty>
0.00443833021372702

> <i_epik_Tot_Q>
-1

> <i_epik_Tot_abs_Q>
1

$$$$
