1swp_ligand
                    3D
 Schrodinger Suite 2020-3.
 31 32  0  0  1  0            999 V2000
    7.5200  -16.4160   24.7670 C   0  0  0  0  0  0
    7.1730  -15.2290   25.0060 O   0  0  0  0  0  0
    6.7380  -17.2320   24.2110 O   0  5  0  0  0  0
    8.9020  -16.7900   25.1610 C   0  0  0  0  0  0
    9.7040  -15.5770   25.6530 C   0  0  0  0  0  0
   10.6630  -15.0820   24.5850 C   0  0  0  0  0  0
   11.2170  -13.6510   24.8280 C   0  0  0  0  0  0
   12.1150  -13.1040   23.7460 C   0  0  2  0  0  0
   13.3140  -14.2770   23.0230 S   0  0  0  0  0  0
   13.9890  -12.9400   21.9900 C   0  0  0  0  0  0
   14.0260  -11.7100   22.8730 C   0  0  2  0  0  0
   15.2420  -11.5890   23.6570 N   0  0  0  0  0  0
   14.9960  -11.6340   24.9710 C   0  0  0  0  0  0
   15.8520  -11.5300   25.8720 O   0  0  0  0  0  0
   13.6660  -11.7790   25.1870 N   0  0  0  0  0  0
   12.9140  -11.8360   23.9460 C   0  0  2  0  0  0
    8.8639  -17.5307   25.9734 H   0  0  0  0  0  0
    9.4259  -17.2217   24.2955 H   0  0  0  0  0  0
    9.0132  -14.7603   25.9096 H   0  0  0  0  0  0
   10.2856  -15.8586   26.5432 H   0  0  0  0  0  0
   11.5310  -15.7556   24.5310 H   0  0  0  0  0  0
   10.1509  -15.0651   23.6116 H   0  0  0  0  0  0
   10.3792  -12.9441   24.9195 H   0  0  0  0  0  0
   11.8093  -13.6396   25.7549 H   0  0  0  0  0  0
   11.1942  -12.7256   23.2781 H   0  0  0  0  0  0
   14.9977  -13.2146   21.6479 H   0  0  0  0  0  0
   13.3360  -12.7846   21.1186 H   0  0  0  0  0  0
   13.9792  -10.8471   22.1924 H   0  0  0  0  0  0
   16.2129  -11.4766   23.1523 H   0  0  0  0  0  0
   13.1421  -11.8522   26.1514 H   0  0  0  0  0  0
   12.1436  -11.0512   23.9691 H   0  0  0  0  0  0
  1  4  1  0  0  0
  1  3  1  0  0  0
  1  2  2  0  0  0
  4  5  1  0  0  0
  4 17  1  0  0  0
  4 18  1  0  0  0
  5  6  1  0  0  0
  5 19  1  0  0  0
  5 20  1  0  0  0
  6  7  1  0  0  0
  6 21  1  0  0  0
  6 22  1  0  0  0
  7  8  1  0  0  0
  7 23  1  0  0  0
  7 24  1  0  0  0
  8 16  1  0  0  0
  8  9  1  0  0  0
  8 25  1  0  0  0
  9 10  1  0  0  0
 10 11  1  0  0  0
 10 26  1  0  0  0
 10 27  1  0  0  0
 11 16  1  0  0  0
 11 12  1  0  0  0
 11 28  1  0  0  0
 12 13  1  0  0  0
 12 29  1  0  0  0
 13 15  1  0  0  0
 13 14  2  0  0  0
 15 16  1  0  0  0
 15 30  1  0  0  0
 16 31  1  0  0  0
M  CHG  1   3  -1
M  END
> <s_m_source_file>
../1swp_ligand.sdf

> <i_m_source_file_index>
1

> <s_epik_input>
Tz1DKFtPSF0pW0NIMl1bQ0gyXVtDSDJdW0NIMl1bQ0BIXShTW0NIMl0xKVtDQEhdKFtDQEhdMTIpW05IXUMoPU8pW05IXTI=

> <s_epik_cmdline>
J2VwaWtfYXBwJywgJy1pbWFlJywgJ2xpZ2FuZF9wcm8ubWFlJywgJy1vbWFlJywgJ2xpZ2FuZF9wcmVwLm1hZScsICctbXMnLCAnMScsICctcGgnLCAnNycsICctcGh0JywgJzAuNScsICctbnQn

> <r_lp_tautomer_probability>
1

> <r_epik_Ionization_Penalty>
  0.0045

> <r_epik_Ionization_Penalty_Charging>
  0.0044

> <r_epik_Ionization_Penalty_Neutral>
  0.0000

> <r_epik_State_Penalty>
 -0.0000

> <r_epik_Charging_Adjusted_Penalty>
0.00443833021372702

> <i_epik_Tot_Q>
-1

> <i_epik_Tot_abs_Q>
1

$$$$
