1swr_ligand
                    3D
 Schrodinger Suite 2020-3.
 31 32  0  0  1  0            999 V2000
    7.4080  -16.0990   24.0450 C   0  0  0  0  0  0
    7.0070  -14.9830   24.4470 O   0  0  0  0  0  0
    6.7640  -16.7410   23.1830 O   0  5  0  0  0  0
    8.6590  -16.6300   24.6440 C   0  0  0  0  0  0
    9.5830  -15.4990   25.1190 C   0  0  0  0  0  0
   10.3040  -14.8620   23.9330 C   0  0  0  0  0  0
   11.1450  -13.6110   24.3200 C   0  0  0  0  0  0
   11.9520  -12.9880   23.2080 C   0  0  2  0  0  0
   13.1150  -14.1100   22.3480 S   0  0  0  0  0  0
   13.7500  -12.7120   21.3850 C   0  0  0  0  0  0
   13.8110  -11.5200   22.3220 C   0  0  2  0  0  0
   15.0560  -11.4480   23.0560 N   0  0  0  0  0  0
   14.8650  -11.5730   24.3750 C   0  0  0  0  0  0
   15.7480  -11.5180   25.2520 O   0  0  0  0  0  0
   13.5530  -11.7380   24.6300 N   0  0  0  0  0  0
   12.7470  -11.7210   23.4340 C   0  0  2  0  0  0
    8.4115  -17.2625   25.5093 H   0  0  0  0  0  0
    9.1990  -17.2280   23.8952 H   0  0  0  0  0  0
    8.9868  -14.7286   25.6298 H   0  0  0  0  0  0
   10.3314  -15.9050   25.8154 H   0  0  0  0  0  0
   10.9902  -15.5953   23.4842 H   0  0  0  0  0  0
    9.5653  -14.5440   23.1825 H   0  0  0  0  0  0
   10.4766  -12.8207   24.6924 H   0  0  0  0  0  0
   11.8655  -13.8822   25.1057 H   0  0  0  0  0  0
   11.0035  -12.5941   22.8141 H   0  0  0  0  0  0
   14.7513  -12.9562   21.0006 H   0  0  0  0  0  0
   13.0729  -12.5098   20.5420 H   0  0  0  0  0  0
   13.7289  -10.6163   21.7002 H   0  0  0  0  0  0
   16.0045  -11.3058   22.5174 H   0  0  0  0  0  0
   13.0770  -11.8757   25.6121 H   0  0  0  0  0  0
   11.9754  -10.9437   23.5359 H   0  0  0  0  0  0
  1  4  1  0  0  0
  1  3  1  0  0  0
  1  2  2  0  0  0
  4  5  1  0  0  0
  4 17  1  0  0  0
  4 18  1  0  0  0
  5  6  1  0  0  0
  5 19  1  0  0  0
  5 20  1  0  0  0
  6  7  1  0  0  0
  6 21  1  0  0  0
  6 22  1  0  0  0
  7  8  1  0  0  0
  7 23  1  0  0  0
  7 24  1  0  0  0
  8 16  1  0  0  0
  8  9  1  0  0  0
  8 25  1  0  0  0
  9 10  1  0  0  0
 10 11  1  0  0  0
 10 26  1  0  0  0
 10 27  1  0  0  0
 11 16  1  0  0  0
 11 12  1  0  0  0
 11 28  1  0  0  0
 12 13  1  0  0  0
 12 29  1  0  0  0
 13 15  1  0  0  0
 13 14  2  0  0  0
 15 16  1  0  0  0
 15 30  1  0  0  0
 16 31  1  0  0  0
M  CHG  1   3  -1
M  END
> <s_m_source_file>
../1swr_ligand.sdf

> <i_m_source_file_index>
1

> <s_epik_input>
Tz1DKFtPSF0pW0NIMl1bQ0gyXVtDSDJdW0NIMl1bQ0BIXShTW0NIMl0xKVtDQEhdKFtDQEhdMTIpW05IXUMoPU8pW05IXTI=

> <s_epik_cmdline>
J2VwaWtfYXBwJywgJy1pbWFlJywgJ2xpZ2FuZF9wcm8ubWFlJywgJy1vbWFlJywgJ2xpZ2FuZF9wcmVwLm1hZScsICctbXMnLCAnMScsICctcGgnLCAnNycsICctcGh0JywgJzAuNScsICctbnQn

> <r_lp_tautomer_probability>
1

> <r_epik_Ionization_Penalty>
  0.0045

> <r_epik_Ionization_Penalty_Charging>
  0.0044

> <r_epik_Ionization_Penalty_Neutral>
  0.0000

> <r_epik_State_Penalty>
 -0.0000

> <r_epik_Charging_Adjusted_Penalty>
0.00443833021372702

> <i_epik_Tot_Q>
-1

> <i_epik_Tot_abs_Q>
1

$$$$
