1syh_ligand
                    3D
 Schrodinger Suite 2020-3.
 30 31  0  0  1  0            999 V2000
   21.8970   14.2400   24.8080 C   0  0  0  0  0  0
   21.8160   14.3210   23.3530 N   0  0  0  0  0  0
   22.8650   15.0780   22.6130 C   0  0  0  0  0  0
   22.8760   14.9850   21.2790 N   0  0  0  0  0  0
   20.8290   13.6450   22.6210 C   0  0  0  0  0  0
   23.6870   15.7320   23.2890 O   0  0  0  0  0  0
   20.8270   13.6530   21.2500 C   0  0  0  0  0  0
   21.9390   14.3130   20.5340 C   0  0  0  0  0  0
   22.0150   14.2380   19.3010 O   0  0  0  0  0  0
   19.6900   12.8090   23.1870 C   0  0  0  0  0  0
   19.0260   12.1900   21.9160 C   0  0  0  0  0  0
   19.6330   12.9380   20.6790 C   0  0  0  0  0  0
   23.0830   13.3710   25.2740 C   0  0  1  0  0  0
   23.2920   13.6760   26.7820 C   0  0  0  0  0  0
   23.5480   14.8670   27.1120 O   0  0  0  0  0  0
   23.2080   12.6850   27.5730 O   0  5  0  0  0  0
   22.7700   11.9280   24.9570 N   0  3  0  0  0  0
   22.0268   15.2497   25.2248 H   0  0  0  0  0  0
   20.9709   13.7967   25.2027 H   0  0  0  0  0  0
   23.6772   15.4683   20.7006 H   0  0  0  0  0  0
   20.0982   12.0422   23.8618 H   0  0  0  0  0  0
   19.0003   13.4591   23.7453 H   0  0  0  0  0  0
   19.2515   11.1143   21.8715 H   0  0  0  0  0  0
   17.9366   12.3345   21.9641 H   0  0  0  0  0  0
   18.9354   13.6731   20.2513 H   0  0  0  0  0  0
   19.9629   12.2444   19.8916 H   0  0  0  0  0  0
   24.0265   13.5677   24.7438 H   0  0  0  0  0  0
   22.6395   11.8111   23.8710 H   0  0  0  0  0  0
   21.8439   11.6321   25.4715 H   0  0  0  0  0  0
   23.5986   11.2897   25.2976 H   0  0  0  0  0  0
  1  2  1  0  0  0
  1 13  1  0  0  0
  1 18  1  0  0  0
  1 19  1  0  0  0
  2  3  1  0  0  0
  2  5  1  0  0  0
  3  4  1  0  0  0
  3  6  2  0  0  0
  4  8  1  0  0  0
  4 20  1  0  0  0
  5  7  2  0  0  0
  5 10  1  0  0  0
  7  8  1  0  0  0
  7 12  1  0  0  0
  8  9  2  0  0  0
 10 11  1  0  0  0
 10 21  1  0  0  0
 10 22  1  0  0  0
 11 12  1  0  0  0
 11 23  1  0  0  0
 11 24  1  0  0  0
 12 25  1  0  0  0
 12 26  1  0  0  0
 13 14  1  0  0  0
 13 17  1  0  0  0
 13 27  1  0  0  0
 14 15  2  0  0  0
 14 16  1  0  0  0
 17 28  1  0  0  0
 17 29  1  0  0  0
 17 30  1  0  0  0
M  CHG  2  16  -1  17   1
M  END
> <s_m_source_file>
../1syh_ligand.sdf

> <i_m_source_file_index>
1

> <s_epik_input>
Tz1DKFtPSF0pW0NAQEhdKFtOSDMrXSlbQ0gyXW4xYyg9TylbbkhdYyg9TyljKGMxMilbQ0gyXVtDSDJdW0NIMl0y

> <s_epik_cmdline>
J2VwaWtfYXBwJywgJy1pbWFlJywgJ2xpZ2FuZF9wcm8ubWFlJywgJy1vbWFlJywgJ2xpZ2FuZF9wcmVwLm1hZScsICctbXMnLCAnMScsICctcGgnLCAnNycsICctcGh0JywgJzAuNScsICctbnQn

> <r_lp_tautomer_probability>
0.999537046341301

> <r_epik_Ionization_Penalty>
  0.0357

> <r_epik_Ionization_Penalty_Charging>
  0.0357

> <r_epik_Ionization_Penalty_Neutral>
  0.0000

> <r_epik_State_Penalty>
  0.0274

> <r_epik_Charging_Adjusted_Penalty>
0.0631013206025411

> <i_epik_Tot_Q>
0

> <i_epik_Tot_abs_Q>
2

$$$$
