1syo_ligand
                    3D
 Schrodinger Suite 2020-3.
 27 27  0  0  1  0            999 V2000
   31.4410  -14.2150   20.3590 C   0  0  1  0  0  0
   31.7100  -12.9810   19.4700 C   0  0  2  0  0  0
   31.5690  -11.6480   20.2960 C   0  0  2  0  0  0
   30.1390  -11.5830   20.8670 C   0  0  1  0  0  0
   29.9430  -12.8130   21.7980 C   0  0  1  0  0  0
   28.5600  -12.8840   22.4040 C   0  0  0  0  0  0
   32.4520  -14.3110   21.3940 O   0  0  0  0  0  0
   30.7000  -12.9860   18.4610 O   0  0  0  0  0  0
   31.8190  -10.5340   19.4570 O   0  0  0  0  0  0
   29.9620  -10.3850   21.6300 O   0  0  0  0  0  0
   30.1350  -14.0660   21.0180 O   0  0  0  0  0  0
   28.4980  -14.0110   23.2540 O   0  0  0  0  0  0
   27.1690  -14.3620   24.0220 P   0  0  0  0  0  0
   27.4000  -15.6780   24.9320 O   0  5  0  0  0  0
   26.0820  -14.7180   22.9030 O   0  0  0  0  0  0
   26.6510  -13.1170   24.9040 O   0  5  0  0  0  0
   31.4598  -15.1475   19.7758 H   0  0  0  0  0  0
   32.6933  -13.0461   18.9811 H   0  0  0  0  0  0
   32.3226  -11.5363   21.0895 H   0  0  0  0  0  0
   29.3866  -11.5139   20.0676 H   0  0  0  0  0  0
   30.6776  -12.7436   22.6138 H   0  0  0  0  0  0
   28.3652  -11.9682   22.9813 H   0  0  0  0  0  0
   27.8127  -12.9779   21.6023 H   0  0  0  0  0  0
   33.5107  -14.4285   21.1195 H   0  0  0  0  0  0
   30.6207  -13.8353   17.7664 H   0  0  0  0  0  0
   32.7968  -10.4243   18.9653 H   0  0  0  0  0  0
   30.0619   -9.4034   21.1437 H   0  0  0  0  0  0
  1  2  1  0  0  0
  1  7  1  0  0  0
  1 11  1  0  0  0
  1 17  1  0  0  0
  2  3  1  0  0  0
  2  8  1  0  0  0
  2 18  1  0  0  0
  3  4  1  0  0  0
  3  9  1  0  0  0
  3 19  1  0  0  0
  4  5  1  0  0  0
  4 10  1  0  0  0
  4 20  1  0  0  0
  5  6  1  0  0  0
  5 11  1  0  0  0
  5 21  1  0  0  0
  6 12  1  0  0  0
  6 22  1  0  0  0
  6 23  1  0  0  0
  7 24  1  0  0  0
  8 25  1  0  0  0
  9 26  1  0  0  0
 10 27  1  0  0  0
 12 13  1  0  0  0
 13 14  1  0  0  0
 13 15  2  0  0  0
 13 16  1  0  0  0
M  CHG  2  14  -1  16  -1
M  END
> <s_m_source_file>
../1syo_ligand.sdf

> <i_m_source_file_index>
1

> <s_epik_input>
W09IXVtDQEBIXTFbQ0BASF0oW09IXSlbQ0BASF0oW09IXSlbQ0BIXShbT0hdKVtDQEhdKE8xKVtDSDJdT1AoPU8pKFtPSF0pW09IXQ==

> <s_epik_cmdline>
J2VwaWtfYXBwJywgJy1pbWFlJywgJ2xpZ2FuZF9wcm8ubWFlJywgJy1vbWFlJywgJ2xpZ2FuZF9wcmVwLm1hZScsICctbXMnLCAnMScsICctcGgnLCAnNycsICctcGh0JywgJzAuNScsICctbnQn

> <r_epik_Ionization_Penalty>
  0.1046

> <r_epik_Ionization_Penalty_Charging>
  0.1046

> <r_epik_Ionization_Penalty_Neutral>
  0.0000

> <r_epik_State_Penalty>
  0.0945

> <r_epik_Charging_Adjusted_Penalty>
0.19918344064553

> <i_epik_Tot_Q>
-2

> <i_epik_Tot_abs_Q>
2

> <s_epik_Chemistry_Notes>
This compound contains an acetal/aminal-like group ( X-CH(R)-Y where X, Y are N, S, or O) that may be acid/base labile, releasing an aldehyde.

$$$$
