1sz0_ligand
                    3D
 Schrodinger Suite 2020-3.
 27 27  0  0  1  0            999 V2000
   31.7030  -14.0640   19.9670 C   0  0  1  0  0  0
   31.9870  -12.8300   19.0580 C   0  0  2  0  0  0
   31.7570  -11.4800   19.8390 C   0  0  2  0  0  0
   30.2920  -11.4500   20.3370 C   0  0  1  0  0  0
   30.0740  -12.6690   21.2810 C   0  0  1  0  0  0
   28.6550  -12.7760   21.8050 C   0  0  0  0  0  0
   32.6570  -14.1280   21.0660 O   0  0  0  0  0  0
   31.0370  -12.8810   17.9900 O   0  0  0  0  0  0
   32.0160  -10.3720   18.9780 O   0  0  0  0  0  0
   30.0380  -10.2390   21.0600 O   0  0  0  0  0  0
   30.3520  -13.9310   20.5510 O   0  0  0  0  0  0
   28.5740  -13.9020   22.6660 O   0  0  0  0  0  0
   27.2110  -14.2900   23.3500 P   0  0  0  0  0  0
   27.4150  -15.5850   24.2920 O   0  5  0  0  0  0
   26.1980  -14.6920   22.1800 O   0  0  0  0  0  0
   26.6090  -13.0570   24.1760 O   0  5  0  0  0  0
   31.7848  -15.0071   19.4068 H   0  0  0  0  0  0
   32.9986  -12.8749   18.6282 H   0  0  0  0  0  0
   32.4639  -11.3264   20.6676 H   0  0  0  0  0  0
   29.5801  -11.4228   19.4989 H   0  0  0  0  0  0
   30.7590  -12.5577   22.1345 H   0  0  0  0  0  0
   28.3990  -11.8612   22.3596 H   0  0  0  0  0  0
   27.9607  -12.8993   20.9608 H   0  0  0  0  0  0
   33.7320  -14.2288   20.8559 H   0  0  0  0  0  0
   31.0191  -13.7459   17.3106 H   0  0  0  0  0  0
   33.0140  -10.2419   18.5342 H   0  0  0  0  0  0
   30.1410   -9.2662   20.5570 H   0  0  0  0  0  0
  1  2  1  0  0  0
  1  7  1  0  0  0
  1 11  1  0  0  0
  1 17  1  0  0  0
  2  3  1  0  0  0
  2  8  1  0  0  0
  2 18  1  0  0  0
  3  4  1  0  0  0
  3  9  1  0  0  0
  3 19  1  0  0  0
  4  5  1  0  0  0
  4 10  1  0  0  0
  4 20  1  0  0  0
  5  6  1  0  0  0
  5 11  1  0  0  0
  5 21  1  0  0  0
  6 12  1  0  0  0
  6 22  1  0  0  0
  6 23  1  0  0  0
  7 24  1  0  0  0
  8 25  1  0  0  0
  9 26  1  0  0  0
 10 27  1  0  0  0
 12 13  1  0  0  0
 13 14  1  0  0  0
 13 15  2  0  0  0
 13 16  1  0  0  0
M  CHG  2  14  -1  16  -1
M  END
> <s_m_source_file>
../1sz0_ligand.sdf

> <i_m_source_file_index>
1

> <s_epik_input>
W09IXVtDQEBIXTFbQ0BASF0oW09IXSlbQ0BASF0oW09IXSlbQ0BIXShbT0hdKVtDQEhdKE8xKVtDSDJdT1AoPU8pKFtPSF0pW09IXQ==

> <s_epik_cmdline>
J2VwaWtfYXBwJywgJy1pbWFlJywgJ2xpZ2FuZF9wcm8ubWFlJywgJy1vbWFlJywgJ2xpZ2FuZF9wcmVwLm1hZScsICctbXMnLCAnMScsICctcGgnLCAnNycsICctcGh0JywgJzAuNScsICctbnQn

> <r_epik_Ionization_Penalty>
  0.1046

> <r_epik_Ionization_Penalty_Charging>
  0.1046

> <r_epik_Ionization_Penalty_Neutral>
  0.0000

> <r_epik_State_Penalty>
  0.0945

> <r_epik_Charging_Adjusted_Penalty>
0.19918344064553

> <i_epik_Tot_Q>
-2

> <i_epik_Tot_abs_Q>
2

> <s_epik_Chemistry_Notes>
This compound contains an acetal/aminal-like group ( X-CH(R)-Y where X, Y are N, S, or O) that may be acid/base labile, releasing an aldehyde.

$$$$
