1szm_ligand
                    3D
 Schrodinger Suite 2020-3.
 58 63  0  0  1  0            999 V2000
   52.8760   35.7190   52.0040 C   0  0  0  0  0  0
   52.6130   34.5400   51.1430 N   0  3  1  0  0  0
   51.2060   34.0390   51.1440 C   0  0  0  0  0  0
   50.7120   34.1780   49.6960 C   0  0  0  0  0  0
   51.9680   34.2280   48.8180 C   0  0  0  0  0  0
   53.1370   34.6060   49.7490 C   0  0  1  0  0  0
   53.8400   35.9220   49.3600 C   0  0  0  0  0  0
   54.4350   35.9360   47.9350 C   0  0  0  0  0  0
   53.9720   37.1860   47.3260 N   0  0  0  0  0  0
   52.7580   37.3660   46.6510 C   0  0  0  0  0  0
   54.6140   38.4480   47.3360 C   0  0  0  0  0  0
   55.8480   38.7950   47.9020 C   0  0  0  0  0  0
   56.2760   40.1170   47.7660 C   0  0  0  0  0  0
   55.4680   41.0620   47.0890 C   0  0  0  0  0  0
   54.2580   40.6860   46.5490 C   0  0  0  0  0  0
   53.8150   39.3620   46.6630 C   0  0  0  0  0  0
   52.6340   38.6680   46.2220 C   0  0  0  0  0  0
   51.5480   39.0500   45.3150 C   0  0  0  0  0  0
   51.7510   39.7230   44.0330 C   0  0  0  0  0  0
   52.8100   40.1270   43.5370 O   0  5  0  0  0  0
   50.4970   39.8680   43.3690 N   0  0  0  0  0  0
   49.5440   39.2690   44.2510 C   0  0  0  0  0  0
   48.3440   39.2310   43.9710 O   0  0  0  0  0  0
   50.2000   38.7710   45.4560 C   0  0  0  0  0  0
   49.4490   38.0950   46.5400 C   0  0  0  0  0  0
   49.6990   38.0210   47.9770 C   0  0  0  0  0  0
   50.7370   38.4940   48.8320 C   0  0  0  0  0  0
   50.6920   38.2160   50.2020 C   0  0  0  0  0  0
   49.6250   37.4770   50.7580 C   0  0  0  0  0  0
   48.5850   37.0110   49.9470 C   0  0  0  0  0  0
   48.6540   37.2980   48.5730 C   0  0  0  0  0  0
   47.7350   36.9300   47.5740 N   0  0  0  0  0  0
   48.2550   37.4190   46.3450 C   0  0  0  0  0  0
   52.4424   35.5492   53.0006 H   0  0  0  0  0  0
   52.4190   36.6119   51.5525 H   0  0  0  0  0  0
   53.9616   35.8700   52.0973 H   0  0  0  0  0  0
   53.2302   33.7993   51.6726 H   0  0  0  0  0  0
   51.1909   32.9892   51.4720 H   0  0  0  0  0  0
   50.6008   34.6470   51.8325 H   0  0  0  0  0  0
   50.0835   33.3128   49.4384 H   0  0  0  0  0  0
   50.1229   35.1016   49.5966 H   0  0  0  0  0  0
   52.1338   33.2423   48.3587 H   0  0  0  0  0  0
   51.8339   34.9824   48.0287 H   0  0  0  0  0  0
   53.9612   33.8801   49.6874 H   0  0  0  0  0  0
   53.1200   36.7519   49.4131 H   0  0  0  0  0  0
   54.6713   36.1128   50.0546 H   0  0  0  0  0  0
   55.5328   35.9026   47.9957 H   0  0  0  0  0  0
   54.0718   35.0601   47.3774 H   0  0  0  0  0  0
   52.0156   36.5847   46.4883 H   0  0  0  0  0  0
   56.4530   38.0581   48.4303 H   0  0  0  0  0  0
   57.2358   40.4226   48.1826 H   0  0  0  0  0  0
   55.8057   42.0940   46.9945 H   0  0  0  0  0  0
   53.6427   41.4216   46.0309 H   0  0  0  0  0  0
   51.5722   39.0766   48.4162 H   0  0  0  0  0  0
   51.4952   38.5745   50.8626 H   0  0  0  0  0  0
   49.6117   37.2680   51.8277 H   0  0  0  0  0  0
   47.7348   36.4393   50.3474 H   0  0  0  0  0  0
   47.7111   37.2369   45.4064 H   0  0  0  0  0  0
  1  2  1  0  0  0
  1 34  1  0  0  0
  1 35  1  0  0  0
  1 36  1  0  0  0
  2  3  1  0  0  0
  2  6  1  0  0  0
  2 37  1  0  0  0
  3  4  1  0  0  0
  3 38  1  0  0  0
  3 39  1  0  0  0
  4  5  1  0  0  0
  4 40  1  0  0  0
  4 41  1  0  0  0
  5  6  1  0  0  0
  5 42  1  0  0  0
  5 43  1  0  0  0
  6  7  1  0  0  0
  6 44  1  0  0  0
  7  8  1  0  0  0
  7 45  1  0  0  0
  7 46  1  0  0  0
  8  9  1  0  0  0
  8 47  1  0  0  0
  8 48  1  0  0  0
  9 10  1  0  0  0
  9 11  1  0  0  0
 10 17  2  0  0  0
 10 49  1  0  0  0
 11 12  2  0  0  0
 11 16  1  0  0  0
 12 13  1  0  0  0
 12 50  1  0  0  0
 13 14  2  0  0  0
 13 51  1  0  0  0
 14 15  1  0  0  0
 14 52  1  0  0  0
 15 16  2  0  0  0
 15 53  1  0  0  0
 16 17  1  0  0  0
 17 18  1  0  0  0
 18 19  1  0  0  0
 18 24  2  0  0  0
 19 20  1  0  0  0
 19 21  2  0  0  0
 21 22  1  0  0  0
 22 23  2  0  0  0
 22 24  1  0  0  0
 24 25  1  0  0  0
 25 26  2  0  0  0
 25 33  1  0  0  0
 26 27  1  0  0  0
 26 31  1  0  0  0
 27 28  2  0  0  0
 27 54  1  0  0  0
 28 29  1  0  0  0
 28 55  1  0  0  0
 29 30  1  0  0  0
 29 56  1  0  0  0
 30 31  2  0  0  0
 30 57  1  0  0  0
 31 32  1  0  0  0
 32 33  2  0  0  0
 33 58  1  0  0  0
M  CHG  2   2   1  20  -1
M  END
> <s_m_source_file>
../1szm_ligand.sdf

> <i_m_source_file_index>
1

> <s_epik_input>
W0NIM11bTkBIK10xW0NIMl1bQ0gyXVtDSDJdW0NASF0xW0NIMl1bQ0gyXW4yW2NIXWMoYyhjMjMpW2NIXVtjSF1bY0hdW2NIXTMpQzQ9QyhDKD1PKVtOSF1DND1PKUM9NVtDSF09TkMoQzU2KT1bQ0hdW0NIMl1bQ0hdPVtDSF02

> <s_epik_cmdline>
J2VwaWtfYXBwJywgJy1pbWFlJywgJ2xpZ2FuZF9wcm8ubWFlJywgJy1vbWFlJywgJ2xpZ2FuZF9wcmVwLm1hZScsICctbXMnLCAnMScsICctcGgnLCAnNycsICctcGh0JywgJzAuNScsICctbnQn

> <r_lp_tautomer_probability>
1

> <r_epik_Ionization_Penalty>
  0.0079

> <r_epik_Ionization_Penalty_Charging>
  0.0079

> <r_epik_Ionization_Penalty_Neutral>
  0.0000

> <r_epik_State_Penalty>
 -0.0000

> <r_epik_Charging_Adjusted_Penalty>
0.00788504104775028

> <i_epik_Tot_Q>
0

> <i_epik_Tot_abs_Q>
2

> <s_epik_Chemistry_Notes>
This compound has an imine and may undergo hydrolysis.

$$$$
