1t08_ligand
                    3D
 Schrodinger Suite 2020-3.
220222  0  0  1  0            999 V2000
   40.5030   21.4910   54.2940 N   0  3  0  0  0  0
   39.2300   21.5250   53.5170 C   0  0  2  0  0  0
   38.9850   22.9260   52.9520 C   0  0  0  0  0  0
   38.1470   23.6750   53.4570 O   0  0  0  0  0  0
   38.0540   21.1160   54.4180 C   0  0  0  0  0  0
   36.7490   20.9270   53.6420 C   0  0  0  0  0  0
   36.3530   21.8350   52.8750 O   0  0  0  0  0  0
   36.1100   19.8670   53.8070 O   0  0  0  0  0  0
   39.7230   23.2820   51.9060 N   0  0  0  0  0  0
   39.5610   24.5920   51.2830 C   0  0  2  0  0  0
   38.3490   24.5570   50.3590 C   0  0  0  0  0  0
   37.8210   23.4830   50.0640 O   0  0  0  0  0  0
   40.8120   24.9560   50.4940 C   0  0  0  0  0  0
   37.9060   25.7260   49.9070 N   0  0  0  0  0  0
   36.7590   25.8000   49.0080 C   0  0  2  0  0  0
   37.1600   25.2760   47.6310 C   0  0  0  0  0  0
   38.2780   25.5140   47.1720 O   0  0  0  0  0  0
   36.2610   27.2410   48.8930 C   0  0  0  0  0  0
   35.9070   27.8480   50.2420 C   0  0  0  0  0  0
   35.6110   27.0910   51.1940 O   0  0  0  0  0  0
   35.9090   29.0910   50.3420 O   0  0  0  0  0  0
   36.2460   24.5710   46.9720 N   0  0  0  0  0  0
   36.5290   23.9950   45.6610 C   0  0  2  0  0  0
   35.7180   24.5790   44.4990 C   0  0  0  0  0  0
   34.6200   25.1090   44.6830 O   0  0  0  0  0  0
   36.3160   22.4640   45.6820 C   0  0  2  0  0  0
   34.9630   22.1710   46.0560 O   0  0  0  0  0  0
   37.2600   21.8120   46.6780 C   0  0  0  0  0  0
   36.2800   24.4590   43.2990 N   0  0  0  0  0  0
   35.6590   24.9550   42.0730 C   0  0  2  0  0  0
   35.0140   23.8460   41.2480 C   0  0  0  0  0  0
   35.4810   22.7050   41.2440 O   0  0  0  0  0  0
   36.7050   25.6490   41.1930 C   0  0  0  0  0  0
   37.2250   27.0280   41.5870 C   0  0  0  0  0  0
   38.3710   27.4300   40.6640 C   0  0  0  0  0  0
   36.0860   28.0340   41.5030 C   0  0  0  0  0  0
   33.9350   24.1940   40.5520 N   0  0  0  0  0  0
   33.2410   23.2620   39.6740 C   0  0  2  0  0  0
   33.4980   23.8020   38.2700 C   0  0  0  0  0  0
   33.2340   24.9720   37.9870 O   0  0  0  0  0  0
   31.7370   23.2350   39.9760 C   0  0  0  0  0  0
   31.3180   22.6360   41.3240 C   0  0  0  0  0  0
   29.8380   22.8940   41.5690 C   0  0  0  0  0  0
   31.6260   21.1370   41.3400 C   0  0  0  0  0  0
   34.0270   22.9520   37.3980 N   0  0  0  0  0  0
   34.3530   23.3550   36.0350 C   0  0  2  0  0  0
   33.2730   22.9840   35.0340 C   0  0  0  0  0  0
   32.9790   21.8080   34.8150 O   0  0  0  0  0  0
   35.6910   22.7350   35.6380 C   0  0  0  0  0  0
   36.7770   23.0010   36.6310 C   0  0  0  0  0  0
   37.2610   24.2680   36.8780 N   0  0  0  0  0  0
   37.4250   22.1760   37.4870 C   0  0  0  0  0  0
   38.1600   24.2130   37.8450 C   0  0  0  0  0  0
   38.2780   22.9550   38.2320 N   0  0  0  0  0  0
   32.6810   24.0080   34.4310 N   0  0  0  0  0  0
   31.6230   23.8180   33.4530 C   0  0  2  0  0  0
   32.0620   24.3370   32.0940 C   0  0  0  0  0  0
   32.8520   25.2770   31.9990 O   0  0  0  0  0  0
   30.3650   24.5540   33.9090 C   0  0  0  0  0  0
   29.8140   24.0550   35.2140 C   0  0  0  0  0  0
   29.0120   22.9170   35.2570 C   0  0  0  0  0  0
   30.1100   24.7120   36.4050 C   0  0  0  0  0  0
   28.5100   22.4410   36.4690 C   0  0  0  0  0  0
   29.6150   24.2460   37.6200 C   0  0  0  0  0  0
   28.8130   23.1060   37.6520 C   0  0  0  0  0  0
   31.5510   23.7080   31.0430 N   0  0  0  0  0  0
   31.8770   24.1060   29.6820 C   0  0  2  0  0  0
   30.7170   23.7670   28.7600 C   0  0  0  0  0  0
   30.7670   22.7930   28.0100 O   0  0  0  0  0  0
   33.1510   23.4040   29.2140 C   0  0  0  0  0  0
   29.6640   24.5730   28.8350 N   0  0  0  0  0  0
   28.4810   24.3890   28.0000 C   0  0  2  0  0  0
   28.6060   25.3390   26.8040 C   0  0  0  0  0  0
   28.3500   26.5360   26.9340 O   0  0  0  0  0  0
   27.1950   24.7280   28.7940 C   0  0  2  0  0  0
   27.1970   24.0130   30.0370 O   0  0  0  0  0  0
   25.9540   24.3490   27.9990 C   0  0  0  0  0  0
   29.0170   24.8100   25.6500 N   0  0  0  0  0  0
   29.1810   25.6260   24.4430 C   0  0  2  0  0  0
   27.8920   25.7160   23.6300 C   0  0  0  0  0  0
   27.7060   26.6410   22.8330 O   0  0  0  0  0  0
   30.3070   25.0720   23.5600 C   0  0  0  0  0  0
   30.4860   25.8320   22.2450 C   0  0  0  0  0  0
   31.6700   25.3440   21.4210 C   0  0  0  0  0  0
   31.8640   24.1130   21.3100 O   0  0  0  0  0  0
   32.4000   26.1940   20.8690 O   0  0  0  0  0  0
   27.0060   24.7470   23.8280 N   0  0  0  0  0  0
   25.7330   24.7380   23.1260 C   0  0  2  0  0  0
   24.6160   24.5350   24.1390 C   0  0  0  0  0  0
   24.1300   25.4940   24.7420 O   0  0  0  0  0  0
   25.7050   23.6210   22.0820 C   0  0  0  0  0  0
   25.9570   22.3630   22.6770 O   0  0  0  0  0  0
   24.2230   23.2800   24.3300 N   0  0  0  0  0  0
   23.1660   22.9380   25.2700 C   0  0  2  0  0  0
   23.5400   21.6710   26.0300 C   0  0  0  0  0  0
   23.7420   20.6140   25.4290 O   0  0  0  0  0  0
   21.8300   22.6980   24.5410 C   0  0  2  0  0  0
   21.4710   23.8730   23.8020 O   0  0  0  0  0  0
   20.7270   22.3750   25.5410 C   0  0  0  0  0  0
   23.6300   21.7590   27.3680 N   0  0  0  0  0  0
   23.9870   20.5850   28.1690 C   0  0  2  0  0  0
   23.0050   19.4420   27.9340 C   0  0  0  0  0  0
   21.7930   19.6570   27.8450 O   0  0  0  0  0  0
   23.9450   21.1170   29.6010 C   0  0  0  0  0  0
   22.8700   22.1560   29.5340 C   0  0  0  0  0  0
   23.1840   22.8670   28.2330 C   0  0  0  0  0  0
   23.5340   18.2290   27.8240 N   0  0  0  0  0  0
   22.6940   17.0650   27.5890 C   0  0  2  0  0  0
   23.5350   15.7970   27.7130 C   0  0  0  0  0  0
   24.7730   15.9260   27.8370 O   0  0  0  0  0  0
   22.0740   17.1610   26.1900 C   0  0  0  0  0  0
   20.9010   16.2220   26.0040 C   0  0  0  0  0  0
   19.9280   16.3260   26.7820 O   0  0  0  0  0  0
   20.9470   15.3850   25.0770 O   0  0  0  0  0  0
   22.9520   14.6910   27.6860 O   0  0  0  0  0  0
   41.3386   21.7849   53.6418 H   0  0  0  0  0  0
   40.6742   20.4726   54.6729 H   0  0  0  0  0  0
   40.4348   22.1904   55.1402 H   0  0  0  0  0  0
   39.3403   20.8110   52.6875 H   0  0  0  0  0  0
   38.2884   20.1643   54.9173 H   0  0  0  0  0  0
   37.8841   21.8953   55.1755 H   0  0  0  0  0  0
   35.4162   21.7099   52.3122 H   0  0  0  0  0  0
   40.4647   22.5727   51.5102 H   0  0  0  0  0  0
   39.4116   25.3210   52.0930 H   0  0  0  0  0  0
   41.6789   24.9780   51.1708 H   0  0  0  0  0  0
   40.6803   25.9467   50.0344 H   0  0  0  0  0  0
   40.9802   24.2061   49.7070 H   0  0  0  0  0  0
   38.4188   26.6470   50.2213 H   0  0  0  0  0  0
   35.9740   25.1698   49.4513 H   0  0  0  0  0  0
   37.0446   27.8645   48.4378 H   0  0  0  0  0  0
   35.3591   27.2682   48.2638 H   0  0  0  0  0  0
   35.3529   27.5163   52.1751 H   0  0  0  0  0  0
   35.2589   24.4256   47.4352 H   0  0  0  0  0  0
   37.5790   24.2931   45.5244 H   0  0  0  0  0  0
   36.4613   22.0296   44.6819 H   0  0  0  0  0  0
   34.1292   22.5588   45.4523 H   0  0  0  0  0  0
   38.3001   22.0332   46.3964 H   0  0  0  0  0  0
   37.1026   20.7233   46.6738 H   0  0  0  0  0  0
   37.0608   22.2074   47.6850 H   0  0  0  0  0  0
   37.2586   23.9586   43.2563 H   0  0  0  0  0  0
   34.8839   25.6459   42.4363 H   0  0  0  0  0  0
   37.6093   25.0252   41.1372 H   0  0  0  0  0  0
   36.2962   25.7933   40.1820 H   0  0  0  0  0  0
   37.6032   27.0066   42.6197 H   0  0  0  0  0  0
   39.1810   26.6898   40.7414 H   0  0  0  0  0  0
   38.7494   28.4198   40.9590 H   0  0  0  0  0  0
   38.0090   27.4702   39.6261 H   0  0  0  0  0  0
   35.2727   27.7240   42.1756 H   0  0  0  0  0  0
   35.7109   28.0777   40.4699 H   0  0  0  0  0  0
   36.4513   29.0273   41.8028 H   0  0  0  0  0  0
   33.5700   25.2263   40.6571 H   0  0  0  0  0  0
   33.6301   22.2453   39.8316 H   0  0  0  0  0  0
   31.3432   24.2621   39.9693 H   0  0  0  0  0  0
   31.2198   22.6390   39.2097 H   0  0  0  0  0  0
   31.8815   23.1164   42.1374 H   0  0  0  0  0  0
   29.6469   23.9771   41.5520 H   0  0  0  0  0  0
   29.5523   22.4866   42.5500 H   0  0  0  0  0  0
   29.2453   22.4047   40.7820 H   0  0  0  0  0  0
   32.7001   20.9815   41.1607 H   0  0  0  0  0  0
   31.0462   20.6351   40.5514 H   0  0  0  0  0  0
   31.3531   20.7171   42.3194 H   0  0  0  0  0  0
   34.2186   21.9200   37.7271 H   0  0  0  0  0  0
   34.4066   24.4533   36.0626 H   0  0  0  0  0  0
   35.5782   21.6443   35.5510 H   0  0  0  0  0  0
   36.0143   23.1484   34.6713 H   0  0  0  0  0  0
   37.3787   21.0907   37.6601 H   0  0  0  0  0  0
   38.7102   25.0606   38.2536 H   0  0  0  0  0  0
   33.0135   25.0237   34.6912 H   0  0  0  0  0  0
   31.4437   22.7342   33.3967 H   0  0  0  0  0  0
   30.5914   25.6229   34.0362 H   0  0  0  0  0  0
   29.5754   24.4339   33.1526 H   0  0  0  0  0  0
   28.7735   22.3916   34.3323 H   0  0  0  0  0  0
   30.7376   25.6030   36.3861 H   0  0  0  0  0  0
   27.8820   21.5503   36.4883 H   0  0  0  0  0  0
   29.8540   24.7715   38.5446 H   0  0  0  0  0  0
   28.4247   22.7372   38.6014 H   0  0  0  0  0  0
   30.8652   22.8665   31.2206 H   0  0  0  0  0  0
   32.0373   25.1940   29.7039 H   0  0  0  0  0  0
   33.9799   23.6591   29.8906 H   0  0  0  0  0  0
   33.3966   23.7322   28.1932 H   0  0  0  0  0  0
   32.9936   22.3153   29.2213 H   0  0  0  0  0  0
   29.7040   25.4017   29.5572 H   0  0  0  0  0  0
   28.4652   23.3338   27.6898 H   0  0  0  0  0  0
   27.1599   25.7967   29.0520 H   0  0  0  0  0  0
   28.0202   24.1560   30.7524 H   0  0  0  0  0  0
   25.9489   24.8957   27.0445 H   0  0  0  0  0  0
   25.0548   24.6105   28.5761 H   0  0  0  0  0  0
   25.9612   23.2669   27.8018 H   0  0  0  0  0  0
   29.2346   23.7322   25.6190 H   0  0  0  0  0  0
   29.4363   26.6255   24.8248 H   0  0  0  0  0  0
   31.2613   25.1289   24.1041 H   0  0  0  0  0  0
   30.0917   24.0236   23.3060 H   0  0  0  0  0  0
   29.5831   25.7145   21.6278 H   0  0  0  0  0  0
   30.6487   26.8990   22.4573 H   0  0  0  0  0  0
   32.7140   23.7413   20.7189 H   0  0  0  0  0  0
   27.2487   23.9419   24.5372 H   0  0  0  0  0  0
   25.6378   25.7135   22.6267 H   0  0  0  0  0  0
   24.7154   23.5920   21.6026 H   0  0  0  0  0  0
   26.4758   23.8113   21.3207 H   0  0  0  0  0  0
   25.9710   21.4543   22.0572 H   0  0  0  0  0  0
   24.7223   22.4884   23.7520 H   0  0  0  0  0  0
   23.0954   23.8035   25.9453 H   0  0  0  0  0  0
   21.9237   21.8860   23.8049 H   0  0  0  0  0  0
   22.1478   24.2641   23.0280 H   0  0  0  0  0  0
   20.9999   21.4737   26.1095 H   0  0  0  0  0  0
   19.7844   22.1975   25.0025 H   0  0  0  0  0  0
   20.6003   23.2206   26.2330 H   0  0  0  0  0  0
   24.9715   20.1836   27.8867 H   0  0  0  0  0  0
   23.7003   20.2954   30.2903 H   0  0  0  0  0  0
   24.9268   21.5370   29.8651 H   0  0  0  0  0  0
   21.8856   21.6651   29.5261 H   0  0  0  0  0  0
   22.9433   22.8165   30.4106 H   0  0  0  0  0  0
   23.9948   23.6037   28.3325 H   0  0  0  0  0  0
   22.3028   23.3498   27.7854 H   0  0  0  0  0  0
   24.6241   18.1116   27.9131 H   0  0  0  0  0  0
   21.9085   17.0709   28.3590 H   0  0  0  0  0  0
   25.4123   15.0356   27.9291 H   0  0  0  0  0  0
   21.7149   18.1863   26.0177 H   0  0  0  0  0  0
   22.8320   16.9062   25.4347 H   0  0  0  0  0  0
   19.0614   15.6576   26.6713 H   0  0  0  0  0  0
  1  2  1  0  0  0
  1116  1  0  0  0
  1117  1  0  0  0
  1118  1  0  0  0
  2  3  1  0  0  0
  2  5  1  0  0  0
  2119  1  0  0  0
  3  4  2  0  0  0
  3  9  1  0  0  0
  5  6  1  0  0  0
  5120  1  0  0  0
  5121  1  0  0  0
  6  7  1  0  0  0
  6  8  2  0  0  0
  7122  1  0  0  0
  9 10  1  0  0  0
  9123  1  0  0  0
 10 11  1  0  0  0
 10 13  1  0  0  0
 10124  1  0  0  0
 11 12  2  0  0  0
 11 14  1  0  0  0
 13125  1  0  0  0
 13126  1  0  0  0
 13127  1  0  0  0
 14 15  1  0  0  0
 14128  1  0  0  0
 15 16  1  0  0  0
 15 18  1  0  0  0
 15129  1  0  0  0
 16 17  2  0  0  0
 16 22  1  0  0  0
 18 19  1  0  0  0
 18130  1  0  0  0
 18131  1  0  0  0
 19 20  1  0  0  0
 19 21  2  0  0  0
 20132  1  0  0  0
 22 23  1  0  0  0
 22133  1  0  0  0
 23 24  1  0  0  0
 23 26  1  0  0  0
 23134  1  0  0  0
 24 25  2  0  0  0
 24 29  1  0  0  0
 26 27  1  0  0  0
 26 28  1  0  0  0
 26135  1  0  0  0
 27136  1  0  0  0
 28137  1  0  0  0
 28138  1  0  0  0
 28139  1  0  0  0
 29 30  1  0  0  0
 29140  1  0  0  0
 30 31  1  0  0  0
 30 33  1  0  0  0
 30141  1  0  0  0
 31 32  2  0  0  0
 31 37  1  0  0  0
 33 34  1  0  0  0
 33142  1  0  0  0
 33143  1  0  0  0
 34 35  1  0  0  0
 34 36  1  0  0  0
 34144  1  0  0  0
 35145  1  0  0  0
 35146  1  0  0  0
 35147  1  0  0  0
 36148  1  0  0  0
 36149  1  0  0  0
 36150  1  0  0  0
 37 38  1  0  0  0
 37151  1  0  0  0
 38 39  1  0  0  0
 38 41  1  0  0  0
 38152  1  0  0  0
 39 40  2  0  0  0
 39 45  1  0  0  0
 41 42  1  0  0  0
 41153  1  0  0  0
 41154  1  0  0  0
 42 43  1  0  0  0
 42 44  1  0  0  0
 42155  1  0  0  0
 43156  1  0  0  0
 43157  1  0  0  0
 43158  1  0  0  0
 44159  1  0  0  0
 44160  1  0  0  0
 44161  1  0  0  0
 45 46  1  0  0  0
 45162  1  0  0  0
 46 47  1  0  0  0
 46 49  1  0  0  0
 46163  1  0  0  0
 47 48  2  0  0  0
 47 55  1  0  0  0
 49 50  1  0  0  0
 49164  1  0  0  0
 49165  1  0  0  0
 50 51  2  0  0  0
 50 52  1  0  0  0
 51 53  1  0  0  0
 52 54  2  0  0  0
 52166  1  0  0  0
 53 54  1  0  0  0
 53167  1  0  0  0
 55 56  1  0  0  0
 55168  1  0  0  0
 56 57  1  0  0  0
 56 59  1  0  0  0
 56169  1  0  0  0
 57 58  2  0  0  0
 57 66  1  0  0  0
 59 60  1  0  0  0
 59170  1  0  0  0
 59171  1  0  0  0
 60 61  2  0  0  0
 60 62  1  0  0  0
 61 63  1  0  0  0
 61172  1  0  0  0
 62 64  2  0  0  0
 62173  1  0  0  0
 63 65  2  0  0  0
 63174  1  0  0  0
 64 65  1  0  0  0
 64175  1  0  0  0
 65176  1  0  0  0
 66 67  1  0  0  0
 66177  1  0  0  0
 67 68  1  0  0  0
 67 70  1  0  0  0
 67178  1  0  0  0
 68 69  2  0  0  0
 68 71  1  0  0  0
 70179  1  0  0  0
 70180  1  0  0  0
 70181  1  0  0  0
 71 72  1  0  0  0
 71182  1  0  0  0
 72 73  1  0  0  0
 72 75  1  0  0  0
 72183  1  0  0  0
 73 74  2  0  0  0
 73 78  1  0  0  0
 75 76  1  0  0  0
 75 77  1  0  0  0
 75184  1  0  0  0
 76185  1  0  0  0
 77186  1  0  0  0
 77187  1  0  0  0
 77188  1  0  0  0
 78 79  1  0  0  0
 78189  1  0  0  0
 79 80  1  0  0  0
 79 82  1  0  0  0
 79190  1  0  0  0
 80 81  2  0  0  0
 80 87  1  0  0  0
 82 83  1  0  0  0
 82191  1  0  0  0
 82192  1  0  0  0
 83 84  1  0  0  0
 83193  1  0  0  0
 83194  1  0  0  0
 84 85  1  0  0  0
 84 86  2  0  0  0
 85195  1  0  0  0
 87 88  1  0  0  0
 87196  1  0  0  0
 88 89  1  0  0  0
 88 91  1  0  0  0
 88197  1  0  0  0
 89 90  2  0  0  0
 89 93  1  0  0  0
 91 92  1  0  0  0
 91198  1  0  0  0
 91199  1  0  0  0
 92200  1  0  0  0
 93 94  1  0  0  0
 93201  1  0  0  0
 94 95  1  0  0  0
 94 97  1  0  0  0
 94202  1  0  0  0
 95 96  2  0  0  0
 95100  1  0  0  0
 97 98  1  0  0  0
 97 99  1  0  0  0
 97203  1  0  0  0
 98204  1  0  0  0
 99205  1  0  0  0
 99206  1  0  0  0
 99207  1  0  0  0
100101  1  0  0  0
100106  1  0  0  0
101102  1  0  0  0
101104  1  0  0  0
101208  1  0  0  0
102103  2  0  0  0
102107  1  0  0  0
104105  1  0  0  0
104209  1  0  0  0
104210  1  0  0  0
105106  1  0  0  0
105211  1  0  0  0
105212  1  0  0  0
106213  1  0  0  0
106214  1  0  0  0
107108  1  0  0  0
107215  1  0  0  0
108109  1  0  0  0
108111  1  0  0  0
108216  1  0  0  0
109110  1  0  0  0
109115  2  0  0  0
110217  1  0  0  0
111112  1  0  0  0
111218  1  0  0  0
111219  1  0  0  0
112113  1  0  0  0
112114  2  0  0  0
113220  1  0  0  0
M  CHG  1   1   1
M  END
> <s_m_source_file>
../1t08_ligand.sdf

> <i_m_source_file_index>
1

> <s_epik_input>
W09IXUMoPU8pW0NIMl1bQ0BIXShbTkgzK10pQyg9TylbTkhdW0NAQEhdKFtDSDNdKUMoPU8pW05IXVtDQEBIXShbQ0gyXUMoPU8pW09IXSlDKD1PKVtOSF1bQ0BASF0oW0NASF0oW09IXSlbQ0gzXSlDKD1PKVtOSF1bQ0BASF0oW0NIMl1bQ0hdKFtDSDNdKVtDSDNdKUMoPU8pW05IXVtDQEBIXShbQ0gyXVtDSF0oW0NIM10pW0NIM10pQyg9TylbTkhdW0NAQEhdKFtDSDJdQzE9TltDSDJdTj1bQ0hdMSlDKD1PKVtOSF1bQ0BASF0oW0NIMl1jMltjSF1bY0hdW2NIXVtjSF1bY0hdMilDKD1PKVtOSF1bQ0BASF0oW0NIM10pQyg9TylbTkhdW0NAQEhdKFtDQEhdKFtPSF0pW0NIM10pQyg9TylbTkhdW0NAQEhdKFtDSDJdW0NIMl1DKD1PKVtPSF0pQyg9TylbTkhdW0NAQEhdKFtDSDJdW09IXSlDKD1PKVtOSF1bQ0BASF0oW0NASF0oW09IXSlbQ0gzXSlDKD1PKU4zW0NAQEhdKFtDSDJdW0NIMl1bQ0gyXTMpQyg9TylbTkhdW0NASF0oQyg9TylbT0hdKVtDSDJdQyg9TylbT0hd

> <s_epik_cmdline>
J2VwaWtfYXBwJywgJy1pbWFlJywgJ2xpZ2FuZF9wcm8ubWFlJywgJy1vbWFlJywgJ2xpZ2FuZF9wcmVwLm1hZScsICctbXMnLCAnMScsICctcGgnLCAnNycsICctcGh0JywgJzAuNScsICctbnQn

> <s_epik_pKa_notes>
Molecule size exceeds maximum supported for generating protonation states

> <s_epik_Chemistry_Notes>
This compound has an imine and may undergo hydrolysis.

$$$$
