1t13_ligand
                    3D
 Schrodinger Suite 2020-3.
 34 34  0  0  1  0            999 V2000
   80.7780   56.2860    6.5360 N   0  0  0  0  0  0
   81.6870   55.3100    6.9100 C   0  0  0  0  0  0
   81.4210   54.1770    6.5390 O   0  5  0  0  0  0
   82.7780   55.7090    7.6420 N   0  0  0  0  0  0
   83.0390   57.0190    8.0430 C   0  0  0  0  0  0
   84.1070   57.1540    8.7100 O   0  0  0  0  0  0
   81.9940   58.1150    7.6180 C   0  0  0  0  0  0
   82.2370   59.4850    8.0290 N   0  3  0  0  0  0
   83.1930   59.7750    8.6720 O   0  0  0  0  0  0
   81.4400   60.3440    7.7090 O   0  5  0  0  0  0
   80.8410   57.6550    6.8270 C   0  0  0  0  0  0
   79.7740   58.4300    6.3100 N   0  0  0  0  0  0
   78.5210   58.3550    7.1060 C   0  0  0  0  0  0
   77.3870   57.4540    6.4890 C   0  0  2  0  0  0
   77.9770   56.1810    6.4580 O   0  0  0  0  0  0
   76.8640   57.6850    4.9830 C   0  0  2  0  0  0
   77.9240   57.6180    4.0890 O   0  0  0  0  0  0
   76.0550   59.1140    4.5900 C   0  0  2  0  0  0
   76.0540   59.7730    5.8930 O   0  0  0  0  0  0
   74.5130   59.2770    4.2540 C   0  0  0  0  0  0
   73.8530   58.3760    5.0860 O   0  0  0  0  0  0
   83.5290   54.9697    7.9573 H   0  0  0  0  0  0
   79.8132   59.0515    5.4032 H   0  0  0  0  0  0
   78.7428   57.9412    8.1008 H   0  0  0  0  0  0
   78.0949   59.3632    7.2150 H   0  0  0  0  0  0
   76.5175   57.5561    7.1550 H   0  0  0  0  0  0
   78.4257   55.7604    7.3700 H   0  0  0  0  0  0
   76.2505   56.7886    4.8094 H   0  0  0  0  0  0
   78.6230   56.7695    4.1272 H   0  0  0  0  0  0
   76.5413   59.5161    3.6890 H   0  0  0  0  0  0
   76.9891   59.8607    6.4657 H   0  0  0  0  0  0
   74.2012   60.3124    4.4558 H   0  0  0  0  0  0
   74.3422   59.0429    3.1929 H   0  0  0  0  0  0
   72.7568   58.2929    5.0471 H   0  0  0  0  0  0
  1  2  2  0  0  0
  1 11  1  0  0  0
  2  3  1  0  0  0
  2  4  1  0  0  0
  4  5  1  0  0  0
  4 22  1  0  0  0
  5  6  2  0  0  0
  5  7  1  0  0  0
  7  8  1  0  0  0
  7 11  2  0  0  0
  8  9  2  0  0  0
  8 10  1  0  0  0
 11 12  1  0  0  0
 12 13  1  0  0  0
 12 23  1  0  0  0
 13 14  1  0  0  0
 13 24  1  0  0  0
 13 25  1  0  0  0
 14 15  1  0  0  0
 14 16  1  0  0  0
 14 26  1  0  0  0
 15 27  1  0  0  0
 16 17  1  0  0  0
 16 18  1  0  0  0
 16 28  1  0  0  0
 17 29  1  0  0  0
 18 19  1  0  0  0
 18 20  1  0  0  0
 18 30  1  0  0  0
 19 31  1  0  0  0
 20 21  1  0  0  0
 20 32  1  0  0  0
 20 33  1  0  0  0
 21 34  1  0  0  0
M  CHG  3   3  -1   8   1  10  -1
M  END
> <s_m_source_file>
../1t13_ligand.sdf

> <i_m_source_file_index>
1

> <s_epik_input>
Tz1jMVtuSF1jKGMoW04rXSg9TylbTy1dKWMoPU8pW25IXTEpW05IXVtDSDJdW0NASF0oW09IXSlbQ0BIXShbT0hdKVtDQEhdKFtPSF0pW0NIMl1bT0hd

> <s_epik_cmdline>
J2VwaWtfYXBwJywgJy1pbWFlJywgJ2xpZ2FuZF9wcm8ubWFlJywgJy1vbWFlJywgJ2xpZ2FuZF9wcmVwLm1hZScsICctbXMnLCAnMScsICctcGgnLCAnNycsICctcGh0JywgJzAuNScsICctbnQn

> <r_epik_Ionization_Penalty>
  0.2092

> <r_epik_Ionization_Penalty_Charging>
  0.0000

> <r_epik_Ionization_Penalty_Neutral>
  0.2092

> <r_epik_State_Penalty>
  0.1991

> <r_epik_Charging_Adjusted_Penalty>
0.199090762392686

> <i_epik_Tot_Q>
-1

> <i_epik_Tot_abs_Q>
3

$$$$
