1t1r_ligand
                    3D
 Schrodinger Suite 2020-3.
 30 31  0  0  1  0            999 V2000
   21.1250   18.9600   28.8630 N   0  3  0  0  0  0
   21.4060   19.0740   27.4890 C   0  0  0  0  0  0
   22.1520   20.2440   27.0570 C   0  0  0  0  0  0
   22.5520   21.1990   28.0340 C   0  0  0  0  0  0
   22.2490   21.0360   29.3830 C   0  0  0  0  0  0
   21.5360   19.9190   29.7980 C   0  0  0  0  0  0
   22.4720   20.4930   25.6770 C   0  0  0  0  0  0
   23.1720   21.6750   25.3050 C   0  0  0  0  0  0
   23.5640   22.6180   26.2960 C   0  0  0  0  0  0
   23.2560   22.3830   27.6630 C   0  0  0  0  0  0
   20.9270   18.0180   26.6970 N   0  0  0  0  0  0
   21.0790   17.8270   25.2590 C   0  0  2  0  0  0
   19.4650   17.6200   24.4510 P   0  0  0  0  0  0
   22.1200   16.3900   24.9500 P   0  0  0  0  0  0
   22.2950   16.1870   23.4280 O   0  5  0  0  0  0
   21.5510   15.2210   25.5620 O   0  0  0  0  0  0
   23.4990   16.5410   25.6490 O   0  5  0  0  0  0
   19.6510   17.4060   22.9270 O   0  5  0  0  0  0
   18.6180   18.7710   24.6980 O   0  0  0  0  0  0
   18.6810   16.4380   25.0830 O   0  0  0  0  0  0
   22.5700   21.7818   30.1102 H   0  0  0  0  0  0
   21.2957   19.7881   30.8531 H   0  0  0  0  0  0
   22.1772   19.7736   24.9131 H   0  0  0  0  0  0
   23.4088   21.8587   24.2570 H   0  0  0  0  0  0
   24.1009   23.5212   26.0062 H   0  0  0  0  0  0
   23.5560   23.1034   28.4240 H   0  0  0  0  0  0
   20.3777   17.2762   27.2953 H   0  0  0  0  0  0
   21.5608   18.7926   25.0457 H   0  0  0  0  0  0
   19.0953   15.4198   25.0439 H   0  0  0  0  0  0
   20.5624   18.0929   29.2392 H   0  0  0  0  0  0
  1  2  2  0  0  0
  1  6  1  0  0  0
  1 30  1  0  0  0
  2  3  1  0  0  0
  2 11  1  0  0  0
  3  4  2  0  0  0
  3  7  1  0  0  0
  4  5  1  0  0  0
  4 10  1  0  0  0
  5  6  2  0  0  0
  5 21  1  0  0  0
  6 22  1  0  0  0
  7  8  2  0  0  0
  7 23  1  0  0  0
  8  9  1  0  0  0
  8 24  1  0  0  0
  9 10  2  0  0  0
  9 25  1  0  0  0
 10 26  1  0  0  0
 11 12  1  0  0  0
 11 27  1  0  0  0
 12 13  1  0  0  0
 12 14  1  0  0  0
 12 28  1  0  0  0
 13 18  1  0  0  0
 13 19  2  0  0  0
 13 20  1  0  0  0
 14 15  1  0  0  0
 14 16  2  0  0  0
 14 17  1  0  0  0
 20 29  1  0  0  0
M  CHG  4   1   1  15  -1  17  -1  18  -1
M  END
> <s_m_source_file>
../1t1r_ligand.sdf

> <i_m_source_file_index>
1

> <s_epik_input>
W09IXVAoPU8pKFtPSF0pW0NIXShQKD1PKShbT0hdKVtPSF0pW05IXWMxbltjSF1bY0hdYyhjMTIpW2NIXVtjSF1bY0hdW2NIXTI=

> <s_epik_cmdline>
J2VwaWtfYXBwJywgJy1pbWFlJywgJ2xpZ2FuZF9wcm8ubWFlJywgJy1vbWFlJywgJ2xpZ2FuZF9wcmVwLm1hZScsICctbXMnLCAnMScsICctcGgnLCAnNycsICctcGh0JywgJzAuNScsICctbnQn

> <r_epik_Ionization_Penalty>
  0.6179

> <r_epik_Ionization_Penalty_Charging>
  0.6179

> <r_epik_Ionization_Penalty_Neutral>
  0.0000

> <r_epik_State_Penalty>
  0.5550

> <r_epik_Charging_Adjusted_Penalty>
1.17289061695112

> <i_epik_Tot_Q>
-2

> <i_epik_Tot_abs_Q>
4

$$$$
