1t1s_ligand
                    3D
 Schrodinger Suite 2020-3.
 23 23  0  0  1  0            999 V2000
   17.2440    9.7120   61.9610 O   0  5  0  0  0  0
   17.2220   10.4400   60.5980 P   0  0  0  0  0  0
   18.4270   11.2310   60.4270 O   0  0  0  0  0  0
   17.2690    9.3990   59.4510 O   0  5  0  0  0  0
   15.7260   11.4740   60.4720 C   0  0  2  0  0  0
   15.6720   12.1800   59.2000 N   0  0  0  0  0  0
   14.9500   11.7550   58.1160 C   0  0  0  0  0  0
   14.9750   12.5370   56.9610 N   0  0  0  0  0  0
   14.2640   12.1710   55.8280 C   0  0  0  0  0  0
   13.5220   11.0080   55.8690 C   0  0  0  0  0  0
   12.5700   10.5900   54.5020 Cl  0  0  0  0  0  0
   13.4790   10.2020   57.0000 C   0  0  0  0  0  0
   14.1930   10.5720   58.1350 C   0  0  0  0  0  0
   15.6810   12.7180   61.7970 P   0  0  0  0  0  0
   15.7590   12.0370   63.1850 O   0  5  0  0  0  0
   14.4810   13.5320   61.6910 O   0  0  0  0  0  0
   16.8000   13.7640   61.6030 O   0  0  0  0  0  0
   14.8113   10.8743   60.3548 H   0  0  0  0  0  0
   16.2339   13.1162   59.0663 H   0  0  0  0  0  0
   14.2905   12.7859   54.9284 H   0  0  0  0  0  0
   12.8893    9.2853   56.9979 H   0  0  0  0  0  0
   14.1653    9.9503   59.0299 H   0  0  0  0  0  0
   17.8547   13.4527   61.6306 H   0  0  0  0  0  0
  1  2  1  0  0  0
  2  3  2  0  0  0
  2  4  1  0  0  0
  2  5  1  0  0  0
  5  6  1  0  0  0
  5 14  1  0  0  0
  5 18  1  0  0  0
  6  7  1  0  0  0
  6 19  1  0  0  0
  7  8  2  0  0  0
  7 13  1  0  0  0
  8  9  1  0  0  0
  9 10  2  0  0  0
  9 20  1  0  0  0
 10 11  1  0  0  0
 10 12  1  0  0  0
 12 13  2  0  0  0
 12 21  1  0  0  0
 13 22  1  0  0  0
 14 15  1  0  0  0
 14 16  2  0  0  0
 14 17  1  0  0  0
 17 23  1  0  0  0
M  CHG  3   1  -1   4  -1  15  -1
M  END
> <s_m_source_file>
../1t1s_ligand.sdf

> <i_m_source_file_index>
1

> <s_epik_input>
W09IXVAoPU8pKFtPSF0pW0NIXShQKD1PKShbT0hdKVtPSF0pW05IXWMxbltjSF1jKENsKVtjSF1bY0hdMQ==

> <s_epik_cmdline>
J2VwaWtfYXBwJywgJy1pbWFlJywgJ2xpZ2FuZF9wcm8ubWFlJywgJy1vbWFlJywgJ2xpZ2FuZF9wcmVwLm1hZScsICctbXMnLCAnMScsICctcGgnLCAnNycsICctcGh0JywgJzAuNScsICctbnQn

> <r_lp_tautomer_probability>
0.999999772200052

> <r_epik_Ionization_Penalty>
  0.3364

> <r_epik_Ionization_Penalty_Charging>
  0.3350

> <r_epik_Ionization_Penalty_Neutral>
  0.0015

> <r_epik_State_Penalty>
  0.3302

> <r_epik_Charging_Adjusted_Penalty>
0.665189692377137

> <i_epik_Tot_Q>
-3

> <i_epik_Tot_abs_Q>
3

$$$$
