1t29_ligand
                    3D
 Schrodinger Suite 2020-3.
199200  0  0  1  0            999 V2000
   43.9890    0.6430   24.9140 N   0  3  0  0  0  0
   44.9410    1.7310   24.5430 C   0  0  2  0  0  0
   45.2590    2.5970   25.7650 C   0  0  0  0  0  0
   46.4150    2.7080   26.1760 O   0  0  0  0  0  0
   44.3540    2.6180   23.4040 C   0  0  2  0  0  0
   44.1000    1.7620   22.1570 C   0  0  0  0  0  0
   45.3250    3.7440   23.0620 C   0  0  0  0  0  0
   43.3810    2.4830   21.0290 C   0  0  0  0  0  0
   44.2240    3.1840   26.3640 N   0  0  0  0  0  0
   44.3990    4.0350   27.5330 C   0  0  2  0  0  0
   44.9770    3.2430   28.7110 C   0  0  0  0  0  0
   44.4020    2.2240   29.1230 O   0  0  0  0  0  0
   43.0610    4.6600   27.9240 C   0  0  0  0  0  0
   43.2460    5.6500   28.9120 O   0  0  0  0  0  0
   46.1070    3.7180   29.2500 N   0  0  0  0  0  0
   46.7870    3.0580   30.3690 C   0  0  2  0  0  0
   46.8170    3.9070   31.6330 C   0  0  0  0  0  0
   47.7210    3.7430   32.4440 O   0  0  0  0  0  0
   48.2590    2.7040   30.0330 C   0  0  0  0  0  0
   48.5280    1.9850   28.7110 C   0  0  0  0  0  0
   49.7150    1.0420   28.7710 C   0  0  0  0  0  0
   51.0060    1.5840   28.3740 N   0  0  0  0  0  0
   51.6380    1.2250   27.2660 C   0  0  0  0  0  0
   52.8200    1.7460   26.9920 N   0  0  0  0  0  0
   51.0660    0.3720   26.4260 N   0  0  0  0  0  0
   45.8640    4.8150   31.8110 N   0  0  0  0  0  0
   45.8540    5.6540   33.0060 C   0  0  2  0  0  0
   44.6870    5.2320   33.8720 C   0  0  0  0  0  0
   44.0110    4.2540   33.5540 O   0  0  0  0  0  0
   45.7110    7.1350   32.6220 C   0  0  0  0  0  0
   44.5280    7.3540   31.8830 O   0  0  0  0  0  0
   44.4730    5.9580   34.9670 N   0  0  0  0  0  0
   43.3710    5.7060   35.8870 C   0  0  2  0  0  0
   42.0990    6.3590   35.3510 C   0  0  0  0  0  0
   41.0030    6.1910   35.9070 O   0  0  0  0  0  0
   43.6940    6.2830   37.2830 C   0  0  2  0  0  0
   44.5530    5.3680   37.9780 O   0  0  0  0  0  0
   42.4210    6.5240   38.0960 C   0  0  0  0  0  0
   42.2480    7.1000   34.2570 N   0  0  0  0  0  0
   41.1190    7.7970   33.6490 C   0  0  1  0  0  0
   41.5900    8.6780   32.5050 C   0  0  0  0  0  0
   42.2620    9.8450   33.0390 O   0  0  0  0  0  0
   40.0670    6.8750   33.0910 C   0  0  0  0  0  0
   40.3460    6.0820   32.2070 O   0  0  0  0  0  0
   43.2010   10.7110   32.0800 P   0  0  0  0  0  0
   43.8630   11.7750   32.9310 O   0  0  0  0  0  0
   44.3340    9.9330   31.5570 O   0  0  0  0  0  0
   42.3480   11.0680   30.9320 O   0  0  0  0  0  0
   38.8100    7.0650   33.5160 N   0  0  0  0  0  0
   37.6920    6.2410   33.0470 C   0  0  2  0  0  0
   37.4920    6.4040   31.5430 C   0  0  0  0  0  0
   37.7710    7.4610   30.9950 O   0  0  0  0  0  0
   36.5040    6.7950   33.8330 C   0  0  0  0  0  0
   37.1320    7.2720   35.0960 C   0  0  0  0  0  0
   38.3680    7.9770   34.5850 C   0  0  0  0  0  0
   37.0120    5.3560   30.8840 N   0  0  0  0  0  0
   36.7450    5.3960   29.4560 C   0  0  2  0  0  0
   35.2470    5.1440   29.3180 C   0  0  0  0  0  0
   34.6360    4.5180   30.1800 O   0  0  0  0  0  0
   37.5130    4.3070   28.6990 C   0  0  2  0  0  0
   37.3120    3.0530   29.3550 O   0  0  0  0  0  0
   39.0070    4.6270   28.6650 C   0  0  0  0  0  0
   34.6620    5.6690   28.2520 N   0  0  0  0  0  0
   33.2430    5.5120   27.9920 C   0  0  2  0  0  0
   33.1650    4.8610   26.6240 C   0  0  0  0  0  0
   33.3180    5.4970   25.5930 O   0  0  0  0  0  0
   32.5650    6.8940   28.0390 C   0  0  0  0  0  0
   32.9640    7.7120   29.2470 C   0  0  0  0  0  0
   34.2360    8.2730   29.3320 C   0  0  0  0  0  0
   32.1140    7.8260   30.3420 C   0  0  0  0  0  0
   34.6520    8.9270   30.4860 C   0  0  0  0  0  0
   32.5280    8.4780   31.4990 C   0  0  0  0  0  0
   33.7910    9.0230   31.5710 C   0  0  0  0  0  0
   32.9960    3.5490   26.6210 N   0  0  0  0  0  0
   32.9250    2.8260   25.3710 C   0  0  2  0  0  0
   31.5970    2.1130   25.3330 C   0  0  0  0  0  0
   31.3320    1.3390   24.4110 O   0  0  0  0  0  0
   34.0530    1.7900   25.3050 C   0  0  0  0  0  0
   34.0950    0.8950   26.5360 C   0  0  0  0  0  0
   35.1480    0.3660   26.8950 O   0  0  0  0  0  0
   32.9490    0.7180   27.1850 N   0  0  0  0  0  0
   30.7560    2.3920   26.3210 N   0  0  0  0  0  0
   29.5050    1.6950   26.4240 C   0  0  2  0  0  0
   28.7420    2.1990   27.6030 C   0  0  0  0  0  0
   29.2790    2.7300   28.5650 O   0  0  0  0  0  0
   29.7460    0.2080   26.6580 C   0  0  0  0  0  0
   29.2130   -0.6920   25.5710 C   0  0  0  0  0  0
   27.7080   -0.6160   25.4270 C   0  0  0  0  0  0
   27.2890   -1.5590   24.3120 C   0  0  0  0  0  0
   25.8240   -1.6460   24.0830 N   0  3  0  0  0  0
   27.4540    1.9810   27.4390 N   0  0  0  0  0  0
   26.3450    2.2590   28.3110 C   0  0  2  0  0  0
   25.2140    2.2520   27.2380 C   0  0  0  0  0  0
   25.1280    3.1640   26.3730 O   0  0  0  0  0  0
   26.5040    3.6110   29.0290 C   0  0  0  0  0  0
   27.8600    3.8380   29.8150 C   0  0  0  0  0  0
   27.8560    3.7090   31.3500 C   0  0  0  0  0  0
   26.8200    3.7750   32.0030 O   0  0  0  0  0  0
   29.0560    3.5830   31.9260 N   0  0  0  0  0  0
   24.3230    1.2646   27.2357 O   0  0  0  0  0  0
   43.7698    0.0296   24.0276 H   0  0  0  0  0  0
   43.0562    1.0856   25.2934 H   0  0  0  0  0  0
   44.4394    0.0120   25.6943 H   0  0  0  0  0  0
   45.8593    1.2309   24.2016 H   0  0  0  0  0  0
   43.4048    3.0671   23.7316 H   0  0  0  0  0  0
   45.0605    1.4125   21.7503 H   0  0  0  0  0  0
   43.4792    0.8951   22.4275 H   0  0  0  0  0  0
   45.5059    4.3567   23.9574 H   0  0  0  0  0  0
   44.8933    4.3722   22.2689 H   0  0  0  0  0  0
   46.2758    3.3149   22.7131 H   0  0  0  0  0  0
   43.2437    1.7943   20.1823 H   0  0  0  0  0  0
   43.9801    3.3470   20.7055 H   0  0  0  0  0  0
   42.3988    2.8296   21.3827 H   0  0  0  0  0  0
   43.2177    3.0125   25.9542 H   0  0  0  0  0  0
   45.1138    4.8132   27.2272 H   0  0  0  0  0  0
   42.5993    5.1216   27.0387 H   0  0  0  0  0  0
   42.3941    3.8804   28.3209 H   0  0  0  0  0  0
   42.3800    6.2013   29.3071 H   0  0  0  0  0  0
   46.5237    4.6410   28.8205 H   0  0  0  0  0  0
   46.1549    2.1698   30.5159 H   0  0  0  0  0  0
   48.8571    3.6262   29.9893 H   0  0  0  0  0  0
   48.6637    2.0411   30.8120 H   0  0  0  0  0  0
   47.6462    1.3899   28.4313 H   0  0  0  0  0  0
   48.7339    2.7269   27.9254 H   0  0  0  0  0  0
   49.8476    0.6846   29.8028 H   0  0  0  0  0  0
   49.5359    0.1842   28.1061 H   0  0  0  0  0  0
   51.5067    2.3317   29.0067 H   0  0  0  0  0  0
   53.2860    2.4523   27.6948 H   0  0  0  0  0  0
   50.0811   -0.0566   26.6632 H   0  0  0  0  0  0
   51.5767    0.0934   25.4924 H   0  0  0  0  0  0
   45.0785    4.9324   31.0500 H   0  0  0  0  0  0
   46.8080    5.4926   33.5292 H   0  0  0  0  0  0
   45.6757    7.7486   33.5343 H   0  0  0  0  0  0
   46.5717    7.4395   32.0084 H   0  0  0  0  0  0
   44.2785    8.3660   31.5315 H   0  0  0  0  0  0
   45.1760    6.7810   35.1632 H   0  0  0  0  0  0
   43.2581    4.6127   35.9313 H   0  0  0  0  0  0
   44.2507    7.2279   37.1984 H   0  0  0  0  0  0
   45.5187    5.0782   37.5382 H   0  0  0  0  0  0
   41.7686    7.2262   37.5562 H   0  0  0  0  0  0
   42.6863    6.9489   39.0753 H   0  0  0  0  0  0
   41.8926    5.5702   38.2412 H   0  0  0  0  0  0
   43.2498    7.1813   33.8101 H   0  0  0  0  0  0
   40.6971    8.3651   34.4912 H   0  0  0  0  0  0
   42.2872    8.1122   31.8696 H   0  0  0  0  0  0
   40.7237    8.9958   31.9062 H   0  0  0  0  0  0
   44.4952   11.4835   33.7827 H   0  0  0  0  0  0
   41.4325   11.6573   31.0892 H   0  0  0  0  0  0
   37.8795    5.1710   33.2199 H   0  0  0  0  0  0
   36.0333    7.6083   33.2612 H   0  0  0  0  0  0
   35.7702    5.9932   34.0020 H   0  0  0  0  0  0
   36.4371    7.9451   35.6196 H   0  0  0  0  0  0
   37.3622    6.4100   35.7394 H   0  0  0  0  0  0
   39.1610    8.0660   35.3422 H   0  0  0  0  0  0
   38.1565    8.9681   34.1573 H   0  0  0  0  0  0
   36.8163    4.4361   31.4546 H   0  0  0  0  0  0
   37.0734    6.3754   29.0780 H   0  0  0  0  0  0
   37.1238    4.1921   27.6766 H   0  0  0  0  0  0
   36.2947    2.6526   29.4763 H   0  0  0  0  0  0
   39.1639    5.5918   28.1605 H   0  0  0  0  0  0
   39.5391    3.8357   28.1167 H   0  0  0  0  0  0
   39.3933    4.6838   29.6934 H   0  0  0  0  0  0
   35.2896    6.2398   27.5518 H   0  0  0  0  0  0
   32.7676    4.8753   28.7527 H   0  0  0  0  0  0
   32.8412    7.4685   27.1425 H   0  0  0  0  0  0
   31.4729    6.7658   28.0703 H   0  0  0  0  0  0
   34.9145    8.1982   28.4822 H   0  0  0  0  0  0
   31.1121    7.3996   30.2930 H   0  0  0  0  0  0
   35.6498    9.3625   30.5388 H   0  0  0  0  0  0
   31.8517    8.5578   32.3501 H   0  0  0  0  0  0
   34.1146    9.5298   32.4801 H   0  0  0  0  0  0
   32.9094    3.0081   27.5749 H   0  0  0  0  0  0
   33.0169    3.5572   24.5543 H   0  0  0  0  0  0
   33.9096    1.1475   24.4238 H   0  0  0  0  0  0
   35.0212    2.3065   25.2285 H   0  0  0  0  0  0
   32.0328    1.2108   26.8277 H   0  0  0  0  0  0
   32.9166    0.0787   28.0795 H   0  0  0  0  0  0
   31.0202    3.1603   27.0626 H   0  0  0  0  0  0
   28.9796    1.9011   25.4798 H   0  0  0  0  0  0
   30.8273    0.0184   26.7280 H   0  0  0  0  0  0
   29.2584   -0.0995   27.5949 H   0  0  0  0  0  0
   29.6564   -0.4041   24.6064 H   0  0  0  0  0  0
   29.4751   -1.7359   25.7979 H   0  0  0  0  0  0
   27.2336   -0.9153   26.3732 H   0  0  0  0  0  0
   27.4149    0.4150   25.1799 H   0  0  0  0  0  0
   27.7376   -1.2279   23.3638 H   0  0  0  0  0  0
   27.6332   -2.5776   24.5445 H   0  0  0  0  0  0
   25.6224   -2.3491   23.2614 H   0  0  0  0  0  0
   25.4345   -0.6518   23.8186 H   0  0  0  0  0  0
   25.3301   -2.0015   24.9994 H   0  0  0  0  0  0
   27.2794    1.5115   26.4597 H   0  0  0  0  0  0
   26.2526    1.5397   29.1381 H   0  0  0  0  0  0
   26.4429    4.4263   28.2931 H   0  0  0  0  0  0
   25.7021    3.7277   29.7729 H   0  0  0  0  0  0
   28.6075    3.1057   29.4757 H   0  0  0  0  0  0
   28.2298    4.8558   29.6218 H   0  0  0  0  0  0
   29.9615    3.5272   31.3040 H   0  0  0  0  0  0
   29.1377    3.5351   33.0219 H   0  0  0  0  0  0
   23.5207    1.2495   26.4833 H   0  0  0  0  0  0
  1  2  1  0  0  0
  1101  1  0  0  0
  1102  1  0  0  0
  1103  1  0  0  0
  2  5  1  0  0  0
  2  3  1  0  0  0
  2104  1  0  0  0
  3  4  2  0  0  0
  3  9  1  0  0  0
  5  7  1  0  0  0
  5  6  1  0  0  0
  5105  1  0  0  0
  6  8  1  0  0  0
  6106  1  0  0  0
  6107  1  0  0  0
  7108  1  0  0  0
  7109  1  0  0  0
  7110  1  0  0  0
  8111  1  0  0  0
  8112  1  0  0  0
  8113  1  0  0  0
  9 10  1  0  0  0
  9114  1  0  0  0
 10 13  1  0  0  0
 10 11  1  0  0  0
 10115  1  0  0  0
 11 12  2  0  0  0
 11 15  1  0  0  0
 13 14  1  0  0  0
 13116  1  0  0  0
 13117  1  0  0  0
 14118  1  0  0  0
 15 16  1  0  0  0
 15119  1  0  0  0
 16 19  1  0  0  0
 16 17  1  0  0  0
 16120  1  0  0  0
 17 18  2  0  0  0
 17 26  1  0  0  0
 19 20  1  0  0  0
 19121  1  0  0  0
 19122  1  0  0  0
 20 21  1  0  0  0
 20123  1  0  0  0
 20124  1  0  0  0
 21 22  1  0  0  0
 21125  1  0  0  0
 21126  1  0  0  0
 22 23  1  0  0  0
 22127  1  0  0  0
 23 25  1  0  0  0
 23 24  2  0  0  0
 24128  1  0  0  0
 25129  1  0  0  0
 25130  1  0  0  0
 26 27  1  0  0  0
 26131  1  0  0  0
 27 30  1  0  0  0
 27 28  1  0  0  0
 27132  1  0  0  0
 28 29  2  0  0  0
 28 32  1  0  0  0
 30 31  1  0  0  0
 30133  1  0  0  0
 30134  1  0  0  0
 31135  1  0  0  0
 32 33  1  0  0  0
 32136  1  0  0  0
 33 36  1  0  0  0
 33 34  1  0  0  0
 33137  1  0  0  0
 34 35  2  0  0  0
 34 39  1  0  0  0
 36 38  1  0  0  0
 36 37  1  0  0  0
 36138  1  0  0  0
 37139  1  0  0  0
 38140  1  0  0  0
 38141  1  0  0  0
 38142  1  0  0  0
 39 40  1  0  0  0
 39143  1  0  0  0
 40 41  1  0  0  0
 40 43  1  0  0  0
 40144  1  0  0  0
 41 42  1  0  0  0
 41145  1  0  0  0
 41146  1  0  0  0
 42 45  1  0  0  0
 43 44  2  0  0  0
 43 49  1  0  0  0
 45 46  1  0  0  0
 45 47  2  0  0  0
 45 48  1  0  0  0
 46147  1  0  0  0
 48148  1  0  0  0
 49 50  1  0  0  0
 49 55  1  0  0  0
 50 51  1  0  0  0
 50 53  1  0  0  0
 50149  1  0  0  0
 51 52  2  0  0  0
 51 56  1  0  0  0
 53 54  1  0  0  0
 53150  1  0  0  0
 53151  1  0  0  0
 54 55  1  0  0  0
 54152  1  0  0  0
 54153  1  0  0  0
 55154  1  0  0  0
 55155  1  0  0  0
 56 57  1  0  0  0
 56156  1  0  0  0
 57 60  1  0  0  0
 57 58  1  0  0  0
 57157  1  0  0  0
 58 59  2  0  0  0
 58 63  1  0  0  0
 60 62  1  0  0  0
 60 61  1  0  0  0
 60158  1  0  0  0
 61159  1  0  0  0
 62160  1  0  0  0
 62161  1  0  0  0
 62162  1  0  0  0
 63 64  1  0  0  0
 63163  1  0  0  0
 64 67  1  0  0  0
 64 65  1  0  0  0
 64164  1  0  0  0
 65 66  2  0  0  0
 65 74  1  0  0  0
 67 68  1  0  0  0
 67165  1  0  0  0
 67166  1  0  0  0
 68 69  2  0  0  0
 68 70  1  0  0  0
 69 71  1  0  0  0
 69167  1  0  0  0
 70 72  2  0  0  0
 70168  1  0  0  0
 71 73  2  0  0  0
 71169  1  0  0  0
 72 73  1  0  0  0
 72170  1  0  0  0
 73171  1  0  0  0
 74 75  1  0  0  0
 74172  1  0  0  0
 75 78  1  0  0  0
 75 76  1  0  0  0
 75173  1  0  0  0
 76 77  2  0  0  0
 76 82  1  0  0  0
 78 79  1  0  0  0
 78174  1  0  0  0
 78175  1  0  0  0
 79 81  1  0  0  0
 79 80  2  0  0  0
 81176  1  0  0  0
 81177  1  0  0  0
 82 83  1  0  0  0
 82178  1  0  0  0
 83 86  1  0  0  0
 83 84  1  0  0  0
 83179  1  0  0  0
 84 85  2  0  0  0
 84 91  1  0  0  0
 86 87  1  0  0  0
 86180  1  0  0  0
 86181  1  0  0  0
 87 88  1  0  0  0
 87182  1  0  0  0
 87183  1  0  0  0
 88 89  1  0  0  0
 88184  1  0  0  0
 88185  1  0  0  0
 89 90  1  0  0  0
 89186  1  0  0  0
 89187  1  0  0  0
 90188  1  0  0  0
 90189  1  0  0  0
 90190  1  0  0  0
 91 92  1  0  0  0
 91191  1  0  0  0
 92 95  1  0  0  0
 92 93  1  0  0  0
 92192  1  0  0  0
 93 94  2  0  0  0
 93100  1  0  0  0
 95 96  1  0  0  0
 95193  1  0  0  0
 95194  1  0  0  0
 96 97  1  0  0  0
 96195  1  0  0  0
 96196  1  0  0  0
 97 99  1  0  0  0
 97 98  2  0  0  0
 99197  1  0  0  0
 99198  1  0  0  0
100199  1  0  0  0
M  CHG  2   1   1  90   1
M  END
> <s_m_source_file>
../1t29_ligand.sdf

> <i_m_source_file_index>
1

> <s_epik_input>
W0NIM11bQ0gyXVtDQEhdKFtDSDNdKVtDQEhdKFtOSDMrXSlDKD1PKVtOSF1bQ0BASF0oW0NIMl1bT0hdKUMoPU8pW05IXVtDQEBIXShbQ0gyXVtDSDJdW0NIMl1bTkhdL0MoPU5cW0hdKVtOSDJdKUMoPU8pW05IXVtDQEBIXShbQ0gyXVtPSF0pQyg9TylbTkhdW0NAQEhdKFtDQEhdKFtPSF0pW0NIM10pQyg9TylbTkhdW0NAQEhdKFtDSDJdT1AoPU8pKFtPSF0pW09IXSlDKD1PKU4xW0NAQEhdKFtDSDJdW0NIMl1bQ0gyXTEpQyg9TylbTkhdW0NAQEhdKFtDQEhdKFtPSF0pW0NIM10pQyg9TylbTkhdW0NAQEhdKFtDSDJdYzJbY0hdW2NIXVtjSF1bY0hdW2NIXTIpQyg9TylbTkhdW0NAQEhdKFtDSDJdQyg9TylbTkgyXSlDKD1PKVtOSF1bQ0BASF0oW0NIMl1bQ0gyXVtDSDJdW0NIMl1bTkgzK10pQyg9TylbTkhdW0NASF0oQyg9TylbT0hdKVtDSDJdW0NIMl1DKD1PKVtOSDJd

> <s_epik_cmdline>
J2VwaWtfYXBwJywgJy1pbWFlJywgJ2xpZ2FuZF9wcm8ubWFlJywgJy1vbWFlJywgJ2xpZ2FuZF9wcmVwLm1hZScsICctbXMnLCAnMScsICctcGgnLCAnNycsICctcGh0JywgJzAuNScsICctbnQn

> <s_epik_pKa_notes>
Molecule size exceeds maximum supported for generating protonation states

> <s_epik_Chemistry_Notes>
This compound has an imine and may undergo hydrolysis.

$$$$
