1t2v_ligand
                    3D
 Schrodinger Suite 2020-3.
208211  0  0  1  0            999 V2000
   76.2930   26.9480   27.0390 N   0  3  0  0  0  0
   75.7550   25.6600   26.6630 C   0  0  0  0  0  0
   74.2370   25.5900   26.8440 C   0  0  0  0  0  0
   73.4720   26.2120   26.1010 O   0  0  0  0  0  0
   73.8180   24.8350   27.8470 N   0  0  0  0  0  0
   72.3990   24.6140   28.1440 C   0  0  2  0  0  0
   71.6130   25.8760   28.5700 C   0  0  0  0  0  0
   72.0780   27.0030   28.3660 O   0  0  0  0  0  0
   72.2760   23.5290   29.2130 C   0  0  0  0  0  0
   70.4520   25.6850   29.1410 N   0  0  0  0  0  0
   69.5860   26.7890   29.5210 C   0  0  2  0  0  0
   70.1570   27.6060   30.6810 C   0  0  0  0  0  0
   70.1410   27.1250   31.8120 O   0  0  0  0  0  0
   68.2050   26.2700   29.8770 C   0  0  0  0  0  0
   70.6560   28.8300   30.4530 N   0  0  0  0  0  0
   71.0900   29.6310   31.5940 C   0  0  2  0  0  0
   70.4860   31.0100   31.5250 C   0  0  0  0  0  0
   70.4510   31.6440   30.4670 O   0  0  0  0  0  0
   72.6320   29.7090   31.7240 C   0  0  0  0  0  0
   73.4000   30.3560   30.5830 C   0  0  0  0  0  0
   73.7600   31.6940   30.6080 C   0  0  0  0  0  0
   73.8110   29.5900   29.5000 C   0  0  0  0  0  0
   74.4830   32.2600   29.5680 C   0  0  0  0  0  0
   74.5340   30.1460   28.4580 C   0  0  0  0  0  0
   74.8650   31.4800   28.4970 C   0  0  0  0  0  0
   75.5860   32.0400   27.4670 O   0  0  0  0  0  0
   70.0230   31.4350   32.6910 N   0  0  0  0  0  0
   69.4140   32.7430   32.8510 C   0  0  2  0  0  0
   70.4950   33.8200   32.8780 C   0  0  0  0  0  0
   71.6340   33.5390   33.2380 O   0  0  0  0  0  0
   68.4800   32.7770   34.0580 C   0  0  0  0  0  0
   67.1030   32.2230   33.7030 C   0  0  0  0  0  0
   66.2770   32.9650   33.1200 O   0  0  0  0  0  0
   66.8570   31.0330   34.0050 O   0  0  0  0  0  0
   70.1300   35.0420   32.5070 N   0  0  0  0  0  0
   71.1090   36.0850   32.2070 C   0  0  2  0  0  0
   70.7260   37.4360   32.8240 C   0  0  0  0  0  0
   69.5550   37.8280   32.8010 O   0  0  0  0  0  0
   71.3550   36.1340   30.6420 C   0  0  2  0  0  0
   72.6190   35.3440   30.2580 C   0  0  0  0  0  0
   71.3670   37.5440   30.0580 C   0  0  0  0  0  0
   73.7830   35.4160   31.2750 C   0  0  0  0  0  0
   71.7150   38.1190   33.4030 N   0  0  0  0  0  0
   71.4630   39.3600   34.1410 C   0  0  1  0  0  0
   72.6180   39.7220   35.0840 C   0  0  0  0  0  0
   73.7990   39.0120   34.7650 O   0  0  0  0  0  0
   71.1490   40.5040   33.1930 C   0  0  0  0  0  0
   71.6380   40.5330   32.0600 O   0  0  0  0  0  0
   74.9390   39.2230   35.8780 P   0  0  0  0  0  0
   75.1860   40.7810   36.1800 O   0  0  0  0  0  0
   76.2910   38.6220   35.2750 O   0  0  0  0  0  0
   74.5480   38.4090   37.2080 O   0  0  0  0  0  0
   70.3220   41.4360   33.6620 N   0  0  0  0  0  0
   69.7740   42.4840   32.8070 C   0  0  2  0  0  0
   70.8790   43.3900   32.3160 C   0  0  0  0  0  0
   71.9010   43.5580   32.9860 O   0  0  0  0  0  0
   68.7290   43.3180   33.5520 C   0  0  0  0  0  0
   67.4540   42.5680   33.9260 C   0  0  0  0  0  0
   66.3620   42.6560   32.8590 C   0  0  0  0  0  0
   66.4130   43.5110   31.9580 O   0  0  0  0  0  0
   65.3660   41.7720   32.9630 N   0  0  0  0  0  0
   70.6810   43.9290   31.1250 N   0  0  0  0  0  0
   71.5390   44.9730   30.5950 C   0  0  2  0  0  0
   70.7060   46.2480   30.6720 C   0  0  0  0  0  0
   69.4790   46.1770   30.7610 O   0  0  0  0  0  0
   72.0490   44.5940   29.1740 C   0  0  0  0  0  0
   72.1340   45.7820   28.2280 C   0  0  0  0  0  0
   73.4090   43.9340   29.2870 C   0  0  0  0  0  0
   71.3520   47.4070   30.7050 N   0  0  0  0  0  0
   70.6050   48.6530   30.7770 C   0  0  2  0  0  0
   70.9220   49.5690   29.5940 C   0  0  0  0  0  0
   71.7360   50.4860   29.7040 O   0  0  0  0  0  0
   70.7890   49.3100   32.1560 C   0  0  0  0  0  0
   70.1160   48.5450   33.2700 C   0  0  0  0  0  0
   70.7570   47.4850   33.8980 C   0  0  0  0  0  0
   68.8230   48.8610   33.6600 C   0  0  0  0  0  0
   70.1330   46.7660   34.8900 C   0  0  0  0  0  0
   68.1890   48.1420   34.6550 C   0  0  0  0  0  0
   68.8440   47.0900   35.2700 C   0  0  0  0  0  0
   70.2560   49.3070   28.4670 N   0  0  0  0  0  0
   70.5350   49.9760   27.1920 C   0  0  2  0  0  0
   70.0880   51.4180   27.1480 C   0  0  0  0  0  0
   69.5050   51.9250   28.1110 O   0  0  0  0  0  0
   69.6740   49.1960   26.1980 C   0  0  0  0  0  0
   69.3170   47.9560   26.8940 C   0  0  0  0  0  0
   69.1570   48.3370   28.3210 C   0  0  0  0  0  0
   70.3010   52.0390   26.0030 N   0  0  0  0  0  0
   69.8300   53.4090   25.7710 C   0  0  2  0  0  0
   68.3030   53.5080   25.9500 C   0  0  0  0  0  0
   67.5860   52.5930   25.5690 O   0  0  0  0  0  0
   70.2580   53.8680   24.3610 C   0  0  0  0  0  0
   70.0430   55.3160   23.9860 C   0  0  0  0  0  0
   71.0190   56.2560   24.3010 C   0  0  0  0  0  0
   68.9020   55.7310   23.3120 C   0  0  0  0  0  0
   70.8530   57.5930   23.9620 C   0  0  0  0  0  0
   68.7230   57.0630   22.9670 C   0  0  0  0  0  0
   69.7000   57.9980   23.2900 C   0  0  0  0  0  0
   67.8290   54.5980   26.5160 N   0  0  0  0  0  0
   66.3850   54.7890   26.6970 C   0  0  2  0  0  0
   66.0740   56.2460   26.9070 C   0  0  0  0  0  0
   66.9550   57.0220   27.2420 O   0  0  0  0  0  0
   65.8820   53.9640   27.8710 C   0  0  0  0  0  0
   64.8520   56.6490   26.7300 N   0  0  0  0  0  0
   64.5250   58.0800   26.8030 C   0  0  2  0  0  0
   64.9820   58.7620   28.0750 C   0  0  0  0  0  0
   65.2310   59.9690   28.0920 O   0  0  0  0  0  0
   63.0030   58.2660   26.6480 C   0  0  0  0  0  0
   65.1167   58.0488   29.1895 O   0  0  0  0  0  0
   77.3830   26.9473   26.8913 H   0  0  0  0  0  0
   76.0665   27.1452   28.0972 H   0  0  0  0  0  0
   75.8388   27.7315   26.4146 H   0  0  0  0  0  0
   75.9815   25.4628   25.6048 H   0  0  0  0  0  0
   76.2092   24.8765   27.2874 H   0  0  0  0  0  0
   74.5907   24.3628   28.4715 H   0  0  0  0  0  0
   71.9870   24.2924   27.1761 H   0  0  0  0  0  0
   72.8390   22.6381   28.8977 H   0  0  0  0  0  0
   71.2166   23.2649   29.3471 H   0  0  0  0  0  0
   72.6839   23.9030   30.1637 H   0  0  0  0  0  0
   70.1375   24.6484   29.3320 H   0  0  0  0  0  0
   69.5418   27.4250   28.6246 H   0  0  0  0  0  0
   67.8052   25.6846   29.0359 H   0  0  0  0  0  0
   67.5364   27.1187   30.0837 H   0  0  0  0  0  0
   68.2725   25.6305   30.7695 H   0  0  0  0  0  0
   70.7418   29.2335   29.4333 H   0  0  0  0  0  0
   70.6825   29.1006   32.4673 H   0  0  0  0  0  0
   72.8955   30.2914   32.6192 H   0  0  0  0  0  0
   73.0443   28.6931   31.8131 H   0  0  0  0  0  0
   73.4705   32.3115   31.4583 H   0  0  0  0  0  0
   73.5595   28.5299   29.4695 H   0  0  0  0  0  0
   74.7480   33.3169   29.5974 H   0  0  0  0  0  0
   74.8388   29.5299   27.6121 H   0  0  0  0  0  0
   75.8510   33.1072   27.4978 H   0  0  0  0  0  0
   70.1119   30.7602   33.5552 H   0  0  0  0  0  0
   68.7878   32.9062   31.9615 H   0  0  0  0  0  0
   68.9061   32.1676   34.8686 H   0  0  0  0  0  0
   68.3634   33.8152   34.4023 H   0  0  0  0  0  0
   65.2807   32.5795   32.8579 H   0  0  0  0  0  0
   69.0543   35.2583   32.4283 H   0  0  0  0  0  0
   72.0258   35.7917   32.7394 H   0  0  0  0  0  0
   70.4969   35.6583   30.1446 H   0  0  0  0  0  0
   72.3668   34.2788   30.1495 H   0  0  0  0  0  0
   73.0148   35.7259   29.3054 H   0  0  0  0  0  0
   70.4490   38.0719   30.3556 H   0  0  0  0  0  0
   71.4172   37.4859   28.9607 H   0  0  0  0  0  0
   72.2434   38.0903   30.4368 H   0  0  0  0  0  0
   74.6306   34.8205   30.9049 H   0  0  0  0  0  0
   73.4489   35.0157   32.2436 H   0  0  0  0  0  0
   74.0969   36.4629   31.3995 H   0  0  0  0  0  0
   72.7399   37.7292   33.3161 H   0  0  0  0  0  0
   70.5710   39.1437   34.7473 H   0  0  0  0  0  0
   72.8308   40.7985   35.0067 H   0  0  0  0  0  0
   72.3369   39.4772   36.1189 H   0  0  0  0  0  0
   75.4614   41.4629   35.3620 H   0  0  0  0  0  0
   76.7221   39.0499   34.3579 H   0  0  0  0  0  0
   73.6414   38.6770   37.7703 H   0  0  0  0  0  0
   70.0543   41.4001   34.7283 H   0  0  0  0  0  0
   69.3101   41.9560   31.9608 H   0  0  0  0  0  0
   69.1612   43.6933   34.4913 H   0  0  0  0  0  0
   68.4225   44.1677   32.9242 H   0  0  0  0  0  0
   67.6853   41.5029   34.0746 H   0  0  0  0  0  0
   67.0416   42.9868   34.8558 H   0  0  0  0  0  0
   65.3677   41.0351   33.7797 H   0  0  0  0  0  0
   64.5441   41.7810   32.2320 H   0  0  0  0  0  0
   69.8320   43.5603   30.5307 H   0  0  0  0  0  0
   72.4399   45.0859   31.2160 H   0  0  0  0  0  0
   71.3294   43.8959   28.7214 H   0  0  0  0  0  0
   71.1458   46.2586   28.1482 H   0  0  0  0  0  0
   72.4561   45.4371   27.2344 H   0  0  0  0  0  0
   72.8615   46.5094   28.6173 H   0  0  0  0  0  0
   73.3442   43.0755   29.9716 H   0  0  0  0  0  0
   74.1376   44.6599   29.6772 H   0  0  0  0  0  0
   73.7321   43.5877   28.2942 H   0  0  0  0  0  0
   72.4515   47.4257   30.6779 H   0  0  0  0  0  0
   69.5458   48.3755   30.6718 H   0  0  0  0  0  0
   71.8614   49.3702   32.3933 H   0  0  0  0  0  0
   70.3596   50.3226   32.1400 H   0  0  0  0  0  0
   71.7710   47.2188   33.5997 H   0  0  0  0  0  0
   68.3009   49.6863   33.1758 H   0  0  0  0  0  0
   70.6542   45.9414   35.3763 H   0  0  0  0  0  0
   67.1742   48.4033   34.9550 H   0  0  0  0  0  0
   68.3449   46.5181   36.0522 H   0  0  0  0  0  0
   71.6229   49.9808   27.0295 H   0  0  0  0  0  0
   68.7830   49.7878   25.9414 H   0  0  0  0  0  0
   70.2563   48.9960   25.2865 H   0  0  0  0  0  0
   68.3807   47.5575   26.4762 H   0  0  0  0  0  0
   70.1211   47.2170   26.7622 H   0  0  0  0  0  0
   69.3090   47.5025   29.0214 H   0  0  0  0  0  0
   68.1996   48.8315   28.5422 H   0  0  0  0  0  0
   70.8467   51.5036   25.2120 H   0  0  0  0  0  0
   70.3123   54.0326   26.5382 H   0  0  0  0  0  0
   71.3372   53.6985   24.2321 H   0  0  0  0  0  0
   69.7037   53.2934   23.6043 H   0  0  0  0  0  0
   71.9241   55.9399   24.8196 H   0  0  0  0  0  0
   68.1366   55.0004   23.0504 H   0  0  0  0  0  0
   71.6207   58.3224   24.2202 H   0  0  0  0  0  0
   67.8190   57.3755   22.4442 H   0  0  0  0  0  0
   69.5651   59.0450   23.0187 H   0  0  0  0  0  0
   68.5330   55.3721   26.8554 H   0  0  0  0  0  0
   65.8996   54.4492   25.7702 H   0  0  0  0  0  0
   66.1174   52.9030   27.7011 H   0  0  0  0  0  0
   64.7931   54.0874   27.9660 H   0  0  0  0  0  0
   66.3717   54.3048   28.7952 H   0  0  0  0  0  0
   64.0601   55.9136   26.5247 H   0  0  0  0  0  0
   65.1061   58.5233   25.9809 H   0  0  0  0  0  0
   62.6654   57.7722   25.7249 H   0  0  0  0  0  0
   62.7682   59.3394   26.5966 H   0  0  0  0  0  0
   62.4892   57.8192   27.5119 H   0  0  0  0  0  0
   65.4483   58.5367   30.1180 H   0  0  0  0  0  0
  1  2  1  0  0  0
  1109  1  0  0  0
  1110  1  0  0  0
  1111  1  0  0  0
  2  3  1  0  0  0
  2112  1  0  0  0
  2113  1  0  0  0
  3  4  2  0  0  0
  3  5  1  0  0  0
  5  6  1  0  0  0
  5114  1  0  0  0
  6  9  1  0  0  0
  6  7  1  0  0  0
  6115  1  0  0  0
  7  8  2  0  0  0
  7 10  1  0  0  0
  9116  1  0  0  0
  9117  1  0  0  0
  9118  1  0  0  0
 10 11  1  0  0  0
 10119  1  0  0  0
 11 14  1  0  0  0
 11 12  1  0  0  0
 11120  1  0  0  0
 12 13  2  0  0  0
 12 15  1  0  0  0
 14121  1  0  0  0
 14122  1  0  0  0
 14123  1  0  0  0
 15 16  1  0  0  0
 15124  1  0  0  0
 16 19  1  0  0  0
 16 17  1  0  0  0
 16125  1  0  0  0
 17 18  2  0  0  0
 17 27  1  0  0  0
 19 20  1  0  0  0
 19126  1  0  0  0
 19127  1  0  0  0
 20 21  2  0  0  0
 20 22  1  0  0  0
 21 23  1  0  0  0
 21128  1  0  0  0
 22 24  2  0  0  0
 22129  1  0  0  0
 23 25  2  0  0  0
 23130  1  0  0  0
 24 25  1  0  0  0
 24131  1  0  0  0
 25 26  1  0  0  0
 26132  1  0  0  0
 27 28  1  0  0  0
 27133  1  0  0  0
 28 31  1  0  0  0
 28 29  1  0  0  0
 28134  1  0  0  0
 29 30  2  0  0  0
 29 35  1  0  0  0
 31 32  1  0  0  0
 31135  1  0  0  0
 31136  1  0  0  0
 32 33  1  0  0  0
 32 34  2  0  0  0
 33137  1  0  0  0
 35 36  1  0  0  0
 35138  1  0  0  0
 36 39  1  0  0  0
 36 37  1  0  0  0
 36139  1  0  0  0
 37 38  2  0  0  0
 37 43  1  0  0  0
 39 41  1  0  0  0
 39 40  1  0  0  0
 39140  1  0  0  0
 40 42  1  0  0  0
 40141  1  0  0  0
 40142  1  0  0  0
 41143  1  0  0  0
 41144  1  0  0  0
 41145  1  0  0  0
 42146  1  0  0  0
 42147  1  0  0  0
 42148  1  0  0  0
 43 44  1  0  0  0
 43149  1  0  0  0
 44 45  1  0  0  0
 44 47  1  0  0  0
 44150  1  0  0  0
 45 46  1  0  0  0
 45151  1  0  0  0
 45152  1  0  0  0
 46 49  1  0  0  0
 47 48  2  0  0  0
 47 53  1  0  0  0
 49 50  1  0  0  0
 49 51  1  0  0  0
 49 52  1  0  0  0
 50153  1  0  0  0
 51154  1  0  0  0
 52155  1  0  0  0
 53 54  1  0  0  0
 53156  1  0  0  0
 54 57  1  0  0  0
 54 55  1  0  0  0
 54157  1  0  0  0
 55 56  2  0  0  0
 55 62  1  0  0  0
 57 58  1  0  0  0
 57158  1  0  0  0
 57159  1  0  0  0
 58 59  1  0  0  0
 58160  1  0  0  0
 58161  1  0  0  0
 59 61  1  0  0  0
 59 60  2  0  0  0
 61162  1  0  0  0
 61163  1  0  0  0
 62 63  1  0  0  0
 62164  1  0  0  0
 63 66  1  0  0  0
 63 64  1  0  0  0
 63165  1  0  0  0
 64 65  2  0  0  0
 64 69  1  0  0  0
 66 68  1  0  0  0
 66 67  1  0  0  0
 66166  1  0  0  0
 67167  1  0  0  0
 67168  1  0  0  0
 67169  1  0  0  0
 68170  1  0  0  0
 68171  1  0  0  0
 68172  1  0  0  0
 69 70  1  0  0  0
 69173  1  0  0  0
 70 73  1  0  0  0
 70 71  1  0  0  0
 70174  1  0  0  0
 71 72  2  0  0  0
 71 80  1  0  0  0
 73 74  1  0  0  0
 73175  1  0  0  0
 73176  1  0  0  0
 74 75  2  0  0  0
 74 76  1  0  0  0
 75 77  1  0  0  0
 75177  1  0  0  0
 76 78  2  0  0  0
 76178  1  0  0  0
 77 79  2  0  0  0
 77179  1  0  0  0
 78 79  1  0  0  0
 78180  1  0  0  0
 79181  1  0  0  0
 80 81  1  0  0  0
 80 86  1  0  0  0
 81 82  1  0  0  0
 81 84  1  0  0  0
 81182  1  0  0  0
 82 83  2  0  0  0
 82 87  1  0  0  0
 84 85  1  0  0  0
 84183  1  0  0  0
 84184  1  0  0  0
 85 86  1  0  0  0
 85185  1  0  0  0
 85186  1  0  0  0
 86187  1  0  0  0
 86188  1  0  0  0
 87 88  1  0  0  0
 87189  1  0  0  0
 88 91  1  0  0  0
 88 89  1  0  0  0
 88190  1  0  0  0
 89 90  2  0  0  0
 89 98  1  0  0  0
 91 92  1  0  0  0
 91191  1  0  0  0
 91192  1  0  0  0
 92 93  2  0  0  0
 92 94  1  0  0  0
 93 95  1  0  0  0
 93193  1  0  0  0
 94 96  2  0  0  0
 94194  1  0  0  0
 95 97  2  0  0  0
 95195  1  0  0  0
 96 97  1  0  0  0
 96196  1  0  0  0
 97197  1  0  0  0
 98 99  1  0  0  0
 98198  1  0  0  0
 99102  1  0  0  0
 99100  1  0  0  0
 99199  1  0  0  0
100101  2  0  0  0
100103  1  0  0  0
102200  1  0  0  0
102201  1  0  0  0
102202  1  0  0  0
103104  1  0  0  0
103203  1  0  0  0
104107  1  0  0  0
104105  1  0  0  0
104204  1  0  0  0
105106  2  0  0  0
105108  1  0  0  0
107205  1  0  0  0
107206  1  0  0  0
107207  1  0  0  0
108208  1  0  0  0
M  CHG  1   1   1
M  END
> <s_m_source_file>
../1t2v_ligand.sdf

> <i_m_source_file_index>
1

> <s_epik_input>
W05IMytdW0NIMl1DKD1PKVtOSF1bQ0BASF0oW0NIM10pQyg9TylbTkhdW0NAQEhdKFtDSDNdKUMoPU8pW05IXVtDQEBIXShbQ0gyXWMxW2NIXVtjSF1jKFtPSF0pW2NIXVtjSF0xKUMoPU8pW05IXVtDQEBIXShbQ0gyXUMoPU8pW09IXSlDKD1PKVtOSF1bQ0BASF0oW0NAQEhdKFtDSDNdKVtDSDJdW0NIM10pQyg9TylbTkhdW0NAQEhdKFtDSDJdT1tQSF0oW09IXSkoW09IXSlbT0hdKUMoPU8pW05IXVtDQEBIXShbQ0gyXVtDSDJdQyg9TylbTkgyXSlDKD1PKVtOSF1bQ0BASF0oW0NIXShbQ0gzXSlbQ0gzXSlDKD1PKVtOSF1bQ0BASF0oW0NIMl1jMltjSF1bY0hdW2NIXVtjSF1bY0hdMilDKD1PKU4zW0NAQEhdKFtDSDJdW0NIMl1bQ0gyXTMpQyg9TylbTkhdW0NAQEhdKFtDSDJdYzRbY0hdW2NIXVtjSF1bY0hdW2NIXTQpQyg9TylbTkhdW0NAQEhdKFtDSDNdKUMoPU8pW05IXVtDQEBIXShbQ0gzXSlDKD1PKVtPSF0=

> <s_epik_cmdline>
J2VwaWtfYXBwJywgJy1pbWFlJywgJ2xpZ2FuZF9wcm8ubWFlJywgJy1vbWFlJywgJ2xpZ2FuZF9wcmVwLm1hZScsICctbXMnLCAnMScsICctcGgnLCAnNycsICctcGh0JywgJzAuNScsICctbnQn

> <s_epik_pKa_notes>
Molecule size exceeds maximum supported for generating protonation states

$$$$
