1t37_ligand
                    3D
 Schrodinger Suite 2020-3.
 85 85  0  0  1  0            999 V2000
   29.0140   27.5360  -10.3920 N   0  3  0  0  0  0
   29.5320   28.6850  -11.1740 C   0  0  2  0  0  0
   30.1780   29.7670  -10.3280 C   0  0  0  0  0  0
   30.8620   30.6180  -10.8660 O   0  0  0  0  0  0
   28.4140   29.3200  -12.0390 C   0  0  0  0  0  0
   27.0930   29.7320  -11.3800 C   0  0  0  0  0  0
   26.9870   31.2490  -11.2440 C   0  0  0  0  0  0
   25.9470   29.2180  -12.2490 C   0  0  0  0  0  0
   30.0410   29.7390   -9.0080 N   0  0  0  0  0  0
   30.6220   30.8610   -8.2750 C   0  0  2  0  0  0
   31.4450   30.6620   -6.9880 C   0  0  0  0  0  0
   31.2900   29.7120   -6.2260 O   0  0  0  0  0  0
   29.5560   31.8990   -8.0480 C   0  0  0  0  0  0
   32.3310   31.6440   -6.8420 N   0  0  0  0  0  0
   33.3670   31.9200   -5.8390 C   0  0  2  0  0  0
   33.3460   31.6480   -4.3210 C   0  0  0  0  0  0
   32.3190   31.5110   -3.6690 O   0  0  0  0  0  0
   33.7720   33.4100   -5.9810 C   0  0  2  0  0  0
   33.9450   33.7660   -7.4560 C   0  0  0  0  0  0
   35.0430   33.6730   -5.2640 C   0  0  0  0  0  0
   32.7050   34.4270   -8.0740 C   0  0  0  0  0  0
   34.5700   31.5980   -3.8050 N   0  0  0  0  0  0
   34.9500   31.4390   -2.4040 C   0  0  2  0  0  0
   35.7120   32.7580   -2.3320 C   0  0  0  0  0  0
   35.1180   33.8150   -2.3110 O   0  0  0  0  0  0
   35.9550   30.2820   -2.2160 C   0  0  0  0  0  0
   35.7090   29.0890   -3.1180 C   0  0  0  0  0  0
   35.3400   29.2870   -4.4440 C   0  0  0  0  0  0
   35.8400   27.7730   -2.6650 C   0  0  0  0  0  0
   35.0990   28.2500   -5.3070 C   0  0  0  0  0  0
   35.5990   26.6960   -3.5470 C   0  0  0  0  0  0
   35.2250   26.9600   -4.8760 C   0  0  0  0  0  0
   34.9890   25.9640   -5.7960 O   0  0  0  0  0  0
   37.0360   32.7090   -2.3660 N   0  0  0  0  0  0
   37.8000   33.9560   -2.3610 C   0  0  0  0  0  0
   39.1790   33.8700   -3.0350 C   0  0  0  0  0  0
   39.2800   34.4980   -4.1140 O   0  0  0  0  0  0
   37.9370   34.5130   -0.9270 C   0  0  0  0  0  0
   38.3490   33.5250    0.0040 O   0  0  0  0  0  0
   29.8275   27.1063   -9.7891 H   0  0  0  0  0  0
   28.6234   26.7710  -11.0792 H   0  0  0  0  0  0
   28.2069   27.8786   -9.7278 H   0  0  0  0  0  0
   30.3252   28.2299  -11.7853 H   0  0  0  0  0  0
   28.7880   30.2465  -12.4990 H   0  0  0  0  0  0
   28.1149   28.6139  -12.8276 H   0  0  0  0  0  0
   27.0429   29.3026  -10.3685 H   0  0  0  0  0  0
   27.8122   31.6196  -10.6182 H   0  0  0  0  0  0
   26.0263   31.5089  -10.7755 H   0  0  0  0  0  0
   27.0461   31.7115  -12.2403 H   0  0  0  0  0  0
   26.0230   28.1250  -12.3472 H   0  0  0  0  0  0
   26.0062   29.6807  -13.2452 H   0  0  0  0  0  0
   24.9864   29.4781  -11.7804 H   0  0  0  0  0  0
   29.5261   28.9338   -8.4634 H   0  0  0  0  0  0
   31.3967   31.1271   -9.0092 H   0  0  0  0  0  0
   28.9737   32.0346   -8.9713 H   0  0  0  0  0  0
   30.0268   32.8529   -7.7680 H   0  0  0  0  0  0
   28.8885   31.5681   -7.2387 H   0  0  0  0  0  0
   32.1824   32.3361   -7.6840 H   0  0  0  0  0  0
   33.9623   31.0600   -6.1795 H   0  0  0  0  0  0
   33.0045   34.0534   -5.5260 H   0  0  0  0  0  0
   34.7838   34.4689   -7.5676 H   0  0  0  0  0  0
   34.1533   32.8522   -8.0318 H   0  0  0  0  0  0
   34.9236   33.4181   -4.2006 H   0  0  0  0  0  0
   35.3040   34.7374   -5.3588 H   0  0  0  0  0  0
   35.8442   33.0587   -5.7007 H   0  0  0  0  0  0
   32.9000   34.6548   -9.1323 H   0  0  0  0  0  0
   32.4785   35.3583   -7.5342 H   0  0  0  0  0  0
   31.8480   33.7416   -7.9983 H   0  0  0  0  0  0
   35.3467   31.6935   -4.5781 H   0  0  0  0  0  0
   34.1138   31.2455   -1.7161 H   0  0  0  0  0  0
   36.9724   30.6419   -2.4290 H   0  0  0  0  0  0
   35.9046   29.9173   -1.1794 H   0  0  0  0  0  0
   35.2383   30.3080   -4.8118 H   0  0  0  0  0  0
   36.1279   27.5780   -1.6320 H   0  0  0  0  0  0
   34.8069   28.4546   -6.3370 H   0  0  0  0  0  0
   35.7023   25.6680   -3.1995 H   0  0  0  0  0  0
   34.6984   26.2232   -6.8248 H   0  0  0  0  0  0
   37.5606   31.7427   -2.3978 H   0  0  0  0  0  0
   37.1725   34.6035   -2.9910 H   0  0  0  0  0  0
   39.9438   34.2797   -2.3588 H   0  0  0  0  0  0
   39.4128   32.8187   -3.2589 H   0  0  0  0  0  0
   40.2312   34.4927   -4.6665 H   0  0  0  0  0  0
   38.6847   35.3197   -0.9169 H   0  0  0  0  0  0
   36.9664   34.9085   -0.5929 H   0  0  0  0  0  0
   38.4852   33.7899    1.0629 H   0  0  0  0  0  0
  1  2  1  0  0  0
  1 40  1  0  0  0
  1 41  1  0  0  0
  1 42  1  0  0  0
  2  3  1  0  0  0
  2  5  1  0  0  0
  2 43  1  0  0  0
  3  4  2  0  0  0
  3  9  1  0  0  0
  5  6  1  0  0  0
  5 44  1  0  0  0
  5 45  1  0  0  0
  6  7  1  0  0  0
  6  8  1  0  0  0
  6 46  1  0  0  0
  7 47  1  0  0  0
  7 48  1  0  0  0
  7 49  1  0  0  0
  8 50  1  0  0  0
  8 51  1  0  0  0
  8 52  1  0  0  0
  9 10  1  0  0  0
  9 53  1  0  0  0
 10 11  1  0  0  0
 10 13  1  0  0  0
 10 54  1  0  0  0
 11 12  2  0  0  0
 11 14  1  0  0  0
 13 55  1  0  0  0
 13 56  1  0  0  0
 13 57  1  0  0  0
 14 15  1  0  0  0
 14 58  1  0  0  0
 15 16  1  0  0  0
 15 18  1  0  0  0
 15 59  1  0  0  0
 16 17  2  0  0  0
 16 22  1  0  0  0
 18 19  1  0  0  0
 18 20  1  0  0  0
 18 60  1  0  0  0
 19 21  1  0  0  0
 19 61  1  0  0  0
 19 62  1  0  0  0
 20 63  1  0  0  0
 20 64  1  0  0  0
 20 65  1  0  0  0
 21 66  1  0  0  0
 21 67  1  0  0  0
 21 68  1  0  0  0
 22 23  1  0  0  0
 22 69  1  0  0  0
 23 24  1  0  0  0
 23 26  1  0  0  0
 23 70  1  0  0  0
 24 25  2  0  0  0
 24 34  1  0  0  0
 26 27  1  0  0  0
 26 71  1  0  0  0
 26 72  1  0  0  0
 27 28  2  0  0  0
 27 29  1  0  0  0
 28 30  1  0  0  0
 28 73  1  0  0  0
 29 31  2  0  0  0
 29 74  1  0  0  0
 30 32  2  0  0  0
 30 75  1  0  0  0
 31 32  1  0  0  0
 31 76  1  0  0  0
 32 33  1  0  0  0
 33 77  1  0  0  0
 34 35  1  0  0  0
 34 78  1  0  0  0
 35 36  1  0  0  0
 35 38  1  0  0  0
 35 79  1  0  0  0
 36 37  1  0  0  0
 36 80  1  0  0  0
 36 81  1  0  0  0
 37 82  1  0  0  0
 38 39  1  0  0  0
 38 83  1  0  0  0
 38 84  1  0  0  0
 39 85  1  0  0  0
M  CHG  1   1   1
M  END
> <s_m_source_file>
../1t37_ligand.sdf

> <i_m_source_file_index>
1

> <s_epik_input>
W0NIM11bQ0hdKFtDSDNdKVtDSDJdW0NASF0oW05IMytdKUMoPU8pW05IXVtDQEBIXShbQ0gzXSlDKD1PKVtOSF1bQ0BASF0oW0NAQEhdKFtDSDNdKVtDSDJdW0NIM10pQyg9TylbTkhdW0NASF0oQyg9TylbTkhdW0NIXShbQ0gyXVtPSF0pW0NIMl1bT0hdKVtDSDJdYzFbY0hdW2NIXWMoW09IXSlbY0hdW2NIXTE=

> <s_epik_cmdline>
J2VwaWtfYXBwJywgJy1pbWFlJywgJ2xpZ2FuZF9wcm8ubWFlJywgJy1vbWFlJywgJ2xpZ2FuZF9wcmVwLm1hZScsICctbXMnLCAnMScsICctcGgnLCAnNycsICctcGh0JywgJzAuNScsICctbnQn

> <r_lp_tautomer_probability>
0.999999999997365

> <r_epik_Ionization_Penalty>
  0.0901

> <r_epik_Ionization_Penalty_Charging>
  0.0892

> <r_epik_Ionization_Penalty_Neutral>
  0.0008

> <r_epik_State_Penalty>
  0.0796

> <r_epik_Charging_Adjusted_Penalty>
0.168870586508276

> <i_epik_Tot_Q>
1

> <i_epik_Tot_abs_Q>
1

$$$$
