1t3t_ligand
                    3D
 Schrodinger Suite 2020-3.
 39 41  0  0  1  0            999 V2000
   93.7690   86.1420  -53.1460 P   0  0  0  0  0  0
   93.6050   87.6040  -53.0560 O   0  0  0  0  0  0
   92.7390   85.4150  -53.9160 O   0  5  0  0  0  0
   95.1570   85.7250  -53.7330 O   0  5  0  0  0  0
   93.3360   84.2910  -50.8960 P   0  0  2  0  0  0
   94.2280   83.1970  -51.2790 O   0  0  0  0  0  0
   91.8650   84.2030  -51.1280 O   0  5  0  0  0  0
   93.7880   85.6820  -51.5830 O   0  0  0  0  0  0
   93.5340   84.6440  -49.3640 O   0  0  0  0  0  0
   92.6760   85.6010  -48.7050 C   0  0  0  0  0  0
   93.4390   86.3000  -47.5810 C   0  0  1  0  0  0
   94.0170   85.3210  -46.7150 O   0  0  0  0  0  0
   94.5750   87.1880  -48.0580 C   0  0  1  0  0  0
   94.5760   88.3200  -47.2070 O   0  0  0  0  0  0
   95.8150   86.3200  -47.8150 C   0  0  1  0  0  0
   97.0070   87.0050  -47.5810 O   0  0  0  0  0  0
   95.4130   85.4860  -46.5930 C   0  0  2  0  0  0
   96.0240   84.1470  -46.6010 N   0  0  0  0  0  0
   95.8020   83.1390  -47.5160 C   0  0  0  0  0  0
   96.5010   82.0610  -47.2480 N   0  0  0  0  0  0
   97.2300   82.3820  -46.0870 C   0  0  0  0  0  0
   98.1510   81.6530  -45.3270 C   0  0  0  0  0  0
   98.5230   80.4480  -45.6090 N   0  0  0  0  0  0
   98.6260   82.3320  -44.2580 N   0  0  0  0  0  0
   98.2870   83.5880  -43.9210 C   0  0  0  0  0  0
   97.4210   84.3410  -44.6140 N   0  0  0  0  0  0
   96.9590   83.6620  -45.6540 C   0  0  0  0  0  0
   92.3368   86.3520  -49.4336 H   0  0  0  0  0  0
   91.8040   85.0811  -48.2815 H   0  0  0  0  0  0
   92.7117   86.9042  -47.0189 H   0  0  0  0  0  0
   94.5068   87.5933  -49.0783 H   0  0  0  0  0  0
   93.7513   89.0462  -47.2568 H   0  0  0  0  0  0
   96.1494   85.7857  -48.7165 H   0  0  0  0  0  0
   97.4328   87.6509  -48.3630 H   0  0  0  0  0  0
   95.6836   85.9594  -45.6377 H   0  0  0  0  0  0
   95.1236   83.2276  -48.3646 H   0  0  0  0  0  0
   98.1083   79.9363  -46.4900 H   0  0  0  0  0  0
   99.2544   79.9339  -44.9680 H   0  0  0  0  0  0
   98.7436   84.0205  -43.0307 H   0  0  0  0  0  0
  1  2  2  0  0  0
  1  3  1  0  0  0
  1  4  1  0  0  0
  1  8  1  0  0  0
  5  6  2  0  0  0
  5  7  1  0  0  0
  5  8  1  0  0  0
  5  9  1  0  0  0
  9 10  1  0  0  0
 10 11  1  0  0  0
 10 28  1  0  0  0
 10 29  1  0  0  0
 11 12  1  0  0  0
 11 13  1  0  0  0
 11 30  1  0  0  0
 12 17  1  0  0  0
 13 14  1  0  0  0
 13 15  1  0  0  0
 13 31  1  0  0  0
 14 32  1  0  0  0
 15 16  1  0  0  0
 15 17  1  0  0  0
 15 33  1  0  0  0
 16 34  1  0  0  0
 17 18  1  0  0  0
 17 35  1  0  0  0
 18 19  1  0  0  0
 18 27  1  0  0  0
 19 20  2  0  0  0
 19 36  1  0  0  0
 20 21  1  0  0  0
 21 22  2  0  0  0
 21 27  1  0  0  0
 22 23  1  0  0  0
 22 24  1  0  0  0
 23 37  1  0  0  0
 23 38  1  0  0  0
 24 25  2  0  0  0
 25 26  1  0  0  0
 25 39  1  0  0  0
 26 27  2  0  0  0
M  CHG  3   3  -1   4  -1   7  -1
M  END
> <s_m_source_file>
../1t3t_ligand.sdf

> <i_m_source_file_index>
1

> <s_epik_input>
Tz1QKFtPSF0pKFtPSF0pT1tQQF0oPU8pKFtPSF0pT1tDSDJdW0NASF0xT1tDQEhdKFtDQEhdKFtPSF0pW0NAQEhdMVtPSF0pbihbY0hdbjIpYyhjMjMpbltjSF1uYzNbTkgyXQ==

> <s_epik_cmdline>
J2VwaWtfYXBwJywgJy1pbWFlJywgJ2xpZ2FuZF9wcm8ubWFlJywgJy1vbWFlJywgJ2xpZ2FuZF9wcmVwLm1hZScsICctbXMnLCAnMScsICctcGgnLCAnNycsICctcGh0JywgJzAuNScsICctbnQn

> <r_lp_tautomer_probability>
0.999997216410988

> <r_epik_Ionization_Penalty>
  0.1037

> <r_epik_Ionization_Penalty_Charging>
  0.1033

> <r_epik_Ionization_Penalty_Neutral>
  0.0004

> <r_epik_State_Penalty>
  0.0922

> <r_epik_Charging_Adjusted_Penalty>
0.19546844050481

> <i_epik_Tot_Q>
-3

> <i_epik_Tot_abs_Q>
3

> <s_epik_Chemistry_Notes>
This compound contains an acetal/aminal-like group ( X-CH(R)-Y where X, Y are N, S, or O) that may be acid/base labile, releasing an aldehyde.

$$$$
