1t46_ligand
                    3D
 Schrodinger Suite 2020-3.
 69 73  0  0  1  0            999 V2000
   32.6960   24.7000   47.5410 C   0  0  0  0  0  0
   31.8180   25.4090   46.7190 C   0  0  0  0  0  0
   30.6070   24.8220   46.3550 C   0  0  0  0  0  0
   30.2890   23.5400   46.7930 C   0  0  0  0  0  0
   31.1560   22.8770   47.5750 N   0  0  0  0  0  0
   32.3300   23.4240   47.9550 C   0  0  0  0  0  0
   29.6570   25.5420   45.4790 C   0  0  0  0  0  0
   29.9720   26.7830   44.9260 C   0  0  0  0  0  0
   29.0340   27.3880   44.0930 C   0  0  0  0  0  0
   27.8540   26.7890   43.8490 N   0  0  0  0  0  0
   27.5660   25.5940   44.4210 C   0  0  0  0  0  0
   28.4650   24.9750   45.2160 N   0  0  0  0  0  0
   26.4040   24.9540   44.2010 N   0  0  0  0  0  0
   25.3470   25.5110   43.5600 C   0  0  0  0  0  0
   24.2990   26.0650   44.2940 C   0  0  0  0  0  0
   23.2070   26.6100   43.6280 C   0  0  0  0  0  0
   23.1490   26.6030   42.2330 C   0  0  0  0  0  0
   24.1950   26.0540   41.4950 C   0  0  0  0  0  0
   25.2830   25.4900   42.1650 C   0  0  0  0  0  0
   24.0610   26.0500   40.0970 N   0  0  0  0  0  0
   24.9820   25.6240   39.2380 C   0  0  0  0  0  0
   24.6520   25.6310   37.7790 C   0  0  0  0  0  0
   25.4430   24.8950   36.8960 C   0  0  0  0  0  0
   25.1350   24.8970   35.5390 C   0  0  0  0  0  0
   24.0400   25.6290   35.0810 C   0  0  0  0  0  0
   23.2420   26.3570   35.9610 C   0  0  0  0  0  0
   23.5530   26.3490   37.3180 C   0  0  0  0  0  0
   23.7080   25.6150   33.6100 C   0  0  0  0  0  0
   23.6120   26.9460   33.0270 N   0  3  1  0  0  0
   24.7780   27.8090   33.1870 C   0  0  0  0  0  0
   24.4070   29.2250   32.7690 C   0  0  0  0  0  0
   23.8580   29.1530   31.4220 N   0  0  2  0  0  0
   23.8300   30.4370   30.7290 C   0  0  0  0  0  0
   22.6960   28.3020   31.1910 C   0  0  0  0  0  0
   22.9660   26.9000   31.7180 C   0  0  0  0  0  0
   26.0670   25.2150   39.5910 O   0  0  0  0  0  0
   24.3250   26.0840   45.8060 C   0  0  0  0  0  0
   33.6456   25.1363   47.8508 H   0  0  0  0  0  0
   32.0758   26.4078   46.3667 H   0  0  0  0  0  0
   29.3449   23.0784   46.5039 H   0  0  0  0  0  0
   33.0027   22.8558   48.5974 H   0  0  0  0  0  0
   30.9255   27.2659   45.1397 H   0  0  0  0  0  0
   29.2570   28.3522   43.6361 H   0  0  0  0  0  0
   26.2719   23.9187   44.5485 H   0  0  0  0  0  0
   22.3886   27.0468   44.2002 H   0  0  0  0  0  0
   22.2851   27.0272   41.7214 H   0  0  0  0  0  0
   26.0892   25.0294   41.5941 H   0  0  0  0  0  0
   23.1355   26.4206   39.6321 H   0  0  0  0  0  0
   26.2944   24.3237   37.2658 H   0  0  0  0  0  0
   25.7465   24.3293   34.8376 H   0  0  0  0  0  0
   22.3872   26.9242   35.5926 H   0  0  0  0  0  0
   22.9341   26.9066   38.0210 H   0  0  0  0  0  0
   24.4911   25.0699   33.0626 H   0  0  0  0  0  0
   22.7394   25.1165   33.4574 H   0  0  0  0  0  0
   22.9219   27.5219   33.6611 H   0  0  0  0  0  0
   25.0960   27.8042   34.2400 H   0  0  0  0  0  0
   25.5982   27.4382   32.5546 H   0  0  0  0  0  0
   23.6601   29.6298   33.4678 H   0  0  0  0  0  0
   25.3055   29.8593   32.7849 H   0  0  0  0  0  0
   24.7439   31.0015   30.9659 H   0  0  0  0  0  0
   22.9498   31.0105   31.0551 H   0  0  0  0  0  0
   23.7752   30.2667   29.6436 H   0  0  0  0  0  0
   21.8237   28.7232   31.7122 H   0  0  0  0  0  0
   22.4885   28.2497   30.1120 H   0  0  0  0  0  0
   23.6193   26.3758   31.0050 H   0  0  0  0  0  0
   22.0086   26.3645   31.8002 H   0  0  0  0  0  0
   25.2543   25.6157   46.1626 H   0  0  0  0  0  0
   23.4605   25.5258   46.1946 H   0  0  0  0  0  0
   24.2791   27.1243   46.1604 H   0  0  0  0  0  0
  1  2  2  0  0  0
  1  6  1  0  0  0
  1 38  1  0  0  0
  2  3  1  0  0  0
  2 39  1  0  0  0
  3  4  2  0  0  0
  3  7  1  0  0  0
  4  5  1  0  0  0
  4 40  1  0  0  0
  5  6  2  0  0  0
  6 41  1  0  0  0
  7  8  2  0  0  0
  7 12  1  0  0  0
  8  9  1  0  0  0
  8 42  1  0  0  0
  9 10  2  0  0  0
  9 43  1  0  0  0
 10 11  1  0  0  0
 11 12  2  0  0  0
 11 13  1  0  0  0
 13 14  1  0  0  0
 13 44  1  0  0  0
 14 15  2  0  0  0
 14 19  1  0  0  0
 15 16  1  0  0  0
 15 37  1  0  0  0
 16 17  2  0  0  0
 16 45  1  0  0  0
 17 18  1  0  0  0
 17 46  1  0  0  0
 18 19  2  0  0  0
 18 20  1  0  0  0
 19 47  1  0  0  0
 20 21  1  0  0  0
 20 48  1  0  0  0
 21 22  1  0  0  0
 21 36  2  0  0  0
 22 23  2  0  0  0
 22 27  1  0  0  0
 23 24  1  0  0  0
 23 49  1  0  0  0
 24 25  2  0  0  0
 24 50  1  0  0  0
 25 26  1  0  0  0
 25 28  1  0  0  0
 26 27  2  0  0  0
 26 51  1  0  0  0
 27 52  1  0  0  0
 28 29  1  0  0  0
 28 53  1  0  0  0
 28 54  1  0  0  0
 29 30  1  0  0  0
 29 35  1  0  0  0
 29 55  1  0  0  0
 30 31  1  0  0  0
 30 56  1  0  0  0
 30 57  1  0  0  0
 31 32  1  0  0  0
 31 58  1  0  0  0
 31 59  1  0  0  0
 32 33  1  0  0  0
 32 34  1  0  0  0
 33 60  1  0  0  0
 33 61  1  0  0  0
 33 62  1  0  0  0
 34 35  1  0  0  0
 34 63  1  0  0  0
 34 64  1  0  0  0
 35 65  1  0  0  0
 35 66  1  0  0  0
 37 67  1  0  0  0
 37 68  1  0  0  0
 37 69  1  0  0  0
M  CHG  1  29   1
M  END
> <s_m_source_file>
../1t46_ligand.sdf

> <i_m_source_file_index>
1

> <s_epik_input>
W2NIXTFuW2NIXVtjSF1bY0hdYzEtYzJbY0hdW2NIXW5jKG4yKVtOSF1jM2MoW0NIM10pW2NIXVtjSF1jKFtjSF0zKVtOSF1DKD1PKWM0W2NIXVtjSF1jKFtjSF1bY0hdNClbQ0gyXVtOQEgrXTVbQ0gyXVtDSDJdW05ASCtdKFtDSDNdKVtDSDJdW0NIMl01

> <s_epik_cmdline>
J2VwaWtfYXBwJywgJy1pbWFlJywgJ2xpZ2FuZF9wcm8ubWFlJywgJy1vbWFlJywgJ2xpZ2FuZF9wcmVwLm1hZScsICctbXMnLCAnMScsICctcGgnLCAnNycsICctcGh0JywgJzAuNScsICctbnQn

> <r_lp_tautomer_probability>
1

> <r_epik_Ionization_Penalty>
  0.0173

> <r_epik_Ionization_Penalty_Charging>
  0.0155

> <r_epik_Ionization_Penalty_Neutral>
  0.0019

> <r_epik_State_Penalty>
 -0.0000

> <r_epik_Charging_Adjusted_Penalty>
0.0154526225118262

> <i_epik_Tot_Q>
1

> <i_epik_Tot_abs_Q>
1

$$$$
