1t48_ligand
                    3D
 Schrodinger Suite 2020-3.
 44 46  0  0  1  0            999 V2000
   48.6060   31.1550   25.9510 Br  0  0  0  0  0  0
   50.4400   30.9340   25.6340 C   0  0  0  0  0  0
   51.2350   30.4560   26.7650 C   0  0  0  0  0  0
   50.7290   30.2220   27.8890 O   0  5  0  0  0  0
   52.6640   30.2570   26.5230 C   0  0  0  0  0  0
   53.6820   29.6420   27.9680 Br  0  0  0  0  0  0
   53.2220   30.5310   25.2820 C   0  0  0  0  0  0
   51.0450   31.1900   24.4020 C   0  0  0  0  0  0
   52.4220   30.9820   24.2320 C   0  0  0  0  0  0
   53.0650   31.2630   22.9060 C   0  0  0  0  0  0
   52.5540   32.0930   22.1590 O   0  0  0  0  0  0
   54.1870   30.6490   22.5100 C   0  0  0  0  0  0
   54.6610   29.4340   22.8460 C   0  0  0  0  0  0
   54.0160   28.4220   23.7550 C   0  0  0  0  0  0
   55.1230   27.8280   24.6190 C   0  0  0  0  0  0
   55.1950   31.2310   21.5740 C   0  0  0  0  0  0
   55.2470   32.4340   20.8940 C   0  0  0  0  0  0
   56.2690   30.2560   21.4750 C   0  0  0  0  0  0
   55.9600   29.1660   22.2390 O   0  0  0  0  0  0
   57.3860   30.4870   20.7030 C   0  0  0  0  0  0
   57.4290   31.7010   20.0190 C   0  0  0  0  0  0
   56.3890   32.6430   20.1230 C   0  0  0  0  0  0
   58.8020   32.0390   19.0210 S   0  0  0  0  0  0
   59.1930   30.8750   18.2780 O   0  0  0  0  0  0
   58.4490   33.1340   18.0870 O   0  0  0  0  0  0
   60.1210   32.5230   20.0110 N   0  0  0  0  0  0
   59.8570   33.2870   21.2170 C   0  0  0  0  0  0
   61.4860   32.1720   19.6500 C   0  0  0  0  0  0
   54.2920   30.3929   25.1269 H   0  0  0  0  0  0
   50.4445   31.5533   23.5681 H   0  0  0  0  0  0
   53.2602   28.9199   24.3802 H   0  0  0  0  0  0
   53.5339   27.6402   23.1498 H   0  0  0  0  0  0
   54.6938   27.0798   25.3016 H   0  0  0  0  0  0
   55.6001   28.6277   25.2046 H   0  0  0  0  0  0
   55.8738   27.3480   23.9741 H   0  0  0  0  0  0
   54.4465   33.1711   20.9570 H   0  0  0  0  0  0
   58.1939   29.7589   20.6306 H   0  0  0  0  0  0
   56.4809   33.5805   19.5746 H   0  0  0  0  0  0
   58.7740   33.4514   21.3172 H   0  0  0  0  0  0
   60.3711   34.2576   21.1561 H   0  0  0  0  0  0
   60.2259   32.7309   22.0914 H   0  0  0  0  0  0
   61.4810   31.5977   18.7118 H   0  0  0  0  0  0
   61.9319   31.5631   20.4503 H   0  0  0  0  0  0
   62.0771   33.0898   19.5149 H   0  0  0  0  0  0
  1  2  1  0  0  0
  2  3  2  0  0  0
  2  8  1  0  0  0
  3  4  1  0  0  0
  3  5  1  0  0  0
  5  6  1  0  0  0
  5  7  2  0  0  0
  7  9  1  0  0  0
  7 29  1  0  0  0
  8  9  2  0  0  0
  8 30  1  0  0  0
  9 10  1  0  0  0
 10 11  2  0  0  0
 10 12  1  0  0  0
 12 13  2  0  0  0
 12 16  1  0  0  0
 13 14  1  0  0  0
 13 19  1  0  0  0
 14 15  1  0  0  0
 14 31  1  0  0  0
 14 32  1  0  0  0
 15 33  1  0  0  0
 15 34  1  0  0  0
 15 35  1  0  0  0
 16 17  2  0  0  0
 16 18  1  0  0  0
 17 22  1  0  0  0
 17 36  1  0  0  0
 18 19  1  0  0  0
 18 20  2  0  0  0
 20 21  1  0  0  0
 20 37  1  0  0  0
 21 22  2  0  0  0
 21 23  1  0  0  0
 22 38  1  0  0  0
 23 24  2  0  0  0
 23 25  2  0  0  0
 23 26  1  0  0  0
 26 27  1  0  0  0
 26 28  1  0  0  0
 27 39  1  0  0  0
 27 40  1  0  0  0
 27 41  1  0  0  0
 28 42  1  0  0  0
 28 43  1  0  0  0
 28 44  1  0  0  0
M  CHG  1   4  -1
M  END
> <s_m_source_file>
../1t48_ligand.sdf

> <i_m_source_file_index>
1

> <s_epik_input>
QnJjMWMoW09IXSljKEJyKVtjSF1jKFtjSF0xKUMoPU8pYzJjKFtDSDJdW0NIM10pb2MoYzIzKVtjSF1jKFtjSF1bY0hdMylTKD1PKSg9TylOKFtDSDNdKVtDSDNd

> <s_epik_cmdline>
J2VwaWtfYXBwJywgJy1pbWFlJywgJ2xpZ2FuZF9wcm8ubWFlJywgJy1vbWFlJywgJ2xpZ2FuZF9wcmVwLm1hZScsICctbXMnLCAnMScsICctcGgnLCAnNycsICctcGh0JywgJzAuNScsICctbnQn

> <r_lp_tautomer_probability>
1

> <r_epik_Ionization_Penalty>
  0.0056

> <r_epik_Ionization_Penalty_Charging>
  0.0056

> <r_epik_Ionization_Penalty_Neutral>
  0.0000

> <r_epik_State_Penalty>
 -0.0000

> <r_epik_Charging_Adjusted_Penalty>
0.00558817493841849

> <i_epik_Tot_Q>
-1

> <i_epik_Tot_abs_Q>
1

$$$$
