1t49_ligand
                    3D
 Schrodinger Suite 2020-3.
 52 55  0  0  1  0            999 V2000
   48.2310   31.0850   25.3520 Br  0  0  0  0  0  0
   50.0730   30.8090   25.1170 C   0  0  0  0  0  0
   50.8270   30.3510   26.2890 C   0  0  0  0  0  0
   50.2030   30.1470   27.4770 O   0  5  0  0  0  0
   52.2680   30.1190   26.1290 C   0  0  0  0  0  0
   53.2550   29.5300   27.6260 Br  0  0  0  0  0  0
   52.8540   30.3460   24.8880 C   0  0  0  0  0  0
   50.7280   31.0090   23.9050 C   0  0  0  0  0  0
   52.1020   30.7770   23.7900 C   0  0  0  0  0  0
   52.7590   31.0090   22.4530 C   0  0  0  0  0  0
   52.2050   31.7870   21.6820 O   0  0  0  0  0  0
   53.9010   30.3970   22.0720 C   0  0  0  0  0  0
   54.3990   29.2000   22.4460 C   0  0  0  0  0  0
   53.7990   28.2240   23.4270 C   0  0  0  0  0  0
   54.8930   27.7140   24.3460 C   0  0  0  0  0  0
   54.8840   30.9410   21.0840 C   0  0  0  0  0  0
   54.9290   32.1140   20.3490 C   0  0  0  0  0  0
   55.9480   29.9510   20.9680 C   0  0  0  0  0  0
   55.6660   28.8970   21.7820 O   0  0  0  0  0  0
   57.0290   30.1380   20.1280 C   0  0  0  0  0  0
   57.0640   31.3220   19.3990 C   0  0  0  0  0  0
   56.0390   32.2780   19.5100 C   0  0  0  0  0  0
   58.3950   31.5720   18.3290 S   0  0  0  0  0  0
   58.3540   30.5670   17.2680 O   0  0  0  0  0  0
   58.2710   32.9100   17.7430 O   0  0  0  0  0  0
   59.8900   31.3950   19.1730 N   0  5  0  0  0  0
   60.1670   32.0780   20.3060 C   0  0  0  0  0  0
   61.0290   31.5140   21.2400 C   0  0  0  0  0  0
   59.6120   33.3340   20.5460 C   0  0  0  0  0  0
   59.9200   34.0180   21.7210 C   0  0  0  0  0  0
   60.7850   33.4460   22.6530 C   0  0  0  0  0  0
   61.3390   32.1950   22.4120 C   0  0  0  0  0  0
   61.1870   34.3070   24.1580 S   0  0  0  0  0  0
   61.3820   33.3420   25.2250 O   0  0  0  0  0  0
   62.4070   35.0710   23.9640 O   0  0  0  0  0  0
   59.9120   35.3260   24.5510 N   0  0  0  0  0  0
   53.9252   30.1841   24.7682 H   0  0  0  0  0  0
   50.1640   31.3499   23.0368 H   0  0  0  0  0  0
   53.0224   28.7301   24.0192 H   0  0  0  0  0  0
   53.3515   27.3817   22.8791 H   0  0  0  0  0  0
   54.4645   27.0009   25.0656 H   0  0  0  0  0  0
   55.3392   28.5599   24.8895 H   0  0  0  0  0  0
   55.6685   27.2115   23.7492 H   0  0  0  0  0  0
   54.1446   32.8676   20.4194 H   0  0  0  0  0  0
   57.8185   29.3916   20.0406 H   0  0  0  0  0  0
   56.1113   33.1889   18.9158 H   0  0  0  0  0  0
   61.4642   30.5324   21.0523 H   0  0  0  0  0  0
   58.9377   33.7810   19.8155 H   0  0  0  0  0  0
   59.4850   34.9992   21.9110 H   0  0  0  0  0  0
   62.0156   31.7480   23.1404 H   0  0  0  0  0  0
   60.1468   35.8654   25.4804 H   0  0  0  0  0  0
   58.9977   34.7312   24.6933 H   0  0  0  0  0  0
  1  2  1  0  0  0
  2  3  2  0  0  0
  2  8  1  0  0  0
  3  4  1  0  0  0
  3  5  1  0  0  0
  5  6  1  0  0  0
  5  7  2  0  0  0
  7  9  1  0  0  0
  7 37  1  0  0  0
  8  9  2  0  0  0
  8 38  1  0  0  0
  9 10  1  0  0  0
 10 11  2  0  0  0
 10 12  1  0  0  0
 12 13  2  0  0  0
 12 16  1  0  0  0
 13 14  1  0  0  0
 13 19  1  0  0  0
 14 15  1  0  0  0
 14 39  1  0  0  0
 14 40  1  0  0  0
 15 41  1  0  0  0
 15 42  1  0  0  0
 15 43  1  0  0  0
 16 17  2  0  0  0
 16 18  1  0  0  0
 17 22  1  0  0  0
 17 44  1  0  0  0
 18 19  1  0  0  0
 18 20  2  0  0  0
 20 21  1  0  0  0
 20 45  1  0  0  0
 21 22  2  0  0  0
 21 23  1  0  0  0
 22 46  1  0  0  0
 23 24  2  0  0  0
 23 25  2  0  0  0
 23 26  1  0  0  0
 26 27  1  0  0  0
 27 28  2  0  0  0
 27 29  1  0  0  0
 28 32  1  0  0  0
 28 47  1  0  0  0
 29 30  2  0  0  0
 29 48  1  0  0  0
 30 31  1  0  0  0
 30 49  1  0  0  0
 31 32  2  0  0  0
 31 33  1  0  0  0
 32 50  1  0  0  0
 33 34  2  0  0  0
 33 35  2  0  0  0
 33 36  1  0  0  0
 36 51  1  0  0  0
 36 52  1  0  0  0
M  CHG  2   4  -1  26  -1
M  END
> <s_m_source_file>
../1t49_ligand.sdf

> <i_m_source_file_index>
1

> <s_epik_input>
QnJjMWMoW09IXSljKEJyKVtjSF1jKFtjSF0xKUMoPU8pYzJjKFtDSDJdW0NIM10pb2MoYzIzKVtjSF1jKFtjSF1bY0hdMylTKD1PKSg9TylbTkhdYzRbY0hdW2NIXWMoW2NIXVtjSF00KVMoPU8pKD1PKVtOSDJd

> <s_epik_cmdline>
J2VwaWtfYXBwJywgJy1pbWFlJywgJ2xpZ2FuZF9wcm8ubWFlJywgJy1vbWFlJywgJ2xpZ2FuZF9wcmVwLm1hZScsICctbXMnLCAnMScsICctcGgnLCAnNycsICctcGh0JywgJzAuNScsICctbnQn

> <r_epik_Ionization_Penalty>
  0.3077

> <r_epik_Ionization_Penalty_Charging>
  0.3074

> <r_epik_Ionization_Penalty_Neutral>
  0.0004

> <r_epik_State_Penalty>
  0.2953

> <r_epik_Charging_Adjusted_Penalty>
0.60267522804312

> <i_epik_Tot_Q>
-2

> <i_epik_Tot_abs_Q>
2

$$$$
