1t69_ligand
                    3D
 Schrodinger Suite 2020-3.
 39 39  0  0  1  0            999 V2000
   28.1170   -2.3830   -6.7170 O   0  0  0  0  0  0
   28.9070   -1.2850   -8.9660 O   0  0  0  0  0  0
   29.2620   -2.5080   -7.1600 N   0  0  0  0  0  0
   29.4990   -2.2090   -8.4230 C   0  0  0  0  0  0
   30.5260   -3.0790   -9.1240 C   0  0  0  0  0  0
   30.2290   -3.1560  -10.6170 C   0  0  0  0  0  0
   30.1860   -4.5830  -11.1480 C   0  0  0  0  0  0
   29.0160   -4.7240  -12.1150 C   0  0  0  0  0  0
   29.4480   -5.1720  -13.5050 C   0  0  0  0  0  0
   29.1480   -4.0950  -14.5380 C   0  0  0  0  0  0
   30.0860   -4.2530  -15.7110 C   0  0  0  0  0  0
   31.1070   -4.9240  -15.6220 O   0  0  0  0  0  0
   29.6830   -3.6430  -16.8310 N   0  0  0  0  0  0
   30.4660   -3.0430  -17.7610 C   0  0  0  0  0  0
   29.9570   -1.9040  -18.4040 C   0  0  0  0  0  0
   30.7120   -1.2440  -19.3730 C   0  0  0  0  0  0
   31.9770   -1.7310  -19.7030 C   0  0  0  0  0  0
   32.4830   -2.8780  -19.0690 C   0  0  0  0  0  0
   31.7290   -3.5420  -18.1010 C   0  0  0  0  0  0
   27.9040   -2.6284   -5.6661 H   0  0  0  0  0  0
   30.0696   -2.8648   -6.5040 H   0  0  0  0  0  0
   31.5288   -2.6504   -8.9805 H   0  0  0  0  0  0
   30.4970   -4.0939   -8.7007 H   0  0  0  0  0  0
   29.2505   -2.6965  -10.8203 H   0  0  0  0  0  0
   31.0098   -2.6178  -11.1744 H   0  0  0  0  0  0
   31.1267   -4.8077  -11.6720 H   0  0  0  0  0  0
   30.0575   -5.2827  -10.3090 H   0  0  0  0  0  0
   28.3076   -5.4707  -11.7270 H   0  0  0  0  0  0
   28.5067   -3.7545  -12.2183 H   0  0  0  0  0  0
   30.5296   -5.3725  -13.5059 H   0  0  0  0  0  0
   28.9050   -6.0882  -13.7802 H   0  0  0  0  0  0
   28.1081   -4.1964  -14.8819 H   0  0  0  0  0  0
   29.2892   -3.1027  -14.0848 H   0  0  0  0  0  0
   28.6115   -3.5925  -17.0748 H   0  0  0  0  0  0
   28.9655   -1.5331  -18.1444 H   0  0  0  0  0  0
   30.3177   -0.3564  -19.8677 H   0  0  0  0  0  0
   32.5757   -1.2191  -20.4564 H   0  0  0  0  0  0
   33.4717   -3.2518  -19.3353 H   0  0  0  0  0  0
   32.1181   -4.4373  -17.6160 H   0  0  0  0  0  0
  1  3  1  0  0  0
  1 20  1  0  0  0
  2  4  2  0  0  0
  3  4  1  0  0  0
  3 21  1  0  0  0
  4  5  1  0  0  0
  5  6  1  0  0  0
  5 22  1  0  0  0
  5 23  1  0  0  0
  6  7  1  0  0  0
  6 24  1  0  0  0
  6 25  1  0  0  0
  7  8  1  0  0  0
  7 26  1  0  0  0
  7 27  1  0  0  0
  8  9  1  0  0  0
  8 28  1  0  0  0
  8 29  1  0  0  0
  9 10  1  0  0  0
  9 30  1  0  0  0
  9 31  1  0  0  0
 10 11  1  0  0  0
 10 32  1  0  0  0
 10 33  1  0  0  0
 11 12  2  0  0  0
 11 13  1  0  0  0
 13 14  1  0  0  0
 13 34  1  0  0  0
 14 15  2  0  0  0
 14 19  1  0  0  0
 15 16  1  0  0  0
 15 35  1  0  0  0
 16 17  2  0  0  0
 16 36  1  0  0  0
 17 18  1  0  0  0
 17 37  1  0  0  0
 18 19  2  0  0  0
 18 38  1  0  0  0
 19 39  1  0  0  0
M  END
> <s_m_source_file>
../1t69_ligand.sdf

> <i_m_source_file_index>
1

> <s_epik_input>
W09IXVtOSF1DKD1PKVtDSDJdW0NIMl1bQ0gyXVtDSDJdW0NIMl1bQ0gyXUMoPU8pW05IXWMxW2NIXVtjSF1bY0hdW2NIXVtjSF0x

> <s_epik_cmdline>
J2VwaWtfYXBwJywgJy1pbWFlJywgJ2xpZ2FuZF9wcm8ubWFlJywgJy1vbWFlJywgJ2xpZ2FuZF9wcmVwLm1hZScsICctbXMnLCAnMScsICctcGgnLCAnNycsICctcGh0JywgJzAuNScsICctbnQn

> <r_lp_tautomer_probability>
1

> <r_epik_Ionization_Penalty>
  0.0036

> <r_epik_Ionization_Penalty_Charging>
  0.0000

> <r_epik_Ionization_Penalty_Neutral>
  0.0036

> <r_epik_State_Penalty>
 -0.0000

> <r_epik_Charging_Adjusted_Penalty>
0

> <i_epik_Tot_Q>
0

> <i_epik_Tot_abs_Q>
0

> <s_epik_Chemistry_Notes>
This compound has a N-S or N-O group and may undergo hydrolysis at high or low pH.

$$$$
