1t79_ligand
                    3D
 Schrodinger Suite 2020-3.
131133  0  0  1  0            999 V2000
   14.9630    5.5030   54.0520 N   0  3  0  0  0  0
   14.7050    5.3260   52.5980 C   0  0  2  0  0  0
   14.2420    6.6340   51.9670 C   0  0  0  0  0  0
   13.9650    7.6140   52.6620 O   0  0  0  0  0  0
   13.6370    4.2520   52.3750 C   0  0  0  0  0  0
   12.3730    4.6800   52.8530 O   0  0  0  0  0  0
   14.1600    6.6300   50.6410 N   0  0  0  0  0  0
   13.7400    7.7920   49.8670 C   0  0  2  0  0  0
   12.3220    8.2420   50.2350 C   0  0  0  0  0  0
   12.0440    9.4390   50.3060 O   0  0  0  0  0  0
   13.8080    7.4610   48.3730 C   0  0  0  0  0  0
   13.5840    8.6400   47.4340 C   0  0  0  0  0  0
   13.5950    8.1780   45.9730 C   0  0  0  0  0  0
   13.3340    9.3230   45.0000 C   0  0  0  0  0  0
   13.1320    8.8300   43.5960 N   0  3  0  0  0  0
   11.4270    7.2830   50.4550 N   0  0  0  0  0  0
   10.0370    7.5960   50.8070 C   0  0  2  0  0  0
    9.9870    8.2340   52.1980 C   0  0  0  0  0  0
    9.3950    9.2980   52.3930 O   0  0  0  0  0  0
    9.1970    6.3160   50.7810 C   0  0  0  0  0  0
    7.7510    6.5220   51.1460 C   0  0  0  0  0  0
    6.8740    7.1330   50.2580 C   0  0  0  0  0  0
    7.2650    6.0850   52.3740 C   0  0  0  0  0  0
    5.5240    7.3030   50.5880 C   0  0  0  0  0  0
    5.9210    6.2490   52.7160 C   0  0  0  0  0  0
    5.0500    6.8600   51.8170 C   0  0  0  0  0  0
   10.6300    7.5790   53.1580 N   0  0  0  0  0  0
   10.6770    8.0700   54.5290 C   0  0  2  0  0  0
   11.2700    9.4800   54.6020 C   0  0  0  0  0  0
   10.8990   10.2760   55.4700 O   0  0  0  0  0  0
   11.4920    7.1100   55.3950 C   0  0  0  0  0  0
   12.1820    9.7920   53.6840 N   0  0  0  0  0  0
   12.8230   11.1030   53.6660 C   0  0  2  0  0  0
   11.8320   12.2360   53.4250 C   0  0  0  0  0  0
   12.1230   13.4020   53.7070 O   0  0  0  0  0  0
   13.9270   11.1380   52.6040 C   0  0  0  0  0  0
   10.6590   11.8960   52.9040 N   0  0  0  0  0  0
    9.6350   12.8970   52.6390 C   0  0  2  0  0  0
    9.0880   13.4900   53.9340 C   0  0  0  0  0  0
    8.3460   14.4710   53.9070 O   0  0  0  0  0  0
    8.4920   12.2840   51.8210 C   0  0  0  0  0  0
    8.8620   11.8600   50.3960 C   0  0  0  0  0  0
    7.6720   11.1890   49.7270 C   0  0  0  0  0  0
    9.3000   13.0790   49.5970 C   0  0  0  0  0  0
    9.4680   12.8940   55.0620 N   0  0  0  0  0  0
    9.0340   13.3510   56.3800 C   0  0  2  0  0  0
   10.1410   14.0810   57.1470 C   0  0  0  0  0  0
    9.8750   14.7450   58.1520 O   0  0  0  0  0  0
    8.5390   12.1610   57.2110 C   0  0  0  0  0  0
    7.0850   11.8370   56.9960 C   0  0  0  0  0  0
    6.0250   12.2650   57.7500 C   0  0  0  0  0  0
    6.5290   11.0550   55.9320 C   0  0  0  0  0  0
    4.8420   11.7990   57.2180 N   0  3  0  0  0  0
    5.1230   11.0540   56.1020 C   0  0  0  0  0  0
    7.0800   10.3570   54.8480 C   0  0  0  0  0  0
    4.2620   10.3790   55.2280 C   0  0  0  0  0  0
    6.2220    9.6870   53.9770 C   0  0  0  0  0  0
    4.8260    9.7040   54.1760 C   0  0  0  0  0  0
   11.3800   13.9560   56.6820 N   0  0  0  0  0  0
   12.4920   14.6150   57.3580 C   0  0  2  0  0  0
   12.3430   16.1310   57.3280 C   0  0  0  0  0  0
   11.7420   16.6480   56.3610 O   0  0  0  0  0  0
   13.8210   14.2280   56.7100 C   0  0  0  0  0  0
   14.0880   12.7410   56.7740 C   0  0  0  0  0  0
   13.9200   12.1470   57.8580 O   0  5  0  0  0  0
   14.4760   12.1620   55.7410 O   0  0  0  0  0  0
   12.8131   16.8452   58.2535 O   0  5  0  0  0  0
   15.2952    4.5477   54.4844 H   0  0  0  0  0  0
   14.0389    5.8298   54.5512 H   0  0  0  0  0  0
   15.7457    6.2624   54.1957 H   0  0  0  0  0  0
   15.6601    5.0176   52.1478 H   0  0  0  0  0  0
   13.5515    4.0377   51.2995 H   0  0  0  0  0  0
   13.9224    3.3343   52.9102 H   0  0  0  0  0  0
   11.4989    4.0180   52.7653 H   0  0  0  0  0  0
   14.4268    5.6944   50.1277 H   0  0  0  0  0  0
   14.4499    8.5882   50.1357 H   0  0  0  0  0  0
   14.8015    7.0546   48.1323 H   0  0  0  0  0  0
   13.0375    6.7154   48.1272 H   0  0  0  0  0  0
   12.6108    9.1035   47.6531 H   0  0  0  0  0  0
   14.3839    9.3811   47.5787 H   0  0  0  0  0  0
   14.5772    7.7450   45.7328 H   0  0  0  0  0  0
   12.8131    7.4191   45.8225 H   0  0  0  0  0  0
   12.4285    9.8665   45.3078 H   0  0  0  0  0  0
   14.1930   10.0101   45.0034 H   0  0  0  0  0  0
   12.9475    9.6857   42.9299 H   0  0  0  0  0  0
   12.2680    8.1498   43.5670 H   0  0  0  0  0  0
   14.0325    8.2934   43.2627 H   0  0  0  0  0  0
   11.7496    6.2350   50.3677 H   0  0  0  0  0  0
    9.6652    8.3062   50.0537 H   0  0  0  0  0  0
    9.2171    5.8848   49.7693 H   0  0  0  0  0  0
    9.6113    5.5909   51.4969 H   0  0  0  0  0  0
    7.2412    7.4839   49.2936 H   0  0  0  0  0  0
    7.9438    5.6071   53.0803 H   0  0  0  0  0  0
    4.8457    7.7821   49.8820 H   0  0  0  0  0  0
    5.5553    5.9005   53.6819 H   0  0  0  0  0  0
    3.9995    6.9903   52.0767 H   0  0  0  0  0  0
   11.1367    6.6394   52.8926 H   0  0  0  0  0  0
    9.6290    8.1016   54.8617 H   0  0  0  0  0  0
   11.0565    6.1017   55.3342 H   0  0  0  0  0  0
   11.4752    7.4543   56.4396 H   0  0  0  0  0  0
   12.5309    7.0831   55.0345 H   0  0  0  0  0  0
   12.4498    9.0384   52.9288 H   0  0  0  0  0  0
   13.2389   11.2156   54.6781 H   0  0  0  0  0  0
   14.6368   10.3175   52.7858 H   0  0  0  0  0  0
   14.4572   12.1003   52.6579 H   0  0  0  0  0  0
   13.4795   11.0213   51.6059 H   0  0  0  0  0  0
   10.4670   10.8380   52.6721 H   0  0  0  0  0  0
   10.1484   13.6840   52.0671 H   0  0  0  0  0  0
    8.1205   11.3818   52.3289 H   0  0  0  0  0  0
    7.6751   13.0147   51.7274 H   0  0  0  0  0  0
    9.6931   11.1400   50.4278 H   0  0  0  0  0  0
    7.3676   10.3109   50.3155 H   0  0  0  0  0  0
    7.9532   10.8708   48.7123 H   0  0  0  0  0  0
    6.8347   11.9001   49.6695 H   0  0  0  0  0  0
   10.1602   13.5527   50.0928 H   0  0  0  0  0  0
    8.4690   13.7973   49.5390 H   0  0  0  0  0  0
    9.5875   12.7680   48.5818 H   0  0  0  0  0  0
   10.1358   12.0243   54.9738 H   0  0  0  0  0  0
    8.2231   14.0619   56.1629 H   0  0  0  0  0  0
    9.1173   11.2634   56.9467 H   0  0  0  0  0  0
    8.6711   12.3805   58.2807 H   0  0  0  0  0  0
    6.1987   12.8901   58.6383 H   0  0  0  0  0  0
    8.1582   10.3386   54.6893 H   0  0  0  0  0  0
    3.1825   10.3897   55.3784 H   0  0  0  0  0  0
    6.6366    9.1416   53.1292 H   0  0  0  0  0  0
    4.1814    9.1691   53.4786 H   0  0  0  0  0  0
   11.5642   13.3512   55.7818 H   0  0  0  0  0  0
   12.4399   14.2547   58.3960 H   0  0  0  0  0  0
   13.8124   14.5242   55.6507 H   0  0  0  0  0  0
   14.6446   14.7415   57.2276 H   0  0  0  0  0  0
    3.8856   12.0503   57.6998 H   0  0  0  0  0  0
  1  2  1  0  0  0
  1 68  1  0  0  0
  1 69  1  0  0  0
  1 70  1  0  0  0
  2  5  1  0  0  0
  2  3  1  0  0  0
  2 71  1  0  0  0
  3  4  2  0  0  0
  3  7  1  0  0  0
  5  6  1  0  0  0
  5 72  1  0  0  0
  5 73  1  0  0  0
  6 74  1  0  0  0
  7  8  1  0  0  0
  7 75  1  0  0  0
  8 11  1  0  0  0
  8  9  1  0  0  0
  8 76  1  0  0  0
  9 10  2  0  0  0
  9 16  1  0  0  0
 11 12  1  0  0  0
 11 77  1  0  0  0
 11 78  1  0  0  0
 12 13  1  0  0  0
 12 79  1  0  0  0
 12 80  1  0  0  0
 13 14  1  0  0  0
 13 81  1  0  0  0
 13 82  1  0  0  0
 14 15  1  0  0  0
 14 83  1  0  0  0
 14 84  1  0  0  0
 15 85  1  0  0  0
 15 86  1  0  0  0
 15 87  1  0  0  0
 16 17  1  0  0  0
 16 88  1  0  0  0
 17 20  1  0  0  0
 17 18  1  0  0  0
 17 89  1  0  0  0
 18 19  2  0  0  0
 18 27  1  0  0  0
 20 21  1  0  0  0
 20 90  1  0  0  0
 20 91  1  0  0  0
 21 22  2  0  0  0
 21 23  1  0  0  0
 22 24  1  0  0  0
 22 92  1  0  0  0
 23 25  2  0  0  0
 23 93  1  0  0  0
 24 26  2  0  0  0
 24 94  1  0  0  0
 25 26  1  0  0  0
 25 95  1  0  0  0
 26 96  1  0  0  0
 27 28  1  0  0  0
 27 97  1  0  0  0
 28 31  1  0  0  0
 28 29  1  0  0  0
 28 98  1  0  0  0
 29 30  2  0  0  0
 29 32  1  0  0  0
 31 99  1  0  0  0
 31100  1  0  0  0
 31101  1  0  0  0
 32 33  1  0  0  0
 32102  1  0  0  0
 33 36  1  0  0  0
 33 34  1  0  0  0
 33103  1  0  0  0
 34 35  2  0  0  0
 34 37  1  0  0  0
 36104  1  0  0  0
 36105  1  0  0  0
 36106  1  0  0  0
 37 38  1  0  0  0
 37107  1  0  0  0
 38 41  1  0  0  0
 38 39  1  0  0  0
 38108  1  0  0  0
 39 40  2  0  0  0
 39 45  1  0  0  0
 41 42  1  0  0  0
 41109  1  0  0  0
 41110  1  0  0  0
 42 43  1  0  0  0
 42 44  1  0  0  0
 42111  1  0  0  0
 43112  1  0  0  0
 43113  1  0  0  0
 43114  1  0  0  0
 44115  1  0  0  0
 44116  1  0  0  0
 44117  1  0  0  0
 45 46  1  0  0  0
 45118  1  0  0  0
 46 49  1  0  0  0
 46 47  1  0  0  0
 46119  1  0  0  0
 47 48  2  0  0  0
 47 59  1  0  0  0
 49 50  1  0  0  0
 49120  1  0  0  0
 49121  1  0  0  0
 50 51  2  0  0  0
 50 52  1  0  0  0
 51 53  1  0  0  0
 51122  1  0  0  0
 52 55  2  0  0  0
 52 54  1  0  0  0
 53 54  1  0  0  0
 53131  1  0  0  0
 54 56  2  0  0  0
 55 57  1  0  0  0
 55123  1  0  0  0
 56 58  1  0  0  0
 56124  1  0  0  0
 57 58  2  0  0  0
 57125  1  0  0  0
 58126  1  0  0  0
 59 60  1  0  0  0
 59127  1  0  0  0
 60 63  1  0  0  0
 60 61  1  0  0  0
 60128  1  0  0  0
 61 62  2  0  0  0
 61 67  1  0  0  0
 63 64  1  0  0  0
 63129  1  0  0  0
 63130  1  0  0  0
 64 66  2  0  0  0
 64 65  1  0  0  0
M  CHG  5   1   1  15   1  53   1  65  -1  67  -1
M  END
> <s_m_source_file>
../1t79_ligand.sdf

> <i_m_source_file_index>
1

> <s_epik_input>
W09IXVtDSDJdW0NASF0oW05IMytdKUMoPU8pW05IXVtDQEBIXShbQ0gyXVtDSDJdW0NIMl1bQ0gyXVtOSDMrXSlDKD1PKVtOSF1bQ0BASF0oW0NIMl1jMVtjSF1bY0hdW2NIXVtjSF1bY0hdMSlDKD1PKVtOSF1bQ0BASF0oW0NIM10pQyg9TylbTkhdW0NAQEhdKFtDSDNdKUMoPU8pW05IXVtDQEBIXShbQ0gyXVtDSF0oW0NIM10pW0NIM10pQyg9TylbTkhdW0NASF0oQyg9TylbTkhdW0NASF0oQyg9TylbT0hdKVtDSDJdQyg9TylbT0hdKVtDSDJdYzJbY0hdW25IXWMoYzIzKVtjSF1bY0hdW2NIXVtjSF0z

> <s_epik_cmdline>
J2VwaWtfYXBwJywgJy1pbWFlJywgJ2xpZ2FuZF9wcm8ubWFlJywgJy1vbWFlJywgJ2xpZ2FuZF9wcmVwLm1hZScsICctbXMnLCAnMScsICctcGgnLCAnNycsICctcGh0JywgJzAuNScsICctbnQn

> <r_epik_Ionization_Penalty>
  0.1517

> <r_epik_Ionization_Penalty_Charging>
  0.1517

> <r_epik_Ionization_Penalty_Neutral>
  0.0000

> <r_epik_State_Penalty>
  0.1391

> <r_epik_Charging_Adjusted_Penalty>
0.2908086778791

> <i_epik_Tot_Q>
1

> <i_epik_Tot_abs_Q>
5

$$$$
