1t7d_ligand
                    3D
 Schrodinger Suite 2020-3.
 88 90  0  0  1  0            999 V2000
   -2.4720   59.2060    3.8130 C   0  0  0  0  0  0
   -2.1830   58.1320    4.8670 C   0  0  0  0  0  0
   -1.5180   58.4170    5.8640 O   0  0  0  0  0  0
   -2.6670   56.9110    4.6460 N   0  0  0  0  0  0
   -3.4100   56.6990    3.3920 C   0  0  0  0  0  0
   -2.4040   55.8560    5.6390 C   0  0  2  0  0  0
   -1.0990   55.1350    5.2910 C   0  0  0  0  0  0
   -1.1850   54.5820    3.9750 O   0  0  0  0  0  0
   -3.5330   54.8260    5.7380 C   0  0  0  0  0  0
   -4.1460   54.4540    4.7380 O   0  0  0  0  0  0
   -3.7850   54.3970    6.9730 N   0  0  0  0  0  0
   -4.7950   53.3700    7.2710 C   0  0  2  0  0  0
   -5.3270   53.5340    8.6970 C   0  0  0  0  0  0
   -4.0880   52.0220    7.1290 C   0  0  0  0  0  0
   -2.9230   51.8900    7.5030 O   0  0  0  0  0  0
   -4.8020   51.0410    6.5880 N   0  0  0  0  0  0
   -4.2350   49.7040    6.3540 C   0  0  0  0  0  0
   -3.8270   49.0030    7.6530 C   0  0  0  0  0  0
   -4.0050   49.5490    8.7400 O   0  0  0  0  0  0
   -3.2370   47.8160    7.5230 N   0  0  0  0  0  0
   -2.9920   47.3320    6.1550 C   0  0  0  0  0  0
   -2.8490   47.0620    8.7250 C   0  0  2  0  0  0
   -1.3300   47.0140    8.9110 C   0  0  0  0  0  0
   -0.5570   47.4040    8.0380 O   0  0  0  0  0  0
   -0.9630   46.4710   10.0690 N   0  0  0  0  0  0
    0.4270   46.2540   10.4960 C   0  0  1  0  0  0
    0.9020   47.4170   11.3710 C   0  0  0  0  0  0
    0.4280   44.9540   11.3030 C   0  0  0  0  0  0
   -0.1200   44.9020   12.4030 O   0  0  0  0  0  0
    1.0180   43.9160   10.7180 N   0  0  0  0  0  0
    1.0960   42.5810   11.3330 C   0  0  2  0  0  0
    2.2350   42.5030   12.3520 C   0  0  0  0  0  0
    2.2760   41.5770   13.1610 O   0  5  0  0  0  0
    3.1170   43.3600   12.3710 O   0  0  0  0  0  0
    1.3000   41.5090   10.2570 C   0  0  0  0  0  0
    0.1330   41.3990    9.2710 C   0  0  0  0  0  0
   -0.9130   42.3150    9.3010 C   0  0  0  0  0  0
    0.1200   40.3840    8.3160 C   0  0  0  0  0  0
   -0.9310   40.2990    7.4080 C   0  0  0  0  0  0
   -1.9730   41.2220    7.4430 C   0  0  0  0  0  0
   -2.9820   41.1290    6.5380 O   0  0  0  0  0  0
   -1.9670   42.2420    8.3950 C   0  0  0  0  0  0
   -2.9220   43.2530    8.4130 C   0  0  0  0  0  0
   -2.4830   44.5690    8.5230 C   0  0  0  0  0  0
   -3.3800   45.6290    8.6170 C   0  0  0  0  0  0
   -4.7470   45.3710    8.5950 C   0  0  0  0  0  0
   -5.1960   44.0580    8.4730 C   0  0  0  0  0  0
   -4.2940   43.0020    8.3800 C   0  0  0  0  0  0
   -4.7620   41.7300    8.2610 O   0  0  0  0  0  0
   -2.0154   60.1572    4.1240 H   0  0  0  0  0  0
   -3.5595   59.3370    3.7117 H   0  0  0  0  0  0
   -2.0486   58.8947    2.8467 H   0  0  0  0  0  0
   -3.4641   57.6451    2.8335 H   0  0  0  0  0  0
   -4.4276   56.3509    3.6231 H   0  0  0  0  0  0
   -2.8932   55.9427    2.7830 H   0  0  0  0  0  0
   -2.3369   56.3927    6.5968 H   0  0  0  0  0  0
   -0.2636   55.8495    5.3306 H   0  0  0  0  0  0
   -0.9234   54.3251    6.0143 H   0  0  0  0  0  0
   -0.3339   54.0255    3.5556 H   0  0  0  0  0  0
   -3.1992   54.8454    7.7890 H   0  0  0  0  0  0
   -5.6362   53.4815    6.5710 H   0  0  0  0  0  0
   -5.8337   54.5059    8.7898 H   0  0  0  0  0  0
   -4.4893   53.4878    9.4084 H   0  0  0  0  0  0
   -6.0402   52.7261    8.9174 H   0  0  0  0  0  0
   -5.8460   51.2515    6.3128 H   0  0  0  0  0  0
   -4.9809   49.0727    5.8490 H   0  0  0  0  0  0
   -3.3395   49.7911    5.7211 H   0  0  0  0  0  0
   -3.3706   48.0694    5.4319 H   0  0  0  0  0  0
   -3.5107   46.3734    6.0068 H   0  0  0  0  0  0
   -1.9115   47.1915    6.0038 H   0  0  0  0  0  0
   -3.2989   47.6071    9.5678 H   0  0  0  0  0  0
   -1.7931   46.1760   10.7277 H   0  0  0  0  0  0
    1.0737   46.1974    9.6080 H   0  0  0  0  0  0
    0.8972   48.3454   10.7811 H   0  0  0  0  0  0
    1.9227   47.2144   11.7277 H   0  0  0  0  0  0
    0.2274   47.5267   12.2329 H   0  0  0  0  0  0
    1.4611   44.0916    9.7266 H   0  0  0  0  0  0
    0.1326   42.4401   11.8448 H   0  0  0  0  0  0
    2.2022   41.7429    9.6728 H   0  0  0  0  0  0
    1.4183   40.5261   10.7364 H   0  0  0  0  0  0
   -0.9072   43.1069   10.0500 H   0  0  0  0  0  0
    0.9320   39.6577    8.2804 H   0  0  0  0  0  0
   -0.9387   39.5033    6.6631 H   0  0  0  0  0  0
   -2.9782   40.3214    5.7911 H   0  0  0  0  0  0
   -1.4126   44.7742    8.5358 H   0  0  0  0  0  0
   -5.4615   46.1904    8.6727 H   0  0  0  0  0  0
   -6.2667   43.8551    8.4501 H   0  0  0  0  0  0
   -4.0567   40.8891    8.1869 H   0  0  0  0  0  0
  1  2  1  0  0  0
  1 50  1  0  0  0
  1 51  1  0  0  0
  1 52  1  0  0  0
  2  3  2  0  0  0
  2  4  1  0  0  0
  4  5  1  0  0  0
  4  6  1  0  0  0
  5 53  1  0  0  0
  5 54  1  0  0  0
  5 55  1  0  0  0
  6  7  1  0  0  0
  6  9  1  0  0  0
  6 56  1  0  0  0
  7  8  1  0  0  0
  7 57  1  0  0  0
  7 58  1  0  0  0
  8 59  1  0  0  0
  9 10  2  0  0  0
  9 11  1  0  0  0
 11 12  1  0  0  0
 11 60  1  0  0  0
 12 13  1  0  0  0
 12 14  1  0  0  0
 12 61  1  0  0  0
 13 62  1  0  0  0
 13 63  1  0  0  0
 13 64  1  0  0  0
 14 15  2  0  0  0
 14 16  1  0  0  0
 16 17  1  0  0  0
 16 65  1  0  0  0
 17 18  1  0  0  0
 17 66  1  0  0  0
 17 67  1  0  0  0
 18 19  2  0  0  0
 18 20  1  0  0  0
 20 21  1  0  0  0
 20 22  1  0  0  0
 21 68  1  0  0  0
 21 69  1  0  0  0
 21 70  1  0  0  0
 22 23  1  0  0  0
 22 45  1  0  0  0
 22 71  1  0  0  0
 23 24  2  0  0  0
 23 25  1  0  0  0
 25 26  1  0  0  0
 25 72  1  0  0  0
 26 27  1  0  0  0
 26 28  1  0  0  0
 26 73  1  0  0  0
 27 74  1  0  0  0
 27 75  1  0  0  0
 27 76  1  0  0  0
 28 29  2  0  0  0
 28 30  1  0  0  0
 30 31  1  0  0  0
 30 77  1  0  0  0
 31 32  1  0  0  0
 31 35  1  0  0  0
 31 78  1  0  0  0
 32 33  1  0  0  0
 32 34  2  0  0  0
 35 36  1  0  0  0
 35 79  1  0  0  0
 35 80  1  0  0  0
 36 37  2  0  0  0
 36 38  1  0  0  0
 37 42  1  0  0  0
 37 81  1  0  0  0
 38 39  2  0  0  0
 38 82  1  0  0  0
 39 40  1  0  0  0
 39 83  1  0  0  0
 40 41  1  0  0  0
 40 42  2  0  0  0
 41 84  1  0  0  0
 42 43  1  0  0  0
 43 44  2  0  0  0
 43 48  1  0  0  0
 44 45  1  0  0  0
 44 85  1  0  0  0
 45 46  2  0  0  0
 46 47  1  0  0  0
 46 86  1  0  0  0
 47 48  2  0  0  0
 47 87  1  0  0  0
 48 49  1  0  0  0
 49 88  1  0  0  0
M  CHG  1  33  -1
M  END
> <s_m_source_file>
../1t7d_ligand.sdf

> <i_m_source_file_index>
1

> <s_epik_input>
W0NIM11DKD1PKU4oW0NIM10pW0NASF0oW0NIMl1bT0hdKUMoPU8pW05IXVtDQEhdKFtDSDNdKUMoPU8pW05IXVtDSDJdQyg9TylOKFtDSDNdKVtDQEBIXShjKFtjSF1bY0hdYzFbT0hdKVtjSF1jMWMoW2NIXWMyMyljKFtPSF0pW2NIXVtjSF0zKUMoPU8pW05IXVtDQEBIXShbQ0gzXSlDKD1PKVtOSF1bQ0BASF0oW0NIMl0yKUMoPU8pW09IXQ==

> <s_epik_cmdline>
J2VwaWtfYXBwJywgJy1pbWFlJywgJ2xpZ2FuZF9wcm8ubWFlJywgJy1vbWFlJywgJ2xpZ2FuZF9wcmVwLm1hZScsICctbXMnLCAnMScsICctcGgnLCAnNycsICctcGh0JywgJzAuNScsICctbnQn

> <r_lp_tautomer_probability>
0.99999999999473

> <r_epik_Ionization_Penalty>
  0.1632

> <r_epik_Ionization_Penalty_Charging>
  0.0002

> <r_epik_Ionization_Penalty_Neutral>
  0.1630

> <r_epik_State_Penalty>
  0.1374

> <r_epik_Charging_Adjusted_Penalty>
0.137676905593457

> <i_epik_Tot_Q>
-1

> <i_epik_Tot_abs_Q>
1

$$$$
