1t7f_ligand
                    3D
 Schrodinger Suite 2020-3.
136137  0  0  1  0            999 V2000
   14.0790    5.5970   54.7410 N   0  3  0  0  0  0
   13.8940    5.6560   53.2620 C   0  0  0  0  0  0
   13.5840    7.0530   52.7560 C   0  0  0  0  0  0
   13.3820    7.9770   53.5460 O   0  0  0  0  0  0
   13.5480    7.2090   51.4350 N   0  0  0  0  0  0
   13.2570    8.5010   50.8250 C   0  0  2  0  0  0
   11.8450    8.9480   51.1820 C   0  0  0  0  0  0
   11.5580   10.1450   51.2310 O   0  0  0  0  0  0
   13.3950    8.4190   49.3020 C   0  0  0  0  0  0
   14.7760    8.0940   48.7270 C   0  0  0  0  0  0
   14.6840    8.0270   47.2100 C   0  0  0  0  0  0
   15.7870    9.1500   49.1560 C   0  0  0  0  0  0
   10.9650    7.9800   51.4240 N   0  0  0  0  0  0
    9.5850    8.2790   51.7850 C   0  0  2  0  0  0
    9.5700    8.8910   53.1800 C   0  0  0  0  0  0
    8.9130    9.9030   53.4200 O   0  0  0  0  0  0
    8.7400    7.0020   51.7750 C   0  0  0  0  0  0
    7.2460    7.1770   52.0700 C   0  0  0  0  0  0
    6.6130    8.0190   50.9760 C   0  0  0  0  0  0
    6.5650    5.8200   52.1540 C   0  0  0  0  0  0
   10.3050    8.2660   54.0960 N   0  0  0  0  0  0
   10.3930    8.7480   55.4680 C   0  0  2  0  0  0
   10.9540   10.1650   55.4980 C   0  0  0  0  0  0
   10.4670   11.0180   56.2400 O   0  0  0  0  0  0
   11.2770    7.8120   56.2980 C   0  0  0  0  0  0
   11.5900    8.3290   57.6690 C   0  0  0  0  0  0
   12.6580    9.0970   58.0330 C   0  0  0  0  0  0
   10.8090    8.1410   58.8540 C   0  0  0  0  0  0
   12.5920    9.3990   59.3710 N   0  3  0  0  0  0
   11.4640    8.8260   59.9010 C   0  0  0  0  0  0
    9.6140    7.4620   59.1340 C   0  0  0  0  0  0
   10.9690    8.8510   61.2090 C   0  0  0  0  0  0
    9.1200    7.4860   60.4360 C   0  0  0  0  0  0
    9.7990    8.1780   61.4560 C   0  0  0  0  0  0
   11.9800   10.4090   54.6880 N   0  0  0  0  0  0
   12.5960   11.7280   54.6090 C   0  0  2  0  0  0
   11.5850   12.7270   54.0610 C   0  0  0  0  0  0
   11.5110   13.8710   54.5100 O   0  0  0  0  0  0
   13.8210   11.6860   53.6930 C   0  0  0  0  0  0
   14.9820   10.9300   54.3070 C   0  0  0  0  0  0
   14.7820    9.7790   54.7500 O   0  0  0  0  0  0
   16.1000   11.4880   54.3410 O   0  5  0  0  0  0
   10.8110   12.2760   53.0810 N   0  0  0  0  0  0
    9.7960   13.1030   52.4450 C   0  0  2  0  0  0
    8.7310   13.4680   53.4750 C   0  0  0  0  0  0
    8.3060   14.6200   53.5710 O   0  0  0  0  0  0
    9.1610   12.3260   51.2890 C   0  0  0  0  0  0
    8.6330   13.0770   50.0640 C   0  0  0  0  0  0
    8.0980   12.0580   49.0670 C   0  0  0  0  0  0
    7.5490   14.0680   50.4610 C   0  0  0  0  0  0
    8.3140   12.4720   54.2500 N   0  0  0  0  0  0
    7.2950   12.6490   55.2790 C   0  0  2  0  0  0
    7.7540   13.5670   56.4090 C   0  0  0  0  0  0
    6.9760   14.3780   56.9170 O   0  0  0  0  0  0
    6.9000   11.2820   55.8510 C   0  0  0  0  0  0
    5.8480   11.2450   56.9630 C   0  0  0  0  0  0
    4.5620   11.9060   56.4800 C   0  0  0  0  0  0
    5.5930    9.8000   57.3670 C   0  0  0  0  0  0
    9.0180   13.4400   56.7990 N   0  0  0  0  0  0
    9.5660   14.2600   57.8740 C   0  0  2  0  0  0
   10.2090   15.5340   57.3320 C   0  0  0  0  0  0
   10.9480   16.1870   58.0940 O   0  0  0  0  0  0
   10.6260   13.4780   58.6760 C   0  0  2  0  0  0
   11.6960   13.0850   57.8050 O   0  0  0  0  0  0
   10.0050   12.2350   59.2980 C   0  0  0  0  0  0
    9.9988   15.9141   56.1492 O   0  5  0  0  0  0
   14.2999    4.5623   55.0419 H   0  0  0  0  0  0
   13.1586    5.9353   55.2394 H   0  0  0  0  0  0
   14.9149    6.2500   55.0323 H   0  0  0  0  0  0
   14.8144    5.3177   52.7636 H   0  0  0  0  0  0
   13.0581    5.0030   52.9707 H   0  0  0  0  0  0
   13.7446    6.3327   50.7998 H   0  0  0  0  0  0
   13.9971    9.1989   51.2436 H   0  0  0  0  0  0
   12.7300    7.6327   48.9154 H   0  0  0  0  0  0
   13.1178    9.3856   48.8561 H   0  0  0  0  0  0
   15.1184    7.1202   49.1072 H   0  0  0  0  0  0
   13.9503    7.2602   46.9207 H   0  0  0  0  0  0
   15.6688    7.7677   46.7941 H   0  0  0  0  0  0
   14.3664    9.0046   46.8184 H   0  0  0  0  0  0
   15.8390    9.1831   50.2543 H   0  0  0  0  0  0
   15.4748   10.1331   48.7739 H   0  0  0  0  0  0
   16.7771    8.8962   48.7495 H   0  0  0  0  0  0
   11.2991    6.9348   51.3465 H   0  0  0  0  0  0
    9.2035    8.9862   51.0338 H   0  0  0  0  0  0
    8.8003    6.5302   50.7831 H   0  0  0  0  0  0
    9.1200    6.3049   52.5363 H   0  0  0  0  0  0
    7.1129    7.6874   53.0353 H   0  0  0  0  0  0
    7.1160    8.9961   50.9280 H   0  0  0  0  0  0
    5.5458    8.1665   51.1980 H   0  0  0  0  0  0
    6.7188    7.5043   50.0096 H   0  0  0  0  0  0
    7.0342    5.2229   52.9498 H   0  0  0  0  0  0
    6.6706    5.2966   51.1923 H   0  0  0  0  0  0
    5.4976    5.9588   52.3807 H   0  0  0  0  0  0
   10.8551    7.3626   53.7941 H   0  0  0  0  0  0
    9.3638    8.7488   55.8563 H   0  0  0  0  0  0
   10.7698    6.8440   56.4233 H   0  0  0  0  0  0
   12.2359    7.6592   55.7812 H   0  0  0  0  0  0
   13.4120    9.3808   57.2841 H   0  0  0  0  0  0
    9.0823    6.9260   58.3479 H   0  0  0  0  0  0
   11.4928    9.3848   62.0020 H   0  0  0  0  0  0
    8.1935    6.9609   60.6684 H   0  0  0  0  0  0
    9.3863    8.1794   62.4648 H   0  0  0  0  0  0
   12.3629    9.5851   54.0679 H   0  0  0  0  0  0
   12.8934   11.9958   55.6336 H   0  0  0  0  0  0
   13.5557   11.1884   52.7485 H   0  0  0  0  0  0
   14.1585   12.7120   53.4847 H   0  0  0  0  0  0
   10.9585   11.2365   52.7527 H   0  0  0  0  0  0
   10.2967   14.0087   52.0722 H   0  0  0  0  0  0
    9.8962   11.6211   50.8734 H   0  0  0  0  0  0
    8.2870   11.7692   51.6578 H   0  0  0  0  0  0
    9.4444   13.6563   49.5992 H   0  0  0  0  0  0
    8.8990   11.3544   48.7963 H   0  0  0  0  0  0
    7.7464   12.5783   48.1639 H   0  0  0  0  0  0
    7.2621   11.5052   49.5206 H   0  0  0  0  0  0
    7.9596   14.7919   51.1802 H   0  0  0  0  0  0
    6.7097   13.5277   50.9232 H   0  0  0  0  0  0
    7.1939   14.6008   49.5666 H   0  0  0  0  0  0
    8.7695   11.4834   54.0913 H   0  0  0  0  0  0
    6.4563   13.1338   54.7578 H   0  0  0  0  0  0
    6.4888   10.6533   55.0475 H   0  0  0  0  0  0
    7.7873   10.7940   56.2807 H   0  0  0  0  0  0
    6.2094   11.7970   57.8432 H   0  0  0  0  0  0
    4.7702   12.9476   56.1940 H   0  0  0  0  0  0
    3.8156   11.8898   57.2879 H   0  0  0  0  0  0
    4.1724   11.3576   55.6097 H   0  0  0  0  0  0
    6.5330    9.3442   57.7114 H   0  0  0  0  0  0
    5.2092    9.2396   56.5017 H   0  0  0  0  0  0
    4.8524    9.7718   58.1799 H   0  0  0  0  0  0
    9.6543   12.6985   56.2938 H   0  0  0  0  0  0
    8.6905   14.5086   58.4918 H   0  0  0  0  0  0
   11.0784   14.1103   59.4542 H   0  0  0  0  0  0
   12.2704   13.8487   57.2602 H   0  0  0  0  0  0
    9.1836   12.5311   59.9671 H   0  0  0  0  0  0
   10.7692   11.6922   59.8736 H   0  0  0  0  0  0
    9.6135   11.5836   58.5028 H   0  0  0  0  0  0
   13.3780   10.0124   59.8358 H   0  0  0  0  0  0
  1  2  1  0  0  0
  1 67  1  0  0  0
  1 68  1  0  0  0
  1 69  1  0  0  0
  2  3  1  0  0  0
  2 70  1  0  0  0
  2 71  1  0  0  0
  3  4  2  0  0  0
  3  5  1  0  0  0
  5  6  1  0  0  0
  5 72  1  0  0  0
  6  9  1  0  0  0
  6  7  1  0  0  0
  6 73  1  0  0  0
  7  8  2  0  0  0
  7 13  1  0  0  0
  9 10  1  0  0  0
  9 74  1  0  0  0
  9 75  1  0  0  0
 10 11  1  0  0  0
 10 12  1  0  0  0
 10 76  1  0  0  0
 11 77  1  0  0  0
 11 78  1  0  0  0
 11 79  1  0  0  0
 12 80  1  0  0  0
 12 81  1  0  0  0
 12 82  1  0  0  0
 13 14  1  0  0  0
 13 83  1  0  0  0
 14 17  1  0  0  0
 14 15  1  0  0  0
 14 84  1  0  0  0
 15 16  2  0  0  0
 15 21  1  0  0  0
 17 18  1  0  0  0
 17 85  1  0  0  0
 17 86  1  0  0  0
 18 19  1  0  0  0
 18 20  1  0  0  0
 18 87  1  0  0  0
 19 88  1  0  0  0
 19 89  1  0  0  0
 19 90  1  0  0  0
 20 91  1  0  0  0
 20 92  1  0  0  0
 20 93  1  0  0  0
 21 22  1  0  0  0
 21 94  1  0  0  0
 22 25  1  0  0  0
 22 23  1  0  0  0
 22 95  1  0  0  0
 23 24  2  0  0  0
 23 35  1  0  0  0
 25 26  1  0  0  0
 25 96  1  0  0  0
 25 97  1  0  0  0
 26 27  2  0  0  0
 26 28  1  0  0  0
 27 29  1  0  0  0
 27 98  1  0  0  0
 28 31  2  0  0  0
 28 30  1  0  0  0
 29 30  1  0  0  0
 29136  1  0  0  0
 30 32  2  0  0  0
 31 33  1  0  0  0
 31 99  1  0  0  0
 32 34  1  0  0  0
 32100  1  0  0  0
 33 34  2  0  0  0
 33101  1  0  0  0
 34102  1  0  0  0
 35 36  1  0  0  0
 35103  1  0  0  0
 36 39  1  0  0  0
 36 37  1  0  0  0
 36104  1  0  0  0
 37 38  2  0  0  0
 37 43  1  0  0  0
 39 40  1  0  0  0
 39105  1  0  0  0
 39106  1  0  0  0
 40 42  1  0  0  0
 40 41  2  0  0  0
 43 44  1  0  0  0
 43107  1  0  0  0
 44 47  1  0  0  0
 44 45  1  0  0  0
 44108  1  0  0  0
 45 46  2  0  0  0
 45 51  1  0  0  0
 47 48  1  0  0  0
 47109  1  0  0  0
 47110  1  0  0  0
 48 49  1  0  0  0
 48 50  1  0  0  0
 48111  1  0  0  0
 49112  1  0  0  0
 49113  1  0  0  0
 49114  1  0  0  0
 50115  1  0  0  0
 50116  1  0  0  0
 50117  1  0  0  0
 51 52  1  0  0  0
 51118  1  0  0  0
 52 55  1  0  0  0
 52 53  1  0  0  0
 52119  1  0  0  0
 53 54  2  0  0  0
 53 59  1  0  0  0
 55 56  1  0  0  0
 55120  1  0  0  0
 55121  1  0  0  0
 56 57  1  0  0  0
 56 58  1  0  0  0
 56122  1  0  0  0
 57123  1  0  0  0
 57124  1  0  0  0
 57125  1  0  0  0
 58126  1  0  0  0
 58127  1  0  0  0
 58128  1  0  0  0
 59 60  1  0  0  0
 59129  1  0  0  0
 60 63  1  0  0  0
 60 61  1  0  0  0
 60130  1  0  0  0
 61 62  2  0  0  0
 61 66  1  0  0  0
 63 65  1  0  0  0
 63 64  1  0  0  0
 63131  1  0  0  0
 64132  1  0  0  0
 65133  1  0  0  0
 65134  1  0  0  0
 65135  1  0  0  0
M  CHG  4   1   1  29   1  42  -1  66  -1
M  END
> <s_m_source_file>
../1t7f_ligand.sdf

> <i_m_source_file_index>
1

> <s_epik_input>
W05IMytdW0NIMl1DKD1PKVtOSF1bQ0BASF0oW0NIMl1bQ0hdKFtDSDNdKVtDSDNdKUMoPU8pW05IXVtDQEBIXShbQ0gyXVtDSF0oW0NIM10pW0NIM10pQyg9TylbTkhdW0NAQEhdKFtDSDJdYzFbY0hdW25IXWMoYzEyKVtjSF1bY0hdW2NIXVtjSF0yKUMoPU8pW05IXVtDQEBIXShbQ0gyXUMoPU8pW09IXSlDKD1PKVtOSF1bQ0BASF0oW0NIMl1bQ0hdKFtDSDNdKVtDSDNdKUMoPU8pW05IXVtDQEBIXShbQ0gyXVtDSF0oW0NIM10pW0NIM10pQyg9TylbTkhdW0NASF0oQyg9TylbT0hdKVtDQEhdKFtPSF0pW0NIM10=

> <s_epik_cmdline>
J2VwaWtfYXBwJywgJy1pbWFlJywgJ2xpZ2FuZF9wcm8ubWFlJywgJy1vbWFlJywgJ2xpZ2FuZF9wcmVwLm1hZScsICctbXMnLCAnMScsICctcGgnLCAnNycsICctcGh0JywgJzAuNScsICctbnQn

> <r_epik_Ionization_Penalty>
  0.1236

> <r_epik_Ionization_Penalty_Charging>
  0.1236

> <r_epik_Ionization_Penalty_Neutral>
  0.0000

> <r_epik_State_Penalty>
  0.1095

> <r_epik_Charging_Adjusted_Penalty>
0.233022861217089

> <i_epik_Tot_Q>
0

> <i_epik_Tot_abs_Q>
4

$$$$
