1ta2_ligand
                    3D
 Schrodinger Suite 2020-3.
 62 65  0  0  1  0            999 V2000
   15.8660  -16.7580   23.5030 N   0  3  0  0  0  0
   17.1550  -16.1010   23.4550 C   0  0  2  0  0  0
   17.7760  -15.9630   24.8830 C   0  0  0  0  0  0
   19.2120  -15.4260   24.9960 C   0  0  0  0  0  0
   20.2020  -15.8250   24.1330 C   0  0  0  0  0  0
   21.4950  -15.3760   24.3010 C   0  0  0  0  0  0
   21.8120  -14.5240   25.3310 C   0  0  0  0  0  0
   20.8240  -14.1130   26.1900 C   0  0  0  0  0  0
   19.5340  -14.5620   26.0220 C   0  0  0  0  0  0
   17.6640  -17.2060   25.7530 C   0  0  0  0  0  0
   17.8350  -18.4740   25.2130 C   0  0  0  0  0  0
   17.7410  -19.5790   26.0350 C   0  0  0  0  0  0
   17.4820  -19.4190   27.3820 C   0  0  0  0  0  0
   17.3150  -18.1500   27.9110 C   0  0  0  0  0  0
   17.4020  -17.0370   27.1040 C   0  0  0  0  0  0
   16.8700  -14.7370   22.8670 C   0  0  0  0  0  0
   15.9140  -14.0630   23.2910 O   0  0  0  0  0  0
   17.6840  -14.2690   21.9030 N   0  0  0  0  0  0
   18.8430  -14.9480   21.3240 C   0  0  0  0  0  0
   17.4520  -13.0160   21.1990 C   0  0  1  0  0  0
   18.5290  -13.0280   20.1110 C   0  0  0  0  0  0
   19.6380  -13.8030   20.7460 C   0  0  0  0  0  0
   16.0260  -12.8260   20.6590 C   0  0  0  0  0  0
   15.6730  -13.4810   19.6730 O   0  0  0  0  0  0
   15.2430  -11.8970   21.2410 N   0  0  0  0  0  0
   13.8920  -11.6010   20.8080 C   0  0  0  0  0  0
   12.9150  -11.5570   21.9770 C   0  0  0  0  0  0
   12.0460  -12.5690   22.2790 C   0  0  0  0  0  0
   11.1370  -12.5980   23.3220 C   0  0  0  0  0  0
   11.0810  -11.5020   24.1630 C   0  0  0  0  0  0
   11.9440  -10.4620   23.8820 C   0  0  0  0  0  0
   12.8300  -10.4940   22.8240 C   0  0  0  0  0  0
   12.0890  -13.8950   21.2070 Cl  0  0  0  0  0  0
   11.9280   -9.0600   24.8550 Cl  0  0  0  0  0  0
   15.9845  -17.7677   23.9230 H   0  0  0  0  0  0
   15.4531  -16.8301   22.4860 H   0  0  0  0  0  0
   15.1809  -16.1754   24.1365 H   0  0  0  0  0  0
   17.8302  -16.6996   22.8259 H   0  0  0  0  0  0
   17.1235  -15.1796   25.2960 H   0  0  0  0  0  0
   19.9650  -16.5001   23.3108 H   0  0  0  0  0  0
   22.2730  -15.7002   23.6099 H   0  0  0  0  0  0
   22.8371  -14.1783   25.4644 H   0  0  0  0  0  0
   21.0611  -13.4304   27.0060 H   0  0  0  0  0  0
   18.7558  -14.2303   26.7093 H   0  0  0  0  0  0
   18.0416  -18.5956   24.1497 H   0  0  0  0  0  0
   17.8713  -20.5787   25.6205 H   0  0  0  0  0  0
   17.4089  -20.2926   28.0297 H   0  0  0  0  0  0
   17.1129  -18.0309   28.9755 H   0  0  0  0  0  0
   17.2670  -16.0390   27.5210 H   0  0  0  0  0  0
   19.3849  -15.4873   22.1149 H   0  0  0  0  0  0
   18.5051  -15.6621   20.5586 H   0  0  0  0  0  0
   17.5425  -12.1846   21.9136 H   0  0  0  0  0  0
   18.1333  -13.5173   19.2088 H   0  0  0  0  0  0
   18.8187  -11.9945   19.8704 H   0  0  0  0  0  0
   20.1544  -13.2688   21.5572 H   0  0  0  0  0  0
   20.3798  -14.1941   20.0342 H   0  0  0  0  0  0
   15.6812  -11.3498   22.0887 H   0  0  0  0  0  0
   13.8736  -10.6215   20.3078 H   0  0  0  0  0  0
   13.5534  -12.3775   20.1063 H   0  0  0  0  0  0
   10.4854  -13.4582   23.4758 H   0  0  0  0  0  0
   10.3903  -11.4613   25.0053 H   0  0  0  0  0  0
   13.4848   -9.6381   22.6607 H   0  0  0  0  0  0
  1  2  1  0  0  0
  1 35  1  0  0  0
  1 36  1  0  0  0
  1 37  1  0  0  0
  2  3  1  0  0  0
  2 16  1  0  0  0
  2 38  1  0  0  0
  3  4  1  0  0  0
  3 10  1  0  0  0
  3 39  1  0  0  0
  4  5  2  0  0  0
  4  9  1  0  0  0
  5  6  1  0  0  0
  5 40  1  0  0  0
  6  7  2  0  0  0
  6 41  1  0  0  0
  7  8  1  0  0  0
  7 42  1  0  0  0
  8  9  2  0  0  0
  8 43  1  0  0  0
  9 44  1  0  0  0
 10 11  2  0  0  0
 10 15  1  0  0  0
 11 12  1  0  0  0
 11 45  1  0  0  0
 12 13  2  0  0  0
 12 46  1  0  0  0
 13 14  1  0  0  0
 13 47  1  0  0  0
 14 15  2  0  0  0
 14 48  1  0  0  0
 15 49  1  0  0  0
 16 17  2  0  0  0
 16 18  1  0  0  0
 18 19  1  0  0  0
 18 20  1  0  0  0
 19 22  1  0  0  0
 19 50  1  0  0  0
 19 51  1  0  0  0
 20 21  1  0  0  0
 20 23  1  0  0  0
 20 52  1  0  0  0
 21 22  1  0  0  0
 21 53  1  0  0  0
 21 54  1  0  0  0
 22 55  1  0  0  0
 22 56  1  0  0  0
 23 24  2  0  0  0
 23 25  1  0  0  0
 25 26  1  0  0  0
 25 57  1  0  0  0
 26 27  1  0  0  0
 26 58  1  0  0  0
 26 59  1  0  0  0
 27 28  2  0  0  0
 27 32  1  0  0  0
 28 29  1  0  0  0
 28 33  1  0  0  0
 29 30  2  0  0  0
 29 60  1  0  0  0
 30 31  1  0  0  0
 30 61  1  0  0  0
 31 32  2  0  0  0
 31 34  1  0  0  0
 32 62  1  0  0  0
M  CHG  1   1   1
M  END
> <s_m_source_file>
../1ta2_ligand.sdf

> <i_m_source_file_index>
1

> <s_epik_input>
W2NIXTFbY0hdW2NIXVtjSF1bY0hdYzFbQ0hdKGMyW2NIXVtjSF1bY0hdW2NIXVtjSF0yKVtDQEBIXShbTkgzK10pQyg9TylOM1tDSDJdW0NIMl1bQ0gyXVtDQEhdM0MoPU8pW05IXVtDSDJdYzRjKENsKVtjSF1bY0hdYyhDbClbY0hdNA==

> <s_epik_cmdline>
J2VwaWtfYXBwJywgJy1pbWFlJywgJ2xpZ2FuZF9wcm8ubWFlJywgJy1vbWFlJywgJ2xpZ2FuZF9wcmVwLm1hZScsICctbXMnLCAnMScsICctcGgnLCAnNycsICctcGh0JywgJzAuNScsICctbnQn

> <r_epik_Ionization_Penalty>
  0.2282

> <r_epik_Ionization_Penalty_Charging>
  0.2282

> <r_epik_Ionization_Penalty_Neutral>
  0.0000

> <r_epik_State_Penalty>
  0.2188

> <r_epik_Charging_Adjusted_Penalty>
0.446982777546765

> <i_epik_Tot_Q>
1

> <i_epik_Tot_abs_Q>
1

$$$$
