1tbz_ligand
                    3D
 Schrodinger Suite 2020-3.
 75 78  0  0  1  0            999 V2000
   15.9710  -16.7030   23.3420 N   0  3  0  0  0  0
   17.3180  -16.0350   23.3760 C   0  0  1  0  0  0
   17.1160  -14.6670   22.7340 C   0  0  0  0  0  0
   16.0980  -14.0640   23.1020 O   0  0  0  0  0  0
   17.7620  -15.9460   24.8420 C   0  0  0  0  0  0
   19.1830  -15.4740   24.9790 C   0  0  0  0  0  0
   20.2040  -16.2210   24.3680 C   0  0  0  0  0  0
   19.4910  -14.3500   25.7500 C   0  0  0  0  0  0
   21.5530  -15.8030   24.4760 C   0  0  0  0  0  0
   20.8610  -13.9640   25.9140 C   0  0  0  0  0  0
   21.8870  -14.6860   25.2770 C   0  0  0  0  0  0
   17.9660  -14.2630   21.8220 N   0  0  0  0  0  0
   17.7500  -12.9700   21.0910 C   0  0  2  0  0  0
   16.3630  -12.9590   20.4590 C   0  0  0  0  0  0
   15.8110  -14.0260   20.1000 O   0  0  0  0  0  0
   18.9190  -12.8540   20.1400 C   0  0  0  0  0  0
   19.8360  -14.0400   20.3510 C   0  0  0  0  0  0
   19.1870  -14.9440   21.3740 C   0  0  0  0  0  0
   15.6870  -11.8020   20.4690 N   0  0  0  0  0  0
   14.3470  -11.5500   19.9650 C   0  0  2  0  0  0
   14.3130  -10.6130   18.7370 C   0  0  2  0  0  0
   13.2540  -10.5190   18.0770 O   0  0  0  0  0  0
   13.3770  -10.9300   20.9830 C   0  0  0  0  0  0
   12.9310  -11.8980   22.0430 C   0  0  0  0  0  0
   11.9120  -11.2870   22.9150 C   0  0  0  0  0  0
   11.2820  -12.2580   23.7470 N   0  0  0  0  0  0
   10.4450  -12.0770   24.7370 C   0  0  0  0  0  0
   10.1850  -10.7810   25.0480 N   0  0  0  0  0  0
    9.7080  -13.0960   25.1750 N   0  3  0  0  0  0
   15.6310  -11.0900   17.4900 C   0  0  0  0  0  0
   16.8410  -10.8090   17.1950 N   0  0  0  0  0  0
   17.2560  -11.5450   16.1110 C   0  0  0  0  0  0
   14.9130  -12.5010   16.6110 S   0  0  0  0  0  0
   16.2370  -12.2760   15.4610 C   0  0  0  0  0  0
   16.5480  -13.1150   14.3680 C   0  0  0  0  0  0
   17.8340  -13.0610   13.8240 C   0  0  0  0  0  0
   18.7010  -11.9850   14.2280 C   0  0  0  0  0  0
   18.4180  -11.2460   15.3590 C   0  0  0  0  0  0
   15.6265  -16.7807   22.3002 H   0  0  0  0  0  0
   15.2515  -16.1071   23.9227 H   0  0  0  0  0  0
   16.0499  -17.7097   23.7782 H   0  0  0  0  0  0
   18.0918  -16.5875   22.8228 H   0  0  0  0  0  0
   17.1141  -15.2376   25.3790 H   0  0  0  0  0  0
   17.6859  -16.9390   25.3091 H   0  0  0  0  0  0
   19.9575  -17.1241   23.8097 H   0  0  0  0  0  0
   18.6964  -13.7723   26.2222 H   0  0  0  0  0  0
   22.3346  -16.3427   23.9413 H   0  0  0  0  0  0
   21.1102  -13.1048   26.5367 H   0  0  0  0  0  0
   22.9282  -14.3877   25.3995 H   0  0  0  0  0  0
   17.7515  -12.0818   21.7400 H   0  0  0  0  0  0
   18.5495  -12.8471   19.1039 H   0  0  0  0  0  0
   19.4640  -11.9199   20.3411 H   0  0  0  0  0  0
   19.9704  -14.5736   19.3985 H   0  0  0  0  0  0
   20.8126  -13.6882   20.7151 H   0  0  0  0  0  0
   19.8537  -15.1048   22.2340 H   0  0  0  0  0  0
   18.9231  -15.9144   20.9282 H   0  0  0  0  0  0
   16.2660  -10.9851   20.9243 H   0  0  0  0  0  0
   14.0790  -12.5908   19.7305 H   0  0  0  0  0  0
   14.1000   -9.6533   19.2306 H   0  0  0  0  0  0
   12.3147  -10.2461   18.5802 H   0  0  0  0  0  0
   13.8675  -10.0859   21.4898 H   0  0  0  0  0  0
   12.4774  -10.5717   20.4611 H   0  0  0  0  0  0
   12.5003  -12.7909   21.5663 H   0  0  0  0  0  0
   13.7943  -12.1913   22.6584 H   0  0  0  0  0  0
   12.3861  -10.5326   23.5600 H   0  0  0  0  0  0
   11.1397  -10.8070   22.2960 H   0  0  0  0  0  0
   11.4818  -13.3284   23.5913 H   0  0  0  0  0  0
   10.8303   -9.9811   24.6558 H   0  0  0  0  0  0
    9.3291  -10.5310   25.6922 H   0  0  0  0  0  0
    9.9681  -14.1258   24.8891 H   0  0  0  0  0  0
   15.7990  -13.7917   13.9567 H   0  0  0  0  0  0
   18.1720  -13.8141   13.1122 H   0  0  0  0  0  0
   19.5867  -11.7524   13.6369 H   0  0  0  0  0  0
   19.0826  -10.4401   15.6702 H   0  0  0  0  0  0
    8.8391  -12.9079   25.8227 H   0  0  0  0  0  0
  1  2  1  0  0  0
  1 39  1  0  0  0
  1 40  1  0  0  0
  1 41  1  0  0  0
  2  3  1  0  0  0
  2  5  1  0  0  0
  2 42  1  0  0  0
  3  4  2  0  0  0
  3 12  1  0  0  0
  5  6  1  0  0  0
  5 43  1  0  0  0
  5 44  1  0  0  0
  6  7  2  0  0  0
  6  8  1  0  0  0
  7  9  1  0  0  0
  7 45  1  0  0  0
  8 10  2  0  0  0
  8 46  1  0  0  0
  9 11  2  0  0  0
  9 47  1  0  0  0
 10 11  1  0  0  0
 10 48  1  0  0  0
 11 49  1  0  0  0
 12 13  1  0  0  0
 12 18  1  0  0  0
 13 14  1  0  0  0
 13 16  1  0  0  0
 13 50  1  0  0  0
 14 15  2  0  0  0
 14 19  1  0  0  0
 16 17  1  0  0  0
 16 51  1  0  0  0
 16 52  1  0  0  0
 17 18  1  0  0  0
 17 53  1  0  0  0
 17 54  1  0  0  0
 18 55  1  0  0  0
 18 56  1  0  0  0
 19 20  1  0  0  0
 19 57  1  0  0  0
 20 21  1  0  0  0
 20 23  1  0  0  0
 20 58  1  0  0  0
 21 22  1  0  0  0
 21 30  1  0  0  0
 21 59  1  0  0  0
 22 60  1  0  0  0
 23 24  1  0  0  0
 23 61  1  0  0  0
 23 62  1  0  0  0
 24 25  1  0  0  0
 24 63  1  0  0  0
 24 64  1  0  0  0
 25 26  1  0  0  0
 25 65  1  0  0  0
 25 66  1  0  0  0
 26 27  1  0  0  0
 26 67  1  0  0  0
 27 28  1  0  0  0
 27 29  2  0  0  0
 28 68  1  0  0  0
 28 69  1  0  0  0
 29 70  1  0  0  0
 29 75  1  0  0  0
 30 31  2  0  0  0
 30 33  1  0  0  0
 31 32  1  0  0  0
 32 34  2  0  0  0
 32 38  1  0  0  0
 33 34  1  0  0  0
 34 35  1  0  0  0
 35 36  2  0  0  0
 35 71  1  0  0  0
 36 37  1  0  0  0
 36 72  1  0  0  0
 37 38  2  0  0  0
 37 73  1  0  0  0
 38 74  1  0  0  0
M  CHG  2   1   1  29   1
M  END
> <s_m_source_file>
../1tbz_ligand.sdf

> <i_m_source_file_index>
1

> <s_epik_input>
W2NIXTFbY0hdW2NIXVtjSF1bY0hdYzFbQ0gyXVtDQEBIXShbTkgzK10pQyg9TylOMltDQEBIXShbQ0gyXVtDSDJdW0NIMl0yKUMoPU8pW05IXVtDQEBIXShbQ0gyXVtDSDJdW0NIMl1bTkhdL0MoW05IMl0pPU5cW0hdKVtDQEhdKFtPSF0pYyhuMylzYyhjMzQpW2NIXVtjSF1bY0hdW2NIXTQ=

> <s_epik_cmdline>
J2VwaWtfYXBwJywgJy1pbWFlJywgJ2xpZ2FuZF9wcm8ubWFlJywgJy1vbWFlJywgJ2xpZ2FuZF9wcmVwLm1hZScsICctbXMnLCAnMScsICctcGgnLCAnNycsICctcGh0JywgJzAuNScsICctbnQn

> <r_epik_Ionization_Penalty>
  0.1791

> <r_epik_Ionization_Penalty_Charging>
  0.1791

> <r_epik_Ionization_Penalty_Neutral>
  0.0000

> <r_epik_State_Penalty>
  0.1685

> <r_epik_Charging_Adjusted_Penalty>
0.347616602315483

> <i_epik_Tot_Q>
2

> <i_epik_Tot_abs_Q>
2

> <s_epik_Chemistry_Notes>
This compound has an imine and may undergo hydrolysis.

$$$$
