1tc1_ligand
                    3D
 Schrodinger Suite 2020-3.
 14 15  0  0  1  0            999 V2000
   -2.2560  -11.9370   20.1060 N   0  0  0  0  0  0
   -3.3590  -11.4540   20.7280 C   0  0  0  0  0  0
   -4.4420  -10.9300   20.1490 N   0  0  0  0  0  0
   -4.3350  -10.9220   18.7490 C   0  0  0  0  0  0
   -3.2150  -11.4050   18.0550 C   0  0  0  0  0  0
   -2.1360  -11.9390   18.7640 C   0  0  0  0  0  0
   -1.0780  -12.4010   18.1510 O   0  0  0  0  0  0
   -3.4380  -11.2470   16.7190 N   0  0  0  0  0  0
   -4.6650  -10.6730   16.5090 N   0  3  0  0  0  0
   -5.2360  -10.4630   17.7150 C   0  0  0  0  0  0
   -1.4237  -12.3436   20.6993 H   0  0  0  0  0  0
   -3.3623  -11.4980   21.8171 H   0  0  0  0  0  0
   -6.2175  -10.0192   17.8819 H   0  0  0  0  0  0
   -5.0090  -10.4698   15.4841 H   0  0  0  0  0  0
  1  2  1  0  0  0
  1  6  1  0  0  0
  1 11  1  0  0  0
  2  3  2  0  0  0
  2 12  1  0  0  0
  3  4  1  0  0  0
  4  5  2  0  0  0
  4 10  1  0  0  0
  5  6  1  0  0  0
  5  8  1  0  0  0
  6  7  2  0  0  0
  8  9  1  0  0  0
  9 10  2  0  0  0
  9 14  1  0  0  0
 10 13  1  0  0  0
M  CHG  1   9   1
M  END
> <s_m_source_file>
../1tc1_ligand.sdf

> <i_m_source_file_index>
1

> <s_epik_input>
bjFbY0hdW25IXWMoPU8pYyhjMTIpW25IXW5bY0hdMg==

> <s_epik_cmdline>
J2VwaWtfYXBwJywgJy1pbWFlJywgJ2xpZ2FuZF9wcm8ubWFlJywgJy1vbWFlJywgJ2xpZ2FuZF9wcmVwLm1hZScsICctbXMnLCAnMScsICctcGgnLCAnNycsICctcGh0JywgJzAuNScsICctbnQn

> <r_lp_tautomer_probability>
1

> <r_epik_Ionization_Penalty>
  0.0011

> <r_epik_Ionization_Penalty_Charging>
  0.0011

> <r_epik_Ionization_Penalty_Neutral>
  0.0000

> <r_epik_State_Penalty>
 -0.0000

> <r_epik_Charging_Adjusted_Penalty>
0.0011128330175505

> <i_epik_Tot_Q>
1

> <i_epik_Tot_abs_Q>
1

$$$$
