1tcw_ligand
                    3D
 Schrodinger Suite 2020-3.
 80 82  0  0  1  0            999 V2000
   65.6370   22.3890   28.2640 C   0  0  0  0  0  0
   66.4690   22.3900   29.5510 C   0  0  0  0  0  0
   64.9440   23.7470   28.1780 C   0  0  0  0  0  0
   66.5690   22.2510   27.0450 C   0  0  0  0  0  0
   63.4510   21.2840   27.7980 C   0  0  0  0  0  0
   62.0830   21.3250   25.7240 C   0  0  1  0  0  0
   61.9880   22.4480   24.6670 C   0  0  0  0  0  0
   60.6020   23.0890   24.6590 C   0  0  0  0  0  0
   60.0290   23.5620   25.8610 C   0  0  0  0  0  0
   58.7370   24.1140   25.8670 C   0  0  0  0  0  0
   58.0150   24.1990   24.6770 C   0  0  0  0  0  0
   58.5790   23.7350   23.4860 C   0  0  0  0  0  0
   59.8660   23.1830   23.4720 C   0  0  0  0  0  0
   61.8830   19.9970   25.0350 C   0  0  2  0  0  0
   62.4620   19.7030   23.6640 C   0  0  0  0  0  0
   61.9020   18.3270   23.3700 C   0  0  1  0  0  0
   61.3720   18.1750   21.9860 C   0  0  0  0  0  0
   62.1540   18.5930   20.8150 C   0  0  0  0  0  0
   63.0280   17.6860   20.2520 C   0  0  0  0  0  0
   63.6660   18.0540   19.0690 C   0  0  0  0  0  0
   63.4180   19.3030   18.4860 C   0  0  0  0  0  0
   62.5310   20.2060   19.0850 C   0  0  0  0  0  0
   61.8930   19.8490   20.2640 C   0  0  0  0  0  0
   62.7460   17.1140   23.5930 C   0  0  0  0  0  0
   62.5800   14.9710   24.5610 C   0  0  1  0  0  0
   62.6790   14.9710   26.1200 C   0  0  0  0  0  0
   63.6280   13.8950   26.5310 C   0  0  0  0  0  0
   63.3690   16.2190   26.6700 C   0  0  0  0  0  0
   61.7940   13.8380   23.9510 C   0  0  0  0  0  0
   61.5510   12.2910   22.4790 C   0  0  0  0  0  0
   60.4080   12.4230   23.2800 C   0  0  0  0  0  0
   63.3410   21.3520   26.4480 N   0  0  0  0  0  0
   61.9740   16.2250   24.1970 N   0  0  0  0  0  0
   62.4300   13.2360   22.9460 N   0  0  0  0  0  0
   60.5870   13.4280   24.2190 N   0  0  0  0  0  0
   64.7250   21.3180   28.3790 O   0  0  0  0  0  0
   62.5170   21.1780   28.6050 O   0  0  0  0  0  0
   60.4760   19.7980   24.9850 O   0  0  0  0  0  0
   63.9440   16.9470   23.3270 O   0  0  0  0  0  0
   66.9877   21.4254   29.6530 H   0  0  0  0  0  0
   65.8066   22.5434   30.4157 H   0  0  0  0  0  0
   67.2098   23.2020   29.5080 H   0  0  0  0  0  0
   64.3330   23.7896   27.2643 H   0  0  0  0  0  0
   65.7015   24.5441   28.1500 H   0  0  0  0  0  0
   64.2983   23.8855   29.0577 H   0  0  0  0  0  0
   65.9691   22.2506   26.1230 H   0  0  0  0  0  0
   67.1304   21.3078   27.1176 H   0  0  0  0  0  0
   67.2729   23.0960   27.0241 H   0  0  0  0  0  0
   61.3346   21.4633   26.5182 H   0  0  0  0  0  0
   62.7317   23.2268   24.8916 H   0  0  0  0  0  0
   62.1851   22.0298   23.6689 H   0  0  0  0  0  0
   60.5939   23.4981   26.7910 H   0  0  0  0  0  0
   58.3006   24.4745   26.7985 H   0  0  0  0  0  0
   57.0124   24.6267   24.6760 H   0  0  0  0  0  0
   58.0114   23.8033   22.5580 H   0  0  0  0  0  0
   60.2951   22.8261   22.5357 H   0  0  0  0  0  0
   62.4245   19.2770   25.6662 H   0  0  0  0  0  0
   62.1208   20.4674   22.9503 H   0  0  0  0  0  0
   63.5605   19.7172   23.7191 H   0  0  0  0  0  0
   61.1211   18.3172   24.1447 H   0  0  0  0  0  0
   61.1690   17.1126   21.7858 H   0  0  0  0  0  0
   60.4408   18.7517   21.8845 H   0  0  0  0  0  0
   63.2127   16.7170   20.7156 H   0  0  0  0  0  0
   64.3635   17.3643   18.5937 H   0  0  0  0  0  0
   63.9200   19.5747   17.5574 H   0  0  0  0  0  0
   62.3439   21.1786   18.6299 H   0  0  0  0  0  0
   61.2010   20.5361   20.7510 H   0  0  0  0  0  0
   61.6591   14.8571   26.5160 H   0  0  0  0  0  0
   63.2467   12.9206   26.1918 H   0  0  0  0  0  0
   63.7242   13.8899   27.6268 H   0  0  0  0  0  0
   64.6126   14.0815   26.0773 H   0  0  0  0  0  0
   62.7643   17.1068   26.4331 H   0  0  0  0  0  0
   64.3638   16.3200   26.2116 H   0  0  0  0  0  0
   63.4755   16.1283   27.7611 H   0  0  0  0  0  0
   61.8375   11.6406   21.6394 H   0  0  0  0  0  0
   59.5053   11.8204   23.1790 H   0  0  0  0  0  0
   64.2904   21.4323   25.8982 H   0  0  0  0  0  0
   60.9188   16.4604   24.3997 H   0  0  0  0  0  0
   59.8652   19.9606   25.8853 H   0  0  0  0  0  0
   60.0150   13.8968   25.0333 H   0  0  0  0  0  0
  1 36  1  0  0  0
  1  4  1  0  0  0
  1  3  1  0  0  0
  1  2  1  0  0  0
  2 40  1  0  0  0
  2 41  1  0  0  0
  2 42  1  0  0  0
  3 43  1  0  0  0
  3 44  1  0  0  0
  3 45  1  0  0  0
  4 46  1  0  0  0
  4 47  1  0  0  0
  4 48  1  0  0  0
  5 36  1  0  0  0
  5 37  2  0  0  0
  5 32  1  0  0  0
  6 32  1  0  0  0
  6 14  1  0  0  0
  6  7  1  0  0  0
  6 49  1  0  0  0
  7  8  1  0  0  0
  7 50  1  0  0  0
  7 51  1  0  0  0
  8 13  2  0  0  0
  8  9  1  0  0  0
  9 10  2  0  0  0
  9 52  1  0  0  0
 10 11  1  0  0  0
 10 53  1  0  0  0
 11 12  2  0  0  0
 11 54  1  0  0  0
 12 13  1  0  0  0
 12 55  1  0  0  0
 13 56  1  0  0  0
 14 38  1  0  0  0
 14 15  1  0  0  0
 14 57  1  0  0  0
 15 16  1  0  0  0
 15 58  1  0  0  0
 15 59  1  0  0  0
 16 24  1  0  0  0
 16 17  1  0  0  0
 16 60  1  0  0  0
 17 18  1  0  0  0
 17 61  1  0  0  0
 17 62  1  0  0  0
 18 23  2  0  0  0
 18 19  1  0  0  0
 19 20  2  0  0  0
 19 63  1  0  0  0
 20 21  1  0  0  0
 20 64  1  0  0  0
 21 22  2  0  0  0
 21 65  1  0  0  0
 22 23  1  0  0  0
 22 66  1  0  0  0
 23 67  1  0  0  0
 24 39  2  0  0  0
 24 33  1  0  0  0
 25 33  1  0  0  0
 25 29  2  0  0  0
 25 26  1  0  0  0
 26 28  1  0  0  0
 26 27  1  0  0  0
 26 68  1  0  0  0
 27 69  1  0  0  0
 27 70  1  0  0  0
 27 71  1  0  0  0
 28 72  1  0  0  0
 28 73  1  0  0  0
 28 74  1  0  0  0
 29 35  1  0  0  0
 29 34  1  0  0  0
 30 34  2  0  0  0
 30 31  1  0  0  0
 30 75  1  0  0  0
 31 35  1  0  0  0
 31 76  1  0  0  0
 32 77  1  0  0  0
 33 78  1  0  0  0
 35 80  1  0  0  0
 38 79  1  0  0  0
M  END
> <s_m_source_file>
../1tcw_ligand.sdf

> <i_m_source_file_index>
1

> <s_epik_input>
W2NIXTFbY0hdW2NIXVtjSF1bY0hdYzFbQ0gyXVtDQEhdKFtOSF1DKD1PKU9DKFtDSDNdKShbQ0gzXSlbQ0gzXSlbQ0BASF0oW09IXSlbQ0gyXVtDQEBIXShbQ0gyXWMyW2NIXVtjSF1bY0hdW2NIXVtjSF0yKUMoPU8pW05IXVtDQEBIXShbQ0hdKFtDSDNdKVtDSDNdKUMzPU5bQ0gyXVtDSF09TjM=

> <s_epik_cmdline>
J2VwaWtfYXBwJywgJy1pbWFlJywgJ2xpZ2FuZF9wcm8ubWFlJywgJy1vbWFlJywgJ2xpZ2FuZF9wcmVwLm1hZScsICctbXMnLCAnMScsICctcGgnLCAnNycsICctcGh0JywgJzAuNScsICctbnQn

> <r_lp_tautomer_probability>
1

> <r_epik_Ionization_Penalty>
  0.0000

> <r_epik_Ionization_Penalty_Charging>
  0.0000

> <r_epik_Ionization_Penalty_Neutral>
  0.0000

> <r_epik_State_Penalty>
 -0.0000

> <r_epik_Charging_Adjusted_Penalty>
0

> <i_epik_Tot_Q>
0

> <i_epik_Tot_abs_Q>
0

> <s_epik_Chemistry_Notes>
This compound has an ester and may undergo hydrolysis at high or low pH. This compound has an imine and may undergo hydrolysis.

$$$$
