1tcx_ligand
                    3D
 Schrodinger Suite 2020-3.
 80 82  0  0  1  0            999 V2000
   16.0320   19.1690    3.6700 C   0  0  0  0  0  0
   17.2640   18.5970    3.0080 C   0  0  0  0  0  0
   15.4290   17.9750    4.3850 C   0  0  0  0  0  0
   15.1010   19.6680    2.5830 C   0  0  0  0  0  0
   15.5330   20.9730    5.2510 C   0  0  0  0  0  0
   14.9560   23.0620    6.2390 C   0  0  1  0  0  0
   15.7410   23.6020    7.4380 C   0  0  0  0  0  0
   16.2490   22.4870    8.3460 C   0  0  0  0  0  0
   17.6100   22.1560    8.3590 C   0  0  0  0  0  0
   18.0550   21.1190    9.1810 C   0  0  0  0  0  0
   17.1490   20.4110    9.9930 C   0  0  0  0  0  0
   15.7970   20.7450    9.9780 C   0  0  0  0  0  0
   15.3430   21.7870    9.1510 C   0  0  0  0  0  0
   14.2390   24.1750    5.4160 C   0  0  2  0  0  0
   13.3260   23.6540    4.3360 C   0  0  0  0  0  0
   12.1530   24.5450    4.0370 C   0  0  1  0  0  0
   11.3850   23.9130    2.8600 C   0  0  0  0  0  0
    9.9830   24.4580    2.6170 C   0  0  0  0  0  0
    9.7890   25.7470    2.1020 C   0  0  0  0  0  0
    8.5010   26.2440    1.8800 C   0  0  0  0  0  0
    7.3960   25.4520    2.1700 C   0  0  0  0  0  0
    7.5900   24.1650    2.6840 C   0  0  0  0  0  0
    8.8750   23.6660    2.9090 C   0  0  0  0  0  0
   11.2680   24.6780    5.2890 C   0  0  0  0  0  0
    9.7290   26.0560    6.5610 C   0  0  1  0  0  0
   10.3910   26.7680    7.7500 C   0  0  0  0  0  0
    9.4470   26.6250    8.8760 C   0  0  0  0  0  0
   11.6420   26.1210    8.2630 C   0  0  0  0  0  0
    8.6810   26.9950    5.9480 C   0  0  0  0  0  0
    7.5050   28.2600    4.7230 C   0  0  0  0  0  0
    6.6720   27.3110    5.3280 C   0  0  0  0  0  0
   15.8970   22.2070    5.5140 N   0  0  0  0  0  0
   10.6160   25.8120    5.4330 N   0  0  0  0  0  0
    8.8080   28.0530    5.1270 N   0  0  0  0  0  0
    7.4660   26.5120    6.1110 N   0  0  0  0  0  0
   16.4370   20.1680    4.5570 O   0  0  0  0  0  0
   14.4020   20.6100    5.6320 O   0  0  0  0  0  0
   15.1250   24.9730    4.6860 O   0  0  0  0  0  0
   11.1430   23.7870    6.1390 O   0  0  0  0  0  0
   17.7846   19.3916    2.4534 H   0  0  0  0  0  0
   16.9688   17.7974    2.3126 H   0  0  0  0  0  0
   17.9354   18.1856    3.7761 H   0  0  0  0  0  0
   14.5124   18.2854    4.9081 H   0  0  0  0  0  0
   16.1519   17.5810    5.1145 H   0  0  0  0  0  0
   15.1853   17.1928    3.6510 H   0  0  0  0  0  0
   14.1947   20.0900    3.0418 H   0  0  0  0  0  0
   14.8235   18.8311    1.9253 H   0  0  0  0  0  0
   15.6093   20.4450    1.9931 H   0  0  0  0  0  0
   14.1233   22.4034    6.5270 H   0  0  0  0  0  0
   16.6105   24.1728    7.0800 H   0  0  0  0  0  0
   15.0919   24.2590    8.0355 H   0  0  0  0  0  0
   18.3151   22.7030    7.7331 H   0  0  0  0  0  0
   19.1126   20.8555    9.1941 H   0  0  0  0  0  0
   17.5048   19.6030   10.6322 H   0  0  0  0  0  0
   15.0926   20.1997   10.6061 H   0  0  0  0  0  0
   14.2853   22.0499    9.1366 H   0  0  0  0  0  0
   13.7213   24.8023    6.1566 H   0  0  0  0  0  0
   13.8924   23.5416    3.3998 H   0  0  0  0  0  0
   12.9202   22.6774    4.6385 H   0  0  0  0  0  0
   12.5010   25.5527    3.7659 H   0  0  0  0  0  0
   11.9449   24.0757    1.9273 H   0  0  0  0  0  0
   11.2699   22.8331    3.0349 H   0  0  0  0  0  0
   10.6532   26.3700    1.8716 H   0  0  0  0  0  0
    8.3639   27.2490    1.4809 H   0  0  0  0  0  0
    6.3881   25.8299    1.9987 H   0  0  0  0  0  0
    6.7250   23.5423    2.9123 H   0  0  0  0  0  0
    9.0101   22.6619    3.3111 H   0  0  0  0  0  0
   10.6339   27.7957    7.4421 H   0  0  0  0  0  0
    8.4803   27.0734    8.6032 H   0  0  0  0  0  0
    9.8520   27.1371    9.7613 H   0  0  0  0  0  0
    9.3054   25.5579    9.1025 H   0  0  0  0  0  0
   12.4242   26.1722    7.4913 H   0  0  0  0  0  0
   11.4366   25.0684    8.5077 H   0  0  0  0  0  0
   11.9832   26.6476    9.1665 H   0  0  0  0  0  0
    7.2684   29.0780    4.0266 H   0  0  0  0  0  0
    5.5930   27.2234    5.2005 H   0  0  0  0  0  0
   16.8758   22.6036    5.2065 H   0  0  0  0  0  0
   10.7328   26.6121    4.6872 H   0  0  0  0  0  0
   15.9357   25.5085    5.2019 H   0  0  0  0  0  0
    7.3018   25.6474    6.7709 H   0  0  0  0  0  0
  1 36  1  0  0  0
  1  4  1  0  0  0
  1  3  1  0  0  0
  1  2  1  0  0  0
  2 40  1  0  0  0
  2 41  1  0  0  0
  2 42  1  0  0  0
  3 43  1  0  0  0
  3 44  1  0  0  0
  3 45  1  0  0  0
  4 46  1  0  0  0
  4 47  1  0  0  0
  4 48  1  0  0  0
  5 36  1  0  0  0
  5 37  2  0  0  0
  5 32  1  0  0  0
  6 32  1  0  0  0
  6 14  1  0  0  0
  6  7  1  0  0  0
  6 49  1  0  0  0
  7  8  1  0  0  0
  7 50  1  0  0  0
  7 51  1  0  0  0
  8 13  2  0  0  0
  8  9  1  0  0  0
  9 10  2  0  0  0
  9 52  1  0  0  0
 10 11  1  0  0  0
 10 53  1  0  0  0
 11 12  2  0  0  0
 11 54  1  0  0  0
 12 13  1  0  0  0
 12 55  1  0  0  0
 13 56  1  0  0  0
 14 38  1  0  0  0
 14 15  1  0  0  0
 14 57  1  0  0  0
 15 16  1  0  0  0
 15 58  1  0  0  0
 15 59  1  0  0  0
 16 24  1  0  0  0
 16 17  1  0  0  0
 16 60  1  0  0  0
 17 18  1  0  0  0
 17 61  1  0  0  0
 17 62  1  0  0  0
 18 23  2  0  0  0
 18 19  1  0  0  0
 19 20  2  0  0  0
 19 63  1  0  0  0
 20 21  1  0  0  0
 20 64  1  0  0  0
 21 22  2  0  0  0
 21 65  1  0  0  0
 22 23  1  0  0  0
 22 66  1  0  0  0
 23 67  1  0  0  0
 24 39  2  0  0  0
 24 33  1  0  0  0
 25 33  1  0  0  0
 25 29  2  0  0  0
 25 26  1  0  0  0
 26 28  1  0  0  0
 26 27  1  0  0  0
 26 68  1  0  0  0
 27 69  1  0  0  0
 27 70  1  0  0  0
 27 71  1  0  0  0
 28 72  1  0  0  0
 28 73  1  0  0  0
 28 74  1  0  0  0
 29 35  1  0  0  0
 29 34  1  0  0  0
 30 34  2  0  0  0
 30 31  1  0  0  0
 30 75  1  0  0  0
 31 35  1  0  0  0
 31 76  1  0  0  0
 32 77  1  0  0  0
 33 78  1  0  0  0
 35 80  1  0  0  0
 38 79  1  0  0  0
M  END
> <s_m_source_file>
../1tcx_ligand.sdf

> <i_m_source_file_index>
1

> <s_epik_input>
W2NIXTFbY0hdW2NIXVtjSF1bY0hdYzFbQ0gyXVtDQEhdKFtOSF1DKD1PKU9DKFtDSDNdKShbQ0gzXSlbQ0gzXSlbQ0BASF0oW09IXSlbQ0gyXVtDQEBIXShbQ0gyXWMyW2NIXVtjSF1bY0hdW2NIXVtjSF0yKUMoPU8pW05IXVtDQEBIXShbQ0hdKFtDSDNdKVtDSDNdKUMzPU5bQ0gyXVtDSF09TjM=

> <s_epik_cmdline>
J2VwaWtfYXBwJywgJy1pbWFlJywgJ2xpZ2FuZF9wcm8ubWFlJywgJy1vbWFlJywgJ2xpZ2FuZF9wcmVwLm1hZScsICctbXMnLCAnMScsICctcGgnLCAnNycsICctcGh0JywgJzAuNScsICctbnQn

> <r_lp_tautomer_probability>
1

> <r_epik_Ionization_Penalty>
  0.0000

> <r_epik_Ionization_Penalty_Charging>
  0.0000

> <r_epik_Ionization_Penalty_Neutral>
  0.0000

> <r_epik_State_Penalty>
 -0.0000

> <r_epik_Charging_Adjusted_Penalty>
0

> <i_epik_Tot_Q>
0

> <i_epik_Tot_abs_Q>
0

> <s_epik_Chemistry_Notes>
This compound has an ester and may undergo hydrolysis at high or low pH. This compound has an imine and may undergo hydrolysis.

$$$$
