1tet_ligand
                    3D
 Schrodinger Suite 2020-3.
188189  0  0  1  0            999 V2000
   48.9650   52.5080   86.3390 N   0  3  0  0  0  0
   48.1100   51.4830   85.7450 C   0  0  2  0  0  0
   47.6020   52.3150   84.5640 C   0  0  0  0  0  0
   47.0620   53.4050   84.7780 O   0  0  0  0  0  0
   46.9160   51.0620   86.6810 C   0  0  0  0  0  0
   46.0520   50.1410   85.8680 C   0  0  0  0  0  0
   47.3180   50.2510   87.9380 C   0  0  0  0  0  0
   47.8860   51.9330   83.3230 N   0  0  0  0  0  0
   47.5300   52.6830   82.1170 C   0  0  2  0  0  0
   46.0610   53.0710   82.1250 C   0  0  0  0  0  0
   45.2480   52.2330   82.5050 O   0  0  0  0  0  0
   47.9020   51.7440   80.9780 C   0  0  0  0  0  0
   49.1080   51.0830   81.5240 C   0  0  0  0  0  0
   48.6590   50.7550   82.9640 C   0  0  0  0  0  0
   45.6690   54.3050   81.7800 N   0  0  0  0  0  0
   44.2530   54.6520   81.7580 C   0  0  0  0  0  0
   43.5740   54.6320   83.1010 C   0  0  0  0  0  0
   42.4010   54.3010   83.0840 O   0  0  0  0  0  0
   44.1020   55.0000   84.2740 N   0  0  0  0  0  0
   43.3510   54.7020   85.5000 C   0  0  2  0  0  0
   43.2050   55.4750   86.8110 C   0  0  0  0  0  0
   42.2160   55.2310   87.5440 O   0  0  0  0  0  0
   43.7430   53.2550   85.8620 C   0  0  0  0  0  0
   43.3630   52.8430   87.1640 O   0  0  0  0  0  0
   44.0760   56.3660   87.2140 N   0  0  0  0  0  0
   44.0750   56.9560   88.5720 C   0  0  2  0  0  0
   44.2370   55.9260   89.6930 C   0  0  0  0  0  0
   44.1550   56.2550   90.8770 O   0  0  0  0  0  0
   42.7960   57.7530   88.8990 C   0  0  0  0  0  0
   42.7870   59.1470   88.3480 C   0  0  0  0  0  0
   41.4010   59.5900   88.0120 C   0  0  0  0  0  0
   41.1600   59.7080   86.8280 O   0  0  0  0  0  0
   40.3990   59.8800   88.8410 N   0  0  0  0  0  0
   44.4190   54.6320   89.4180 N   0  0  0  0  0  0
   44.7400   53.7060   90.4970 C   0  0  2  0  0  0
   46.2250   53.3810   90.4290 C   0  0  0  0  0  0
   46.9260   53.6800   89.4600 O   0  0  0  0  0  0
   43.8480   52.4490   90.3840 C   0  0  0  0  0  0
   42.4490   52.9100   90.7070 C   0  0  0  0  0  0
   41.6240   53.6830   89.9930 N   0  0  0  0  0  0
   41.8330   52.6390   91.9020 C   0  0  0  0  0  0
   40.5510   53.8920   90.7210 C   0  0  0  0  0  0
   40.6890   53.2600   91.8650 N   0  0  0  0  0  0
   46.6650   52.8330   91.5480 N   0  0  0  0  0  0
   48.0360   52.5080   91.8730 C   0  0  2  0  0  0
   48.1040   50.9760   91.8610 C   0  0  0  0  0  0
   47.0700   50.2810   91.9390 O   0  0  0  0  0  0
   48.2210   53.1960   93.2450 C   0  0  2  0  0  0
   48.4070   54.6890   92.9750 C   0  0  0  0  0  0
   49.3900   52.6780   94.0390 C   0  0  0  0  0  0
   49.7600   55.0850   92.3200 C   0  0  0  0  0  0
   49.3120   50.4390   91.7210 N   0  0  0  0  0  0
   49.5510   49.0070   91.7310 C   0  0  2  0  0  0
   51.0110   48.8450   92.0900 C   0  0  0  0  0  0
   51.7570   49.8130   91.9010 O   0  0  0  0  0  0
   49.3170   48.4150   90.3620 C   0  0  0  0  0  0
   49.0330   46.9260   90.3200 C   0  0  0  0  0  0
   49.1650   46.2640   91.3490 O   0  0  0  0  0  0
   48.6510   46.4390   89.2460 O   0  0  0  0  0  0
   51.4580   47.6900   92.6020 N   0  0  0  0  0  0
   52.8730   47.5500   92.9080 C   0  0  2  0  0  0
   53.6360   46.9410   91.7280 C   0  0  0  0  0  0
   53.0580   46.2900   90.8550 O   0  0  0  0  0  0
   53.0160   46.6900   94.1670 C   0  0  0  0  0  0
   52.1140   45.5690   94.2270 O   0  0  0  0  0  0
   54.9430   47.1840   91.6430 N   0  0  0  0  0  0
   55.7690   46.6150   90.5950 C   0  0  2  0  0  0
   56.0460   45.1650   90.9430 C   0  0  0  0  0  0
   55.8540   44.7680   92.0970 O   0  0  0  0  0  0
   57.1110   47.2990   90.4920 C   0  0  0  0  0  0
   57.1020   48.7810   90.2510 C   0  0  0  0  0  0
   58.5520   49.1840   90.1730 C   0  0  0  0  0  0
   59.0960   49.3010   89.0920 O   0  0  0  0  0  0
   59.2780   49.3160   91.2770 N   0  0  0  0  0  0
   56.5930   44.4290   89.9800 N   0  0  0  0  0  0
   56.9010   43.0290   90.1580 C   0  0  2  0  0  0
   58.3300   42.7240   89.7840 C   0  0  0  0  0  0
   58.6270   42.8380   88.5910 O   0  0  0  0  0  0
   55.9820   42.1820   89.3050 C   0  0  0  0  0  0
   54.7560   41.6740   90.0240 C   0  0  0  0  0  0
   54.0580   40.6540   89.1180 C   0  0  0  0  0  0
   54.7080   39.2610   89.0270 C   0  0  0  0  0  0
   56.0690   39.1950   88.4900 N   0  3  0  0  0  0
   59.1870   42.4170   90.7780 N   0  0  0  0  0  0
   60.5760   42.0540   90.5060 C   0  0  2  0  0  0
   60.6750   40.6830   89.8650 C   0  0  0  0  0  0
   61.5490   40.5180   89.0230 O   0  0  0  0  0  0
   61.4170   42.1040   91.8110 C   0  0  0  0  0  0
   62.3950   40.9930   92.2250 C   0  0  0  0  0  0
   61.7410   39.9960   93.1840 C   0  0  0  0  0  0
   62.6910   38.9100   93.6980 C   0  0  0  0  0  0
   62.8690   37.8260   92.7510 N   0  3  0  0  0  0
   49.7767   52.7585   85.6402 H   0  0  0  0  0  0
   49.3938   52.1286   87.2783 H   0  0  0  0  0  0
   48.3682   53.4086   86.5457 H   0  0  0  0  0  0
   48.6570   50.5556   85.5196 H   0  0  0  0  0  0
   46.4064   51.9747   87.0235 H   0  0  0  0  0  0
   45.7274   50.6563   84.9520 H   0  0  0  0  0  0
   45.1699   49.8503   86.4574 H   0  0  0  0  0  0
   46.6260   49.2419   85.5992 H   0  0  0  0  0  0
   47.9576   50.8698   88.5845 H   0  0  0  0  0  0
   47.8690   49.3495   87.6319 H   0  0  0  0  0  0
   46.4129   49.9578   88.4901 H   0  0  0  0  0  0
   48.0737   53.6376   82.0620 H   0  0  0  0  0  0
   47.0712   51.0479   80.7905 H   0  0  0  0  0  0
   48.1009   52.3308   80.0691 H   0  0  0  0  0  0
   49.3378   50.1882   80.9269 H   0  0  0  0  0  0
   49.9583   51.7796   81.4828 H   0  0  0  0  0  0
   49.5026   50.6435   83.6611 H   0  0  0  0  0  0
   48.0167   49.8638   83.0202 H   0  0  0  0  0  0
   46.4242   55.0586   81.5122 H   0  0  0  0  0  0
   44.1310   55.6693   81.3577 H   0  0  0  0  0  0
   43.7107   53.9392   81.1194 H   0  0  0  0  0  0
   45.0729   55.5134   84.3349 H   0  0  0  0  0  0
   42.4019   55.0599   85.0745 H   0  0  0  0  0  0
   43.2650   52.5585   85.1575 H   0  0  0  0  0  0
   44.8358   53.1451   85.8016 H   0  0  0  0  0  0
   43.6006   51.8264   87.5105 H   0  0  0  0  0  0
   44.8372   56.6728   86.4816 H   0  0  0  0  0  0
   44.9584   57.6075   88.5008 H   0  0  0  0  0  0
   41.9225   57.2329   88.4790 H   0  0  0  0  0  0
   42.6841   57.8352   89.9902 H   0  0  0  0  0  0
   43.2037   59.8391   89.0946 H   0  0  0  0  0  0
   43.3970   59.1837   87.4333 H   0  0  0  0  0  0
   40.5430   59.7963   89.9283 H   0  0  0  0  0  0
   39.4278   60.2032   88.4381 H   0  0  0  0  0  0
   44.3282   54.2633   88.3856 H   0  0  0  0  0  0
   44.5331   54.2049   91.4553 H   0  0  0  0  0  0
   43.9102   52.0459   89.3624 H   0  0  0  0  0  0
   44.1935   51.6886   91.0998 H   0  0  0  0  0  0
   42.1110   52.0506   92.7889 H   0  0  0  0  0  0
   39.6891   54.4903   90.4254 H   0  0  0  0  0  0
   45.8636   52.6234   92.2718 H   0  0  0  0  0  0
   48.8001   52.8627   91.1656 H   0  0  0  0  0  0
   47.3474   52.9817   93.8782 H   0  0  0  0  0  0
   47.6174   55.0396   92.2941 H   0  0  0  0  0  0
   48.3464   55.2434   93.9231 H   0  0  0  0  0  0
   49.2546   51.6036   94.2324 H   0  0  0  0  0  0
   49.4517   53.2179   94.9954 H   0  0  0  0  0  0
   50.3180   52.8340   93.4694 H   0  0  0  0  0  0
   49.7900   56.1744   92.1703 H   0  0  0  0  0  0
   49.8592   54.5785   91.3486 H   0  0  0  0  0  0
   50.5882   54.7823   92.9776 H   0  0  0  0  0  0
   50.1532   51.1361   91.5931 H   0  0  0  0  0  0
   48.8608   48.5329   92.4443 H   0  0  0  0  0  0
   48.4497   48.9041   89.8944 H   0  0  0  0  0  0
   50.2082   48.5731   89.7369 H   0  0  0  0  0  0
   48.4349   45.3627   89.1761 H   0  0  0  0  0  0
   50.7690   46.8537   92.7912 H   0  0  0  0  0  0
   53.2615   48.5644   93.0813 H   0  0  0  0  0  0
   54.0368   46.2836   94.2194 H   0  0  0  0  0  0
   52.8208   47.3069   95.0566 H   0  0  0  0  0  0
   52.1377   44.8897   95.0918 H   0  0  0  0  0  0
   55.3928   47.8407   92.4023 H   0  0  0  0  0  0
   55.1987   46.7567   89.6651 H   0  0  0  0  0  0
   57.6690   47.1545   91.4289 H   0  0  0  0  0  0
   57.6799   46.8663   89.6559 H   0  0  0  0  0  0
   56.5737   48.9963   89.3105 H   0  0  0  0  0  0
   56.5889   49.2848   91.0834 H   0  0  0  0  0  0
   58.8024   49.2133   92.2636 H   0  0  0  0  0  0
   60.3550   49.5280   91.2050 H   0  0  0  0  0  0
   56.8109   44.9225   89.0214 H   0  0  0  0  0  0
   56.7468   42.8397   91.2306 H   0  0  0  0  0  0
   55.6288   42.7737   88.4476 H   0  0  0  0  0  0
   56.5291   41.2997   88.9412 H   0  0  0  0  0  0
   55.0562   41.1974   90.9688 H   0  0  0  0  0  0
   54.0804   42.5157   90.2364 H   0  0  0  0  0  0
   53.0324   40.4851   89.4781 H   0  0  0  0  0  0
   54.0261   41.0395   88.0883 H   0  0  0  0  0  0
   54.7653   38.8168   90.0317 H   0  0  0  0  0  0
   54.1017   38.6154   88.3747 H   0  0  0  0  0  0
   56.4092   38.1490   88.4809 H   0  0  0  0  0  0
   56.7417   39.7939   89.1214 H   0  0  0  0  0  0
   56.0782   39.5925   87.4644 H   0  0  0  0  0  0
   58.8185   42.4444   91.8141 H   0  0  0  0  0  0
   60.9256   42.8000   89.7771 H   0  0  0  0  0  0
   60.0014   39.8542   90.1282 H   0  0  0  0  0  0
   62.0660   42.9920   91.7951 H   0  0  0  0  0  0
   60.7438   42.1574   92.6793 H   0  0  0  0  0  0
   62.7291   40.4466   91.3307 H   0  0  0  0  0  0
   63.2653   41.4394   92.7284 H   0  0  0  0  0  0
   61.3553   40.5323   94.0636 H   0  0  0  0  0  0
   60.9114   39.4857   92.6728 H   0  0  0  0  0  0
   63.6796   39.3506   93.8945 H   0  0  0  0  0  0
   62.2892   38.4815   94.6280 H   0  0  0  0  0  0
   63.5582   37.0798   93.1732 H   0  0  0  0  0  0
   63.2871   38.2226   91.8141 H   0  0  0  0  0  0
   61.8967   37.3535   92.5476 H   0  0  0  0  0  0
  1  2  1  0  0  0
  1 93  1  0  0  0
  1 94  1  0  0  0
  1 95  1  0  0  0
  2  3  1  0  0  0
  2  5  1  0  0  0
  2 96  1  0  0  0
  3  4  2  0  0  0
  3  8  1  0  0  0
  5  6  1  0  0  0
  5  7  1  0  0  0
  5 97  1  0  0  0
  6 98  1  0  0  0
  6 99  1  0  0  0
  6100  1  0  0  0
  7101  1  0  0  0
  7102  1  0  0  0
  7103  1  0  0  0
  8  9  1  0  0  0
  8 14  1  0  0  0
  9 10  1  0  0  0
  9 12  1  0  0  0
  9104  1  0  0  0
 10 11  2  0  0  0
 10 15  1  0  0  0
 12 13  1  0  0  0
 12105  1  0  0  0
 12106  1  0  0  0
 13 14  1  0  0  0
 13107  1  0  0  0
 13108  1  0  0  0
 14109  1  0  0  0
 14110  1  0  0  0
 15 16  1  0  0  0
 15111  1  0  0  0
 16 17  1  0  0  0
 16112  1  0  0  0
 16113  1  0  0  0
 17 18  2  0  0  0
 17 19  1  0  0  0
 19 20  1  0  0  0
 19114  1  0  0  0
 20 21  1  0  0  0
 20 23  1  0  0  0
 20115  1  0  0  0
 21 22  2  0  0  0
 21 25  1  0  0  0
 23 24  1  0  0  0
 23116  1  0  0  0
 23117  1  0  0  0
 24118  1  0  0  0
 25 26  1  0  0  0
 25119  1  0  0  0
 26 27  1  0  0  0
 26 29  1  0  0  0
 26120  1  0  0  0
 27 28  2  0  0  0
 27 34  1  0  0  0
 29 30  1  0  0  0
 29121  1  0  0  0
 29122  1  0  0  0
 30 31  1  0  0  0
 30123  1  0  0  0
 30124  1  0  0  0
 31 32  2  0  0  0
 31 33  1  0  0  0
 33125  1  0  0  0
 33126  1  0  0  0
 34 35  1  0  0  0
 34127  1  0  0  0
 35 36  1  0  0  0
 35 38  1  0  0  0
 35128  1  0  0  0
 36 37  2  0  0  0
 36 44  1  0  0  0
 38 39  1  0  0  0
 38129  1  0  0  0
 38130  1  0  0  0
 39 40  2  0  0  0
 39 41  1  0  0  0
 40 42  1  0  0  0
 41 43  2  0  0  0
 41131  1  0  0  0
 42 43  1  0  0  0
 42132  1  0  0  0
 44 45  1  0  0  0
 44133  1  0  0  0
 45 46  1  0  0  0
 45 48  1  0  0  0
 45134  1  0  0  0
 46 47  2  0  0  0
 46 52  1  0  0  0
 48 49  1  0  0  0
 48 50  1  0  0  0
 48135  1  0  0  0
 49 51  1  0  0  0
 49136  1  0  0  0
 49137  1  0  0  0
 50138  1  0  0  0
 50139  1  0  0  0
 50140  1  0  0  0
 51141  1  0  0  0
 51142  1  0  0  0
 51143  1  0  0  0
 52 53  1  0  0  0
 52144  1  0  0  0
 53 54  1  0  0  0
 53 56  1  0  0  0
 53145  1  0  0  0
 54 55  2  0  0  0
 54 60  1  0  0  0
 56 57  1  0  0  0
 56146  1  0  0  0
 56147  1  0  0  0
 57 58  2  0  0  0
 57 59  1  0  0  0
 59148  1  0  0  0
 60 61  1  0  0  0
 60149  1  0  0  0
 61 62  1  0  0  0
 61 64  1  0  0  0
 61150  1  0  0  0
 62 63  2  0  0  0
 62 66  1  0  0  0
 64 65  1  0  0  0
 64151  1  0  0  0
 64152  1  0  0  0
 65153  1  0  0  0
 66 67  1  0  0  0
 66154  1  0  0  0
 67 68  1  0  0  0
 67 70  1  0  0  0
 67155  1  0  0  0
 68 69  2  0  0  0
 68 75  1  0  0  0
 70 71  1  0  0  0
 70156  1  0  0  0
 70157  1  0  0  0
 71 72  1  0  0  0
 71158  1  0  0  0
 71159  1  0  0  0
 72 73  2  0  0  0
 72 74  1  0  0  0
 74160  1  0  0  0
 74161  1  0  0  0
 75 76  1  0  0  0
 75162  1  0  0  0
 76 77  1  0  0  0
 76 79  1  0  0  0
 76163  1  0  0  0
 77 78  2  0  0  0
 77 84  1  0  0  0
 79 80  1  0  0  0
 79164  1  0  0  0
 79165  1  0  0  0
 80 81  1  0  0  0
 80166  1  0  0  0
 80167  1  0  0  0
 81 82  1  0  0  0
 81168  1  0  0  0
 81169  1  0  0  0
 82 83  1  0  0  0
 82170  1  0  0  0
 82171  1  0  0  0
 83172  1  0  0  0
 83173  1  0  0  0
 83174  1  0  0  0
 84 85  1  0  0  0
 84175  1  0  0  0
 85 86  1  0  0  0
 85 88  1  0  0  0
 85176  1  0  0  0
 86 87  2  0  0  0
 86177  1  0  0  0
 88 89  1  0  0  0
 88178  1  0  0  0
 88179  1  0  0  0
 89 90  1  0  0  0
 89180  1  0  0  0
 89181  1  0  0  0
 90 91  1  0  0  0
 90182  1  0  0  0
 90183  1  0  0  0
 91 92  1  0  0  0
 91184  1  0  0  0
 91185  1  0  0  0
 92186  1  0  0  0
 92187  1  0  0  0
 92188  1  0  0  0
M  CHG  3   1   1  83   1  92   1
M  END
> <s_m_source_file>
../1tet_ligand.sdf

> <i_m_source_file_index>
1

> <s_epik_input>
W0NIM11bQ0hdKFtDSDNdKVtDQEhdKFtOSDMrXSlDKD1PKU4xW0NAQEhdKFtDSDJdW0NIMl1bQ0gyXTEpQyg9TylbTkhdW0NIMl1DKD1PKVtOSF1bQ0BASF0oW0NIMl1bT0hdKUMoPU8pW05IXVtDQEBIXShbQ0gyXVtDSDJdQyg9TylbTkgyXSlDKD1PKVtOSF1bQ0BASF0oW0NIMl1DMj1OW0NIMl1OPVtDSF0yKUMoPU8pW05IXVtDQEBIXShbQ0BASF0oW0NIM10pW0NIMl1bQ0gzXSlDKD1PKVtOSF1bQ0BASF0oW0NIMl1DKD1PKVtPSF0pQyg9TylbTkhdW0NAQEhdKFtDSDJdW09IXSlDKD1PKVtOSF1bQ0BASF0oW0NIMl1bQ0gyXUMoPU8pW05IMl0pQyg9TylbTkhdW0NAQEhdKFtDSDJdW0NIMl1bQ0gyXVtDSDJdW05IMytdKUMoPU8pW05IXVtDQEhdKFtDSF09TylbQ0gyXVtDSDJdW0NIMl1bQ0gyXVtOSDMrXQ==

> <s_epik_cmdline>
J2VwaWtfYXBwJywgJy1pbWFlJywgJ2xpZ2FuZF9wcm8ubWFlJywgJy1vbWFlJywgJ2xpZ2FuZF9wcmVwLm1hZScsICctbXMnLCAnMScsICctcGgnLCAnNycsICctcGh0JywgJzAuNScsICctbnQn

> <s_epik_pKa_notes>
Molecule size exceeds maximum supported for generating protonation states

> <s_epik_Chemistry_Notes>
This compound has an imine and may undergo hydrolysis.

$$$$
