1tfq_ligand
                    3D
 Schrodinger Suite 2020-3.
 71 73  0  0  1  0            999 V2000
   -0.2730  -13.4160    5.8580 C   0  0  0  0  0  0
   -1.6730  -13.9300    6.1460 C   0  0  2  0  0  0
    0.8140  -13.6500    6.7260 C   0  0  0  0  0  0
   -0.0710  -12.6760    4.6720 C   0  0  0  0  0  0
   -2.6540  -12.8450    5.8910 N   0  0  0  0  0  0
   -1.8350  -14.4300    7.6110 C   0  0  0  0  0  0
    0.6680  -14.4350    7.9970 C   0  0  0  0  0  0
    2.0880  -13.1440    6.4100 C   0  0  0  0  0  0
    1.2050  -12.1740    4.3630 C   0  0  0  0  0  0
   -3.9620  -13.0680    5.7790 C   0  0  0  0  0  0
   -0.6270  -15.2380    8.0970 C   0  0  0  0  0  0
    2.2820  -12.4080    5.2290 C   0  0  0  0  0  0
   -4.8870  -11.8860    5.6090 C   0  0  1  0  0  0
   -4.4140  -14.2160    5.8300 O   0  0  0  0  0  0
   -5.9970  -12.1870    4.6580 N   0  0  0  0  0  0
   -5.4860  -11.4790    6.9670 C   0  0  0  0  0  0
   -5.9340  -12.5090    3.3490 C   0  0  0  0  0  0
   -7.2320  -12.0520    5.4300 C   0  0  0  0  0  0
   -6.9600  -11.2180    6.6700 C   0  0  0  0  0  0
   -7.2340  -12.7050    2.5830 C   0  0  1  0  0  0
   -4.8560  -12.6270    2.7480 O   0  0  0  0  0  0
   -7.0580  -12.2410    1.1920 N   0  0  0  0  0  0
   -7.6640  -14.1940    2.5870 C   0  0  0  0  0  0
   -7.7390  -11.1820    0.7430 C   0  0  0  0  0  0
   -9.0930  -14.2870    3.1160 C   0  0  0  0  0  0
   -6.7420  -15.0080    3.4950 C   0  0  0  0  0  0
   -7.6210  -14.7660    1.1720 C   0  0  0  0  0  0
   -7.5430  -10.7070   -0.6800 C   0  0  1  0  0  0
   -8.5260  -10.5890    1.4850 O   0  0  0  0  0  0
   -8.7020   -9.9110   -1.0970 N   0  3  0  0  0  0
   -6.2810   -9.8570   -0.7780 C   0  0  0  0  0  0
   -9.6580  -10.7710   -1.7960 C   0  0  0  0  0  0
   -1.8670  -14.7595    5.4501 H   0  0  0  0  0  0
   -0.9059  -12.4939    3.9953 H   0  0  0  0  0  0
   -2.3096  -11.8055    5.7866 H   0  0  0  0  0  0
   -1.9548  -13.5666    8.2820 H   0  0  0  0  0  0
   -2.7228  -15.0756    7.6821 H   0  0  0  0  0  0
    1.4977  -15.1522    8.0823 H   0  0  0  0  0  0
    0.6870  -13.7485    8.8562 H   0  0  0  0  0  0
    2.9265  -13.3233    7.0829 H   0  0  0  0  0  0
    1.3573  -11.6015    3.4480 H   0  0  0  0  0  0
   -0.7763  -15.5240    9.1486 H   0  0  0  0  0  0
   -0.5205  -16.1440    7.4823 H   0  0  0  0  0  0
    3.2707  -12.0187    4.9861 H   0  0  0  0  0  0
   -4.2926  -11.0703    5.1716 H   0  0  0  0  0  0
   -5.3512  -12.2990    7.6877 H   0  0  0  0  0  0
   -4.9758  -10.5776    7.3375 H   0  0  0  0  0  0
   -7.9973  -11.5572    4.8139 H   0  0  0  0  0  0
   -7.5892  -13.0489    5.7277 H   0  0  0  0  0  0
   -7.5691  -11.5373    7.5285 H   0  0  0  0  0  0
   -7.1133  -10.1435    6.4911 H   0  0  0  0  0  0
   -8.0156  -12.0855    3.0470 H   0  0  0  0  0  0
   -6.3640  -12.7674    0.5203 H   0  0  0  0  0  0
   -9.1338  -13.8769    4.1359 H   0  0  0  0  0  0
   -9.4105  -15.3401    3.1313 H   0  0  0  0  0  0
   -9.7643  -13.7111    2.4620 H   0  0  0  0  0  0
   -6.7735  -14.5954    4.5142 H   0  0  0  0  0  0
   -5.7124  -14.9586    3.1111 H   0  0  0  0  0  0
   -7.0768  -16.0557    3.5131 H   0  0  0  0  0  0
   -8.2846  -14.1798    0.5193 H   0  0  0  0  0  0
   -7.9559  -15.8136    1.1897 H   0  0  0  0  0  0
   -6.5915  -14.7166    0.7877 H   0  0  0  0  0  0
   -7.4741  -11.5746   -1.3527 H   0  0  0  0  0  0
   -9.1834   -9.4720   -0.2107 H   0  0  0  0  0  0
   -8.3713   -9.1068   -1.7707 H   0  0  0  0  0  0
   -5.4116  -10.4540   -0.4652 H   0  0  0  0  0  0
   -6.3782   -8.9793   -0.1221 H   0  0  0  0  0  0
   -6.1427   -9.5245   -1.8174 H   0  0  0  0  0  0
  -10.5274  -10.1742   -2.1089 H   0  0  0  0  0  0
   -9.9886  -11.5752   -1.1222 H   0  0  0  0  0  0
   -9.1764  -11.2100   -2.6822 H   0  0  0  0  0  0
  1  2  1  0  0  0
  1  3  2  0  0  0
  1  4  1  0  0  0
  2  5  1  0  0  0
  2  6  1  0  0  0
  2 33  1  0  0  0
  3  7  1  0  0  0
  3  8  1  0  0  0
  4  9  2  0  0  0
  4 34  1  0  0  0
  5 10  1  0  0  0
  5 35  1  0  0  0
  6 11  1  0  0  0
  6 36  1  0  0  0
  6 37  1  0  0  0
  7 11  1  0  0  0
  7 38  1  0  0  0
  7 39  1  0  0  0
  8 12  2  0  0  0
  8 40  1  0  0  0
  9 12  1  0  0  0
  9 41  1  0  0  0
 10 13  1  0  0  0
 10 14  2  0  0  0
 11 42  1  0  0  0
 11 43  1  0  0  0
 12 44  1  0  0  0
 13 15  1  0  0  0
 13 16  1  0  0  0
 13 45  1  0  0  0
 15 17  1  0  0  0
 15 18  1  0  0  0
 16 19  1  0  0  0
 16 46  1  0  0  0
 16 47  1  0  0  0
 17 20  1  0  0  0
 17 21  2  0  0  0
 18 19  1  0  0  0
 18 48  1  0  0  0
 18 49  1  0  0  0
 19 50  1  0  0  0
 19 51  1  0  0  0
 20 22  1  0  0  0
 20 23  1  0  0  0
 20 52  1  0  0  0
 22 24  1  0  0  0
 22 53  1  0  0  0
 23 25  1  0  0  0
 23 26  1  0  0  0
 23 27  1  0  0  0
 24 28  1  0  0  0
 24 29  2  0  0  0
 25 54  1  0  0  0
 25 55  1  0  0  0
 25 56  1  0  0  0
 26 57  1  0  0  0
 26 58  1  0  0  0
 26 59  1  0  0  0
 27 60  1  0  0  0
 27 61  1  0  0  0
 27 62  1  0  0  0
 28 30  1  0  0  0
 28 31  1  0  0  0
 28 63  1  0  0  0
 30 32  1  0  0  0
 30 64  1  0  0  0
 30 65  1  0  0  0
 31 66  1  0  0  0
 31 67  1  0  0  0
 31 68  1  0  0  0
 32 69  1  0  0  0
 32 70  1  0  0  0
 32 71  1  0  0  0
M  CHG  1  30   1
M  END
> <s_m_source_file>
../1tfq_ligand.sdf

> <i_m_source_file_index>
1

> <s_epik_input>
W2NIXTFbY0hdW2NIXVtjSF1jKGMxMilbQ0gyXVtDSDJdW0NIMl1bQ0BIXTJbTkhdQyg9TylbQ0BIXTNOKFtDSDJdW0NIMl1bQ0gyXTMpQyg9TylbQ0BIXShDKFtDSDNdKShbQ0gzXSlbQ0gzXSlbTkhdQyg9TylbQ0BIXShbQ0gzXSlbTkgyK11bQ0gzXQ==

> <s_epik_cmdline>
J2VwaWtfYXBwJywgJy1pbWFlJywgJ2xpZ2FuZF9wcm8ubWFlJywgJy1vbWFlJywgJ2xpZ2FuZF9wcmVwLm1hZScsICctbXMnLCAnMScsICctcGgnLCAnNycsICctcGh0JywgJzAuNScsICctbnQn

> <r_epik_Ionization_Penalty>
  0.0805

> <r_epik_Ionization_Penalty_Charging>
  0.0805

> <r_epik_Ionization_Penalty_Neutral>
  0.0000

> <r_epik_State_Penalty>
  0.0713

> <r_epik_Charging_Adjusted_Penalty>
0.151842181564983

> <i_epik_Tot_Q>
1

> <i_epik_Tot_abs_Q>
1

$$$$
