1tft_ligand
                    3D
 Schrodinger Suite 2020-3.
 82 85  0  0  1  0            999 V2000
   -1.0150  -13.2570    5.7930 C   0  0  0  0  0  0
   -2.4590  -13.6470    6.0690 C   0  0  2  0  0  0
    0.0440  -13.5960    6.6600 C   0  0  0  0  0  0
   -0.7420  -12.5250    4.6160 C   0  0  0  0  0  0
   -3.3250  -12.4570    5.8800 N   0  0  0  0  0  0
   -2.6650  -14.1840    7.5170 C   0  0  0  0  0  0
   -0.1760  -14.3720    7.9220 C   0  0  0  0  0  0
    1.3600  -13.2040    6.3520 C   0  0  0  0  0  0
    0.5740  -12.1370    4.3150 C   0  0  0  0  0  0
   -4.6010  -12.5420    5.5050 C   0  0  0  0  0  0
   -1.5230  -15.0810    7.9950 C   0  0  0  0  0  0
    1.6220  -12.4770    5.1800 C   0  0  0  0  0  0
   -5.3920  -11.2650    5.3430 C   0  0  1  0  0  0
   -5.1270  -13.6390    5.2950 O   0  0  0  0  0  0
   -6.5870  -11.4600    4.4750 N   0  0  0  0  0  0
   -5.8460  -10.7460    6.7150 C   0  0  0  0  0  0
   -6.6370  -11.8320    3.1780 C   0  0  0  0  0  0
   -7.7470  -11.1590    5.3150 C   0  0  0  0  0  0
   -7.3080  -10.3590    6.5270 C   0  0  1  0  0  0
   -7.9920  -11.9330    2.4890 C   0  0  1  0  0  0
   -5.6120  -12.0820    2.5280 O   0  0  0  0  0  0
   -7.8280  -11.6220    1.0530 N   0  0  0  0  0  0
   -8.6000  -13.3550    2.6470 C   0  0  0  0  0  0
   -8.3510  -10.5030    0.5400 C   0  0  0  0  0  0
   -9.9460  -13.2310    3.3590 C   0  0  0  0  0  0
   -7.6760  -14.2400    3.4850 C   0  0  0  0  0  0
   -8.8230  -14.0020    1.2820 C   0  0  0  0  0  0
   -8.1920  -10.2030   -0.9350 C   0  0  1  0  0  0
   -8.9640   -9.7140    1.2640 O   0  0  0  0  0  0
   -9.2620   -9.3020   -1.3700 N   0  3  0  0  0  0
   -6.8380   -9.5520   -1.1950 C   0  0  0  0  0  0
  -10.2120  -10.0410   -2.2000 C   0  0  0  0  0  0
   -8.0930  -10.6790    7.6910 O   0  0  0  0  0  0
   -8.6170   -9.4900    8.3020 C   0  0  0  0  0  0
   -9.9470   -9.4650    8.7420 C   0  0  0  0  0  0
  -10.4640   -8.3130    9.3460 C   0  0  0  0  0  0
   -9.6540   -7.1840    9.5130 C   0  0  0  0  0  0
   -8.3250   -7.2070    9.0750 C   0  0  0  0  0  0
   -7.8060   -8.3590    8.4720 C   0  0  0  0  0  0
   -2.7354  -14.4218    5.3387 H   0  0  0  0  0  0
   -1.5548  -12.2606    3.9396 H   0  0  0  0  0  0
   -2.9194  -11.4489    6.0507 H   0  0  0  0  0  0
   -2.7368  -13.3372    8.2154 H   0  0  0  0  0  0
   -3.5919  -14.7748    7.5606 H   0  0  0  0  0  0
    0.6004  -15.1454    8.0169 H   0  0  0  0  0  0
   -0.1232  -13.6916    8.7847 H   0  0  0  0  0  0
    2.1771  -13.4652    7.0244 H   0  0  0  0  0  0
    0.7800  -11.5704    3.4069 H   0  0  0  0  0  0
   -1.7011  -15.3760    9.0396 H   0  0  0  0  0  0
   -1.4740  -15.9802    7.3633 H   0  0  0  0  0  0
    2.6426  -12.1766    4.9427 H   0  0  0  0  0  0
   -4.7388  -10.5395    4.8360 H   0  0  0  0  0  0
   -5.7303  -11.5424    7.4649 H   0  0  0  0  0  0
   -5.2307   -9.8804    7.0015 H   0  0  0  0  0  0
   -8.4765  -10.5732    4.7365 H   0  0  0  0  0  0
   -8.2125  -12.0985    5.6477 H   0  0  0  0  0  0
   -7.4789   -9.2770    6.4265 H   0  0  0  0  0  0
   -8.6681  -11.1834    2.9261 H   0  0  0  0  0  0
   -7.2735  -12.3125    0.4005 H   0  0  0  0  0  0
   -9.7979  -12.7657    4.3447 H   0  0  0  0  0  0
  -10.3861  -14.2309    3.4879 H   0  0  0  0  0  0
  -10.6231  -12.6072    2.7570 H   0  0  0  0  0  0
   -7.5150  -13.7743    4.4685 H   0  0  0  0  0  0
   -6.7104  -14.3529    2.9703 H   0  0  0  0  0  0
   -8.1380  -15.2292    3.6189 H   0  0  0  0  0  0
   -9.4875  -13.3659    0.6789 H   0  0  0  0  0  0
   -9.2849  -14.9913    1.4162 H   0  0  0  0  0  0
   -7.8573  -14.1149    0.7676 H   0  0  0  0  0  0
   -8.2849  -11.1333   -1.5146 H   0  0  0  0  0  0
   -9.7814   -8.8974   -0.4888 H   0  0  0  0  0  0
   -8.8306   -8.4751   -1.9532 H   0  0  0  0  0  0
   -6.0362  -10.2302   -0.8677 H   0  0  0  0  0  0
   -6.7714   -8.6079   -0.6344 H   0  0  0  0  0  0
   -6.7296   -9.3482   -2.2705 H   0  0  0  0  0  0
  -11.0160   -9.3653   -2.5272 H   0  0  0  0  0  0
  -10.6428  -10.8680   -1.6164 H   0  0  0  0  0  0
   -9.6919  -10.4457   -3.0808 H   0  0  0  0  0  0
  -10.5796  -10.3434    8.6138 H   0  0  0  0  0  0
  -11.4992   -8.2952    9.6869 H   0  0  0  0  0  0
  -10.0578   -6.2877    9.9837 H   0  0  0  0  0  0
   -7.6938   -6.3277    9.2034 H   0  0  0  0  0  0
   -6.7698   -8.3767    8.1342 H   0  0  0  0  0  0
  1  2  1  0  0  0
  1  3  2  0  0  0
  1  4  1  0  0  0
  2  5  1  0  0  0
  2  6  1  0  0  0
  2 40  1  0  0  0
  3  7  1  0  0  0
  3  8  1  0  0  0
  4  9  2  0  0  0
  4 41  1  0  0  0
  5 10  1  0  0  0
  5 42  1  0  0  0
  6 11  1  0  0  0
  6 43  1  0  0  0
  6 44  1  0  0  0
  7 11  1  0  0  0
  7 45  1  0  0  0
  7 46  1  0  0  0
  8 12  2  0  0  0
  8 47  1  0  0  0
  9 12  1  0  0  0
  9 48  1  0  0  0
 10 13  1  0  0  0
 10 14  2  0  0  0
 11 49  1  0  0  0
 11 50  1  0  0  0
 12 51  1  0  0  0
 13 15  1  0  0  0
 13 16  1  0  0  0
 13 52  1  0  0  0
 15 17  1  0  0  0
 15 18  1  0  0  0
 16 19  1  0  0  0
 16 53  1  0  0  0
 16 54  1  0  0  0
 17 20  1  0  0  0
 17 21  2  0  0  0
 18 19  1  0  0  0
 18 55  1  0  0  0
 18 56  1  0  0  0
 19 33  1  0  0  0
 19 57  1  0  0  0
 20 22  1  0  0  0
 20 23  1  0  0  0
 20 58  1  0  0  0
 22 24  1  0  0  0
 22 59  1  0  0  0
 23 25  1  0  0  0
 23 26  1  0  0  0
 23 27  1  0  0  0
 24 28  1  0  0  0
 24 29  2  0  0  0
 25 60  1  0  0  0
 25 61  1  0  0  0
 25 62  1  0  0  0
 26 63  1  0  0  0
 26 64  1  0  0  0
 26 65  1  0  0  0
 27 66  1  0  0  0
 27 67  1  0  0  0
 27 68  1  0  0  0
 28 30  1  0  0  0
 28 31  1  0  0  0
 28 69  1  0  0  0
 30 32  1  0  0  0
 30 70  1  0  0  0
 30 71  1  0  0  0
 31 72  1  0  0  0
 31 73  1  0  0  0
 31 74  1  0  0  0
 32 75  1  0  0  0
 32 76  1  0  0  0
 32 77  1  0  0  0
 33 34  1  0  0  0
 34 35  2  0  0  0
 34 39  1  0  0  0
 35 36  1  0  0  0
 35 78  1  0  0  0
 36 37  2  0  0  0
 36 79  1  0  0  0
 37 38  1  0  0  0
 37 80  1  0  0  0
 38 39  2  0  0  0
 38 81  1  0  0  0
 39 82  1  0  0  0
M  CHG  1  30   1
M  END
> <s_m_source_file>
../1tft_ligand.sdf

> <i_m_source_file_index>
1

> <s_epik_input>
W2NIXTFbY0hdW2NIXVtjSF1jKGMxMilbQ0gyXVtDSDJdW0NIMl1bQ0BIXTJbTkhdQyg9TylbQ0BIXTNOKEMoPU8pW0NASF0oQyhbQ0gzXSkoW0NIM10pW0NIM10pW05IXUMoPU8pW0NASF0oW0NIM10pW05IMitdW0NIM10pW0NIMl1bQ0BIXShbQ0gyXTMpT2M0W2NIXVtjSF1bY0hdW2NIXVtjSF00

> <s_epik_cmdline>
J2VwaWtfYXBwJywgJy1pbWFlJywgJ2xpZ2FuZF9wcm8ubWFlJywgJy1vbWFlJywgJ2xpZ2FuZF9wcmVwLm1hZScsICctbXMnLCAnMScsICctcGgnLCAnNycsICctcGh0JywgJzAuNScsICctbnQn

> <r_lp_tautomer_probability>
1

> <r_epik_Ionization_Penalty>
  0.0805

> <r_epik_Ionization_Penalty_Charging>
  0.0805

> <r_epik_Ionization_Penalty_Neutral>
  0.0000

> <r_epik_State_Penalty>
  0.0713

> <r_epik_Charging_Adjusted_Penalty>
0.151842181564983

> <i_epik_Tot_Q>
1

> <i_epik_Tot_abs_Q>
1

$$$$
