1tfz_ligand
                    3D
 Schrodinger Suite 2020-3.
 57 59  0  0  1  0            999 V2000
   37.2990   37.4720   52.3400 O   0  0  0  0  0  0
   37.3490   36.1570   51.7690 C   0  0  0  0  0  0
   39.2230   38.8020   51.7340 C   0  0  0  0  0  0
   40.5120   39.2700   52.0120 C   0  0  0  0  0  0
   41.1830   38.8450   53.1830 C   0  0  0  0  0  0
   40.5610   37.9640   54.0510 C   0  0  0  0  0  0
   39.2720   37.5030   53.7710 C   0  0  0  0  0  0
   38.6050   37.9240   52.6090 C   0  0  0  0  0  0
   43.5410   38.8610   52.6570 C   0  0  0  0  0  0
   44.8480   39.3390   52.9030 C   0  0  0  0  0  0
   45.0640   40.2680   53.9310 C   0  0  0  0  0  0
   44.0120   40.7300   54.7330 C   0  0  0  0  0  0
   42.6860   40.2750   54.5290 C   0  0  0  0  0  0
   42.4480   39.3100   53.4540 C   0  0  0  0  0  0
   43.3390   37.8200   51.7150 C   0  0  0  0  0  0
   46.9410   37.7970   52.5700 C   0  0  1  0  0  0
   47.9950   37.3700   51.8590 C   0  0  0  0  0  0
   46.8590   37.4050   53.8810 C   0  0  0  0  0  0
   48.6900   36.6260   52.7610 N   0  0  0  0  0  0
   47.9750   36.6540   54.0260 N   0  0  0  0  0  0
   48.2040   37.4520   50.4770 O   0  0  0  0  0  0
   45.9790   38.9070   52.0840 C   0  0  0  0  0  0
   45.8480   39.1190   50.8620 O   0  0  0  0  0  0
   41.5240   41.0020   55.3790 S   0  0  0  0  0  0
   40.6190   41.5870   54.5200 O   0  0  0  0  0  0
   42.0670   42.0320   56.1110 O   0  0  0  0  0  0
   40.6990   39.9780   56.4900 C   0  0  0  0  0  0
   49.6170   35.5020   52.3890 C   0  0  0  0  0  0
   48.8050   34.3050   51.9020 C   0  0  0  0  0  0
   50.5580   35.9400   51.2870 C   0  0  0  0  0  0
   50.5090   35.0720   53.5780 C   0  0  0  0  0  0
   36.3266   35.8086   51.5608 H   0  0  0  0  0  0
   37.8342   35.4683   52.4764 H   0  0  0  0  0  0
   37.9245   36.1858   50.8320 H   0  0  0  0  0  0
   38.7065   39.1276   50.8311 H   0  0  0  0  0  0
   40.9996   39.9625   51.3259 H   0  0  0  0  0  0
   41.0762   37.6303   54.9518 H   0  0  0  0  0  0
   38.7817   36.8132   54.4579 H   0  0  0  0  0  0
   46.0731   40.6391   54.1102 H   0  0  0  0  0  0
   44.2169   41.4499   55.5254 H   0  0  0  0  0  0
   44.2849   37.6070   51.1955 H   0  0  0  0  0  0
   42.5800   38.1310   50.9821 H   0  0  0  0  0  0
   42.9955   36.9147   52.2370 H   0  0  0  0  0  0
   46.0909   37.6386   54.6183 H   0  0  0  0  0  0
   40.2466   39.1358   55.9459 H   0  0  0  0  0  0
   39.9107   40.5506   57.0005 H   0  0  0  0  0  0
   41.4126   39.5933   57.2334 H   0  0  0  0  0  0
   48.1711   34.6114   51.0568 H   0  0  0  0  0  0
   48.1706   33.9348   52.7208 H   0  0  0  0  0  0
   49.4881   33.5062   51.5774 H   0  0  0  0  0  0
   49.9738   36.2584   50.4110 H   0  0  0  0  0  0
   51.2107   35.1001   51.0068 H   0  0  0  0  0  0
   51.1732   36.7798   51.6424 H   0  0  0  0  0  0
   49.8732   34.7419   54.4128 H   0  0  0  0  0  0
   51.1252   35.9240   53.9010 H   0  0  0  0  0  0
   51.1627   34.2444   53.2654 H   0  0  0  0  0  0
   47.5621   38.0990   49.8611 H   0  0  0  0  0  0
  1  2  1  0  0  0
  1  8  1  0  0  0
  2 32  1  0  0  0
  2 33  1  0  0  0
  2 34  1  0  0  0
  3  4  2  0  0  0
  3  8  1  0  0  0
  3 35  1  0  0  0
  4  5  1  0  0  0
  4 36  1  0  0  0
  5  6  2  0  0  0
  5 14  1  0  0  0
  6  7  1  0  0  0
  6 37  1  0  0  0
  7  8  2  0  0  0
  7 38  1  0  0  0
  9 10  2  0  0  0
  9 14  1  0  0  0
  9 15  1  0  0  0
 10 11  1  0  0  0
 10 22  1  0  0  0
 11 12  2  0  0  0
 11 39  1  0  0  0
 12 13  1  0  0  0
 12 40  1  0  0  0
 13 14  2  0  0  0
 13 24  1  0  0  0
 15 41  1  0  0  0
 15 42  1  0  0  0
 15 43  1  0  0  0
 16 17  2  0  0  0
 16 18  1  0  0  0
 16 22  1  0  0  0
 17 19  1  0  0  0
 17 21  1  0  0  0
 18 20  2  0  0  0
 18 44  1  0  0  0
 19 20  1  0  0  0
 19 28  1  0  0  0
 21 57  1  0  0  0
 22 23  2  0  0  0
 24 25  2  0  0  0
 24 26  2  0  0  0
 24 27  1  0  0  0
 27 45  1  0  0  0
 27 46  1  0  0  0
 27 47  1  0  0  0
 28 29  1  0  0  0
 28 30  1  0  0  0
 28 31  1  0  0  0
 29 48  1  0  0  0
 29 49  1  0  0  0
 29 50  1  0  0  0
 30 51  1  0  0  0
 30 52  1  0  0  0
 30 53  1  0  0  0
 31 54  1  0  0  0
 31 55  1  0  0  0
 31 56  1  0  0  0
M  END
> <s_m_source_file>
../1tfz_ligand.sdf

> <i_m_source_file_index>
1

> <s_epik_input>
W0NIM11PYyhbY0hdW2NIXTEpW2NIXVtjSF1jMS1jMmMoUyg9TykoPU8pW0NIM10pW2NIXVtjSF1jKGMyW0NIM10pQyg9TylbQ0BIXTNDKD1PKU4oTj1bQ0hdMylDKFtDSDNdKShbQ0gzXSlbQ0gzXQ==

> <s_epik_cmdline>
J2VwaWtfYXBwJywgJy1pbWFlJywgJ2xpZ2FuZF9wcm8ubWFlJywgJy1vbWFlJywgJ2xpZ2FuZF9wcmVwLm1hZScsICctbXMnLCAnMScsICctcGgnLCAnNycsICctcGh0JywgJzAuNScsICctbnQn

> <r_lp_tautomer_probability>
1

> <r_epik_Ionization_Penalty>
  0.3571

> <r_epik_Ionization_Penalty_Charging>
  0.0000

> <r_epik_Ionization_Penalty_Neutral>
  0.3571

> <r_epik_State_Penalty>
  0.3537

> <r_epik_Charging_Adjusted_Penalty>
0.35370771886119

> <i_epik_Tot_Q>
0

> <i_epik_Tot_abs_Q>
0

$$$$
