1tg5_ligand
                    3D
 Schrodinger Suite 2020-3.
 49 51  0  0  1  0            999 V2000
   48.3660   37.7160   51.3850 O   0  5  0  0  0  0
   47.7760   37.4200   52.4320 C   0  0  0  0  0  0
   46.7150   37.8270   52.8850 C   0  0  0  0  0  0
   45.7220   38.7610   52.5260 C   0  0  0  0  0  0
   46.1370   39.3650   51.1190 O   0  0  0  0  0  0
   44.9170   39.2020   53.3270 C   0  0  0  0  0  0
   43.5060   38.7250   53.1600 C   0  0  0  0  0  0
   43.1070   37.7850   52.0790 Cl  0  0  0  0  0  0
   42.5230   39.2190   54.0290 C   0  0  0  0  0  0
   42.7810   40.2010   55.0780 C   0  0  0  0  0  0
   44.1080   40.6280   55.2290 C   0  0  0  0  0  0
   45.1240   40.1540   54.3980 C   0  0  0  0  0  0
   41.6430   40.9740   55.9500 S   0  0  0  0  0  0
   41.1180   40.2230   56.9260 O   0  0  0  0  0  0
   42.2070   41.7590   56.9650 O   0  0  0  0  0  0
   40.9550   41.8810   54.9540 C   0  0  0  0  0  0
   46.5160   37.1100   54.1870 C   0  0  0  0  0  0
   47.6280   36.2880   54.4140 N   0  0  0  0  0  0
   48.4120   36.4880   53.2960 N   0  0  0  0  0  0
   49.6640   35.8080   53.1260 C   0  0  0  0  0  0
   49.0900   34.3640   52.7300 C   0  0  0  0  0  0
   50.6120   36.1130   51.9520 C   0  0  0  0  0  0
   50.3840   35.6340   54.4130 C   0  0  0  0  0  0
   45.6150   36.9340   55.2060 C   0  0  0  0  0  0
   46.1410   37.5230   56.5110 C   0  0  0  0  0  0
   47.4690   38.1880   56.5670 Cl  0  0  0  0  0  0
   45.1340   37.3100   57.6320 C   0  0  0  0  0  0
   43.9030   36.6690   57.4790 C   0  0  0  0  0  0
   43.1710   36.5730   58.4940 Cl  0  0  0  0  0  0
   43.5870   36.1590   56.1180 C   0  0  0  0  0  0
   44.5050   36.3780   55.1800 C   0  0  0  0  0  0
   41.5047   38.8475   53.9145 H   0  0  0  0  0  0
   44.3513   41.3457   56.0124 H   0  0  0  0  0  0
   46.1358   40.5233   54.5656 H   0  0  0  0  0  0
   40.5087   41.2739   54.1526 H   0  0  0  0  0  0
   41.6904   42.5755   54.5216 H   0  0  0  0  0  0
   40.1657   42.4532   55.4635 H   0  0  0  0  0  0
   48.5438   34.4351   51.7779 H   0  0  0  0  0  0
   48.4085   34.0116   53.5183 H   0  0  0  0  0  0
   49.9240   33.6549   52.6222 H   0  0  0  0  0  0
   50.0259   36.2315   51.0287 H   0  0  0  0  0  0
   51.3239   35.2833   51.8305 H   0  0  0  0  0  0
   51.1636   37.0422   52.1580 H   0  0  0  0  0  0
   49.6595   35.4191   55.2123 H   0  0  0  0  0  0
   50.9328   36.5564   54.6537 H   0  0  0  0  0  0
   51.0931   34.7975   54.3263 H   0  0  0  0  0  0
   45.3916   37.6837   58.6230 H   0  0  0  0  0  0
   42.6559   35.6354   55.9012 H   0  0  0  0  0  0
   44.2289   35.9948   54.1976 H   0  0  0  0  0  0
  1  2  1  0  0  0
  2  3  2  0  0  0
  2 19  1  0  0  0
  3  4  1  0  0  0
  3 17  1  0  0  0
  4  5  2  0  0  0
  4  6  1  0  0  0
  6  7  2  0  0  0
  6 12  1  0  0  0
  7  8  1  0  0  0
  7  9  1  0  0  0
  9 10  2  0  0  0
  9 32  1  0  0  0
 10 11  1  0  0  0
 10 13  1  0  0  0
 11 12  2  0  0  0
 11 33  1  0  0  0
 12 34  1  0  0  0
 13 14  2  0  0  0
 13 15  2  0  0  0
 13 16  1  0  0  0
 16 35  1  0  0  0
 16 36  1  0  0  0
 16 37  1  0  0  0
 17 18  2  0  0  0
 17 24  1  0  0  0
 18 19  1  0  0  0
 19 20  1  0  0  0
 20 21  1  0  0  0
 20 22  1  0  0  0
 20 23  1  0  0  0
 21 38  1  0  0  0
 21 39  1  0  0  0
 21 40  1  0  0  0
 22 41  1  0  0  0
 22 42  1  0  0  0
 22 43  1  0  0  0
 23 44  1  0  0  0
 23 45  1  0  0  0
 23 46  1  0  0  0
 24 25  2  0  0  0
 24 31  1  0  0  0
 25 26  1  0  0  0
 25 27  1  0  0  0
 27 28  2  0  0  0
 27 47  1  0  0  0
 28 29  1  0  0  0
 28 30  1  0  0  0
 30 31  2  0  0  0
 30 48  1  0  0  0
 31 49  1  0  0  0
M  CHG  1   1  -1
M  END
> <s_m_source_file>
../1tg5_ligand.sdf

> <i_m_source_file_index>
1

> <s_epik_input>
W2NIXTFbY0hdYyhDbClbY0hdYyhDbCljMS1jKG5uMkMoW0NIM10pKFtDSDNdKVtDSDNdKWMoYzJbT0hdKUMoPU8pYzNjKENsKVtjSF1jKFtjSF1bY0hdMylTKD1PKSg9TylbQ0gzXQ==

> <s_epik_cmdline>
J2VwaWtfYXBwJywgJy1pbWFlJywgJ2xpZ2FuZF9wcm8ubWFlJywgJy1vbWFlJywgJ2xpZ2FuZF9wcmVwLm1hZScsICctbXMnLCAnMScsICctcGgnLCAnNycsICctcGh0JywgJzAuNScsICctbnQn

> <r_epik_Ionization_Penalty>
  0.2848

> <r_epik_Ionization_Penalty_Charging>
  0.2846

> <r_epik_Ionization_Penalty_Neutral>
  0.0002

> <r_epik_State_Penalty>
  0.2773

> <r_epik_Charging_Adjusted_Penalty>
0.561909822590269

> <i_epik_Tot_Q>
-1

> <i_epik_Tot_abs_Q>
1

$$$$
