1thr_ligand
                    3D
 Schrodinger Suite 2020-3.
208209  0  0  1  0            999 V2000
    9.1840  -11.5090   -1.5760 N   0  3  0  0  0  0
    8.4670  -12.7190   -1.0980 C   0  0  2  0  0  0
    7.5990  -12.2540    0.0740 C   0  0  0  0  0  0
    8.1800  -11.4740    0.8570 O   0  0  0  0  0  0
    9.4320  -13.7750   -0.5830 C   0  0  0  0  0  0
    9.6340  -13.6160    0.8170 O   0  0  0  0  0  0
    6.3450  -12.6680    0.1170 N   0  0  0  0  0  0
    5.5670  -12.1200    1.2830 C   0  0  2  0  0  0
    5.5280  -10.6270    0.9490 C   0  0  0  0  0  0
    4.5360   -9.9920    0.6010 O   0  0  0  0  0  0
    6.3850  -12.6120    2.4680 C   0  0  0  0  0  0
    5.8560  -12.4080    3.8810 C   0  0  0  0  0  0
    4.6070  -12.3110    3.9720 O   0  0  0  0  0  0
    6.6470  -12.3680    4.8720 O   0  0  0  0  0  0
    6.6930  -10.0380    0.9560 N   0  0  0  0  0  0
    7.0230   -8.6510    0.7100 C   0  0  2  0  0  0
    6.7020   -8.2140   -0.7130 C   0  0  0  0  0  0
    7.1170   -8.8960   -1.6610 O   0  0  0  0  0  0
    8.4930   -8.3770    1.0600 C   0  0  0  0  0  0
    8.6070   -8.3390    2.5520 C   0  0  0  0  0  0
    8.4140   -7.1360    3.2340 C   0  0  0  0  0  0
    8.8590   -9.5290    3.2420 C   0  0  0  0  0  0
    8.4850   -7.1170    4.6360 C   0  0  0  0  0  0
    8.9100   -9.5190    4.6260 C   0  0  0  0  0  0
    8.7150   -8.3230    5.3170 C   0  0  0  0  0  0
    6.0390   -7.0780   -0.8020 N   0  0  0  0  0  0
    5.6790   -6.4430   -2.0790 C   0  0  2  0  0  0
    6.9230   -5.6920   -2.5630 C   0  0  0  0  0  0
    7.5950   -5.0210   -1.7480 O   0  0  0  0  0  0
    4.5140   -5.4790   -1.9210 C   0  0  0  0  0  0
    4.2860   -4.5170   -3.0670 C   0  0  0  0  0  0
    3.2090   -3.4820   -2.9580 C   0  0  0  0  0  0
    2.4010   -3.3470   -2.0560 O   0  0  0  0  0  0
    3.1960   -2.6930   -3.9340 O   0  0  0  0  0  0
    7.2650   -5.7950   -3.8370 N   0  0  0  0  0  0
    8.4460   -5.1580   -4.4190 C   0  0  2  0  0  0
    8.3700   -3.6300   -4.5440 C   0  0  0  0  0  0
    7.3360   -2.9630   -4.7490 O   0  0  0  0  0  0
    8.7830   -5.6960   -5.8090 C   0  0  0  0  0  0
    8.0500   -5.1140   -7.0120 C   0  0  0  0  0  0
    8.6060   -5.4900   -8.3540 C   0  0  0  0  0  0
    9.6700   -6.0630   -8.5160 O   0  0  0  0  0  0
    7.8530   -5.1470   -9.2910 O   0  0  0  0  0  0
    9.5820   -3.0860   -4.4270 N   0  0  0  0  0  0
    9.7980   -1.6400   -4.5510 C   0  0  2  0  0  0
   11.0320   -1.5930   -5.4750 C   0  0  0  0  0  0
   11.7300   -2.6200   -5.5430 O   0  0  0  0  0  0
   10.0120   -0.8280   -3.2910 C   0  0  0  0  0  0
   11.1120   -1.3890   -2.4260 C   0  0  0  0  0  0
   10.7810   -2.3570   -1.4680 C   0  0  0  0  0  0
   12.4310   -0.9600   -2.5920 C   0  0  0  0  0  0
   11.7710   -2.8820   -0.6530 C   0  0  0  0  0  0
   13.4400   -1.5230   -1.7880 C   0  0  0  0  0  0
   13.1000   -2.4970   -0.8170 C   0  0  0  0  0  0
   11.1320   -0.4340   -6.0990 N   0  0  0  0  0  0
   12.2210   -0.1810   -7.0480 C   0  0  2  0  0  0
   13.3700    0.5040   -6.3200 C   0  0  0  0  0  0
   13.3080    1.1310   -5.2470 O   0  0  0  0  0  0
   11.7430    0.5400   -8.3050 C   0  0  0  0  0  0
   12.7760    1.3270   -8.8860 O   0  0  0  0  0  0
   14.4890    0.3380   -6.9920 N   0  0  0  0  0  0
   15.7500    0.9160   -6.4810 C   0  0  2  0  0  0
   15.6570    2.4140   -6.7410 C   0  0  0  0  0  0
   16.6200    3.1570   -6.4890 O   0  0  0  0  0  0
   16.8990    0.1030   -7.0780 C   0  0  0  0  0  0
   18.2250    0.7930   -7.3720 C   0  0  0  0  0  0
   18.9260    1.2090   -6.0860 C   0  0  0  0  0  0
   19.1030   -0.1720   -8.1650 C   0  0  0  0  0  0
   14.4960    2.7870   -7.2600 N   0  0  0  0  0  0
   14.1970    4.1950   -7.5640 C   0  0  2  0  0  0
   13.3340    4.7730   -6.4410 C   0  0  0  0  0  0
   12.9980    5.9610   -6.4460 O   0  0  0  0  0  0
   13.5920    4.4040   -8.9440 C   0  0  0  0  0  0
   14.5410    5.0550   -9.9320 C   0  0  0  0  0  0
   15.7530    5.0540   -9.6260 O   0  0  0  0  0  0
   14.1110    5.5590  -10.9810 O   0  0  0  0  0  0
   12.9760    3.9360   -5.5080 N   0  0  0  0  0  0
   12.1610    4.2420   -4.3260 C   0  0  2  0  0  0
   13.0530    4.5110   -3.1080 C   0  0  0  0  0  0
   12.5890    4.9930   -2.0590 O   0  0  0  0  0  0
   11.2830    2.9910   -4.1110 C   0  0  0  0  0  0
   10.4030    2.8870   -5.3630 C   0  0  0  0  0  0
   10.7190    3.8390   -6.1300 O   0  0  0  0  0  0
    9.5070    2.0570   -5.5940 O   0  0  0  0  0  0
   14.3060    4.1440   -3.3280 N   0  0  0  0  0  0
   15.4120    4.1820   -2.3630 C   0  0  2  0  0  0
   15.9450    5.5760   -2.1060 C   0  0  0  0  0  0
   15.3740    6.5030   -2.7050 O   0  0  0  0  0  0
   16.4320    3.0540   -2.7330 C   0  0  2  0  0  0
   15.6380    1.7090   -2.7060 C   0  0  0  0  0  0
   17.6930    2.9950   -1.8660 C   0  0  0  0  0  0
   16.5240    0.4470   -2.9540 C   0  0  0  0  0  0
   16.9000    5.7010   -1.2100 N   0  0  0  0  0  0
   17.5330    6.9130   -0.6940 C   0  0  2  0  0  0
   16.5110    8.0400   -0.5370 C   0  0  0  0  0  0
   16.5230    8.9770   -1.3670 O   0  0  0  0  0  0
   18.6990    7.4710   -1.4930 C   0  0  0  0  0  0
   19.2550    8.8110   -0.9920 C   0  0  0  0  0  0
   20.7560    8.9060   -0.9660 C   0  0  0  0  0  0
   21.3340    8.7800   -2.0780 O   0  0  0  0  0  0
   21.4130    9.0900    0.0400 O   0  0  0  0  0  0
   15.6760    7.9490    0.4720 N   0  0  0  0  0  0
   14.6040    8.9060    0.7780 C   0  0  2  0  0  0
   13.3070    8.5190    0.0380 C   0  0  0  0  0  0
   12.4290    9.4110   -0.1540 O   0  0  0  0  0  0
   14.8990   10.3840    0.4830 C   0  0  0  0  0  0
   14.5890   11.2680    1.7180 C   0  0  0  0  0  0
   15.3120   10.5560    2.8600 C   0  0  0  0  0  0
   14.6240    9.7180    3.4880 O   0  0  0  0  0  0
   16.6200   10.7730    3.0240 N   0  0  0  0  0  0
   13.1500    7.3360   -0.3390 O   0  0  0  0  0  0
    8.4546  -10.7703   -1.9396 H   0  0  0  0  0  0
    9.8648  -11.7856   -2.3945 H   0  0  0  0  0  0
    9.7635  -11.0751   -0.7478 H   0  0  0  0  0  0
    7.9015  -13.1490   -1.9379 H   0  0  0  0  0  0
    9.0174  -14.7756   -0.7754 H   0  0  0  0  0  0
   10.3976  -13.6726   -1.0998 H   0  0  0  0  0  0
   10.3066  -14.2989    1.3567 H   0  0  0  0  0  0
    5.8580  -13.3464   -0.5990 H   0  0  0  0  0  0
    4.5302  -12.4217    1.4928 H   0  0  0  0  0  0
    6.5295  -13.6995    2.3875 H   0  0  0  0  0  0
    7.3644  -12.1112    2.4708 H   0  0  0  0  0  0
    6.2499  -12.2199    5.8871 H   0  0  0  0  0  0
    7.4896  -10.7598    1.1893 H   0  0  0  0  0  0
    6.3537   -8.0985    1.3859 H   0  0  0  0  0  0
    9.1235   -9.1791    0.6488 H   0  0  0  0  0  0
    8.7990   -7.4125    0.6286 H   0  0  0  0  0  0
    8.2097   -6.2185    2.6821 H   0  0  0  0  0  0
    9.0143  -10.4584    2.6941 H   0  0  0  0  0  0
    8.3638   -6.1835    5.1855 H   0  0  0  0  0  0
    9.1018  -10.4420    5.1731 H   0  0  0  0  0  0
    8.7417   -8.3248    6.4067 H   0  0  0  0  0  0
    5.7533   -6.6031    0.1482 H   0  0  0  0  0  0
    5.3580   -7.2326   -2.7743 H   0  0  0  0  0  0
    3.5793   -6.0484   -1.8109 H   0  0  0  0  0  0
    4.6716   -4.8566   -1.0278 H   0  0  0  0  0  0
    5.2027   -3.9360   -3.2459 H   0  0  0  0  0  0
    4.0273   -5.0824   -3.9744 H   0  0  0  0  0  0
    2.4521   -1.8839   -3.9773 H   0  0  0  0  0  0
    6.6005   -6.4028   -4.4686 H   0  0  0  0  0  0
    9.1918   -5.4441   -3.6627 H   0  0  0  0  0  0
    9.8489   -5.5246   -6.0200 H   0  0  0  0  0  0
    8.5708   -6.7747   -5.8461 H   0  0  0  0  0  0
    7.0041   -5.4547   -7.0041 H   0  0  0  0  0  0
    8.0782   -4.0155   -6.9623 H   0  0  0  0  0  0
    8.1377   -5.3608  -10.3318 H   0  0  0  0  0  0
   10.4335   -3.7546   -4.2320 H   0  0  0  0  0  0
    8.8570   -1.1916   -4.9024 H   0  0  0  0  0  0
   10.2845    0.2029   -3.5611 H   0  0  0  0  0  0
    9.0851   -0.8191   -2.6987 H   0  0  0  0  0  0
    9.7499   -2.6951   -1.3646 H   0  0  0  0  0  0
   12.6755   -0.1998   -3.3339 H   0  0  0  0  0  0
   11.5081   -3.6016    0.1223 H   0  0  0  0  0  0
   14.4771   -1.2113   -1.9118 H   0  0  0  0  0  0
   13.8777   -2.9450   -0.1985 H   0  0  0  0  0  0
   10.3842    0.3475   -5.8989 H   0  0  0  0  0  0
   12.5757   -1.1594   -7.4044 H   0  0  0  0  0  0
   11.4121   -0.1999   -9.0486 H   0  0  0  0  0  0
   10.9040    1.2042   -8.0501 H   0  0  0  0  0  0
   12.5783    1.9057   -9.8003 H   0  0  0  0  0  0
   14.4864   -0.2306   -7.9337 H   0  0  0  0  0  0
   15.9125    0.8312   -5.3964 H   0  0  0  0  0  0
   17.1632   -0.7162   -6.3930 H   0  0  0  0  0  0
   16.5878   -0.3151   -8.0467 H   0  0  0  0  0  0
   18.0382    1.7080   -7.9532 H   0  0  0  0  0  0
   18.2825    1.9033   -5.5257 H   0  0  0  0  0  0
   19.8762    1.7062   -6.3307 H   0  0  0  0  0  0
   19.1257    0.3180   -5.4725 H   0  0  0  0  0  0
   18.5844   -0.4636   -9.0902 H   0  0  0  0  0  0
   19.3033   -1.0679   -7.5590 H   0  0  0  0  0  0
   20.0539    0.3202   -8.4171 H   0  0  0  0  0  0
   13.7453    2.0090   -7.4632 H   0  0  0  0  0  0
   15.1678    4.7107   -7.6030 H   0  0  0  0  0  0
   13.2957    3.4321   -9.3655 H   0  0  0  0  0  0
   12.7077    5.0531   -8.8622 H   0  0  0  0  0  0
   16.4912    5.5110  -10.3015 H   0  0  0  0  0  0
   13.3473    2.9134   -5.6703 H   0  0  0  0  0  0
   11.5735    5.1548   -4.5039 H   0  0  0  0  0  0
   11.9268    2.1062   -3.9981 H   0  0  0  0  0  0
   10.6757    3.1208   -3.2031 H   0  0  0  0  0  0
   10.2082    3.9591   -7.0968 H   0  0  0  0  0  0
   14.4817    3.7825   -4.3519 H   0  0  0  0  0  0
   14.9985    3.9711   -1.3657 H   0  0  0  0  0  0
   16.8643    3.2698   -3.7212 H   0  0  0  0  0  0
   15.1613    1.5843   -1.7225 H   0  0  0  0  0  0
   14.8653    1.7236   -3.4888 H   0  0  0  0  0  0
   18.2176    3.9606   -1.9157 H   0  0  0  0  0  0
   18.3553    2.1984   -2.2358 H   0  0  0  0  0  0
   17.4118    2.7837   -0.8238 H   0  0  0  0  0  0
   15.8952   -0.4549   -2.9197 H   0  0  0  0  0  0
   17.2984    0.3839   -2.1753 H   0  0  0  0  0  0
   17.0024    0.5232   -3.9416 H   0  0  0  0  0  0
   17.2178    4.7147   -0.8409 H   0  0  0  0  0  0
   17.9335    6.5256    0.2544 H   0  0  0  0  0  0
   19.5354    6.7570   -1.4684 H   0  0  0  0  0  0
   18.3855    7.6328   -2.5349 H   0  0  0  0  0  0
   18.8990    9.6224   -1.6439 H   0  0  0  0  0  0
   18.9100    8.9894    0.0371 H   0  0  0  0  0  0
   22.4309    8.8381   -2.1374 H   0  0  0  0  0  0
   15.8278    7.0692    1.1145 H   0  0  0  0  0  0
   14.5469    8.7968    1.8711 H   0  0  0  0  0  0
   11.4956    9.1600   -0.6792 H   0  0  0  0  0  0
   15.9613   10.5010    0.2225 H   0  0  0  0  0  0
   14.2759   10.7215   -0.3584 H   0  0  0  0  0  0
   14.9752   12.2839    1.5480 H   0  0  0  0  0  0
   13.5010   11.3108    1.8745 H   0  0  0  0  0  0
   17.1311   11.5362    2.4187 H   0  0  0  0  0  0
   17.1859   10.1885    3.7643 H   0  0  0  0  0  0
  1  2  1  0  0  0
  1112  1  0  0  0
  1113  1  0  0  0
  1114  1  0  0  0
  2  3  1  0  0  0
  2  5  1  0  0  0
  2115  1  0  0  0
  3  4  2  0  0  0
  3  7  1  0  0  0
  5  6  1  0  0  0
  5116  1  0  0  0
  5117  1  0  0  0
  6118  1  0  0  0
  7  8  1  0  0  0
  7119  1  0  0  0
  8  9  1  0  0  0
  8 11  1  0  0  0
  8120  1  0  0  0
  9 10  2  0  0  0
  9 15  1  0  0  0
 11 12  1  0  0  0
 11121  1  0  0  0
 11122  1  0  0  0
 12 13  2  0  0  0
 12 14  1  0  0  0
 14123  1  0  0  0
 15 16  1  0  0  0
 15124  1  0  0  0
 16 17  1  0  0  0
 16 19  1  0  0  0
 16125  1  0  0  0
 17 18  2  0  0  0
 17 26  1  0  0  0
 19 20  1  0  0  0
 19126  1  0  0  0
 19127  1  0  0  0
 20 21  2  0  0  0
 20 22  1  0  0  0
 21 23  1  0  0  0
 21128  1  0  0  0
 22 24  2  0  0  0
 22129  1  0  0  0
 23 25  2  0  0  0
 23130  1  0  0  0
 24 25  1  0  0  0
 24131  1  0  0  0
 25132  1  0  0  0
 26 27  1  0  0  0
 26133  1  0  0  0
 27 28  1  0  0  0
 27 30  1  0  0  0
 27134  1  0  0  0
 28 29  2  0  0  0
 28 35  1  0  0  0
 30 31  1  0  0  0
 30135  1  0  0  0
 30136  1  0  0  0
 31 32  1  0  0  0
 31137  1  0  0  0
 31138  1  0  0  0
 32 33  2  0  0  0
 32 34  1  0  0  0
 34139  1  0  0  0
 35 36  1  0  0  0
 35140  1  0  0  0
 36 37  1  0  0  0
 36 39  1  0  0  0
 36141  1  0  0  0
 37 38  2  0  0  0
 37 44  1  0  0  0
 39 40  1  0  0  0
 39142  1  0  0  0
 39143  1  0  0  0
 40 41  1  0  0  0
 40144  1  0  0  0
 40145  1  0  0  0
 41 42  2  0  0  0
 41 43  1  0  0  0
 43146  1  0  0  0
 44 45  1  0  0  0
 44147  1  0  0  0
 45 46  1  0  0  0
 45 48  1  0  0  0
 45148  1  0  0  0
 46 47  2  0  0  0
 46 55  1  0  0  0
 48 49  1  0  0  0
 48149  1  0  0  0
 48150  1  0  0  0
 49 50  2  0  0  0
 49 51  1  0  0  0
 50 52  1  0  0  0
 50151  1  0  0  0
 51 53  2  0  0  0
 51152  1  0  0  0
 52 54  2  0  0  0
 52153  1  0  0  0
 53 54  1  0  0  0
 53154  1  0  0  0
 54155  1  0  0  0
 55 56  1  0  0  0
 55156  1  0  0  0
 56 57  1  0  0  0
 56 59  1  0  0  0
 56157  1  0  0  0
 57 58  2  0  0  0
 57 61  1  0  0  0
 59 60  1  0  0  0
 59158  1  0  0  0
 59159  1  0  0  0
 60160  1  0  0  0
 61 62  1  0  0  0
 61161  1  0  0  0
 62 63  1  0  0  0
 62 65  1  0  0  0
 62162  1  0  0  0
 63 64  2  0  0  0
 63 69  1  0  0  0
 65 66  1  0  0  0
 65163  1  0  0  0
 65164  1  0  0  0
 66 67  1  0  0  0
 66 68  1  0  0  0
 66165  1  0  0  0
 67166  1  0  0  0
 67167  1  0  0  0
 67168  1  0  0  0
 68169  1  0  0  0
 68170  1  0  0  0
 68171  1  0  0  0
 69 70  1  0  0  0
 69172  1  0  0  0
 70 71  1  0  0  0
 70 73  1  0  0  0
 70173  1  0  0  0
 71 72  2  0  0  0
 71 77  1  0  0  0
 73 74  1  0  0  0
 73174  1  0  0  0
 73175  1  0  0  0
 74 75  1  0  0  0
 74 76  2  0  0  0
 75176  1  0  0  0
 77 78  1  0  0  0
 77177  1  0  0  0
 78 79  1  0  0  0
 78 81  1  0  0  0
 78178  1  0  0  0
 79 80  2  0  0  0
 79 85  1  0  0  0
 81 82  1  0  0  0
 81179  1  0  0  0
 81180  1  0  0  0
 82 83  1  0  0  0
 82 84  2  0  0  0
 83181  1  0  0  0
 85 86  1  0  0  0
 85182  1  0  0  0
 86 87  1  0  0  0
 86 89  1  0  0  0
 86183  1  0  0  0
 87 88  2  0  0  0
 87 93  1  0  0  0
 89 90  1  0  0  0
 89 91  1  0  0  0
 89184  1  0  0  0
 90 92  1  0  0  0
 90185  1  0  0  0
 90186  1  0  0  0
 91187  1  0  0  0
 91188  1  0  0  0
 91189  1  0  0  0
 92190  1  0  0  0
 92191  1  0  0  0
 92192  1  0  0  0
 93 94  1  0  0  0
 93193  1  0  0  0
 94 95  1  0  0  0
 94 97  1  0  0  0
 94194  1  0  0  0
 95 96  2  0  0  0
 95102  1  0  0  0
 97 98  1  0  0  0
 97195  1  0  0  0
 97196  1  0  0  0
 98 99  1  0  0  0
 98197  1  0  0  0
 98198  1  0  0  0
 99100  1  0  0  0
 99101  2  0  0  0
100199  1  0  0  0
102103  1  0  0  0
102200  1  0  0  0
103104  1  0  0  0
103106  1  0  0  0
103201  1  0  0  0
104105  1  0  0  0
104111  2  0  0  0
105202  1  0  0  0
106107  1  0  0  0
106203  1  0  0  0
106204  1  0  0  0
107108  1  0  0  0
107205  1  0  0  0
107206  1  0  0  0
108109  2  0  0  0
108110  1  0  0  0
110207  1  0  0  0
110208  1  0  0  0
M  CHG  1   1   1
M  END
> <s_m_source_file>
../1thr_ligand.sdf

> <i_m_source_file_index>
1

> <s_epik_input>
W09IXVtDSDJdW0NASF0oW05IMytdKUMoPU8pW05IXVtDQEBIXShbQ0gyXUMoPU8pW09IXSlDKD1PKVtOSF1bQ0BASF0oW0NIMl1jMVtjSF1bY0hdW2NIXVtjSF1bY0hdMSlDKD1PKVtOSF1bQ0BASF0oW0NIMl1bQ0gyXUMoPU8pW09IXSlDKD1PKVtOSF1bQ0BASF0oW0NIMl1bQ0gyXUMoPU8pW09IXSlDKD1PKVtOSF1bQ0BASF0oW0NIMl1jMltjSF1bY0hdW2NIXVtjSF1bY0hdMilDKD1PKVtOSF1bQ0BASF0oW0NIMl1bT0hdKUMoPU8pW05IXVtDQEBIXShbQ0gyXVtDSF0oW0NIM10pW0NIM10pQyg9TylbTkhdW0NAQEhdKFtDSDJdQyg9TylbT0hdKUMoPU8pW05IXVtDQEBIXShbQ0gyXUMoPU8pW09IXSlDKD1PKVtOSF1bQ0BASF0oW0NAQEhdKFtDSDNdKVtDSDJdW0NIM10pQyg9TylbTkhdW0NAQEhdKFtDSDJdW0NIMl1DKD1PKVtPSF0pQyg9TylbTkhdW0NASF0oQyg9TylbT0hdKVtDSDJdW0NIMl1DKD1PKVtOSDJd

> <s_epik_cmdline>
J2VwaWtfYXBwJywgJy1pbWFlJywgJ2xpZ2FuZF9wcm8ubWFlJywgJy1vbWFlJywgJ2xpZ2FuZF9wcmVwLm1hZScsICctbXMnLCAnMScsICctcGgnLCAnNycsICctcGh0JywgJzAuNScsICctbnQn

> <s_epik_pKa_notes>
Molecule size exceeds maximum supported for generating protonation states

$$$$
