1ths_ligand
                    3D
 Schrodinger Suite 2020-3.
151153  0  0  1  0            999 V2000
    5.3770  -12.6610    3.8400 C   0  0  0  0  0  0
    6.1150  -12.7300    4.8670 O   0  0  0  0  0  0
    4.1730  -12.3450    3.9620 O   0  0  0  0  0  0
    5.9550  -13.0230    2.4820 C   0  0  0  0  0  0
    5.4800  -12.1580    1.2880 C   0  0  0  0  0  0
    6.0530  -10.7530    1.4020 C   0  0  0  0  0  0
    6.2990  -10.4480    2.5940 O   0  0  0  0  0  0
    6.3460   -9.9800    0.4210 N   0  0  0  0  0  0
    6.8920   -8.6420    0.5690 C   0  0  2  0  0  0
    6.9160   -8.0450   -0.8600 C   0  0  0  0  0  0
    7.7370   -8.5790   -1.6160 O   0  0  0  0  0  0
    8.3120   -8.3460    1.1290 C   0  0  0  0  0  0
    8.4680   -8.4340    2.6220 C   0  0  0  0  0  0
    8.2590   -7.3800    3.5300 C   0  0  0  0  0  0
    8.8240   -9.6900    3.1430 C   0  0  0  0  0  0
    8.3520   -7.5730    4.9030 C   0  0  0  0  0  0
    8.9310   -9.9110    4.5130 C   0  0  0  0  0  0
    8.6800   -8.8290    5.3840 C   0  0  0  0  0  0
    8.7710   -9.1230    6.7130 O   0  0  0  0  0  0
    6.1050   -7.0160   -1.0560 N   0  0  0  0  0  0
    6.1540   -6.3940   -2.3840 C   0  0  2  0  0  0
    7.5780   -5.8370   -2.5330 C   0  0  0  0  0  0
    8.1170   -5.3030   -1.5360 O   0  0  0  0  0  0
    5.3210   -5.1340   -2.5710 C   0  0  0  0  0  0
    3.8230   -5.2200   -2.6270 C   0  0  0  0  0  0
    3.0950   -3.9360   -2.3600 C   0  0  0  0  0  0
    3.5590   -2.9120   -2.8940 O   0  0  0  0  0  0
    2.1170   -3.8920   -1.6320 O   0  0  0  0  0  0
    8.0660   -5.9130   -3.7670 N   0  0  0  0  0  0
    9.3810   -5.3570   -4.0690 C   0  0  2  0  0  0
    9.3000   -3.8250   -3.8850 C   0  0  0  0  0  0
    8.2120   -3.2280   -4.0160 O   0  0  0  0  0  0
    9.6090   -5.6480   -5.5390 C   0  0  0  0  0  0
    8.3840   -6.3070   -6.0370 C   0  0  0  0  0  0
    7.4160   -6.5330   -4.9170 C   0  0  0  0  0  0
   10.4750   -3.2540   -3.6930 N   0  0  0  0  0  0
   10.6470   -1.8110   -3.5800 C   0  0  2  0  0  0
   11.0780   -1.1860   -4.9190 C   0  0  0  0  0  0
   12.1580   -1.5680   -5.4180 O   0  0  0  0  0  0
   11.7160   -1.4860   -2.4670 C   0  0  2  0  0  0
   11.1960   -2.0090   -1.1100 C   0  0  0  0  0  0
   12.0920    0.0210   -2.4600 C   0  0  0  0  0  0
   12.2600   -1.8910    0.0260 C   0  0  0  0  0  0
   10.3020   -0.2250   -5.4180 N   0  0  0  0  0  0
   10.5780    0.5080   -6.6400 C   0  0  2  0  0  0
   11.9860    1.0710   -6.7110 C   0  0  0  0  0  0
   12.4340    1.8130   -5.8150 O   0  0  0  0  0  0
    9.5600    1.6290   -6.7060 C   0  0  0  0  0  0
    8.6420    1.4550   -5.5450 C   0  0  0  0  0  0
    9.0660    0.2490   -4.7460 C   0  0  0  0  0  0
   12.6380    0.7140   -7.8020 N   0  0  0  0  0  0
   14.0360    1.1580   -8.0450 C   0  0  2  0  0  0
   14.0700    2.6530   -7.7570 C   0  0  0  0  0  0
   15.1560    3.2120   -7.5020 O   0  0  0  0  0  0
   14.4620    0.7860   -9.4350 C   0  0  0  0  0  0
   15.8040    0.9090  -10.1360 C   0  0  0  0  0  0
   15.8380    0.7060  -11.6510 C   0  0  0  0  0  0
   14.6570    0.5910  -12.1540 O   0  0  0  0  0  0
   16.8860    0.6700  -12.3400 O   0  0  0  0  0  0
   12.8750    3.2450   -7.7620 N   0  0  0  0  0  0
   12.5910    4.6460   -7.5040 C   0  0  2  0  0  0
   12.0000    4.8610   -6.0930 C   0  0  0  0  0  0
   10.8250    5.2470   -5.8990 O   0  0  0  0  0  0
   11.5930    5.4360   -8.4110 C   0  0  0  0  0  0
   11.7320    6.9520   -8.2880 C   0  0  0  0  0  0
   11.0990    8.1230   -8.9250 C   0  0  0  0  0  0
   10.5300    7.9810  -10.0710 O   0  0  0  0  0  0
   11.1090    9.3010   -8.4590 O   0  0  0  0  0  0
   12.8690    4.6420   -5.1400 N   0  0  0  0  0  0
   12.5180    4.7800   -3.7220 C   0  0  2  0  0  0
   13.8940    4.7300   -3.0390 C   0  0  0  0  0  0
   14.2060    5.4910   -2.1150 O   0  0  0  0  0  0
   11.6680    3.5860   -3.3000 C   0  0  0  0  0  0
   14.5950    3.7500   -3.6520 N   0  0  0  0  0  0
   15.9660    3.4920   -3.1420 C   0  0  2  0  0  0
   16.6900    4.8160   -3.3080 C   0  0  0  0  0  0
   17.7770    5.0830   -2.7970 O   0  0  0  0  0  0
   16.5920    2.2590   -3.7520 C   0  0  0  0  0  0
   16.0840    5.7040   -3.9300 N   0  0  0  0  0  0
    5.7078  -12.4705    5.8553 H   0  0  0  0  0  0
    7.0503  -12.9260    2.5120 H   0  0  0  0  0  0
    5.6855  -14.0601    2.2334 H   0  0  0  0  0  0
    5.8221  -12.6129    0.3467 H   0  0  0  0  0  0
    4.3814  -12.1018    1.2900 H   0  0  0  0  0  0
    6.1587  -10.3897   -0.5825 H   0  0  0  0  0  0
    6.2002   -8.2992    1.3525 H   0  0  0  0  0  0
    9.0300   -9.0640    0.7059 H   0  0  0  0  0  0
    8.6095   -7.3238    0.8524 H   0  0  0  0  0  0
    8.0183   -6.3881    3.1474 H   0  0  0  0  0  0
    9.0215  -10.5128    2.4559 H   0  0  0  0  0  0
    8.1694   -6.7476    5.5911 H   0  0  0  0  0  0
    9.2012  -10.8925    4.9025 H   0  0  0  0  0  0
    8.5909   -8.3390    7.4633 H   0  0  0  0  0  0
    5.4205   -6.6233   -0.2897 H   0  0  0  0  0  0
    5.7916   -7.1931   -3.0474 H   0  0  0  0  0  0
    5.5143   -4.4399   -1.7398 H   0  0  0  0  0  0
    5.5931   -4.6523   -3.5217 H   0  0  0  0  0  0
    3.5120   -5.5518   -3.6286 H   0  0  0  0  0  0
    3.4687   -5.9409   -1.8755 H   0  0  0  0  0  0
    3.0697   -1.9395   -2.7362 H   0  0  0  0  0  0
   10.1486   -5.8072   -3.4223 H   0  0  0  0  0  0
    9.7915   -4.7052   -6.0754 H   0  0  0  0  0  0
   10.4815   -6.3084   -5.6510 H   0  0  0  0  0  0
    7.9080   -5.6699   -6.7969 H   0  0  0  0  0  0
    8.6455   -7.2775   -6.4838 H   0  0  0  0  0  0
    7.2550   -7.6022   -4.7148 H   0  0  0  0  0  0
    6.4474   -6.0442   -5.0984 H   0  0  0  0  0  0
   11.3477   -3.9194   -3.6184 H   0  0  0  0  0  0
    9.6441   -1.4387   -3.3240 H   0  0  0  0  0  0
   12.6670   -2.0026   -2.6638 H   0  0  0  0  0  0
   10.3126   -1.4277   -0.8072 H   0  0  0  0  0  0
   10.9213   -3.0698   -1.2067 H   0  0  0  0  0  0
   12.4513    0.3139   -3.4576 H   0  0  0  0  0  0
   12.8848    0.1976   -1.7182 H   0  0  0  0  0  0
   11.2061    0.6187   -2.1992 H   0  0  0  0  0  0
   11.8374   -2.2763    0.9656 H   0  0  0  0  0  0
   12.5418   -0.8357    0.1562 H   0  0  0  0  0  0
   13.1506   -2.4778   -0.2434 H   0  0  0  0  0  0
   10.4914   -0.2148   -7.4646 H   0  0  0  0  0  0
   10.0775    2.5980   -6.6498 H   0  0  0  0  0  0
    9.0044    1.5645   -7.6532 H   0  0  0  0  0  0
    8.6834    2.3505   -4.9075 H   0  0  0  0  0  0
    7.6139    1.3111   -5.9088 H   0  0  0  0  0  0
    8.3072   -0.5470   -4.7702 H   0  0  0  0  0  0
    9.2928    0.5077   -3.7012 H   0  0  0  0  0  0
   12.1277    0.0759   -8.5385 H   0  0  0  0  0  0
   14.7516    0.6400   -7.3896 H   0  0  0  0  0  0
   14.3122   -0.2930   -9.5880 H   0  0  0  0  0  0
   13.8603    1.3469  -10.1654 H   0  0  0  0  0  0
   16.2126    1.9169   -9.9714 H   0  0  0  0  0  0
   16.5000    0.1604   -9.7296 H   0  0  0  0  0  0
   14.5325    0.4400  -13.2365 H   0  0  0  0  0  0
   12.0535    2.5506   -7.9919 H   0  0  0  0  0  0
   13.6269    4.9603   -7.6993 H   0  0  0  0  0  0
   11.7678    5.1725   -9.4646 H   0  0  0  0  0  0
   10.5608    5.1753   -8.1342 H   0  0  0  0  0  0
   11.4996    7.2591   -7.2576 H   0  0  0  0  0  0
   12.7625    7.2470   -8.5349 H   0  0  0  0  0  0
   10.0536    8.8439  -10.5592 H   0  0  0  0  0  0
   13.8887    4.3464   -5.4280 H   0  0  0  0  0  0
   11.9391    5.6922   -3.5154 H   0  0  0  0  0  0
   10.6886    3.6388   -3.7980 H   0  0  0  0  0  0
   11.5262    3.6041   -2.2093 H   0  0  0  0  0  0
   12.1762    2.6540   -3.5883 H   0  0  0  0  0  0
   14.1985    3.1558   -4.4885 H   0  0  0  0  0  0
   15.9833    3.2039   -2.0805 H   0  0  0  0  0  0
   15.9550    1.3856   -3.5487 H   0  0  0  0  0  0
   17.5872    2.0973   -3.3122 H   0  0  0  0  0  0
   16.6894    2.3968   -4.8390 H   0  0  0  0  0  0
   15.1110    5.4844   -4.3937 H   0  0  0  0  0  0
   16.5203    6.7100   -4.0171 H   0  0  0  0  0  0
  1  2  1  0  0  0
  1  3  2  0  0  0
  1  4  1  0  0  0
  2 80  1  0  0  0
  4  5  1  0  0  0
  4 81  1  0  0  0
  4 82  1  0  0  0
  5  6  1  0  0  0
  5 83  1  0  0  0
  5 84  1  0  0  0
  6  7  2  0  0  0
  6  8  1  0  0  0
  8  9  1  0  0  0
  8 85  1  0  0  0
  9 10  1  0  0  0
  9 12  1  0  0  0
  9 86  1  0  0  0
 10 11  2  0  0  0
 10 20  1  0  0  0
 12 13  1  0  0  0
 12 87  1  0  0  0
 12 88  1  0  0  0
 13 14  2  0  0  0
 13 15  1  0  0  0
 14 16  1  0  0  0
 14 89  1  0  0  0
 15 17  2  0  0  0
 15 90  1  0  0  0
 16 18  2  0  0  0
 16 91  1  0  0  0
 17 18  1  0  0  0
 17 92  1  0  0  0
 18 19  1  0  0  0
 19 93  1  0  0  0
 20 21  1  0  0  0
 20 94  1  0  0  0
 21 22  1  0  0  0
 21 24  1  0  0  0
 21 95  1  0  0  0
 22 23  2  0  0  0
 22 29  1  0  0  0
 24 25  1  0  0  0
 24 96  1  0  0  0
 24 97  1  0  0  0
 25 26  1  0  0  0
 25 98  1  0  0  0
 25 99  1  0  0  0
 26 27  1  0  0  0
 26 28  2  0  0  0
 27100  1  0  0  0
 29 30  1  0  0  0
 29 35  1  0  0  0
 30 31  1  0  0  0
 30 33  1  0  0  0
 30101  1  0  0  0
 31 32  2  0  0  0
 31 36  1  0  0  0
 33 34  1  0  0  0
 33102  1  0  0  0
 33103  1  0  0  0
 34 35  1  0  0  0
 34104  1  0  0  0
 34105  1  0  0  0
 35106  1  0  0  0
 35107  1  0  0  0
 36 37  1  0  0  0
 36108  1  0  0  0
 37 38  1  0  0  0
 37 40  1  0  0  0
 37109  1  0  0  0
 38 39  2  0  0  0
 38 44  1  0  0  0
 40 41  1  0  0  0
 40 42  1  0  0  0
 40110  1  0  0  0
 41 43  1  0  0  0
 41111  1  0  0  0
 41112  1  0  0  0
 42113  1  0  0  0
 42114  1  0  0  0
 42115  1  0  0  0
 43116  1  0  0  0
 43117  1  0  0  0
 43118  1  0  0  0
 44 45  1  0  0  0
 44 50  1  0  0  0
 45 46  1  0  0  0
 45 48  1  0  0  0
 45119  1  0  0  0
 46 47  2  0  0  0
 46 51  1  0  0  0
 48 49  1  0  0  0
 48120  1  0  0  0
 48121  1  0  0  0
 49 50  1  0  0  0
 49122  1  0  0  0
 49123  1  0  0  0
 50124  1  0  0  0
 50125  1  0  0  0
 51 52  1  0  0  0
 51126  1  0  0  0
 52 53  1  0  0  0
 52 55  1  0  0  0
 52127  1  0  0  0
 53 54  2  0  0  0
 53 60  1  0  0  0
 55 56  1  0  0  0
 55128  1  0  0  0
 55129  1  0  0  0
 56 57  1  0  0  0
 56130  1  0  0  0
 56131  1  0  0  0
 57 58  1  0  0  0
 57 59  2  0  0  0
 58132  1  0  0  0
 60 61  1  0  0  0
 60133  1  0  0  0
 61 62  1  0  0  0
 61 64  1  0  0  0
 61134  1  0  0  0
 62 63  2  0  0  0
 62 69  1  0  0  0
 64 65  1  0  0  0
 64135  1  0  0  0
 64136  1  0  0  0
 65 66  1  0  0  0
 65137  1  0  0  0
 65138  1  0  0  0
 66 67  1  0  0  0
 66 68  2  0  0  0
 67139  1  0  0  0
 69 70  1  0  0  0
 69140  1  0  0  0
 70 71  1  0  0  0
 70 73  1  0  0  0
 70141  1  0  0  0
 71 72  2  0  0  0
 71 74  1  0  0  0
 73142  1  0  0  0
 73143  1  0  0  0
 73144  1  0  0  0
 74 75  1  0  0  0
 74145  1  0  0  0
 75 76  1  0  0  0
 75 78  1  0  0  0
 75146  1  0  0  0
 76 77  2  0  0  0
 76 79  1  0  0  0
 78147  1  0  0  0
 78148  1  0  0  0
 78149  1  0  0  0
 79150  1  0  0  0
 79151  1  0  0  0
M  END
> <s_m_source_file>
../1ths_ligand.sdf

> <i_m_source_file_index>
1

> <s_epik_input>
W2NIXTFbY0hdYyhbT0hdKVtjSF1bY0hdYzFbQ0gyXVtDQEhdKFtOSF1DKD1PKVtDSDJdW0NIMl1DKD1PKVtPSF0pQyg9TylbTkhdW0NAQEhdKFtDSDJdW0NIMl1DKD1PKVtPSF0pQyg9TylOMltDQEBIXShbQ0gyXVtDSDJdW0NIMl0yKUMoPU8pW05IXVtDQEBIXShbQ0BASF0oW0NIM10pW0NIMl1bQ0gzXSlDKD1PKU4zW0NAQEhdKFtDSDJdW0NIMl1bQ0gyXTMpQyg9TylbTkhdW0NAQEhdKFtDSDJdW0NIMl1DKD1PKVtPSF0pQyg9TylbTkhdW0NAQEhdKFtDSDJdW0NIMl1DKD1PKVtPSF0pQyg9TylbTkhdW0NAQEhdKFtDSDNdKUMoPU8pW05IXVtDQEBIXShbQ0gzXSlDKD1PKVtOSDJd

> <s_epik_cmdline>
J2VwaWtfYXBwJywgJy1pbWFlJywgJ2xpZ2FuZF9wcm8ubWFlJywgJy1vbWFlJywgJ2xpZ2FuZF9wcmVwLm1hZScsICctbXMnLCAnMScsICctcGgnLCAnNycsICctcGh0JywgJzAuNScsICctbnQn

> <s_epik_pKa_notes>
Molecule size exceeds maximum supported for generating protonation states

$$$$
