1tjp_ligand
                    3D
 Schrodinger Suite 2020-3.
 30 30  0  0  1  0            999 V2000
   52.2250   25.4770   14.7920 C   0  0  0  0  0  0
   51.6320   24.1490   14.7880 C   0  0  0  0  0  0
   50.2200   24.1300   15.0820 C   0  0  0  0  0  0
   49.4300   25.2790   15.3400 C   0  0  0  0  0  0
   50.0820   26.5240   15.3170 C   0  0  0  0  0  0
   51.4380   26.6300   15.0600 C   0  0  0  0  0  0
   52.0340   27.8570   15.0600 O   0  0  0  0  0  0
   49.3050   27.7450   15.5810 N   0  0  0  0  0  0
   48.1960   28.0580   14.6470 C   0  0  1  0  0  0
   48.5990   28.0510   13.1640 C   0  0  1  0  0  0
   47.4480   28.3470   12.2370 C   0  0  0  0  0  0
   47.9160   28.0600   10.8770 O   0  0  0  0  0  0
   48.2440   29.3420    9.9520 P   0  0  0  0  0  0
   46.8860   30.2140    9.8770 O   0  5  0  0  0  0
   49.4720   30.1970   10.6130 O   0  5  0  0  0  0
   48.5940   28.7010    8.6560 O   0  0  0  0  0  0
   47.1100   27.1640   14.8710 O   0  0  0  0  0  0
   49.5380   29.1630   13.0860 O   0  0  0  0  0  0
   53.2894   25.5899   14.5863 H   0  0  0  0  0  0
   52.2054   23.2455   14.5806 H   0  0  0  0  0  0
   49.7232   23.1601   15.1078 H   0  0  0  0  0  0
   48.3628   25.2001   15.5473 H   0  0  0  0  0  0
   53.1114   27.9451   14.8562 H   0  0  0  0  0  0
   49.5165   28.4146   16.4277 H   0  0  0  0  0  0
   47.8429   29.0643   14.9164 H   0  0  0  0  0  0
   49.0178   27.0874   12.8385 H   0  0  0  0  0  0
   46.5923   27.7073   12.4991 H   0  0  0  0  0  0
   47.1597   29.4039   12.3363 H   0  0  0  0  0  0
   46.6945   27.0460   15.8826 H   0  0  0  0  0  0
   50.4577   29.1496   13.6892 H   0  0  0  0  0  0
  1  2  2  0  0  0
  1  6  1  0  0  0
  1 19  1  0  0  0
  2  3  1  0  0  0
  2 20  1  0  0  0
  3  4  2  0  0  0
  3 21  1  0  0  0
  4  5  1  0  0  0
  4 22  1  0  0  0
  5  6  2  0  0  0
  5  8  1  0  0  0
  6  7  1  0  0  0
  7 23  1  0  0  0
  8  9  1  0  0  0
  8 24  1  0  0  0
  9 10  1  0  0  0
  9 17  1  0  0  0
  9 25  1  0  0  0
 10 11  1  0  0  0
 10 18  1  0  0  0
 10 26  1  0  0  0
 11 12  1  0  0  0
 11 27  1  0  0  0
 11 28  1  0  0  0
 12 13  1  0  0  0
 13 14  1  0  0  0
 13 15  1  0  0  0
 13 16  2  0  0  0
 17 29  1  0  0  0
 18 30  1  0  0  0
M  CHG  2  14  -1  15  -1
M  END
> <s_m_source_file>
../1tjp_ligand.sdf

> <i_m_source_file_index>
1

> <s_epik_input>
W09IXWMxW2NIXVtjSF1bY0hdW2NIXWMxW05IXVtDQEhdKFtPSF0pW0NASF0oW09IXSlbQ0gyXU9QKD1PKShbT0hdKVtPSF0=

> <s_epik_cmdline>
J2VwaWtfYXBwJywgJy1pbWFlJywgJ2xpZ2FuZF9wcm8ubWFlJywgJy1vbWFlJywgJ2xpZ2FuZF9wcmVwLm1hZScsICctbXMnLCAnMScsICctcGgnLCAnNycsICctcGh0JywgJzAuNScsICctbnQn

> <r_epik_Ionization_Penalty>
  0.1198

> <r_epik_Ionization_Penalty_Charging>
  0.1195

> <r_epik_Ionization_Penalty_Neutral>
  0.0003

> <r_epik_State_Penalty>
  0.1091

> <r_epik_Charging_Adjusted_Penalty>
0.228561552952762

> <i_epik_Tot_Q>
-2

> <i_epik_Tot_abs_Q>
2

> <s_epik_Chemistry_Notes>
This compound contains an acetal/aminal-like group ( X-CH(R)-Y where X, Y are N, S, or O) that may be acid/base labile, releasing an aldehyde.

$$$$
