1tka_ligand
                    3D
 Schrodinger Suite 2020-3.
 44 45  0  0  1  0            999 V2000
   -3.2320   60.8370   19.8970 N   0  3  0  0  0  0
   -2.3830   59.9170   20.3880 C   0  0  0  0  0  0
   -1.1050   60.3640   20.9750 C   0  0  0  0  0  0
   -2.7080   58.5800   20.3080 C   0  0  0  0  0  0
   -4.0350   58.2650   19.9290 C   0  0  0  0  0  0
   -4.3140   56.9930   19.8450 N   0  0  0  0  0  0
   -4.8760   59.2250   19.3500 C   0  0  0  0  0  0
   -4.4510   60.4920   19.3840 C   0  0  0  0  0  0
   -6.1160   58.8440   18.5940 C   0  0  0  0  0  0
   -5.8050   58.2460   17.2260 N   0  3  0  0  0  0
   -5.6930   56.9310   16.9760 C   0  0  0  0  0  0
   -5.4750   56.5790   15.3350 S   0  0  0  0  0  0
   -5.5800   58.2520   14.9830 C   0  0  0  0  0  0
   -5.8110   58.9910   16.1300 C   0  0  0  0  0  0
   -6.2060   60.4420   16.2110 C   0  0  0  0  0  0
   -5.6950   58.7380   13.5630 C   0  0  0  0  0  0
   -5.4940   57.7980   12.4230 C   0  0  0  0  0  0
   -4.0890   57.4670   12.3610 O   0  0  0  0  0  0
   -3.6290   56.3160   11.3770 P   0  0  2  0  0  0
   -2.3340   55.7430   11.8510 O   0  0  0  0  0  0
   -3.6030   56.8090    9.9410 O   0  5  0  0  0  0
   -4.7410   55.1390   11.3460 O   0  0  0  0  0  0
   -5.6430   54.5090   10.1780 P   0  0  0  0  0  0
   -4.6650   54.5610    9.0580 O   0  5  0  0  0  0
   -6.7270   55.4710    9.9490 O   0  5  0  0  0  0
   -6.0780   53.2010   10.6490 O   0  0  0  0  0  0
   -1.0494   61.4620   20.9395 H   0  0  0  0  0  0
   -0.2690   59.9358   20.4026 H   0  0  0  0  0  0
   -1.0441   60.0274   22.0205 H   0  0  0  0  0  0
   -1.9772   57.8014   20.5264 H   0  0  0  0  0  0
   -3.6441   56.2515   20.3047 H   0  0  0  0  0  0
   -5.2191   56.6623   19.3145 H   0  0  0  0  0  0
   -5.0978   61.2757   18.9897 H   0  0  0  0  0  0
   -6.6813   58.0965   19.1699 H   0  0  0  0  0  0
   -6.7401   59.7366   18.4396 H   0  0  0  0  0  0
   -5.7380   56.1671   17.7523 H   0  0  0  0  0  0
   -6.3136   60.7344   17.2660 H   0  0  0  0  0  0
   -7.1631   60.5911   15.6897 H   0  0  0  0  0  0
   -5.4298   61.0603   15.7365 H   0  0  0  0  0  0
   -6.7045   59.1409   13.3940 H   0  0  0  0  0  0
   -4.9504   59.5277   13.3843 H   0  0  0  0  0  0
   -6.0918   56.8894   12.5872 H   0  0  0  0  0  0
   -5.8122   58.2822   11.4880 H   0  0  0  0  0  0
   -2.9526   61.9009   19.9011 H   0  0  0  0  0  0
  1  2  2  0  0  0
  1  8  1  0  0  0
  1 44  1  0  0  0
  2  3  1  0  0  0
  2  4  1  0  0  0
  3 27  1  0  0  0
  3 28  1  0  0  0
  3 29  1  0  0  0
  4  5  2  0  0  0
  4 30  1  0  0  0
  5  6  1  0  0  0
  5  7  1  0  0  0
  6 31  1  0  0  0
  6 32  1  0  0  0
  7  8  2  0  0  0
  7  9  1  0  0  0
  8 33  1  0  0  0
  9 10  1  0  0  0
  9 34  1  0  0  0
  9 35  1  0  0  0
 10 11  2  0  0  0
 10 14  1  0  0  0
 11 12  1  0  0  0
 11 36  1  0  0  0
 12 13  1  0  0  0
 13 14  2  0  0  0
 13 16  1  0  0  0
 14 15  1  0  0  0
 15 37  1  0  0  0
 15 38  1  0  0  0
 15 39  1  0  0  0
 16 17  1  0  0  0
 16 40  1  0  0  0
 16 41  1  0  0  0
 17 18  1  0  0  0
 17 42  1  0  0  0
 17 43  1  0  0  0
 18 19  1  0  0  0
 19 20  2  0  0  0
 19 21  1  0  0  0
 19 22  1  0  0  0
 22 23  1  0  0  0
 23 24  1  0  0  0
 23 25  1  0  0  0
 23 26  2  0  0  0
M  CHG  5   1   1  10   1  21  -1  24  -1  25  -1
M  END
> <s_m_source_file>
../1tka_ligand.sdf

> <i_m_source_file_index>
1

> <s_epik_input>
W0NIM11jMW5bY0hdYyhjKFtjSF0xKVtOSDJdKVtDSDJdW24rXTJbY0hdc2MoYzJbQ0gzXSlbQ0gyXVtDSDJdT1tQQF0oPU8pKFtPSF0pT1AoPU8pKFtPSF0pW09IXQ==

> <s_epik_cmdline>
J2VwaWtfYXBwJywgJy1pbWFlJywgJ2xpZ2FuZF9wcm8ubWFlJywgJy1vbWFlJywgJ2xpZ2FuZF9wcmVwLm1hZScsICctbXMnLCAnMScsICctcGgnLCAnNycsICctcGh0JywgJzAuNScsICctbnQn

> <r_lp_tautomer_probability>
0.9999999999368

> <r_epik_Ionization_Penalty>
  0.0902

> <r_epik_Ionization_Penalty_Charging>
  0.0902

> <r_epik_Ionization_Penalty_Neutral>
  0.0000

> <r_epik_State_Penalty>
  0.0741

> <r_epik_Charging_Adjusted_Penalty>
0.164284862635418

> <i_epik_Tot_Q>
-1

> <i_epik_Tot_abs_Q>
5

$$$$
