1tkc_ligand
                    3D
 Schrodinger Suite 2020-3.
 45 46  0  0  1  0            999 V2000
   -3.1110   60.8210   20.0640 N   0  0  0  0  0  0
   -2.2410   59.8510   20.3770 C   0  0  0  0  0  0
   -0.9040   60.2640   20.8210 C   0  0  0  0  0  0
   -2.6100   58.6010   20.4550 N   0  0  0  0  0  0
   -3.8200   58.2460   19.9370 C   0  0  0  0  0  0
   -4.1140   56.9790   19.9830 N   0  0  0  0  0  0
   -4.7520   59.2210   19.5070 C   0  0  0  0  0  0
   -4.3600   60.5140   19.6490 C   0  0  0  0  0  0
   -6.1640   58.8600   19.0910 C   0  0  0  0  0  0
   -6.1310   58.1430   17.7710 N   0  3  0  0  0  0
   -6.3140   56.8190   17.6510 C   0  0  0  0  0  0
   -6.2360   56.3020   16.0380 S   0  0  0  0  0  0
   -5.7800   57.9030   15.5890 C   0  0  0  0  0  0
   -6.0540   58.7710   16.5980 C   0  0  0  0  0  0
   -6.0810   60.2520   16.4930 C   0  0  0  0  0  0
   -5.3130   61.6350   19.5000 C   0  0  0  0  0  0
   -5.4280   58.2380   14.1720 C   0  0  0  0  0  0
   -5.4060   57.0280   13.2610 C   0  0  0  0  0  0
   -4.8170   57.3960   12.0080 O   0  0  0  0  0  0
   -3.8790   56.3640   11.3290 P   0  0  2  0  0  0
   -2.5620   56.2070   11.9780 O   0  0  0  0  0  0
   -3.7860   56.8060    9.8990 O   0  5  0  0  0  0
   -4.5840   54.9270   11.2820 O   0  0  0  0  0  0
   -5.4840   54.1750   10.2220 P   0  0  0  0  0  0
   -4.7440   54.4600    8.9500 O   0  5  0  0  0  0
   -6.7200   54.9390   10.3400 O   0  5  0  0  0  0
   -5.5960   52.7730   10.5960 O   0  0  0  0  0  0
   -0.7876   61.3480   20.6746 H   0  0  0  0  0  0
   -0.1417   59.7308   20.2339 H   0  0  0  0  0  0
   -0.7809   60.0226   21.8871 H   0  0  0  0  0  0
   -3.3619   56.2519   20.3231 H   0  0  0  0  0  0
   -5.1146   56.6353   19.6818 H   0  0  0  0  0  0
   -6.6144   58.2057   19.8519 H   0  0  0  0  0  0
   -6.7637   59.7771   18.9946 H   0  0  0  0  0  0
   -6.4925   56.1519   18.4944 H   0  0  0  0  0  0
   -6.3325   60.6845   17.4726 H   0  0  0  0  0  0
   -6.8378   60.5534   15.7539 H   0  0  0  0  0  0
   -5.0926   60.6151   16.1747 H   0  0  0  0  0  0
   -4.7855   62.5877   19.6549 H   0  0  0  0  0  0
   -6.1160   61.5351   20.2452 H   0  0  0  0  0  0
   -5.7464   61.6159   18.4891 H   0  0  0  0  0  0
   -6.1675   58.9449   13.7678 H   0  0  0  0  0  0
   -4.4282   58.6956   14.1409 H   0  0  0  0  0  0
   -4.8129   56.2280   13.7282 H   0  0  0  0  0  0
   -6.4344   56.6738   13.0969 H   0  0  0  0  0  0
  1  2  2  0  0  0
  1  8  1  0  0  0
  2  3  1  0  0  0
  2  4  1  0  0  0
  3 28  1  0  0  0
  3 29  1  0  0  0
  3 30  1  0  0  0
  4  5  2  0  0  0
  5  6  1  0  0  0
  5  7  1  0  0  0
  6 31  1  0  0  0
  6 32  1  0  0  0
  7  8  2  0  0  0
  7  9  1  0  0  0
  8 16  1  0  0  0
  9 10  1  0  0  0
  9 33  1  0  0  0
  9 34  1  0  0  0
 10 11  2  0  0  0
 10 14  1  0  0  0
 11 12  1  0  0  0
 11 35  1  0  0  0
 12 13  1  0  0  0
 13 14  2  0  0  0
 13 17  1  0  0  0
 14 15  1  0  0  0
 15 36  1  0  0  0
 15 37  1  0  0  0
 15 38  1  0  0  0
 16 39  1  0  0  0
 16 40  1  0  0  0
 16 41  1  0  0  0
 17 18  1  0  0  0
 17 42  1  0  0  0
 17 43  1  0  0  0
 18 19  1  0  0  0
 18 44  1  0  0  0
 18 45  1  0  0  0
 19 20  1  0  0  0
 20 21  2  0  0  0
 20 22  1  0  0  0
 20 23  1  0  0  0
 23 24  1  0  0  0
 24 25  1  0  0  0
 24 26  1  0  0  0
 24 27  2  0  0  0
M  CHG  4  10   1  22  -1  25  -1  26  -1
M  END
> <s_m_source_file>
../1tkc_ligand.sdf

> <i_m_source_file_index>
1

> <s_epik_input>
W0NIM11jMW5jKFtDSDNdKWMoYyhuMSlbTkgyXSlbQ0gyXVtuK10yW2NIXXNjKGMyW0NIM10pW0NIMl1bQ0gyXU9bUEBdKD1PKShbT0hdKU9QKD1PKShbT0hdKVtPSF0=

> <s_epik_cmdline>
J2VwaWtfYXBwJywgJy1pbWFlJywgJ2xpZ2FuZF9wcm8ubWFlJywgJy1vbWFlJywgJ2xpZ2FuZF9wcmVwLm1hZScsICctbXMnLCAnMScsICctcGgnLCAnNycsICctcGh0JywgJzAuNScsICctbnQn

> <r_lp_tautomer_probability>
1

> <r_epik_Ionization_Penalty>
  0.2031

> <r_epik_Ionization_Penalty_Charging>
  0.0846

> <r_epik_Ionization_Penalty_Neutral>
  0.1185

> <r_epik_State_Penalty>
 -0.0000

> <r_epik_Charging_Adjusted_Penalty>
0.0846133443195182

> <i_epik_Tot_Q>
-2

> <i_epik_Tot_abs_Q>
4

$$$$
