1tkt_ligand
                    3D
 Schrodinger Suite 2020-3.
 44 46  0  0  1  0            999 V2000
    2.1270  -36.3630   22.7920 C   0  0  0  0  0  0
    3.6500  -35.9490   23.0730 C   0  0  0  0  0  0
    3.8040  -34.7460   24.0390 C   0  0  0  0  0  0
    3.1210  -35.0430   25.3880 C   0  0  0  0  0  0
    1.5990  -35.2470   25.1920 C   0  0  0  0  0  0
    1.2820  -36.3820   24.1780 C   0  0  0  0  0  0
    1.2040  -36.9740   17.8230 N   0  0  0  0  0  0
    2.4610  -37.4150   18.2550 C   0  0  0  0  0  0
    3.3780  -37.6170   17.4450 O   0  0  0  0  0  0
    2.6810  -37.5850   19.6970 C   0  0  0  0  0  0
    1.6630  -37.2820   20.5980 C   0  0  0  0  0  0
    1.8900  -37.5100   21.9700 O   0  0  0  0  0  0
    0.1980  -36.7050   18.7310 C   0  0  0  0  0  0
    0.4270  -36.8460   20.1360 C   0  0  0  0  0  0
   -0.6410  -36.5600   21.0330 C   0  0  0  0  0  0
   -1.8890  -36.1390   20.5620 C   0  0  0  0  0  0
   -2.1070  -36.0100   19.1860 C   0  0  0  0  0  0
   -1.0520  -36.2930   18.2630 C   0  0  0  0  0  0
   -3.1250  -35.7350   21.6560 Cl  0  0  0  0  0  0
    3.9630  -38.2680   20.1630 C   0  0  0  0  0  0
    3.8270  -39.7790   20.0660 C   0  0  0  0  0  0
    3.3490  -40.3840   21.3790 C   0  0  0  0  0  0
    1.7274  -35.6817   22.0264 H   0  0  0  0  0  0
    4.1840  -36.7990   23.5228 H   0  0  0  0  0  0
    4.1352  -35.6710   22.1257 H   0  0  0  0  0  0
    4.8723  -34.5519   24.2155 H   0  0  0  0  0  0
    3.3384  -33.8551   23.5923 H   0  0  0  0  0  0
    3.5509  -35.9572   25.8232 H   0  0  0  0  0  0
    3.2828  -34.1990   26.0746 H   0  0  0  0  0  0
    1.1375  -35.5116   26.1548 H   0  0  0  0  0  0
    1.1501  -34.3168   24.8136 H   0  0  0  0  0  0
    0.2084  -36.2971   23.9541 H   0  0  0  0  0  0
    1.4720  -37.3257   24.7104 H   0  0  0  0  0  0
    1.0081  -36.8379   16.7492 H   0  0  0  0  0  0
   -0.4833  -36.6711   22.1058 H   0  0  0  0  0  0
   -3.0825  -35.6933   18.8170 H   0  0  0  0  0  0
   -1.2237  -36.1870   17.1918 H   0  0  0  0  0  0
    4.8022  -37.9435   19.5302 H   0  0  0  0  0  0
    4.1652  -37.9939   21.2090 H   0  0  0  0  0  0
    3.0985  -40.0320   19.2816 H   0  0  0  0  0  0
    4.8033  -40.2197   19.8157 H   0  0  0  0  0  0
    3.2630  -41.4752   21.2701 H   0  0  0  0  0  0
    2.3670  -39.9631   21.6406 H   0  0  0  0  0  0
    4.0717  -40.1508   22.1748 H   0  0  0  0  0  0
  1  2  1  0  0  0
  1  6  1  0  0  0
  1 12  1  0  0  0
  1 23  1  0  0  0
  2  3  1  0  0  0
  2 24  1  0  0  0
  2 25  1  0  0  0
  3  4  1  0  0  0
  3 26  1  0  0  0
  3 27  1  0  0  0
  4  5  1  0  0  0
  4 28  1  0  0  0
  4 29  1  0  0  0
  5  6  1  0  0  0
  5 30  1  0  0  0
  5 31  1  0  0  0
  6 32  1  0  0  0
  6 33  1  0  0  0
  7  8  1  0  0  0
  7 13  1  0  0  0
  7 34  1  0  0  0
  8  9  2  0  0  0
  8 10  1  0  0  0
 10 11  2  0  0  0
 10 20  1  0  0  0
 11 12  1  0  0  0
 11 14  1  0  0  0
 13 14  2  0  0  0
 13 18  1  0  0  0
 14 15  1  0  0  0
 15 16  2  0  0  0
 15 35  1  0  0  0
 16 17  1  0  0  0
 16 19  1  0  0  0
 17 18  2  0  0  0
 17 36  1  0  0  0
 18 37  1  0  0  0
 20 21  1  0  0  0
 20 38  1  0  0  0
 20 39  1  0  0  0
 21 22  1  0  0  0
 21 40  1  0  0  0
 21 41  1  0  0  0
 22 42  1  0  0  0
 22 43  1  0  0  0
 22 44  1  0  0  0
M  END
> <s_m_source_file>
../1tkt_ligand.sdf

> <i_m_source_file_index>
1

> <s_epik_input>
W0NIMl0xW0NIMl1bQ0gyXVtDSDJdW0NIMl1bQ0hdMU9jKGMoYyg9TylbbkhdMilbQ0gyXVtDSDJdW0NIM10pYyhjMjMpW2NIXWMoQ2wpW2NIXVtjSF0z

> <s_epik_cmdline>
J2VwaWtfYXBwJywgJy1pbWFlJywgJ2xpZ2FuZF9wcm8ubWFlJywgJy1vbWFlJywgJ2xpZ2FuZF9wcmVwLm1hZScsICctbXMnLCAnMScsICctcGgnLCAnNycsICctcGh0JywgJzAuNScsICctbnQn

> <r_lp_tautomer_probability>
1

> <r_epik_Ionization_Penalty>
  0.0000

> <r_epik_Ionization_Penalty_Charging>
  0.0000

> <r_epik_Ionization_Penalty_Neutral>
  0.0000

> <r_epik_State_Penalty>
 -0.0000

> <r_epik_Charging_Adjusted_Penalty>
6.90257261713861e-07

> <i_epik_Tot_Q>
0

> <i_epik_Tot_abs_Q>
0

$$$$
