1tkx_ligand
                    3D
 Schrodinger Suite 2020-3.
 37 39  0  0  1  0            999 V2000
    0.7730  -34.6330   26.1380 C   0  0  0  0  0  0
    1.2680  -33.7150   26.6210 C   0  0  0  0  0  0
    1.9960  -32.3710   27.3240 C   0  0  0  0  0  0
    2.0490  -31.3850   26.2340 C   0  0  0  0  0  0
    0.9700  -31.3220   27.2890 C   0  0  0  0  0  0
   -0.7720  -35.3280   21.4040 N   0  0  0  0  0  0
    0.3650  -36.0650   21.7680 C   0  0  0  0  0  0
    1.0670  -36.5610   20.8800 O   0  0  0  0  0  0
    0.6740  -36.2230   23.2290 C   0  0  0  0  0  0
   -0.1910  -35.6460   24.1620 C   0  0  0  0  0  0
    0.1220  -35.7660   25.5290 O   0  0  0  0  0  0
   -1.6080  -34.7560   22.3360 C   0  0  0  0  0  0
   -1.3290  -34.9200   23.7460 C   0  0  0  0  0  0
   -2.1850  -34.2800   24.6860 C   0  0  0  0  0  0
   -3.2750  -33.4880   24.2510 C   0  0  0  0  0  0
   -3.5390  -33.3250   22.8610 C   0  0  0  0  0  0
   -2.7080  -33.9620   21.9050 C   0  0  0  0  0  0
   -4.0710  -32.8640   25.1850 F   0  0  0  0  0  0
    1.9570  -36.9190   23.7480 C   0  0  0  0  0  0
    3.2490  -36.4900   23.0410 C   0  0  0  0  0  0
    1.8240  -38.4430   23.8350 C   0  0  0  0  0  0
    2.7182  -32.6644   28.1001 H   0  0  0  0  0  0
    3.0065  -30.8450   26.2743 H   0  0  0  0  0  0
    1.9601  -31.9021   25.2672 H   0  0  0  0  0  0
   -0.0246  -31.7845   27.2059 H   0  0  0  0  0  0
    1.0218  -30.7274   28.2130 H   0  0  0  0  0  0
   -1.0216  -35.1908   20.3415 H   0  0  0  0  0  0
   -1.9992  -34.4010   25.7532 H   0  0  0  0  0  0
   -4.3782  -32.7118   22.5328 H   0  0  0  0  0  0
   -2.9113  -33.8438   20.8407 H   0  0  0  0  0  0
    2.0694  -36.5572   24.7807 H   0  0  0  0  0  0
    3.2990  -35.3918   23.0032 H   0  0  0  0  0  0
    3.2580  -36.8929   22.0175 H   0  0  0  0  0  0
    4.1164  -36.8777   23.5953 H   0  0  0  0  0  0
    0.8856  -38.7005   24.3480 H   0  0  0  0  0  0
    2.6747  -38.8537   24.3987 H   0  0  0  0  0  0
    1.8163  -38.8689   22.8208 H   0  0  0  0  0  0
  1  2  3  0  0  0
  1 11  1  0  0  0
  2  3  1  0  0  0
  3  4  1  0  0  0
  3  5  1  0  0  0
  3 22  1  0  0  0
  4  5  1  0  0  0
  4 23  1  0  0  0
  4 24  1  0  0  0
  5 25  1  0  0  0
  5 26  1  0  0  0
  6  7  1  0  0  0
  6 12  1  0  0  0
  6 27  1  0  0  0
  7  8  2  0  0  0
  7  9  1  0  0  0
  9 10  2  0  0  0
  9 19  1  0  0  0
 10 11  1  0  0  0
 10 13  1  0  0  0
 12 13  2  0  0  0
 12 17  1  0  0  0
 13 14  1  0  0  0
 14 15  2  0  0  0
 14 28  1  0  0  0
 15 16  1  0  0  0
 15 18  1  0  0  0
 16 17  2  0  0  0
 16 29  1  0  0  0
 17 30  1  0  0  0
 19 20  1  0  0  0
 19 21  1  0  0  0
 19 31  1  0  0  0
 20 32  1  0  0  0
 20 33  1  0  0  0
 20 34  1  0  0  0
 21 35  1  0  0  0
 21 36  1  0  0  0
 21 37  1  0  0  0
M  END
> <s_m_source_file>
../1tkx_ligand.sdf

> <i_m_source_file_index>
1

> <s_epik_input>
W0NIMl0xW0NIMl1bQ0hdMUMjQ09jKGMoYyg9TylbbkhdMilbQ0hdKFtDSDNdKVtDSDNdKWMoYzIzKVtjSF1jKEYpW2NIXVtjSF0z

> <s_epik_cmdline>
J2VwaWtfYXBwJywgJy1pbWFlJywgJ2xpZ2FuZF9wcm8ubWFlJywgJy1vbWFlJywgJ2xpZ2FuZF9wcmVwLm1hZScsICctbXMnLCAnMScsICctcGgnLCAnNycsICctcGh0JywgJzAuNScsICctbnQn

> <r_lp_tautomer_probability>
1

> <r_epik_Ionization_Penalty>
  0.0000

> <r_epik_Ionization_Penalty_Charging>
  0.0000

> <r_epik_Ionization_Penalty_Neutral>
  0.0000

> <r_epik_State_Penalty>
 -0.0000

> <r_epik_Charging_Adjusted_Penalty>
9.61271440793253e-06

> <i_epik_Tot_Q>
0

> <i_epik_Tot_abs_Q>
0

$$$$
