1tkz_ligand
                    3D
 Schrodinger Suite 2020-3.
 44 46  0  0  1  0            999 V2000
    2.5250  -36.1120   23.0990 C   0  0  0  0  0  0
    4.0300  -36.1670   23.4990 C   0  0  0  0  0  0
    4.4440  -34.9640   24.3630 C   0  0  0  0  0  0
    3.6640  -34.9480   25.6650 C   0  0  0  0  0  0
    2.1580  -34.7830   25.4080 C   0  0  0  0  0  0
    1.5800  -35.8180   24.3620 C   0  0  0  0  0  0
    1.3350  -37.0170   17.8490 N   0  0  0  0  0  0
    2.5640  -37.5470   18.2750 C   0  0  0  0  0  0
    3.4380  -37.8530   17.4410 O   0  0  0  0  0  0
    2.7660  -37.7600   19.7400 C   0  0  0  0  0  0
    1.7600  -37.4150   20.6290 C   0  0  0  0  0  0
    2.0220  -37.7240   22.4120 S   0  0  0  0  0  0
    0.3410  -36.6970   18.7630 C   0  0  0  0  0  0
    0.5560  -36.8940   20.1720 C   0  0  0  0  0  0
   -0.4910  -36.5890   21.0750 C   0  0  0  0  0  0
   -1.7240  -36.1110   20.6050 C   0  0  0  0  0  0
   -1.9320  -35.9280   19.2310 C   0  0  0  0  0  0
   -0.8920  -36.2220   18.3010 C   0  0  0  0  0  0
   -2.9710  -35.7450   21.7040 Cl  0  0  0  0  0  0
    4.0150  -38.4670   20.2460 C   0  0  0  0  0  0
    3.8790  -40.0000   20.0820 C   0  0  0  0  0  0
    3.5340  -40.7230   21.4070 C   0  0  0  0  0  0
    2.4878  -35.2160   22.4620 H   0  0  0  0  0  0
    4.2231  -37.0843   24.0745 H   0  0  0  0  0  0
    4.6510  -36.1662   22.5911 H   0  0  0  0  0  0
    5.5180  -35.0292   24.5917 H   0  0  0  0  0  0
    4.2417  -34.0320   23.8149 H   0  0  0  0  0  0
    3.8269  -35.8943   26.2017 H   0  0  0  0  0  0
    4.0078  -34.1092   26.2881 H   0  0  0  0  0  0
    1.6077  -34.9244   26.3499 H   0  0  0  0  0  0
    1.9612  -33.7741   25.0163 H   0  0  0  0  0  0
    0.6199  -35.4090   24.0142 H   0  0  0  0  0  0
    1.4021  -36.7536   24.9125 H   0  0  0  0  0  0
    1.1497  -36.8502   16.7776 H   0  0  0  0  0  0
   -0.3380  -36.7267   22.1454 H   0  0  0  0  0  0
   -2.8929  -35.5594   18.8719 H   0  0  0  0  0  0
   -1.0566  -36.0773   17.2333 H   0  0  0  0  0  0
    4.8885  -38.1238   19.6722 H   0  0  0  0  0  0
    4.1618  -38.2347   21.3111 H   0  0  0  0  0  0
    3.0774  -40.2220   19.3622 H   0  0  0  0  0  0
    4.8285  -40.4150   19.7129 H   0  0  0  0  0  0
    3.4516  -41.8045   21.2238 H   0  0  0  0  0  0
    2.5771  -40.3426   21.7939 H   0  0  0  0  0  0
    4.3282  -40.5355   22.1446 H   0  0  0  0  0  0
  1  2  1  0  0  0
  1  6  1  0  0  0
  1 12  1  0  0  0
  1 23  1  0  0  0
  2  3  1  0  0  0
  2 24  1  0  0  0
  2 25  1  0  0  0
  3  4  1  0  0  0
  3 26  1  0  0  0
  3 27  1  0  0  0
  4  5  1  0  0  0
  4 28  1  0  0  0
  4 29  1  0  0  0
  5  6  1  0  0  0
  5 30  1  0  0  0
  5 31  1  0  0  0
  6 32  1  0  0  0
  6 33  1  0  0  0
  7  8  1  0  0  0
  7 13  1  0  0  0
  7 34  1  0  0  0
  8  9  2  0  0  0
  8 10  1  0  0  0
 10 11  2  0  0  0
 10 20  1  0  0  0
 11 12  1  0  0  0
 11 14  1  0  0  0
 13 14  2  0  0  0
 13 18  1  0  0  0
 14 15  1  0  0  0
 15 16  2  0  0  0
 15 35  1  0  0  0
 16 17  1  0  0  0
 16 19  1  0  0  0
 17 18  2  0  0  0
 17 36  1  0  0  0
 18 37  1  0  0  0
 20 21  1  0  0  0
 20 38  1  0  0  0
 20 39  1  0  0  0
 21 22  1  0  0  0
 21 40  1  0  0  0
 21 41  1  0  0  0
 22 42  1  0  0  0
 22 43  1  0  0  0
 22 44  1  0  0  0
M  END
> <s_m_source_file>
../1tkz_ligand.sdf

> <i_m_source_file_index>
1

> <s_epik_input>
W0NIMl0xW0NIMl1bQ0gyXVtDSDJdW0NIMl1bQ0hdMVNjKGMoYyg9TylbbkhdMilbQ0gyXVtDSDJdW0NIM10pYyhjMjMpW2NIXWMoQ2wpW2NIXVtjSF0z

> <s_epik_cmdline>
J2VwaWtfYXBwJywgJy1pbWFlJywgJ2xpZ2FuZF9wcm8ubWFlJywgJy1vbWFlJywgJ2xpZ2FuZF9wcmVwLm1hZScsICctbXMnLCAnMScsICctcGgnLCAnNycsICctcGh0JywgJzAuNScsICctbnQn

> <r_lp_tautomer_probability>
1

> <r_epik_Ionization_Penalty>
  0.0000

> <r_epik_Ionization_Penalty_Charging>
  0.0000

> <r_epik_Ionization_Penalty_Neutral>
  0.0000

> <r_epik_State_Penalty>
 -0.0000

> <r_epik_Charging_Adjusted_Penalty>
2.34849970147854e-06

> <i_epik_Tot_Q>
0

> <i_epik_Tot_abs_Q>
0

$$$$
