1tl1_ligand
                    3D
 Schrodinger Suite 2020-3.
 45 47  0  0  1  0            999 V2000
    2.2930  -35.9620   23.6580 C   0  0  0  0  0  0
    3.8350  -35.7750   23.6930 C   0  0  0  0  0  0
    4.1540  -34.4270   24.3520 C   0  0  0  0  0  0
    3.8590  -34.5640   25.8570 C   0  0  0  0  0  0
    2.3780  -34.9640   26.1940 C   0  0  0  0  0  0
    1.5870  -35.7850   25.0900 C   0  0  0  0  0  0
    0.9710  -36.8560   18.4110 N   0  0  0  0  0  0
    2.2840  -37.3580   18.7650 C   0  0  0  0  0  0
    3.1610  -37.5850   17.8380 O   0  0  0  0  0  0
    2.5520  -37.5950   20.2560 C   0  0  0  0  0  0
    1.5140  -37.3110   21.2090 C   0  0  0  0  0  0
    1.8440  -37.5910   22.9300 S   0  0  2  0  0  0
   -0.0350  -36.5870   19.3760 C   0  0  0  0  0  0
    0.2350  -36.8180   20.8120 C   0  0  0  0  0  0
   -0.8230  -36.5280   21.7690 C   0  0  0  0  0  0
   -2.0790  -36.0420   21.3060 C   0  0  0  0  0  0
   -2.3090  -35.8320   19.9150 C   0  0  0  0  0  0
   -1.2970  -36.1010   18.9500 C   0  0  0  0  0  0
   -3.3250  -35.7010   22.3840 Cl  0  0  0  0  0  0
    3.9230  -38.1300   20.7180 C   0  0  0  0  0  0
    3.9100  -39.6550   20.5600 C   0  0  0  0  0  0
    3.4550  -40.4250   21.8220 C   0  0  0  0  0  0
    0.6250  -38.1530   23.6120 O   0  0  0  0  0  0
    2.0121  -35.0437   23.1215 H   0  0  0  0  0  0
    4.2902  -36.5910   24.2735 H   0  0  0  0  0  0
    4.2297  -35.7909   22.6664 H   0  0  0  0  0  0
    5.2138  -34.1812   24.1896 H   0  0  0  0  0  0
    3.5234  -33.6431   23.9072 H   0  0  0  0  0  0
    4.5072  -35.3409   26.2885 H   0  0  0  0  0  0
    4.0539  -33.6042   26.3577 H   0  0  0  0  0  0
    2.3642  -35.5919   27.0971 H   0  0  0  0  0  0
    1.7838  -34.0552   26.3702 H   0  0  0  0  0  0
    0.6291  -35.2591   24.9640 H   0  0  0  0  0  0
    1.4061  -36.7748   25.5345 H   0  0  0  0  0  0
    0.7200  -36.6678   17.3567 H   0  0  0  0  0  0
   -0.6546  -36.6821   22.8348 H   0  0  0  0  0  0
   -3.2779  -35.4584   19.5837 H   0  0  0  0  0  0
   -1.4913  -35.9343   17.8905 H   0  0  0  0  0  0
    4.7168  -37.6892   20.0970 H   0  0  0  0  0  0
    4.0872  -37.8573   21.7709 H   0  0  0  0  0  0
    3.2213  -39.9337   19.7488 H   0  0  0  0  0  0
    4.9235  -40.0072   20.3177 H   0  0  0  0  0  0
    3.4761  -41.5060   21.6194 H   0  0  0  0  0  0
    2.4316  -40.1216   22.0875 H   0  0  0  0  0  0
    4.1338  -40.1950   22.6565 H   0  0  0  0  0  0
  1  2  1  0  0  0
  1  6  1  0  0  0
  1 12  1  0  0  0
  1 24  1  0  0  0
  2  3  1  0  0  0
  2 25  1  0  0  0
  2 26  1  0  0  0
  3  4  1  0  0  0
  3 27  1  0  0  0
  3 28  1  0  0  0
  4  5  1  0  0  0
  4 29  1  0  0  0
  4 30  1  0  0  0
  5  6  1  0  0  0
  5 31  1  0  0  0
  5 32  1  0  0  0
  6 33  1  0  0  0
  6 34  1  0  0  0
  7  8  1  0  0  0
  7 13  1  0  0  0
  7 35  1  0  0  0
  8  9  2  0  0  0
  8 10  1  0  0  0
 10 11  2  0  0  0
 10 20  1  0  0  0
 11 12  1  0  0  0
 11 14  1  0  0  0
 12 23  2  0  0  0
 13 14  2  0  0  0
 13 18  1  0  0  0
 14 15  1  0  0  0
 15 16  2  0  0  0
 15 36  1  0  0  0
 16 17  1  0  0  0
 16 19  1  0  0  0
 17 18  2  0  0  0
 17 37  1  0  0  0
 18 38  1  0  0  0
 20 21  1  0  0  0
 20 39  1  0  0  0
 20 40  1  0  0  0
 21 22  1  0  0  0
 21 41  1  0  0  0
 21 42  1  0  0  0
 22 43  1  0  0  0
 22 44  1  0  0  0
 22 45  1  0  0  0
M  END
> <s_m_source_file>
../1tl1_ligand.sdf

> <i_m_source_file_index>
1

> <s_epik_input>
W0NIMl0xW0NIMl1bQ0gyXVtDSDJdW0NIMl1bQ0hdMVtTQEBdKD1PKWMoYyhjKD1PKVtuSF0yKVtDSDJdW0NIMl1bQ0gzXSljKGMyMylbY0hdYyhDbClbY0hdW2NIXTM=

> <s_epik_cmdline>
J2VwaWtfYXBwJywgJy1pbWFlJywgJ2xpZ2FuZF9wcm8ubWFlJywgJy1vbWFlJywgJ2xpZ2FuZF9wcmVwLm1hZScsICctbXMnLCAnMScsICctcGgnLCAnNycsICctcGh0JywgJzAuNScsICctbnQn

> <r_lp_tautomer_probability>
1

> <r_epik_Ionization_Penalty>
  0.0174

> <r_epik_Ionization_Penalty_Charging>
  0.0174

> <r_epik_Ionization_Penalty_Neutral>
  0.0000

> <r_epik_State_Penalty>
 -0.0000

> <r_epik_Charging_Adjusted_Penalty>
0.0174422235904824

> <i_epik_Tot_Q>
0

> <i_epik_Tot_abs_Q>
0

$$$$
