1tl3_ligand
                    3D
 Schrodinger Suite 2020-3.
 44 46  0  0  1  0            999 V2000
    1.7470  -36.2970   22.9900 C   0  0  0  0  0  0
    3.2980  -36.2200   23.4220 C   0  0  0  0  0  0
    3.6290  -35.0170   24.2910 C   0  0  0  0  0  0
    2.8810  -35.1160   25.5880 C   0  0  0  0  0  0
    1.3810  -34.9300   25.3560 C   0  0  0  0  0  0
    0.7790  -35.9160   24.2690 C   0  0  0  0  0  0
    0.7080  -37.0310   18.0430 N   0  0  0  0  0  0
    1.8470  -37.6930   18.4820 C   0  0  0  0  0  0
    2.6940  -38.0800   17.6570 O   0  0  0  0  0  0
    2.0490  -37.8820   19.9320 C   0  0  0  0  0  0
    1.1080  -37.3450   20.8310 C   0  0  0  0  0  0
    1.3080  -37.4730   22.2570 O   0  0  0  0  0  0
   -0.2180  -36.5540   18.9210 C   0  0  0  0  0  0
   -0.0300  -36.7040   20.3290 C   0  0  0  0  0  0
   -1.0810  -36.2930   21.1840 C   0  0  0  0  0  0
   -2.2680  -35.7640   20.6700 C   0  0  0  0  0  0
   -2.4410  -35.6230   19.2960 C   0  0  0  0  0  0
   -1.4090  -36.0190   18.4150 C   0  0  0  0  0  0
   -3.4920  -35.2840   21.7150 Cl  0  0  0  0  0  0
    3.1660  -38.8600   20.3430 C   0  0  0  0  0  0
    4.5290  -38.2030   20.6020 C   0  0  0  0  0  0
    2.7580  -39.9620   21.3560 C   0  0  0  0  0  0
    1.6174  -35.6506   22.1095 H   0  0  0  0  0  0
    3.5646  -37.1212   23.9936 H   0  0  0  0  0  0
    3.9268  -36.1576   22.5216 H   0  0  0  0  0  0
    4.7103  -34.9963   24.4919 H   0  0  0  0  0  0
    3.3355  -34.0949   23.7679 H   0  0  0  0  0  0
    3.0535  -36.1057   26.0361 H   0  0  0  0  0  0
    3.2358  -34.3349   26.2765 H   0  0  0  0  0  0
    0.8396  -35.1085   26.2967 H   0  0  0  0  0  0
    1.1878  -33.9036   25.0109 H   0  0  0  0  0  0
   -0.1376  -35.4302   23.9032 H   0  0  0  0  0  0
    0.5147  -36.8336   24.8150 H   0  0  0  0  0  0
    0.5388  -36.8825   16.9663 H   0  0  0  0  0  0
   -0.9621  -36.3910   22.2631 H   0  0  0  0  0  0
   -3.3687  -35.2088   18.9010 H   0  0  0  0  0  0
   -1.5407  -35.9076   17.3387 H   0  0  0  0  0  0
    3.3398  -39.4317   19.4195 H   0  0  0  0  0  0
    4.7210  -37.4411   19.8322 H   0  0  0  0  0  0
    5.3180  -38.9686   20.5650 H   0  0  0  0  0  0
    4.5247  -37.7286   21.5944 H   0  0  0  0  0  0
    1.7720  -40.3652   21.0818 H   0  0  0  0  0  0
    2.7097  -39.5310   22.3669 H   0  0  0  0  0  0
    3.5030  -40.7710   21.3375 H   0  0  0  0  0  0
  1  2  1  0  0  0
  1  6  1  0  0  0
  1 12  1  0  0  0
  1 23  1  0  0  0
  2  3  1  0  0  0
  2 24  1  0  0  0
  2 25  1  0  0  0
  3  4  1  0  0  0
  3 26  1  0  0  0
  3 27  1  0  0  0
  4  5  1  0  0  0
  4 28  1  0  0  0
  4 29  1  0  0  0
  5  6  1  0  0  0
  5 30  1  0  0  0
  5 31  1  0  0  0
  6 32  1  0  0  0
  6 33  1  0  0  0
  7  8  1  0  0  0
  7 13  1  0  0  0
  7 34  1  0  0  0
  8  9  2  0  0  0
  8 10  1  0  0  0
 10 11  2  0  0  0
 10 20  1  0  0  0
 11 12  1  0  0  0
 11 14  1  0  0  0
 13 14  2  0  0  0
 13 18  1  0  0  0
 14 15  1  0  0  0
 15 16  2  0  0  0
 15 35  1  0  0  0
 16 17  1  0  0  0
 16 19  1  0  0  0
 17 18  2  0  0  0
 17 36  1  0  0  0
 18 37  1  0  0  0
 20 21  1  0  0  0
 20 22  1  0  0  0
 20 38  1  0  0  0
 21 39  1  0  0  0
 21 40  1  0  0  0
 21 41  1  0  0  0
 22 42  1  0  0  0
 22 43  1  0  0  0
 22 44  1  0  0  0
M  END
> <s_m_source_file>
../1tl3_ligand.sdf

> <i_m_source_file_index>
1

> <s_epik_input>
W0NIMl0xW0NIMl1bQ0gyXVtDSDJdW0NIMl1bQ0hdMU9jKGMoYyg9TylbbkhdMilbQ0hdKFtDSDNdKVtDSDNdKWMoYzIzKVtjSF1jKENsKVtjSF1bY0hdMw==

> <s_epik_cmdline>
J2VwaWtfYXBwJywgJy1pbWFlJywgJ2xpZ2FuZF9wcm8ubWFlJywgJy1vbWFlJywgJ2xpZ2FuZF9wcmVwLm1hZScsICctbXMnLCAnMScsICctcGgnLCAnNycsICctcGh0JywgJzAuNScsICctbnQn

> <r_lp_tautomer_probability>
1

> <r_epik_Ionization_Penalty>
  0.0000

> <r_epik_Ionization_Penalty_Charging>
  0.0000

> <r_epik_Ionization_Penalty_Neutral>
  0.0000

> <r_epik_State_Penalty>
 -0.0000

> <r_epik_Charging_Adjusted_Penalty>
6.43834657091684e-07

> <i_epik_Tot_Q>
0

> <i_epik_Tot_abs_Q>
0

$$$$
