1tl9_ligand
                    3D
 Schrodinger Suite 2020-3.
 71 70  0  0  1  0            999 V2000
   37.3180   21.4640   37.1170 C   0  0  0  0  0  0
   37.2960   20.3850   36.5090 O   0  0  0  0  0  0
   38.5750   22.2710   37.1810 C   0  0  0  0  0  0
   36.2640   21.9710   37.7650 N   0  0  0  0  0  0
   34.9630   21.3030   37.7850 C   0  0  2  0  0  0
   34.3090   21.3980   36.4170 C   0  0  0  0  0  0
   34.3570   22.4410   35.7560 O   0  0  0  0  0  0
   34.0460   21.9010   38.8580 C   0  0  0  0  0  0
   34.5150   21.8090   40.3170 C   0  0  0  0  0  0
   33.5760   22.6050   41.1970 C   0  0  0  0  0  0
   34.5980   20.3630   40.7980 C   0  0  0  0  0  0
   33.7890   20.2620   35.9670 N   0  0  0  0  0  0
   33.1490   20.1560   34.6660 C   0  0  2  0  0  0
   31.6410   20.0940   34.8260 C   0  0  0  0  0  0
   31.1330   19.5310   35.7990 O   0  0  0  0  0  0
   33.6580   18.9070   33.9270 C   0  0  0  0  0  0
   35.1790   18.6790   33.8550 C   0  0  0  0  0  0
   35.4780   17.3340   33.2600 C   0  0  0  0  0  0
   35.8730   19.7860   33.0730 C   0  0  0  0  0  0
   30.9380   20.7050   33.8780 N   0  0  0  0  0  0
   29.4810   20.7220   33.8810 C   0  0  2  0  0  0
   28.8010   19.7290   32.7490 C   0  0  0  0  0  0
   27.6190   19.4090   32.4930 O   0  0  0  0  0  0
   28.9370   22.1390   33.7810 C   0  0  0  0  0  0
   28.7760   22.8230   35.1170 C   0  0  0  0  0  0
   28.0290   24.1320   34.9590 C   0  0  0  0  0  0
   26.6650   23.9540   34.4680 N   0  0  0  0  0  0
   25.5760   24.0550   35.2260 C   0  0  0  0  0  0
   24.3790   23.8740   34.6860 N   0  3  0  0  0  0
   25.6790   24.3290   36.5210 N   0  0  0  0  0  0
   39.3683   21.7594   36.6162 H   0  0  0  0  0  0
   38.8858   22.3830   38.2302 H   0  0  0  0  0  0
   38.3957   23.2643   36.7436 H   0  0  0  0  0  0
   36.4007   22.9249   38.2955 H   0  0  0  0  0  0
   35.1717   20.2508   38.0285 H   0  0  0  0  0  0
   33.9053   22.9744   38.6633 H   0  0  0  0  0  0
   33.0708   21.3927   38.8318 H   0  0  0  0  0  0
   35.5264   22.2349   40.3918 H   0  0  0  0  0  0
   33.5279   23.6433   40.8369 H   0  0  0  0  0  0
   33.9457   22.5929   42.2329 H   0  0  0  0  0  0
   32.5718   22.1574   41.1608 H   0  0  0  0  0  0
   35.2837   19.7993   40.1483 H   0  0  0  0  0  0
   33.5981   19.9060   40.7601 H   0  0  0  0  0  0
   34.9720   20.3415   41.8322 H   0  0  0  0  0  0
   33.8563   19.3796   36.6204 H   0  0  0  0  0  0
   33.4214   21.0702   34.1182 H   0  0  0  0  0  0
   33.2567   18.0050   34.4121 H   0  0  0  0  0  0
   33.3242   18.9393   32.8794 H   0  0  0  0  0  0
   35.5916   18.6868   34.8747 H   0  0  0  0  0  0
   34.9660   16.5536   33.8421 H   0  0  0  0  0  0
   36.5633   17.1560   33.2830 H   0  0  0  0  0  0
   35.1239   17.3067   32.2189 H   0  0  0  0  0  0
   35.6382   20.7593   33.5285 H   0  0  0  0  0  0
   35.5214   19.7745   32.0308 H   0  0  0  0  0  0
   36.9608   19.6238   33.0948 H   0  0  0  0  0  0
   31.4923   21.2091   33.0726 H   0  0  0  0  0  0
   29.2870   20.3831   34.9094 H   0  0  0  0  0  0
   29.0570   20.0912   31.7424 H   0  0  0  0  0  0
   29.1855   18.7067   32.8796 H   0  0  0  0  0  0
   27.4039   18.7124   31.6693 H   0  0  0  0  0  0
   29.6228   22.7534   33.1792 H   0  0  0  0  0  0
   27.9469   22.1187   33.3022 H   0  0  0  0  0  0
   28.2103   22.1697   35.7976 H   0  0  0  0  0  0
   29.7680   23.0282   35.5458 H   0  0  0  0  0  0
   27.9703   24.6405   35.9327 H   0  0  0  0  0  0
   28.5615   24.7738   34.2417 H   0  0  0  0  0  0
   26.4882   23.7202   33.4078 H   0  0  0  0  0  0
   24.2881   23.6468   33.6136 H   0  0  0  0  0  0
   26.6699   24.4801   36.9741 H   0  0  0  0  0  0
   24.7734   24.4049   37.1408 H   0  0  0  0  0  0
   23.4766   23.9510   35.3103 H   0  0  0  0  0  0
  1  2  2  0  0  0
  1  3  1  0  0  0
  1  4  1  0  0  0
  3 31  1  0  0  0
  3 32  1  0  0  0
  3 33  1  0  0  0
  4  5  1  0  0  0
  4 34  1  0  0  0
  5  6  1  0  0  0
  5  8  1  0  0  0
  5 35  1  0  0  0
  6  7  2  0  0  0
  6 12  1  0  0  0
  8  9  1  0  0  0
  8 36  1  0  0  0
  8 37  1  0  0  0
  9 10  1  0  0  0
  9 11  1  0  0  0
  9 38  1  0  0  0
 10 39  1  0  0  0
 10 40  1  0  0  0
 10 41  1  0  0  0
 11 42  1  0  0  0
 11 43  1  0  0  0
 11 44  1  0  0  0
 12 13  1  0  0  0
 12 45  1  0  0  0
 13 14  1  0  0  0
 13 16  1  0  0  0
 13 46  1  0  0  0
 14 15  2  0  0  0
 14 20  1  0  0  0
 16 17  1  0  0  0
 16 47  1  0  0  0
 16 48  1  0  0  0
 17 18  1  0  0  0
 17 19  1  0  0  0
 17 49  1  0  0  0
 18 50  1  0  0  0
 18 51  1  0  0  0
 18 52  1  0  0  0
 19 53  1  0  0  0
 19 54  1  0  0  0
 19 55  1  0  0  0
 20 21  1  0  0  0
 20 56  1  0  0  0
 21 22  1  0  0  0
 21 24  1  0  0  0
 21 57  1  0  0  0
 22 23  1  0  0  0
 22 58  1  0  0  0
 22 59  1  0  0  0
 23 60  1  0  0  0
 24 25  1  0  0  0
 24 61  1  0  0  0
 24 62  1  0  0  0
 25 26  1  0  0  0
 25 63  1  0  0  0
 25 64  1  0  0  0
 26 27  1  0  0  0
 26 65  1  0  0  0
 26 66  1  0  0  0
 27 28  1  0  0  0
 27 67  1  0  0  0
 28 29  2  0  0  0
 28 30  1  0  0  0
 29 68  1  0  0  0
 29 71  1  0  0  0
 30 69  1  0  0  0
 30 70  1  0  0  0
M  CHG  1  29   1
M  END
> <s_m_source_file>
../1tl9_ligand.sdf

> <i_m_source_file_index>
1

> <s_epik_input>
Tz1DKFtDSDNdKVtOSF1bQ0BASF0oW0NIMl1bQ0hdKFtDSDNdKVtDSDNdKUMoPU8pW05IXVtDQEBIXShbQ0gyXVtDSF0oW0NIM10pW0NIM10pQyg9TylbTkhdW0NASF0oW0NIMl1bT0hdKVtDSDJdW0NIMl1bQ0gyXVtOSF0vQyg9TlxbSF0pW05IMl0=

> <s_epik_cmdline>
J2VwaWtfYXBwJywgJy1pbWFlJywgJ2xpZ2FuZF9wcm8ubWFlJywgJy1vbWFlJywgJ2xpZ2FuZF9wcmVwLm1hZScsICctbXMnLCAnMScsICctcGgnLCAnNycsICctcGh0JywgJzAuNScsICctbnQn

> <r_lp_tautomer_probability>
1

> <r_epik_Ionization_Penalty>
  0.0000

> <r_epik_Ionization_Penalty_Charging>
  0.0000

> <r_epik_Ionization_Penalty_Neutral>
  0.0000

> <r_epik_State_Penalty>
 -0.0000

> <r_epik_Charging_Adjusted_Penalty>
1.4320953077285e-05

> <i_epik_Tot_Q>
1

> <i_epik_Tot_abs_Q>
1

> <s_epik_Chemistry_Notes>
This compound has an imine and may undergo hydrolysis.

$$$$
