1tlo_ligand
                    3D
 Schrodinger Suite 2020-3.
 54 53  0  0  1  0            999 V2000
   11.3560   38.6840   21.2470 C   0  0  0  0  0  0
   12.0590   39.1600   20.2640 O   0  5  0  0  0  0
   11.8570   38.1280   22.1950 O   0  0  0  0  0  0
    9.8560   38.8710   21.0810 C   0  0  0  0  0  0
    9.2660   40.1820   21.7920 C   0  0  2  0  0  0
    9.2680   39.9510   23.1160 O   0  0  0  0  0  0
    7.8540   40.4750   21.2040 C   0  0  0  0  0  0
    7.5320   40.6680   19.9900 O   0  0  0  0  0  0
    6.8880   40.5200   22.1490 N   0  0  0  0  0  0
    5.4980   40.4710   21.9440 C   0  0  1  0  0  0
    4.8270   39.2110   22.3620 C   0  0  0  0  0  0
    5.2350   37.8430   21.9560 C   0  0  0  0  0  0
    4.2220   36.8430   22.6590 C   0  0  0  0  0  0
    5.1860   37.8330   20.3800 C   0  0  0  0  0  0
    4.7060   41.6090   22.6330 C   0  0  0  0  0  0
    5.1170   41.8990   23.7500 O   0  0  0  0  0  0
    3.7130   42.1920   22.0040 N   0  0  0  0  0  0
    2.8940   43.2910   22.4670 C   0  0  0  0  0  0
    3.1880   44.3060   21.3730 C   0  0  0  0  0  0
    1.9970   45.2000   21.3610 C   0  0  0  0  0  0
    1.9340   45.7620   19.9430 C   0  0  0  0  0  0
    1.6180   44.5160   19.2410 N   0  0  0  0  0  0
    1.3820   44.1600   17.8120 C   0  0  0  0  0  0
    1.1290   42.8130   17.7850 N   0  3  0  0  0  0
    1.3790   44.9150   16.5860 N   0  0  0  0  0  0
    9.6126   38.9506   20.0112 H   0  0  0  0  0  0
    9.3288   38.0080   21.5137 H   0  0  0  0  0  0
    9.8696   41.1014   21.7736 H   0  0  0  0  0  0
   10.2131   39.7330   23.6349 H   0  0  0  0  0  0
    7.2909   40.6040   23.1691 H   0  0  0  0  0  0
    5.5590   40.5320   20.8474 H   0  0  0  0  0  0
    4.8611   39.1236   23.4580 H   0  0  0  0  0  0
    3.7791   39.2253   22.0278 H   0  0  0  0  0  0
    6.2562   37.5943   22.2804 H   0  0  0  0  0  0
    4.3287   36.9205   23.7511 H   0  0  0  0  0  0
    4.4432   35.8134   22.3411 H   0  0  0  0  0  0
    3.1923   37.1022   22.3719 H   0  0  0  0  0  0
    5.9182   38.5531   19.9858 H   0  0  0  0  0  0
    4.1773   38.1139   20.0427 H   0  0  0  0  0  0
    5.4283   36.8251   20.0120 H   0  0  0  0  0  0
    3.5302   41.7489   21.0139 H   0  0  0  0  0  0
    1.8426   42.9708   22.5129 H   0  0  0  0  0  0
    3.2272   43.6000   23.4687 H   0  0  0  0  0  0
    4.1092   44.8543   21.6195 H   0  0  0  0  0  0
    3.3178   43.7838   20.4136 H   0  0  0  0  0  0
    1.0975   44.6157   21.6050 H   0  0  0  0  0  0
    2.1297   45.9976   22.1068 H   0  0  0  0  0  0
    1.1519   46.5336   19.8888 H   0  0  0  0  0  0
    2.9057   46.2059   19.6810 H   0  0  0  0  0  0
    1.5099   43.5785   19.8061 H   0  0  0  0  0  0
    1.1308   42.2342   18.7204 H   0  0  0  0  0  0
    1.5818   45.9960   16.6053 H   0  0  0  0  0  0
    1.1740   44.4108   15.6301 H   0  0  0  0  0  0
    0.9242   42.3109   16.8279 H   0  0  0  0  0  0
  1  2  1  0  0  0
  1  3  2  0  0  0
  1  4  1  0  0  0
  4  5  1  0  0  0
  4 26  1  0  0  0
  4 27  1  0  0  0
  5  6  1  0  0  0
  5  7  1  0  0  0
  5 28  1  0  0  0
  6 29  1  0  0  0
  7  8  2  0  0  0
  7  9  1  0  0  0
  9 10  1  0  0  0
  9 30  1  0  0  0
 10 11  1  0  0  0
 10 15  1  0  0  0
 10 31  1  0  0  0
 11 12  1  0  0  0
 11 32  1  0  0  0
 11 33  1  0  0  0
 12 13  1  0  0  0
 12 14  1  0  0  0
 12 34  1  0  0  0
 13 35  1  0  0  0
 13 36  1  0  0  0
 13 37  1  0  0  0
 14 38  1  0  0  0
 14 39  1  0  0  0
 14 40  1  0  0  0
 15 16  2  0  0  0
 15 17  1  0  0  0
 17 18  1  0  0  0
 17 41  1  0  0  0
 18 19  1  0  0  0
 18 42  1  0  0  0
 18 43  1  0  0  0
 19 20  1  0  0  0
 19 44  1  0  0  0
 19 45  1  0  0  0
 20 21  1  0  0  0
 20 46  1  0  0  0
 20 47  1  0  0  0
 21 22  1  0  0  0
 21 48  1  0  0  0
 21 49  1  0  0  0
 22 23  1  0  0  0
 22 50  1  0  0  0
 23 24  2  0  0  0
 23 25  1  0  0  0
 24 51  1  0  0  0
 24 54  1  0  0  0
 25 52  1  0  0  0
 25 53  1  0  0  0
M  CHG  2   2  -1  24   1
M  END
> <s_m_source_file>
../1tlo_ligand.sdf

> <i_m_source_file_index>
1

> <s_epik_input>
W09IXUMoPU8pW0NIMl1bQ0BIXShbT0hdKUMoPU8pW05IXVtDQEBIXShbQ0gyXVtDSF0oW0NIM10pW0NIM10pQyg9TylbTkhdW0NIMl1bQ0gyXVtDSDJdW0NIMl1bTkhdL0MoPU5cW0hdKVtOSDJd

> <s_epik_cmdline>
J2VwaWtfYXBwJywgJy1pbWFlJywgJ2xpZ2FuZF9wcm8ubWFlJywgJy1vbWFlJywgJ2xpZ2FuZF9wcmVwLm1hZScsICctbXMnLCAnMScsICctcGgnLCAnNycsICctcGh0JywgJzAuNScsICctbnQn

> <r_lp_tautomer_probability>
1

> <r_epik_Ionization_Penalty>
  0.0056

> <r_epik_Ionization_Penalty_Charging>
  0.0056

> <r_epik_Ionization_Penalty_Neutral>
  0.0000

> <r_epik_State_Penalty>
 -0.0000

> <r_epik_Charging_Adjusted_Penalty>
0.00564749306387142

> <i_epik_Tot_Q>
0

> <i_epik_Tot_abs_Q>
2

> <s_epik_Chemistry_Notes>
This compound has an imine and may undergo hydrolysis.

$$$$
