1tmb_ligand
                    3D
 Schrodinger Suite 2020-3.
101104  0  0  1  0            999 V2000
   17.6230  -16.8540   25.1640 C   0  0  0  0  0  0
   17.5130  -18.0820   24.8110 O   0  0  0  0  0  0
   16.8580  -16.0560   24.4180 N   0  0  1  0  0  0
   16.8870  -16.1180   22.9800 C   0  0  2  0  0  0
   16.7710  -14.6650   22.4860 C   0  0  0  0  0  0
   15.7640  -14.0390   22.8570 O   0  0  0  0  0  0
   15.6720  -16.8720   22.4210 C   0  0  0  0  0  0
   17.7080  -14.2500   21.6820 N   0  0  0  0  0  0
   17.6460  -12.8650   21.1500 C   0  0  2  0  0  0
   16.3190  -12.7790   20.3840 C   0  0  0  0  0  0
   15.9310  -13.8210   19.8110 O   0  0  0  0  0  0
   18.9400  -12.6760   20.4260 C   0  0  0  0  0  0
   19.7290  -13.9540   20.5240 C   0  0  0  0  0  0
   18.9090  -14.9860   21.2670 C   0  0  0  0  0  0
   15.5930  -11.6780   20.3850 N   0  0  0  0  0  0
   14.2880  -11.5340   19.7130 C   0  0  2  0  0  0
   14.3240  -10.9680   18.2940 C   0  0  0  0  0  0
   13.3520  -10.3170   17.8800 O   0  0  0  0  0  0
   13.1840  -10.8260   20.5510 C   0  0  0  0  0  0
   12.6240  -11.8840   21.5190 C   0  0  0  0  0  0
   11.9680  -11.2210   22.6650 C   0  0  0  0  0  0
   11.3490  -12.1520   23.5870 N   0  0  0  0  0  0
   10.4560  -11.9510   24.5160 C   0  0  0  0  0  0
   10.0910  -10.6940   24.8430 N   0  3  0  0  0  0
    9.8280  -12.9810   25.1760 N   0  0  0  0  0  0
   15.4760  -11.4280   17.4140 C   0  0  0  0  0  0
   16.6630  -11.0420   17.4140 O   0  0  0  0  0  0
   15.1630  -12.4930   16.6670 N   0  0  0  0  0  0
   16.0170  -13.1780   15.6900 C   0  0  1  0  0  0
   15.3040  -14.5570   15.7350 C   0  0  0  0  0  0
   14.0800  -14.5730   15.5290 O   0  0  0  0  0  0
   16.0760  -12.6180   14.3030 C   0  0  0  0  0  0
   14.7570  -12.2270   13.6880 C   0  0  0  0  0  0
   14.0050  -13.1350   12.9430 C   0  0  0  0  0  0
   14.2960  -10.9030   13.8420 C   0  0  0  0  0  0
   12.8150  -12.7210   12.3400 C   0  0  0  0  0  0
   13.1340  -10.4660   13.2200 C   0  0  0  0  0  0
   12.3830  -11.3990   12.4560 C   0  0  0  0  0  0
   16.0980  -15.5220   16.1380 N   0  0  0  0  0  0
   15.5030  -16.8440   16.3960 C   0  0  2  0  0  0
   15.5590  -16.7740   17.9190 C   0  0  0  0  0  0
   16.3640  -17.9380   15.6910 C   0  0  0  0  0  0
   16.3090  -17.5380   14.2020 C   0  0  0  0  0  0
   15.0500  -17.6780   13.5790 C   0  0  0  0  0  0
   17.3680  -17.0040   13.4760 C   0  0  0  0  0  0
   14.8420  -17.3130   12.2530 C   0  0  0  0  0  0
   17.1660  -16.6110   12.1510 C   0  0  0  0  0  0
   15.9210  -16.7720   11.5540 C   0  0  0  0  0  0
   15.7160  -16.3950   10.2370 O   0  0  0  0  0  0
   15.5590  -17.8290   18.6800 C   0  0  0  0  0  0
   15.5810  -17.7340   20.1470 C   0  0  0  0  0  0
   15.5520  -18.8550   20.6420 O   0  0  0  0  0  0
   15.6090  -16.6800   20.9130 N   0  0  0  0  0  0
   17.3153  -16.7455   26.2145 H   0  0  0  0  0  0
   18.6693  -16.5330   25.0534 H   0  0  0  0  0  0
   18.0865  -18.8591   25.3375 H   0  0  0  0  0  0
   15.7992  -16.2358   24.6560 H   0  0  0  0  0  0
   17.8189  -16.6395   22.7162 H   0  0  0  0  0  0
   15.7675  -17.9433   22.6515 H   0  0  0  0  0  0
   14.7532  -16.4786   22.8804 H   0  0  0  0  0  0
   17.6242  -12.0324   21.8686 H   0  0  0  0  0  0
   18.7385  -12.4376   19.3712 H   0  0  0  0  0  0
   19.5013  -11.8504   20.8878 H   0  0  0  0  0  0
   19.9586  -14.3216   19.5130 H   0  0  0  0  0  0
   20.6667  -13.7653   21.0672 H   0  0  0  0  0  0
   19.4304  -15.3685   22.1569 H   0  0  0  0  0  0
   18.6183  -15.8283   20.6220 H   0  0  0  0  0  0
   16.0244  -10.8294   20.9362 H   0  0  0  0  0  0
   14.0629  -12.6072   19.6266 H   0  0  0  0  0  0
   13.6263   -9.9834   21.1027 H   0  0  0  0  0  0
   12.3972  -10.4520   19.8794 H   0  0  0  0  0  0
   11.8884  -12.5098   20.9925 H   0  0  0  0  0  0
   13.4459  -12.5155   21.8874 H   0  0  0  0  0  0
   12.7136  -10.6416   23.2293 H   0  0  0  0  0  0
   11.1812  -10.5461   22.2969 H   0  0  0  0  0  0
   11.6242  -13.2167   23.5612 H   0  0  0  0  0  0
   10.5644   -9.8361   24.3430 H   0  0  0  0  0  0
   10.0909  -14.0238   24.9447 H   0  0  0  0  0  0
    9.0628  -12.7622   25.9353 H   0  0  0  0  0  0
   14.1388  -12.8507   16.8485 H   0  0  0  0  0  0
   17.0822  -13.0833   15.9478 H   0  0  0  0  0  0
   16.6939  -11.7079   14.3010 H   0  0  0  0  0  0
   16.5183  -13.3630   13.6253 H   0  0  0  0  0  0
   14.3449  -14.1647   12.8316 H   0  0  0  0  0  0
   14.8634  -10.2087   14.4618 H   0  0  0  0  0  0
   12.2187  -13.4366   11.7740 H   0  0  0  0  0  0
   12.8057   -9.4310   13.3157 H   0  0  0  0  0  0
   11.4665  -11.0814   11.9588 H   0  0  0  0  0  0
   17.1771  -15.3666   16.2840 H   0  0  0  0  0  0
   14.4887  -17.0439   16.0203 H   0  0  0  0  0  0
   15.6008  -15.7712   18.3691 H   0  0  0  0  0  0
   17.3877  -17.9142   16.0927 H   0  0  0  0  0  0
   15.9210  -18.9280   15.8746 H   0  0  0  0  0  0
   14.2172  -18.0837   14.1534 H   0  0  0  0  0  0
   18.3491  -16.8929   13.9378 H   0  0  0  0  0  0
   13.8703  -17.4451   11.7771 H   0  0  0  0  0  0
   17.9882  -16.1762   11.5826 H   0  0  0  0  0  0
   14.7266  -16.5270    9.7748 H   0  0  0  0  0  0
   15.5422  -18.8323   18.2293 H   0  0  0  0  0  0
   15.5879  -15.6656   20.4881 H   0  0  0  0  0  0
    9.3200  -10.5270   25.6096 H   0  0  0  0  0  0
  1  2  1  0  0  0
  1  3  1  0  0  0
  1 54  1  0  0  0
  1 55  1  0  0  0
  2 56  1  0  0  0
  3  4  1  0  0  0
  3 57  1  0  0  0
  4  5  1  0  0  0
  4  7  1  0  0  0
  4 58  1  0  0  0
  5  6  2  0  0  0
  5  8  1  0  0  0
  7 53  1  0  0  0
  7 59  1  0  0  0
  7 60  1  0  0  0
  8  9  1  0  0  0
  8 14  1  0  0  0
  9 10  1  0  0  0
  9 12  1  0  0  0
  9 61  1  0  0  0
 10 11  2  0  0  0
 10 15  1  0  0  0
 12 13  1  0  0  0
 12 62  1  0  0  0
 12 63  1  0  0  0
 13 14  1  0  0  0
 13 64  1  0  0  0
 13 65  1  0  0  0
 14 66  1  0  0  0
 14 67  1  0  0  0
 15 16  1  0  0  0
 15 68  1  0  0  0
 16 17  1  0  0  0
 16 19  1  0  0  0
 16 69  1  0  0  0
 17 18  2  0  0  0
 17 26  1  0  0  0
 19 20  1  0  0  0
 19 70  1  0  0  0
 19 71  1  0  0  0
 20 21  1  0  0  0
 20 72  1  0  0  0
 20 73  1  0  0  0
 21 22  1  0  0  0
 21 74  1  0  0  0
 21 75  1  0  0  0
 22 23  1  0  0  0
 22 76  1  0  0  0
 23 24  2  0  0  0
 23 25  1  0  0  0
 24 77  1  0  0  0
 24101  1  0  0  0
 25 78  1  0  0  0
 25 79  1  0  0  0
 26 27  2  0  0  0
 26 28  1  0  0  0
 28 29  1  0  0  0
 28 80  1  0  0  0
 29 30  1  0  0  0
 29 32  1  0  0  0
 29 81  1  0  0  0
 30 31  2  0  0  0
 30 39  1  0  0  0
 32 33  1  0  0  0
 32 82  1  0  0  0
 32 83  1  0  0  0
 33 34  2  0  0  0
 33 35  1  0  0  0
 34 36  1  0  0  0
 34 84  1  0  0  0
 35 37  2  0  0  0
 35 85  1  0  0  0
 36 38  2  0  0  0
 36 86  1  0  0  0
 37 38  1  0  0  0
 37 87  1  0  0  0
 38 88  1  0  0  0
 39 40  1  0  0  0
 39 89  1  0  0  0
 40 41  1  0  0  0
 40 42  1  0  0  0
 40 90  1  0  0  0
 41 50  2  0  0  0
 41 91  1  0  0  0
 42 43  1  0  0  0
 42 92  1  0  0  0
 42 93  1  0  0  0
 43 44  2  0  0  0
 43 45  1  0  0  0
 44 46  1  0  0  0
 44 94  1  0  0  0
 45 47  2  0  0  0
 45 95  1  0  0  0
 46 48  2  0  0  0
 46 96  1  0  0  0
 47 48  1  0  0  0
 47 97  1  0  0  0
 48 49  1  0  0  0
 49 98  1  0  0  0
 50 51  1  0  0  0
 50 99  1  0  0  0
 51 52  2  0  0  0
 51 53  1  0  0  0
 53100  1  0  0  0
M  CHG  1  24   1
M  END
> <s_m_source_file>
../1tmb_ligand.sdf

> <i_m_source_file_index>
1

> <s_epik_input>
W09IXVtDSDJdW05IMitdW0NASF0oQzE9TylbQ0gyXVtOSF1DKD1PKVxbQ0hdPVtDSF1cW0NASF0oW0NIMl1jMltjSF1bY0hdYyhbT0hdKVtjSF1bY0hdMilbTkhdQyg9TylbQ0BASF0oW0NIMl1jM1tjSF1bY0hdW2NIXVtjSF1bY0hdMylbTkhdQyg9TylDKD1PKVtDQEBIXShbTkhdQyg9TylbQ0BASF0oTjE0KVtDSDJdW0NIMl1bQ0gyXTQpW0NIMl1bQ0gyXVtDSDJdW05IXS9DKD1OXFtIXSlbTkgyXQ==

> <s_epik_cmdline>
J2VwaWtfYXBwJywgJy1pbWFlJywgJ2xpZ2FuZF9wcm8ubWFlJywgJy1vbWFlJywgJ2xpZ2FuZF9wcmVwLm1hZScsICctbXMnLCAnMScsICctcGgnLCAnNycsICctcGh0JywgJzAuNScsICctbnQn

> <r_lp_tautomer_probability>
0.999949999997365

> <r_epik_Ionization_Penalty>
  0.0961

> <r_epik_Ionization_Penalty_Charging>
  0.0000

> <r_epik_Ionization_Penalty_Neutral>
  0.0961

> <r_epik_State_Penalty>
  0.0856

> <r_epik_Charging_Adjusted_Penalty>
0.0856066329751754

> <i_epik_Tot_Q>
1

> <i_epik_Tot_abs_Q>
1

> <s_epik_Chemistry_Notes>
This compound has an imine and may undergo hydrolysis. This compound contains an acetal/aminal-like group ( X-CH(R)-Y where X, Y are N, S, or O) that may be acid/base labile, releasing an aldehyde.

$$$$
