1tmm_ligand
                    3D
 Schrodinger Suite 2020-3.
 45 47  0  0  1  0            999 V2000
   16.1580   -7.4260   -0.1760 P   0  0  0  0  0  0
   16.1290   -7.3420    1.3360 O   0  5  0  0  0  0
   17.5720   -7.6550   -0.7210 O   0  5  0  0  0  0
   15.4530   -6.3080   -0.8850 O   0  0  0  0  0  0
   13.8750   -9.1510   -0.2990 P   0  0  1  0  0  0
   13.1160   -7.8500   -0.0160 O   0  5  0  0  0  0
   13.3770  -10.0170   -1.3890 O   0  0  0  0  0  0
   15.4290   -8.7870   -0.5690 O   0  0  0  0  0  0
   12.3090  -10.8030    1.6030 P   0  0  1  0  0  0
   11.2840   -9.7850    1.2730 O   0  0  0  0  0  0
   12.1280  -12.1650    1.0150 O   0  5  0  0  0  0
   13.9650  -10.1390    1.1810 C   0  0  0  0  0  0
   12.2920  -10.8960    3.1910 O   0  0  0  0  0  0
   13.0740  -11.9150    3.7560 C   0  0  0  0  0  0
   13.1550  -11.6310    5.3760 C   0  0  1  0  0  0
   13.8340  -10.3960    5.4610 O   0  0  0  0  0  0
   11.9000  -11.4050    6.1050 C   0  0  1  0  0  0
   11.3250  -12.6760    6.5050 O   0  0  0  0  0  0
   12.3350  -10.4710    7.2510 C   0  0  1  0  0  0
   12.3630  -11.2390    8.5310 O   0  0  0  0  0  0
   13.7440  -10.0850    6.8810 C   0  0  2  0  0  0
   14.1140   -8.7180    7.0920 N   0  0  0  0  0  0
   15.2700   -8.2940    7.7090 C   0  0  0  0  0  0
   15.3560   -6.9400    7.7040 N   0  0  0  0  0  0
   14.1680   -6.5550    7.0390 C   0  0  0  0  0  0
   13.7960   -5.2350    6.7840 C   0  0  0  0  0  0
   14.4780   -4.1280    7.1150 N   0  0  0  0  0  0
   12.6260   -5.1040    6.1380 N   0  0  0  0  0  0
   11.9180   -6.2140    5.7920 C   0  0  0  0  0  0
   12.2420   -7.4700    6.0180 N   0  0  0  0  0  0
   13.4340   -7.6170    6.6770 C   0  0  0  0  0  0
   14.6583  -10.9778    1.0203 H   0  0  0  0  0  0
   14.3267   -9.5189    2.0144 H   0  0  0  0  0  0
   12.6043  -12.8899    3.5585 H   0  0  0  0  0  0
   14.0795  -11.8954    3.3104 H   0  0  0  0  0  0
   13.6152  -12.4554    5.9405 H   0  0  0  0  0  0
   11.0782  -10.9901    5.5029 H   0  0  0  0  0  0
   10.9917  -13.3937    5.7409 H   0  0  0  0  0  0
   11.6753   -9.6046    7.4064 H   0  0  0  0  0  0
   11.4255  -11.6117    8.9694 H   0  0  0  0  0  0
   14.4725  -10.5993    7.5250 H   0  0  0  0  0  0
   16.0169   -8.9583    8.1438 H   0  0  0  0  0  0
   15.4386   -4.2115    7.6444 H   0  0  0  0  0  0
   14.0766   -3.1369    6.8569 H   0  0  0  0  0  0
   10.9769   -6.0439    5.2690 H   0  0  0  0  0  0
  1  2  1  0  0  0
  1  3  1  0  0  0
  1  4  2  0  0  0
  1  8  1  0  0  0
  5  6  1  0  0  0
  5  7  2  0  0  0
  5  8  1  0  0  0
  5 12  1  0  0  0
  9 10  2  0  0  0
  9 11  1  0  0  0
  9 12  1  0  0  0
  9 13  1  0  0  0
 12 32  1  0  0  0
 12 33  1  0  0  0
 13 14  1  0  0  0
 14 15  1  0  0  0
 14 34  1  0  0  0
 14 35  1  0  0  0
 15 16  1  0  0  0
 15 17  1  0  0  0
 15 36  1  0  0  0
 16 21  1  0  0  0
 17 18  1  0  0  0
 17 19  1  0  0  0
 17 37  1  0  0  0
 18 38  1  0  0  0
 19 20  1  0  0  0
 19 21  1  0  0  0
 19 39  1  0  0  0
 20 40  1  0  0  0
 21 22  1  0  0  0
 21 41  1  0  0  0
 22 23  1  0  0  0
 22 31  1  0  0  0
 23 24  2  0  0  0
 23 42  1  0  0  0
 24 25  1  0  0  0
 25 26  2  0  0  0
 25 31  1  0  0  0
 26 27  1  0  0  0
 26 28  1  0  0  0
 27 43  1  0  0  0
 27 44  1  0  0  0
 28 29  2  0  0  0
 29 30  1  0  0  0
 29 45  1  0  0  0
 30 31  2  0  0  0
M  CHG  4   2  -1   3  -1   6  -1  11  -1
M  END
> <s_m_source_file>
../1tmm_ligand.sdf

> <i_m_source_file_index>
1

> <s_epik_input>
W09IXVAoPU8pKFtPSF0pT1tQQF0oPU8pKFtPSF0pW0NIMl1bUEBAXSg9TykoW09IXSlPW0NIMl1bQ0BIXTFPW0NASF0oW0NASF0oW09IXSlbQ0BASF0xW09IXSluKFtjSF1uMiljKGMyMyluW2NIXW5jM1tOSDJd

> <s_epik_cmdline>
J2VwaWtfYXBwJywgJy1pbWFlJywgJ2xpZ2FuZF9wcm8ubWFlJywgJy1vbWFlJywgJ2xpZ2FuZF9wcmVwLm1hZScsICctbXMnLCAnMScsICctcGgnLCAnNycsICctcGh0JywgJzAuNScsICctbnQn

> <r_lp_tautomer_probability>
0.999997216410988

> <r_epik_Ionization_Penalty>
  0.1361

> <r_epik_Ionization_Penalty_Charging>
  0.1357

> <r_epik_Ionization_Penalty_Neutral>
  0.0004

> <r_epik_State_Penalty>
  0.1250

> <r_epik_Charging_Adjusted_Penalty>
0.260643809970156

> <i_epik_Tot_Q>
-4

> <i_epik_Tot_abs_Q>
4

> <s_epik_Chemistry_Notes>
This compound contains an acetal/aminal-like group ( X-CH(R)-Y where X, Y are N, S, or O) that may be acid/base labile, releasing an aldehyde.

$$$$
