1tni_ligand
                    3D
 Schrodinger Suite 2020-3.
 27 27  0  0  1  0            999 V2000
   29.0920   15.5130   14.1370 C   0  0  0  0  0  0
   29.8140   15.8390   15.4380 C   0  0  0  0  0  0
   28.8910   15.4650   16.5610 C   0  0  0  0  0  0
   29.5580   14.6080   17.6300 C   0  0  0  0  0  0
   30.1700   13.2680   17.1930 C   0  0  0  0  0  0
   29.5220   12.4630   16.2720 C   0  0  0  0  0  0
   29.8790   11.1320   16.1840 C   0  0  0  0  0  0
   30.8630   10.5610   16.9830 C   0  0  0  0  0  0
   31.5100   11.3480   17.9030 C   0  0  0  0  0  0
   31.1550   12.6880   17.9960 C   0  0  0  0  0  0
   29.8680   14.9520   13.0270 N   0  3  0  0  0  0
   28.3036   14.7709   14.3312 H   0  0  0  0  0  0
   28.6405   16.4292   13.7286 H   0  0  0  0  0  0
   30.7476   15.2600   15.4943 H   0  0  0  0  0  0
   30.0467   16.9137   15.4689 H   0  0  0  0  0  0
   28.5215   16.3777   17.0513 H   0  0  0  0  0  0
   28.0403   14.8933   16.1616 H   0  0  0  0  0  0
   30.3875   15.1692   18.0850 H   0  0  0  0  0  0
   28.8215   14.3496   18.4051 H   0  0  0  0  0  0
   28.7439   12.8724   15.6278 H   0  0  0  0  0  0
   29.3672   10.5018   15.4567 H   0  0  0  0  0  0
   31.1166    9.5059   16.8806 H   0  0  0  0  0  0
   32.2849   10.9310   18.5462 H   0  0  0  0  0  0
   31.6671   13.3137   18.7270 H   0  0  0  0  0  0
   29.2040   14.7749   12.1681 H   0  0  0  0  0  0
   30.3226   14.0009   13.3413 H   0  0  0  0  0  0
   30.6596   15.6593   12.7387 H   0  0  0  0  0  0
  1  2  1  0  0  0
  1 11  1  0  0  0
  1 12  1  0  0  0
  1 13  1  0  0  0
  2  3  1  0  0  0
  2 14  1  0  0  0
  2 15  1  0  0  0
  3  4  1  0  0  0
  3 16  1  0  0  0
  3 17  1  0  0  0
  4  5  1  0  0  0
  4 18  1  0  0  0
  4 19  1  0  0  0
  5  6  2  0  0  0
  5 10  1  0  0  0
  6  7  1  0  0  0
  6 20  1  0  0  0
  7  8  2  0  0  0
  7 21  1  0  0  0
  8  9  1  0  0  0
  8 22  1  0  0  0
  9 10  2  0  0  0
  9 23  1  0  0  0
 10 24  1  0  0  0
 11 25  1  0  0  0
 11 26  1  0  0  0
 11 27  1  0  0  0
M  CHG  1  11   1
M  END
> <s_m_source_file>
../1tni_ligand.sdf

> <i_m_source_file_index>
1

> <s_epik_input>
W05IMytdW0NIMl1bQ0gyXVtDSDJdW0NIMl1jMVtjSF1bY0hdW2NIXVtjSF1bY0hdMQ==

> <s_epik_cmdline>
J2VwaWtfYXBwJywgJy1pbWFlJywgJ2xpZ2FuZF9wcm8ubWFlJywgJy1vbWFlJywgJ2xpZ2FuZF9wcmVwLm1hZScsICctbXMnLCAnMScsICctcGgnLCAnNycsICctcGh0JywgJzAuNScsICctbnQn

> <r_lp_tautomer_probability>
1

> <r_epik_Ionization_Penalty>
  0.0004

> <r_epik_Ionization_Penalty_Charging>
  0.0004

> <r_epik_Ionization_Penalty_Neutral>
  0.0000

> <r_epik_State_Penalty>
 -0.0000

> <r_epik_Charging_Adjusted_Penalty>
0.00042819563192759

> <i_epik_Tot_Q>
1

> <i_epik_Tot_abs_Q>
1

$$$$
