1tnj_ligand
                    3D
 Schrodinger Suite 2020-3.
 21 21  0  0  1  0            999 V2000
   29.4980   14.9640   16.4240 C   0  0  0  0  0  0
   28.8830   15.4530   17.5640 C   0  0  0  0  0  0
   28.6850   14.6200   18.6580 C   0  0  0  0  0  0
   29.1020   13.2960   18.6070 C   0  0  0  0  0  0
   29.7170   12.8040   17.4580 C   0  0  0  0  0  0
   29.9120   13.6370   16.3670 C   0  0  0  0  0  0
   29.7390   15.8900   15.2570 C   0  0  0  0  0  0
   29.0950   15.4330   13.9710 C   0  0  0  0  0  0
   29.9900   14.9120   12.9550 N   0  3  0  0  0  0
   28.5542   16.4915   17.6031 H   0  0  0  0  0  0
   28.2025   15.0053   19.5562 H   0  0  0  0  0  0
   28.9481   12.6424   19.4656 H   0  0  0  0  0  0
   30.0446   11.7652   17.4167 H   0  0  0  0  0  0
   30.3892   13.2526   15.4655 H   0  0  0  0  0  0
   29.3326   16.8855   15.4889 H   0  0  0  0  0  0
   30.8199   15.9699   15.0694 H   0  0  0  0  0  0
   28.3786   14.6264   14.1861 H   0  0  0  0  0  0
   28.5668   16.2779   13.5050 H   0  0  0  0  0  0
   29.4072   14.6138   12.0710 H   0  0  0  0  0  0
   30.5266   14.0378   13.3524 H   0  0  0  0  0  0
   30.7148   15.6893   12.6713 H   0  0  0  0  0  0
  1  2  2  0  0  0
  1  6  1  0  0  0
  1  7  1  0  0  0
  2  3  1  0  0  0
  2 10  1  0  0  0
  3  4  2  0  0  0
  3 11  1  0  0  0
  4  5  1  0  0  0
  4 12  1  0  0  0
  5  6  2  0  0  0
  5 13  1  0  0  0
  6 14  1  0  0  0
  7  8  1  0  0  0
  7 15  1  0  0  0
  7 16  1  0  0  0
  8  9  1  0  0  0
  8 17  1  0  0  0
  8 18  1  0  0  0
  9 19  1  0  0  0
  9 20  1  0  0  0
  9 21  1  0  0  0
M  CHG  1   9   1
M  END
> <s_m_source_file>
../1tnj_ligand.sdf

> <i_m_source_file_index>
1

> <s_epik_input>
W05IMytdW0NIMl1bQ0gyXWMxW2NIXVtjSF1bY0hdW2NIXVtjSF0x

> <s_epik_cmdline>
J2VwaWtfYXBwJywgJy1pbWFlJywgJ2xpZ2FuZF9wcm8ubWFlJywgJy1vbWFlJywgJ2xpZ2FuZF9wcmVwLm1hZScsICctbXMnLCAnMScsICctcGgnLCAnNycsICctcGh0JywgJzAuNScsICctbnQn

> <r_lp_tautomer_probability>
1

> <r_epik_Ionization_Penalty>
  0.0011

> <r_epik_Ionization_Penalty_Charging>
  0.0011

> <r_epik_Ionization_Penalty_Neutral>
  0.0000

> <r_epik_State_Penalty>
 -0.0000

> <r_epik_Charging_Adjusted_Penalty>
0.00114915322880164

> <i_epik_Tot_Q>
1

> <i_epik_Tot_abs_Q>
1

$$$$
