1tnl_ligand
                    3D
 Schrodinger Suite 2020-3.
 22 23  0  0  1  0            999 V2000
   30.1900   15.4610   14.8430 C   0  0  2  0  0  0
   28.9490   15.1840   15.6180 C   0  0  2  0  0  0
   29.3470   16.5960   15.4000 C   0  0  0  0  0  0
   29.1430   14.7060   17.0310 C   0  0  0  0  0  0
   28.6820   15.4810   18.0860 C   0  0  0  0  0  0
   28.7430   14.9720   19.3680 C   0  0  0  0  0  0
   29.2640   13.6990   19.5790 C   0  0  0  0  0  0
   29.7350   12.9350   18.5160 C   0  0  0  0  0  0
   29.6770   13.4390   17.2310 C   0  0  0  0  0  0
   29.9220   15.1630   13.4350 N   0  3  0  0  0  0
   31.2596   15.2063   14.8776 H   0  0  0  0  0  0
   28.0475   14.5884   15.4114 H   0  0  0  0  0  0
   29.9535   17.1970   16.0936 H   0  0  0  0  0  0
   28.9965   17.2321   14.5738 H   0  0  0  0  0  0
   28.2777   16.4770   17.9051 H   0  0  0  0  0  0
   28.3850   15.5641   20.2102 H   0  0  0  0  0  0
   29.3036   13.2951   20.5906 H   0  0  0  0  0  0
   30.1482   11.9426   18.6963 H   0  0  0  0  0  0
   30.0439   12.8527   16.3885 H   0  0  0  0  0  0
   30.5671   14.3349   13.1063 H   0  0  0  0  0  0
   30.1305   16.0546   12.8254 H   0  0  0  0  0  0
   28.8670   14.8756   13.3154 H   0  0  0  0  0  0
  1  2  1  0  0  0
  1  3  1  0  0  0
  1 10  1  0  0  0
  1 11  1  0  0  0
  2  3  1  0  0  0
  2  4  1  0  0  0
  2 12  1  0  0  0
  3 13  1  0  0  0
  3 14  1  0  0  0
  4  5  2  0  0  0
  4  9  1  0  0  0
  5  6  1  0  0  0
  5 15  1  0  0  0
  6  7  2  0  0  0
  6 16  1  0  0  0
  7  8  1  0  0  0
  7 17  1  0  0  0
  8  9  2  0  0  0
  8 18  1  0  0  0
  9 19  1  0  0  0
 10 20  1  0  0  0
 10 21  1  0  0  0
 10 22  1  0  0  0
M  CHG  1  10   1
M  END
> <s_m_source_file>
../1tnl_ligand.sdf

> <i_m_source_file_index>
1

> <s_epik_input>
W05IMytdW0NAQEhdMVtDQEhdKFtDSDJdMSljMltjSF1bY0hdW2NIXVtjSF1bY0hdMg==

> <s_epik_cmdline>
J2VwaWtfYXBwJywgJy1pbWFlJywgJ2xpZ2FuZF9wcm8ubWFlJywgJy1vbWFlJywgJ2xpZ2FuZF9wcmVwLm1hZScsICctbXMnLCAnMScsICctcGgnLCAnNycsICctcGh0JywgJzAuNScsICctbnQn

> <r_epik_Ionization_Penalty>
  0.0344

> <r_epik_Ionization_Penalty_Charging>
  0.0344

> <r_epik_Ionization_Penalty_Neutral>
  0.0000

> <r_epik_State_Penalty>
  0.0287

> <r_epik_Charging_Adjusted_Penalty>
0.0631005449297352

> <i_epik_Tot_Q>
1

> <i_epik_Tot_abs_Q>
1

$$$$
