1toi_ligand
                    3D
 Schrodinger Suite 2020-3.
 20 20  0  0  1  0            999 V2000
   73.2820   53.7340   34.1950 C   0  0  0  0  0  0
   72.1530   54.1970   34.0410 O   0  0  0  0  0  0
   73.4290   52.5530   34.7740 O   0  5  0  0  0  0
   74.5300   54.4900   33.7870 C   0  0  0  0  0  0
   74.4080   55.0380   32.3640 C   0  0  0  0  0  0
   74.6950   53.9180   31.3790 C   0  0  0  0  0  0
   75.9190   53.8980   30.7100 C   0  0  0  0  0  0
   76.2060   52.8910   29.7890 C   0  0  0  0  0  0
   75.2750   51.8780   29.5680 C   0  0  0  0  0  0
   74.0540   51.8800   30.2440 C   0  0  0  0  0  0
   73.7600   52.8970   31.1500 C   0  0  0  0  0  0
   74.6886   55.3340   34.4744 H   0  0  0  0  0  0
   75.3976   53.8151   33.8287 H   0  0  0  0  0  0
   73.3893   55.4212   32.2048 H   0  0  0  0  0  0
   75.1328   55.8531   32.2216 H   0  0  0  0  0  0
   76.6567   54.6754   30.9087 H   0  0  0  0  0  0
   77.1512   52.8962   29.2462 H   0  0  0  0  0  0
   75.5019   51.0787   28.8625 H   0  0  0  0  0  0
   73.3300   51.0855   30.0631 H   0  0  0  0  0  0
   72.8070   52.8995   31.6790 H   0  0  0  0  0  0
  1  2  2  0  0  0
  1  3  1  0  0  0
  1  4  1  0  0  0
  4  5  1  0  0  0
  4 12  1  0  0  0
  4 13  1  0  0  0
  5  6  1  0  0  0
  5 14  1  0  0  0
  5 15  1  0  0  0
  6  7  2  0  0  0
  6 11  1  0  0  0
  7  8  1  0  0  0
  7 16  1  0  0  0
  8  9  2  0  0  0
  8 17  1  0  0  0
  9 10  1  0  0  0
  9 18  1  0  0  0
 10 11  2  0  0  0
 10 19  1  0  0  0
 11 20  1  0  0  0
M  CHG  1   3  -1
M  END
> <s_m_source_file>
../1toi_ligand.sdf

> <i_m_source_file_index>
1

> <s_epik_input>
Tz1DKFtPSF0pW0NIMl1bQ0gyXWMxW2NIXVtjSF1bY0hdW2NIXVtjSF0x

> <s_epik_cmdline>
J2VwaWtfYXBwJywgJy1pbWFlJywgJ2xpZ2FuZF9wcm8ubWFlJywgJy1vbWFlJywgJ2xpZ2FuZF9wcmVwLm1hZScsICctbXMnLCAnMScsICctcGgnLCAnNycsICctcGh0JywgJzAuNScsICctbnQn

> <r_lp_tautomer_probability>
1

> <r_epik_Ionization_Penalty>
  0.0026

> <r_epik_Ionization_Penalty_Charging>
  0.0026

> <r_epik_Ionization_Penalty_Neutral>
  0.0000

> <r_epik_State_Penalty>
 -0.0000

> <r_epik_Charging_Adjusted_Penalty>
0.00264064342765131

> <i_epik_Tot_Q>
-1

> <i_epik_Tot_abs_Q>
1

$$$$
