1toj_ligand
                    3D
 Schrodinger Suite 2020-3.
 20 20  0  0  1  0            999 V2000
   31.2410   23.6960    4.7350 C   0  0  0  0  0  0
   30.1150   23.2230    4.8740 O   0  0  0  0  0  0
   31.3860   24.8830    4.1580 O   0  5  0  0  0  0
   32.4760   22.9440    5.1790 C   0  0  0  0  0  0
   32.3590   22.4020    6.6100 C   0  0  0  0  0  0
   32.6090   23.5050    7.6240 C   0  0  0  0  0  0
   33.8300   23.5640    8.3140 C   0  0  0  0  0  0
   34.0550   24.5930    9.2450 C   0  0  0  0  0  0
   33.0780   25.5660    9.4640 C   0  0  0  0  0  0
   31.8580   25.5130    8.7720 C   0  0  0  0  0  0
   31.6280   24.4870    7.8570 C   0  0  0  0  0  0
   32.6454   22.0887    4.5083 H   0  0  0  0  0  0
   33.3466   23.6155    5.1439 H   0  0  0  0  0  0
   31.3484   21.9970    6.7672 H   0  0  0  0  0  0
   33.1013   21.6046    6.7619 H   0  0  0  0  0  0
   34.6002   22.8153    8.1288 H   0  0  0  0  0  0
   34.9941   24.6313    9.7970 H   0  0  0  0  0  0
   33.2635   26.3705   10.1757 H   0  0  0  0  0  0
   31.0943   26.2703    8.9492 H   0  0  0  0  0  0
   30.6815   24.4449    7.3180 H   0  0  0  0  0  0
  1  2  2  0  0  0
  1  3  1  0  0  0
  1  4  1  0  0  0
  4  5  1  0  0  0
  4 12  1  0  0  0
  4 13  1  0  0  0
  5  6  1  0  0  0
  5 14  1  0  0  0
  5 15  1  0  0  0
  6  7  2  0  0  0
  6 11  1  0  0  0
  7  8  1  0  0  0
  7 16  1  0  0  0
  8  9  2  0  0  0
  8 17  1  0  0  0
  9 10  1  0  0  0
  9 18  1  0  0  0
 10 11  2  0  0  0
 10 19  1  0  0  0
 11 20  1  0  0  0
M  CHG  1   3  -1
M  END
> <s_m_source_file>
../1toj_ligand.sdf

> <i_m_source_file_index>
1

> <s_epik_input>
Tz1DKFtPSF0pW0NIMl1bQ0gyXWMxW2NIXVtjSF1bY0hdW2NIXVtjSF0x

> <s_epik_cmdline>
J2VwaWtfYXBwJywgJy1pbWFlJywgJ2xpZ2FuZF9wcm8ubWFlJywgJy1vbWFlJywgJ2xpZ2FuZF9wcmVwLm1hZScsICctbXMnLCAnMScsICctcGgnLCAnNycsICctcGh0JywgJzAuNScsICctbnQn

> <r_lp_tautomer_probability>
1

> <r_epik_Ionization_Penalty>
  0.0026

> <r_epik_Ionization_Penalty_Charging>
  0.0026

> <r_epik_Ionization_Penalty_Neutral>
  0.0000

> <r_epik_State_Penalty>
 -0.0000

> <r_epik_Charging_Adjusted_Penalty>
0.00264064342765131

> <i_epik_Tot_Q>
-1

> <i_epik_Tot_abs_Q>
1

$$$$
