1tok_ligand
                    3D
 Schrodinger Suite 2020-3.
 10  9  0  0  1  0            999 V2000
   36.8250   19.4470   -3.8260 C   0  0  0  0  0  0
   36.7530   20.5780   -3.2830 O   0  0  0  0  0  0
   36.9220   18.4380   -3.0830 O   0  5  0  0  0  0
   36.7050   19.3960   -5.3140 C   0  0  0  0  0  0
   36.4720   18.3330   -6.0920 C   0  0  0  0  0  0
   36.4700   16.9220   -5.6560 C   0  0  0  0  0  0
   35.5520   16.3540   -4.9950 O   0  5  0  0  0  0
   37.4690   16.2720   -6.0060 O   0  0  0  0  0  0
   36.8345   20.3905   -5.7659 H   0  0  0  0  0  0
   36.2573   18.4710   -7.1620 H   0  0  0  0  0  0
  1  2  2  0  0  0
  1  3  1  0  0  0
  1  4  1  0  0  0
  4  5  2  0  0  0
  4  9  1  0  0  0
  5  6  1  0  0  0
  5 10  1  0  0  0
  6  7  1  0  0  0
  6  8  2  0  0  0
M  CHG  2   3  -1   7  -1
M  END
> <s_m_source_file>
../1tok_ligand.sdf

> <i_m_source_file_index>
1

> <s_epik_input>
Tz1DKFtPSF0pL1tDSF09W0NIXVxDKD1PKVtPSF0=

> <s_epik_cmdline>
J2VwaWtfYXBwJywgJy1pbWFlJywgJ2xpZ2FuZF9wcm8ubWFlJywgJy1vbWFlJywgJ2xpZ2FuZF9wcmVwLm1hZScsICctbXMnLCAnMScsICctcGgnLCAnNycsICctcGh0JywgJzAuNScsICctbnQn

> <r_epik_Ionization_Penalty>
  0.0714

> <r_epik_Ionization_Penalty_Charging>
  0.0714

> <r_epik_Ionization_Penalty_Neutral>
  0.0000

> <r_epik_State_Penalty>
  0.0440

> <r_epik_Charging_Adjusted_Penalty>
0.115443043842014

> <i_epik_Tot_Q>
-2

> <i_epik_Tot_abs_Q>
2

$$$$
