1tom_ligand
                    3D
 Schrodinger Suite 2020-3.
 64 66  0  0  1  0            999 V2000
   10.3160  -12.8040   23.5250 N   0  3  0  0  0  0
   11.3220  -12.7910   22.5040 C   0  0  2  0  0  0
   12.5960  -13.2860   23.1240 C   0  0  0  0  0  0
   13.7450  -13.2510   22.1460 C   0  0  0  0  0  0
   13.9200  -11.8380   21.5900 C   0  0  2  0  0  0
   12.6590  -11.3000   20.9420 C   0  0  0  0  0  0
   11.5480  -11.3550   21.9740 C   0  0  0  0  0  0
   14.9980  -11.8090   20.5710 C   0  0  0  0  0  0
   16.3250  -11.9530   21.1710 N   0  0  0  0  0  0
   17.1170  -13.0170   20.9440 C   0  0  0  0  0  0
   16.7290  -13.9670   20.2610 O   0  0  0  0  0  0
   18.5150  -13.0970   21.5690 C   0  0  2  0  0  0
   19.5800  -13.0850   20.5050 C   0  0  0  0  0  0
   20.5550  -14.1330   20.9450 C   0  0  0  0  0  0
   19.7010  -15.1760   21.6260 C   0  0  0  0  0  0
   18.6620  -14.3740   22.2720 N   0  0  0  0  0  0
   17.8220  -14.8100   23.2150 C   0  0  0  0  0  0
   16.9480  -14.0710   23.6920 O   0  0  0  0  0  0
   15.8190  -17.0230   22.6010 C   0  0  0  0  0  0
   16.6180  -16.8730   23.8320 N   0  3  0  0  0  0
   17.9320  -16.2260   23.7760 C   0  0  2  0  0  0
   18.5320  -16.1970   25.2170 C   0  0  0  0  0  0
   19.8880  -15.5410   25.3810 C   0  0  0  0  0  0
   21.0020  -16.1550   24.8590 C   0  0  0  0  0  0
   22.2210  -15.5290   24.9600 C   0  0  0  0  0  0
   22.3090  -14.3140   25.6040 C   0  0  0  0  0  0
   21.1840  -13.7160   26.1340 C   0  0  0  0  0  0
   19.9680  -14.3310   26.0350 C   0  0  0  0  0  0
    9.3639  -12.4460   23.1062 H   0  0  0  0  0  0
   10.6236  -12.1462   24.3512 H   0  0  0  0  0  0
   10.1885  -13.8298   23.9011 H   0  0  0  0  0  0
   10.9667  -13.4584   21.7050 H   0  0  0  0  0  0
   12.8554  -12.6520   23.9847 H   0  0  0  0  0  0
   12.4605  -14.3243   23.4610 H   0  0  0  0  0  0
   14.6706  -13.5547   22.6568 H   0  0  0  0  0  0
   13.5407  -13.9426   21.3154 H   0  0  0  0  0  0
   14.1932  -11.1925   22.4377 H   0  0  0  0  0  0
   12.8275  -10.2626   20.6173 H   0  0  0  0  0  0
   12.4015  -11.9197   20.0704 H   0  0  0  0  0  0
   10.6236  -10.9878   21.5043 H   0  0  0  0  0  0
   11.8219  -10.6945   22.8099 H   0  0  0  0  0  0
   14.8519  -12.6348   19.8592 H   0  0  0  0  0  0
   14.9674  -10.8506   20.0320 H   0  0  0  0  0  0
   16.7140  -11.1711   21.8399 H   0  0  0  0  0  0
   18.6468  -12.2575   22.2675 H   0  0  0  0  0  0
   19.1283  -13.3257   19.5313 H   0  0  0  0  0  0
   20.0409  -12.0873   20.4587 H   0  0  0  0  0  0
   21.0782  -14.5389   20.0667 H   0  0  0  0  0  0
   21.2871  -13.6866   21.6340 H   0  0  0  0  0  0
   19.2960  -15.8673   20.8723 H   0  0  0  0  0  0
   20.3132  -15.7374   22.3471 H   0  0  0  0  0  0
   14.8709  -17.5277   22.8385 H   0  0  0  0  0  0
   16.3808  -17.6231   21.8701 H   0  0  0  0  0  0
   15.6095  -16.0300   22.1766 H   0  0  0  0  0  0
   16.0562  -16.2729   24.5629 H   0  0  0  0  0  0
   16.8275  -17.8660   24.2564 H   0  0  0  0  0  0
   18.5442  -16.8189   23.0806 H   0  0  0  0  0  0
   17.8534  -15.6472   25.8857 H   0  0  0  0  0  0
   18.6540  -17.2267   25.5842 H   0  0  0  0  0  0
   20.9192  -17.1262   24.3712 H   0  0  0  0  0  0
   23.1119  -15.9902   24.5338 H   0  0  0  0  0  0
   23.2766  -13.8205   25.6957 H   0  0  0  0  0  0
   21.2657  -12.7504   26.6330 H   0  0  0  0  0  0
   19.0776  -13.8728   26.4655 H   0  0  0  0  0  0
  1  2  1  0  0  0
  1 29  1  0  0  0
  1 30  1  0  0  0
  1 31  1  0  0  0
  2  7  1  0  0  0
  2  3  1  0  0  0
  2 32  1  0  0  0
  3  4  1  0  0  0
  3 33  1  0  0  0
  3 34  1  0  0  0
  4  5  1  0  0  0
  4 35  1  0  0  0
  4 36  1  0  0  0
  5  8  1  0  0  0
  5  6  1  0  0  0
  5 37  1  0  0  0
  6  7  1  0  0  0
  6 38  1  0  0  0
  6 39  1  0  0  0
  7 40  1  0  0  0
  7 41  1  0  0  0
  8  9  1  0  0  0
  8 42  1  0  0  0
  8 43  1  0  0  0
  9 10  1  0  0  0
  9 44  1  0  0  0
 10 12  1  0  0  0
 10 11  2  0  0  0
 12 16  1  0  0  0
 12 13  1  0  0  0
 12 45  1  0  0  0
 13 14  1  0  0  0
 13 46  1  0  0  0
 13 47  1  0  0  0
 14 15  1  0  0  0
 14 48  1  0  0  0
 14 49  1  0  0  0
 15 16  1  0  0  0
 15 50  1  0  0  0
 15 51  1  0  0  0
 16 17  1  0  0  0
 17 21  1  0  0  0
 17 18  2  0  0  0
 19 20  1  0  0  0
 19 52  1  0  0  0
 19 53  1  0  0  0
 19 54  1  0  0  0
 20 21  1  0  0  0
 20 55  1  0  0  0
 20 56  1  0  0  0
 21 22  1  0  0  0
 21 57  1  0  0  0
 22 23  1  0  0  0
 22 58  1  0  0  0
 22 59  1  0  0  0
 23 28  2  0  0  0
 23 24  1  0  0  0
 24 25  2  0  0  0
 24 60  1  0  0  0
 25 26  1  0  0  0
 25 61  1  0  0  0
 26 27  2  0  0  0
 26 62  1  0  0  0
 27 28  1  0  0  0
 27 63  1  0  0  0
 28 64  1  0  0  0
M  CHG  2   1   1  20   1
M  END
> <s_m_source_file>
../1tom_ligand.sdf

> <i_m_source_file_index>
1

> <s_epik_input>
W05IMytdW0NAQEhdMVtDSDJdW0NIMl1bQ0BIXShbQ0gyXVtDSDJdMSlbQ0gyXVtOSF1DKD1PKVtDQEBIXTJbQ0gyXVtDSDJdW0NIMl1OMkMoPU8pW0NASF0oW05IMitdW0NIM10pW0NIMl1jM1tjSF1bY0hdW2NIXVtjSF1bY0hdMw==

> <s_epik_cmdline>
J2VwaWtfYXBwJywgJy1pbWFlJywgJ2xpZ2FuZF9wcm8ubWFlJywgJy1vbWFlJywgJ2xpZ2FuZF9wcmVwLm1hZScsICctbXMnLCAnMScsICctcGgnLCAnNycsICctcGh0JywgJzAuNScsICctbnQn

> <r_epik_Ionization_Penalty>
  0.1254

> <r_epik_Ionization_Penalty_Charging>
  0.1254

> <r_epik_Ionization_Penalty_Neutral>
  0.0000

> <r_epik_State_Penalty>
  0.1146

> <r_epik_Charging_Adjusted_Penalty>
0.239996841608241

> <i_epik_Tot_Q>
2

> <i_epik_Tot_abs_Q>
2

$$$$
