1tou_ligand
                    3D
 Schrodinger Suite 2020-3.
 34 35  0  0  1  0            999 V2000
   21.4910    5.6460    4.6240 F   0  0  0  0  0  0
   20.3120    5.0570    4.6360 C   0  0  0  0  0  0
   19.6730    5.4360    5.6480 F   0  0  0  0  0  0
   20.4800    3.7460    4.6790 F   0  0  0  0  0  0
   19.5870    5.4220    3.4300 C   0  0  0  0  0  0
   19.9250    4.8530    2.2500 N   0  0  0  0  0  0
   18.5770    6.3840    3.4600 C   0  0  0  0  0  0
   17.9330    6.7110    2.2700 C   0  0  0  0  0  0
   16.9360    7.6350    2.2460 O   0  5  0  0  0  0
   18.3000    6.1190    1.1250 N   0  0  0  0  0  0
   19.2910    5.1970    1.1210 C   0  0  0  0  0  0
   19.7160    4.4530   -0.4020 S   0  0  0  0  0  0
   21.0660    3.3370    0.0700 C   0  0  0  0  0  0
   22.4160    3.9900   -0.1690 C   0  0  0  0  0  0
   22.6210    4.6460   -1.1830 O   0  0  0  0  0  0
   23.4750    3.8060    0.7610 N   0  0  0  0  0  0
   23.0240    3.8540    2.1660 C   0  0  0  0  0  0
   24.1510    3.3950    3.0960 C   0  0  0  0  0  0
   25.4890    4.0960    2.8100 C   0  0  0  0  0  0
   25.7870    4.3780    1.3320 C   0  0  0  0  0  0
   24.5500    4.7960    0.5480 C   0  0  0  0  0  0
   18.2981    6.8692    4.3953 H   0  0  0  0  0  0
   20.9781    3.0862    1.1374 H   0  0  0  0  0  0
   21.0071    2.4163   -0.5291 H   0  0  0  0  0  0
   22.7394    4.8846    2.4247 H   0  0  0  0  0  0
   22.1562    3.1905    2.2954 H   0  0  0  0  0  0
   23.8767    3.6115    4.1390 H   0  0  0  0  0  0
   24.3083    2.3130    2.9753 H   0  0  0  0  0  0
   25.5091    5.0700    3.3208 H   0  0  0  0  0  0
   26.3162    3.4716    3.1785 H   0  0  0  0  0  0
   26.5234    5.1915    1.2552 H   0  0  0  0  0  0
   26.1923    3.4708    0.8601 H   0  0  0  0  0  0
   24.7945    4.8470   -0.5233 H   0  0  0  0  0  0
   24.2126    5.7840    0.8945 H   0  0  0  0  0  0
  1  2  1  0  0  0
  2  3  1  0  0  0
  2  4  1  0  0  0
  2  5  1  0  0  0
  5  6  1  0  0  0
  5  7  2  0  0  0
  6 11  2  0  0  0
  7  8  1  0  0  0
  7 22  1  0  0  0
  8  9  1  0  0  0
  8 10  2  0  0  0
 10 11  1  0  0  0
 11 12  1  0  0  0
 12 13  1  0  0  0
 13 14  1  0  0  0
 13 23  1  0  0  0
 13 24  1  0  0  0
 14 15  2  0  0  0
 14 16  1  0  0  0
 16 17  1  0  0  0
 16 21  1  0  0  0
 17 18  1  0  0  0
 17 25  1  0  0  0
 17 26  1  0  0  0
 18 19  1  0  0  0
 18 27  1  0  0  0
 18 28  1  0  0  0
 19 20  1  0  0  0
 19 29  1  0  0  0
 19 30  1  0  0  0
 20 21  1  0  0  0
 20 31  1  0  0  0
 20 32  1  0  0  0
 21 33  1  0  0  0
 21 34  1  0  0  0
M  CHG  1   9  -1
M  END
> <s_m_source_file>
../1tou_ligand.sdf

> <i_m_source_file_index>
1

> <s_epik_input>
RkMoRikoRiljMW5jKFtuSF1jKD1PKVtjSF0xKVNbQ0gyXUMoPU8pTjJbQ0gyXVtDSDJdW0NIMl1bQ0gyXVtDSDJdMg==

> <s_epik_cmdline>
J2VwaWtfYXBwJywgJy1pbWFlJywgJ2xpZ2FuZF9wcm8ubWFlJywgJy1vbWFlJywgJ2xpZ2FuZF9wcmVwLm1hZScsICctbXMnLCAnMScsICctcGgnLCAnNycsICctcGh0JywgJzAuNScsICctbnQn

> <r_lp_tautomer_probability>
1

> <r_epik_Ionization_Penalty>
  0.0241

> <r_epik_Ionization_Penalty_Charging>
  0.0010

> <r_epik_Ionization_Penalty_Neutral>
  0.0231

> <r_epik_State_Penalty>
  0.0151

> <r_epik_Charging_Adjusted_Penalty>
0.0160928568076472

> <i_epik_Tot_Q>
-1

> <i_epik_Tot_abs_Q>
1

$$$$
