1tow_ligand
                    3D
 Schrodinger Suite 2020-3.
 33 35  0  0  1  0            999 V2000
   17.4080    7.2290    2.0020 O   0  0  0  0  0  0
   17.9280    6.4240    2.7610 C   0  0  0  0  0  0
   17.1920    5.4060    3.1960 O   0  5  0  0  0  0
   19.3710    6.5730    3.1920 C   0  0  0  0  0  0
   19.8380    5.4040    4.0810 C   0  0  0  0  0  0
   20.1330    4.1170    3.2890 C   0  0  0  0  0  0
   21.0330    4.3350    2.1460 N   0  0  0  0  0  0
   20.6150    4.5170    0.8490 C   0  0  0  0  0  0
   19.3820    4.6100    0.2010 C   0  0  0  0  0  0
   21.8270    4.6580    0.0110 C   0  0  0  0  0  0
   21.7870    4.8620   -1.3620 C   0  0  0  0  0  0
   20.5190    4.9520   -1.9530 C   0  0  0  0  0  0
   19.3480    4.8220   -1.1880 C   0  0  0  0  0  0
   22.9600    4.5250    0.9060 C   0  0  0  0  0  0
   22.3980    4.3210    2.2560 C   0  0  0  0  0  0
   23.3060    4.1740    3.3110 C   0  0  0  0  0  0
   24.3290    4.5700    0.6410 C   0  0  0  0  0  0
   25.1830    4.4050    1.7380 C   0  0  0  0  0  0
   24.6770    4.2150    3.0320 C   0  0  0  0  0  0
   20.0178    6.6049    2.3028 H   0  0  0  0  0  0
   19.4884    7.5050    3.7644 H   0  0  0  0  0  0
   20.7616    5.6890    4.6061 H   0  0  0  0  0  0
   19.0556    5.1679    4.8173 H   0  0  0  0  0  0
   20.6095    3.3797    3.9518 H   0  0  0  0  0  0
   19.1919    3.7036    2.8973 H   0  0  0  0  0  0
   18.4547    4.5191    0.7667 H   0  0  0  0  0  0
   22.6990    4.9481   -1.9527 H   0  0  0  0  0  0
   20.4402    5.1261   -3.0261 H   0  0  0  0  0  0
   18.3816    4.8877   -1.6879 H   0  0  0  0  0  0
   22.9517    4.0301    4.3317 H   0  0  0  0  0  0
   24.7134    4.7254   -0.3670 H   0  0  0  0  0  0
   26.2618    4.4246    1.5834 H   0  0  0  0  0  0
   25.3811    4.0941    3.8553 H   0  0  0  0  0  0
  1  2  2  0  0  0
  2  3  1  0  0  0
  2  4  1  0  0  0
  4  5  1  0  0  0
  4 20  1  0  0  0
  4 21  1  0  0  0
  5  6  1  0  0  0
  5 22  1  0  0  0
  5 23  1  0  0  0
  6  7  1  0  0  0
  6 24  1  0  0  0
  6 25  1  0  0  0
  7  8  1  0  0  0
  7 15  1  0  0  0
  8  9  2  0  0  0
  8 10  1  0  0  0
  9 13  1  0  0  0
  9 26  1  0  0  0
 10 11  2  0  0  0
 10 14  1  0  0  0
 11 12  1  0  0  0
 11 27  1  0  0  0
 12 13  2  0  0  0
 12 28  1  0  0  0
 13 29  1  0  0  0
 14 15  2  0  0  0
 14 17  1  0  0  0
 15 16  1  0  0  0
 16 19  2  0  0  0
 16 30  1  0  0  0
 17 18  2  0  0  0
 17 31  1  0  0  0
 18 19  1  0  0  0
 18 32  1  0  0  0
 19 33  1  0  0  0
M  CHG  1   3  -1
M  END
> <s_m_source_file>
../1tow_ligand.sdf

> <i_m_source_file_index>
1

> <s_epik_input>
Tz1DKFtPSF0pW0NIMl1bQ0gyXVtDSDJdbjFjKFtjSF1bY0hdW2NIXVtjSF0yKWMyYyhjMTMpW2NIXVtjSF1bY0hdW2NIXTM=

> <s_epik_cmdline>
J2VwaWtfYXBwJywgJy1pbWFlJywgJ2xpZ2FuZF9wcm8ubWFlJywgJy1vbWFlJywgJ2xpZ2FuZF9wcmVwLm1hZScsICctbXMnLCAnMScsICctcGgnLCAnNycsICctcGh0JywgJzAuNScsICctbnQn

> <r_lp_tautomer_probability>
1

> <r_epik_Ionization_Penalty>
  0.0023

> <r_epik_Ionization_Penalty_Charging>
  0.0023

> <r_epik_Ionization_Penalty_Neutral>
  0.0000

> <r_epik_State_Penalty>
 -0.0000

> <r_epik_Charging_Adjusted_Penalty>
0.00234615239607585

> <i_epik_Tot_Q>
-1

> <i_epik_Tot_abs_Q>
1

$$$$
