1tpw_ligand
                    3D
 Schrodinger Suite 2020-3.
 14 13  0  0  1  0            999 V2000
   23.5110   30.2180   18.4800 C   0  0  0  0  0  0
   24.6930   31.1730   18.6660 C   0  0  0  0  0  0
   23.1110   30.1470   17.2260 N   0  0  0  0  0  0
   22.0640   29.3220   16.8830 O   0  0  0  0  0  0
   23.0650   29.5380   19.3960 O   0  0  0  0  0  0
   24.5710   32.0020   19.8200 O   0  0  0  0  0  0
   25.2880   34.0300   21.0850 O   0  5  0  0  0  0
   26.2220   33.5850   18.8230 O   0  5  0  0  0  0
   26.9070   32.1410   20.8130 O   0  0  0  0  0  0
   25.8280   32.9410   20.1530 P   0  0  0  0  0  0
   25.6209   30.5917   18.7718 H   0  0  0  0  0  0
   24.7721   31.8336   17.7900 H   0  0  0  0  0  0
   23.6141   30.7472   16.4536 H   0  0  0  0  0  0
   21.7304   29.2629   15.8365 H   0  0  0  0  0  0
  1  2  1  0  0  0
  1  3  1  0  0  0
  1  5  2  0  0  0
  2  6  1  0  0  0
  2 11  1  0  0  0
  2 12  1  0  0  0
  3  4  1  0  0  0
  3 13  1  0  0  0
  4 14  1  0  0  0
  6 10  1  0  0  0
  7 10  1  0  0  0
  8 10  1  0  0  0
  9 10  2  0  0  0
M  CHG  2   7  -1   8  -1
M  END
> <s_m_source_file>
../1tpw_ligand.sdf

> <i_m_source_file_index>
1

> <s_epik_input>
W09IXVtOSF1DKD1PKVtDSDJdT1AoPU8pKFtPSF0pW09IXQ==

> <s_epik_cmdline>
J2VwaWtfYXBwJywgJy1pbWFlJywgJ2xpZ2FuZF9wcm8ubWFlJywgJy1vbWFlJywgJ2xpZ2FuZF9wcmVwLm1hZScsICctbXMnLCAnMScsICctcGgnLCAnNycsICctcGh0JywgJzAuNScsICctbnQn

> <r_lp_tautomer_probability>
1

> <r_epik_Ionization_Penalty>
  0.1051

> <r_epik_Ionization_Penalty_Charging>
  0.0952

> <r_epik_Ionization_Penalty_Neutral>
  0.0099

> <r_epik_State_Penalty>
 -0.0000

> <r_epik_Charging_Adjusted_Penalty>
0.0952146890399759

> <i_epik_Tot_Q>
-2

> <i_epik_Tot_abs_Q>
2

> <s_epik_Chemistry_Notes>
This compound has a N-S or N-O group and may undergo hydrolysis at high or low pH.

$$$$
