1tpz_ligand
                    3D
 Schrodinger Suite 2020-3.
 40 42  0  0  1  0            999 V2000
    4.9510    5.5190   32.7040 P   0  0  0  0  0  0
    3.9220    4.5980   32.2290 O   0  0  0  0  0  0
    5.3360    5.3640   34.1410 O   0  5  0  0  0  0
    6.3090    5.4340   31.9970 O   0  5  0  0  0  0
    4.3510    7.1030   32.7110 O   0  0  0  0  0  0
    3.8330    7.8440   31.3630 P   0  0  1  0  0  0
    4.8610    8.9160   31.4290 O   0  0  0  0  0  0
    3.8560    7.1130   30.0680 O   0  5  0  0  0  0
    2.5000    8.4910   31.8890 O   0  0  0  0  0  0
    1.2420    7.8410   31.9920 C   0  0  0  0  0  0
    0.1670    8.8450   31.5110 C   0  0  1  0  0  0
   -0.0550   10.0170   32.3770 O   0  0  0  0  0  0
    0.4020    9.5530   30.1280 C   0  0  1  0  0  0
   -0.9380    9.6760   29.5610 O   0  0  0  0  0  0
    1.0120   10.9170   30.4740 C   0  0  1  0  0  0
    0.8130   11.9380   29.5040 O   0  0  0  0  0  0
    0.3910   11.2280   31.8040 C   0  0  2  0  0  0
    1.2990   11.9070   32.7980 N   0  0  0  0  0  0
    2.5650   11.6420   33.2630 C   0  0  0  0  0  0
    2.9830   12.5090   34.1400 N   0  0  0  0  0  0
    1.9450   13.4160   34.2840 C   0  0  0  0  0  0
    1.7760   14.6090   35.1020 C   0  0  0  0  0  0
    2.6000   15.0950   35.9060 O   0  0  0  0  0  0
    0.4910   15.2500   34.9140 N   0  0  0  0  0  0
   -0.5110   14.8020   34.0460 C   0  0  0  0  0  0
   -1.6280   15.5230   34.0060 N   0  0  0  0  0  0
   -0.3640   13.6790   33.2700 N   0  0  0  0  0  0
    0.8720   13.0640   33.4520 C   0  0  0  0  0  0
    1.2414    6.9411   31.3594 H   0  0  0  0  0  0
    1.0623    7.5537   33.0385 H   0  0  0  0  0  0
   -0.6895    8.1554   31.5393 H   0  0  0  0  0  0
    1.0266    9.0488   29.3759 H   0  0  0  0  0  0
   -1.4953    8.7746   29.2662 H   0  0  0  0  0  0
    2.1117   10.9416   30.4632 H   0  0  0  0  0  0
    1.2236   11.8211   28.4902 H   0  0  0  0  0  0
   -0.4644   11.8938   31.6168 H   0  0  0  0  0  0
    3.1597   10.7911   32.9308 H   0  0  0  0  0  0
    0.2434   16.1616   35.4776 H   0  0  0  0  0  0
   -1.7267   16.4197   34.6355 H   0  0  0  0  0  0
   -2.4531   15.2226   33.3435 H   0  0  0  0  0  0
  1  2  2  0  0  0
  1  3  1  0  0  0
  1  4  1  0  0  0
  1  5  1  0  0  0
  5  6  1  0  0  0
  6  7  2  0  0  0
  6  8  1  0  0  0
  6  9  1  0  0  0
  9 10  1  0  0  0
 10 11  1  0  0  0
 10 29  1  0  0  0
 10 30  1  0  0  0
 11 12  1  0  0  0
 11 13  1  0  0  0
 11 31  1  0  0  0
 12 17  1  0  0  0
 13 14  1  0  0  0
 13 15  1  0  0  0
 13 32  1  0  0  0
 14 33  1  0  0  0
 15 16  1  0  0  0
 15 17  1  0  0  0
 15 34  1  0  0  0
 16 35  1  0  0  0
 17 18  1  0  0  0
 17 36  1  0  0  0
 18 19  1  0  0  0
 18 28  1  0  0  0
 19 20  2  0  0  0
 19 37  1  0  0  0
 20 21  1  0  0  0
 21 22  1  0  0  0
 21 28  2  0  0  0
 22 23  2  0  0  0
 22 24  1  0  0  0
 24 25  1  0  0  0
 24 38  1  0  0  0
 25 26  1  0  0  0
 25 27  2  0  0  0
 26 39  1  0  0  0
 26 40  1  0  0  0
 27 28  1  0  0  0
M  CHG  3   3  -1   4  -1   8  -1
M  END
> <s_m_source_file>
../1tpz_ligand.sdf

> <i_m_source_file_index>
1

> <s_epik_input>
Tz1QKFtPSF0pKFtPSF0pT1tQQEBdKD1PKShbT0hdKU9bQ0gyXVtDQEhdMU9bQ0BIXShbQ0BIXShbT0hdKVtDQEBIXTFbT0hdKW4oW2NIXW4yKWMoYzIzKW5jKFtOSDJdKVtuSF1jMz1P

> <s_epik_cmdline>
J2VwaWtfYXBwJywgJy1pbWFlJywgJ2xpZ2FuZF9wcm8ubWFlJywgJy1vbWFlJywgJ2xpZ2FuZF9wcmVwLm1hZScsICctbXMnLCAnMScsICctcGgnLCAnNycsICctcGh0JywgJzAuNScsICctbnQn

> <r_lp_tautomer_probability>
0.999940409345307

> <r_epik_Ionization_Penalty>
  0.1052

> <r_epik_Ionization_Penalty_Charging>
  0.1051

> <r_epik_Ionization_Penalty_Neutral>
  0.0001

> <r_epik_State_Penalty>
  0.0922

> <r_epik_Charging_Adjusted_Penalty>
0.197315167096652

> <i_epik_Tot_Q>
-3

> <i_epik_Tot_abs_Q>
3

> <s_epik_Chemistry_Notes>
This compound contains an acetal/aminal-like group ( X-CH(R)-Y where X, Y are N, S, or O) that may be acid/base labile, releasing an aldehyde.

$$$$
