1tq4_ligand
                    3D
 Schrodinger Suite 2020-3.
 40 42  0  0  1  0            999 V2000
    9.6810   25.2450   36.8220 P   0  0  0  0  0  0
    8.9710   26.1030   37.7580 O   0  0  0  0  0  0
    8.9760   23.9910   36.4100 O   0  5  0  0  0  0
   10.0170   25.8680   35.4480 O   0  5  0  0  0  0
   11.0390   24.5870   37.5810 O   0  0  0  0  0  0
   12.2030   25.5230   38.2220 P   0  0  1  0  0  0
   13.2380   25.0210   37.2790 O   0  5  0  0  0  0
   12.0560   26.9930   38.1790 O   0  0  0  0  0  0
   12.4830   24.7830   39.5990 O   0  0  0  0  0  0
   11.7590   24.9460   40.8100 C   0  0  0  0  0  0
   12.7840   25.0580   41.9680 C   0  0  1  0  0  0
   13.5040   23.8180   42.3300 O   0  0  0  0  0  0
   13.9910   26.0460   41.7710 C   0  0  1  0  0  0
   14.1880   26.6390   43.0920 O   0  0  0  0  0  0
   15.1780   25.1680   41.3440 C   0  0  1  0  0  0
   16.4620   25.6890   41.6730 O   0  0  0  0  0  0
   14.8830   23.8490   42.0020 C   0  0  2  0  0  0
   15.1740   22.6370   41.1520 N   0  0  0  0  0  0
   14.8320   22.2810   39.8680 C   0  0  0  0  0  0
   15.2990   21.1180   39.5110 N   0  0  0  0  0  0
   15.9990   20.6520   40.6100 C   0  0  0  0  0  0
   16.7470   19.4300   40.8590 C   0  0  0  0  0  0
   16.9200   18.4840   40.0750 O   0  0  0  0  0  0
   17.3250   19.3710   42.1790 N   0  0  0  0  0  0
   17.2010   20.3690   43.1520 C   0  0  0  0  0  0
   17.8050   20.1400   44.3170 N   0  0  0  0  0  0
   16.4940   21.5320   42.9310 N   0  0  0  0  0  0
   15.9410   21.5840   41.6580 C   0  0  0  0  0  0
   11.1489   25.8595   40.7523 H   0  0  0  0  0  0
   11.1034   24.0765   40.9651 H   0  0  0  0  0  0
   12.0702   25.3461   42.7538 H   0  0  0  0  0  0
   13.8755   26.8766   41.0591 H   0  0  0  0  0  0
   13.4146   27.2920   43.5226 H   0  0  0  0  0  0
   15.3303   25.1065   40.2563 H   0  0  0  0  0  0
   16.7903   26.6502   41.2507 H   0  0  0  0  0  0
   15.4957   23.7903   42.9137 H   0  0  0  0  0  0
   14.2292   22.9103   39.2132 H   0  0  0  0  0  0
   17.9144   18.4932   42.4826 H   0  0  0  0  0  0
   18.3639   19.2054   44.4724 H   0  0  0  0  0  0
   17.7448   20.8855   45.1236 H   0  0  0  0  0  0
  1  2  2  0  0  0
  1  3  1  0  0  0
  1  4  1  0  0  0
  1  5  1  0  0  0
  5  6  1  0  0  0
  6  7  1  0  0  0
  6  8  2  0  0  0
  6  9  1  0  0  0
  9 10  1  0  0  0
 10 11  1  0  0  0
 10 29  1  0  0  0
 10 30  1  0  0  0
 11 12  1  0  0  0
 11 13  1  0  0  0
 11 31  1  0  0  0
 12 17  1  0  0  0
 13 14  1  0  0  0
 13 15  1  0  0  0
 13 32  1  0  0  0
 14 33  1  0  0  0
 15 16  1  0  0  0
 15 17  1  0  0  0
 15 34  1  0  0  0
 16 35  1  0  0  0
 17 18  1  0  0  0
 17 36  1  0  0  0
 18 19  1  0  0  0
 18 28  1  0  0  0
 19 20  2  0  0  0
 19 37  1  0  0  0
 20 21  1  0  0  0
 21 22  1  0  0  0
 21 28  2  0  0  0
 22 23  2  0  0  0
 22 24  1  0  0  0
 24 25  1  0  0  0
 24 38  1  0  0  0
 25 26  1  0  0  0
 25 27  2  0  0  0
 26 39  1  0  0  0
 26 40  1  0  0  0
 27 28  1  0  0  0
M  CHG  3   3  -1   4  -1   7  -1
M  END
> <s_m_source_file>
../1tq4_ligand.sdf

> <i_m_source_file_index>
1

> <s_epik_input>
Tz1QKFtPSF0pKFtPSF0pT1tQQF0oPU8pKFtPSF0pT1tDSDJdW0NASF0xT1tDQEhdKFtDQEhdKFtPSF0pW0NAQEhdMVtPSF0pbihbY0hdbjIpYyhjMjMpbmMoW05IMl0pW25IXWMzPU8=

> <s_epik_cmdline>
J2VwaWtfYXBwJywgJy1pbWFlJywgJ2xpZ2FuZF9wcm8ubWFlJywgJy1vbWFlJywgJ2xpZ2FuZF9wcmVwLm1hZScsICctbXMnLCAnMScsICctcGgnLCAnNycsICctcGh0JywgJzAuNScsICctbnQn

> <r_lp_tautomer_probability>
0.999940409345307

> <r_epik_Ionization_Penalty>
  0.1052

> <r_epik_Ionization_Penalty_Charging>
  0.1051

> <r_epik_Ionization_Penalty_Neutral>
  0.0001

> <r_epik_State_Penalty>
  0.0922

> <r_epik_Charging_Adjusted_Penalty>
0.197315167096652

> <i_epik_Tot_Q>
-3

> <i_epik_Tot_abs_Q>
3

> <s_epik_Chemistry_Notes>
This compound contains an acetal/aminal-like group ( X-CH(R)-Y where X, Y are N, S, or O) that may be acid/base labile, releasing an aldehyde.

$$$$
