1tqf_ligand
                    3D
 Schrodinger Suite 2020-3.
 75 77  0  0  1  0            999 V2000
   29.1450   47.9380   -1.4330 C   0  0  0  0  0  0
   29.6830   48.6860   -0.3040 C   0  0  0  0  0  0
   28.9440   48.9120    0.9340 C   0  0  0  0  0  0
   27.6110   48.3430    1.0500 C   0  0  0  0  0  0
   27.0730   47.5700   -0.0740 C   0  0  0  0  0  0
   27.8150   47.3690   -1.3180 C   0  0  0  0  0  0
   25.7840   45.3610    0.8680 S   0  0  0  0  0  0
   26.8070   44.5430   -0.0520 O   0  0  0  0  0  0
   24.4800   44.7680    0.7460 O   0  0  0  0  0  0
   26.3500   45.5060    2.1580 O   0  0  0  0  0  0
   25.7000   46.9510    0.0570 C   0  0  0  0  0  0
   27.9080   43.9220    0.5350 C   0  0  0  0  0  0
   27.9110   42.4880    0.5710 C   0  0  0  0  0  0
   29.0410   41.7640    1.0760 C   0  0  0  0  0  0
   30.1700   42.5090    1.5700 C   0  0  0  0  0  0
   30.1950   43.9430    1.5680 C   0  0  0  0  0  0
   29.0560   44.6430    1.0390 C   0  0  0  0  0  0
   28.9570   40.3800    0.9750 O   0  0  0  0  0  0
   31.3560   44.7110    2.0600 C   0  0  0  0  0  0
   29.8550   39.4890    1.6800 C   0  0  0  0  0  0
   31.2210   39.4660    1.0150 C   0  0  0  0  0  0
   32.1790   38.9480    1.8100 N   0  0  0  0  0  0
   31.3680   39.8700   -0.1400 O   0  0  0  0  0  0
   32.0960   44.1180    3.0160 N   0  0  0  0  0  0
   31.6650   45.8270    1.6380 O   0  0  0  0  0  0
   33.1220   44.8870    3.7140 C   0  0  2  0  0  0
   34.3680   44.0050    3.8410 C   0  0  0  0  0  0
   34.6720   41.2220    0.1430 C   0  0  0  0  0  0
   34.3900   41.0360    1.6310 C   0  0  0  0  0  0
   34.5560   39.5900    2.0620 C   0  0  0  0  0  0
   33.5440   38.6830    1.3730 C   0  0  0  0  0  0
   34.7350   42.7940   -1.7160 N   0  3  0  0  0  0
   34.4590   42.6720   -0.2750 C   0  0  0  0  0  0
   32.2830   44.4750    6.1330 C   0  0  0  0  0  0
   32.6680   45.3850    5.0380 C   0  0  0  0  0  0
   32.6390   46.8350    5.1450 C   0  0  0  0  0  0
   32.2320   47.4130    6.3880 C   0  0  0  0  0  0
   31.9080   46.5040    7.4680 C   0  0  0  0  0  0
   31.9150   45.0580    7.3940 C   0  0  0  0  0  0
   31.5670   47.0590    8.6200 F   0  0  0  0  0  0
   29.7290   47.8087   -2.3442 H   0  0  0  0  0  0
   30.6887   49.0977   -0.3885 H   0  0  0  0  0  0
   29.3790   49.4910    1.7486 H   0  0  0  0  0  0
   27.0224   48.4884    1.9558 H   0  0  0  0  0  0
   27.3783   46.8038   -2.1414 H   0  0  0  0  0  0
   25.0539   47.6144    0.6507 H   0  0  0  0  0  0
   25.2632   46.8126   -0.9430 H   0  0  0  0  0  0
   27.0409   41.9403    0.2089 H   0  0  0  0  0  0
   31.0322   41.9663    1.9574 H   0  0  0  0  0  0
   29.0577   45.7328    1.0175 H   0  0  0  0  0  0
   29.9712   39.8320    2.7187 H   0  0  0  0  0  0
   29.4399   38.4703    1.6745 H   0  0  0  0  0  0
   31.8792   38.7234    2.8443 H   0  0  0  0  0  0
   31.9314   43.0610    3.2722 H   0  0  0  0  0  0
   33.3063   45.7950    3.1210 H   0  0  0  0  0  0
   34.6735   43.6562    2.8435 H   0  0  0  0  0  0
   34.1402   43.1382    4.4787 H   0  0  0  0  0  0
   35.1850   44.5873    4.2919 H   0  0  0  0  0  0
   35.7143   40.9424   -0.0704 H   0  0  0  0  0  0
   33.9939   40.5828   -0.4414 H   0  0  0  0  0  0
   35.0883   41.6523    2.2163 H   0  0  0  0  0  0
   33.3570   41.3443    1.8498 H   0  0  0  0  0  0
   35.5674   39.2439    1.8025 H   0  0  0  0  0  0
   34.4097   39.5124    3.1495 H   0  0  0  0  0  0
   33.8071   37.6403    1.6043 H   0  0  0  0  0  0
   33.6204   38.8484    0.2882 H   0  0  0  0  0  0
   34.5848   43.8372   -2.0311 H   0  0  0  0  0  0
   34.0516   42.1395   -2.2769 H   0  0  0  0  0  0
   35.7748   42.4965   -1.9166 H   0  0  0  0  0  0
   33.4189   42.9642   -0.0680 H   0  0  0  0  0  0
   35.1421   43.3213    0.2923 H   0  0  0  0  0  0
   32.2777   43.3944    5.9903 H   0  0  0  0  0  0
   32.9199   47.4643    4.3005 H   0  0  0  0  0  0
   32.1682   48.4934    6.5174 H   0  0  0  0  0  0
   31.6536   44.4410    8.2537 H   0  0  0  0  0  0
  1  2  2  0  0  0
  1  6  1  0  0  0
  1 41  1  0  0  0
  2  3  1  0  0  0
  2 42  1  0  0  0
  3  4  2  0  0  0
  3 43  1  0  0  0
  4  5  1  0  0  0
  4 44  1  0  0  0
  5  6  2  0  0  0
  5 11  1  0  0  0
  6 45  1  0  0  0
  7  8  1  0  0  0
  7  9  2  0  0  0
  7 10  2  0  0  0
  7 11  1  0  0  0
  8 12  1  0  0  0
 11 46  1  0  0  0
 11 47  1  0  0  0
 12 13  2  0  0  0
 12 17  1  0  0  0
 13 14  1  0  0  0
 13 48  1  0  0  0
 14 15  2  0  0  0
 14 18  1  0  0  0
 15 16  1  0  0  0
 15 49  1  0  0  0
 16 17  2  0  0  0
 16 19  1  0  0  0
 17 50  1  0  0  0
 18 20  1  0  0  0
 19 24  1  0  0  0
 19 25  2  0  0  0
 20 21  1  0  0  0
 20 51  1  0  0  0
 20 52  1  0  0  0
 21 22  1  0  0  0
 21 23  2  0  0  0
 22 31  1  0  0  0
 22 53  1  0  0  0
 24 26  1  0  0  0
 24 54  1  0  0  0
 26 27  1  0  0  0
 26 35  1  0  0  0
 26 55  1  0  0  0
 27 56  1  0  0  0
 27 57  1  0  0  0
 27 58  1  0  0  0
 28 29  1  0  0  0
 28 33  1  0  0  0
 28 59  1  0  0  0
 28 60  1  0  0  0
 29 30  1  0  0  0
 29 61  1  0  0  0
 29 62  1  0  0  0
 30 31  1  0  0  0
 30 63  1  0  0  0
 30 64  1  0  0  0
 31 65  1  0  0  0
 31 66  1  0  0  0
 32 33  1  0  0  0
 32 67  1  0  0  0
 32 68  1  0  0  0
 32 69  1  0  0  0
 33 70  1  0  0  0
 33 71  1  0  0  0
 34 35  2  0  0  0
 34 39  1  0  0  0
 34 72  1  0  0  0
 35 36  1  0  0  0
 36 37  2  0  0  0
 36 73  1  0  0  0
 37 38  1  0  0  0
 37 74  1  0  0  0
 38 39  2  0  0  0
 38 40  1  0  0  0
 39 75  1  0  0  0
M  CHG  1  32   1
M  END
> <s_m_source_file>
../1tqf_ligand.sdf

> <i_m_source_file_index>
1

> <s_epik_input>
W2NIXTFbY0hdW2NIXVtjSF1bY0hdYzFbQ0gyXVMoPU8pKD1PKU9jMltjSF1jKE9bQ0gyXUMoPU8pW05IXVtDSDJdW0NIMl1bQ0gyXVtDSDJdW0NIMl1bTkgzK10pW2NIXWMoW2NIXTIpQyg9TylbTkhdW0NASF0oW0NIM10pYzNbY0hdW2NIXWMoRilbY0hdW2NIXTM=

> <s_epik_cmdline>
J2VwaWtfYXBwJywgJy1pbWFlJywgJ2xpZ2FuZF9wcm8ubWFlJywgJy1vbWFlJywgJ2xpZ2FuZF9wcmVwLm1hZScsICctbXMnLCAnMScsICctcGgnLCAnNycsICctcGh0JywgJzAuNScsICctbnQn

> <r_lp_tautomer_probability>
1

> <r_epik_Ionization_Penalty>
  0.0004

> <r_epik_Ionization_Penalty_Charging>
  0.0004

> <r_epik_Ionization_Penalty_Neutral>
  0.0000

> <r_epik_State_Penalty>
 -0.0000

> <r_epik_Charging_Adjusted_Penalty>
0.000399205729332686

> <i_epik_Tot_Q>
1

> <i_epik_Tot_abs_Q>
1

$$$$
