1tr7_ligand
                    3D
 Schrodinger Suite 2020-3.
 36 36  0  0  1  0            999 V2000
   58.0940  -14.4700   24.7120 C   0  0  0  0  0  0
   59.2250  -15.3800   25.1340 C   0  0  0  0  0  0
   55.6010  -14.3180   24.8530 C   0  0  0  0  0  0
   56.7940  -15.2440   24.8400 C   0  0  0  0  0  0
   54.0600  -12.7260   22.0770 C   0  0  1  0  0  0
   52.7820  -12.1400   21.9760 O   0  0  0  0  0  0
   55.1590  -11.8420   21.4420 C   0  0  1  0  0  0
   54.8130  -11.5920   20.0880 O   0  0  0  0  0  0
   55.3300  -10.5400   22.2530 C   0  0  2  0  0  0
   56.3750   -9.7720   21.6700 O   0  0  0  0  0  0
   55.5940  -10.7870   23.7750 C   0  0  2  0  0  0
   54.6440  -11.6660   24.4100 O   0  0  0  0  0  0
   55.5820   -9.5120   24.5910 C   0  0  0  0  0  0
   54.3100   -8.8470   24.4620 O   0  0  0  0  0  0
   55.5360  -13.6260   23.6130 O   0  0  0  0  0  0
   54.4120  -12.7620   23.5360 C   0  0  2  0  0  0
   58.0736  -13.5840   25.3636 H   0  0  0  0  0  0
   58.2466  -14.1547   23.6692 H   0  0  0  0  0  0
   60.1802  -14.8409   25.0499 H   0  0  0  0  0  0
   59.2454  -16.2660   24.4824 H   0  0  0  0  0  0
   59.0724  -15.6952   26.1768 H   0  0  0  0  0  0
   54.6824  -14.9056   24.9975 H   0  0  0  0  0  0
   55.7070  -13.5950   25.6752 H   0  0  0  0  0  0
   56.6921  -15.9329   23.9885 H   0  0  0  0  0  0
   56.8002  -15.8187   25.7779 H   0  0  0  0  0  0
   53.9422  -13.7026   21.5846 H   0  0  0  0  0  0
   52.3137  -12.0085   20.9894 H   0  0  0  0  0  0
   56.1312  -12.3518   21.3718 H   0  0  0  0  0  0
   54.6601  -12.4326   19.3952 H   0  0  0  0  0  0
   54.4269   -9.9202   22.1514 H   0  0  0  0  0  0
   56.3366   -9.5124   20.6018 H   0  0  0  0  0  0
   56.5669  -11.2972   23.8313 H   0  0  0  0  0  0
   55.7552   -9.7530   25.6502 H   0  0  0  0  0  0
   56.3761   -8.8402   24.2332 H   0  0  0  0  0  0
   54.1280   -7.9004   24.9920 H   0  0  0  0  0  0
   53.4572  -13.0169   24.0191 H   0  0  0  0  0  0
  1  2  1  0  0  0
  1  4  1  0  0  0
  1 17  1  0  0  0
  1 18  1  0  0  0
  2 19  1  0  0  0
  2 20  1  0  0  0
  2 21  1  0  0  0
  3  4  1  0  0  0
  3 15  1  0  0  0
  3 22  1  0  0  0
  3 23  1  0  0  0
  4 24  1  0  0  0
  4 25  1  0  0  0
  5  6  1  0  0  0
  5  7  1  0  0  0
  5 16  1  0  0  0
  5 26  1  0  0  0
  6 27  1  0  0  0
  7  8  1  0  0  0
  7  9  1  0  0  0
  7 28  1  0  0  0
  8 29  1  0  0  0
  9 10  1  0  0  0
  9 11  1  0  0  0
  9 30  1  0  0  0
 10 31  1  0  0  0
 11 12  1  0  0  0
 11 13  1  0  0  0
 11 32  1  0  0  0
 12 16  1  0  0  0
 13 14  1  0  0  0
 13 33  1  0  0  0
 13 34  1  0  0  0
 14 35  1  0  0  0
 15 16  1  0  0  0
 16 36  1  0  0  0
M  END
> <s_m_source_file>
../1tr7_ligand.sdf

> <i_m_source_file_index>
1

> <s_epik_input>
W0NIM11bQ0gyXVtDSDJdW0NIMl1PW0NASF0xT1tDQEhdKFtDSDJdW09IXSlbQ0BASF0oW09IXSlbQ0BIXShbT0hdKVtDQEBIXTFbT0hd

> <s_epik_cmdline>
J2VwaWtfYXBwJywgJy1pbWFlJywgJ2xpZ2FuZF9wcm8ubWFlJywgJy1vbWFlJywgJ2xpZ2FuZF9wcmVwLm1hZScsICctbXMnLCAnMScsICctcGgnLCAnNycsICctcGh0JywgJzAuNScsICctbnQn

> <r_lp_tautomer_probability>
1

> <r_epik_Ionization_Penalty>
  0.0000

> <r_epik_Ionization_Penalty_Charging>
  0.0000

> <r_epik_Ionization_Penalty_Neutral>
  0.0000

> <r_epik_State_Penalty>
 -0.0000

> <r_epik_Charging_Adjusted_Penalty>
0

> <i_epik_Tot_Q>
0

> <i_epik_Tot_abs_Q>
0

> <s_epik_Chemistry_Notes>
This compound contains an acetal/aminal-like group ( X-CH(R)-Y where X, Y are N, S, or O) that may be acid/base labile, releasing an aldehyde.

$$$$
