1trd_ligand
                    3D
 Schrodinger Suite 2020-3.
 14 13  0  0  1  0            999 V2000
    5.5290  -23.8010  -16.5380 C   0  0  0  0  0  0
    6.6220  -23.2920  -17.4190 C   0  0  0  0  0  0
    4.3230  -23.2400  -16.9160 N   0  0  0  0  0  0
    3.3800  -23.2260  -16.0600 O   0  0  0  0  0  0
    5.7270  -24.6640  -15.6010 O   0  0  0  0  0  0
    7.9420  -23.3230  -16.8780 O   0  0  0  0  0  0
   10.4930  -22.8840  -16.8370 O   0  5  0  0  0  0
    9.5040  -24.7050  -18.2960 O   0  0  0  0  0  0
    9.1450  -22.2780  -18.8980 O   0  5  0  0  0  0
    9.2890  -23.2910  -17.7190 P   0  0  0  0  0  0
    6.6604  -23.8925  -18.3398 H   0  0  0  0  0  0
    6.4267  -22.2402  -17.6751 H   0  0  0  0  0  0
    4.1629  -22.8146  -17.9177 H   0  0  0  0  0  0
    2.4054  -22.7885  -16.3224 H   0  0  0  0  0  0
  1  5  2  0  0  0
  1  3  1  0  0  0
  1  2  1  0  0  0
  2  6  1  0  0  0
  2 11  1  0  0  0
  2 12  1  0  0  0
  3  4  1  0  0  0
  3 13  1  0  0  0
  4 14  1  0  0  0
  6 10  1  0  0  0
  7 10  1  0  0  0
  8 10  2  0  0  0
  9 10  1  0  0  0
M  CHG  2   7  -1   9  -1
M  END
> <s_m_source_file>
../1trd_ligand.sdf

> <i_m_source_file_index>
1

> <s_epik_input>
W09IXVtOSF1DKD1PKVtDSDJdT1AoPU8pKFtPSF0pW09IXQ==

> <s_epik_cmdline>
J2VwaWtfYXBwJywgJy1pbWFlJywgJ2xpZ2FuZF9wcm8ubWFlJywgJy1vbWFlJywgJ2xpZ2FuZF9wcmVwLm1hZScsICctbXMnLCAnMScsICctcGgnLCAnNycsICctcGh0JywgJzAuNScsICctbnQn

> <r_lp_tautomer_probability>
1

> <r_epik_Ionization_Penalty>
  0.1051

> <r_epik_Ionization_Penalty_Charging>
  0.0952

> <r_epik_Ionization_Penalty_Neutral>
  0.0099

> <r_epik_State_Penalty>
 -0.0000

> <r_epik_Charging_Adjusted_Penalty>
0.0952146890399759

> <i_epik_Tot_Q>
-2

> <i_epik_Tot_abs_Q>
2

> <s_epik_Chemistry_Notes>
This compound has a N-S or N-O group and may undergo hydrolysis at high or low pH.

$$$$
