1tt1_ligand
                    3D
 Schrodinger Suite 2020-3.
 29 29  0  0  1  0            999 V2000
    2.1690    0.5040   24.1980 N   0  3  0  0  0  0
    0.8890    0.0040   24.8850 C   0  0  0  0  0  0
   -0.9750   -0.0870   27.1820 C   0  0  0  0  0  0
    0.7020   -0.2880   28.9520 C   0  0  0  0  0  0
    3.1870    0.7010   25.2160 C   0  0  1  0  0  0
    2.4360    0.9210   26.5050 C   0  0  1  0  0  0
    1.8050    2.3820   26.7350 C   0  0  0  0  0  0
    1.3620   -0.1190   26.4070 C   0  0  1  0  0  0
    2.8530    3.3780   27.2490 C   0  0  0  0  0  0
    0.2610   -0.1620   27.5430 C   0  0  0  0  0  0
    4.2550   -0.4590   25.2630 C   0  0  0  0  0  0
    4.3490   -1.1400   24.2180 O   0  0  0  0  0  0
    2.4780    4.5590   27.2590 O   0  0  0  0  0  0
    3.9750    2.9610   27.6130 O   0  5  0  0  0  0
    4.9320   -0.5650   26.3310 O   0  5  0  0  0  0
    2.5080   -0.2435   23.4657 H   0  0  0  0  0  0
    1.9619    1.4538   23.6833 H   0  0  0  0  0  0
    0.0839    0.7394   24.7402 H   0  0  0  0  0  0
    0.5893   -0.9590   24.4458 H   0  0  0  0  0  0
   -1.7719   -0.1133   27.9398 H   0  0  0  0  0  0
   -1.2322    0.0032   26.1163 H   0  0  0  0  0  0
   -0.1781   -0.3033   29.6117 H   0  0  0  0  0  0
    1.3417    0.5677   29.2139 H   0  0  0  0  0  0
    1.2697   -1.2219   29.0764 H   0  0  0  0  0  0
    3.7486    1.6119   24.9612 H   0  0  0  0  0  0
    3.1296    0.7749   27.3462 H   0  0  0  0  0  0
    1.4035    2.7618   25.7839 H   0  0  0  0  0  0
    0.9945    2.3189   27.4760 H   0  0  0  0  0  0
    1.7985   -1.0969   26.6584 H   0  0  0  0  0  0
  1  2  1  0  0  0
  1  5  1  0  0  0
  1 16  1  0  0  0
  1 17  1  0  0  0
  2  8  1  0  0  0
  2 18  1  0  0  0
  2 19  1  0  0  0
  3 10  2  0  0  0
  3 20  1  0  0  0
  3 21  1  0  0  0
  4 10  1  0  0  0
  4 22  1  0  0  0
  4 23  1  0  0  0
  4 24  1  0  0  0
  5  6  1  0  0  0
  5 11  1  0  0  0
  5 25  1  0  0  0
  6  7  1  0  0  0
  6  8  1  0  0  0
  6 26  1  0  0  0
  7  9  1  0  0  0
  7 27  1  0  0  0
  7 28  1  0  0  0
  8 10  1  0  0  0
  8 29  1  0  0  0
  9 13  2  0  0  0
  9 14  1  0  0  0
 11 12  2  0  0  0
 11 15  1  0  0  0
M  CHG  3   1   1  14  -1  15  -1
M  END
> <s_m_source_file>
../1tt1_ligand.sdf

> <i_m_source_file_index>
1

> <s_epik_input>
Tz1DKFtPSF0pW0NASF0xW05IMitdW0NIMl1bQ0BIXShDKD1bQ0gyXSlbQ0gzXSlbQ0BASF0xW0NIMl1DKD1PKVtPSF0=

> <s_epik_cmdline>
J2VwaWtfYXBwJywgJy1pbWFlJywgJ2xpZ2FuZF9wcm8ubWFlJywgJy1vbWFlJywgJ2xpZ2FuZF9wcmVwLm1hZScsICctbXMnLCAnMScsICctcGgnLCAnNycsICctcGh0JywgJzAuNScsICctbnQn

> <r_lp_tautomer_probability>
1

> <r_epik_Ionization_Penalty>
  0.0030

> <r_epik_Ionization_Penalty_Charging>
  0.0030

> <r_epik_Ionization_Penalty_Neutral>
  0.0000

> <r_epik_State_Penalty>
 -0.0000

> <r_epik_Charging_Adjusted_Penalty>
0.00304691195441348

> <i_epik_Tot_Q>
-1

> <i_epik_Tot_abs_Q>
3

$$$$
