1ttv_ligand
                    3D
 Schrodinger Suite 2020-3.
 56 59  0  0  1  0            999 V2000
    0.6440  -11.1960   -5.4440 C   0  0  0  0  0  0
    1.4240  -10.4670   -4.6570 N   0  3  0  0  0  0
    0.9760   -9.0420   -4.7240 C   0  0  1  0  0  0
    0.3060   -9.0460   -6.1420 C   0  0  1  0  0  0
   -0.0990  -10.4510   -6.2610 N   0  0  0  0  0  0
    0.0450   -8.6670   -3.5810 C   0  0  0  0  0  0
   -0.1620   -7.3100   -3.2830 C   0  0  0  0  0  0
   -1.0920   -6.9200   -2.3140 C   0  0  0  0  0  0
   -1.8440   -7.8730   -1.6480 C   0  0  0  0  0  0
   -1.6230   -9.2170   -1.8970 C   0  0  0  0  0  0
   -0.6870   -9.6190   -2.8480 C   0  0  0  0  0  0
   -3.0400   -7.3960   -0.5130 Cl  0  0  0  0  0  0
   -0.5060   -6.7760   -6.8770 C   0  0  0  0  0  0
   -1.5120   -5.8680   -7.2050 C   0  0  0  0  0  0
   -2.8440   -6.2600   -7.1470 C   0  0  0  0  0  0
   -3.1760   -7.5540   -6.7660 C   0  0  0  0  0  0
   -2.1670   -8.4790   -6.4940 C   0  0  0  0  0  0
   -0.8130   -8.1000   -6.5120 C   0  0  0  0  0  0
   -4.0870   -5.1490   -7.5540 Cl  0  0  0  0  0  0
    0.6430  -14.9250   -4.6430 C   0  0  0  0  0  0
    0.9600  -13.5570   -4.5360 C   0  0  0  0  0  0
    0.4930  -12.6590   -5.5200 C   0  0  0  0  0  0
   -0.2700  -13.1740   -6.5940 C   0  0  0  0  0  0
   -0.5780  -14.5280   -6.6860 C   0  0  0  0  0  0
   -0.1260  -15.4060   -5.7020 C   0  0  0  0  0  0
    1.7060  -13.0230   -3.4890 O   0  0  0  0  0  0
    1.8230  -13.7690   -2.2520 C   0  0  0  0  0  0
    2.3360  -12.8770   -1.1200 C   0  0  0  0  0  0
    0.4270  -14.2710   -1.9010 C   0  0  0  0  0  0
   -0.4060  -16.7630   -5.6500 O   0  0  0  0  0  0
   -0.8740  -17.3610   -6.8650 C   0  0  0  0  0  0
    1.7808   -8.3063   -4.5788 H   0  0  0  0  0  0
    1.0063   -8.6729   -6.9038 H   0  0  0  0  0  0
   -0.9066  -10.7339   -6.9522 H   0  0  0  0  0  0
    0.4105   -6.5499   -3.8147 H   0  0  0  0  0  0
   -1.2252   -5.8632   -2.0825 H   0  0  0  0  0  0
   -2.1867   -9.9681   -1.3437 H   0  0  0  0  0  0
   -0.5204  -10.6814   -3.0257 H   0  0  0  0  0  0
    0.5353   -6.4551   -6.9037 H   0  0  0  0  0  0
   -1.2542   -4.8527   -7.5063 H   0  0  0  0  0  0
   -4.2225   -7.8463   -6.6797 H   0  0  0  0  0  0
   -2.4325   -9.5109   -6.2641 H   0  0  0  0  0  0
    1.0050  -15.6196   -3.8850 H   0  0  0  0  0  0
   -0.6253  -12.4939   -7.3682 H   0  0  0  0  0  0
   -1.1693  -14.8999   -7.5227 H   0  0  0  0  0  0
    2.5404  -14.5840   -2.4285 H   0  0  0  0  0  0
    3.3435  -12.5121   -1.3686 H   0  0  0  0  0  0
    2.3761  -13.4566   -0.1860 H   0  0  0  0  0  0
    1.6573  -12.0209   -0.9915 H   0  0  0  0  0  0
    0.0536  -14.9132   -2.7123 H   0  0  0  0  0  0
   -0.2493  -13.4132   -1.7715 H   0  0  0  0  0  0
    0.4695  -14.8489   -0.9660 H   0  0  0  0  0  0
   -1.0601  -18.4323   -6.6984 H   0  0  0  0  0  0
   -0.1136  -17.2387   -7.6504 H   0  0  0  0  0  0
   -1.8075  -16.8711   -7.1789 H   0  0  0  0  0  0
    2.2387  -10.9458   -4.0940 H   0  0  0  0  0  0
  1  2  2  0  0  0
  1  5  1  0  0  0
  1 22  1  0  0  0
  2  3  1  0  0  0
  2 56  1  0  0  0
  3  4  1  0  0  0
  3  6  1  0  0  0
  3 32  1  0  0  0
  4  5  1  0  0  0
  4 18  1  0  0  0
  4 33  1  0  0  0
  5 34  1  0  0  0
  6  7  2  0  0  0
  6 11  1  0  0  0
  7  8  1  0  0  0
  7 35  1  0  0  0
  8  9  2  0  0  0
  8 36  1  0  0  0
  9 10  1  0  0  0
  9 12  1  0  0  0
 10 11  2  0  0  0
 10 37  1  0  0  0
 11 38  1  0  0  0
 13 14  2  0  0  0
 13 18  1  0  0  0
 13 39  1  0  0  0
 14 15  1  0  0  0
 14 40  1  0  0  0
 15 16  2  0  0  0
 15 19  1  0  0  0
 16 17  1  0  0  0
 16 41  1  0  0  0
 17 18  2  0  0  0
 17 42  1  0  0  0
 20 21  2  0  0  0
 20 25  1  0  0  0
 20 43  1  0  0  0
 21 22  1  0  0  0
 21 26  1  0  0  0
 22 23  2  0  0  0
 23 24  1  0  0  0
 23 44  1  0  0  0
 24 25  2  0  0  0
 24 45  1  0  0  0
 25 30  1  0  0  0
 26 27  1  0  0  0
 27 28  1  0  0  0
 27 29  1  0  0  0
 27 46  1  0  0  0
 28 47  1  0  0  0
 28 48  1  0  0  0
 28 49  1  0  0  0
 29 50  1  0  0  0
 29 51  1  0  0  0
 29 52  1  0  0  0
 30 31  1  0  0  0
 31 53  1  0  0  0
 31 54  1  0  0  0
 31 55  1  0  0  0
M  CHG  1   2   1
M  END
> <s_m_source_file>
../1ttv_ligand.sdf

> <i_m_source_file_index>
1

> <s_epik_input>
W2NIXTFbY0hdYyhDbClbY0hdW2NIXWMxW0NASF0oW0NAQEhdKFtOSF0yKWMoW2NIXVtjSF0zKVtjSF1bY0hdYzNDbClOPUMyYzRbY0hdW2NIXWMoT1tDSDNdKVtjSF1jNE9bQ0hdKFtDSDNdKVtDSDNd

> <s_epik_cmdline>
J2VwaWtfYXBwJywgJy1pbWFlJywgJ2xpZ2FuZF9wcm8ubWFlJywgJy1vbWFlJywgJ2xpZ2FuZF9wcmVwLm1hZScsICctbXMnLCAnMScsICctcGgnLCAnNycsICctcGh0JywgJzAuNScsICctbnQn

> <r_lp_tautomer_probability>
1

> <r_epik_Ionization_Penalty>
  0.0302

> <r_epik_Ionization_Penalty_Charging>
  0.0302

> <r_epik_Ionization_Penalty_Neutral>
  0.0000

> <r_epik_State_Penalty>
  0.0249

> <r_epik_Charging_Adjusted_Penalty>
0.0551379129967025

> <i_epik_Tot_Q>
1

> <i_epik_Tot_abs_Q>
1

> <s_epik_Chemistry_Notes>
This compound has an imine and may undergo hydrolysis.

$$$$
