1tu6_ligand
                    3D
 Schrodinger Suite 2020-3.
 62 64  0  0  1  0            999 V2000
   58.8930  -76.4580  142.0490 C   0  0  0  0  0  0
   58.1060  -75.4250  142.9000 C   0  0  0  0  0  0
   58.4740  -75.5790  144.3850 C   0  0  0  0  0  0
   60.0060  -75.5190  144.5440 C   0  0  0  0  0  0
   60.4470  -75.4470  146.0620 C   0  0  2  0  0  0
   59.5100  -74.6350  146.7770 N   0  0  0  0  0  0
   58.9070  -75.1030  147.8670 C   0  0  0  0  0  0
   58.8110  -76.3180  148.0480 O   0  0  0  0  0  0
   58.4440  -74.2650  148.7330 O   0  0  0  0  0  0
   57.6960  -74.8740  149.7560 C   0  0  0  0  0  0
   56.7050  -73.8480  150.2680 C   0  0  0  0  0  0
   55.6210  -73.4330  149.2050 C   0  0  0  0  0  0
   55.0750  -74.6610  148.4890 C   0  0  0  0  0  0
   55.3460  -74.8540  147.1460 C   0  0  0  0  0  0
   54.8510  -75.9710  146.4920 C   0  0  0  0  0  0
   54.0850  -76.8900  147.1780 C   0  0  0  0  0  0
   53.6080  -77.9670  146.5440 F   0  0  0  0  0  0
   53.8100  -76.7010  148.5260 C   0  0  0  0  0  0
   54.3000  -75.5900  149.1800 C   0  0  0  0  0  0
   56.1170  -74.2210  151.6250 C   0  0  0  0  0  0
   56.8490  -73.0330  152.2570 C   0  0  0  0  0  0
   57.4120  -72.6440  150.8690 C   0  0  0  0  0  0
   62.8470  -75.3900  145.1720 C   0  0  0  0  0  0
   63.0330  -76.6040  145.2030 O   0  0  0  0  0  0
   63.5180  -74.6080  144.3000 N   0  0  0  0  0  0
   64.1880  -75.1430  143.2440 C   0  0  0  0  0  0
   63.5900  -75.7300  142.1670 C   0  0  0  0  0  0
   64.5960  -76.1330  141.3410 C   0  0  0  0  0  0
   65.8060  -75.7760  141.9430 N   0  0  0  0  0  0
   65.5490  -75.1540  143.1370 N   0  0  0  0  0  0
   61.7910  -74.7360  146.0540 C   0  0  1  0  0  0
   61.8630  -73.4250  146.2750 O   0  0  0  0  0  0
   58.6238  -76.3408  140.9889 H   0  0  0  0  0  0
   58.6399  -77.4756  142.3813 H   0  0  0  0  0  0
   59.9728  -76.2894  142.1740 H   0  0  0  0  0  0
   58.3591  -74.4074  142.5677 H   0  0  0  0  0  0
   57.0262  -75.5936  142.7750 H   0  0  0  0  0  0
   58.0133  -74.7645  144.9633 H   0  0  0  0  0  0
   58.1046  -76.5465  144.7559 H   0  0  0  0  0  0
   60.4562  -76.4190  144.0997 H   0  0  0  0  0  0
   60.3930  -74.6250  144.0330 H   0  0  0  0  0  0
   60.4695  -76.4070  146.5986 H   0  0  0  0  0  0
   59.2843  -73.6171  146.4263 H   0  0  0  0  0  0
   57.1679  -75.7504  149.3521 H   0  0  0  0  0  0
   58.3711  -75.1929  150.5638 H   0  0  0  0  0  0
   54.7913  -72.9165  149.7098 H   0  0  0  0  0  0
   56.0744  -72.7598  148.4626 H   0  0  0  0  0  0
   55.9492  -74.1271  146.6021 H   0  0  0  0  0  0
   55.0672  -76.1233  145.4346 H   0  0  0  0  0  0
   53.2071  -77.4304  149.0670 H   0  0  0  0  0  0
   54.0810  -75.4388  150.2370 H   0  0  0  0  0  0
   55.0189  -74.1872  151.5705 H   0  0  0  0  0  0
   56.4395  -75.2367  151.8977 H   0  0  0  0  0  0
   56.1174  -72.3598  152.7276 H   0  0  0  0  0  0
   57.5531  -73.3992  153.0186 H   0  0  0  0  0  0
   58.4953  -72.7328  150.6998 H   0  0  0  0  0  0
   57.0406  -71.7249  150.3922 H   0  0  0  0  0  0
   63.5298  -73.5166  144.4365 H   0  0  0  0  0  0
   62.4931  -75.7934  142.1137 H   0  0  0  0  0  0
   64.4785  -76.6416  140.3841 H   0  0  0  0  0  0
   62.1354  -74.6499  147.0951 H   0  0  0  0  0  0
   61.1111  -72.9320  146.9087 H   0  0  0  0  0  0
  1  2  1  0  0  0
  1 33  1  0  0  0
  1 34  1  0  0  0
  1 35  1  0  0  0
  2  3  1  0  0  0
  2 36  1  0  0  0
  2 37  1  0  0  0
  3  4  1  0  0  0
  3 38  1  0  0  0
  3 39  1  0  0  0
  4  5  1  0  0  0
  4 40  1  0  0  0
  4 41  1  0  0  0
  5  6  1  0  0  0
  5 31  1  0  0  0
  5 42  1  0  0  0
  6  7  1  0  0  0
  6 43  1  0  0  0
  7  8  2  0  0  0
  7  9  1  0  0  0
  9 10  1  0  0  0
 10 11  1  0  0  0
 10 44  1  0  0  0
 10 45  1  0  0  0
 11 12  1  0  0  0
 11 20  1  0  0  0
 11 22  1  0  0  0
 12 13  1  0  0  0
 12 46  1  0  0  0
 12 47  1  0  0  0
 13 14  2  0  0  0
 13 19  1  0  0  0
 14 15  1  0  0  0
 14 48  1  0  0  0
 15 16  2  0  0  0
 15 49  1  0  0  0
 16 17  1  0  0  0
 16 18  1  0  0  0
 18 19  2  0  0  0
 18 50  1  0  0  0
 19 51  1  0  0  0
 20 21  1  0  0  0
 20 52  1  0  0  0
 20 53  1  0  0  0
 21 22  1  0  0  0
 21 54  1  0  0  0
 21 55  1  0  0  0
 22 56  1  0  0  0
 22 57  1  0  0  0
 23 24  2  0  0  0
 23 25  1  0  0  0
 23 31  1  0  0  0
 25 26  1  0  0  0
 25 58  1  0  0  0
 26 27  2  0  0  0
 26 30  1  0  0  0
 27 28  1  0  0  0
 27 59  1  0  0  0
 28 29  1  0  0  0
 28 60  1  0  0  0
 29 30  2  0  0  0
 31 32  1  0  0  0
 31 61  1  0  0  0
 32 62  1  0  0  0
M  END
> <s_m_source_file>
../1tu6_ligand.sdf

> <i_m_source_file_index>
1

> <s_epik_input>
TjE9TltDSDJdW0NIXT1DMVtOSF1DKD1PKVtDQEBIXShbT0hdKVtDQEhdKFtDSDJdW0NIMl1bQ0gyXVtDSDNdKVtOSF1DKD1PKU9bQ0gyXUMyKFtDSDJdW0NIMl1bQ0gyXTIpW0NIMl1jM1tjSF1bY0hdYyhGKVtjSF1bY0hdMw==

> <s_epik_cmdline>
J2VwaWtfYXBwJywgJy1pbWFlJywgJ2xpZ2FuZF9wcm8ubWFlJywgJy1vbWFlJywgJ2xpZ2FuZF9wcmVwLm1hZScsICctbXMnLCAnMScsICctcGgnLCAnNycsICctcGh0JywgJzAuNScsICctbnQn

> <r_lp_tautomer_probability>
1

> <r_epik_Ionization_Penalty>
  0.0002

> <r_epik_Ionization_Penalty_Charging>
  0.0000

> <r_epik_Ionization_Penalty_Neutral>
  0.0002

> <r_epik_State_Penalty>
 -0.0000

> <r_epik_Charging_Adjusted_Penalty>
0

> <i_epik_Tot_Q>
0

> <i_epik_Tot_abs_Q>
0

> <s_epik_Chemistry_Notes>
This compound has an ester and may undergo hydrolysis at high or low pH.

$$$$
