1tv6_ligand
                    3D
 Schrodinger Suite 2020-3.
 43 47  0  0  1  0            999 V2000
  146.4450  -23.0100   76.4920 S   0  0  0  0  0  0
  145.2900  -24.2080   77.0790 C   0  0  0  0  0  0
  144.0180  -23.9100   76.5880 N   0  0  0  0  0  0
  143.9480  -22.7630   75.7770 C   0  0  0  0  0  0
  145.1990  -22.1430   75.6080 C   0  0  0  0  0  0
  145.3340  -20.9720   74.8220 C   0  0  0  0  0  0
  144.1860  -20.4470   74.1950 C   0  0  0  0  0  0
  142.9280  -21.0790   74.3600 C   0  0  0  0  0  0
  142.7890  -22.2350   75.1400 C   0  0  0  0  0  0
  142.8560  -24.7560   76.9410 C   0  0  0  0  0  0
  142.5260  -25.9390   76.0540 C   0  0  0  0  0  0
  142.9550  -27.2350   76.3120 C   0  0  0  0  0  0
  142.6080  -28.3110   75.4630 C   0  0  0  0  0  0
  141.8020  -28.0970   74.3040 C   0  0  0  0  0  0
  141.3680  -26.7730   74.0460 C   0  0  0  0  0  0
  141.7270  -25.7200   74.9120 C   0  0  0  0  0  0
  141.4120  -29.2370   73.3770 N   0  0  0  0  0  0
  140.6240  -29.2310   72.1610 C   0  0  0  0  0  0
  140.5010  -30.4240   71.6230 N   0  0  0  0  0  0
  141.1940  -31.2900   72.4430 C   0  0  0  0  0  0
  141.7840  -30.6120   73.5520 C   0  0  0  0  0  0
  142.5430  -31.3290   74.5230 C   0  0  0  0  0  0
  142.6680  -32.7120   74.2960 C   0  0  0  0  0  0
  142.1200  -33.3820   73.2420 N   0  0  0  0  0  0
  141.3960  -32.6770   72.3310 C   0  0  0  0  0  0
  139.9980  -28.0330   71.5290 C   0  0  0  0  0  0
  145.5900  -25.1500   77.8040 O   0  0  0  0  0  0
  146.3036  -20.4881   74.7048 H   0  0  0  0  0  0
  144.2660  -19.5505   73.5802 H   0  0  0  0  0  0
  142.0505  -20.6571   73.8700 H   0  0  0  0  0  0
  141.8186  -22.7176   75.2561 H   0  0  0  0  0  0
  143.0079  -25.1889   77.9408 H   0  0  0  0  0  0
  141.9428  -24.1428   76.9418 H   0  0  0  0  0  0
  143.5732  -27.4266   77.1890 H   0  0  0  0  0  0
  142.9600  -29.3159   75.6960 H   0  0  0  0  0  0
  140.7516  -26.5670   73.1709 H   0  0  0  0  0  0
  141.3783  -24.7106   74.6936 H   0  0  0  0  0  0
  142.9964  -30.8382   75.3842 H   0  0  0  0  0  0
  143.2459  -33.2911   75.0162 H   0  0  0  0  0  0
  140.9573  -33.2058   71.4849 H   0  0  0  0  0  0
  140.2196  -27.1414   72.1339 H   0  0  0  0  0  0
  138.9088  -28.1757   71.4716 H   0  0  0  0  0  0
  140.4041  -27.8988   70.5156 H   0  0  0  0  0  0
  1  2  1  0  0  0
  1  5  1  0  0  0
  2  3  1  0  0  0
  2 27  2  0  0  0
  3  4  1  0  0  0
  3 10  1  0  0  0
  4  5  2  0  0  0
  4  9  1  0  0  0
  5  6  1  0  0  0
  6  7  2  0  0  0
  6 28  1  0  0  0
  7  8  1  0  0  0
  7 29  1  0  0  0
  8  9  2  0  0  0
  8 30  1  0  0  0
  9 31  1  0  0  0
 10 11  1  0  0  0
 10 32  1  0  0  0
 10 33  1  0  0  0
 11 12  2  0  0  0
 11 16  1  0  0  0
 12 13  1  0  0  0
 12 34  1  0  0  0
 13 14  2  0  0  0
 13 35  1  0  0  0
 14 15  1  0  0  0
 14 17  1  0  0  0
 15 16  2  0  0  0
 15 36  1  0  0  0
 16 37  1  0  0  0
 17 18  1  0  0  0
 17 21  1  0  0  0
 18 19  2  0  0  0
 18 26  1  0  0  0
 19 20  1  0  0  0
 20 21  2  0  0  0
 20 25  1  0  0  0
 21 22  1  0  0  0
 22 23  2  0  0  0
 22 38  1  0  0  0
 23 24  1  0  0  0
 23 39  1  0  0  0
 24 25  2  0  0  0
 25 40  1  0  0  0
 26 41  1  0  0  0
 26 42  1  0  0  0
 26 43  1  0  0  0
M  END
> <s_m_source_file>
../1tv6_ligand.sdf

> <i_m_source_file_index>
1

> <s_epik_input>
W2NIXTFbY0hdW2NIXVtjSF1jKGMxMilzYyg9TyluMltDSDJdYzNbY0hdW2NIXWMoW2NIXVtjSF0zKS1uKGMobjQpW0NIM10pYyhjNDUpW2NIXVtjSF1uW2NIXTU=

> <s_epik_cmdline>
J2VwaWtfYXBwJywgJy1pbWFlJywgJ2xpZ2FuZF9wcm8ubWFlJywgJy1vbWFlJywgJ2xpZ2FuZF9wcmVwLm1hZScsICctbXMnLCAnMScsICctcGgnLCAnNycsICctcGh0JywgJzAuNScsICctbnQn

> <r_lp_tautomer_probability>
1

> <r_epik_Ionization_Penalty>
  0.2319

> <r_epik_Ionization_Penalty_Charging>
  0.2319

> <r_epik_Ionization_Penalty_Neutral>
  0.0000

> <r_epik_State_Penalty>
  0.2221

> <r_epik_Charging_Adjusted_Penalty>
0.454047866587491

> <i_epik_Tot_Q>
0

> <i_epik_Tot_abs_Q>
0

$$$$
