1tve_ligand
                    3D
 Schrodinger Suite 2020-3.
 43 44  0  0  1  0            999 V2000
   -4.8950   35.3630  -18.8670 O   0  0  0  0  0  0
   -4.0130   36.3900  -18.6150 C   0  0  0  0  0  0
   -2.6140   36.1520  -18.6410 C   0  0  0  0  0  0
   -2.0890   34.7780  -18.9420 C   0  0  0  0  0  0
   -1.2680   34.2700  -17.7680 C   0  0  0  0  0  0
   -1.2260   34.8190  -20.1880 C   0  0  0  0  0  0
   -1.7240   37.2080  -18.3830 C   0  0  0  0  0  0
   -2.2210   38.4950  -18.1020 C   0  0  0  0  0  0
   -3.6080   38.7270  -18.0770 C   0  0  0  0  0  0
   -4.5000   37.6850  -18.3320 C   0  0  0  0  0  0
   -1.1420   39.7700  -17.7890 S   0  0  0  0  0  0
    1.1630   38.1690  -12.6140 O   0  0  0  0  0  0
    0.6180   38.5440  -13.8210 C   0  0  0  0  0  0
   -0.7670   38.8270  -13.9230 C   0  0  0  0  0  0
   -1.6500   38.7190  -12.7130 C   0  0  0  0  0  0
   -2.3050   40.0610  -12.4330 C   0  0  0  0  0  0
   -2.7200   37.6700  -12.9470 C   0  0  0  0  0  0
   -1.3090   39.2080  -15.1590 C   0  0  0  0  0  0
   -0.4810   39.3080  -16.2930 C   0  0  0  0  0  0
    0.8930   39.0270  -16.1900 C   0  0  0  0  0  0
    1.4420   38.6470  -14.9660 C   0  0  0  0  0  0
   -4.5160   34.3542  -19.0875 H   0  0  0  0  0  0
   -2.9450   34.1081  -19.1111 H   0  0  0  0  0  0
   -1.8968   34.2415  -16.8659 H   0  0  0  0  0  0
   -0.4145   34.9430  -17.5989 H   0  0  0  0  0  0
   -0.8986   33.2579  -17.9896 H   0  0  0  0  0  0
   -1.8229   35.1870  -21.0355 H   0  0  0  0  0  0
   -0.8565   33.8073  -20.4115 H   0  0  0  0  0  0
   -0.3725   35.4925  -20.0208 H   0  0  0  0  0  0
   -0.6486   37.0309  -18.4004 H   0  0  0  0  0  0
   -3.9875   39.7249  -17.8575 H   0  0  0  0  0  0
   -5.5739   37.8706  -18.3128 H   0  0  0  0  0  0
    0.5231   38.0886  -11.7229 H   0  0  0  0  0  0
   -1.0290   38.4233  -11.8546 H   0  0  0  0  0  0
   -1.5273   40.8203  -12.2636 H   0  0  0  0  0  0
   -2.9393   39.9798  -11.5380 H   0  0  0  0  0  0
   -2.9225   40.3545  -13.2947 H   0  0  0  0  0  0
   -2.2438   36.6993  -13.1495 H   0  0  0  0  0  0
   -3.3377   37.9623  -13.8090 H   0  0  0  0  0  0
   -3.3545   37.5876  -12.0523 H   0  0  0  0  0  0
   -2.3735   39.4271  -15.2418 H   0  0  0  0  0  0
    1.5311   39.1065  -17.0701 H   0  0  0  0  0  0
    2.5074   38.4291  -14.8914 H   0  0  0  0  0  0
  1  2  1  0  0  0
  1 22  1  0  0  0
  2  3  2  0  0  0
  2 10  1  0  0  0
  3  4  1  0  0  0
  3  7  1  0  0  0
  4  5  1  0  0  0
  4  6  1  0  0  0
  4 23  1  0  0  0
  5 24  1  0  0  0
  5 25  1  0  0  0
  5 26  1  0  0  0
  6 27  1  0  0  0
  6 28  1  0  0  0
  6 29  1  0  0  0
  7  8  2  0  0  0
  7 30  1  0  0  0
  8  9  1  0  0  0
  8 11  1  0  0  0
  9 10  2  0  0  0
  9 31  1  0  0  0
 10 32  1  0  0  0
 11 19  1  0  0  0
 12 13  1  0  0  0
 12 33  1  0  0  0
 13 14  2  0  0  0
 13 21  1  0  0  0
 14 15  1  0  0  0
 14 18  1  0  0  0
 15 16  1  0  0  0
 15 17  1  0  0  0
 15 34  1  0  0  0
 16 35  1  0  0  0
 16 36  1  0  0  0
 16 37  1  0  0  0
 17 38  1  0  0  0
 17 39  1  0  0  0
 17 40  1  0  0  0
 18 19  2  0  0  0
 18 41  1  0  0  0
 19 20  1  0  0  0
 20 21  2  0  0  0
 20 42  1  0  0  0
 21 43  1  0  0  0
M  END
> <s_m_source_file>
../1tve_ligand.sdf

> <i_m_source_file_index>
1

> <s_epik_input>
W09IXWMxYyhbQ0hdKFtDSDNdKVtDSDNdKVtjSF1jKFtjSF1bY0hdMSlTYyhbY0hdW2NIXTIpW2NIXWMoYzJbT0hdKVtDSF0oW0NIM10pW0NIM10=

> <s_epik_cmdline>
J2VwaWtfYXBwJywgJy1pbWFlJywgJ2xpZ2FuZF9wcm8ubWFlJywgJy1vbWFlJywgJ2xpZ2FuZF9wcmVwLm1hZScsICctbXMnLCAnMScsICctcGgnLCAnNycsICctcGh0JywgJzAuNScsICctbnQn

> <r_lp_tautomer_probability>
1

> <r_epik_Ionization_Penalty>
  0.0009

> <r_epik_Ionization_Penalty_Charging>
  0.0000

> <r_epik_Ionization_Penalty_Neutral>
  0.0009

> <r_epik_State_Penalty>
 -0.0000

> <r_epik_Charging_Adjusted_Penalty>
0

> <i_epik_Tot_Q>
0

> <i_epik_Tot_abs_Q>
0

$$$$
