1tvo_ligand
                    3D
 Schrodinger Suite 2020-3.
 38 42  0  0  1  0            999 V2000
   11.5040   -5.7240   14.4460 C   0  0  0  0  0  0
   11.1560   -5.2580   15.7780 C   0  0  0  0  0  0
    9.8050   -4.9890   16.0940 N   0  0  0  0  0  0
    8.7110   -5.1280   15.2100 C   0  0  0  0  0  0
    9.0180   -5.5610   13.8530 C   0  0  0  0  0  0
   10.4020   -5.8570   13.4960 C   0  0  0  0  0  0
    9.3480   -4.5910   17.4250 N   0  0  0  0  0  0
    7.9410   -4.5200   17.3180 C   0  0  0  0  0  0
    7.5010   -4.8360   15.9620 C   0  0  0  0  0  0
    6.1390   -4.8200   15.4290 C   0  0  0  0  0  0
    7.2430   -4.1580   18.5460 C   0  0  0  0  0  0
    7.8090   -3.1670   19.4580 C   0  0  0  0  0  0
    7.0640   -2.6020   20.5780 C   0  0  0  0  0  0
    5.6990   -3.0090   20.8540 C   0  0  0  0  0  0
    5.1220   -4.0260   19.9930 C   0  0  0  0  0  0
    5.8900   -4.5790   18.8870 C   0  0  0  0  0  0
    5.2240   -3.6860   15.6090 C   0  0  0  0  0  0
    3.7830   -3.7150   15.4050 C   0  0  0  0  0  0
    3.0980   -4.9090   14.9750 C   0  0  0  0  0  0
    3.9300   -6.0350   14.7410 N   0  0  0  0  0  0
    5.5090   -6.0060   14.9660 N   0  0  0  0  0  0
    2.7430   -2.7440   15.6320 C   0  0  0  0  0  0
    1.4710   -3.2920   15.3700 N   0  0  0  0  0  0
    1.7120   -4.6510   14.9570 N   0  3  0  0  0  0
    2.9010   -1.4330   16.1170 N   0  0  0  0  0  0
   12.5316   -5.9614   14.1707 H   0  0  0  0  0  0
   11.9329   -5.1167   16.5293 H   0  0  0  0  0  0
    8.2238   -5.6626   13.1134 H   0  0  0  0  0  0
   10.6218   -6.1901   12.4817 H   0  0  0  0  0  0
    8.8341   -2.8347   19.2943 H   0  0  0  0  0  0
    7.5415   -1.8608   21.2189 H   0  0  0  0  0  0
    5.1303   -2.5696   21.6735 H   0  0  0  0  0  0
    4.1067   -4.3778   20.1762 H   0  0  0  0  0  0
    5.4255   -5.3542   18.2775 H   0  0  0  0  0  0
    5.6624   -2.7388   15.9231 H   0  0  0  0  0  0
    3.9084   -1.0360   16.3110 H   0  0  0  0  0  0
    2.0172   -0.8048   16.3022 H   0  0  0  0  0  0
    0.8671   -5.3027   14.6899 H   0  0  0  0  0  0
  1  2  2  0  0  0
  1  6  1  0  0  0
  1 26  1  0  0  0
  2  3  1  0  0  0
  2 27  1  0  0  0
  3  4  1  0  0  0
  3  7  1  0  0  0
  4  5  1  0  0  0
  4  9  2  0  0  0
  5  6  2  0  0  0
  5 28  1  0  0  0
  6 29  1  0  0  0
  7  8  2  0  0  0
  8  9  1  0  0  0
  8 11  1  0  0  0
  9 10  1  0  0  0
 10 17  2  0  0  0
 10 21  1  0  0  0
 11 12  2  0  0  0
 11 16  1  0  0  0
 12 13  1  0  0  0
 12 30  1  0  0  0
 13 14  2  0  0  0
 13 31  1  0  0  0
 14 15  1  0  0  0
 14 32  1  0  0  0
 15 16  2  0  0  0
 15 33  1  0  0  0
 16 34  1  0  0  0
 17 18  1  0  0  0
 17 35  1  0  0  0
 18 19  2  0  0  0
 18 22  1  0  0  0
 19 20  1  0  0  0
 19 24  1  0  0  0
 20 21  2  0  0  0
 22 23  2  0  0  0
 22 25  1  0  0  0
 23 24  1  0  0  0
 24 38  1  0  0  0
 25 36  1  0  0  0
 25 37  1  0  0  0
M  CHG  1  24   1
M  END
> <s_m_source_file>
../1tvo_ligand.sdf

> <i_m_source_file_index>
1

> <s_epik_input>
W2NIXTFbY0hdW2NIXVtjSF1bY0hdYzEtYyhuMiljKGMobjIzKVtjSF1bY0hdW2NIXVtjSF0zKS1jKFtjSF00KW5uYyhjNDUpW25IXW5jNVtOSDJd

> <s_epik_cmdline>
J2VwaWtfYXBwJywgJy1pbWFlJywgJ2xpZ2FuZF9wcm8ubWFlJywgJy1vbWFlJywgJ2xpZ2FuZF9wcmVwLm1hZScsICctbXMnLCAnMScsICctcGgnLCAnNycsICctcGh0JywgJzAuNScsICctbnQn

> <r_epik_Ionization_Penalty>
  0.0005

> <r_epik_Ionization_Penalty_Charging>
  0.0000

> <r_epik_Ionization_Penalty_Neutral>
  0.0005

> <r_epik_State_Penalty>
  0.0239

> <r_epik_Charging_Adjusted_Penalty>
0.023942678349001

> <i_epik_Tot_Q>
1

> <i_epik_Tot_abs_Q>
1

> <s_epik_Chemistry_Notes>
This compound has an imine and may undergo hydrolysis.

$$$$
