1tvr_ligand
                    3D
 Schrodinger Suite 2020-3.
 41 43  0  0  1  0            999 V2000
  141.5670  -25.8320   71.0180 N   0  0  0  0  0  0
  142.1760  -26.1780   72.2290 C   0  0  0  0  0  0
  142.3710  -24.8230   70.3680 C   0  0  0  0  0  0
  141.9880  -24.1100   68.7930 S   0  5  0  0  0  0
  143.5290  -24.5470   71.2420 N   0  0  0  0  0  0
  143.3280  -25.4150   72.3500 C   0  0  0  0  0  0
  144.6870  -23.7730   70.8230 C   0  0  0  0  0  0
  145.3230  -22.8190   71.8420 C   0  0  1  0  0  0
  145.6460  -23.2790   73.2100 N   0  3  2  0  0  0
  145.5880  -24.7070   73.5000 C   0  0  0  0  0  0
  144.2390  -25.4430   73.4600 C   0  0  0  0  0  0
  143.8930  -26.3640   74.5280 C   0  0  0  0  0  0
  142.2520  -28.4010   75.5860 Cl  0  0  0  0  0  0
  142.6630  -27.1740   74.3960 C   0  0  0  0  0  0
  141.8300  -27.0560   73.2350 C   0  0  0  0  0  0
  146.6520  -22.5360   71.1970 C   0  0  0  0  0  0
  145.7910  -22.2900   74.2910 C   0  0  0  0  0  0
  144.5000  -22.2350   74.9610 C   0  0  0  0  0  0
  144.1880  -21.7880   76.1850 C   0  0  0  0  0  0
  142.6440  -21.8990   76.3480 C   0  0  0  0  0  0
  145.3540  -21.2580   77.0590 C   0  0  0  0  0  0
  145.4969  -24.4560   70.5270 H   0  0  0  0  0  0
  144.4132  -23.1368   69.9684 H   0  0  0  0  0  0
  144.6014  -22.0158   72.0522 H   0  0  0  0  0  0
  146.7416  -23.3765   73.1961 H   0  0  0  0  0  0
  146.2115  -25.2535   72.7772 H   0  0  0  0  0  0
  145.9615  -24.8898   74.5184 H   0  0  0  0  0  0
  144.5274  -26.4564   75.4095 H   0  0  0  0  0  0
  140.9258  -27.6584   73.1476 H   0  0  0  0  0  0
  146.4923  -22.1858   70.1666 H   0  0  0  0  0  0
  147.2556  -23.4555   71.1824 H   0  0  0  0  0  0
  147.1800  -21.7598   71.7704 H   0  0  0  0  0  0
  146.5833  -22.6150   74.9814 H   0  0  0  0  0  0
  146.0573  -21.3132   73.8610 H   0  0  0  0  0  0
  143.7134  -22.6361   74.3049 H   0  0  0  0  0  0
  142.2118  -22.3546   75.4449 H   0  0  0  0  0  0
  142.2175  -20.8954   76.4925 H   0  0  0  0  0  0
  142.4117  -22.5254   77.2218 H   0  0  0  0  0  0
  146.3041  -21.3862   76.5197 H   0  0  0  0  0  0
  145.3896  -21.8210   78.0034 H   0  0  0  0  0  0
  145.1954  -20.1909   77.2740 H   0  0  0  0  0  0
  1  2  1  0  0  0
  1  3  2  0  0  0
  2  6  2  0  0  0
  2 15  1  0  0  0
  3  4  1  0  0  0
  3  5  1  0  0  0
  5  6  1  0  0  0
  5  7  1  0  0  0
  6 11  1  0  0  0
  7  8  1  0  0  0
  7 22  1  0  0  0
  7 23  1  0  0  0
  8  9  1  0  0  0
  8 16  1  0  0  0
  8 24  1  0  0  0
  9 10  1  0  0  0
  9 17  1  0  0  0
  9 25  1  0  0  0
 10 11  1  0  0  0
 10 26  1  0  0  0
 10 27  1  0  0  0
 11 12  2  0  0  0
 12 14  1  0  0  0
 12 28  1  0  0  0
 13 14  1  0  0  0
 14 15  2  0  0  0
 15 29  1  0  0  0
 16 30  1  0  0  0
 16 31  1  0  0  0
 16 32  1  0  0  0
 17 18  1  0  0  0
 17 33  1  0  0  0
 17 34  1  0  0  0
 18 19  2  0  0  0
 18 35  1  0  0  0
 19 20  1  0  0  0
 19 21  1  0  0  0
 20 36  1  0  0  0
 20 37  1  0  0  0
 20 38  1  0  0  0
 21 39  1  0  0  0
 21 40  1  0  0  0
 21 41  1  0  0  0
M  CHG  2   4  -1   9   1
M  END
> <s_m_source_file>
../1tvr_ligand.sdf

> <i_m_source_file_index>
1

> <s_epik_input>
W25IXTFjKD1TKW4oYzJjMTMpW0NIMl1bQ0BIXShbQ0gzXSlbTkBASCtdKFtDSDJdW0NIXT1DKFtDSDNdKVtDSDNdKVtDSDJdYzJbY0hdYyhDbClbY0hdMw==

> <s_epik_cmdline>
J2VwaWtfYXBwJywgJy1pbWFlJywgJ2xpZ2FuZF9wcm8ubWFlJywgJy1vbWFlJywgJ2xpZ2FuZF9wcmVwLm1hZScsICctbXMnLCAnMScsICctcGgnLCAnNycsICctcGh0JywgJzAuNScsICctbnQn

> <r_epik_Ionization_Penalty>
  0.2778

> <r_epik_Ionization_Penalty_Charging>
  0.0098

> <r_epik_Ionization_Penalty_Neutral>
  0.2680

> <r_epik_State_Penalty>
  0.2600

> <r_epik_Charging_Adjusted_Penalty>
0.269814192612413

> <i_epik_Tot_Q>
0

> <i_epik_Tot_abs_Q>
2

$$$$
