1tx7_ligand
                    3D
 Schrodinger Suite 2020-3.
 24 24  0  0  1  0            999 V2000
   -1.5920   14.6610   50.8870 C   0  0  0  0  0  0
   -1.1280   10.8900   47.1070 O   0  0  0  0  0  0
   -1.8390   13.2410   50.9130 C   0  0  0  0  0  0
    0.2370   12.7330   46.1320 O   0  5  0  0  0  0
   -1.3640   12.4240   49.8530 C   0  0  0  0  0  0
   -1.8340   16.7550   52.0190 N   0  3  0  0  0  0
   -2.7490   14.9590   53.0020 N   0  0  0  0  0  0
   -0.6400   13.0160   48.7520 C   0  0  0  0  0  0
   -0.4020   14.4620   48.7240 C   0  0  0  0  0  0
   -0.8770   15.2620   49.7980 C   0  0  0  0  0  0
   -2.0790   15.4950   52.0130 C   0  0  0  0  0  0
   -0.0360   11.9180   47.4190 P   0  0  1  0  0  0
    1.5150   11.1200   48.0460 C   0  0  0  0  0  0
   -2.3881   12.7962   51.7429 H   0  0  0  0  0  0
   -1.5458   11.3494   49.8702 H   0  0  0  0  0  0
   -1.2715   17.2099   51.1903 H   0  0  0  0  0  0
   -2.9614   13.8797   53.0013 H   0  0  0  0  0  0
   -3.0995   15.5880   53.8336 H   0  0  0  0  0  0
    0.1323   14.9176   47.8903 H   0  0  0  0  0  0
   -0.6973   16.3371   49.7945 H   0  0  0  0  0  0
    1.9182   10.4465   47.2754 H   0  0  0  0  0  0
    1.2890   10.5434   48.9551 H   0  0  0  0  0  0
    2.2582   11.8965   48.2796 H   0  0  0  0  0  0
   -2.1866   17.3799   52.8528 H   0  0  0  0  0  0
  1  3  2  0  0  0
  1 10  1  0  0  0
  1 11  1  0  0  0
  2 12  2  0  0  0
  3  5  1  0  0  0
  3 14  1  0  0  0
  4 12  1  0  0  0
  5  8  2  0  0  0
  5 15  1  0  0  0
  6 11  2  0  0  0
  6 16  1  0  0  0
  6 24  1  0  0  0
  7 11  1  0  0  0
  7 17  1  0  0  0
  7 18  1  0  0  0
  8  9  1  0  0  0
  8 12  1  0  0  0
  9 10  2  0  0  0
  9 19  1  0  0  0
 10 20  1  0  0  0
 12 13  1  0  0  0
 13 21  1  0  0  0
 13 22  1  0  0  0
 13 23  1  0  0  0
M  CHG  2   4  -1   6   1
M  END
> <s_m_source_file>
../1tx7_ligand.sdf

> <i_m_source_file_index>
1

> <s_epik_input>
W0hdL049QyhbTkgyXSkvYzFbY0hdW2NIXWMoW2NIXVtjSF0xKVtQQEBdKD1PKShbT0hdKVtDSDNd

> <s_epik_cmdline>
J2VwaWtfYXBwJywgJy1pbWFlJywgJ2xpZ2FuZF9wcm8ubWFlJywgJy1vbWFlJywgJ2xpZ2FuZF9wcmVwLm1hZScsICctbXMnLCAnMScsICctcGgnLCAnNycsICctcGh0JywgJzAuNScsICctbnQn

> <r_lp_tautomer_probability>
1

> <r_epik_Ionization_Penalty>
  0.0003

> <r_epik_Ionization_Penalty_Charging>
  0.0003

> <r_epik_Ionization_Penalty_Neutral>
  0.0000

> <r_epik_State_Penalty>
 -0.0000

> <r_epik_Charging_Adjusted_Penalty>
0.000335184132214104

> <i_epik_Tot_Q>
0

> <i_epik_Tot_abs_Q>
2

> <s_epik_Chemistry_Notes>
This compound has an imine and may undergo hydrolysis.

$$$$
