1tyn_ligand
                    3D
 Schrodinger Suite 2020-3.
101104  0  0  1  0            999 V2000
   93.1750  -10.4510   59.0030 C   0  0  0  0  0  0
   91.9840  -11.3020   58.9380 C   0  0  0  0  0  0
   91.7300  -12.1370   59.9490 C   0  0  0  0  0  0
   90.4580  -12.9230   60.0650 C   0  0  1  0  0  0
   90.0390  -13.3620   58.7390 N   0  0  0  0  0  0
   88.8800  -12.9780   58.2240 C   0  0  0  0  0  0
   88.6130  -13.3610   56.7710 C   0  0  2  0  0  0
   88.3710  -12.1300   56.0280 N   0  0  0  0  0  0
   88.8880  -11.9110   54.8270 C   0  0  0  0  0  0
   88.3430  -10.6100   54.1940 C   0  0  2  0  0  0
   89.3300   -9.4490   54.4200 C   0  0  1  0  0  0
   90.6510   -9.7720   53.9050 N   0  0  0  0  0  0
   91.6580  -10.0950   54.7080 C   0  0  0  0  0  0
   93.0000  -10.3320   54.0280 C   0  0  2  0  0  0
   93.2370  -11.8090   53.7780 C   0  0  0  0  0  0
   94.2310  -12.2970   54.7820 C   0  0  0  0  0  0
   95.0890  -11.1010   55.1330 C   0  0  0  0  0  0
   94.1210   -9.9700   54.9060 N   0  0  0  0  0  0
   94.2290   -8.7450   55.4410 C   0  0  0  0  0  0
   95.1840   -8.5840   56.6170 C   0  0  2  0  0  0
   94.3920   -8.5970   57.9290 C   0  0  0  0  0  0
   93.4330   -9.6970   57.9450 N   0  0  0  0  0  0
   93.8850  -10.4570   60.0040 O   0  0  0  0  0  0
   90.6480  -14.1270   60.9980 C   0  0  0  0  0  0
   91.6490  -15.1240   60.4610 C   0  0  0  0  0  0
   91.2110  -16.1370   59.6300 C   0  0  0  0  0  0
   92.1090  -17.0400   59.0990 C   0  0  0  0  0  0
   93.4460  -16.9130   59.4130 C   0  0  0  0  0  0
   93.8960  -15.9050   60.2470 C   0  0  0  0  0  0
   92.9890  -15.0050   60.7750 C   0  0  0  0  0  0
   94.2980  -17.7620   58.9100 O   0  0  0  0  0  0
   88.0640  -12.3030   58.8510 O   0  0  0  0  0  0
   87.3780  -14.2590   56.6850 C   0  0  0  0  0  0
   87.6160  -15.6440   57.2530 C   0  0  0  0  0  0
   88.4520  -16.5300   56.5900 C   0  0  0  0  0  0
   88.6490  -17.8050   57.1010 C   0  0  0  0  0  0
   88.0090  -18.1910   58.2680 C   0  0  0  0  0  0
   87.1750  -17.3020   58.9270 C   0  0  0  0  0  0
   86.9760  -16.0280   58.4220 C   0  0  0  0  0  0
   89.7140  -12.6520   54.2990 O   0  0  0  0  0  0
   87.0170  -10.3300   54.5180 O   0  0  0  0  0  0
   88.8830   -8.1050   53.8360 C   0  0  0  0  0  0
   89.6420   -6.9410   54.4410 C   0  0  0  0  0  0
   89.3550   -5.6200   53.7610 C   0  0  0  0  0  0
   90.0250   -4.5320   54.4700 N   0  0  0  0  0  0
   90.0500   -3.2700   54.0660 C   0  0  0  0  0  0
   89.4220   -2.9190   52.9490 N   0  3  0  0  0  0
   90.6920   -2.3580   54.7890 N   0  0  0  0  0  0
   91.5410  -10.2060   55.9360 O   0  0  0  0  0  0
   93.5660   -7.7830   55.0240 O   0  0  0  0  0  0
   95.9120   -7.3310   56.4670 N   0  0  0  0  0  0
   96.9570   -7.0180   57.2290 C   0  0  0  0  0  0
   97.3750   -7.7310   58.1500 O   0  0  0  0  0  0
   91.3039  -11.2610   58.0744 H   0  0  0  0  0  0
   92.4724  -12.2739   60.7491 H   0  0  0  0  0  0
   89.6628  -12.2696   60.4531 H   0  0  0  0  0  0
   90.6891  -14.0236   58.1477 H   0  0  0  0  0  0
   89.4783  -13.8730   56.3248 H   0  0  0  0  0  0
   87.7391  -11.3410   56.4617 H   0  0  0  0  0  0
   88.1556  -10.7374   53.1176 H   0  0  0  0  0  0
   89.4230   -9.3338   55.5100 H   0  0  0  0  0  0
   90.8386   -9.7530   52.8213 H   0  0  0  0  0  0
   92.9888   -9.7190   53.1147 H   0  0  0  0  0  0
   92.2889  -12.3560   53.8869 H   0  0  0  0  0  0
   93.6270  -11.9505   52.7592 H   0  0  0  0  0  0
   93.7009  -12.6797   55.6666 H   0  0  0  0  0  0
   94.8343  -13.1031   54.3389 H   0  0  0  0  0  0
   95.4263  -11.1854   56.1766 H   0  0  0  0  0  0
   95.9635  -11.0688   54.4665 H   0  0  0  0  0  0
   95.9392   -9.3837   56.6274 H   0  0  0  0  0  0
   95.0851   -8.7187   58.7745 H   0  0  0  0  0  0
   93.8453   -7.6486   58.0367 H   0  0  0  0  0  0
   92.8671   -9.9466   57.0354 H   0  0  0  0  0  0
   91.0091  -13.7788   61.9770 H   0  0  0  0  0  0
   89.6873  -14.6473   61.1255 H   0  0  0  0  0  0
   90.1507  -16.2233   59.3926 H   0  0  0  0  0  0
   91.7675  -17.8403   58.4424 H   0  0  0  0  0  0
   94.9562  -15.8212   60.4857 H   0  0  0  0  0  0
   93.3290  -14.2067   61.4347 H   0  0  0  0  0  0
   93.9468  -18.5658   58.2462 H   0  0  0  0  0  0
   86.5524  -13.8021   57.2503 H   0  0  0  0  0  0
   87.0815  -14.3748   55.6321 H   0  0  0  0  0  0
   88.9526  -16.2259   55.6707 H   0  0  0  0  0  0
   89.3074  -18.5032   56.5843 H   0  0  0  0  0  0
   88.1616  -19.1936   58.6674 H   0  0  0  0  0  0
   86.6740  -17.6065   59.8459 H   0  0  0  0  0  0
   86.3192  -15.3300   58.9410 H   0  0  0  0  0  0
   86.2442  -11.1019   54.3878 H   0  0  0  0  0  0
   89.0576   -8.1009   52.7500 H   0  0  0  0  0  0
   87.8115   -7.9566   54.0357 H   0  0  0  0  0  0
   89.3663   -6.8345   55.5006 H   0  0  0  0  0  0
   90.7232   -7.1267   54.3604 H   0  0  0  0  0  0
   89.7215   -5.6540   52.7244 H   0  0  0  0  0  0
   88.2705   -5.4358   53.7606 H   0  0  0  0  0  0
   90.5581   -4.7346   55.4106 H   0  0  0  0  0  0
   88.8922   -3.6777   52.3543 H   0  0  0  0  0  0
   91.2104   -2.6538   55.7130 H   0  0  0  0  0  0
   90.7050   -1.3074   54.4633 H   0  0  0  0  0  0
   95.6029   -6.6035   55.7021 H   0  0  0  0  0  0
   97.4560   -6.0644   57.0017 H   0  0  0  0  0  0
   89.4319   -1.8697   52.6189 H   0  0  0  0  0  0
  1  2  1  0  0  0
  1 22  1  0  0  0
  1 23  2  0  0  0
  2  3  2  0  0  0
  2 54  1  0  0  0
  3  4  1  0  0  0
  3 55  1  0  0  0
  4  5  1  0  0  0
  4 24  1  0  0  0
  4 56  1  0  0  0
  5  6  1  0  0  0
  5 57  1  0  0  0
  6  7  1  0  0  0
  6 32  2  0  0  0
  7  8  1  0  0  0
  7 33  1  0  0  0
  7 58  1  0  0  0
  8  9  1  0  0  0
  8 59  1  0  0  0
  9 10  1  0  0  0
  9 40  2  0  0  0
 10 11  1  0  0  0
 10 41  1  0  0  0
 10 60  1  0  0  0
 11 12  1  0  0  0
 11 42  1  0  0  0
 11 61  1  0  0  0
 12 13  1  0  0  0
 12 62  1  0  0  0
 13 14  1  0  0  0
 13 49  2  0  0  0
 14 15  1  0  0  0
 14 18  1  0  0  0
 14 63  1  0  0  0
 15 16  1  0  0  0
 15 64  1  0  0  0
 15 65  1  0  0  0
 16 17  1  0  0  0
 16 66  1  0  0  0
 16 67  1  0  0  0
 17 18  1  0  0  0
 17 68  1  0  0  0
 17 69  1  0  0  0
 18 19  1  0  0  0
 19 20  1  0  0  0
 19 50  2  0  0  0
 20 21  1  0  0  0
 20 51  1  0  0  0
 20 70  1  0  0  0
 21 22  1  0  0  0
 21 71  1  0  0  0
 21 72  1  0  0  0
 22 73  1  0  0  0
 24 25  1  0  0  0
 24 74  1  0  0  0
 24 75  1  0  0  0
 25 26  2  0  0  0
 25 30  1  0  0  0
 26 27  1  0  0  0
 26 76  1  0  0  0
 27 28  2  0  0  0
 27 77  1  0  0  0
 28 29  1  0  0  0
 28 31  1  0  0  0
 29 30  2  0  0  0
 29 78  1  0  0  0
 30 79  1  0  0  0
 31 80  1  0  0  0
 33 34  1  0  0  0
 33 81  1  0  0  0
 33 82  1  0  0  0
 34 35  2  0  0  0
 34 39  1  0  0  0
 35 36  1  0  0  0
 35 83  1  0  0  0
 36 37  2  0  0  0
 36 84  1  0  0  0
 37 38  1  0  0  0
 37 85  1  0  0  0
 38 39  2  0  0  0
 38 86  1  0  0  0
 39 87  1  0  0  0
 41 88  1  0  0  0
 42 43  1  0  0  0
 42 89  1  0  0  0
 42 90  1  0  0  0
 43 44  1  0  0  0
 43 91  1  0  0  0
 43 92  1  0  0  0
 44 45  1  0  0  0
 44 93  1  0  0  0
 44 94  1  0  0  0
 45 46  1  0  0  0
 45 95  1  0  0  0
 46 47  2  0  0  0
 46 48  1  0  0  0
 47 96  1  0  0  0
 47101  1  0  0  0
 48 97  1  0  0  0
 48 98  1  0  0  0
 51 52  1  0  0  0
 51 99  1  0  0  0
 52 53  2  0  0  0
 52100  1  0  0  0
M  CHG  1  47   1
M  END
> <s_m_source_file>
../1tyn_ligand.sdf

> <i_m_source_file_index>
1

> <s_epik_input>
W0NIMl0xW0NIMl1bQ0gyXU4oW0NAQEhdMTIpQyg9TylbQ0BASF0oW05IXVtDSF09TylbQ0gyXVtOSF1DKD1PKS9bQ0hdPVtDSF0vW0NASF0oW0NIMl1jM1tjSF1bY0hdYyhbT0hdKVtjSF1bY0hdMylbTkhdQyg9TylbQ0BASF0oW0NIMl1jNFtjSF1bY0hdW2NIXVtjSF1bY0hdNClbTkhdQyg9TylbQ0BASF0oW09IXSlbQ0BASF0oW05IXUMyPU8pW0NIMl1bQ0gyXVtDSDJdW05IXS9DKD1OXFtIXSlbTkgyXQ==

> <s_epik_cmdline>
J2VwaWtfYXBwJywgJy1pbWFlJywgJ2xpZ2FuZF9wcm8ubWFlJywgJy1vbWFlJywgJ2xpZ2FuZF9wcmVwLm1hZScsICctbXMnLCAnMScsICctcGgnLCAnNycsICctcGh0JywgJzAuNScsICctbnQn

> <r_lp_tautomer_probability>
1

> <r_epik_Ionization_Penalty>
  0.0007

> <r_epik_Ionization_Penalty_Charging>
  0.0000

> <r_epik_Ionization_Penalty_Neutral>
  0.0007

> <r_epik_State_Penalty>
 -0.0000

> <r_epik_Charging_Adjusted_Penalty>
1.48868739638491e-05

> <i_epik_Tot_Q>
1

> <i_epik_Tot_abs_Q>
1

> <s_epik_Chemistry_Notes>
This compound has an imine and may undergo hydrolysis.

$$$$
