1tyr_ligand
                    3D
 Schrodinger Suite 2020-3.
 49 49  0  0  1  0            999 V2000
   21.1250   44.8670   56.3000 C   0  0  0  0  0  0
   21.0640   44.8520   54.7650 C   0  0  0  0  0  0
   21.8290   43.8200   54.1250 C   0  0  0  0  0  0
   21.3650   42.4230   54.4980 C   0  0  0  0  0  0
   21.2650   42.2620   55.9990 C   0  0  0  0  0  0
   21.1480   43.3550   56.8520 C   0  0  0  0  0  0
   20.8830   43.2370   58.3190 C   0  0  0  0  0  0
   21.8190   42.8930   59.4220 C   0  0  0  0  0  0
   21.6130   42.7170   60.8320 C   0  0  0  0  0  0
   22.7110   42.3640   61.5560 C   0  0  0  0  0  0
   22.7780   42.0890   62.9770 C   0  0  0  0  0  0
   23.9030   41.6130   63.5760 C   0  0  0  0  0  0
   25.1260   41.2590   62.8690 C   0  0  0  0  0  0
   26.1860   40.7930   63.5780 C   0  0  0  0  0  0
   26.9420   41.6530   64.4760 C   0  0  0  0  0  0
   19.8900   45.6480   56.8120 C   0  0  0  0  0  0
   22.3920   45.6070   56.7440 C   0  0  0  0  0  0
   21.4330   40.7950   56.4030 C   0  0  0  0  0  0
   20.1770   42.8650   61.3760 C   0  0  0  0  0  0
   25.0830   41.2160   61.2950 C   0  0  0  0  0  0
   26.6160   41.8320   65.8480 O   0  5  0  0  0  0
   28.0260   42.5200   64.5280 O   0  0  0  0  0  0
   20.0223   44.7115   54.4408 H   0  0  0  0  0  0
   21.4441   45.8071   54.3736 H   0  0  0  0  0  0
   21.7410   43.9219   53.0333 H   0  0  0  0  0  0
   22.8854   43.9115   54.4178 H   0  0  0  0  0  0
   20.3741   42.2362   54.0584 H   0  0  0  0  0  0
   22.0823   41.6833   54.1129 H   0  0  0  0  0  0
   19.8263   43.4479   58.5400 H   0  0  0  0  0  0
   22.8847   42.7254   59.2069 H   0  0  0  0  0  0
   23.6871   42.2601   61.0595 H   0  0  0  0  0  0
   21.8747   42.2790   63.5753 H   0  0  0  0  0  0
   23.9280   41.4727   64.6667 H   0  0  0  0  0  0
   26.4927   39.7410   63.4813 H   0  0  0  0  0  0
   18.9722   45.1279   56.5004 H   0  0  0  0  0  0
   19.8974   46.6636   56.3895 H   0  0  0  0  0  0
   19.9231   45.7074   57.9099 H   0  0  0  0  0  0
   23.2787   45.0628   56.3868 H   0  0  0  0  0  0
   22.4160   45.6665   57.8421 H   0  0  0  0  0  0
   22.3904   46.6227   56.3217 H   0  0  0  0  0  0
   21.4969   40.1709   55.4995 H   0  0  0  0  0  0
   20.5689   40.4796   57.0062 H   0  0  0  0  0  0
   22.3539   40.6805   56.9936 H   0  0  0  0  0  0
   19.5036   43.1602   60.5578 H   0  0  0  0  0  0
   20.1599   43.6353   62.1610 H   0  0  0  0  0  0
   19.8436   41.9050   61.7970 H   0  0  0  0  0  0
   24.1334   41.6448   60.9423 H   0  0  0  0  0  0
   25.1634   40.1732   60.9544 H   0  0  0  0  0  0
   25.9222   41.8000   60.8892 H   0  0  0  0  0  0
  1  2  1  0  0  0
  1  6  1  0  0  0
  1 16  1  0  0  0
  1 17  1  0  0  0
  2  3  1  0  0  0
  2 23  1  0  0  0
  2 24  1  0  0  0
  3  4  1  0  0  0
  3 25  1  0  0  0
  3 26  1  0  0  0
  4  5  1  0  0  0
  4 27  1  0  0  0
  4 28  1  0  0  0
  5  6  2  0  0  0
  5 18  1  0  0  0
  6  7  1  0  0  0
  7  8  2  0  0  0
  7 29  1  0  0  0
  8  9  1  0  0  0
  8 30  1  0  0  0
  9 10  2  0  0  0
  9 19  1  0  0  0
 10 11  1  0  0  0
 10 31  1  0  0  0
 11 12  2  0  0  0
 11 32  1  0  0  0
 12 13  1  0  0  0
 12 33  1  0  0  0
 13 14  2  0  0  0
 13 20  1  0  0  0
 14 15  1  0  0  0
 14 34  1  0  0  0
 15 21  1  0  0  0
 15 22  2  0  0  0
 16 35  1  0  0  0
 16 36  1  0  0  0
 16 37  1  0  0  0
 17 38  1  0  0  0
 17 39  1  0  0  0
 17 40  1  0  0  0
 18 41  1  0  0  0
 18 42  1  0  0  0
 18 43  1  0  0  0
 19 44  1  0  0  0
 19 45  1  0  0  0
 19 46  1  0  0  0
 20 47  1  0  0  0
 20 48  1  0  0  0
 20 49  1  0  0  0
M  CHG  1  21  -1
M  END
> <s_m_source_file>
../1tyr_ligand.sdf

> <i_m_source_file_index>
1

> <s_epik_input>
W0NIM11DMShbQ0gzXSlbQ0gyXVtDSDJdW0NIMl1DKFtDSDNdKT1DMS9bQ0hdPVtDSF0vQyhbQ0gzXSk9W0NIXS9bQ0hdPVtDSF1cQyhbQ0gzXSk9W0NIXS9DKD1PKVtPSF0=

> <s_epik_cmdline>
J2VwaWtfYXBwJywgJy1pbWFlJywgJ2xpZ2FuZF9wcm8ubWFlJywgJy1vbWFlJywgJ2xpZ2FuZF9wcmVwLm1hZScsICctbXMnLCAnMScsICctcGgnLCAnNycsICctcGh0JywgJzAuNScsICctbnQn

> <r_lp_tautomer_probability>
1

> <r_epik_Ionization_Penalty>
  0.0052

> <r_epik_Ionization_Penalty_Charging>
  0.0052

> <r_epik_Ionization_Penalty_Neutral>
  0.0000

> <r_epik_State_Penalty>
 -0.0000

> <r_epik_Charging_Adjusted_Penalty>
0.00515394606812565

> <i_epik_Tot_Q>
-1

> <i_epik_Tot_abs_Q>
1

$$$$
