1tze_ligand
                    3D
 Schrodinger Suite 2020-3.
131133  0  0  1  0            999 V2000
   44.7030   59.7470   44.9750 N   0  3  0  0  0  0
   44.9760   59.5520   46.4390 C   0  0  2  0  0  0
   45.0450   58.0490   46.7520 C   0  0  0  0  0  0
   44.6760   57.2300   45.8960 O   0  0  0  0  0  0
   43.8790   60.2330   47.2900 C   0  0  0  0  0  0
   42.4480   59.8000   46.9890 C   0  0  0  0  0  0
   41.4560   60.3890   47.9850 C   0  0  0  0  0  0
   40.0140   60.2260   47.4910 C   0  0  0  0  0  0
   38.9590   60.8800   48.3470 N   0  3  0  0  0  0
   45.5910   57.6660   47.9340 N   0  0  0  0  0  0
   45.6600   56.2370   48.2670 C   0  0  2  0  0  0
   44.2180   55.7090   48.3750 C   0  0  0  0  0  0
   43.3010   56.4460   48.7330 O   0  0  0  0  0  0
   46.3800   56.2450   49.6130 C   0  0  0  0  0  0
   45.9040   57.5570   50.2330 C   0  0  0  0  0  0
   46.0850   58.4870   49.0620 C   0  0  0  0  0  0
   44.0160   54.4480   48.0350 N   0  0  0  0  0  0
   42.6880   53.8480   48.0690 C   0  0  2  0  0  0
   42.6820   52.6640   49.0380 C   0  0  0  0  0  0
   43.7090   52.0120   49.2240 O   0  0  0  0  0  0
   42.2930   53.3750   46.6630 C   0  0  0  0  0  0
   43.2640   52.3970   46.0610 C   0  0  0  0  0  0
   44.4220   52.8480   45.4190 C   0  0  0  0  0  0
   43.0630   51.0260   46.1950 C   0  0  0  0  0  0
   45.3690   51.9440   44.9310 C   0  0  0  0  0  0
   44.0110   50.1060   45.7070 C   0  0  0  0  0  0
   45.1590   50.5650   45.0810 C   0  0  0  0  0  0
   41.5120   52.3560   49.5940 N   0  0  0  0  0  0
   41.3700   51.2530   50.5370 C   0  0  2  0  0  0
   40.1600   50.3920   50.1400 C   0  0  0  0  0  0
   39.1060   50.9150   49.7840 O   0  0  0  0  0  0
   41.2660   51.8060   51.9830 C   0  0  0  0  0  0
   42.4440   52.7030   52.3700 C   0  0  0  0  0  0
   43.6050   52.1670   52.9420 C   0  0  0  0  0  0
   42.4340   54.0690   52.0750 C   0  0  0  0  0  0
   44.7220   52.9600   53.1910 C   0  0  0  0  0  0
   43.5500   54.8760   52.3230 C   0  0  0  0  0  0
   44.6990   54.3170   52.8750 C   0  0  0  0  0  0
   45.8670   55.2160   53.0410 O   0  0  0  0  0  0
   47.3360   54.6850   53.3890 P   0  0  0  0  0  0
   47.5000   54.4100   54.7800 O   0  5  0  0  0  0
   47.7510   53.5630   52.6280 O   0  5  0  0  0  0
   48.2090   55.7600   53.1390 O   0  0  0  0  0  0
   40.3200   49.0750   50.2110 N   0  0  0  0  0  0
   39.2760   48.1430   49.8340 C   0  0  2  0  0  0
   37.9760   48.3980   50.5760 C   0  0  0  0  0  0
   36.8910   48.1460   50.0360 O   0  0  0  0  0  0
   39.7500   46.6900   50.0370 C   0  0  0  0  0  0
   38.6800   45.6770   49.6790 C   0  0  0  0  0  0
   40.9750   46.4320   49.2170 C   0  0  0  0  0  0
   38.0660   48.9390   51.7940 N   0  0  0  0  0  0
   36.8520   49.1930   52.5830 C   0  0  2  0  0  0
   36.3770   50.6350   52.6440 C   0  0  0  0  0  0
   35.4860   50.9600   53.4290 O   0  0  0  0  0  0
   36.9660   48.6090   54.0010 C   0  0  0  0  0  0
   38.0180   49.2970   54.8200 C   0  0  0  0  0  0
   39.0750   49.6660   54.3050 O   0  0  0  0  0  0
   37.7380   49.4950   56.1040 N   0  0  0  0  0  0
   36.9190   51.4940   51.7920 N   0  0  0  0  0  0
   36.5100   52.8880   51.7900 C   0  0  2  0  0  0
   36.1090   53.3350   50.3830 C   0  0  0  0  0  0
   34.9470   53.6080   50.1200 O   0  0  0  0  0  0
   37.6200   53.8120   52.3350 C   0  0  0  0  0  0
   37.1640   55.2490   52.3230 C   0  0  0  0  0  0
   38.0080   53.4140   53.7520 C   0  0  0  0  0  0
   37.0820   53.4300   49.4870 N   0  0  0  0  0  0
   45.4923   59.2566   44.3863 H   0  0  0  0  0  0
   44.6885   60.8225   44.7448 H   0  0  0  0  0  0
   43.7283   59.3046   44.7217 H   0  0  0  0  0  0
   45.9462   60.0196   46.6627 H   0  0  0  0  0  0
   44.0513   60.0134   48.3540 H   0  0  0  0  0  0
   43.9132   61.3208   47.1299 H   0  0  0  0  0  0
   42.1668   60.1386   45.9809 H   0  0  0  0  0  0
   42.3783   58.7034   47.0402 H   0  0  0  0  0  0
   41.5568   59.8734   48.9514 H   0  0  0  0  0  0
   41.6628   61.4611   48.1181 H   0  0  0  0  0  0
   39.9180   60.6670   46.4879 H   0  0  0  0  0  0
   39.7601   59.1566   47.4472 H   0  0  0  0  0  0
   37.9671   60.7032   47.9054 H   0  0  0  0  0  0
   39.1491   61.9621   48.4003 H   0  0  0  0  0  0
   38.9912   60.4517   49.3597 H   0  0  0  0  0  0
   46.1887   55.6294   47.5178 H   0  0  0  0  0  0
   46.0776   55.3624   50.1958 H   0  0  0  0  0  0
   47.4672   56.2202   49.4475 H   0  0  0  0  0  0
   44.8590   57.4503   50.5596 H   0  0  0  0  0  0
   46.5355   57.8036   51.0993 H   0  0  0  0  0  0
   47.1367   58.7571   48.8859 H   0  0  0  0  0  0
   45.4799   59.4021   49.1421 H   0  0  0  0  0  0
   44.8827   53.8481   47.7203 H   0  0  0  0  0  0
   42.0003   54.6322   48.4184 H   0  0  0  0  0  0
   41.3118   52.8795   46.7050 H   0  0  0  0  0  0
   42.2378   54.2409   45.9868 H   0  0  0  0  0  0
   44.5877   53.9185   45.2979 H   0  0  0  0  0  0
   42.1602   50.6599   46.6839 H   0  0  0  0  0  0
   46.2684   52.3091   44.4352 H   0  0  0  0  0  0
   43.8422   49.0353   45.8214 H   0  0  0  0  0  0
   45.8972   49.8561   44.7060 H   0  0  0  0  0  0
   40.6361   52.9632   49.3219 H   0  0  0  0  0  0
   42.2778   50.6372   50.4549 H   0  0  0  0  0  0
   40.3470   52.4023   52.0823 H   0  0  0  0  0  0
   41.2380   50.9679   52.6950 H   0  0  0  0  0  0
   43.6345   51.1077   53.1973 H   0  0  0  0  0  0
   41.5383   54.5151   51.6428 H   0  0  0  0  0  0
   45.6152   52.5190   53.6335 H   0  0  0  0  0  0
   43.5196   55.9392   52.0846 H   0  0  0  0  0  0
   41.2887   48.6992   50.5720 H   0  0  0  0  0  0
   39.1005   48.3572   48.7694 H   0  0  0  0  0  0
   39.9956   46.5499   51.1001 H   0  0  0  0  0  0
   37.7795   45.8664   50.2816 H   0  0  0  0  0  0
   39.0521   44.6625   49.8846 H   0  0  0  0  0  0
   38.4323   45.7673   48.6111 H   0  0  0  0  0  0
   41.7514   47.1668   49.4765 H   0  0  0  0  0  0
   40.7271   46.5222   48.1491 H   0  0  0  0  0  0
   41.3469   45.4174   49.4227 H   0  0  0  0  0  0
   39.0533   49.1946   52.2062 H   0  0  0  0  0  0
   36.1028   48.6625   51.9770 H   0  0  0  0  0  0
   36.0035   48.7202   54.5218 H   0  0  0  0  0  0
   37.2279   47.5425   53.9384 H   0  0  0  0  0  0
   36.7801   49.1470   56.5181 H   0  0  0  0  0  0
   38.4641   50.0068   56.7527 H   0  0  0  0  0  0
   37.6838   51.1442   51.0830 H   0  0  0  0  0  0
   35.6382   52.9059   52.4606 H   0  0  0  0  0  0
   38.5057   53.7255   51.6884 H   0  0  0  0  0  0
   36.8837   55.5362   51.2988 H   0  0  0  0  0  0
   37.9812   55.8959   52.6746 H   0  0  0  0  0  0
   36.2944   55.3633   52.9869 H   0  0  0  0  0  0
   38.3406   52.3655   53.7603 H   0  0  0  0  0  0
   37.1385   53.5281   54.4160 H   0  0  0  0  0  0
   38.8253   54.0608   54.1037 H   0  0  0  0  0  0
   38.1145   53.1740   49.7671 H   0  0  0  0  0  0
   36.8566   53.7648   48.4637 H   0  0  0  0  0  0
  1  2  1  0  0  0
  1 67  1  0  0  0
  1 68  1  0  0  0
  1 69  1  0  0  0
  2  3  1  0  0  0
  2  5  1  0  0  0
  2 70  1  0  0  0
  3  4  2  0  0  0
  3 10  1  0  0  0
  5  6  1  0  0  0
  5 71  1  0  0  0
  5 72  1  0  0  0
  6  7  1  0  0  0
  6 73  1  0  0  0
  6 74  1  0  0  0
  7  8  1  0  0  0
  7 75  1  0  0  0
  7 76  1  0  0  0
  8  9  1  0  0  0
  8 77  1  0  0  0
  8 78  1  0  0  0
  9 79  1  0  0  0
  9 80  1  0  0  0
  9 81  1  0  0  0
 10 11  1  0  0  0
 10 16  1  0  0  0
 11 14  1  0  0  0
 11 12  1  0  0  0
 11 82  1  0  0  0
 12 13  2  0  0  0
 12 17  1  0  0  0
 14 15  1  0  0  0
 14 83  1  0  0  0
 14 84  1  0  0  0
 15 16  1  0  0  0
 15 85  1  0  0  0
 15 86  1  0  0  0
 16 87  1  0  0  0
 16 88  1  0  0  0
 17 18  1  0  0  0
 17 89  1  0  0  0
 18 19  1  0  0  0
 18 21  1  0  0  0
 18 90  1  0  0  0
 19 20  2  0  0  0
 19 28  1  0  0  0
 21 22  1  0  0  0
 21 91  1  0  0  0
 21 92  1  0  0  0
 22 24  2  0  0  0
 22 23  1  0  0  0
 23 25  2  0  0  0
 23 93  1  0  0  0
 24 26  1  0  0  0
 24 94  1  0  0  0
 25 27  1  0  0  0
 25 95  1  0  0  0
 26 27  2  0  0  0
 26 96  1  0  0  0
 27 97  1  0  0  0
 28 29  1  0  0  0
 28 98  1  0  0  0
 29 32  1  0  0  0
 29 30  1  0  0  0
 29 99  1  0  0  0
 30 31  2  0  0  0
 30 44  1  0  0  0
 32 33  1  0  0  0
 32100  1  0  0  0
 32101  1  0  0  0
 33 35  2  0  0  0
 33 34  1  0  0  0
 34 36  2  0  0  0
 34102  1  0  0  0
 35 37  1  0  0  0
 35103  1  0  0  0
 36 38  1  0  0  0
 36104  1  0  0  0
 37 38  2  0  0  0
 37105  1  0  0  0
 38 39  1  0  0  0
 39 40  1  0  0  0
 40 43  2  0  0  0
 40 42  1  0  0  0
 40 41  1  0  0  0
 44 45  1  0  0  0
 44106  1  0  0  0
 45 46  1  0  0  0
 45 48  1  0  0  0
 45107  1  0  0  0
 46 47  2  0  0  0
 46 51  1  0  0  0
 48 49  1  0  0  0
 48 50  1  0  0  0
 48108  1  0  0  0
 49109  1  0  0  0
 49110  1  0  0  0
 49111  1  0  0  0
 50112  1  0  0  0
 50113  1  0  0  0
 50114  1  0  0  0
 51 52  1  0  0  0
 51115  1  0  0  0
 52 53  1  0  0  0
 52 55  1  0  0  0
 52116  1  0  0  0
 53 54  2  0  0  0
 53 59  1  0  0  0
 55 56  1  0  0  0
 55117  1  0  0  0
 55118  1  0  0  0
 56 57  2  0  0  0
 56 58  1  0  0  0
 58119  1  0  0  0
 58120  1  0  0  0
 59 60  1  0  0  0
 59121  1  0  0  0
 60 61  1  0  0  0
 60 63  1  0  0  0
 60122  1  0  0  0
 61 62  2  0  0  0
 61 66  1  0  0  0
 63 64  1  0  0  0
 63 65  1  0  0  0
 63123  1  0  0  0
 64124  1  0  0  0
 64125  1  0  0  0
 64126  1  0  0  0
 65127  1  0  0  0
 65128  1  0  0  0
 65129  1  0  0  0
 66130  1  0  0  0
 66131  1  0  0  0
M  CHG  4   1   1   9   1  41  -1  42  -1
M  END
> <s_m_source_file>
../1tze_ligand.sdf

> <i_m_source_file_index>
1

> <s_epik_input>
W05IMytdW0NIMl1bQ0gyXVtDSDJdW0NIMl1bQ0BIXShbTkgzK10pQyg9TylOMVtDQEBIXShbQ0gyXVtDSDJdW0NIMl0xKUMoPU8pW05IXVtDQEBIXShbQ0gyXWMyW2NIXVtjSF1bY0hdW2NIXVtjSF0yKUMoPU8pW05IXVtDQEBIXShbQ0gyXWMzW2NIXVtjSF1jKFtjSF1bY0hdMylPUCg9TykoW09IXSlbT0hdKUMoPU8pW05IXVtDQEBIXShbQ0hdKFtDSDNdKVtDSDNdKUMoPU8pW05IXVtDQEBIXShbQ0gyXUMoPU8pW05IMl0pQyg9TylbTkhdW0NASF0oQyg9TylbTkgyXSlbQ0hdKFtDSDNdKVtDSDNd

> <s_epik_cmdline>
J2VwaWtfYXBwJywgJy1pbWFlJywgJ2xpZ2FuZF9wcm8ubWFlJywgJy1vbWFlJywgJ2xpZ2FuZF9wcmVwLm1hZScsICctbXMnLCAnMScsICctcGgnLCAnNycsICctcGh0JywgJzAuNScsICctbnQn

> <r_lp_tautomer_probability>
1

> <r_epik_Ionization_Penalty>
  0.1981

> <r_epik_Ionization_Penalty_Charging>
  0.1981

> <r_epik_Ionization_Penalty_Neutral>
  0.0000

> <r_epik_State_Penalty>
 -0.0000

> <r_epik_Charging_Adjusted_Penalty>
0.198138869390976

> <i_epik_Tot_Q>
0

> <i_epik_Tot_abs_Q>
4

$$$$
