1u0g_ligand
                    3D
 Schrodinger Suite 2020-3.
 21 20  0  0  1  0            999 V2000
    8.0180    2.4430   -0.0770 C   0  0  0  0  0  0
    9.1930    2.5960    0.7100 O   0  0  0  0  0  0
    7.3640    3.7110   -0.5170 C   0  0  2  0  0  0
    8.4140    4.4790   -1.0640 O   0  0  0  0  0  0
    6.7300    4.3930    0.6870 C   0  0  2  0  0  0
    5.6200    3.6230    1.1180 O   0  0  0  0  0  0
    6.2260    5.7940    0.3300 C   0  0  0  0  0  0
    5.2880    5.7220   -0.7420 O   0  0  0  0  0  0
    4.8490    7.0110   -1.4150 P   0  0  0  0  0  0
    4.3190    7.9470   -0.3660 O   0  5  0  0  0  0
    6.0170    7.6460   -2.1060 O   0  0  0  0  0  0
    3.7500    6.6700   -2.3850 O   0  5  0  0  0  0
    8.2610    1.8869   -0.9945 H   0  0  0  0  0  0
    7.2612    1.8891    0.4978 H   0  0  0  0  0  0
    9.7318    1.7081    1.0723 H   0  0  0  0  0  0
    6.6013    3.5813   -1.2990 H   0  0  0  0  0  0
    8.9662    4.1101   -1.9409 H   0  0  0  0  0  0
    7.4503    4.4305    1.5175 H   0  0  0  0  0  0
    5.7625    2.5762    1.4244 H   0  0  0  0  0  0
    5.7364    6.2421    1.2072 H   0  0  0  0  0  0
    7.0754    6.4222    0.0235 H   0  0  0  0  0  0
  1  2  1  0  0  0
  1  3  1  0  0  0
  1 13  1  0  0  0
  1 14  1  0  0  0
  2 15  1  0  0  0
  3  4  1  0  0  0
  3  5  1  0  0  0
  3 16  1  0  0  0
  4 17  1  0  0  0
  5  6  1  0  0  0
  5  7  1  0  0  0
  5 18  1  0  0  0
  6 19  1  0  0  0
  7  8  1  0  0  0
  7 20  1  0  0  0
  7 21  1  0  0  0
  8  9  1  0  0  0
  9 10  1  0  0  0
  9 11  2  0  0  0
  9 12  1  0  0  0
M  CHG  2  10  -1  12  -1
M  END
> <s_m_source_file>
../1u0g_ligand.sdf

> <i_m_source_file_index>
1

> <s_epik_input>
W09IXVtDSDJdW0NASF0oW09IXSlbQ0BIXShbT0hdKVtDSDJdT1AoPU8pKFtPSF0pW09IXQ==

> <s_epik_cmdline>
J2VwaWtfYXBwJywgJy1pbWFlJywgJ2xpZ2FuZF9wcm8ubWFlJywgJy1vbWFlJywgJ2xpZ2FuZF9wcmVwLm1hZScsICctbXMnLCAnMScsICctcGgnLCAnNycsICctcGh0JywgJzAuNScsICctbnQn

> <r_epik_Ionization_Penalty>
  0.1143

> <r_epik_Ionization_Penalty_Charging>
  0.1143

> <r_epik_Ionization_Penalty_Neutral>
  0.0000

> <r_epik_State_Penalty>
  0.1039

> <r_epik_Charging_Adjusted_Penalty>
0.218161851445415

> <i_epik_Tot_Q>
-2

> <i_epik_Tot_abs_Q>
2

$$$$
