1u0h_ligand
                    3D
 Schrodinger Suite 2020-3.
 61 64  0  0  1  0            999 V2000
   66.8580  -14.4240   54.9170 C   0  0  0  0  0  0
   65.4120  -14.7320   54.7430 N   0  0  0  0  0  0
   64.7860  -15.9480   54.8580 C   0  0  0  0  0  0
   65.5510  -17.2200   55.2080 C   0  0  0  0  0  0
   64.8440  -18.6490   55.3530 C   0  0  0  0  0  0
   63.4210  -18.6220   55.1270 C   0  0  0  0  0  0
   62.6900  -17.2810   54.7710 C   0  0  0  0  0  0
   63.3740  -16.0280   54.6560 C   0  0  0  0  0  0
   62.4940  -14.7910   54.3010 C   0  0  0  0  0  0
   63.0890  -13.5840   53.7090 O   0  0  0  0  0  0
   61.1410  -14.8310   54.5560 O   0  0  0  0  0  0
   60.1790  -13.7380   54.2840 C   0  0  1  0  0  0
   59.2500  -14.1810   53.1400 C   0  0  1  0  0  0
   59.9090  -15.0080   52.1700 O   0  0  0  0  0  0
   59.1800  -13.4610   55.4610 C   0  0  1  0  0  0
   58.5110  -12.1060   55.8230 C   0  0  0  0  0  0
   58.6640  -10.9680   54.9710 O   0  0  0  0  0  0
   57.4030   -9.9320   54.7210 P   0  0  1  0  0  0
   57.9050   -9.1960   53.3450 O   0  5  0  0  0  0
   56.1700  -10.7730   54.5040 O   0  0  0  0  0  0
   57.5200   -8.7950   55.8940 O   0  0  0  0  0  0
   56.8660   -9.0140   57.3940 P   0  0  2  0  0  0
   55.8570  -10.3100   57.2820 O   0  5  0  0  0  0
   55.8860   -7.9400   57.7520 O   0  0  0  0  0  0
   57.8650   -9.4620   58.4590 O   0  0  0  0  0  0
   58.8200   -8.2330   58.6430 P   0  0  0  0  0  0
   60.3990   -8.4330   58.4690 O   0  5  0  0  0  0
   58.2970   -6.7650   59.0560 O   0  5  0  0  0  0
   58.5520   -8.3160   60.0990 O   0  0  0  0  0  0
   58.1570  -14.4640   55.3030 O   0  0  0  0  0  0
   58.2050  -14.9390   53.9240 C   0  0  1  0  0  0
   56.8360  -15.0630   53.3440 N   0  0  0  0  0  0
   55.8720  -14.1460   53.1430 C   0  0  0  0  0  0
   54.8260  -14.7160   52.5200 N   0  0  0  0  0  0
   55.1400  -15.9980   52.2910 C   0  0  0  0  0  0
   56.4270  -16.2070   52.7980 C   0  0  0  0  0  0
   57.0540  -17.4410   52.7080 N   0  0  0  0  0  0
   56.4630  -18.5270   52.1260 C   0  0  0  0  0  0
   57.1040  -19.6850   52.0680 N   0  0  0  0  0  0
   55.1570  -18.3910   51.5970 N   0  0  0  0  0  0
   54.4970  -17.1280   51.6750 C   0  0  0  0  0  0
   53.3660  -17.0690   51.1950 O   0  0  0  0  0  0
   67.0261  -13.3491   54.7546 H   0  0  0  0  0  0
   67.4461  -15.0013   54.1884 H   0  0  0  0  0  0
   67.1703  -14.6940   55.9366 H   0  0  0  0  0  0
   64.7050  -13.9281   54.4901 H   0  0  0  0  0  0
   66.6273  -17.1532   55.3665 H   0  0  0  0  0  0
   65.3895  -19.5597   55.6002 H   0  0  0  0  0  0
   62.8459  -19.5447   55.2044 H   0  0  0  0  0  0
   61.6132  -17.3036   54.6036 H   0  0  0  0  0  0
   60.8366  -12.8810   54.0764 H   0  0  0  0  0  0
   58.8735  -13.3892   52.4757 H   0  0  0  0  0  0
   60.6946  -14.5831   51.5278 H   0  0  0  0  0  0
   59.8169  -13.5299   56.3552 H   0  0  0  0  0  0
   57.4209  -12.2400   55.8839 H   0  0  0  0  0  0
   58.8923  -11.7566   56.7938 H   0  0  0  0  0  0
   58.5548  -15.9818   53.9099 H   0  0  0  0  0  0
   55.9304  -13.0990   53.4404 H   0  0  0  0  0  0
   58.1185  -19.7735   52.4839 H   0  0  0  0  0  0
   56.6217  -20.5580   51.6039 H   0  0  0  0  0  0
   54.6597  -19.2544   51.1309 H   0  0  0  0  0  0
  1  2  1  0  0  0
  1 43  1  0  0  0
  1 44  1  0  0  0
  1 45  1  0  0  0
  2  3  1  0  0  0
  2 46  1  0  0  0
  3  4  2  0  0  0
  3  8  1  0  0  0
  4  5  1  0  0  0
  4 47  1  0  0  0
  5  6  2  0  0  0
  5 48  1  0  0  0
  6  7  1  0  0  0
  6 49  1  0  0  0
  7  8  2  0  0  0
  7 50  1  0  0  0
  8  9  1  0  0  0
  9 10  2  0  0  0
  9 11  1  0  0  0
 11 12  1  0  0  0
 12 13  1  0  0  0
 12 15  1  0  0  0
 12 51  1  0  0  0
 13 14  1  0  0  0
 13 31  1  0  0  0
 13 52  1  0  0  0
 14 53  1  0  0  0
 15 16  1  0  0  0
 15 30  1  0  0  0
 15 54  1  0  0  0
 16 17  1  0  0  0
 16 55  1  0  0  0
 16 56  1  0  0  0
 17 18  1  0  0  0
 18 19  1  0  0  0
 18 20  2  0  0  0
 18 21  1  0  0  0
 21 22  1  0  0  0
 22 23  1  0  0  0
 22 24  2  0  0  0
 22 25  1  0  0  0
 25 26  1  0  0  0
 26 27  1  0  0  0
 26 28  1  0  0  0
 26 29  2  0  0  0
 30 31  1  0  0  0
 31 32  1  0  0  0
 31 57  1  0  0  0
 32 33  1  0  0  0
 32 36  1  0  0  0
 33 34  2  0  0  0
 33 58  1  0  0  0
 34 35  1  0  0  0
 35 36  2  0  0  0
 35 41  1  0  0  0
 36 37  1  0  0  0
 37 38  2  0  0  0
 38 39  1  0  0  0
 38 40  1  0  0  0
 39 59  1  0  0  0
 39 60  1  0  0  0
 40 41  1  0  0  0
 40 61  1  0  0  0
 41 42  2  0  0  0
M  CHG  4  19  -1  23  -1  27  -1  28  -1
M  END
> <s_m_source_file>
../1u0h_ligand.sdf

> <i_m_source_file_index>
1

> <s_epik_input>
W0NIM11bTkhdYzFbY0hdW2NIXVtjSF1bY0hdYzFDKD1PKU9bQ0BIXTJbQ0BASF0oW09IXSlbQ0BIXShuKFtjSF1uMyljKGMzNCluYyhbTkgyXSlbbkhdYzQ9TylPW0NAQEhdMltDSDJdT1tQQF0oPU8pKFtPSF0pT1tQQEBdKD1PKShbT0hdKU9QKD1PKShbT0hdKVtPSF0=

> <s_epik_cmdline>
J2VwaWtfYXBwJywgJy1pbWFlJywgJ2xpZ2FuZF9wcm8ubWFlJywgJy1vbWFlJywgJ2xpZ2FuZF9wcmVwLm1hZScsICctbXMnLCAnMScsICctcGgnLCAnNycsICctcGh0JywgJzAuNScsICctbnQn

> <r_lp_tautomer_probability>
0.999940409345307

> <r_epik_Ionization_Penalty>
  0.0832

> <r_epik_Ionization_Penalty_Charging>
  0.0827

> <r_epik_Ionization_Penalty_Neutral>
  0.0005

> <r_epik_State_Penalty>
  0.0707

> <r_epik_Charging_Adjusted_Penalty>
0.153440873451482

> <i_epik_Tot_Q>
-4

> <i_epik_Tot_abs_Q>
4

> <s_epik_Chemistry_Notes>
This compound has an ester and may undergo hydrolysis at high or low pH. This compound contains an acetal/aminal-like group ( X-CH(R)-Y where X, Y are N, S, or O) that may be acid/base labile, releasing an aldehyde.

$$$$
