1u1w_ligand
                    3D
 Schrodinger Suite 2020-3.
 17 17  0  0  1  0            999 V2000
    8.1600   30.2580   23.6940 O   0  0  0  0  0  0
    7.5910   31.1680   23.0520 C   0  0  0  0  0  0
    7.1890   32.2360   23.6110 O   0  5  0  0  0  0
    7.3090   31.0160   21.5910 C   0  0  0  0  0  0
    6.7550   32.1210   20.9210 C   0  0  0  0  0  0
    6.4140   31.9890   19.5590 C   0  0  0  0  0  0
    6.6280   30.8120   18.8830 C   0  0  0  0  0  0
    7.1940   29.7280   19.5520 C   0  0  0  0  0  0
    7.3980   28.5410   18.9400 O   0  0  0  0  0  0
    7.5530   29.8180   20.9430 C   0  0  0  0  0  0
    8.1880   28.6840   21.4980 N   0  0  0  0  0  0
    6.5920   33.0628   21.4449 H   0  0  0  0  0  0
    5.9728   32.8357   19.0332 H   0  0  0  0  0  0
    6.3570   30.7266   17.8307 H   0  0  0  0  0  0
    7.1407   28.4186   17.8775 H   0  0  0  0  0  0
    8.4894   28.6851   22.5559 H   0  0  0  0  0  0
    8.3809   27.8003   20.8721 H   0  0  0  0  0  0
  1  2  2  0  0  0
  2  3  1  0  0  0
  2  4  1  0  0  0
  4  5  2  0  0  0
  4 10  1  0  0  0
  5  6  1  0  0  0
  5 12  1  0  0  0
  6  7  2  0  0  0
  6 13  1  0  0  0
  7  8  1  0  0  0
  7 14  1  0  0  0
  8  9  1  0  0  0
  8 10  2  0  0  0
  9 15  1  0  0  0
 10 11  1  0  0  0
 11 16  1  0  0  0
 11 17  1  0  0  0
M  CHG  1   3  -1
M  END
> <s_m_source_file>
../1u1w_ligand.sdf

> <i_m_source_file_index>
1

> <s_epik_input>
Tz1DKFtPSF0pYzFbY0hdW2NIXVtjSF1jKFtPSF0pYzFbTkgyXQ==

> <s_epik_cmdline>
J2VwaWtfYXBwJywgJy1pbWFlJywgJ2xpZ2FuZF9wcm8ubWFlJywgJy1vbWFlJywgJ2xpZ2FuZF9wcmVwLm1hZScsICctbXMnLCAnMScsICctcGgnLCAnNycsICctcGh0JywgJzAuNScsICctbnQn

> <r_lp_tautomer_probability>
1

> <r_epik_Ionization_Penalty>
  0.0118

> <r_epik_Ionization_Penalty_Charging>
  0.0007

> <r_epik_Ionization_Penalty_Neutral>
  0.0112

> <r_epik_State_Penalty>
 -0.0000

> <r_epik_Charging_Adjusted_Penalty>
0.00066440729558212

> <i_epik_Tot_Q>
-1

> <i_epik_Tot_abs_Q>
1

$$$$
