1u2r_ligand
                    3D
 Schrodinger Suite 2020-3.
 40 42  0  0  1  0            999 V2000
   82.8180   37.0140  -20.2950 P   0  0  0  0  0  0
   83.0530   36.1750  -19.0930 O   0  0  0  0  0  0
   82.8860   38.5080  -20.0250 O   0  5  0  0  0  0
   81.5170   36.6460  -21.0310 O   0  5  0  0  0  0
   84.0510   36.6720  -21.3610 O   0  0  0  0  0  0
   84.3080   37.1770  -22.8260 P   0  0  2  0  0  0
   83.8740   38.5780  -23.0160 O   0  0  0  0  0  0
   83.7340   36.2030  -23.8330 O   0  5  0  0  0  0
   85.8930   37.0670  -22.9320 O   0  0  0  0  0  0
   86.7410   37.8680  -22.0990 C   0  0  0  0  0  0
   88.1100   37.9150  -22.7270 C   0  0  1  0  0  0
   88.6200   36.5410  -22.7760 O   0  0  0  0  0  0
   88.1260   38.4760  -24.1690 C   0  0  1  0  0  0
   89.3740   39.2590  -24.2500 O   0  0  0  0  0  0
   88.1850   37.2270  -25.0300 C   0  0  1  0  0  0
   88.7240   37.4710  -26.3000 O   0  0  0  0  0  0
   88.9370   36.2330  -24.1140 C   0  0  2  0  0  0
   88.5240   34.7340  -24.4210 N   0  0  0  0  0  0
   87.2490   34.2290  -24.5210 C   0  0  0  0  0  0
   87.2870   32.9140  -24.7970 N   0  0  0  0  0  0
   88.6440   32.5900  -24.8690 C   0  0  0  0  0  0
   89.3000   31.3480  -25.1430 C   0  0  0  0  0  0
   88.7510   30.2590  -25.3690 O   0  0  0  0  0  0
   90.7130   31.4420  -25.1310 N   0  0  0  0  0  0
   91.3960   32.6290  -24.8850 C   0  0  0  0  0  0
   92.7410   32.6010  -24.9010 N   0  0  0  0  0  0
   90.7750   33.7960  -24.6290 N   0  0  0  0  0  0
   89.4130   33.7040  -24.6460 C   0  0  0  0  0  0
   86.3256   38.8836  -22.0218 H   0  0  0  0  0  0
   86.8003   37.4190  -21.0966 H   0  0  0  0  0  0
   88.7359   38.5535  -22.0863 H   0  0  0  0  0  0
   87.3022   39.1314  -24.4881 H   0  0  0  0  0  0
   89.4758   40.1924  -23.6770 H   0  0  0  0  0  0
   87.2324   36.8412  -25.4220 H   0  0  0  0  0  0
   88.2227   38.1706  -26.9851 H   0  0  0  0  0  0
   90.0242   36.3775  -24.1984 H   0  0  0  0  0  0
   86.3369   34.8122  -24.3944 H   0  0  0  0  0  0
   91.3253   30.5484  -25.3224 H   0  0  0  0  0  0
   93.2691   31.6585  -25.1079 H   0  0  0  0  0  0
   93.3126   33.5206  -24.7071 H   0  0  0  0  0  0
  1  2  2  0  0  0
  1  3  1  0  0  0
  1  4  1  0  0  0
  1  5  1  0  0  0
  5  6  1  0  0  0
  6  7  2  0  0  0
  6  8  1  0  0  0
  6  9  1  0  0  0
  9 10  1  0  0  0
 10 11  1  0  0  0
 10 29  1  0  0  0
 10 30  1  0  0  0
 11 12  1  0  0  0
 11 13  1  0  0  0
 11 31  1  0  0  0
 12 17  1  0  0  0
 13 14  1  0  0  0
 13 15  1  0  0  0
 13 32  1  0  0  0
 14 33  1  0  0  0
 15 16  1  0  0  0
 15 17  1  0  0  0
 15 34  1  0  0  0
 16 35  1  0  0  0
 17 18  1  0  0  0
 17 36  1  0  0  0
 18 19  1  0  0  0
 18 28  1  0  0  0
 19 20  2  0  0  0
 19 37  1  0  0  0
 20 21  1  0  0  0
 21 22  1  0  0  0
 21 28  2  0  0  0
 22 23  2  0  0  0
 22 24  1  0  0  0
 24 25  1  0  0  0
 24 38  1  0  0  0
 25 26  1  0  0  0
 25 27  2  0  0  0
 26 39  1  0  0  0
 26 40  1  0  0  0
 27 28  1  0  0  0
M  CHG  3   3  -1   4  -1   8  -1
M  END
> <s_m_source_file>
../1u2r_ligand.sdf

> <i_m_source_file_index>
1

> <s_epik_input>
Tz1QKFtPSF0pKFtPSF0pT1tQQF0oPU8pKFtPSF0pT1tDSDJdW0NASF0xT1tDQEhdKFtDQEhdKFtPSF0pW0NAQEhdMVtPSF0pbihbY0hdbjIpYyhjMjMpbmMoW05IMl0pW25IXWMzPU8=

> <s_epik_cmdline>
J2VwaWtfYXBwJywgJy1pbWFlJywgJ2xpZ2FuZF9wcm8ubWFlJywgJy1vbWFlJywgJ2xpZ2FuZF9wcmVwLm1hZScsICctbXMnLCAnMScsICctcGgnLCAnNycsICctcGh0JywgJzAuNScsICctbnQn

> <r_lp_tautomer_probability>
0.999940409345307

> <r_epik_Ionization_Penalty>
  0.1052

> <r_epik_Ionization_Penalty_Charging>
  0.1051

> <r_epik_Ionization_Penalty_Neutral>
  0.0001

> <r_epik_State_Penalty>
  0.0922

> <r_epik_Charging_Adjusted_Penalty>
0.197315167096652

> <i_epik_Tot_Q>
-3

> <i_epik_Tot_abs_Q>
3

> <s_epik_Chemistry_Notes>
This compound contains an acetal/aminal-like group ( X-CH(R)-Y where X, Y are N, S, or O) that may be acid/base labile, releasing an aldehyde.

$$$$
