1u2y_ligand
                    3D
 Schrodinger Suite 2020-3.
 25 25  0  0  1  0            999 V2000
    9.1350   16.4340   42.9910 C   0  0  0  0  0  0
   10.2050   17.2690   42.8140 N   0  0  0  0  0  0
    8.4950   16.3800   44.3910 C   0  0  2  0  0  0
    8.6150   15.7960   41.8660 N   0  0  0  0  0  0
   10.7640   17.3790   41.6350 O   0  0  0  0  0  0
    9.3840   16.2620   45.5060 O   0  0  0  0  0  0
    7.3450   15.3510   44.5020 C   0  0  1  0  0  0
    6.5500   15.7180   45.6290 O   0  0  0  0  0  0
    6.4930   15.3880   43.2420 C   0  0  2  0  0  0
    5.3840   14.4830   43.3570 O   0  0  0  0  0  0
    7.4210   14.9360   42.0700 C   0  0  1  0  0  0
    6.6430   14.9140   40.7310 C   0  0  0  0  0  0
    6.0150   16.1700   40.4700 O   0  0  0  0  0  0
    8.1386   17.4077   44.5546 H   0  0  0  0  0  0
    9.0483   15.9060   40.8610 H   0  0  0  0  0  0
   11.6238   18.0505   41.4945 H   0  0  0  0  0  0
   10.2600   16.9228   45.5833 H   0  0  0  0  0  0
    7.7009   14.3249   44.6767 H   0  0  0  0  0  0
    6.9991   15.7475   46.6327 H   0  0  0  0  0  0
    6.0200   16.3707   43.0989 H   0  0  0  0  0  0
    4.6211   14.6438   44.1330 H   0  0  0  0  0  0
    7.8130   13.9483   42.3541 H   0  0  0  0  0  0
    7.3377   14.6941   39.9069 H   0  0  0  0  0  0
    5.8649   14.1375   40.7717 H   0  0  0  0  0  0
    5.4238   16.3093   39.5529 H   0  0  0  0  0  0
  1  2  2  0  0  0
  1  3  1  0  0  0
  1  4  1  0  0  0
  2  5  1  0  0  0
  3  6  1  0  0  0
  3  7  1  0  0  0
  3 14  1  0  0  0
  4 11  1  0  0  0
  4 15  1  0  0  0
  5 16  1  0  0  0
  6 17  1  0  0  0
  7  8  1  0  0  0
  7  9  1  0  0  0
  7 18  1  0  0  0
  8 19  1  0  0  0
  9 10  1  0  0  0
  9 11  1  0  0  0
  9 20  1  0  0  0
 10 21  1  0  0  0
 11 12  1  0  0  0
 11 22  1  0  0  0
 12 13  1  0  0  0
 12 23  1  0  0  0
 12 24  1  0  0  0
 13 25  1  0  0  0
M  END
> <s_m_source_file>
../1u2y_ligand.sdf

> <i_m_source_file_index>
1

> <s_epik_input>
W09IXVxOPUMxXFtDQEhdKFtPSF0pW0NAQEhdKFtPSF0pW0NASF0oW09IXSlbQ0BIXShbTkhdMSlbQ0gyXVtPSF0=

> <s_epik_cmdline>
J2VwaWtfYXBwJywgJy1pbWFlJywgJ2xpZ2FuZF9wcm8ubWFlJywgJy1vbWFlJywgJ2xpZ2FuZF9wcmVwLm1hZScsICctbXMnLCAnMScsICctcGgnLCAnNycsICctcGh0JywgJzAuNScsICctbnQn

> <r_lp_tautomer_probability>
1

> <r_epik_Ionization_Penalty>
  0.0001

> <r_epik_Ionization_Penalty_Charging>
  0.0000

> <r_epik_Ionization_Penalty_Neutral>
  0.0001

> <r_epik_State_Penalty>
 -0.0000

> <r_epik_Charging_Adjusted_Penalty>
0

> <i_epik_Tot_Q>
0

> <i_epik_Tot_abs_Q>
0

> <s_epik_Chemistry_Notes>
This compound has an imine and may undergo hydrolysis.

$$$$
