1u32_ligand
                    3D
 Schrodinger Suite 2020-3.
124130  0  0  1  0            999 V2000
   83.7700   52.8440   21.9810 C   0  0  0  0  0  0
   83.5610   52.2030   23.3430 C   0  0  2  0  0  0
   84.8590   52.0830   24.1100 C   0  0  0  0  0  0
   85.5710   53.4210   24.5020 C   0  0  2  0  0  0
   86.8190   53.2420   25.2220 C   0  0  0  0  0  0
   87.4280   54.5860   25.5940 C   0  0  0  0  0  0
   86.3590   55.3590   26.4220 C   0  0  2  0  0  0
   85.0690   55.5580   25.7020 C   0  0  2  0  0  0
   83.9830   56.2050   26.4220 C   0  0  0  0  0  0
   83.3020   57.2820   25.9970 C   0  0  0  0  0  0
   83.6210   57.9060   24.6470 C   0  0  0  0  0  0
   84.3900   56.8980   23.7480 C   0  0  1  0  0  0
   85.0250   57.5520   22.5260 C   0  0  1  0  0  0
   85.7740   56.5370   21.7570 C   0  0  0  0  0  0
   87.0100   56.5410   21.5600 C   0  0  0  0  0  0
   87.9070   55.5570   20.8340 C   0  0  1  0  0  0
   88.8770   56.0330   19.7600 C   0  0  0  0  0  0
   90.1290   55.1080   19.8840 C   0  0  0  0  0  0
   89.7170   54.1470   21.0920 C   0  0  1  0  0  0
   90.8770   53.8220   21.9480 C   0  0  0  0  0  0
   90.4110   52.8570   23.1220 C   0  0  0  0  0  0
   89.7610   51.6250   22.4510 C   0  0  2  0  0  0
   88.6450   52.0850   21.5600 C   0  0  2  0  0  0
   88.0150   50.8070   20.9140 C   0  0  1  0  0  0
   87.5180   49.8150   22.0560 C   0  0  0  0  0  0
   88.6160   49.5340   23.0000 C   0  0  1  0  0  0
   89.7660   48.5540   22.6090 C   0  0  2  0  0  0
   89.2200   47.1590   22.2040 C   0  0  0  0  0  0
   90.3360   46.1540   21.7830 C   0  0  1  0  0  0
   89.7040   44.7610   21.4890 C   0  0  2  0  0  0
   88.9410   44.1320   22.6620 C   0  0  1  0  0  0
   88.4810   42.7450   22.1910 C   0  0  0  0  0  0
   89.6660   41.8690   21.6840 C   0  0  0  0  0  0
   90.5130   42.5810   20.6870 C   0  0  2  0  0  0
   91.8600   41.9510   20.3840 C   0  0  0  0  0  0
   92.5130   42.5570   19.1080 C   0  0  0  0  0  0
   91.6220   42.6110   17.8940 C   0  0  0  0  0  0
   90.2690   43.2150   18.2690 C   0  0  0  0  0  0
   89.7530   43.9900   23.9800 C   0  0  0  0  0  0
   91.0470   46.6510   20.5410 C   0  0  0  0  0  0
   86.3320   49.4140   22.0740 C   0  0  0  0  0  0
   84.0330   58.2480   21.6430 C   0  0  0  0  0  0
   82.1910   57.9360   26.7840 C   0  0  0  0  0  0
   82.9580   50.8030   23.0110 C   0  0  0  0  0  0
   82.9560   53.9020   21.7250 O   0  5  0  0  0  0
   84.5860   52.5170   21.1270 O   0  0  0  0  0  0
   82.5480   52.8490   24.0370 O   0  0  0  0  0  0
   84.5620   54.2110   25.2680 O   0  0  0  0  0  0
   86.9050   56.6550   26.8210 O   0  0  0  0  0  0
   85.4000   56.2550   24.4860 O   0  0  0  0  0  0
   88.7040   54.9060   21.7930 O   0  0  0  0  0  0
   89.0900   52.9550   20.5240 O   0  0  0  0  0  0
   89.3070   50.7690   23.4870 O   0  0  0  0  0  0
   86.9720   51.1450   20.0210 O   0  0  0  0  0  0
   90.6840   48.3990   23.6060 O   0  0  0  0  0  0
   90.8130   43.9080   21.0810 O   0  0  0  0  0  0
   89.7000   42.5900   19.4800 O   0  0  0  0  0  0
   84.6778   51.5529   25.0567 H   0  0  0  0  0  0
   85.5894   51.5212   23.5092 H   0  0  0  0  0  0
   85.9437   53.9938   23.6400 H   0  0  0  0  0  0
   86.6320   52.6710   26.1434 H   0  0  0  0  0  0
   87.5321   52.6934   24.5891 H   0  0  0  0  0  0
   88.3380   54.4237   26.1904 H   0  0  0  0  0  0
   87.6837   55.1388   24.6780 H   0  0  0  0  0  0
   86.1028   54.7898   27.3278 H   0  0  0  0  0  0
   83.7325   55.7418   27.3877 H   0  0  0  0  0  0
   82.6849   58.1905   24.1442 H   0  0  0  0  0  0
   84.2444   58.8002   24.7945 H   0  0  0  0  0  0
   83.7048   56.1010   23.4234 H   0  0  0  0  0  0
   85.7252   58.3280   22.8689 H   0  0  0  0  0  0
   85.1534   55.7294   21.3415 H   0  0  0  0  0  0
   87.6261   57.3656   21.9478 H   0  0  0  0  0  0
   87.1906   54.8909   20.3309 H   0  0  0  0  0  0
   88.4048   55.9375   18.7711 H   0  0  0  0  0  0
   89.1374   57.0861   19.9418 H   0  0  0  0  0  0
   90.2813   54.5683   18.9377 H   0  0  0  0  0  0
   91.0164   55.7196   20.1042 H   0  0  0  0  0  0
   91.6489   53.3215   21.3449 H   0  0  0  0  0  0
   91.2887   54.7484   22.3749 H   0  0  0  0  0  0
   91.2843   52.5612   23.7219 H   0  0  0  0  0  0
   89.6869   53.3819   23.7625 H   0  0  0  0  0  0
   90.4416   51.0066   21.8474 H   0  0  0  0  0  0
   87.9616   52.7221   22.1406 H   0  0  0  0  0  0
   88.7196   50.3239   20.2211 H   0  0  0  0  0  0
   87.9613   49.0617   23.7472 H   0  0  0  0  0  0
   90.3874   49.0093   21.8238 H   0  0  0  0  0  0
   88.6804   46.7156   23.0538 H   0  0  0  0  0  0
   88.5345   47.2672   21.3505 H   0  0  0  0  0  0
   91.0832   46.0755   22.5864 H   0  0  0  0  0  0
   88.9591   44.8288   20.6824 H   0  0  0  0  0  0
   88.1064   44.8057   22.9060 H   0  0  0  0  0  0
   87.9991   42.2154   23.0260 H   0  0  0  0  0  0
   87.7632   42.8576   21.3651 H   0  0  0  0  0  0
   90.3052   41.5892   22.5344 H   0  0  0  0  0  0
   89.2718   40.9596   21.2068 H   0  0  0  0  0  0
   92.5417   42.1179   21.2310 H   0  0  0  0  0  0
   91.7317   40.8703   20.2240 H   0  0  0  0  0  0
   92.8261   43.5915   19.3124 H   0  0  0  0  0  0
   93.3908   41.9574   18.8252 H   0  0  0  0  0  0
   92.0949   43.2326   17.1195 H   0  0  0  0  0  0
   91.4700   41.5933   17.5051 H   0  0  0  0  0  0
   90.3888   44.2912   18.4622 H   0  0  0  0  0  0
   89.5597   43.0679   17.4412 H   0  0  0  0  0  0
   90.0822   44.9841   24.3168 H   0  0  0  0  0  0
   90.6322   43.3533   23.8022 H   0  0  0  0  0  0
   89.1191   43.5321   24.7536 H   0  0  0  0  0  0
   91.4951   47.6349   20.7440 H   0  0  0  0  0  0
   90.3249   46.7401   19.7160 H   0  0  0  0  0  0
   91.8373   45.9389   20.2612 H   0  0  0  0  0  0
   85.6347   49.7235   21.2815 H   0  0  0  0  0  0
   85.9874   48.7522   22.8823 H   0  0  0  0  0  0
   83.4842   58.9996   22.2294 H   0  0  0  0  0  0
   83.3245   57.5116   21.2359 H   0  0  0  0  0  0
   84.5626   58.7434   20.8159 H   0  0  0  0  0  0
   82.0520   57.4018   27.7355 H   0  0  0  0  0  0
   81.2581   57.8979   26.2024 H   0  0  0  0  0  0
   82.4538   58.9846   26.9873 H   0  0  0  0  0  0
   83.6967   50.2085   22.4534 H   0  0  0  0  0  0
   82.0523   50.9295   22.3997 H   0  0  0  0  0  0
   82.6999   50.2839   23.9458 H   0  0  0  0  0  0
   82.6995   53.8755   24.4022 H   0  0  0  0  0  0
   87.8587   56.7055   27.3668 H   0  0  0  0  0  0
   87.1679   51.8246   19.1785 H   0  0  0  0  0  0
   91.1880   49.2794   24.0313 H   0  0  0  0  0  0
  1  2  1  0  0  0
  1 45  1  0  0  0
  1 46  2  0  0  0
  2  3  1  0  0  0
  2 44  1  0  0  0
  2 47  1  0  0  0
  3  4  1  0  0  0
  3 58  1  0  0  0
  3 59  1  0  0  0
  4  5  1  0  0  0
  4 48  1  0  0  0
  4 60  1  0  0  0
  5  6  1  0  0  0
  5 61  1  0  0  0
  5 62  1  0  0  0
  6  7  1  0  0  0
  6 63  1  0  0  0
  6 64  1  0  0  0
  7  8  1  0  0  0
  7 49  1  0  0  0
  7 65  1  0  0  0
  8  9  1  0  0  0
  8 48  1  0  0  0
  8 50  1  0  0  0
  9 10  2  0  0  0
  9 66  1  0  0  0
 10 11  1  0  0  0
 10 43  1  0  0  0
 11 12  1  0  0  0
 11 67  1  0  0  0
 11 68  1  0  0  0
 12 13  1  0  0  0
 12 50  1  0  0  0
 12 69  1  0  0  0
 13 14  1  0  0  0
 13 42  1  0  0  0
 13 70  1  0  0  0
 14 15  2  0  0  0
 14 71  1  0  0  0
 15 16  1  0  0  0
 15 72  1  0  0  0
 16 17  1  0  0  0
 16 51  1  0  0  0
 16 73  1  0  0  0
 17 18  1  0  0  0
 17 74  1  0  0  0
 17 75  1  0  0  0
 18 19  1  0  0  0
 18 76  1  0  0  0
 18 77  1  0  0  0
 19 20  1  0  0  0
 19 51  1  0  0  0
 19 52  1  0  0  0
 20 21  1  0  0  0
 20 78  1  0  0  0
 20 79  1  0  0  0
 21 22  1  0  0  0
 21 80  1  0  0  0
 21 81  1  0  0  0
 22 23  1  0  0  0
 22 53  1  0  0  0
 22 82  1  0  0  0
 23 24  1  0  0  0
 23 52  1  0  0  0
 23 83  1  0  0  0
 24 25  1  0  0  0
 24 54  1  0  0  0
 24 84  1  0  0  0
 25 26  1  0  0  0
 25 41  2  0  0  0
 26 27  1  0  0  0
 26 53  1  0  0  0
 26 85  1  0  0  0
 27 28  1  0  0  0
 27 55  1  0  0  0
 27 86  1  0  0  0
 28 29  1  0  0  0
 28 87  1  0  0  0
 28 88  1  0  0  0
 29 30  1  0  0  0
 29 40  1  0  0  0
 29 89  1  0  0  0
 30 31  1  0  0  0
 30 56  1  0  0  0
 30 90  1  0  0  0
 31 32  1  0  0  0
 31 39  1  0  0  0
 31 91  1  0  0  0
 32 33  1  0  0  0
 32 92  1  0  0  0
 32 93  1  0  0  0
 33 34  1  0  0  0
 33 94  1  0  0  0
 33 95  1  0  0  0
 34 35  1  0  0  0
 34 56  1  0  0  0
 34 57  1  0  0  0
 35 36  1  0  0  0
 35 96  1  0  0  0
 35 97  1  0  0  0
 36 37  1  0  0  0
 36 98  1  0  0  0
 36 99  1  0  0  0
 37 38  1  0  0  0
 37100  1  0  0  0
 37101  1  0  0  0
 38 57  1  0  0  0
 38102  1  0  0  0
 38103  1  0  0  0
 39104  1  0  0  0
 39105  1  0  0  0
 39106  1  0  0  0
 40107  1  0  0  0
 40108  1  0  0  0
 40109  1  0  0  0
 41110  1  0  0  0
 41111  1  0  0  0
 42112  1  0  0  0
 42113  1  0  0  0
 42114  1  0  0  0
 43115  1  0  0  0
 43116  1  0  0  0
 43117  1  0  0  0
 44118  1  0  0  0
 44119  1  0  0  0
 44120  1  0  0  0
 47121  1  0  0  0
 49122  1  0  0  0
 54123  1  0  0  0
 55124  1  0  0  0
M  CHG  1  45  -1
M  END
> <s_m_source_file>
../1u32_ligand.sdf

> <i_m_source_file_index>
1

> <s_epik_input>
W09IXUMoPU8pW0NAXShbQ0gzXSkoW09IXSlbQ0gyXVtDQEBIXShPMSlbQ0gyXVtDSDJdW0NAQEhdKFtPSF0pW0NAXTEyW0NIXT1DKFtDSDNdKVtDSDJdW0NASF0oTzIpW0NASF0oW0NIM10pL1tDSF09W0NIXS9bQ0BIXShPMylbQ0gyXVtDSDJdW0NAQF0zNFtDSDJdW0NIMl1bQ0BASF01W0NAQEhdKE80KVtDQEhdKFtPSF0pQyg9W0NIMl0pW0NASF0oTzUpW0NAQEhdKFtPSF0pW0NIMl1bQ0BIXShbQ0gzXSlbQ0BASF0oTzYpW0NASF0oW0NIM10pW0NIMl1bQ0gyXVtDQF02N1tDSDJdW0NIMl1bQ0gyXVtDSDJdTzc=

> <s_epik_cmdline>
J2VwaWtfYXBwJywgJy1pbWFlJywgJ2xpZ2FuZF9wcm8ubWFlJywgJy1vbWFlJywgJ2xpZ2FuZF9wcmVwLm1hZScsICctbXMnLCAnMScsICctcGgnLCAnNycsICctcGh0JywgJzAuNScsICctbnQn

> <r_lp_tautomer_probability>
1

> <r_epik_Ionization_Penalty>
  0.0004

> <r_epik_Ionization_Penalty_Charging>
  0.0004

> <r_epik_Ionization_Penalty_Neutral>
  0.0000

> <r_epik_State_Penalty>
 -0.0000

> <r_epik_Charging_Adjusted_Penalty>
0.000417223533904883

> <i_epik_Tot_Q>
-1

> <i_epik_Tot_abs_Q>
1

$$$$
