1u3r_ligand
                    3D
 Schrodinger Suite 2020-3.
 32 35  0  0  1  0            999 V2000
   25.3150   36.0370   41.3650 C   0  0  0  0  0  0
   26.6330   35.4910   41.5330 C   0  0  0  0  0  0
   27.5430   35.6270   40.4440 C   0  0  0  0  0  0
   27.1620   36.2700   39.2500 C   0  0  0  0  0  0
   25.8540   36.8170   39.0640 C   0  0  0  0  0  0
   24.9250   36.6940   40.1460 C   0  0  0  0  0  0
   28.8300   35.2130   40.3600 O   0  0  0  0  0  0
   29.2550   35.5980   39.1140 C   0  0  0  0  0  0
   28.2490   36.2520   38.3910 N   0  0  0  0  0  0
   30.5760   35.3850   38.6210 C   0  0  0  0  0  0
   31.2050   36.0730   37.4430 C   0  0  0  0  0  0
   32.6220   35.7430   37.0830 C   0  0  0  0  0  0
   33.3370   34.7850   37.8630 C   0  0  0  0  0  0
   32.7280   34.1320   38.9810 C   0  0  0  0  0  0
   31.3850   34.4320   39.3440 C   0  0  0  0  0  0
   30.5470   37.0530   36.6130 C   0  0  0  0  0  0
   31.1960   37.6870   35.5020 C   0  0  0  0  0  0
   32.5520   37.3560   35.1810 C   0  0  0  0  0  0
   33.2740   36.3930   35.9570 C   0  0  0  0  0  0
   24.3980   35.9380   42.3820 O   0  0  0  0  0  0
   34.5880   36.1210   35.5990 O   0  0  0  0  0  0
   26.9259   34.9923   42.4569 H   0  0  0  0  0  0
   25.5747   37.3095   38.1326 H   0  0  0  0  0  0
   23.9183   37.0997   40.0460 H   0  0  0  0  0  0
   34.3679   34.5460   37.6016 H   0  0  0  0  0  0
   33.2954   33.4013   39.5574 H   0  0  0  0  0  0
   30.9492   33.9216   40.2029 H   0  0  0  0  0  0
   29.5153   37.3223   36.8394 H   0  0  0  0  0  0
   30.6573   38.4205   34.9022 H   0  0  0  0  0  0
   33.0400   37.8426   34.3365 H   0  0  0  0  0  0
   24.6726   35.4401   43.3236 H   0  0  0  0  0  0
   35.1735   35.3870   36.1721 H   0  0  0  0  0  0
  1  2  2  0  0  0
  1  6  1  0  0  0
  1 20  1  0  0  0
  2  3  1  0  0  0
  2 22  1  0  0  0
  3  4  2  0  0  0
  3  7  1  0  0  0
  4  5  1  0  0  0
  4  9  1  0  0  0
  5  6  2  0  0  0
  5 23  1  0  0  0
  6 24  1  0  0  0
  7  8  1  0  0  0
  8  9  2  0  0  0
  8 10  1  0  0  0
 10 11  2  0  0  0
 10 15  1  0  0  0
 11 12  1  0  0  0
 11 16  1  0  0  0
 12 13  2  0  0  0
 12 19  1  0  0  0
 13 14  1  0  0  0
 13 25  1  0  0  0
 14 15  2  0  0  0
 14 26  1  0  0  0
 15 27  1  0  0  0
 16 17  2  0  0  0
 16 28  1  0  0  0
 17 18  1  0  0  0
 17 29  1  0  0  0
 18 19  2  0  0  0
 18 30  1  0  0  0
 19 21  1  0  0  0
 20 31  1  0  0  0
 21 32  1  0  0  0
M  END
> <s_m_source_file>
../1u3r_ligand.sdf

> <i_m_source_file_index>
1

> <s_epik_input>
W2NIXTFjKFtPSF0pW2NIXVtjSF1jKGMxMiluYyhvMiktYzNbY0hdW2NIXVtjSF1jKGMzNCljKFtPSF0pW2NIXVtjSF1bY0hdNA==

> <s_epik_cmdline>
J2VwaWtfYXBwJywgJy1pbWFlJywgJ2xpZ2FuZF9wcm8ubWFlJywgJy1vbWFlJywgJ2xpZ2FuZF9wcmVwLm1hZScsICctbXMnLCAnMScsICctcGgnLCAnNycsICctcGh0JywgJzAuNScsICctbnQn

> <r_lp_tautomer_probability>
1

> <r_epik_Ionization_Penalty>
  0.0624

> <r_epik_Ionization_Penalty_Charging>
  0.0000

> <r_epik_Ionization_Penalty_Neutral>
  0.0624

> <r_epik_State_Penalty>
 -0.0000

> <r_epik_Charging_Adjusted_Penalty>
0

> <i_epik_Tot_Q>
0

> <i_epik_Tot_abs_Q>
0

$$$$
