1u3s_ligand
                    3D
 Schrodinger Suite 2020-3.
 32 35  0  0  1  0            999 V2000
   28.5560   36.9250   37.8410 C   0  0  0  0  0  0
   28.8270   36.3570   39.1400 C   0  0  0  0  0  0
   27.7760   36.1960   40.0930 C   0  0  0  0  0  0
   26.3940   36.6220   39.7330 C   0  0  0  0  0  0
   26.1350   37.1800   38.4500 C   0  0  0  0  0  0
   27.2100   37.3290   37.5200 C   0  0  0  0  0  0
   28.0480   35.6400   41.3790 C   0  0  0  0  0  0
   26.9740   35.4930   42.3120 C   0  0  0  0  0  0
   25.6430   35.9000   41.9620 C   0  0  0  0  0  0
   25.3440   36.4620   40.6810 C   0  0  0  0  0  0
   24.6310   35.7380   42.8950 O   0  0  0  0  0  0
   29.6560   37.1110   36.8170 C   0  0  0  0  0  0
   31.0570   36.7560   36.8020 C   0  0  0  0  0  0
   31.6060   37.1910   35.5520 C   0  0  0  0  0  0
   30.6050   37.7710   34.8600 O   0  0  0  0  0  0
   29.5120   37.7190   35.5850 N   0  0  0  0  0  0
   31.9610   36.0910   37.7340 C   0  0  0  0  0  0
   33.3440   35.9000   37.3790 C   0  0  0  0  0  0
   33.8320   36.3630   36.1040 C   0  0  0  0  0  0
   32.9710   37.0080   35.1860 C   0  0  0  0  0  0
   35.1640   36.1880   35.7540 O   0  0  0  0  0  0
   29.8409   36.0489   39.3952 H   0  0  0  0  0  0
   25.1261   37.4910   38.1789 H   0  0  0  0  0  0
   27.0062   37.7605   36.5400 H   0  0  0  0  0  0
   29.0589   35.3321   41.6461 H   0  0  0  0  0  0
   27.1680   35.0684   43.2970 H   0  0  0  0  0  0
   24.3261   36.7636   40.4341 H   0  0  0  0  0  0
   24.8562   35.3063   43.8813 H   0  0  0  0  0  0
   31.5908   35.7394   38.6970 H   0  0  0  0  0  0
   34.0217   35.4052   38.0747 H   0  0  0  0  0  0
   33.3423   37.3565   34.2223 H   0  0  0  0  0  0
   35.8546   35.6894   36.4500 H   0  0  0  0  0  0
  1  2  2  0  0  0
  1  6  1  0  0  0
  1 12  1  0  0  0
  2  3  1  0  0  0
  2 22  1  0  0  0
  3  4  2  0  0  0
  3  7  1  0  0  0
  4  5  1  0  0  0
  4 10  1  0  0  0
  5  6  2  0  0  0
  5 23  1  0  0  0
  6 24  1  0  0  0
  7  8  2  0  0  0
  7 25  1  0  0  0
  8  9  1  0  0  0
  8 26  1  0  0  0
  9 10  2  0  0  0
  9 11  1  0  0  0
 10 27  1  0  0  0
 11 28  1  0  0  0
 12 13  1  0  0  0
 12 16  2  0  0  0
 13 14  2  0  0  0
 13 17  1  0  0  0
 14 15  1  0  0  0
 14 20  1  0  0  0
 15 16  1  0  0  0
 17 18  2  0  0  0
 17 29  1  0  0  0
 18 19  1  0  0  0
 18 30  1  0  0  0
 19 20  2  0  0  0
 19 21  1  0  0  0
 20 31  1  0  0  0
 21 32  1  0  0  0
M  END
> <s_m_source_file>
../1u3s_ligand.sdf

> <i_m_source_file_index>
1

> <s_epik_input>
W2NIXTFbY0hdYyhbT0hdKVtjSF1jKGMxMilbY0hdW2NIXWMoW2NIXTIpLWMzbm9jKGMzNClbY0hdYyhbT0hdKVtjSF1bY0hdNA==

> <s_epik_cmdline>
J2VwaWtfYXBwJywgJy1pbWFlJywgJ2xpZ2FuZF9wcm8ubWFlJywgJy1vbWFlJywgJ2xpZ2FuZF9wcmVwLm1hZScsICctbXMnLCAnMScsICctcGgnLCAnNycsICctcGh0JywgJzAuNScsICctbnQn

> <r_epik_Ionization_Penalty>
  0.0726

> <r_epik_Ionization_Penalty_Charging>
  0.0000

> <r_epik_Ionization_Penalty_Neutral>
  0.0726

> <r_epik_State_Penalty>
  0.0586

> <r_epik_Charging_Adjusted_Penalty>
0.058637956343337

> <i_epik_Tot_Q>
0

> <i_epik_Tot_abs_Q>
0

$$$$
