1u59_ligand
                    3D
 Schrodinger Suite 2020-3.
 62 69  0  0  1  0            999 V2000
   14.9460    2.1030   53.3350 C   0  0  0  0  0  0
   15.1960    1.2830   52.1980 C   0  0  0  0  0  0
   14.2640    1.2580   51.0790 C   0  0  0  0  0  0
   13.0810    2.0490   51.0900 C   0  0  0  0  0  0
   12.7910    2.9110   52.2610 C   0  0  0  0  0  0
   11.7100    3.8090   52.5710 N   0  0  0  0  0  0
   11.9810    4.3510   53.8330 C   0  0  0  0  0  0
   11.1950    5.3250   54.6270 C   0  0  0  0  0  0
    9.9760    5.9330   54.3140 N   0  0  0  0  0  0
    9.6460    6.7910   55.3940 C   0  0  0  0  0  0
    8.4340    7.6600   55.5150 C   0  0  0  0  0  0
    8.3910    8.4240   56.7300 C   0  0  0  0  0  0
    9.4080    8.3620   57.7380 C   0  0  0  0  0  0
   10.5770    7.5170   57.6210 C   0  0  0  0  0  0
   10.6790    6.7130   56.3930 C   0  0  0  0  0  0
   11.6520    5.7800   55.9050 C   0  0  0  0  0  0
   12.9240    5.2440   56.4070 C   0  0  0  0  0  0
   13.6680    5.5040   57.6540 C   0  0  0  0  0  0
   14.7940    4.7350   57.6030 N   0  0  0  0  0  0
   14.9220    3.9410   56.4180 C   0  0  0  0  0  0
   13.6730    4.2960   55.6400 C   0  0  0  0  0  0
   13.2150    3.8430   54.3560 C   0  0  0  0  0  0
   13.7300    2.9310   53.3740 C   0  0  0  0  0  0
   10.4830    4.1680   51.7400 C   0  0  2  0  0  0
   10.8130    5.4580   50.7940 C   0  0  1  0  0  0
    9.5820    6.4060   50.5740 C   0  0  1  0  0  0
    9.1140    6.8570   51.9850 C   0  0  0  0  0  0
    9.1070    5.7860   53.1290 C   0  0  1  0  0  0
    9.3440    4.4400   52.6750 O   0  0  0  0  0  0
   13.3300    6.2860   58.5780 O   0  0  0  0  0  0
   10.0190    7.5100   49.6830 N   0  3  0  0  0  0
    9.8970    7.1980   48.2210 C   0  0  0  0  0  0
   11.8280    6.2980   51.4740 O   0  0  0  0  0  0
   13.1780    6.2910   50.9420 C   0  0  0  0  0  0
    9.8400    3.0430   50.8720 C   0  0  0  0  0  0
   15.6484    2.1173   54.1683 H   0  0  0  0  0  0
   16.0948    0.6672   52.1647 H   0  0  0  0  0  0
   14.4761    0.6229   50.2189 H   0  0  0  0  0  0
   12.3937    2.0214   50.2444 H   0  0  0  0  0  0
    7.6567    7.7085   54.7524 H   0  0  0  0  0  0
    7.5405    9.0857   56.8943 H   0  0  0  0  0  0
    9.2962    8.9775   58.6306 H   0  0  0  0  0  0
   11.3393    7.4783   58.3991 H   0  0  0  0  0  0
   15.5707    4.6916   58.3807 H   0  0  0  0  0  0
   15.8452    4.2188   55.8884 H   0  0  0  0  0  0
   14.9629    2.8766   56.6925 H   0  0  0  0  0  0
   11.1911    5.1131   49.8203 H   0  0  0  0  0  0
    8.7220    5.9710   50.0437 H   0  0  0  0  0  0
    9.7691    7.6624   52.3485 H   0  0  0  0  0  0
    8.0787    7.2242   51.9280 H   0  0  0  0  0  0
    8.0817    5.9039   53.5095 H   0  0  0  0  0  0
    9.4057    8.4023   49.8770 H   0  0  0  0  0  0
   11.0763    7.7423   49.8784 H   0  0  0  0  0  0
   10.2388    8.0618   47.6320 H   0  0  0  0  0  0
    8.8460    6.9817   47.9787 H   0  0  0  0  0  0
   10.5167    6.3216   47.9802 H   0  0  0  0  0  0
   13.8133    6.9560   51.5455 H   0  0  0  0  0  0
   13.1634    6.6438   49.9002 H   0  0  0  0  0  0
   13.5806    5.2679   50.9771 H   0  0  0  0  0  0
   10.5595    2.7127   50.1083 H   0  0  0  0  0  0
    8.9357    3.4309   50.3804 H   0  0  0  0  0  0
    9.5714    2.1920   51.5152 H   0  0  0  0  0  0
  1  2  2  0  0  0
  1 23  1  0  0  0
  1 36  1  0  0  0
  2  3  1  0  0  0
  2 37  1  0  0  0
  3  4  2  0  0  0
  3 38  1  0  0  0
  4  5  1  0  0  0
  4 39  1  0  0  0
  5  6  1  0  0  0
  5 23  2  0  0  0
  6  7  1  0  0  0
  6 24  1  0  0  0
  7  8  1  0  0  0
  7 22  2  0  0  0
  8  9  1  0  0  0
  8 16  2  0  0  0
  9 10  1  0  0  0
  9 28  1  0  0  0
 10 11  1  0  0  0
 10 15  2  0  0  0
 11 12  2  0  0  0
 11 40  1  0  0  0
 12 13  1  0  0  0
 12 41  1  0  0  0
 13 14  2  0  0  0
 13 42  1  0  0  0
 14 15  1  0  0  0
 14 43  1  0  0  0
 15 16  1  0  0  0
 16 17  1  0  0  0
 17 18  1  0  0  0
 17 21  2  0  0  0
 18 19  1  0  0  0
 18 30  2  0  0  0
 19 20  1  0  0  0
 19 44  1  0  0  0
 20 21  1  0  0  0
 20 45  1  0  0  0
 20 46  1  0  0  0
 21 22  1  0  0  0
 22 23  1  0  0  0
 24 25  1  0  0  0
 24 29  1  0  0  0
 24 35  1  0  0  0
 25 26  1  0  0  0
 25 33  1  0  0  0
 25 47  1  0  0  0
 26 27  1  0  0  0
 26 31  1  0  0  0
 26 48  1  0  0  0
 27 28  1  0  0  0
 27 49  1  0  0  0
 27 50  1  0  0  0
 28 29  1  0  0  0
 28 51  1  0  0  0
 31 32  1  0  0  0
 31 52  1  0  0  0
 31 53  1  0  0  0
 32 54  1  0  0  0
 32 55  1  0  0  0
 32 56  1  0  0  0
 33 34  1  0  0  0
 34 57  1  0  0  0
 34 58  1  0  0  0
 34 59  1  0  0  0
 35 60  1  0  0  0
 35 61  1  0  0  0
 35 62  1  0  0  0
M  CHG  1  31   1
M  END
> <s_m_source_file>
../1u59_ligand.sdf

> <i_m_source_file_index>
1

> <s_epik_input>
W2NIXTFbY0hdW2NIXVtjSF1jKGMxbjJbQ0BdMzRbQ0gzXSljNWMyYzZuKFtDQEhdKE80KVtDSDJdW0NAQEhdKFtOSDIrXVtDSDNdKVtDQEhdM09bQ0gzXSljN2MoW2NIXVtjSF1bY0hdW2NIXTcpYzZjOGM1W0NIMl1bTkhdQzg9Tw==

> <s_epik_cmdline>
J2VwaWtfYXBwJywgJy1pbWFlJywgJ2xpZ2FuZF9wcm8ubWFlJywgJy1vbWFlJywgJ2xpZ2FuZF9wcmVwLm1hZScsICctbXMnLCAnMScsICctcGgnLCAnNycsICctcGh0JywgJzAuNScsICctbnQn

> <r_epik_Ionization_Penalty>
  0.0560

> <r_epik_Ionization_Penalty_Charging>
  0.0560

> <r_epik_Ionization_Penalty_Neutral>
  0.0000

> <r_epik_State_Penalty>
  0.0482

> <r_epik_Charging_Adjusted_Penalty>
0.104192696511962

> <i_epik_Tot_Q>
1

> <i_epik_Tot_abs_Q>
1

> <s_epik_Chemistry_Notes>
This compound contains an acetal/aminal-like group ( X-CH(R)-Y where X, Y are N, S, or O) that may be acid/base labile, releasing an aldehyde.

$$$$
