1u65_ligand
                    3D
 Schrodinger Suite 2020-3.
 82 88  0  0  1  0            999 V2000
  -17.1880  113.1980   39.6920 N   0  0  0  0  0  0
  -14.7920  114.6650   41.9130 N   0  0  0  0  0  0
  -22.3930  109.6920   38.4690 O   0  0  0  0  0  0
  -22.3400  110.7420   40.4830 O   0  0  0  0  0  0
  -13.1470  115.6670   43.3350 O   0  0  0  0  0  0
  -10.6340  116.6170   39.7580 O   0  0  0  0  0  0
  -10.2530  116.5940   37.5360 O   0  0  0  0  0  0
  -12.0750  114.3160   37.6060 O   0  0  0  0  0  0
  -18.4570  112.5880   39.9820 C   0  0  0  0  0  0
  -21.0510  111.3550   40.4030 C   0  0  0  0  0  0
  -14.5250  114.5560   39.4770 C   0  0  0  0  0  0
  -16.8580  113.6310   42.1470 C   0  0  0  0  0  0
  -19.0140  112.4670   41.4010 C   0  0  0  0  0  0
  -18.1540  113.0190   42.4880 C   0  0  0  0  0  0
  -22.9990  109.9900   39.4260 C   0  0  0  0  0  0
  -15.2680  114.2870   40.5960 C   0  0  0  0  0  0
  -20.3510  111.8210   41.5400 C   0  0  0  0  0  0
  -19.1750  112.0970   38.7460 C   0  0  0  0  0  0
  -20.4190  111.5130   39.0130 C   0  0  0  0  0  0
  -16.5110  113.6550   40.7390 C   0  0  0  0  0  0
  -12.7150  115.6460   40.8750 C   0  0  0  0  0  0
  -13.2220  115.2500   39.6060 C   0  0  0  0  0  0
  -13.4830  115.3720   42.1550 C   0  0  0  0  0  0
  -11.3470  116.3710   41.0370 C   0  0  0  0  0  0
  -15.7620  114.2810   42.9830 C   0  0  0  0  0  0
  -11.0060  116.2960   38.4640 C   0  0  0  0  0  0
  -13.3480  116.1900   37.2330 C   0  0  0  0  0  0
  -12.4080  115.5560   38.2690 C   0  0  1  0  0  0
  -18.6660  112.9340   43.9550 C   0  0  0  0  0  0
  -19.4490  114.1850   44.5460 C   0  0  0  0  0  0
  -13.8850  117.4950   37.5520 C   0  0  0  0  0  0
  -24.3080  109.6750   39.6580 N   0  0  0  0  0  0
  -25.9180  105.8270   38.9850 N   0  3  0  0  0  0
  -24.4430  107.3940   40.2980 C   0  0  0  0  0  0
  -25.7120  109.8060   39.1260 C   0  0  0  0  0  0
  -25.7680  107.2530   39.5760 C   0  0  0  0  0  0
  -24.2460  108.8320   40.8410 C   0  0  0  0  0  0
  -27.0820  105.7300   37.9090 C   0  0  0  0  0  0
  -26.8590  104.4570   37.1480 C   0  0  0  0  0  0
  -26.2050  104.8090   40.0480 C   0  0  0  0  0  0
  -26.3350  103.3520   39.5280 C   0  0  0  0  0  0
  -27.0490  103.2300   38.0940 C   0  0  0  0  0  0
  -25.9180  108.3650   38.4450 C   0  0  0  0  0  0
  -11.3964  113.5984   38.0903 H   0  0  0  0  0  0
  -14.8914  114.2602   38.4939 H   0  0  0  0  0  0
  -20.7938  111.7067   42.5294 H   0  0  0  0  0  0
  -18.7629  112.1890   37.7411 H   0  0  0  0  0  0
  -20.9872  111.1386   38.1614 H   0  0  0  0  0  0
  -10.7234  115.7420   41.6893 H   0  0  0  0  0  0
  -11.5472  117.3308   41.5357 H   0  0  0  0  0  0
  -15.2757  113.5911   43.6883 H   0  0  0  0  0  0
  -16.0913  115.1827   43.5202 H   0  0  0  0  0  0
  -12.8133  116.3132   36.2796 H   0  0  0  0  0  0
  -14.2208  115.5378   37.0822 H   0  0  0  0  0  0
  -19.3634  112.0888   44.0515 H   0  0  0  0  0  0
  -17.8128  112.7846   44.6331 H   0  0  0  0  0  0
  -19.7444  113.9754   45.5846 H   0  0  0  0  0  0
  -20.3475  114.3747   43.9404 H   0  0  0  0  0  0
  -18.7969  115.0705   44.5219 H   0  0  0  0  0  0
  -14.5378  117.8329   36.7336 H   0  0  0  0  0  0
  -13.0590  118.2098   37.6811 H   0  0  0  0  0  0
  -14.4665  117.4344   38.4837 H   0  0  0  0  0  0
  -24.9359  105.5922   38.5487 H   0  0  0  0  0  0
  -24.4108  106.6932   41.1453 H   0  0  0  0  0  0
  -23.6209  107.1673   39.6032 H   0  0  0  0  0  0
  -26.4032  110.0005   39.9593 H   0  0  0  0  0  0
  -25.7566  110.6401   38.4103 H   0  0  0  0  0  0
  -26.5497  107.3849   40.3386 H   0  0  0  0  0  0
  -23.2685  108.9572   41.3296 H   0  0  0  0  0  0
  -25.0449  109.1213   41.5397 H   0  0  0  0  0  0
  -28.0550  105.7144   38.4218 H   0  0  0  0  0  0
  -27.0349  106.6006   37.2384 H   0  0  0  0  0  0
  -27.5820  104.3924   36.3215 H   0  0  0  0  0  0
  -25.8366  104.4466   36.7423 H   0  0  0  0  0  0
  -25.3913  104.8124   40.7881 H   0  0  0  0  0  0
  -27.1543  105.0562   40.5457 H   0  0  0  0  0  0
  -25.3339  102.9068   39.4306 H   0  0  0  0  0  0
  -26.9316  102.7609   40.2385 H   0  0  0  0  0  0
  -28.1210  103.0811   38.2906 H   0  0  0  0  0  0
  -26.6357  102.3302   37.6150 H   0  0  0  0  0  0
  -26.9200  108.3124   37.9941 H   0  0  0  0  0  0
  -25.1567  108.2158   37.6652 H   0  0  0  0  0  0
  1  9  2  0  0  0
  1 20  1  0  0  0
  2 16  1  0  0  0
  2 23  1  0  0  0
  2 25  1  0  0  0
  3 15  2  0  0  0
  4 10  1  0  0  0
  4 15  1  0  0  0
  5 23  2  0  0  0
  6 24  1  0  0  0
  6 26  1  0  0  0
  7 26  2  0  0  0
  8 28  1  0  0  0
  8 44  1  0  0  0
  9 13  1  0  0  0
  9 18  1  0  0  0
 10 17  2  0  0  0
 10 19  1  0  0  0
 11 16  2  0  0  0
 11 22  1  0  0  0
 11 45  1  0  0  0
 12 14  1  0  0  0
 12 20  2  0  0  0
 12 25  1  0  0  0
 13 14  2  0  0  0
 13 17  1  0  0  0
 14 29  1  0  0  0
 15 32  1  0  0  0
 16 20  1  0  0  0
 17 46  1  0  0  0
 18 19  2  0  0  0
 18 47  1  0  0  0
 19 48  1  0  0  0
 21 22  2  0  0  0
 21 23  1  0  0  0
 21 24  1  0  0  0
 22 28  1  0  0  0
 24 49  1  0  0  0
 24 50  1  0  0  0
 25 51  1  0  0  0
 25 52  1  0  0  0
 26 28  1  0  0  0
 27 28  1  0  0  0
 27 31  1  0  0  0
 27 53  1  0  0  0
 27 54  1  0  0  0
 29 30  1  0  0  0
 29 55  1  0  0  0
 29 56  1  0  0  0
 30 57  1  0  0  0
 30 58  1  0  0  0
 30 59  1  0  0  0
 31 60  1  0  0  0
 31 61  1  0  0  0
 31 62  1  0  0  0
 32 35  1  0  0  0
 32 37  1  0  0  0
 33 36  1  0  0  0
 33 38  1  0  0  0
 33 40  1  0  0  0
 33 63  1  0  0  0
 34 36  1  0  0  0
 34 37  1  0  0  0
 34 64  1  0  0  0
 34 65  1  0  0  0
 35 43  1  0  0  0
 35 66  1  0  0  0
 35 67  1  0  0  0
 36 43  1  0  0  0
 36 68  1  0  0  0
 37 69  1  0  0  0
 37 70  1  0  0  0
 38 39  1  0  0  0
 38 71  1  0  0  0
 38 72  1  0  0  0
 39 42  1  0  0  0
 39 73  1  0  0  0
 39 74  1  0  0  0
 40 41  1  0  0  0
 40 75  1  0  0  0
 40 76  1  0  0  0
 41 42  1  0  0  0
 41 77  1  0  0  0
 41 78  1  0  0  0
 42 79  1  0  0  0
 42 80  1  0  0  0
 43 81  1  0  0  0
 43 82  1  0  0  0
M  CHG  1  33   1
M  END
> <s_m_source_file>
../1u65_ligand.sdf

> <i_m_source_file_index>
1

> <s_epik_input>
W0NIM11bQ0gyXVtDQEBdMShbT0hdKUMoPU8pT1tDSDJdYyhjMj1PKWMxW2NIXWMobjIzKWM0YyhbQ0gyXTMpYyhbQ0gyXVtDSDNdKWM1YyhuNClbY0hdW2NIXWMoW2NIXTUpT0MoPU8pTjZbQ0gyXVtDSDJdW0NIXShbQ0gyXVtDSDJdNilbTkgrXTdbQ0gyXVtDSDJdW0NIMl1bQ0gyXVtDSDJdNw==

> <s_epik_cmdline>
J2VwaWtfYXBwJywgJy1pbWFlJywgJ2xpZ2FuZF9wcm8ubWFlJywgJy1vbWFlJywgJ2xpZ2FuZF9wcmVwLm1hZScsICctbXMnLCAnMScsICctcGgnLCAnNycsICctcGh0JywgJzAuNScsICctbnQn

> <r_lp_tautomer_probability>
1

> <r_epik_Ionization_Penalty>
  0.0037

> <r_epik_Ionization_Penalty_Charging>
  0.0037

> <r_epik_Ionization_Penalty_Neutral>
  0.0000

> <r_epik_State_Penalty>
 -0.0000

> <r_epik_Charging_Adjusted_Penalty>
0.00366638459057495

> <i_epik_Tot_Q>
1

> <i_epik_Tot_abs_Q>
1

> <s_epik_Chemistry_Notes>
This compound has an ester and may undergo hydrolysis at high or low pH.

$$$$
