1u71_ligand
                    3D
 Schrodinger Suite 2020-3.
 43 45  0  0  1  0            999 V2000
   28.7960   13.1390   -4.3190 N   0  0  0  0  0  0
   27.5960   12.6440   -4.4550 C   0  0  0  0  0  0
   27.1960   12.3270   -5.7000 N   0  0  0  0  0  0
   26.7520   12.3650   -3.4240 N   0  0  0  0  0  0
   27.1020   12.6130   -2.2120 C   0  0  0  0  0  0
   26.1370   12.3020   -1.3320 N   0  0  0  0  0  0
   28.3750   13.2270   -1.9150 C   0  0  0  0  0  0
   28.9030   13.6070   -0.6740 C   0  0  0  0  0  0
   28.1790   13.4400    0.6520 C   0  0  0  0  0  0
   30.1710   14.1720   -0.6450 C   0  0  0  0  0  0
   30.8480   14.3570   -1.8610 C   0  0  0  0  0  0
   30.4070   14.0210   -3.0420 N   0  0  0  0  0  0
   29.1880   13.4550   -3.0760 C   0  0  0  0  0  0
   30.8230   14.6760    0.6050 C   0  0  0  0  0  0
   32.2470   14.3200    0.9540 C   0  0  0  0  0  0
   33.2770   15.2500    0.8970 C   0  0  0  0  0  0
   32.8830   16.5130    0.4990 O   0  0  0  0  0  0
   33.9050   17.4780    0.2510 C   0  0  0  0  0  0
   34.5470   14.8740    1.2670 C   0  0  0  0  0  0
   34.8080   13.5700    1.7060 C   0  0  0  0  0  0
   33.8190   12.6740    1.7400 C   0  0  0  0  0  0
   33.8000   11.3260    2.0990 O   0  0  0  0  0  0
   32.4620   10.8250    2.0700 C   0  0  0  0  0  0
   32.5330   13.0600    1.3960 C   0  0  0  0  0  0
   27.8509   12.5373   -6.5584 H   0  0  0  0  0  0
   26.2141   11.8576   -5.8594 H   0  0  0  0  0  0
   25.2046   11.8340   -1.6808 H   0  0  0  0  0  0
   26.2787   12.5152   -0.2622 H   0  0  0  0  0  0
   27.1937   12.9833    0.4768 H   0  0  0  0  0  0
   28.0480   14.4246    1.1247 H   0  0  0  0  0  0
   28.7714   12.7913    1.3140 H   0  0  0  0  0  0
   31.8318   14.8239   -1.8141 H   0  0  0  0  0  0
   30.8369   15.7759    0.5934 H   0  0  0  0  0  0
   30.2569   14.3257    1.4807 H   0  0  0  0  0  0
   33.4448   18.4289   -0.0556 H   0  0  0  0  0  0
   34.5653   17.1150   -0.5504 H   0  0  0  0  0  0
   34.4925   17.6337    1.1679 H   0  0  0  0  0  0
   35.3595   15.5990    1.2180 H   0  0  0  0  0  0
   35.8135   13.2881    2.0183 H   0  0  0  0  0  0
   32.4621    9.7625    2.3548 H   0  0  0  0  0  0
   32.0522   10.9325    1.0549 H   0  0  0  0  0  0
   31.8419   11.3944    2.7780 H   0  0  0  0  0  0
   31.7240   12.3345    1.4810 H   0  0  0  0  0  0
  1  2  2  0  0  0
  1 13  1  0  0  0
  2  3  1  0  0  0
  2  4  1  0  0  0
  3 25  1  0  0  0
  3 26  1  0  0  0
  4  5  2  0  0  0
  5  6  1  0  0  0
  5  7  1  0  0  0
  6 27  1  0  0  0
  6 28  1  0  0  0
  7  8  1  0  0  0
  7 13  2  0  0  0
  8  9  1  0  0  0
  8 10  2  0  0  0
  9 29  1  0  0  0
  9 30  1  0  0  0
  9 31  1  0  0  0
 10 11  1  0  0  0
 10 14  1  0  0  0
 11 12  2  0  0  0
 11 32  1  0  0  0
 12 13  1  0  0  0
 14 15  1  0  0  0
 14 33  1  0  0  0
 14 34  1  0  0  0
 15 16  2  0  0  0
 15 24  1  0  0  0
 16 17  1  0  0  0
 16 19  1  0  0  0
 17 18  1  0  0  0
 18 35  1  0  0  0
 18 36  1  0  0  0
 18 37  1  0  0  0
 19 20  2  0  0  0
 19 38  1  0  0  0
 20 21  1  0  0  0
 20 39  1  0  0  0
 21 22  1  0  0  0
 21 24  2  0  0  0
 22 23  1  0  0  0
 23 40  1  0  0  0
 23 41  1  0  0  0
 23 42  1  0  0  0
 24 43  1  0  0  0
M  END
> <s_m_source_file>
../1u71_ligand.sdf

> <i_m_source_file_index>
1

> <s_epik_input>
W05IMl1jMW5jKFtOSDJdKW5jKGMxMiluW2NIXWMoYzJbQ0gzXSlbQ0gyXWMzYyhPW0NIM10pW2NIXVtjSF1jKFtjSF0zKU9bQ0gzXQ==

> <s_epik_cmdline>
J2VwaWtfYXBwJywgJy1pbWFlJywgJ2xpZ2FuZF9wcm8ubWFlJywgJy1vbWFlJywgJ2xpZ2FuZF9wcmVwLm1hZScsICctbXMnLCAnMScsICctcGgnLCAnNycsICctcGh0JywgJzAuNScsICctbnQn

> <r_lp_tautomer_probability>
1

> <r_epik_Ionization_Penalty>
  0.2363

> <r_epik_Ionization_Penalty_Charging>
  0.0000

> <r_epik_Ionization_Penalty_Neutral>
  0.2363

> <r_epik_State_Penalty>
  0.2135

> <r_epik_Charging_Adjusted_Penalty>
0.213525789589801

> <i_epik_Tot_Q>
0

> <i_epik_Tot_abs_Q>
0

$$$$
