1u9l_ligand
                    3D
 Schrodinger Suite 2020-3.
123123  0  0  1  0            999 V2000
   37.5600   58.9670   11.1710 N   0  3  0  0  0  0
   38.5700   57.8780   11.2930 C   0  0  2  0  0  0
   39.7830   58.3800   12.0670 C   0  0  0  0  0  0
   40.2610   59.4900   11.8370 O   0  0  0  0  0  0
   39.0250   57.4080    9.9070 C   0  0  0  0  0  0
   37.8630   57.0430    8.9930 C   0  0  0  0  0  0
   38.0680   56.5310    7.8930 O   0  0  0  0  0  0
   36.6400   57.3120    9.4420 N   0  0  0  0  0  0
   40.2830   57.5600   12.9850 N   0  0  0  0  0  0
   41.4480   57.9470   13.7660 C   0  0  2  0  0  0
   42.6750   57.8450   12.8710 C   0  0  0  0  0  0
   42.6820   57.0980   11.8950 O   0  0  0  0  0  0
   41.6060   57.0290   14.9780 C   0  0  0  0  0  0
   41.8010   55.5800   14.6170 C   0  0  0  0  0  0
   41.7930   54.6930   15.8500 C   0  0  0  0  0  0
   41.9470   53.2890   15.4820 N   0  0  0  0  0  0
   41.9740   52.2820   16.3480 C   0  0  0  0  0  0
   42.1180   51.0390   15.9090 N   0  0  0  0  0  0
   41.8590   52.5170   17.6470 N   0  3  0  0  0  0
   43.7310   58.6030   13.1860 N   0  0  0  0  0  0
   44.9410   58.5480   12.3620 C   0  0  2  0  0  0
   45.6750   57.2090   12.4100 C   0  0  0  0  0  0
   45.6780   56.5180   13.4330 O   0  0  0  0  0  0
   45.7900   59.6950   12.9130 C   0  0  0  0  0  0
   45.3660   59.7740   14.3480 C   0  0  0  0  0  0
   43.8680   59.5910   14.2700 C   0  0  0  0  0  0
   46.2820   56.8500   11.2820 N   0  0  0  0  0  0
   47.0550   55.6220   11.1530 C   0  0  2  0  0  0
   48.4830   56.0100   11.4920 C   0  0  0  0  0  0
   49.1010   56.8110   10.7890 O   0  0  0  0  0  0
   47.0060   55.0900    9.7140 C   0  0  2  0  0  0
   45.5570   54.7860    9.3320 C   0  0  0  0  0  0
   47.8850   53.8550    9.5880 C   0  0  0  0  0  0
   45.3690   54.4520    7.8700 C   0  0  0  0  0  0
   49.0090   55.4330   12.5650 N   0  0  0  0  0  0
   50.3480   55.7730   13.0210 C   0  0  2  0  0  0
   51.5060   54.9600   12.4540 C   0  0  0  0  0  0
   51.4730   53.7300   12.4350 O   0  0  0  0  0  0
   50.3900   55.7050   14.5450 C   0  0  0  0  0  0
   49.3100   56.5070   15.2740 C   0  0  0  0  0  0
   49.4320   56.2700   16.7740 C   0  0  0  0  0  0
   49.4540   57.9920   14.9470 C   0  0  0  0  0  0
   52.5290   55.6720   11.9900 N   0  0  0  0  0  0
   53.7380   55.0520   11.4620 C   0  0  2  0  0  0
   54.7840   55.2570   12.5530 C   0  0  0  0  0  0
   54.5570   56.0280   13.4860 O   0  0  0  0  0  0
   54.1950   55.7450   10.1730 C   0  0  0  0  0  0
   53.2670   55.5540    9.1180 O   0  0  0  0  0  0
   55.9190   54.5740   12.4440 N   0  0  0  0  0  0
   56.9760   54.7070   13.4390 C   0  0  2  0  0  0
   58.2780   55.1670   12.7840 C   0  0  0  0  0  0
   58.4110   54.9900   11.5530 O   0  5  0  0  0  0
   57.1890   53.3660   14.1480 C   0  0  0  0  0  0
   58.1680   53.3030   15.3210 C   0  0  0  0  0  0
   57.6970   54.2130   16.4460 C   0  0  0  0  0  0
   58.2640   51.8710   15.8090 C   0  0  0  0  0  0
   59.1530   55.6890   13.5060 O   0  0  0  0  0  0
   37.2464   59.2903   12.1746 H   0  0  0  0  0  0
   36.6861   58.5960   10.6155 H   0  0  0  0  0  0
   38.0021   59.8185   10.6329 H   0  0  0  0  0  0
   38.0851   57.0520   11.8339 H   0  0  0  0  0  0
   39.5968   58.2100    9.4173 H   0  0  0  0  0  0
   39.6606   56.5164   10.0125 H   0  0  0  0  0  0
   36.5064   57.7705   10.4329 H   0  0  0  0  0  0
   35.7623   57.0759    8.8224 H   0  0  0  0  0  0
   39.8089   56.5816   13.1524 H   0  0  0  0  0  0
   41.2864   58.9803   14.1068 H   0  0  0  0  0  0
   42.4832   57.3421   15.5632 H   0  0  0  0  0  0
   40.7049   57.0921   15.6058 H   0  0  0  0  0  0
   40.9887   55.2559   13.9498 H   0  0  0  0  0  0
   42.7670   55.4563   14.1056 H   0  0  0  0  0  0
   42.6237   54.9783   16.5123 H   0  0  0  0  0  0
   40.8393   54.8162   16.3841 H   0  0  0  0  0  0
   42.0507   53.0059   14.4241 H   0  0  0  0  0  0
   42.2134   50.8442   14.8306 H   0  0  0  0  0  0
   42.1420   50.2028   16.6232 H   0  0  0  0  0  0
   41.7396   53.5482   18.0109 H   0  0  0  0  0  0
   44.6633   58.6500   11.3025 H   0  0  0  0  0  0
   46.8562   59.4484   12.8014 H   0  0  0  0  0  0
   45.5666   60.6169   12.3560 H   0  0  0  0  0  0
   45.8603   58.9756   14.9209 H   0  0  0  0  0  0
   45.6516   60.7525   14.7614 H   0  0  0  0  0  0
   43.3365   60.5138   13.9943 H   0  0  0  0  0  0
   43.4367   59.1820   15.1956 H   0  0  0  0  0  0
   46.1801   57.5287   10.4223 H   0  0  0  0  0  0
   46.6321   54.8656   11.8305 H   0  0  0  0  0  0
   47.3966   55.8451    9.0159 H   0  0  0  0  0  0
   45.1979   53.9236    9.9128 H   0  0  0  0  0  0
   44.9287   55.6622    9.5502 H   0  0  0  0  0  0
   48.9174   54.1095    9.8697 H   0  0  0  0  0  0
   47.8664   53.4963    8.5483 H   0  0  0  0  0  0
   47.5068   53.0662   10.2549 H   0  0  0  0  0  0
   44.3062   54.2467    7.6745 H   0  0  0  0  0  0
   45.9666   53.5638    7.6170 H   0  0  0  0  0  0
   45.6974   55.3024    7.2544 H   0  0  0  0  0  0
   48.4147   54.6863   13.1121 H   0  0  0  0  0  0
   50.4632   56.7851   12.6057 H   0  0  0  0  0  0
   50.2703   54.6606   14.8688 H   0  0  0  0  0  0
   51.3557   56.0914   14.9028 H   0  0  0  0  0  0
   48.3135   56.1768   14.9453 H   0  0  0  0  0  0
   49.3253   55.1958   16.9853 H   0  0  0  0  0  0
   48.6419   56.8272   17.2987 H   0  0  0  0  0  0
   50.4169   56.6159   17.1209 H   0  0  0  0  0  0
   49.3627   58.1388   13.8607 H   0  0  0  0  0  0
   50.4390   58.3477   15.2836 H   0  0  0  0  0  0
   48.6640   58.5590   15.4613 H   0  0  0  0  0  0
   52.4387   56.7680   12.0148 H   0  0  0  0  0  0
   53.5335   53.9959   11.2324 H   0  0  0  0  0  0
   54.2965   56.8253   10.3537 H   0  0  0  0  0  0
   55.1655   55.3330    9.8594 H   0  0  0  0  0  0
   53.4606   55.9943    8.1288 H   0  0  0  0  0  0
   56.0536   53.8998   11.5853 H   0  0  0  0  0  0
   56.6303   55.4724   14.1493 H   0  0  0  0  0  0
   56.2329   53.0151   14.5636 H   0  0  0  0  0  0
   57.5690   52.6266   13.4276 H   0  0  0  0  0  0
   59.1637   53.6405   14.9974 H   0  0  0  0  0  0
   57.6321   55.2476   16.0779 H   0  0  0  0  0  0
   58.4122   54.1648   17.2803 H   0  0  0  0  0  0
   56.7062   53.8844   16.7929 H   0  0  0  0  0  0
   58.6052   51.2254   14.9863 H   0  0  0  0  0  0
   57.2752   51.5340   16.1537 H   0  0  0  0  0  0
   58.9813   51.8145   16.6411 H   0  0  0  0  0  0
   41.8830   51.6809   18.3614 H   0  0  0  0  0  0
  1  2  1  0  0  0
  1 58  1  0  0  0
  1 59  1  0  0  0
  1 60  1  0  0  0
  2  3  1  0  0  0
  2  5  1  0  0  0
  2 61  1  0  0  0
  3  4  2  0  0  0
  3  9  1  0  0  0
  5  6  1  0  0  0
  5 62  1  0  0  0
  5 63  1  0  0  0
  6  7  2  0  0  0
  6  8  1  0  0  0
  8 64  1  0  0  0
  8 65  1  0  0  0
  9 10  1  0  0  0
  9 66  1  0  0  0
 10 11  1  0  0  0
 10 13  1  0  0  0
 10 67  1  0  0  0
 11 12  2  0  0  0
 11 20  1  0  0  0
 13 14  1  0  0  0
 13 68  1  0  0  0
 13 69  1  0  0  0
 14 15  1  0  0  0
 14 70  1  0  0  0
 14 71  1  0  0  0
 15 16  1  0  0  0
 15 72  1  0  0  0
 15 73  1  0  0  0
 16 17  1  0  0  0
 16 74  1  0  0  0
 17 18  1  0  0  0
 17 19  2  0  0  0
 18 75  1  0  0  0
 18 76  1  0  0  0
 19 77  1  0  0  0
 19123  1  0  0  0
 20 21  1  0  0  0
 20 26  1  0  0  0
 21 22  1  0  0  0
 21 24  1  0  0  0
 21 78  1  0  0  0
 22 23  2  0  0  0
 22 27  1  0  0  0
 24 25  1  0  0  0
 24 79  1  0  0  0
 24 80  1  0  0  0
 25 26  1  0  0  0
 25 81  1  0  0  0
 25 82  1  0  0  0
 26 83  1  0  0  0
 26 84  1  0  0  0
 27 28  1  0  0  0
 27 85  1  0  0  0
 28 29  1  0  0  0
 28 31  1  0  0  0
 28 86  1  0  0  0
 29 30  2  0  0  0
 29 35  1  0  0  0
 31 32  1  0  0  0
 31 33  1  0  0  0
 31 87  1  0  0  0
 32 34  1  0  0  0
 32 88  1  0  0  0
 32 89  1  0  0  0
 33 90  1  0  0  0
 33 91  1  0  0  0
 33 92  1  0  0  0
 34 93  1  0  0  0
 34 94  1  0  0  0
 34 95  1  0  0  0
 35 36  1  0  0  0
 35 96  1  0  0  0
 36 37  1  0  0  0
 36 39  1  0  0  0
 36 97  1  0  0  0
 37 38  2  0  0  0
 37 43  1  0  0  0
 39 40  1  0  0  0
 39 98  1  0  0  0
 39 99  1  0  0  0
 40 41  1  0  0  0
 40 42  1  0  0  0
 40100  1  0  0  0
 41101  1  0  0  0
 41102  1  0  0  0
 41103  1  0  0  0
 42104  1  0  0  0
 42105  1  0  0  0
 42106  1  0  0  0
 43 44  1  0  0  0
 43107  1  0  0  0
 44 45  1  0  0  0
 44 47  1  0  0  0
 44108  1  0  0  0
 45 46  2  0  0  0
 45 49  1  0  0  0
 47 48  1  0  0  0
 47109  1  0  0  0
 47110  1  0  0  0
 48111  1  0  0  0
 49 50  1  0  0  0
 49112  1  0  0  0
 50 51  1  0  0  0
 50 53  1  0  0  0
 50113  1  0  0  0
 51 52  1  0  0  0
 51 57  2  0  0  0
 53 54  1  0  0  0
 53114  1  0  0  0
 53115  1  0  0  0
 54 55  1  0  0  0
 54 56  1  0  0  0
 54116  1  0  0  0
 55117  1  0  0  0
 55118  1  0  0  0
 55119  1  0  0  0
 56120  1  0  0  0
 56121  1  0  0  0
 56122  1  0  0  0
M  CHG  3   1   1  19   1  52  -1
M  END
> <s_m_source_file>
../1u9l_ligand.sdf

> <i_m_source_file_index>
1

> <s_epik_input>
W0hdL049QyhbTkgyXSlcW05IXVtDSDJdW0NIMl1bQ0gyXVtDQEhdKFtOSF1DKD1PKVtDQEBIXShbTkgzK10pW0NIMl1DKD1PKVtOSDJdKUMoPU8pTjFbQ0BASF0oW0NIMl1bQ0gyXVtDSDJdMSlDKD1PKVtOSF1bQ0BASF0oW0NAQEhdKFtDSDNdKVtDSDJdW0NIM10pQyg9TylbTkhdW0NAQEhdKFtDSDJdW0NIXShbQ0gzXSlbQ0gzXSlDKD1PKVtOSF1bQ0BASF0oW0NIMl1bT0hdKUMoPU8pW05IXVtDQEhdKEMoPU8pW09IXSlbQ0gyXVtDSF0oW0NIM10pW0NIM10=

> <s_epik_cmdline>
J2VwaWtfYXBwJywgJy1pbWFlJywgJ2xpZ2FuZF9wcm8ubWFlJywgJy1vbWFlJywgJ2xpZ2FuZF9wcmVwLm1hZScsICctbXMnLCAnMScsICctcGgnLCAnNycsICctcGh0JywgJzAuNScsICctbnQn

> <r_epik_Ionization_Penalty>
  0.2078

> <r_epik_Ionization_Penalty_Charging>
  0.2078

> <r_epik_Ionization_Penalty_Neutral>
  0.0000

> <r_epik_State_Penalty>
  0.1976

> <r_epik_Charging_Adjusted_Penalty>
0.405347653429405

> <i_epik_Tot_Q>
1

> <i_epik_Tot_abs_Q>
3

> <s_epik_Chemistry_Notes>
This compound has an imine and may undergo hydrolysis.

$$$$
