1u9v_ligand
                    3D
 Schrodinger Suite 2020-3.
 58 61  0  0  1  0            999 V2000
   62.3790   15.3030  -12.1540 C   0  0  0  0  0  0
   63.0380   12.5040  -12.7930 C   0  0  0  0  0  0
   62.3630   13.4030  -13.7890 N   0  3  2  0  0  0
   61.5220   14.4630  -13.1230 C   0  0  0  0  0  0
   63.9080   13.3280  -11.8230 C   0  0  0  0  0  0
   63.0760   14.3980  -11.1580 N   0  0  1  0  0  0
   61.5390   12.5880  -14.7240 C   0  0  0  0  0  0
   63.9400   15.2200  -10.2070 C   0  0  0  0  0  0
   64.4460   14.4170   -8.9630 C   0  0  0  0  0  0
   63.3140   13.7570   -8.2910 N   0  0  0  0  0  0
   62.9500   12.4070   -8.3730 C   0  0  0  0  0  0
   61.8850   12.1330   -7.6780 N   0  0  0  0  0  0
   62.4010   14.3430   -7.4610 C   0  0  0  0  0  0
   62.3040   15.6480   -7.0420 N   0  0  0  0  0  0
   61.2460   15.9170   -6.2170 C   0  0  0  0  0  0
   60.3550   14.9620   -5.8560 N   0  0  0  0  0  0
   60.4960   13.6960   -6.3000 C   0  0  0  0  0  0
   61.5450   13.3590   -7.1080 C   0  0  0  0  0  0
   59.5560   12.7030   -5.9510 N   0  0  0  0  0  0
   58.3590   12.8580   -5.1700 C   0  0  0  0  0  0
   57.7400   11.5410   -4.6810 C   0  0  0  0  0  0
   56.4420   11.7760   -3.8700 C   0  0  0  0  0  0
   55.4070   12.5800   -4.7010 C   0  0  0  0  0  0
   55.9890   13.9200   -5.2390 C   0  0  0  0  0  0
   57.3200   13.6970   -5.9710 C   0  0  0  0  0  0
   61.9380   18.1540   -5.9350 N   0  0  0  0  0  0
   61.0440   17.2960   -5.6960 C   0  0  0  0  0  0
   63.1351   15.8627  -12.7242 H   0  0  0  0  0  0
   61.7332   16.0085  -11.6107 H   0  0  0  0  0  0
   62.2764   11.9600  -12.2150 H   0  0  0  0  0  0
   63.6788   11.7845  -13.3237 H   0  0  0  0  0  0
   63.1456   13.9200  -14.3637 H   0  0  0  0  0  0
   60.7090   13.9756  -12.5650 H   0  0  0  0  0  0
   61.0945   15.1180  -13.8964 H   0  0  0  0  0  0
   64.3255   12.6646  -11.0512 H   0  0  0  0  0  0
   64.7284   13.8039  -12.3803 H   0  0  0  0  0  0
   62.1711   11.8225  -15.1978 H   0  0  0  0  0  0
   61.1103   13.2405  -15.4989 H   0  0  0  0  0  0
   60.7269   12.0989  -14.1660 H   0  0  0  0  0  0
   64.8278   15.5871  -10.7428 H   0  0  0  0  0  0
   63.3594   16.0751   -9.8305 H   0  0  0  0  0  0
   65.1674   13.6530   -9.2884 H   0  0  0  0  0  0
   64.9338   15.1046   -8.2564 H   0  0  0  0  0  0
   63.4990   11.6670   -8.9554 H   0  0  0  0  0  0
   59.8263   11.7155   -6.3532 H   0  0  0  0  0  0
   58.7361   13.3759   -4.2758 H   0  0  0  0  0  0
   57.4944   10.9078   -5.5463 H   0  0  0  0  0  0
   58.4586   11.0159   -4.0345 H   0  0  0  0  0  0
   55.9996   10.8066   -3.5971 H   0  0  0  0  0  0
   56.6777   12.3416   -2.9565 H   0  0  0  0  0  0
   55.0838   11.9795   -5.5641 H   0  0  0  0  0  0
   54.5360   12.8165   -4.0722 H   0  0  0  0  0  0
   55.2751   14.3738   -5.9421 H   0  0  0  0  0  0
   56.1632   14.6078   -4.3984 H   0  0  0  0  0  0
   57.7392   14.6909   -6.1865 H   0  0  0  0  0  0
   57.0857   13.1852   -6.9160 H   0  0  0  0  0  0
   62.8310   17.8718   -6.5120 H   0  0  0  0  0  0
   60.1510   17.5782   -5.1190 H   0  0  0  0  0  0
  1  4  1  0  0  0
  1  6  1  0  0  0
  1 28  1  0  0  0
  1 29  1  0  0  0
  2  3  1  0  0  0
  2  5  1  0  0  0
  2 30  1  0  0  0
  2 31  1  0  0  0
  3  4  1  0  0  0
  3  7  1  0  0  0
  3 32  1  0  0  0
  4 33  1  0  0  0
  4 34  1  0  0  0
  5  6  1  0  0  0
  5 35  1  0  0  0
  5 36  1  0  0  0
  6  8  1  0  0  0
  7 37  1  0  0  0
  7 38  1  0  0  0
  7 39  1  0  0  0
  8  9  1  0  0  0
  8 40  1  0  0  0
  8 41  1  0  0  0
  9 10  1  0  0  0
  9 42  1  0  0  0
  9 43  1  0  0  0
 10 11  1  0  0  0
 10 13  1  0  0  0
 11 12  2  0  0  0
 11 44  1  0  0  0
 12 18  1  0  0  0
 13 14  1  0  0  0
 13 18  2  0  0  0
 14 15  2  0  0  0
 15 16  1  0  0  0
 15 27  1  0  0  0
 16 17  2  0  0  0
 17 18  1  0  0  0
 17 19  1  0  0  0
 19 20  1  0  0  0
 19 45  1  0  0  0
 20 21  1  0  0  0
 20 25  1  0  0  0
 20 46  1  0  0  0
 21 22  1  0  0  0
 21 47  1  0  0  0
 21 48  1  0  0  0
 22 23  1  0  0  0
 22 49  1  0  0  0
 22 50  1  0  0  0
 23 24  1  0  0  0
 23 51  1  0  0  0
 23 52  1  0  0  0
 24 25  1  0  0  0
 24 53  1  0  0  0
 24 54  1  0  0  0
 25 55  1  0  0  0
 25 56  1  0  0  0
 26 27  2  0  0  0
 26 57  1  0  0  0
 27 58  1  0  0  0
M  CHG  1   3   1
M  END
> <s_m_source_file>
../1u9v_ligand.sdf

> <i_m_source_file_index>
1

> <s_epik_input>
W0NIM11bTkBASCtdMVtDSDJdW0NIMl1bTkBIK10oW0NIMl1bQ0gyXTEpW0NIMl1bQ0gyXW4yW2NIXW5jKGMyMyljKG5jKG4zKS9bQ0hdPU5cW0hdKVtOSF1bQ0hdNFtDSDJdW0NIMl1bQ0gyXVtDSDJdW0NIMl00

> <s_epik_cmdline>
J2VwaWtfYXBwJywgJy1pbWFlJywgJ2xpZ2FuZF9wcm8ubWFlJywgJy1vbWFlJywgJ2xpZ2FuZF9wcmVwLm1hZScsICctbXMnLCAnMScsICctcGgnLCAnNycsICctcGh0JywgJzAuNScsICctbnQn

> <r_epik_Ionization_Penalty>
  0.0341

> <r_epik_Ionization_Penalty_Charging>
  0.0340

> <r_epik_Ionization_Penalty_Neutral>
  0.0002

> <r_epik_State_Penalty>
  0.0527

> <r_epik_Charging_Adjusted_Penalty>
0.086640954246394

> <i_epik_Tot_Q>
1

> <i_epik_Tot_abs_Q>
1

> <s_epik_Chemistry_Notes>
This compound has an imine and may undergo hydrolysis.

$$$$
