1u9w_ligand
                    3D
 Schrodinger Suite 2020-3.
 45 48  0  0  1  0            999 V2000
   62.9920   12.3710   -7.9980 C   0  0  0  0  0  0
   61.8080   12.1870   -7.5470 N   0  0  0  0  0  0
   61.5220   13.3370   -6.8120 C   0  0  0  0  0  0
   62.5410   14.2130   -6.8120 C   0  0  0  0  0  0
   63.6060   13.5630   -7.5330 N   0  0  0  0  0  0
   60.3940   13.6560   -6.1240 C   0  0  0  0  0  0
   62.4780   15.4630   -6.1750 N   0  0  0  0  0  0
   60.2970   14.8580   -5.4760 N   0  0  0  0  0  0
   61.3150   15.7390   -5.5220 C   0  0  0  0  0  0
   59.4020   12.6680   -6.1200 N   0  0  0  0  0  0
   64.9250   14.1010   -7.9460 C   0  0  0  0  0  0
   65.0390   15.6160   -7.9730 C   0  0  0  0  0  0
   64.8250   15.8900   -9.4290 C   0  0  0  0  0  0
   65.7520   14.8570  -10.0730 C   0  0  0  0  0  0
   65.3820   13.5880   -9.3230 C   0  0  0  0  0  0
   62.3070   17.8580   -4.8880 N   0  0  0  0  0  0
   58.2070   12.7750   -5.4030 C   0  0  0  0  0  0
   57.5300   14.0230   -5.1340 C   0  0  0  0  0  0
   56.3280   14.0170   -4.3680 C   0  0  0  0  0  0
   55.7850   12.7970   -3.8580 C   0  0  0  0  0  0
   56.4400   11.5700   -4.1160 C   0  0  0  0  0  0
   57.6540   11.5540   -4.8830 C   0  0  0  0  0  0
   58.2620   10.2600   -5.1460 O   0  0  0  0  0  0
   59.1330    9.6580   -4.2220 C   0  0  0  0  0  0
   61.1240   17.0340   -4.7970 C   0  0  0  0  0  0
   63.4839   11.6751   -8.6776 H   0  0  0  0  0  0
   59.5418   11.7459   -6.7033 H   0  0  0  0  0  0
   65.5458   13.7159   -7.1236 H   0  0  0  0  0  0
   64.2655   16.0535   -7.3247 H   0  0  0  0  0  0
   66.0335   15.9154   -7.6106 H   0  0  0  0  0  0
   63.7645   15.7384   -9.6786 H   0  0  0  0  0  0
   65.1093   16.9289   -9.6523 H   0  0  0  0  0  0
   65.5415   14.7971  -11.1510 H   0  0  0  0  0  0
   66.7989   15.1580   -9.9200 H   0  0  0  0  0  0
   66.2408   12.9125   -9.1961 H   0  0  0  0  0  0
   64.5558   13.0442   -9.8044 H   0  0  0  0  0  0
   63.1874   17.4973   -5.4401 H   0  0  0  0  0  0
   57.9351   14.9610   -5.5137 H   0  0  0  0  0  0
   55.8147   14.9576   -4.1679 H   0  0  0  0  0  0
   54.8669   12.8121   -3.2707 H   0  0  0  0  0  0
   56.0239   10.6381   -3.7332 H   0  0  0  0  0  0
   59.4757    8.6905   -4.6177 H   0  0  0  0  0  0
   58.6048    9.4986   -3.2704 H   0  0  0  0  0  0
   60.0002   10.3137   -4.0547 H   0  0  0  0  0  0
   60.2436   17.3947   -4.2449 H   0  0  0  0  0  0
  1  2  2  0  0  0
  1  5  1  0  0  0
  1 26  1  0  0  0
  2  3  1  0  0  0
  3  4  2  0  0  0
  3  6  1  0  0  0
  4  5  1  0  0  0
  4  7  1  0  0  0
  5 11  1  0  0  0
  6  8  2  0  0  0
  6 10  1  0  0  0
  7  9  2  0  0  0
  8  9  1  0  0  0
  9 25  1  0  0  0
 10 17  1  0  0  0
 10 27  1  0  0  0
 11 12  1  0  0  0
 11 15  1  0  0  0
 11 28  1  0  0  0
 12 13  1  0  0  0
 12 29  1  0  0  0
 12 30  1  0  0  0
 13 14  1  0  0  0
 13 31  1  0  0  0
 13 32  1  0  0  0
 14 15  1  0  0  0
 14 33  1  0  0  0
 14 34  1  0  0  0
 15 35  1  0  0  0
 15 36  1  0  0  0
 16 25  2  0  0  0
 16 37  1  0  0  0
 17 18  2  0  0  0
 17 22  1  0  0  0
 18 19  1  0  0  0
 18 38  1  0  0  0
 19 20  2  0  0  0
 19 39  1  0  0  0
 20 21  1  0  0  0
 20 40  1  0  0  0
 21 22  2  0  0  0
 21 41  1  0  0  0
 22 23  1  0  0  0
 23 24  1  0  0  0
 24 42  1  0  0  0
 24 43  1  0  0  0
 24 44  1  0  0  0
 25 45  1  0  0  0
M  END
> <s_m_source_file>
../1u9w_ligand.sdf

> <i_m_source_file_index>
1

> <s_epik_input>
W0NIMl0xW0NIMl1bQ0gyXVtDSDJdW0NIXTFuKFtjSF1uMiljKGMyMyluYygvW0NIXT1OXFtIXSluYzNbTkhdYzRbY0hdW2NIXVtjSF1bY0hdYzRPW0NIM10=

> <s_epik_cmdline>
J2VwaWtfYXBwJywgJy1pbWFlJywgJ2xpZ2FuZF9wcm8ubWFlJywgJy1vbWFlJywgJ2xpZ2FuZF9wcmVwLm1hZScsICctbXMnLCAnMScsICctcGgnLCAnNycsICctcGh0JywgJzAuNScsICctbnQn

> <r_lp_tautomer_probability>
1

> <r_epik_Ionization_Penalty>
  0.0000

> <r_epik_Ionization_Penalty_Charging>
  0.0000

> <r_epik_Ionization_Penalty_Neutral>
  0.0000

> <r_epik_State_Penalty>
 -0.0000

> <r_epik_Charging_Adjusted_Penalty>
0

> <i_epik_Tot_Q>
0

> <i_epik_Tot_abs_Q>
0

> <s_epik_Chemistry_Notes>
This compound has an imine and may undergo hydrolysis.

$$$$
