1ua4_ligand
                    3D
 Schrodinger Suite 2020-3.
 35 37  0  0  1  0            999 V2000
   19.3020   18.8000    8.2670 P   0  0  0  0  0  0
   20.5460   19.0390    8.9920 O   0  0  0  0  0  0
   19.2500   19.5300    6.9750 O   0  5  0  0  0  0
   18.0840   19.0870    9.1180 O   0  5  0  0  0  0
   19.3570   17.1880    7.9180 O   0  0  0  0  0  0
   18.2480   16.5440    7.2100 C   0  0  0  0  0  0
   18.2510   15.1230    7.8030 C   0  0  1  0  0  0
   17.1430   14.2550    7.3520 O   0  0  0  0  0  0
   19.6810   14.2410    7.5470 C   0  0  1  0  0  0
   20.6300   14.5090    8.6710 O   0  0  0  0  0  0
   19.0940   12.7580    7.4710 C   0  0  1  0  0  0
   19.1060   12.1380    8.7400 O   0  0  0  0  0  0
   17.5580   12.9210    7.0420 C   0  0  2  0  0  0
   17.3040   12.5400    5.6290 N   0  0  0  0  0  0
   17.6880   13.1670    4.4320 C   0  0  0  0  0  0
   17.3030   12.5620    3.2790 N   0  0  0  0  0  0
   16.6210   11.4610    3.8160 C   0  0  0  0  0  0
   15.9440   10.3760    3.1840 C   0  0  0  0  0  0
   15.9110   10.3180    1.8050 N   0  0  0  0  0  0
   15.3610    9.4360    4.0430 N   0  0  0  0  0  0
   15.4160    9.5250    5.3900 C   0  0  0  0  0  0
   16.0350   10.5120    6.0700 N   0  0  0  0  0  0
   16.6080   11.4370    5.2350 C   0  0  0  0  0  0
   17.3154   17.0897    7.4159 H   0  0  0  0  0  0
   18.4479   16.5548    6.1284 H   0  0  0  0  0  0
   17.9964   15.3856    8.8404 H   0  0  0  0  0  0
   20.3648   14.4542    6.7121 H   0  0  0  0  0  0
   21.0756   15.5079    8.7883 H   0  0  0  0  0  0
   19.7133   12.0799    6.8656 H   0  0  0  0  0  0
   20.0629   11.9235    9.2383 H   0  0  0  0  0  0
   16.8530   12.2786    7.5900 H   0  0  0  0  0  0
   18.2653   14.0916    4.4290 H   0  0  0  0  0  0
   16.3983   11.1042    1.2096 H   0  0  0  0  0  0
   15.3974    9.4856    1.3017 H   0  0  0  0  0  0
   14.9248    8.7429    5.9690 H   0  0  0  0  0  0
  1  2  2  0  0  0
  1  3  1  0  0  0
  1  4  1  0  0  0
  1  5  1  0  0  0
  5  6  1  0  0  0
  6  7  1  0  0  0
  6 24  1  0  0  0
  6 25  1  0  0  0
  7  8  1  0  0  0
  7  9  1  0  0  0
  7 26  1  0  0  0
  8 13  1  0  0  0
  9 10  1  0  0  0
  9 11  1  0  0  0
  9 27  1  0  0  0
 10 28  1  0  0  0
 11 12  1  0  0  0
 11 13  1  0  0  0
 11 29  1  0  0  0
 12 30  1  0  0  0
 13 14  1  0  0  0
 13 31  1  0  0  0
 14 15  1  0  0  0
 14 23  1  0  0  0
 15 16  2  0  0  0
 15 32  1  0  0  0
 16 17  1  0  0  0
 17 18  2  0  0  0
 17 23  1  0  0  0
 18 19  1  0  0  0
 18 20  1  0  0  0
 19 33  1  0  0  0
 19 34  1  0  0  0
 20 21  2  0  0  0
 21 22  1  0  0  0
 21 35  1  0  0  0
 22 23  2  0  0  0
M  CHG  2   3  -1   4  -1
M  END
> <s_m_source_file>
../1ua4_ligand.sdf

> <i_m_source_file_index>
1

> <s_epik_input>
Tz1QKFtPSF0pKFtPSF0pT1tDSDJdW0NASF0xT1tDQEhdKFtDQEhdKFtPSF0pW0NAQEhdMVtPSF0pbihbY0hdbjIpYyhjMjMpbltjSF1uYzNbTkgyXQ==

> <s_epik_cmdline>
J2VwaWtfYXBwJywgJy1pbWFlJywgJ2xpZ2FuZF9wcm8ubWFlJywgJy1vbWFlJywgJ2xpZ2FuZF9wcmVwLm1hZScsICctbXMnLCAnMScsICctcGgnLCAnNycsICctcGh0JywgJzAuNScsICctbnQn

> <r_lp_tautomer_probability>
0.999997216410988

> <r_epik_Ionization_Penalty>
  0.1025

> <r_epik_Ionization_Penalty_Charging>
  0.1020

> <r_epik_Ionization_Penalty_Neutral>
  0.0004

> <r_epik_State_Penalty>
  0.0920

> <r_epik_Charging_Adjusted_Penalty>
0.194024004396068

> <i_epik_Tot_Q>
-2

> <i_epik_Tot_abs_Q>
2

> <s_epik_Chemistry_Notes>
This compound contains an acetal/aminal-like group ( X-CH(R)-Y where X, Y are N, S, or O) that may be acid/base labile, releasing an aldehyde.

$$$$
