1ucn_ligand
                    3D
 Schrodinger Suite 2020-3.
 39 41  0  0  1  0            999 V2000
   -8.7700   96.8750   16.0660 P   0  0  0  0  0  0
   -8.8350   97.6750   14.8160 O   0  5  0  0  0  0
   -7.6870   95.8750   16.2280 O   0  0  0  0  0  0
   -8.6760   97.8940   17.2880 O   0  5  0  0  0  0
  -11.5710   96.8260   16.1870 P   0  0  1  0  0  0
  -11.3610   98.2290   15.7410 O   0  5  0  0  0  0
  -12.4890   95.9430   15.4210 O   0  0  0  0  0  0
  -10.1510   96.0950   16.2010 O   0  0  0  0  0  0
  -12.0920   96.8800   17.6910 O   0  0  0  0  0  0
  -11.8230   98.0040   18.5150 C   0  0  0  0  0  0
  -11.4430   97.5520   19.9020 C   0  0  1  0  0  0
  -12.5530   96.8180   20.4790 O   0  0  0  0  0  0
  -10.2840   96.5720   19.9820 C   0  0  1  0  0  0
   -9.0360   97.2550   19.9420 O   0  0  0  0  0  0
  -10.5270   95.9070   21.3330 C   0  0  1  0  0  0
  -10.0700   96.6770   22.4270 O   0  0  0  0  0  0
  -12.0560   95.8240   21.3610 C   0  0  2  0  0  0
  -12.5490   94.5180   20.9230 N   0  0  0  0  0  0
  -12.6720   94.0340   19.6440 C   0  0  0  0  0  0
  -13.1190   92.8030   19.5870 N   0  0  0  0  0  0
  -13.3080   92.4550   20.9180 C   0  0  0  0  0  0
  -13.7670   91.2770   21.5330 C   0  0  0  0  0  0
  -14.1340   90.1820   20.8570 N   0  0  0  0  0  0
  -13.8400   91.2600   22.8840 N   0  0  0  0  0  0
  -13.4780   92.3590   23.5580 C   0  0  0  0  0  0
  -13.0330   93.5250   23.0930 N   0  0  0  0  0  0
  -12.9700   93.5050   21.7500 C   0  0  0  0  0  0
  -10.9931   98.5838   18.0848 H   0  0  0  0  0  0
  -12.7202   98.6375   18.5754 H   0  0  0  0  0  0
  -11.1995   98.4805   20.4391 H   0  0  0  0  0  0
  -10.1776   95.8825   19.1315 H   0  0  0  0  0  0
   -8.7268   97.7825   19.0276 H   0  0  0  0  0  0
   -9.9579   94.9789   21.4902 H   0  0  0  0  0  0
   -8.9923   96.8450   22.5693 H   0  0  0  0  0  0
  -12.4594   95.9954   22.3699 H   0  0  0  0  0  0
  -12.4214   94.6187   18.7589 H   0  0  0  0  0  0
  -14.0836   90.1713   19.7582 H   0  0  0  0  0  0
  -14.4861   89.2926   21.4001 H   0  0  0  0  0  0
  -13.5592   92.2893   24.6427 H   0  0  0  0  0  0
  1  2  1  0  0  0
  1  3  2  0  0  0
  1  4  1  0  0  0
  1  8  1  0  0  0
  5  6  1  0  0  0
  5  7  2  0  0  0
  5  8  1  0  0  0
  5  9  1  0  0  0
  9 10  1  0  0  0
 10 11  1  0  0  0
 10 28  1  0  0  0
 10 29  1  0  0  0
 11 12  1  0  0  0
 11 13  1  0  0  0
 11 30  1  0  0  0
 12 17  1  0  0  0
 13 14  1  0  0  0
 13 15  1  0  0  0
 13 31  1  0  0  0
 14 32  1  0  0  0
 15 16  1  0  0  0
 15 17  1  0  0  0
 15 33  1  0  0  0
 16 34  1  0  0  0
 17 18  1  0  0  0
 17 35  1  0  0  0
 18 19  1  0  0  0
 18 27  1  0  0  0
 19 20  2  0  0  0
 19 36  1  0  0  0
 20 21  1  0  0  0
 21 22  2  0  0  0
 21 27  1  0  0  0
 22 23  1  0  0  0
 22 24  1  0  0  0
 23 37  1  0  0  0
 23 38  1  0  0  0
 24 25  2  0  0  0
 25 26  1  0  0  0
 25 39  1  0  0  0
 26 27  2  0  0  0
M  CHG  3   2  -1   4  -1   6  -1
M  END
> <s_m_source_file>
../1ucn_ligand.sdf

> <i_m_source_file_index>
1

> <s_epik_input>
W09IXVAoPU8pKFtPSF0pT1tQQF0oPU8pKFtPSF0pT1tDSDJdW0NASF0xT1tDQEhdKFtDQEhdKFtPSF0pW0NAQEhdMVtPSF0pbihbY0hdbjIpYyhjMjMpbltjSF1uYzNbTkgyXQ==

> <s_epik_cmdline>
J2VwaWtfYXBwJywgJy1pbWFlJywgJ2xpZ2FuZF9wcm8ubWFlJywgJy1vbWFlJywgJ2xpZ2FuZF9wcmVwLm1hZScsICctbXMnLCAnMScsICctcGgnLCAnNycsICctcGh0JywgJzAuNScsICctbnQn

> <r_lp_tautomer_probability>
0.999997216410988

> <r_epik_Ionization_Penalty>
  0.1037

> <r_epik_Ionization_Penalty_Charging>
  0.1033

> <r_epik_Ionization_Penalty_Neutral>
  0.0004

> <r_epik_State_Penalty>
  0.0922

> <r_epik_Charging_Adjusted_Penalty>
0.19546844050481

> <i_epik_Tot_Q>
-3

> <i_epik_Tot_abs_Q>
3

> <s_epik_Chemistry_Notes>
This compound contains an acetal/aminal-like group ( X-CH(R)-Y where X, Y are N, S, or O) that may be acid/base labile, releasing an aldehyde.

$$$$
