1udt_ligand
                    3D
 Schrodinger Suite 2020-3.
 63 66  0  0  1  0            999 V2000
   -0.1320   61.4670   80.1200 C   0  0  0  0  0  0
   -0.1690   61.7920   81.5890 C   0  0  0  0  0  0
   -1.2610   62.8640   81.9270 C   0  0  0  0  0  0
   -1.1140   63.0310   83.4050 C   0  0  0  0  0  0
   -1.7980   62.2800   84.3700 N   0  0  0  0  0  0
   -1.4140   62.6960   85.6120 N   0  0  0  0  0  0
   -1.9480   62.1110   86.8450 C   0  0  0  0  0  0
   -0.4950   63.7000   85.4400 C   0  0  0  0  0  0
    0.2600   64.5190   86.3460 C   0  0  0  0  0  0
    0.1800   64.4220   87.5490 O   0  0  0  0  0  0
    1.1250   65.4740   85.8160 N   0  0  0  0  0  0
    1.3080   65.6840   84.4420 C   0  0  0  0  0  0
    0.5970   64.9070   83.5200 N   0  0  0  0  0  0
   -0.2930   63.9280   84.0460 C   0  0  0  0  0  0
    2.2230   66.7020   84.0580 C   0  0  0  0  0  0
    1.7310   67.6550   83.0840 C   0  0  0  0  0  0
    2.5680   68.7580   82.6170 C   0  0  0  0  0  0
    3.9520   68.8600   83.1800 C   0  0  0  0  0  0
    4.4660   67.9110   84.1620 C   0  0  0  0  0  0
    3.6090   66.8060   84.6330 C   0  0  0  0  0  0
    4.0190   65.8300   85.6200 O   0  0  0  0  0  0
    5.3040   65.8030   86.2730 C   0  0  0  0  0  0
    5.2340   64.6230   87.2280 C   0  0  0  0  0  0
    2.0230   69.8310   81.5610 S   0  0  0  0  0  0
    2.3130   69.6000   80.2940 O   0  0  0  0  0  0
    0.7120   69.8610   81.6110 O   0  0  0  0  0  0
    2.6900   71.1590   82.1270 N   0  0  2  0  0  0
    1.7240   72.0870   82.9630 C   0  0  0  0  0  0
    0.8200   73.0570   82.1780 C   0  0  0  0  0  0
    1.4260   73.6860   80.9560 N   0  0  0  0  0  0
    1.5570   75.1560   81.2010 C   0  0  0  0  0  0
    2.7520   73.1450   80.4160 C   0  0  0  0  0  0
    3.5390   72.0920   81.2850 C   0  0  0  0  0  0
    0.6464   60.7131   79.9308 H   0  0  0  0  0  0
    0.0942   62.3791   79.5483 H   0  0  0  0  0  0
   -1.1095   61.0712   79.8073 H   0  0  0  0  0  0
   -0.3952   60.8799   82.1607 H   0  0  0  0  0  0
    0.8085   62.1878   81.9017 H   0  0  0  0  0  0
   -1.0500   63.7900   81.3720 H   0  0  0  0  0  0
   -2.2515   62.4818   81.6393 H   0  0  0  0  0  0
   -2.6712   61.3214   86.5929 H   0  0  0  0  0  0
   -2.4492   62.8928   87.4346 H   0  0  0  0  0  0
   -1.1243   61.6797   87.4329 H   0  0  0  0  0  0
    1.7130   66.1166   86.4878 H   0  0  0  0  0  0
    0.7193   67.5474   82.6929 H   0  0  0  0  0  0
    4.5979   69.6714   82.8445 H   0  0  0  0  0  0
    5.4803   68.0181   84.5466 H   0  0  0  0  0  0
    6.0951   65.6702   85.5203 H   0  0  0  0  0  0
    5.4630   66.7505   86.8088 H   0  0  0  0  0  0
    6.1867   64.5334   87.7705 H   0  0  0  0  0  0
    5.0483   63.7006   86.6581 H   0  0  0  0  0  0
    4.4163   64.7809   87.9466 H   0  0  0  0  0  0
    1.0385   71.4634   83.5556 H   0  0  0  0  0  0
    2.3178   72.7217   83.6372 H   0  0  0  0  0  0
   -0.0770   72.5229   81.8313 H   0  0  0  0  0  0
    0.5211   73.8898   82.8315 H   0  0  0  0  0  0
    0.6059   75.5492   81.5893 H   0  0  0  0  0  0
    1.8060   75.6642   80.2577 H   0  0  0  0  0  0
    2.3554   75.3355   81.9361 H   0  0  0  0  0  0
    2.5781   72.6431   79.4528 H   0  0  0  0  0  0
    3.4569   73.9774   80.2737 H   0  0  0  0  0  0
    4.2052   72.6727   81.9399 H   0  0  0  0  0  0
    4.1419   71.5022   80.5788 H   0  0  0  0  0  0
  1  2  1  0  0  0
  1 34  1  0  0  0
  1 35  1  0  0  0
  1 36  1  0  0  0
  2  3  1  0  0  0
  2 37  1  0  0  0
  2 38  1  0  0  0
  3  4  1  0  0  0
  3 39  1  0  0  0
  3 40  1  0  0  0
  4  5  2  0  0  0
  4 14  1  0  0  0
  5  6  1  0  0  0
  6  7  1  0  0  0
  6  8  1  0  0  0
  7 41  1  0  0  0
  7 42  1  0  0  0
  7 43  1  0  0  0
  8  9  1  0  0  0
  8 14  2  0  0  0
  9 10  2  0  0  0
  9 11  1  0  0  0
 11 12  1  0  0  0
 11 44  1  0  0  0
 12 13  2  0  0  0
 12 15  1  0  0  0
 13 14  1  0  0  0
 15 16  2  0  0  0
 15 20  1  0  0  0
 16 17  1  0  0  0
 16 45  1  0  0  0
 17 18  2  0  0  0
 17 24  1  0  0  0
 18 19  1  0  0  0
 18 46  1  0  0  0
 19 20  2  0  0  0
 19 47  1  0  0  0
 20 21  1  0  0  0
 21 22  1  0  0  0
 22 23  1  0  0  0
 22 48  1  0  0  0
 22 49  1  0  0  0
 23 50  1  0  0  0
 23 51  1  0  0  0
 23 52  1  0  0  0
 24 25  2  0  0  0
 24 26  2  0  0  0
 24 27  1  0  0  0
 27 28  1  0  0  0
 27 33  1  0  0  0
 28 29  1  0  0  0
 28 53  1  0  0  0
 28 54  1  0  0  0
 29 30  1  0  0  0
 29 55  1  0  0  0
 29 56  1  0  0  0
 30 31  1  0  0  0
 30 32  1  0  0  0
 31 57  1  0  0  0
 31 58  1  0  0  0
 31 59  1  0  0  0
 32 33  1  0  0  0
 32 60  1  0  0  0
 32 61  1  0  0  0
 33 62  1  0  0  0
 33 63  1  0  0  0
M  END
> <s_m_source_file>
../1udt_ligand.sdf

> <i_m_source_file_index>
1

> <s_epik_input>
W0NIM11bQ0gyXVtDSDJdYyhubjFbQ0gzXSljKGMxMiluYyhbbkhdYzI9TyktYzNbY0hdYyhbY0hdW2NIXWMzT1tDSDJdW0NIM10pUyg9TykoPU8pTjRbQ0gyXVtDSDJdW05IK10oW0NIM10pW0NIMl1bQ0gyXTQ=

> <s_epik_cmdline>
J2VwaWtfYXBwJywgJy1pbWFlJywgJ2xpZ2FuZF9wcm8ubWFlJywgJy1vbWFlJywgJ2xpZ2FuZF9wcmVwLm1hZScsICctbXMnLCAnMScsICctcGgnLCAnNycsICctcGh0JywgJzAuNScsICctbnQn

> <r_lp_tautomer_probability>
1

> <r_epik_Ionization_Penalty>
  0.1911

> <r_epik_Ionization_Penalty_Charging>
  0.0000

> <r_epik_Ionization_Penalty_Neutral>
  0.1911

> <r_epik_State_Penalty>
  0.1740

> <r_epik_Charging_Adjusted_Penalty>
0.17398267960302

> <i_epik_Tot_Q>
0

> <i_epik_Tot_abs_Q>
0

$$$$
