1udu_ligand
                    3D
 Schrodinger Suite 2020-3.
 48 53  0  0  1  0            999 V2000
   24.4350   39.2430  103.9130 C   0  0  0  0  0  0
   24.1360   38.3240  102.8310 C   0  0  0  0  0  0
   22.7830   38.0950  102.3810 C   0  0  0  0  0  0
   21.6780   38.8160  103.0450 C   0  0  0  0  0  0
   20.2650   38.8320  102.8660 C   0  0  0  0  0  0
   19.7770   39.7580  103.8580 C   0  0  0  0  0  0
   20.8310   40.3200  104.6440 N   0  3  0  0  0  0
   21.9880   39.7480  104.1500 C   0  0  0  0  0  0
   23.3840   39.9550  104.5770 C   0  0  0  0  0  0
   18.2200   40.0760  104.0230 C   0  0  2  0  0  0
   17.2740   38.9820  103.3870 N   0  0  0  0  0  0
   15.8670   39.0930  103.4970 C   0  0  0  0  0  0
   15.2510   40.0230  104.0710 O   0  0  0  0  0  0
   14.9650   37.9990  102.9000 C   0  0  0  0  0  0
   15.5520   37.1460  101.8010 N   0  0  0  0  0  0
   16.9480   37.0020  101.6110 C   0  0  0  0  0  0
   17.4320   36.2930  100.6780 O   0  0  0  0  0  0
   17.9280   37.7580  102.6480 C   0  0  1  0  0  0
   19.2610   38.1050  101.8980 C   0  0  0  0  0  0
   14.5570   36.4650  100.9360 C   0  0  0  0  0  0
   18.0370   41.5720  103.4140 C   0  0  0  0  0  0
   17.2470   42.5530  104.1340 C   0  0  0  0  0  0
   17.0790   43.8830  103.6150 C   0  0  0  0  0  0
   17.7210   44.2480  102.3330 C   0  0  0  0  0  0
   17.6890   45.4370  101.6740 O   0  0  0  0  0  0
   18.4970   45.1810  100.4870 C   0  0  0  0  0  0
   18.9980   43.8120  100.4840 O   0  0  0  0  0  0
   18.4950   43.2940  101.6250 C   0  0  0  0  0  0
   18.6630   41.9880  102.1300 C   0  0  0  0  0  0
   25.4689   39.3932  104.2237 H   0  0  0  0  0  0
   24.9541   37.7924  102.3449 H   0  0  0  0  0  0
   22.5806   37.4015  101.5648 H   0  0  0  0  0  0
   23.6142   40.6433  105.3902 H   0  0  0  0  0  0
   17.9010   40.0134  105.0739 H   0  0  0  0  0  0
   14.6688   37.2955  103.6920 H   0  0  0  0  0  0
   14.0665   38.4613  102.4654 H   0  0  0  0  0  0
   18.1712   37.0994  103.4948 H   0  0  0  0  0  0
   19.0311   38.7627  101.0468 H   0  0  0  0  0  0
   19.7162   37.1739  101.5294 H   0  0  0  0  0  0
   13.5418   36.7239  101.2710 H   0  0  0  0  0  0
   14.6983   35.3761  101.0018 H   0  0  0  0  0  0
   14.6934   36.7902   99.8941 H   0  0  0  0  0  0
   16.7761   42.2788  105.0780 H   0  0  0  0  0  0
   16.4843   44.6155  104.1607 H   0  0  0  0  0  0
   17.8846   45.3354   99.5863 H   0  0  0  0  0  0
   19.3535   45.8710  100.4707 H   0  0  0  0  0  0
   19.2623   41.2704  101.5695 H   0  0  0  0  0  0
   20.5984   41.0442  105.4386 H   0  0  0  0  0  0
  1  2  2  0  0  0
  1  9  1  0  0  0
  1 30  1  0  0  0
  2  3  1  0  0  0
  2 31  1  0  0  0
  3  4  2  0  0  0
  3 32  1  0  0  0
  4  5  1  0  0  0
  4  8  1  0  0  0
  5  6  2  0  0  0
  5 19  1  0  0  0
  6  7  1  0  0  0
  6 10  1  0  0  0
  7  8  1  0  0  0
  7 48  1  0  0  0
  8  9  2  0  0  0
  9 33  1  0  0  0
 10 11  1  0  0  0
 10 21  1  0  0  0
 10 34  1  0  0  0
 11 12  1  0  0  0
 11 18  1  0  0  0
 12 13  2  0  0  0
 12 14  1  0  0  0
 14 15  1  0  0  0
 14 35  1  0  0  0
 14 36  1  0  0  0
 15 16  1  0  0  0
 15 20  1  0  0  0
 16 17  2  0  0  0
 16 18  1  0  0  0
 18 19  1  0  0  0
 18 37  1  0  0  0
 19 38  1  0  0  0
 19 39  1  0  0  0
 20 40  1  0  0  0
 20 41  1  0  0  0
 20 42  1  0  0  0
 21 22  2  0  0  0
 21 29  1  0  0  0
 22 23  1  0  0  0
 22 43  1  0  0  0
 23 24  2  0  0  0
 23 44  1  0  0  0
 24 25  1  0  0  0
 24 28  1  0  0  0
 25 26  1  0  0  0
 26 27  1  0  0  0
 26 45  1  0  0  0
 26 46  1  0  0  0
 27 28  1  0  0  0
 28 29  2  0  0  0
 29 47  1  0  0  0
M  CHG  1   7   1
M  END
> <s_m_source_file>
../1udu_ligand.sdf

> <i_m_source_file_index>
1

> <s_epik_input>
W2NIXTFbY0hdW2NIXVtjSF1jMltuSF1jKGMzYzEyKVtDQEBIXShjKFtjSF1bY0hdNClbY0hdYyhjNDUpT1tDSDJdTzUpTjZbQ0BIXShbQ0gyXTMpQyg9TylOKFtDSDNdKVtDSDJdQzY9Tw==

> <s_epik_cmdline>
J2VwaWtfYXBwJywgJy1pbWFlJywgJ2xpZ2FuZF9wcm8ubWFlJywgJy1vbWFlJywgJ2xpZ2FuZF9wcmVwLm1hZScsICctbXMnLCAnMScsICctcGgnLCAnNycsICctcGh0JywgJzAuNScsICctbnQn

> <r_lp_tautomer_probability>
1

> <r_epik_Ionization_Penalty>
  0.0000

> <r_epik_Ionization_Penalty_Charging>
  0.0000

> <r_epik_Ionization_Penalty_Neutral>
  0.0000

> <r_epik_State_Penalty>
 -0.0000

> <r_epik_Charging_Adjusted_Penalty>
0

> <i_epik_Tot_Q>
1

> <i_epik_Tot_abs_Q>
1

> <s_epik_Chemistry_Notes>
This compound contains an acetal/aminal-like group ( X-CH(R)-Y where X, Y are N, S, or O) that may be acid/base labile, releasing an aldehyde.

$$$$
