1uef_ligand
                    3D
 Schrodinger Suite 2020-3.
176178  0  0  1  0            999 V2000
   18.4030   -8.3010   -1.8220 N   0  3  0  0  0  0
   17.9740   -6.8750   -1.7930 C   0  0  2  0  0  0
   16.7720   -6.6620   -0.9020 C   0  0  0  0  0  0
   16.8630   -5.8940    0.0610 O   0  0  0  0  0  0
   17.5700   -6.2570   -3.2220 C   0  0  2  0  0  0
   17.3260   -7.3010   -4.1620 O   0  0  0  0  0  0
   18.6340   -5.2950   -3.7890 C   0  0  0  0  0  0
   15.6680   -7.3530   -1.1820 N   0  0  0  0  0  0
   14.4190   -7.1170   -0.4450 C   0  0  2  0  0  0
   13.8730   -8.1010    0.5950 C   0  0  0  0  0  0
   14.2880   -9.2510    0.6650 O   0  0  0  0  0  0
   13.2900   -6.8690   -1.4560 C   0  0  0  0  0  0
   13.4660   -5.6390   -2.3710 C   0  0  0  0  0  0
   14.4050   -5.4620   -3.3570 C   0  0  0  0  0  0
   12.6370   -4.4630   -2.4010 C   0  0  0  0  0  0
   14.2140   -4.2630   -3.9970 N   0  0  0  0  0  0
   13.1350   -3.6280   -3.4430 C   0  0  0  0  0  0
   11.5260   -4.0420   -1.6590 C   0  0  0  0  0  0
   12.5570   -2.4020   -3.7600 C   0  0  0  0  0  0
   10.9480   -2.8170   -1.9740 C   0  0  0  0  0  0
   11.4650   -2.0110   -3.0200 C   0  0  0  0  0  0
   12.9540   -7.6190    1.4360 N   0  0  0  0  0  0
   12.2670   -8.4920    2.3900 C   0  0  2  0  0  0
   10.8570   -7.9380    2.5630 C   0  0  0  0  0  0
   10.6400   -6.7430    2.4440 O   0  0  0  0  0  0
   12.9700   -8.6240    3.8240 C   0  0  2  0  0  0
   12.9240   -7.3090    4.5710 C   0  0  0  0  0  0
   14.4160   -9.0990    3.6990 C   0  0  0  0  0  0
   11.7330   -7.2260    5.3930 C   0  0  0  0  0  0
    9.8950   -8.8220    2.7850 N   0  0  0  0  0  0
    8.5220   -8.4030    3.0250 C   0  0  2  0  0  0
    8.4930   -7.9940    4.4860 C   0  0  0  0  0  0
    9.1920   -8.5840    5.3040 O   0  0  0  0  0  0
    7.5530   -9.5590    2.7920 C   0  0  0  0  0  0
    6.7050   -9.4460    1.5450 C   0  0  0  0  0  0
    7.5260   -9.4460    0.2780 C   0  0  0  0  0  0
    8.3810   -8.5530    0.1070 O   0  0  0  0  0  0
    7.3100  -10.3460   -0.5630 O   0  0  0  0  0  0
    7.6890   -6.9850    4.8070 N   0  0  0  0  0  0
    7.5810   -6.4650    6.1780 C   0  0  2  0  0  0
    6.3900   -7.0620    6.9520 C   0  0  0  0  0  0
    5.2930   -6.5380    6.9130 O   0  0  0  0  0  0
    7.4810   -4.9310    6.1200 C   0  0  0  0  0  0
    7.3500   -4.2970    7.4760 C   0  0  0  0  0  0
    7.9040   -4.7750    8.4640 O   0  0  0  0  0  0
    6.6350   -3.1920    7.5260 N   0  0  0  0  0  0
    6.6190   -8.1570    7.6670 N   0  0  0  0  0  0
    5.5450   -8.8240    8.4210 C   0  0  2  0  0  0
    4.6920   -7.8600    9.2710 C   0  0  0  0  0  0
    3.4820   -8.0490    9.4170 O   0  0  0  0  0  0
    6.1490   -9.9300    9.3130 C   0  0  0  0  0  0
    6.4040  -11.2910    8.6150 C   0  0  0  0  0  0
    7.1260  -11.1650    7.2860 C   0  0  0  0  0  0
    6.3340  -11.8480    6.1570 C   0  0  0  0  0  0
    4.9440  -11.3200    5.9940 N   0  3  0  0  0  0
    5.3300   -6.8200    9.8040 N   0  0  0  0  0  0
    4.6790   -5.8250   10.6540 C   0  0  2  0  0  0
    3.6400   -4.9970    9.8970 C   0  0  0  0  0  0
    3.0050   -4.1160   10.4520 O   0  0  0  0  0  0
    5.7650   -4.9190   11.2550 C   0  0  0  0  0  0
    5.5250   -4.1900   12.5680 C   0  0  0  0  0  0
    5.1260   -2.7750   12.2650 C   0  0  0  0  0  0
    4.4850   -4.9150   13.4240 C   0  0  0  0  0  0
    3.4670   -5.3040    8.6220 N   0  0  0  0  0  0
    2.5380   -4.5870    7.7750 C   0  0  2  0  0  0
    1.0470   -4.8190    8.0250 C   0  0  0  0  0  0
    0.5270   -5.9060    7.7830 O   0  0  0  0  0  0
    2.8280   -4.9100    6.3210 C   0  0  0  0  0  0
    2.0720   -4.0050    5.4240 C   0  0  0  0  0  0
    2.4940   -2.6870    5.2620 C   0  0  0  0  0  0
    0.8380   -4.3920    4.8750 C   0  0  0  0  0  0
    1.7180   -1.7720    4.6010 C   0  0  0  0  0  0
    0.0430   -3.4800    4.2070 C   0  0  0  0  0  0
    0.5020   -2.1630    4.0900 C   0  0  0  0  0  0
   -0.2540   -1.1930    3.5190 O   0  0  0  0  0  0
    0.3590   -3.7760    8.4740 N   0  0  0  0  0  0
   -1.0630   -3.8750    8.7250 C   0  0  0  0  0  0
   -1.4350   -4.3400   10.1180 C   0  0  0  0  0  0
   -2.5820   -4.7140   10.3450 O   0  0  0  0  0  0
   -0.4890   -4.3220   11.0580 N   0  0  0  0  0  0
   -0.7840   -4.7510   12.4300 C   0  0  2  0  0  0
   -0.9410   -3.5690   13.4170 C   0  0  0  0  0  0
   -2.0840   -3.0900   13.6750 O   0  0  0  0  0  0
    0.3250   -5.6710   12.9510 C   0  0  0  0  0  0
    0.7570   -6.7480   11.9880 C   0  0  0  0  0  0
    1.3310   -8.2180   12.8350 S   0  0  0  0  0  0
    3.1290   -7.9240   12.9650 C   0  0  0  0  0  0
    0.1364   -3.0512   14.0002 O   0  0  0  0  0  0
   19.2775   -8.4075   -2.4807 H   0  0  0  0  0  0
   17.5798   -8.9239   -2.2020 H   0  0  0  0  0  0
   18.6685   -8.6248   -0.8048 H   0  0  0  0  0  0
   18.8759   -6.4191   -1.3585 H   0  0  0  0  0  0
   16.6166   -5.7117   -3.1612 H   0  0  0  0  0  0
   16.5926   -8.0879   -3.9320 H   0  0  0  0  0  0
   18.8230   -4.4891   -3.0645 H   0  0  0  0  0  0
   18.2710   -4.8619   -4.7328 H   0  0  0  0  0  0
   19.5668   -5.8479   -3.9741 H   0  0  0  0  0  0
   15.7015   -8.1102   -1.9792 H   0  0  0  0  0  0
   14.7863   -6.2789    0.1655 H   0  0  0  0  0  0
   13.1984   -7.7382   -2.1239 H   0  0  0  0  0  0
   12.3424   -6.7186   -0.9179 H   0  0  0  0  0  0
   15.1932   -6.1752   -3.5981 H   0  0  0  0  0  0
   11.1247   -4.6590   -0.8550 H   0  0  0  0  0  0
   12.9530   -1.7778   -4.5610 H   0  0  0  0  0  0
   10.0835   -2.4707   -1.4077 H   0  0  0  0  0  0
   10.9853   -1.0580   -3.2433 H   0  0  0  0  0  0
   12.7164   -6.5455    1.4031 H   0  0  0  0  0  0
   12.2822   -9.4741    1.8948 H   0  0  0  0  0  0
   12.4397   -9.3636    4.4418 H   0  0  0  0  0  0
   13.8089   -7.2242    5.2189 H   0  0  0  0  0  0
   12.9163   -6.4780    3.8503 H   0  0  0  0  0  0
   14.4422  -10.0549    3.1553 H   0  0  0  0  0  0
   14.8449   -9.2361    4.7026 H   0  0  0  0  0  0
   15.0023   -8.3481    3.1491 H   0  0  0  0  0  0
   11.7213   -6.2635    5.9254 H   0  0  0  0  0  0
   11.7332   -8.0489    6.1230 H   0  0  0  0  0  0
   10.8407   -7.3026    4.7544 H   0  0  0  0  0  0
   10.1517   -9.8916    2.7855 H   0  0  0  0  0  0
    8.2599   -7.5879    2.3344 H   0  0  0  0  0  0
    8.1179  -10.4986    2.7027 H   0  0  0  0  0  0
    6.8557   -9.6295    3.6398 H   0  0  0  0  0  0
    6.0104  -10.2975    1.4955 H   0  0  0  0  0  0
    6.1325   -8.5072    1.5747 H   0  0  0  0  0  0
    7.8898  -10.3763   -1.4973 H   0  0  0  0  0  0
    7.0906   -6.5369    4.0001 H   0  0  0  0  0  0
    8.5006   -6.7892    6.6872 H   0  0  0  0  0  0
    8.3862   -4.5222    5.6472 H   0  0  0  0  0  0
    6.5977   -4.6431    5.5310 H   0  0  0  0  0  0
    6.1583   -2.8036    6.6139 H   0  0  0  0  0  0
    6.5145   -2.6576    8.4799 H   0  0  0  0  0  0
    7.6404   -8.5647    7.6875 H   0  0  0  0  0  0
    4.8922   -9.2394    7.6392 H   0  0  0  0  0  0
    7.1218   -9.5960    9.7029 H   0  0  0  0  0  0
    5.4688  -10.1363   10.1525 H   0  0  0  0  0  0
    7.0220  -11.9268    9.2660 H   0  0  0  0  0  0
    5.4428  -11.7894    8.4211 H   0  0  0  0  0  0
    7.2491  -10.1011    7.0350 H   0  0  0  0  0  0
    8.1149  -11.6412    7.3593 H   0  0  0  0  0  0
    6.8558  -11.6979    5.2004 H   0  0  0  0  0  0
    6.2531  -12.9250    6.3655 H   0  0  0  0  0  0
    4.4430  -11.8536    5.1729 H   0  0  0  0  0  0
    4.9848  -10.2455    5.7621 H   0  0  0  0  0  0
    4.3820  -11.4726    6.9272 H   0  0  0  0  0  0
    6.4023   -6.7310    9.5753 H   0  0  0  0  0  0
    4.1421   -6.3934   11.4278 H   0  0  0  0  0  0
    6.6711   -5.5118   11.4487 H   0  0  0  0  0  0
    6.0003   -4.1100   10.5478 H   0  0  0  0  0  0
    6.4537   -4.1598   13.1567 H   0  0  0  0  0  0
    5.9034   -2.2986   11.6496 H   0  0  0  0  0  0
    5.0102   -2.2172   13.2060 H   0  0  0  0  0  0
    4.1720   -2.7723   11.7174 H   0  0  0  0  0  0
    4.8224   -5.9439   13.6177 H   0  0  0  0  0  0
    3.5233   -4.9388   12.8906 H   0  0  0  0  0  0
    4.3615   -4.3836   14.3792 H   0  0  0  0  0  0
    4.0581   -6.1351    8.2099 H   0  0  0  0  0  0
    2.7598   -3.5497    8.0661 H   0  0  0  0  0  0
    3.9036   -4.7878    6.1257 H   0  0  0  0  0  0
    2.5328   -5.9484    6.1101 H   0  0  0  0  0  0
    3.4575   -2.3790    5.6680 H   0  0  0  0  0  0
    0.5035   -5.4244    4.9772 H   0  0  0  0  0  0
    2.0606   -0.7442    4.4811 H   0  0  0  0  0  0
   -0.9157   -3.7784    3.7827 H   0  0  0  0  0  0
    0.1346   -0.1669    3.4416 H   0  0  0  0  0  0
    0.8847   -2.8269    8.6552 H   0  0  0  0  0  0
   -1.5293   -2.8884    8.5866 H   0  0  0  0  0  0
   -1.5102   -4.5937    8.0225 H   0  0  0  0  0  0
    0.5227   -3.9801   10.7942 H   0  0  0  0  0  0
   -1.7418   -5.2817   12.3255 H   0  0  0  0  0  0
    1.2195   -5.0734   13.1806 H   0  0  0  0  0  0
   -0.0195   -6.1805   13.8630 H   0  0  0  0  0  0
   -0.0925   -7.0305   11.3488 H   0  0  0  0  0  0
    1.5784   -6.3712   11.3608 H   0  0  0  0  0  0
    3.6034   -8.7741   13.4771 H   0  0  0  0  0  0
    3.3094   -7.0031   13.5389 H   0  0  0  0  0  0
    3.5570   -7.8178   11.9572 H   0  0  0  0  0  0
    0.0315   -2.2111   14.7025 H   0  0  0  0  0  0
  1  2  1  0  0  0
  1 89  1  0  0  0
  1 90  1  0  0  0
  1 91  1  0  0  0
  2  5  1  0  0  0
  2  3  1  0  0  0
  2 92  1  0  0  0
  3  4  2  0  0  0
  3  8  1  0  0  0
  5  7  1  0  0  0
  5  6  1  0  0  0
  5 93  1  0  0  0
  6 94  1  0  0  0
  7 95  1  0  0  0
  7 96  1  0  0  0
  7 97  1  0  0  0
  8  9  1  0  0  0
  8 98  1  0  0  0
  9 12  1  0  0  0
  9 10  1  0  0  0
  9 99  1  0  0  0
 10 11  2  0  0  0
 10 22  1  0  0  0
 12 13  1  0  0  0
 12100  1  0  0  0
 12101  1  0  0  0
 13 14  2  0  0  0
 13 15  1  0  0  0
 14 16  1  0  0  0
 14102  1  0  0  0
 15 18  2  0  0  0
 15 17  1  0  0  0
 16 17  1  0  0  0
 17 19  2  0  0  0
 18 20  1  0  0  0
 18103  1  0  0  0
 19 21  1  0  0  0
 19104  1  0  0  0
 20 21  2  0  0  0
 20105  1  0  0  0
 21106  1  0  0  0
 22 23  1  0  0  0
 22107  1  0  0  0
 23 26  1  0  0  0
 23 24  1  0  0  0
 23108  1  0  0  0
 24 25  2  0  0  0
 24 30  1  0  0  0
 26 28  1  0  0  0
 26 27  1  0  0  0
 26109  1  0  0  0
 27 29  1  0  0  0
 27110  1  0  0  0
 27111  1  0  0  0
 28112  1  0  0  0
 28113  1  0  0  0
 28114  1  0  0  0
 29115  1  0  0  0
 29116  1  0  0  0
 29117  1  0  0  0
 30 31  1  0  0  0
 30118  1  0  0  0
 31 34  1  0  0  0
 31 32  1  0  0  0
 31119  1  0  0  0
 32 33  2  0  0  0
 32 39  1  0  0  0
 34 35  1  0  0  0
 34120  1  0  0  0
 34121  1  0  0  0
 35 36  1  0  0  0
 35122  1  0  0  0
 35123  1  0  0  0
 36 38  1  0  0  0
 36 37  2  0  0  0
 38124  1  0  0  0
 39 40  1  0  0  0
 39125  1  0  0  0
 40 43  1  0  0  0
 40 41  1  0  0  0
 40126  1  0  0  0
 41 42  2  0  0  0
 41 47  1  0  0  0
 43 44  1  0  0  0
 43127  1  0  0  0
 43128  1  0  0  0
 44 46  1  0  0  0
 44 45  2  0  0  0
 46129  1  0  0  0
 46130  1  0  0  0
 47 48  1  0  0  0
 47131  1  0  0  0
 48 51  1  0  0  0
 48 49  1  0  0  0
 48132  1  0  0  0
 49 50  2  0  0  0
 49 56  1  0  0  0
 51 52  1  0  0  0
 51133  1  0  0  0
 51134  1  0  0  0
 52 53  1  0  0  0
 52135  1  0  0  0
 52136  1  0  0  0
 53 54  1  0  0  0
 53137  1  0  0  0
 53138  1  0  0  0
 54 55  1  0  0  0
 54139  1  0  0  0
 54140  1  0  0  0
 55141  1  0  0  0
 55142  1  0  0  0
 55143  1  0  0  0
 56 57  1  0  0  0
 56144  1  0  0  0
 57 60  1  0  0  0
 57 58  1  0  0  0
 57145  1  0  0  0
 58 59  2  0  0  0
 58 64  1  0  0  0
 60 61  1  0  0  0
 60146  1  0  0  0
 60147  1  0  0  0
 61 62  1  0  0  0
 61 63  1  0  0  0
 61148  1  0  0  0
 62149  1  0  0  0
 62150  1  0  0  0
 62151  1  0  0  0
 63152  1  0  0  0
 63153  1  0  0  0
 63154  1  0  0  0
 64 65  1  0  0  0
 64155  1  0  0  0
 65 68  1  0  0  0
 65 66  1  0  0  0
 65156  1  0  0  0
 66 67  2  0  0  0
 66 76  1  0  0  0
 68 69  1  0  0  0
 68157  1  0  0  0
 68158  1  0  0  0
 69 70  2  0  0  0
 69 71  1  0  0  0
 70 72  1  0  0  0
 70159  1  0  0  0
 71 73  2  0  0  0
 71160  1  0  0  0
 72 74  2  0  0  0
 72161  1  0  0  0
 73 74  1  0  0  0
 73162  1  0  0  0
 74 75  1  0  0  0
 75163  1  0  0  0
 76 77  1  0  0  0
 76164  1  0  0  0
 77 78  1  0  0  0
 77165  1  0  0  0
 77166  1  0  0  0
 78 79  2  0  0  0
 78 80  1  0  0  0
 80 81  1  0  0  0
 80167  1  0  0  0
 81 84  1  0  0  0
 81 82  1  0  0  0
 81168  1  0  0  0
 82 83  2  0  0  0
 82 88  1  0  0  0
 84 85  1  0  0  0
 84169  1  0  0  0
 84170  1  0  0  0
 85 86  1  0  0  0
 85171  1  0  0  0
 85172  1  0  0  0
 86 87  1  0  0  0
 87173  1  0  0  0
 87174  1  0  0  0
 87175  1  0  0  0
 88176  1  0  0  0
M  CHG  2   1   1  55   1
M  END
> <s_m_source_file>
../1uef_ligand.sdf

> <i_m_source_file_index>
1

> <s_epik_input>
W2NIXTFbY0hdW2NIXVtjSF1jKGMxMilbbkhdW2NIXWMyW0NIMl1bQ0BIXShbTkhdQyg9TylbQ0BASF0oW05IMytdKVtDQEhdKFtPSF0pW0NIM10pQyg9TylbTkhdW0NAQEhdKFtDQEBIXShbQ0gzXSlbQ0gyXVtDSDNdKUMoPU8pW05IXVtDQEBIXShbQ0gyXVtDSDJdQyg9TylbT0hdKUMoPU8pW05IXVtDQEBIXShbQ0gyXUMoPU8pW05IMl0pQyg9TylbTkhdW0NAQEhdKFtDSDJdW0NIMl1bQ0gyXVtDSDJdW05IMytdKUMoPU8pW05IXVtDQEBIXShbQ0gyXVtDSF0oW0NIM10pW0NIM10pQyg9TylbTkhdW0NAQEhdKFtDSDJdYzNbY0hdW2NIXWMoW09IXSlbY0hdW2NIXTMpQyg9TylbTkhdW0NIMl1DKD1PKVtOSF1bQ0BIXShDKD1PKVtPSF0pW0NIMl1bQ0gyXVNbQ0gzXQ==

> <s_epik_cmdline>
J2VwaWtfYXBwJywgJy1pbWFlJywgJ2xpZ2FuZF9wcm8ubWFlJywgJy1vbWFlJywgJ2xpZ2FuZF9wcmVwLm1hZScsICctbXMnLCAnMScsICctcGgnLCAnNycsICctcGh0JywgJzAuNScsICctbnQn

> <s_epik_pKa_notes>
Molecule size exceeds maximum supported for generating protonation states

$$$$
