1ugx_ligand
                    3D
 Schrodinger Suite 2020-3.
 54 55  0  0  1  0            999 V2000
   38.2590   34.4510   25.4310 C   0  0  1  0  0  0
   39.3090   34.6100   24.3490 C   0  0  1  0  0  0
   40.0520   35.9310   24.5350 C   0  0  2  0  0  0
   39.0350   37.1720   24.4260 C   0  0  2  0  0  0
   37.9510   37.0050   25.5490 C   0  0  1  0  0  0
   36.7700   37.8920   25.9000 C   0  0  0  0  0  0
   40.1670   33.4770   24.4450 O   0  0  0  0  0  0
   41.0350   36.0550   23.5120 O   0  0  0  0  0  0
   38.3350   37.1690   23.1730 O   0  0  0  0  0  0
   37.3220   35.6210   25.4040 O   0  0  0  0  0  0
   35.7330   37.8690   26.8680 O   0  0  0  0  0  0
   32.0040   32.6350   26.5090 O   0  0  0  0  0  0
   32.8500   33.0820   27.5500 C   0  0  0  0  0  0
   34.2970   32.5870   27.4100 C   0  0  1  0  0  0
   34.3580   31.0970   27.0990 O   0  0  0  0  0  0
   35.7100   30.4760   26.9570 C   0  0  2  0  0  0
   36.3570   30.4950   28.2390 O   0  0  0  0  0  0
   35.7250   29.7650   29.4700 C   0  0  0  0  0  0
   36.5020   31.2500   25.9000 C   0  0  2  0  0  0
   37.7340   30.5590   25.8660 N   0  0  0  0  0  0
   38.4030   30.2170   24.7300 C   0  0  0  0  0  0
   37.8600   30.1380   23.6130 O   0  0  0  0  0  0
   39.8880   29.9270   24.8530 C   0  0  0  0  0  0
   36.5490   32.7350   26.2580 C   0  0  1  0  0  0
   37.2990   33.3920   25.2820 O   0  0  0  0  0  0
   35.1040   33.3520   26.2630 C   0  0  1  0  0  0
   34.5370   33.0940   24.9530 O   0  0  0  0  0  0
   38.8638   34.2582   26.3293 H   0  0  0  0  0  0
   38.8971   34.5883   23.3293 H   0  0  0  0  0  0
   40.6104   35.8994   25.4822 H   0  0  0  0  0  0
   39.5603   38.1384   24.4404 H   0  0  0  0  0  0
   38.6081   37.3037   26.3790 H   0  0  0  0  0  0
   37.1320   38.8958   26.1670 H   0  0  0  0  0  0
   36.0953   37.9638   25.0342 H   0  0  0  0  0  0
   39.7549   32.4637   24.3293 H   0  0  0  0  0  0
   41.8281   35.2987   23.4167 H   0  0  0  0  0  0
   38.8931   37.2743   22.2310 H   0  0  0  0  0  0
   34.9840   38.6743   26.8909 H   0  0  0  0  0  0
   30.9429   32.9247   26.4999 H   0  0  0  0  0  0
   32.8747   34.1817   27.5557 H   0  0  0  0  0  0
   32.4671   32.7189   28.5152 H   0  0  0  0  0  0
   34.7339   32.7605   28.4045 H   0  0  0  0  0  0
   35.6446   29.4132   26.6811 H   0  0  0  0  0  0
   36.3728   29.9001   30.3487 H   0  0  0  0  0  0
   35.6260   28.6920   29.2489 H   0  0  0  0  0  0
   34.7318   30.1897   29.6779 H   0  0  0  0  0  0
   36.1362   31.2350   24.8627 H   0  0  0  0  0  0
   38.2215   30.2573   26.8048 H   0  0  0  0  0  0
   40.1986   30.0430   25.9019 H   0  0  0  0  0  0
   40.4524   30.6307   24.2235 H   0  0  0  0  0  0
   40.0890   28.8972   24.5227 H   0  0  0  0  0  0
   37.0802   32.8860   27.2093 H   0  0  0  0  0  0
   35.0567   34.4453   26.3750 H   0  0  0  0  0  0
   33.5190   33.4374   24.7170 H   0  0  0  0  0  0
  1  2  1  0  0  0
  1 10  1  0  0  0
  1 25  1  0  0  0
  1 28  1  0  0  0
  2  3  1  0  0  0
  2  7  1  0  0  0
  2 29  1  0  0  0
  3  4  1  0  0  0
  3  8  1  0  0  0
  3 30  1  0  0  0
  4  5  1  0  0  0
  4  9  1  0  0  0
  4 31  1  0  0  0
  5  6  1  0  0  0
  5 10  1  0  0  0
  5 32  1  0  0  0
  6 11  1  0  0  0
  6 33  1  0  0  0
  6 34  1  0  0  0
  7 35  1  0  0  0
  8 36  1  0  0  0
  9 37  1  0  0  0
 11 38  1  0  0  0
 12 13  1  0  0  0
 12 39  1  0  0  0
 13 14  1  0  0  0
 13 40  1  0  0  0
 13 41  1  0  0  0
 14 15  1  0  0  0
 14 26  1  0  0  0
 14 42  1  0  0  0
 15 16  1  0  0  0
 16 17  1  0  0  0
 16 19  1  0  0  0
 16 43  1  0  0  0
 17 18  1  0  0  0
 18 44  1  0  0  0
 18 45  1  0  0  0
 18 46  1  0  0  0
 19 20  1  0  0  0
 19 24  1  0  0  0
 19 47  1  0  0  0
 20 21  1  0  0  0
 20 48  1  0  0  0
 21 22  2  0  0  0
 21 23  1  0  0  0
 23 49  1  0  0  0
 23 50  1  0  0  0
 23 51  1  0  0  0
 24 25  1  0  0  0
 24 26  1  0  0  0
 24 52  1  0  0  0
 26 27  1  0  0  0
 26 53  1  0  0  0
 27 54  1  0  0  0
M  END
> <s_m_source_file>
../1ugx_ligand.sdf

> <i_m_source_file_index>
1

> <s_epik_input>
W09IXVtDSDJdW0NAQEhdKE8xKVtDQEhdKFtPSF0pW0NASF0oW09IXSlbQ0BASF0oW09IXSlbQ0BASF0xT1tDQEBIXShbQ0BIXTJbT0hdKVtDQEBIXShbTkhdQyg9TylbQ0gzXSlbQ0BASF0oT1tDSDNdKU9bQ0BASF0yW0NIMl1bT0hd

> <s_epik_cmdline>
J2VwaWtfYXBwJywgJy1pbWFlJywgJ2xpZ2FuZF9wcm8ubWFlJywgJy1vbWFlJywgJ2xpZ2FuZF9wcmVwLm1hZScsICctbXMnLCAnMScsICctcGgnLCAnNycsICctcGh0JywgJzAuNScsICctbnQn

> <r_lp_tautomer_probability>
1

> <r_epik_Ionization_Penalty>
  0.0000

> <r_epik_Ionization_Penalty_Charging>
  0.0000

> <r_epik_Ionization_Penalty_Neutral>
  0.0000

> <r_epik_State_Penalty>
 -0.0000

> <r_epik_Charging_Adjusted_Penalty>
0

> <i_epik_Tot_Q>
0

> <i_epik_Tot_abs_Q>
0

> <s_epik_Chemistry_Notes>
This compound contains an acetal/aminal-like group ( X-CH(R)-Y where X, Y are N, S, or O) that may be acid/base labile, releasing an aldehyde.

$$$$
