1ugy_ligand
                    3D
 Schrodinger Suite 2020-3.
 45 46  0  0  1  0            999 V2000
   51.6000   54.6100   66.4430 C   0  0  2  0  0  0
   52.3750   55.8880   66.1460 C   0  0  1  0  0  0
   52.3560   56.8120   67.3510 C   0  0  2  0  0  0
   50.9200   57.0360   67.8360 C   0  0  2  0  0  0
   50.2380   55.6870   68.1010 C   0  0  1  0  0  0
   48.8000   55.7580   68.6030 C   0  0  0  0  0  0
   53.7220   55.5480   65.8430 O   0  0  0  0  0  0
   52.9760   58.0550   67.0190 O   0  0  0  0  0  0
   50.2100   57.7790   66.8600 O   0  0  0  0  0  0
   50.2780   54.8910   66.9000 O   0  0  0  0  0  0
   47.8940   55.9580   67.5360 O   0  0  0  0  0  0
   53.2960   49.8590   69.4860 C   0  0  2  0  0  0
   53.8220   48.9900   68.3470 C   0  0  1  0  0  0
   54.4840   49.8880   67.2910 C   0  0  2  0  0  0
   53.5510   51.0100   66.8570 C   0  0  1  0  0  0
   52.8610   51.6870   68.0470 C   0  0  1  0  0  0
   51.7600   52.5500   67.5540 C   0  0  0  0  0  0
   52.7380   49.0840   70.4910 O   0  0  0  0  0  0
   54.7540   48.0400   68.8400 O   0  0  0  0  0  0
   54.8280   49.1180   66.1500 O   0  0  0  0  0  0
   54.3060   51.9910   66.1570 O   0  0  0  0  0  0
   52.2940   50.7350   68.9620 O   0  0  0  0  0  0
   52.3130   53.8560   67.3580 O   0  0  0  0  0  0
   51.4651   53.9556   65.5692 H   0  0  0  0  0  0
   51.9672   56.3998   65.2618 H   0  0  0  0  0  0
   52.9703   56.3935   68.1618 H   0  0  0  0  0  0
   50.8868   57.6629   68.7393 H   0  0  0  0  0  0
   50.8200   55.1798   68.8846 H   0  0  0  0  0  0
   48.5418   54.8167   69.1102 H   0  0  0  0  0  0
   48.6992   56.5949   69.3098 H   0  0  0  0  0  0
   53.9440   54.8819   64.9962 H   0  0  0  0  0  0
   54.0130   58.0718   66.6524 H   0  0  0  0  0  0
   50.5702   58.7729   66.5559 H   0  0  0  0  0  0
   46.8150   56.0310   67.7370 H   0  0  0  0  0  0
   54.0824   50.4431   69.9864 H   0  0  0  0  0  0
   53.0189   48.3756   67.9139 H   0  0  0  0  0  0
   55.4263   50.2993   67.6819 H   0  0  0  0  0  0
   52.8000   50.6067   66.1617 H   0  0  0  0  0  0
   53.5976   52.2639   68.6254 H   0  0  0  0  0  0
   51.3719   52.1446   66.6079 H   0  0  0  0  0  0
   50.9524   52.5762   68.3004 H   0  0  0  0  0  0
   53.3547   48.3430   71.0207 H   0  0  0  0  0  0
   54.4459   47.3140   69.6069 H   0  0  0  0  0  0
   55.4996   48.2529   66.2524 H   0  0  0  0  0  0
   54.8813   51.7078   65.2632 H   0  0  0  0  0  0
  1  2  1  0  0  0
  1 10  1  0  0  0
  1 23  1  0  0  0
  1 24  1  0  0  0
  2  3  1  0  0  0
  2  7  1  0  0  0
  2 25  1  0  0  0
  3  4  1  0  0  0
  3  8  1  0  0  0
  3 26  1  0  0  0
  4  5  1  0  0  0
  4  9  1  0  0  0
  4 27  1  0  0  0
  5  6  1  0  0  0
  5 10  1  0  0  0
  5 28  1  0  0  0
  6 11  1  0  0  0
  6 29  1  0  0  0
  6 30  1  0  0  0
  7 31  1  0  0  0
  8 32  1  0  0  0
  9 33  1  0  0  0
 11 34  1  0  0  0
 12 13  1  0  0  0
 12 18  1  0  0  0
 12 22  1  0  0  0
 12 35  1  0  0  0
 13 14  1  0  0  0
 13 19  1  0  0  0
 13 36  1  0  0  0
 14 15  1  0  0  0
 14 20  1  0  0  0
 14 37  1  0  0  0
 15 16  1  0  0  0
 15 21  1  0  0  0
 15 38  1  0  0  0
 16 17  1  0  0  0
 16 22  1  0  0  0
 16 39  1  0  0  0
 17 23  1  0  0  0
 17 40  1  0  0  0
 17 41  1  0  0  0
 18 42  1  0  0  0
 19 43  1  0  0  0
 20 44  1  0  0  0
 21 45  1  0  0  0
M  END
> <s_m_source_file>
../1ugy_ligand.sdf

> <i_m_source_file_index>
1

> <s_epik_input>
W09IXVtDSDJdW0NAQEhdKE8xKVtDQEhdKFtPSF0pW0NASF0oW09IXSlbQ0BASF0oW09IXSlbQ0BIXTFPW0NIMl1bQ0BASF0oTzIpW0NAQEhdKFtPSF0pW0NASF0oW09IXSlbQ0BASF0oW09IXSlbQ0BASF0yW09IXQ==

> <s_epik_cmdline>
J2VwaWtfYXBwJywgJy1pbWFlJywgJ2xpZ2FuZF9wcm8ubWFlJywgJy1vbWFlJywgJ2xpZ2FuZF9wcmVwLm1hZScsICctbXMnLCAnMScsICctcGgnLCAnNycsICctcGh0JywgJzAuNScsICctbnQn

> <r_lp_tautomer_probability>
1

> <r_epik_Ionization_Penalty>
  0.0000

> <r_epik_Ionization_Penalty_Charging>
  0.0000

> <r_epik_Ionization_Penalty_Neutral>
  0.0000

> <r_epik_State_Penalty>
 -0.0000

> <r_epik_Charging_Adjusted_Penalty>
0

> <i_epik_Tot_Q>
0

> <i_epik_Tot_abs_Q>
0

> <s_epik_Chemistry_Notes>
This compound contains an acetal/aminal-like group ( X-CH(R)-Y where X, Y are N, S, or O) that may be acid/base labile, releasing an aldehyde.

$$$$
