1uh1_ligand
                    3D
 Schrodinger Suite 2020-3.
 54 55  0  0  1  0            999 V2000
   30.3420   85.0510   38.8280 C   0  0  1  0  0  0
   29.9290   85.0910   40.3210 C   0  0  1  0  0  0
   30.7820   84.0380   41.0760 C   0  0  2  0  0  0
   30.4850   82.5710   40.5120 C   0  0  2  0  0  0
   31.0090   82.5400   38.9950 C   0  0  1  0  0  0
   30.7990   81.1800   38.3120 C   0  0  0  0  0  0
   29.2800   87.5280   40.5780 C   0  0  0  0  0  0
   29.7270   88.8700   41.1060 C   0  0  0  0  0  0
   30.1570   86.4420   40.7480 N   0  0  0  0  0  0
   30.3830   84.0870   42.4100 O   0  0  0  0  0  0
   29.0850   82.2810   40.5900 O   0  0  0  0  0  0
   30.2030   83.6660   38.2700 O   0  0  0  0  0  0
   31.0710   81.2030   36.8860 O   0  0  0  0  0  0
   28.1750   87.4560   40.0030 O   0  0  0  0  0  0
   30.3850   88.0800   35.3160 C   0  0  1  0  0  0
   29.9760   87.6430   36.6400 C   0  0  1  0  0  0
   30.2070   86.0620   36.7520 C   0  0  2  0  0  0
   29.4350   85.3320   35.5810 C   0  0  2  0  0  0
   29.8440   85.9270   34.2280 C   0  0  1  0  0  0
   29.2320   85.3800   32.9470 C   0  0  0  0  0  0
   32.3410   88.6460   33.7810 C   0  0  0  0  0  0
   31.7940   87.9890   34.9790 O   0  0  0  0  0  0
   30.6710   88.2400   37.6900 O   0  0  0  0  0  0
   29.6600   85.7000   38.0820 O   0  0  0  0  0  0
   28.0840   85.5690   35.8920 O   0  0  0  0  0  0
   29.6300   87.3820   34.3170 O   0  0  0  0  0  0
   27.8720   85.7750   32.8890 O   0  0  0  0  0  0
   31.2917   85.5866   38.6825 H   0  0  0  0  0  0
   28.8672   84.9076   40.5420 H   0  0  0  0  0  0
   31.8526   84.2903   41.0656 H   0  0  0  0  0  0
   30.8949   81.7597   41.1315 H   0  0  0  0  0  0
   32.0969   82.6834   38.9180 H   0  0  0  0  0  0
   31.4701   80.4350   38.7644 H   0  0  0  0  0  0
   29.7547   80.8607   38.4440 H   0  0  0  0  0  0
   30.7135   88.7668   41.5816 H   0  0  0  0  0  0
   28.9992   89.2336   41.8463 H   0  0  0  0  0  0
   29.7940   89.5873   40.2747 H   0  0  0  0  0  0
   31.0927   86.7056   41.2627 H   0  0  0  0  0  0
   30.5031   85.0163   42.9862 H   0  0  0  0  0  0
   28.5802   82.2654   41.5672 H   0  0  0  0  0  0
   30.9550   80.2864   36.2891 H   0  0  0  0  0  0
   30.1695   89.1586   35.3266 H   0  0  0  0  0  0
   28.9645   88.0575   36.7627 H   0  0  0  0  0  0
   31.2556   85.7312   36.7202 H   0  0  0  0  0  0
   29.5536   84.2421   35.4910 H   0  0  0  0  0  0
   30.9019   85.6589   34.0901 H   0  0  0  0  0  0
   29.7756   85.7829   32.0798 H   0  0  0  0  0  0
   29.3028   84.2823   32.9464 H   0  0  0  0  0  0
   33.4215   88.4503   33.7166 H   0  0  0  0  0  0
   32.1680   89.7303   33.8462 H   0  0  0  0  0  0
   31.8423   88.2484   32.8848 H   0  0  0  0  0  0
   30.6529   89.3332   37.8103 H   0  0  0  0  0  0
   27.6631   85.1939   36.8365 H   0  0  0  0  0  0
   27.2487   85.4770   32.0330 H   0  0  0  0  0  0
  1  2  1  0  0  0
  1 12  1  0  0  0
  1 24  1  0  0  0
  1 28  1  0  0  0
  2  3  1  0  0  0
  2  9  1  0  0  0
  2 29  1  0  0  0
  3  4  1  0  0  0
  3 10  1  0  0  0
  3 30  1  0  0  0
  4  5  1  0  0  0
  4 11  1  0  0  0
  4 31  1  0  0  0
  5  6  1  0  0  0
  5 12  1  0  0  0
  5 32  1  0  0  0
  6 13  1  0  0  0
  6 33  1  0  0  0
  6 34  1  0  0  0
  7  8  1  0  0  0
  7  9  1  0  0  0
  7 14  2  0  0  0
  8 35  1  0  0  0
  8 36  1  0  0  0
  8 37  1  0  0  0
  9 38  1  0  0  0
 10 39  1  0  0  0
 11 40  1  0  0  0
 13 41  1  0  0  0
 15 16  1  0  0  0
 15 22  1  0  0  0
 15 26  1  0  0  0
 15 42  1  0  0  0
 16 17  1  0  0  0
 16 23  1  0  0  0
 16 43  1  0  0  0
 17 18  1  0  0  0
 17 24  1  0  0  0
 17 44  1  0  0  0
 18 19  1  0  0  0
 18 25  1  0  0  0
 18 45  1  0  0  0
 19 20  1  0  0  0
 19 26  1  0  0  0
 19 46  1  0  0  0
 20 27  1  0  0  0
 20 47  1  0  0  0
 20 48  1  0  0  0
 21 22  1  0  0  0
 21 49  1  0  0  0
 21 50  1  0  0  0
 21 51  1  0  0  0
 23 52  1  0  0  0
 25 53  1  0  0  0
 27 54  1  0  0  0
M  END
> <s_m_source_file>
../1uh1_ligand.sdf

> <i_m_source_file_index>
1

> <s_epik_input>
W0NIM11PW0NAQEhdMVtDQEhdKFtPSF0pW0NASF0oW0NAQEhdKFtPSF0pW0NASF0oTzEpW0NIMl1bT0hdKU9bQ0BIXTJbQ0BIXShbTkhdQyg9TylbQ0gzXSlbQ0BASF0oW09IXSlbQ0BASF0oW09IXSlbQ0BIXShPMilbQ0gyXVtPSF0=

> <s_epik_cmdline>
J2VwaWtfYXBwJywgJy1pbWFlJywgJ2xpZ2FuZF9wcm8ubWFlJywgJy1vbWFlJywgJ2xpZ2FuZF9wcmVwLm1hZScsICctbXMnLCAnMScsICctcGgnLCAnNycsICctcGh0JywgJzAuNScsICctbnQn

> <r_lp_tautomer_probability>
1

> <r_epik_Ionization_Penalty>
  0.0000

> <r_epik_Ionization_Penalty_Charging>
  0.0000

> <r_epik_Ionization_Penalty_Neutral>
  0.0000

> <r_epik_State_Penalty>
 -0.0000

> <r_epik_Charging_Adjusted_Penalty>
0

> <i_epik_Tot_Q>
0

> <i_epik_Tot_abs_Q>
0

> <s_epik_Chemistry_Notes>
This compound contains an acetal/aminal-like group ( X-CH(R)-Y where X, Y are N, S, or O) that may be acid/base labile, releasing an aldehyde.

$$$$
