1uj0_ligand
                    3D
 Schrodinger Suite 2020-3.
154154  0  0  1  0            999 V2000
   16.3820   23.9260   20.7840 N   0  3  0  0  0  0
   15.3740   23.0890   21.4910 C   0  0  2  0  0  0
   15.9370   22.6080   22.8270 C   0  0  0  0  0  0
   17.0570   22.0770   22.8710 O   0  0  0  0  0  0
   15.0160   21.9050   20.6200 C   0  0  2  0  0  0
   14.5860   22.3790   19.3280 O   0  0  0  0  0  0
   13.8240   21.2030   21.1620 C   0  0  0  0  0  0
   15.1770   22.7680   23.9090 N   0  0  0  0  0  0
   15.6010   22.3050   25.2280 C   0  0  2  0  0  0
   15.6390   20.7790   25.2290 C   0  0  0  0  0  0
   14.8580   20.1310   24.5230 O   0  0  0  0  0  0
   14.4670   22.7870   26.1470 C   0  0  0  0  0  0
   13.8130   23.8300   25.4030 C   0  0  0  0  0  0
   13.8280   23.3690   23.9630 C   0  0  0  0  0  0
   16.5370   20.2030   26.0040 N   0  0  0  0  0  0
   16.5530   18.7730   26.1420 C   0  0  2  0  0  0
   15.3260   18.2260   26.9000 C   0  0  0  0  0  0
   14.8240   18.8610   27.8620 O   0  0  0  0  0  0
   17.8510   18.3120   26.8130 C   0  0  0  0  0  0
   17.9330   16.8450   26.7580 C   0  0  0  0  0  0
   18.4190   16.3050   25.0850 S   0  0  0  0  0  0
   19.6110   17.2870   24.8340 C   0  0  0  0  0  0
   14.8140   17.0870   26.4450 N   0  0  0  0  0  0
   13.6470   16.4830   27.0670 C   0  0  2  0  0  0
   14.1060   15.2720   27.8250 C   0  0  0  0  0  0
   15.0100   14.5670   27.3590 O   0  0  0  0  0  0
   12.5650   16.1340   26.0240 C   0  0  0  0  0  0
   11.4030   15.3210   26.6300 C   0  0  0  0  0  0
   12.0480   17.4180   25.3970 C   0  0  0  0  0  0
   13.5140   15.0710   29.0010 N   0  0  0  0  0  0
   13.7570   13.9190   29.8460 C   0  0  2  0  0  0
   12.4620   13.2030   30.2190 C   0  0  0  0  0  0
   11.6550   13.7180   31.0000 O   0  0  0  0  0  0
   14.5250   14.3210   31.1170 C   0  0  0  0  0  0
   14.9850   13.0940   31.9340 C   0  0  0  0  0  0
   14.1670   12.2550   32.3410 O   0  0  0  0  0  0
   16.3020   12.9740   32.1440 N   0  0  0  0  0  0
   12.2590   12.0060   29.6730 N   0  0  0  0  0  0
   10.9890   11.2910   29.8660 C   0  0  2  0  0  0
   11.0220   10.3840   31.0800 C   0  0  0  0  0  0
    9.9800    9.9110   31.5590 O   0  0  0  0  0  0
   10.6350   10.4820   28.6410 C   0  0  0  0  0  0
   10.1680   11.3430   27.5100 C   0  0  0  0  0  0
    9.8320   10.5690   26.2670 C   0  0  0  0  0  0
    9.1550   11.4880   25.3490 N   0  0  0  0  0  0
    9.7380   12.3310   24.5210 C   0  0  0  0  0  0
   11.0900   12.4450   24.4100 N   0  0  0  0  0  0
    8.9630   13.0980   23.8000 N   0  0  0  0  0  0
   12.2270   10.1710   31.5880 N   0  0  0  0  0  0
   12.3760    9.3310   32.7610 C   0  0  2  0  0  0
   11.4960    9.8680   33.8980 C   0  0  0  0  0  0
   11.0460    9.1020   34.7300 O   0  0  0  0  0  0
   13.8530    9.1940   33.1360 C   0  0  0  0  0  0
   14.1330    8.4050   34.4090 C   0  0  0  0  0  0
   15.4220    7.6180   34.3110 C   0  0  0  0  0  0
   15.9570    7.2150   35.3700 O   0  0  0  0  0  0
   15.9110    7.3890   33.1770 O   0  0  0  0  0  0
   11.1670   11.1660   33.8650 N   0  0  0  0  0  0
   10.3980   11.8150   34.9500 C   0  0  2  0  0  0
    8.9220   12.2460   34.7100 C   0  0  0  0  0  0
    8.3260   12.9660   35.5400 O   0  0  0  0  0  0
   11.2070   13.0000   35.4950 C   0  0  0  0  0  0
   10.8680   14.3150   34.8070 C   0  0  0  0  0  0
   11.0380   14.4770   33.5980 O   0  0  0  0  0  0
   10.3800   15.2580   35.5880 N   0  0  0  0  0  0
    8.3270   11.7770   33.6180 N   0  0  0  0  0  0
    6.9860   12.1830   33.2080 C   0  0  2  0  0  0
    5.8850   12.0840   34.2660 C   0  0  0  0  0  0
    5.7800   11.0730   34.9550 O   0  0  0  0  0  0
    6.5620   11.3800   31.9920 C   0  0  0  0  0  0
    7.2380   11.8400   30.7550 C   0  0  0  0  0  0
    6.8010   11.0570   29.5660 C   0  0  0  0  0  0
    5.2920   11.0490   29.3320 C   0  0  0  0  0  0
    5.1660   10.3140   28.0690 N   0  3  0  0  0  0
    5.0394   13.0958   34.4398 O   0  0  0  0  0  0
   15.9671   24.2670   19.8240 H   0  0  0  0  0  0
   17.2890   23.3312   20.6009 H   0  0  0  0  0  0
   16.6347   24.7982   21.4048 H   0  0  0  0  0  0
   14.4776   23.7009   21.6698 H   0  0  0  0  0  0
   15.8908   21.2434   20.5363 H   0  0  0  0  0  0
   15.2810   22.9454   18.6907 H   0  0  0  0  0  0
   14.0571   20.8010   22.1590 H   0  0  0  0  0  0
   13.5472   20.3778   20.4894 H   0  0  0  0  0  0
   12.9852   21.9105   21.2388 H   0  0  0  0  0  0
   16.5989   22.6864   25.4900 H   0  0  0  0  0  0
   13.7869   21.9492   26.3604 H   0  0  0  0  0  0
   14.8930   23.1625   27.0891 H   0  0  0  0  0  0
   12.7851   23.9558   25.7740 H   0  0  0  0  0  0
   14.3661   24.7724   25.5290 H   0  0  0  0  0  0
   13.7606   24.1853   23.2288 H   0  0  0  0  0  0
   13.0752   22.6020   23.7285 H   0  0  0  0  0  0
   17.2733   20.8160   26.5445 H   0  0  0  0  0  0
   16.5085   18.4315   25.0973 H   0  0  0  0  0  0
   18.7117   18.7487   26.2852 H   0  0  0  0  0  0
   17.8585   18.6418   27.8624 H   0  0  0  0  0  0
   18.6819   16.4922   27.4824 H   0  0  0  0  0  0
   16.9519   16.4134   27.0053 H   0  0  0  0  0  0
   20.0389   17.0974   23.8385 H   0  0  0  0  0  0
   20.3835   17.1296   25.6012 H   0  0  0  0  0  0
   19.2486   18.3243   24.8859 H   0  0  0  0  0  0
   15.2903   16.6007   25.5809 H   0  0  0  0  0  0
   13.2273   17.2206   27.7668 H   0  0  0  0  0  0
   13.0211   15.5076   25.2432 H   0  0  0  0  0  0
   11.7967   14.3969   27.0782 H   0  0  0  0  0  0
   10.6819   15.0667   25.8392 H   0  0  0  0  0  0
   10.9016   15.9196   27.4048 H   0  0  0  0  0  0
   12.8902   17.9830   24.9710 H   0  0  0  0  0  0
   11.5496   18.0267   26.1658 H   0  0  0  0  0  0
   11.3299   17.1737   24.6003 H   0  0  0  0  0  0
   12.8025   15.8469   29.3201 H   0  0  0  0  0  0
   14.3661   13.2561   29.2139 H   0  0  0  0  0  0
   15.4179   14.8998   30.8382 H   0  0  0  0  0  0
   13.8760   14.9347   31.7589 H   0  0  0  0  0  0
   16.9917   13.7425   31.7649 H   0  0  0  0  0  0
   16.6942   12.1069   32.6956 H   0  0  0  0  0  0
   13.0593   11.5526   29.0697 H   0  0  0  0  0  0
   10.2403   12.0807   30.0269 H   0  0  0  0  0  0
   11.5200    9.9235   28.3021 H   0  0  0  0  0  0
    9.8285    9.7760   28.8883 H   0  0  0  0  0  0
    9.2619   11.8877   27.8138 H   0  0  0  0  0  0
   10.9573   12.0624   27.2467 H   0  0  0  0  0  0
   10.7572   10.1836   25.8138 H   0  0  0  0  0  0
    9.1725    9.7276   26.5260 H   0  0  0  0  0  0
    8.0561   11.5153   25.3091 H   0  0  0  0  0  0
   11.7476   11.8025   25.0140 H   0  0  0  0  0  0
   11.5249   13.1796   23.7163 H   0  0  0  0  0  0
    7.8698   13.0107   23.8851 H   0  0  0  0  0  0
   13.1127   10.6287   31.1232 H   0  0  0  0  0  0
   12.0140    8.3290   32.4871 H   0  0  0  0  0  0
   14.3907    8.6794   32.3261 H   0  0  0  0  0  0
   14.2872   10.1933   33.2872 H   0  0  0  0  0  0
   14.2156    9.0980   35.2592 H   0  0  0  0  0  0
   13.3100    7.6981   34.5908 H   0  0  0  0  0  0
   16.8472    6.8186   33.0867 H   0  0  0  0  0  0
   11.4891   11.7528   32.9921 H   0  0  0  0  0  0
   10.3080   10.9617   35.6383 H   0  0  0  0  0  0
   11.0018   13.1211   36.5689 H   0  0  0  0  0  0
   12.2803   12.8108   35.3459 H   0  0  0  0  0  0
   10.2458   15.0670   36.6630 H   0  0  0  0  0  0
   10.1070   16.2359   35.1648 H   0  0  0  0  0  0
    8.8911   11.0518   33.0132 H   0  0  0  0  0  0
    7.1365   13.2530   33.0019 H   0  0  0  0  0  0
    6.8144   10.3205   32.1460 H   0  0  0  0  0  0
    5.4764   11.4808   31.8463 H   0  0  0  0  0  0
    6.9995   12.8993   30.5791 H   0  0  0  0  0  0
    8.3260   11.7227   30.8664 H   0  0  0  0  0  0
    7.2626   11.4773   28.6603 H   0  0  0  0  0  0
    7.1118   10.0083   29.6831 H   0  0  0  0  0  0
    4.7935   10.5416   30.1711 H   0  0  0  0  0  0
    4.9266   12.0840   29.2602 H   0  0  0  0  0  0
    4.1041   10.2416   27.7913 H   0  0  0  0  0  0
    5.5832    9.3034   28.1897 H   0  0  0  0  0  0
    5.7162   10.8458   27.2788 H   0  0  0  0  0  0
    4.2473   13.0263   35.1999 H   0  0  0  0  0  0
  1  2  1  0  0  0
  1 76  1  0  0  0
  1 77  1  0  0  0
  1 78  1  0  0  0
  2  5  1  0  0  0
  2  3  1  0  0  0
  2 79  1  0  0  0
  3  4  2  0  0  0
  3  8  1  0  0  0
  5  7  1  0  0  0
  5  6  1  0  0  0
  5 80  1  0  0  0
  6 81  1  0  0  0
  7 82  1  0  0  0
  7 83  1  0  0  0
  7 84  1  0  0  0
  8  9  1  0  0  0
  8 14  1  0  0  0
  9 10  1  0  0  0
  9 12  1  0  0  0
  9 85  1  0  0  0
 10 11  2  0  0  0
 10 15  1  0  0  0
 12 13  1  0  0  0
 12 86  1  0  0  0
 12 87  1  0  0  0
 13 14  1  0  0  0
 13 88  1  0  0  0
 13 89  1  0  0  0
 14 90  1  0  0  0
 14 91  1  0  0  0
 15 16  1  0  0  0
 15 92  1  0  0  0
 16 19  1  0  0  0
 16 17  1  0  0  0
 16 93  1  0  0  0
 17 18  2  0  0  0
 17 23  1  0  0  0
 19 20  1  0  0  0
 19 94  1  0  0  0
 19 95  1  0  0  0
 20 21  1  0  0  0
 20 96  1  0  0  0
 20 97  1  0  0  0
 21 22  1  0  0  0
 22 98  1  0  0  0
 22 99  1  0  0  0
 22100  1  0  0  0
 23 24  1  0  0  0
 23101  1  0  0  0
 24 27  1  0  0  0
 24 25  1  0  0  0
 24102  1  0  0  0
 25 26  2  0  0  0
 25 30  1  0  0  0
 27 29  1  0  0  0
 27 28  1  0  0  0
 27103  1  0  0  0
 28104  1  0  0  0
 28105  1  0  0  0
 28106  1  0  0  0
 29107  1  0  0  0
 29108  1  0  0  0
 29109  1  0  0  0
 30 31  1  0  0  0
 30110  1  0  0  0
 31 34  1  0  0  0
 31 32  1  0  0  0
 31111  1  0  0  0
 32 33  2  0  0  0
 32 38  1  0  0  0
 34 35  1  0  0  0
 34112  1  0  0  0
 34113  1  0  0  0
 35 37  1  0  0  0
 35 36  2  0  0  0
 37114  1  0  0  0
 37115  1  0  0  0
 38 39  1  0  0  0
 38116  1  0  0  0
 39 42  1  0  0  0
 39 40  1  0  0  0
 39117  1  0  0  0
 40 41  2  0  0  0
 40 49  1  0  0  0
 42 43  1  0  0  0
 42118  1  0  0  0
 42119  1  0  0  0
 43 44  1  0  0  0
 43120  1  0  0  0
 43121  1  0  0  0
 44 45  1  0  0  0
 44122  1  0  0  0
 44123  1  0  0  0
 45 46  1  0  0  0
 45124  1  0  0  0
 46 48  2  0  0  0
 46 47  1  0  0  0
 47125  1  0  0  0
 47126  1  0  0  0
 48127  1  0  0  0
 49 50  1  0  0  0
 49128  1  0  0  0
 50 53  1  0  0  0
 50 51  1  0  0  0
 50129  1  0  0  0
 51 52  2  0  0  0
 51 58  1  0  0  0
 53 54  1  0  0  0
 53130  1  0  0  0
 53131  1  0  0  0
 54 55  1  0  0  0
 54132  1  0  0  0
 54133  1  0  0  0
 55 57  1  0  0  0
 55 56  2  0  0  0
 57134  1  0  0  0
 58 59  1  0  0  0
 58135  1  0  0  0
 59 62  1  0  0  0
 59 60  1  0  0  0
 59136  1  0  0  0
 60 61  2  0  0  0
 60 66  1  0  0  0
 62 63  1  0  0  0
 62137  1  0  0  0
 62138  1  0  0  0
 63 65  1  0  0  0
 63 64  2  0  0  0
 65139  1  0  0  0
 65140  1  0  0  0
 66 67  1  0  0  0
 66141  1  0  0  0
 67 70  1  0  0  0
 67 68  1  0  0  0
 67142  1  0  0  0
 68 69  2  0  0  0
 68 75  1  0  0  0
 70 71  1  0  0  0
 70143  1  0  0  0
 70144  1  0  0  0
 71 72  1  0  0  0
 71145  1  0  0  0
 71146  1  0  0  0
 72 73  1  0  0  0
 72147  1  0  0  0
 72148  1  0  0  0
 73 74  1  0  0  0
 73149  1  0  0  0
 73150  1  0  0  0
 74151  1  0  0  0
 74152  1  0  0  0
 74153  1  0  0  0
 75154  1  0  0  0
M  CHG  2   1   1  74   1
M  END
> <s_m_source_file>
../1uj0_ligand.sdf

> <i_m_source_file_index>
1

> <s_epik_input>
W09IXVtDQEhdKFtDSDNdKVtDQEhdKFtOSDMrXSlDKD1PKU4xW0NAQEhdKFtDSDJdW0NIMl1bQ0gyXTEpQyg9TylbTkhdW0NAQEhdKFtDSDJdW0NIMl1TW0NIM10pQyg9TylbTkhdW0NAQEhdKFtDSF0oW0NIM10pW0NIM10pQyg9TylbTkhdW0NAQEhdKFtDSDJdQyg9TylbTkgyXSlDKD1PKVtOSF1bQ0BASF0oW0NIMl1bQ0gyXVtDSDJdW05IXS9DKFtOSDJdKT1OXFtIXSlDKD1PKVtOSF1bQ0BASF0oW0NIMl1bQ0gyXUMoPU8pW09IXSlDKD1PKVtOSF1bQ0BASF0oW0NIMl1DKD1PKVtOSDJdKUMoPU8pW05IXVtDQEhdKEMoPU8pW09IXSlbQ0gyXVtDSDJdW0NIMl1bQ0gyXVtOSDMrXQ==

> <s_epik_cmdline>
J2VwaWtfYXBwJywgJy1pbWFlJywgJ2xpZ2FuZF9wcm8ubWFlJywgJy1vbWFlJywgJ2xpZ2FuZF9wcmVwLm1hZScsICctbXMnLCAnMScsICctcGgnLCAnNycsICctcGh0JywgJzAuNScsICctbnQn

> <s_epik_pKa_notes>
Molecule size exceeds maximum supported for generating protonation states

> <s_epik_Chemistry_Notes>
This compound has an imine and may undergo hydrolysis.

$$$$
