1ujj_ligand
                    3D
 Schrodinger Suite 2020-3.
117116  0  0  1  0            999 V2000
  106.4550   11.3360    6.9070 N   0  3  0  0  0  0
  107.8810   10.8940    6.8430 C   0  0  2  0  0  0
  108.7630   11.8270    7.6840 C   0  0  0  0  0  0
  108.4670   13.0200    7.8380 O   0  0  0  0  0  0
  108.3840   10.9030    5.3930 C   0  0  0  0  0  0
  108.5840   12.3160    4.8540 C   0  0  0  0  0  0
  107.5790   13.0380    4.6640 O   0  5  0  0  0  0
  109.7510   12.7060    4.6350 O   0  0  0  0  0  0
  109.8550   11.2810    8.2100 N   0  0  0  0  0  0
  110.7700   12.0530    9.0350 C   0  0  2  0  0  0
  112.1110   11.3320    9.1490 C   0  0  0  0  0  0
  112.1590   10.1060    9.1460 O   0  0  0  0  0  0
  110.1440   12.2570   10.4190 C   0  0  0  0  0  0
  111.0790   12.9430   11.3920 C   0  0  0  0  0  0
  111.8100   13.8540   10.9730 O   0  0  0  0  0  0
  111.0740   12.5820   12.5860 O   0  5  0  0  0  0
  113.2010   12.0900    9.2460 N   0  0  0  0  0  0
  114.5270   11.4940    9.3620 C   0  0  2  0  0  0
  114.6870   10.8530   10.7480 C   0  0  0  0  0  0
  113.8290   10.9990   11.6150 O   0  0  0  0  0  0
  115.6360   12.5630    9.1160 C   0  0  2  0  0  0
  117.0020   11.8840    8.9630 C   0  0  0  0  0  0
  115.7030   13.5510   10.2700 C   0  0  0  0  0  0
  118.1710   12.8570    8.7880 C   0  0  0  0  0  0
  115.7760   10.1250   10.9510 N   0  0  0  0  0  0
  116.0200    9.4810   12.2290 C   0  0  2  0  0  0
  116.7270   10.4380   13.1820 C   0  0  0  0  0  0
  117.2660   11.4630   12.7550 O   0  0  0  0  0  0
  116.8770    8.2310   12.0290 C   0  0  0  0  0  0
  116.2240    7.3080   11.1760 O   0  0  0  0  0  0
  116.7150   10.0940   14.4700 N   0  0  0  0  0  0
  117.3580   10.9030   15.5070 C   0  0  2  0  0  0
  118.8660   10.9550   15.3090 C   0  0  0  0  0  0
  119.5170    9.9290   15.1710 O   0  0  0  0  0  0
  117.0590   10.3370   16.9020 C   0  0  0  0  0  0
  117.9150   10.8360   18.0740 C   0  0  0  0  0  0
  117.6610   12.3130   18.3200 C   0  0  0  0  0  0
  117.5850   10.0290   19.3400 C   0  0  0  0  0  0
  119.4180   12.1580   15.2940 N   0  0  0  0  0  0
  120.8480   12.3270   15.1320 C   0  0  2  0  0  0
  121.5760   11.6200   16.2680 C   0  0  0  0  0  0
  120.9920   11.3740   17.3190 O   0  0  0  0  0  0
  121.1920   13.8090   15.1530 C   0  0  0  0  0  0
  122.6730   14.1280   15.0410 C   0  0  0  0  0  0
  123.1860   13.6230   13.7100 C   0  0  0  0  0  0
  122.8910   15.6210   15.1750 C   0  0  0  0  0  0
  122.8460   11.2900   16.0460 N   0  0  0  0  0  0
  123.6720   10.6220   17.0510 C   0  0  2  0  0  0
  124.7760   11.5430   17.6180 C   0  0  0  0  0  0
  125.9810   11.3070   17.3490 O   0  0  0  0  0  0
  124.2770    9.3490   16.4510 C   0  0  0  0  0  0
  123.2780    8.2100   16.3320 C   0  0  0  0  0  0
  122.7930    7.7770   17.7190 C   0  0  0  0  0  0
  121.6250    6.7930   17.6470 C   0  0  0  0  0  0
  121.9350    5.5360   16.9000 N   0  3  0  0  0  0
  124.4100   12.5070   18.3390 O   0  5  0  0  0  0
  106.1136   11.3228    7.9526 H   0  0  0  0  0  0
  105.8325   10.6538    6.3094 H   0  0  0  0  0  0
  106.3692   12.3568    6.5061 H   0  0  0  0  0  0
  107.9113    9.8709    7.2459 H   0  0  0  0  0  0
  109.3494   10.3788    5.3366 H   0  0  0  0  0  0
  107.6524   10.3945    4.7479 H   0  0  0  0  0  0
  110.0590   10.2191    8.0082 H   0  0  0  0  0  0
  110.9199   13.0190    8.5306 H   0  0  0  0  0  0
  109.2419   12.8794   10.3252 H   0  0  0  0  0  0
  109.8728   11.2804   10.8464 H   0  0  0  0  0  0
  113.0886   13.1842    9.2375 H   0  0  0  0  0  0
  114.5703   10.7168    8.5848 H   0  0  0  0  0  0
  115.3977   13.1219    8.1990 H   0  0  0  0  0  0
  117.2147   11.2822    9.8589 H   0  0  0  0  0  0
  116.9901   11.2316    8.0774 H   0  0  0  0  0  0
  114.7267   14.0438   10.3879 H   0  0  0  0  0  0
  116.4730   14.3081   10.0602 H   0  0  0  0  0  0
  115.9578   13.0158   11.1966 H   0  0  0  0  0  0
  119.1080   12.2898    8.6859 H   0  0  0  0  0  0
  118.2348   13.5154    9.6669 H   0  0  0  0  0  0
  118.0101   13.4649    7.8854 H   0  0  0  0  0  0
  116.5010   10.0129   10.1313 H   0  0  0  0  0  0
  115.0277    9.2171   12.6237 H   0  0  0  0  0  0
  117.8388    8.5144   11.5766 H   0  0  0  0  0  0
  117.0570    7.7503   13.0019 H   0  0  0  0  0  0
  116.7071    6.3513   10.9281 H   0  0  0  0  0  0
  116.1964    9.1627   14.7416 H   0  0  0  0  0  0
  116.9280   11.9081   15.3854 H   0  0  0  0  0  0
  116.0220   10.5761   17.1802 H   0  0  0  0  0  0
  117.1933    9.2453   16.8913 H   0  0  0  0  0  0
  118.9785   10.7097   17.8229 H   0  0  0  0  0  0
  117.8995   12.8826   17.4097 H   0  0  0  0  0  0
  118.2963   12.6614   19.1476 H   0  0  0  0  0  0
  116.6032   12.4646   18.5808 H   0  0  0  0  0  0
  117.7716    8.9612   19.1532 H   0  0  0  0  0  0
  116.5270   10.1758   19.6030 H   0  0  0  0  0  0
  118.2202   10.3726   20.1698 H   0  0  0  0  0  0
  118.7694   13.0392   15.4075 H   0  0  0  0  0  0
  121.1114   11.8811   14.1615 H   0  0  0  0  0  0
  120.6975   14.3122   14.3090 H   0  0  0  0  0  0
  120.8457   14.2525   16.0982 H   0  0  0  0  0  0
  123.2308   13.6304   15.8480 H   0  0  0  0  0  0
  123.0157   12.5386   13.6390 H   0  0  0  0  0  0
  124.2631   13.8311   13.6294 H   0  0  0  0  0  0
  122.6521   14.1323   12.8942 H   0  0  0  0  0  0
  122.5100   15.9612   16.1492 H   0  0  0  0  0  0
  122.3551   16.1436   14.3689 H   0  0  0  0  0  0
  123.9662   15.8424   15.1041 H   0  0  0  0  0  0
  123.2704   11.5386   15.0621 H   0  0  0  0  0  0
  122.9777   10.3735   17.8672 H   0  0  0  0  0  0
  124.6572    9.5643   15.4415 H   0  0  0  0  0  0
  125.1037    9.0006   17.0875 H   0  0  0  0  0  0
  122.4135    8.5411   15.7378 H   0  0  0  0  0  0
  123.7568    7.3526   15.8364 H   0  0  0  0  0  0
  123.6168    7.2874   18.2591 H   0  0  0  0  0  0
  122.4587    8.6604   18.2828 H   0  0  0  0  0  0
  121.3283    6.5010   18.6652 H   0  0  0  0  0  0
  120.7738    7.2707   17.1398 H   0  0  0  0  0  0
  121.0483    4.8850   16.8938 H   0  0  0  0  0  0
  122.7696    5.0141   17.3909 H   0  0  0  0  0  0
  122.2152    5.7839   15.8656 H   0  0  0  0  0  0
  1  2  1  0  0  0
  1 57  1  0  0  0
  1 58  1  0  0  0
  1 59  1  0  0  0
  2  3  1  0  0  0
  2  5  1  0  0  0
  2 60  1  0  0  0
  3  4  2  0  0  0
  3  9  1  0  0  0
  5  6  1  0  0  0
  5 61  1  0  0  0
  5 62  1  0  0  0
  6  7  1  0  0  0
  6  8  2  0  0  0
  9 10  1  0  0  0
  9 63  1  0  0  0
 10 11  1  0  0  0
 10 13  1  0  0  0
 10 64  1  0  0  0
 11 12  2  0  0  0
 11 17  1  0  0  0
 13 14  1  0  0  0
 13 65  1  0  0  0
 13 66  1  0  0  0
 14 15  2  0  0  0
 14 16  1  0  0  0
 17 18  1  0  0  0
 17 67  1  0  0  0
 18 19  1  0  0  0
 18 21  1  0  0  0
 18 68  1  0  0  0
 19 20  2  0  0  0
 19 25  1  0  0  0
 21 22  1  0  0  0
 21 23  1  0  0  0
 21 69  1  0  0  0
 22 24  1  0  0  0
 22 70  1  0  0  0
 22 71  1  0  0  0
 23 72  1  0  0  0
 23 73  1  0  0  0
 23 74  1  0  0  0
 24 75  1  0  0  0
 24 76  1  0  0  0
 24 77  1  0  0  0
 25 26  1  0  0  0
 25 78  1  0  0  0
 26 27  1  0  0  0
 26 29  1  0  0  0
 26 79  1  0  0  0
 27 28  2  0  0  0
 27 31  1  0  0  0
 29 30  1  0  0  0
 29 80  1  0  0  0
 29 81  1  0  0  0
 30 82  1  0  0  0
 31 32  1  0  0  0
 31 83  1  0  0  0
 32 33  1  0  0  0
 32 35  1  0  0  0
 32 84  1  0  0  0
 33 34  2  0  0  0
 33 39  1  0  0  0
 35 36  1  0  0  0
 35 85  1  0  0  0
 35 86  1  0  0  0
 36 37  1  0  0  0
 36 38  1  0  0  0
 36 87  1  0  0  0
 37 88  1  0  0  0
 37 89  1  0  0  0
 37 90  1  0  0  0
 38 91  1  0  0  0
 38 92  1  0  0  0
 38 93  1  0  0  0
 39 40  1  0  0  0
 39 94  1  0  0  0
 40 41  1  0  0  0
 40 43  1  0  0  0
 40 95  1  0  0  0
 41 42  2  0  0  0
 41 47  1  0  0  0
 43 44  1  0  0  0
 43 96  1  0  0  0
 43 97  1  0  0  0
 44 45  1  0  0  0
 44 46  1  0  0  0
 44 98  1  0  0  0
 45 99  1  0  0  0
 45100  1  0  0  0
 45101  1  0  0  0
 46102  1  0  0  0
 46103  1  0  0  0
 46104  1  0  0  0
 47 48  1  0  0  0
 47105  1  0  0  0
 48 49  1  0  0  0
 48 51  1  0  0  0
 48106  1  0  0  0
 49 50  2  0  0  0
 49 56  1  0  0  0
 51 52  1  0  0  0
 51107  1  0  0  0
 51108  1  0  0  0
 52 53  1  0  0  0
 52109  1  0  0  0
 52110  1  0  0  0
 53 54  1  0  0  0
 53111  1  0  0  0
 53112  1  0  0  0
 54 55  1  0  0  0
 54113  1  0  0  0
 54114  1  0  0  0
 55115  1  0  0  0
 55116  1  0  0  0
 55117  1  0  0  0
M  CHG  5   1   1   7  -1  16  -1  55   1  56  -1
M  END
> <s_m_source_file>
../1ujj_ligand.sdf

> <i_m_source_file_index>
1

> <s_epik_input>
W09IXUMoPU8pW0NIMl1bQ0BIXShbTkgzK10pQyg9TylbTkhdW0NAQEhdKFtDSDJdQyg9TylbT0hdKUMoPU8pW05IXVtDQEBIXShbQ0BASF0oW0NIM10pW0NIMl1bQ0gzXSlDKD1PKVtOSF1bQ0BASF0oW0NIMl1bT0hdKUMoPU8pW05IXVtDQEBIXShbQ0gyXVtDSF0oW0NIM10pW0NIM10pQyg9TylbTkhdW0NAQEhdKFtDSDJdW0NIXShbQ0gzXSlbQ0gzXSlDKD1PKVtOSF1bQ0BIXShDKD1PKVtPSF0pW0NIMl1bQ0gyXVtDSDJdW0NIMl1bTkgzK10=

> <s_epik_cmdline>
J2VwaWtfYXBwJywgJy1pbWFlJywgJ2xpZ2FuZF9wcm8ubWFlJywgJy1vbWFlJywgJ2xpZ2FuZF9wcmVwLm1hZScsICctbXMnLCAnMScsICctcGgnLCAnNycsICctcGh0JywgJzAuNScsICctbnQn

> <r_epik_Ionization_Penalty>
  0.0239

> <r_epik_Ionization_Penalty_Charging>
  0.0239

> <r_epik_Ionization_Penalty_Neutral>
  0.0000

> <r_epik_State_Penalty>
  0.0159

> <r_epik_Charging_Adjusted_Penalty>
0.0398627645269661

> <i_epik_Tot_Q>
-1

> <i_epik_Tot_abs_Q>
5

$$$$
