1ujk_ligand
                    3D
 Schrodinger Suite 2020-3.
120119  0  0  1  0            999 V2000
   12.7100  -19.9980  -16.5290 N   0  3  0  0  0  0
   14.0930  -20.4070  -16.9050 C   0  0  2  0  0  0
   14.8630  -19.2440  -17.5220 C   0  0  0  0  0  0
   14.3560  -18.1240  -17.6030 O   0  0  0  0  0  0
   14.0460  -21.5800  -17.8890 C   0  0  0  0  0  0
   13.1970  -21.2830  -19.1110 C   0  0  0  0  0  0
   13.0910  -22.1650  -19.9910 O   0  5  0  0  0  0
   12.6340  -20.1710  -19.1930 O   0  0  0  0  0  0
   16.0900  -19.5180  -17.9540 N   0  0  0  0  0  0
   16.9380  -18.4980  -18.5570 C   0  0  2  0  0  0
   18.1040  -19.1720  -19.2750 C   0  0  0  0  0  0
   18.3100  -20.3760  -19.1260 O   0  0  0  0  0  0
   17.4470  -17.5470  -17.4650 C   0  0  0  0  0  0
   18.2400  -16.3800  -18.0230 C   0  0  0  0  0  0
   17.9520  -15.9480  -19.1590 O   0  0  0  0  0  0
   19.1370  -15.8800  -17.3120 O   0  5  0  0  0  0
   18.8560  -18.4040  -20.0590 N   0  0  0  0  0  0
   19.9940  -18.9480  -20.7940 C   0  0  2  0  0  0
   21.3110  -18.5730  -20.1330 C   0  0  0  0  0  0
   21.3280  -17.9000  -19.1030 O   0  0  0  0  0  0
   20.0180  -18.4430  -22.2570 C   0  0  2  0  0  0
   20.1080  -16.9140  -22.2860 C   0  0  0  0  0  0
   18.7780  -18.9250  -22.9940 C   0  0  0  0  0  0
   20.2070  -16.3290  -23.6860 C   0  0  0  0  0  0
   22.4140  -19.0100  -20.7330 N   0  0  0  0  0  0
   23.7370  -18.7200  -20.1950 C   0  0  1  0  0  0
   24.7670  -19.7660  -20.6460 C   0  0  0  0  0  0
   24.6030  -19.9240  -21.9960 O   0  0  0  0  0  0
   24.2020  -17.3360  -20.6300 C   0  0  0  0  0  0
   23.7330  -16.7930  -21.6300 O   0  0  0  0  0  0
   25.0900  -21.3460  -22.0050 P   0  0  0  0  0  0
   26.5700  -21.7370  -21.7100 O   0  0  0  0  0  0
   24.8380  -21.3950  -23.5830 O   0  5  0  0  0  0
   24.0220  -22.1670  -21.2080 O   0  5  0  0  0  0
   25.1310  -16.7760  -19.8630 N   0  0  0  0  0  0
   25.6950  -15.4650  -20.1520 C   0  0  2  0  0  0
   26.5160  -15.5040  -21.4390 C   0  0  0  0  0  0
   27.2960  -16.4300  -21.6600 O   0  0  0  0  0  0
   26.5940  -15.0160  -18.9940 C   0  0  0  0  0  0
   27.4540  -13.7710  -19.2310 C   0  0  0  0  0  0
   26.5530  -12.5610  -19.4190 C   0  0  0  0  0  0
   28.3970  -13.5590  -18.0560 C   0  0  0  0  0  0
   26.3340  -14.4900  -22.2790 N   0  0  0  0  0  0
   27.0650  -14.3870  -23.5360 C   0  0  2  0  0  0
   28.4490  -13.8150  -23.2510 C   0  0  0  0  0  0
   28.5790  -12.6630  -22.8320 O   0  0  0  0  0  0
   26.3160  -13.4700  -24.5050 C   0  0  0  0  0  0
   26.9360  -13.2560  -25.8870 C   0  0  0  0  0  0
   26.9690  -14.5730  -26.6470 C   0  0  0  0  0  0
   26.1250  -12.2250  -26.6510 C   0  0  0  0  0  0
   29.4840  -14.6190  -23.4760 N   0  0  0  0  0  0
   30.8500  -14.1750  -23.2230 C   0  0  2  0  0  0
   31.4010  -13.3750  -24.4010 C   0  0  0  0  0  0
   30.7830  -13.4150  -25.4860 O   0  5  0  0  0  0
   31.7500  -15.3840  -22.9570 C   0  0  0  0  0  0
   31.1260  -16.4370  -22.0440 C   0  0  0  0  0  0
   30.7720  -15.8850  -20.6670 C   0  0  0  0  0  0
   32.0130  -15.5780  -19.8420 C   0  0  0  0  0  0
   31.6640  -15.1060  -18.4690 N   0  3  0  0  0  0
   32.4500  -12.7220  -24.2260 O   0  0  0  0  0  0
   12.7559  -19.1559  -15.8228 H   0  0  0  0  0  0
   12.1929  -20.8457  -16.0557 H   0  0  0  0  0  0
   12.1605  -19.6906  -17.4310 H   0  0  0  0  0  0
   14.5945  -20.7102  -15.9741 H   0  0  0  0  0  0
   15.0649  -21.8105  -18.2337 H   0  0  0  0  0  0
   13.6201  -22.4619  -17.3882 H   0  0  0  0  0  0
   16.4607  -20.5480  -17.8460 H   0  0  0  0  0  0
   16.3234  -17.9458  -19.2831 H   0  0  0  0  0  0
   16.5916  -17.1360  -16.9088 H   0  0  0  0  0  0
   18.1023  -18.0985  -16.7748 H   0  0  0  0  0  0
   18.6039  -17.3369  -20.1467 H   0  0  0  0  0  0
   19.8389  -20.0358  -20.7428 H   0  0  0  0  0  0
   20.8971  -18.8489  -22.7789 H   0  0  0  0  0  0
   19.2104  -16.4849  -21.8167 H   0  0  0  0  0  0
   21.0018  -16.5887  -21.7334 H   0  0  0  0  0  0
   18.7350  -20.0236  -22.9598 H   0  0  0  0  0  0
   18.8215  -18.5922  -24.0415 H   0  0  0  0  0  0
   17.8807  -18.5078  -22.5137 H   0  0  0  0  0  0
   20.2676  -15.2325  -23.6218 H   0  0  0  0  0  0
   19.3168  -16.6137  -24.2661 H   0  0  0  0  0  0
   21.1082  -16.7176  -24.1828 H   0  0  0  0  0  0
   22.3127  -19.6021  -21.6545 H   0  0  0  0  0  0
   23.6052  -18.7568  -19.1035 H   0  0  0  0  0  0
   25.7804  -19.4062  -20.4146 H   0  0  0  0  0  0
   24.5843  -20.7127  -20.1164 H   0  0  0  0  0  0
   25.4728  -17.3398  -18.9825 H   0  0  0  0  0  0
   24.8325  -14.7928  -20.2714 H   0  0  0  0  0  0
   25.9731  -14.7862  -18.1156 H   0  0  0  0  0  0
   27.2994  -15.8220  -18.7436 H   0  0  0  0  0  0
   28.0608  -13.9023  -20.1390 H   0  0  0  0  0  0
   25.8801  -12.7339  -20.2718 H   0  0  0  0  0  0
   27.1699  -11.6712  -19.6132 H   0  0  0  0  0  0
   25.9572  -12.4025  -18.5080 H   0  0  0  0  0  0
   29.0392  -14.4441  -17.9370 H   0  0  0  0  0  0
   27.8104  -13.4055  -17.1382 H   0  0  0  0  0  0
   29.0231  -12.6742  -18.2434 H   0  0  0  0  0  0
   25.6057  -13.7139  -22.0011 H   0  0  0  0  0  0
   27.1353  -15.4015  -23.9554 H   0  0  0  0  0  0
   25.3120  -13.8779  -24.6939 H   0  0  0  0  0  0
   26.2269  -12.4658  -24.0648 H   0  0  0  0  0  0
   27.9670  -12.8872  -25.7823 H   0  0  0  0  0  0
   27.5597  -15.3083  -26.0809 H   0  0  0  0  0  0
   27.4283  -14.4153  -27.6340 H   0  0  0  0  0  0
   25.9429  -14.9478  -26.7757 H   0  0  0  0  0  0
   26.1109  -11.2796  -26.0888 H   0  0  0  0  0  0
   25.0955  -12.5904  -26.7798 H   0  0  0  0  0  0
   26.5809  -12.0579  -27.6380 H   0  0  0  0  0  0
   29.2973  -15.6331  -23.8590 H   0  0  0  0  0  0
   30.7854  -13.5263  -22.3370 H   0  0  0  0  0  0
   31.9874  -15.8810  -23.9092 H   0  0  0  0  0  0
   32.6810  -15.0494  -22.4760 H   0  0  0  0  0  0
   30.2017  -16.8184  -22.5024 H   0  0  0  0  0  0
   31.8346  -17.2664  -21.9030 H   0  0  0  0  0  0
   30.1962  -14.9548  -20.7818 H   0  0  0  0  0  0
   30.1689  -16.6243  -20.1195 H   0  0  0  0  0  0
   32.6256  -16.4869  -19.7492 H   0  0  0  0  0  0
   32.5983  -14.7905  -20.3393 H   0  0  0  0  0  0
   32.5866  -14.8960  -17.9080 H   0  0  0  0  0  0
   31.0879  -15.8854  -17.9488 H   0  0  0  0  0  0
   31.0605  -14.1890  -18.5389 H   0  0  0  0  0  0
  1  2  1  0  0  0
  1 61  1  0  0  0
  1 62  1  0  0  0
  1 63  1  0  0  0
  2  3  1  0  0  0
  2  5  1  0  0  0
  2 64  1  0  0  0
  3  4  2  0  0  0
  3  9  1  0  0  0
  5  6  1  0  0  0
  5 65  1  0  0  0
  5 66  1  0  0  0
  6  7  1  0  0  0
  6  8  2  0  0  0
  9 10  1  0  0  0
  9 67  1  0  0  0
 10 11  1  0  0  0
 10 13  1  0  0  0
 10 68  1  0  0  0
 11 12  2  0  0  0
 11 17  1  0  0  0
 13 14  1  0  0  0
 13 69  1  0  0  0
 13 70  1  0  0  0
 14 15  2  0  0  0
 14 16  1  0  0  0
 17 18  1  0  0  0
 17 71  1  0  0  0
 18 19  1  0  0  0
 18 21  1  0  0  0
 18 72  1  0  0  0
 19 20  2  0  0  0
 19 25  1  0  0  0
 21 22  1  0  0  0
 21 23  1  0  0  0
 21 73  1  0  0  0
 22 24  1  0  0  0
 22 74  1  0  0  0
 22 75  1  0  0  0
 23 76  1  0  0  0
 23 77  1  0  0  0
 23 78  1  0  0  0
 24 79  1  0  0  0
 24 80  1  0  0  0
 24 81  1  0  0  0
 25 26  1  0  0  0
 25 82  1  0  0  0
 26 27  1  0  0  0
 26 29  1  0  0  0
 26 83  1  0  0  0
 27 28  1  0  0  0
 27 84  1  0  0  0
 27 85  1  0  0  0
 28 31  1  0  0  0
 29 30  2  0  0  0
 29 35  1  0  0  0
 31 32  2  0  0  0
 31 33  1  0  0  0
 31 34  1  0  0  0
 35 36  1  0  0  0
 35 86  1  0  0  0
 36 37  1  0  0  0
 36 39  1  0  0  0
 36 87  1  0  0  0
 37 38  2  0  0  0
 37 43  1  0  0  0
 39 40  1  0  0  0
 39 88  1  0  0  0
 39 89  1  0  0  0
 40 41  1  0  0  0
 40 42  1  0  0  0
 40 90  1  0  0  0
 41 91  1  0  0  0
 41 92  1  0  0  0
 41 93  1  0  0  0
 42 94  1  0  0  0
 42 95  1  0  0  0
 42 96  1  0  0  0
 43 44  1  0  0  0
 43 97  1  0  0  0
 44 45  1  0  0  0
 44 47  1  0  0  0
 44 98  1  0  0  0
 45 46  2  0  0  0
 45 51  1  0  0  0
 47 48  1  0  0  0
 47 99  1  0  0  0
 47100  1  0  0  0
 48 49  1  0  0  0
 48 50  1  0  0  0
 48101  1  0  0  0
 49102  1  0  0  0
 49103  1  0  0  0
 49104  1  0  0  0
 50105  1  0  0  0
 50106  1  0  0  0
 50107  1  0  0  0
 51 52  1  0  0  0
 51108  1  0  0  0
 52 53  1  0  0  0
 52 55  1  0  0  0
 52109  1  0  0  0
 53 54  1  0  0  0
 53 60  2  0  0  0
 55 56  1  0  0  0
 55110  1  0  0  0
 55111  1  0  0  0
 56 57  1  0  0  0
 56112  1  0  0  0
 56113  1  0  0  0
 57 58  1  0  0  0
 57114  1  0  0  0
 57115  1  0  0  0
 58 59  1  0  0  0
 58116  1  0  0  0
 58117  1  0  0  0
 59118  1  0  0  0
 59119  1  0  0  0
 59120  1  0  0  0
M  CHG  7   1   1   7  -1  16  -1  33  -1  34  -1  54  -1  59   1
M  END
> <s_m_source_file>
../1ujk_ligand.sdf

> <i_m_source_file_index>
1

> <s_epik_input>
W09IXUMoPU8pW0NIMl1bQ0BIXShbTkgzK10pQyg9TylbTkhdW0NAQEhdKFtDSDJdQyg9TylbT0hdKUMoPU8pW05IXVtDQEBIXShbQ0BASF0oW0NIM10pW0NIMl1bQ0gzXSlDKD1PKVtOSF1bQ0BASF0oW0NIMl1PUCg9TykoW09IXSlbT0hdKUMoPU8pW05IXVtDQEBIXShbQ0gyXVtDSF0oW0NIM10pW0NIM10pQyg9TylbTkhdW0NAQEhdKFtDSDJdW0NIXShbQ0gzXSlbQ0gzXSlDKD1PKVtOSF1bQ0BIXShDKD1PKVtPSF0pW0NIMl1bQ0gyXVtDSDJdW0NIMl1bTkgzK10=

> <s_epik_cmdline>
J2VwaWtfYXBwJywgJy1pbWFlJywgJ2xpZ2FuZF9wcm8ubWFlJywgJy1vbWFlJywgJ2xpZ2FuZF9wcmVwLm1hZScsICctbXMnLCAnMScsICctcGgnLCAnNycsICctcGh0JywgJzAuNScsICctbnQn

> <r_epik_Ionization_Penalty>
  0.1123

> <r_epik_Ionization_Penalty_Charging>
  0.1123

> <r_epik_Ionization_Penalty_Neutral>
  0.0000

> <r_epik_State_Penalty>
  0.0928

> <r_epik_Charging_Adjusted_Penalty>
0.205045807134998

> <i_epik_Tot_Q>
-3

> <i_epik_Tot_abs_Q>
7

$$$$
