1uk0_ligand
                    3D
 Schrodinger Suite 2020-3.
 53 56  0  0  1  0            999 V2000
    7.0370   -7.5740   32.4270 C   0  0  0  0  0  0
    7.6430   -6.3620   32.5520 C   0  0  0  0  0  0
    7.1280   -5.5140   33.4930 C   0  0  0  0  0  0
    6.0830   -5.8630   34.3050 C   0  0  0  0  0  0
    5.4480   -7.0710   34.2310 C   0  0  0  0  0  0
    5.9450   -7.9070   33.2540 C   0  0  0  0  0  0
    7.6270   -4.2770   33.5690 N   0  0  0  0  0  0
    7.0720   -3.3030   34.2440 C   0  0  0  0  0  0
    6.0080   -3.5860   34.9520 N   0  0  0  0  0  0
    5.6180   -4.8250   35.1480 C   0  0  0  0  0  0
    4.8250   -5.0650   36.0130 O   0  0  0  0  0  0
    7.8290   -2.0230   34.4140 C   0  0  0  0  0  0
    6.9420   -0.7860   34.5150 C   0  0  0  0  0  0
    7.0100    0.1110   33.3230 C   0  0  0  0  0  0
    8.3280    0.7270   33.3880 N   0  3  1  0  0  0
    9.1010    0.7190   32.1530 C   0  0  0  0  0  0
    8.4580    1.6530   31.1910 C   0  0  0  0  0  0
    7.7330    2.6910   31.5380 C   0  0  0  0  0  0
    7.4740    2.9150   33.0090 C   0  0  0  0  0  0
    8.3310    2.0400   33.9090 C   0  0  0  0  0  0
    7.3850    3.7690   30.6040 C   0  0  0  0  0  0
    8.0180    4.0080   29.3980 C   0  0  0  0  0  0
    7.7990    5.2390   28.8330 C   0  0  0  0  0  0
    7.0120    6.1780   29.4630 C   0  0  0  0  0  0
    6.3660    5.9710   30.6270 C   0  0  0  0  0  0
    6.5260    4.7310   31.1360 C   0  0  0  0  0  0
    8.8280   -6.0100   31.7050 C   0  0  0  0  0  0
    6.7170    7.3180   28.8710 F   0  0  0  0  0  0
    7.3965   -8.2884   31.6864 H   0  0  0  0  0  0
    4.6222   -7.3486   34.8861 H   0  0  0  0  0  0
    5.4683   -8.8771   33.1135 H   0  0  0  0  0  0
    5.4146   -2.7759   35.4010 H   0  0  0  0  0  0
    8.4264   -2.0701   35.3364 H   0  0  0  0  0  0
    8.4962   -1.8744   33.5522 H   0  0  0  0  0  0
    5.8925   -1.0956   34.6280 H   0  0  0  0  0  0
    7.2440   -0.1885   35.3878 H   0  0  0  0  0  0
    6.8860   -0.4859   32.4074 H   0  0  0  0  0  0
    6.2081    0.8616   33.3827 H   0  0  0  0  0  0
    8.8364    0.0807   34.1187 H   0  0  0  0  0  0
   10.1306    1.0446   32.3628 H   0  0  0  0  0  0
    9.1161   -0.2990   31.7364 H   0  0  0  0  0  0
    8.6224    1.4280   30.1269 H   0  0  0  0  0  0
    7.6886    3.9634   33.2636 H   0  0  0  0  0  0
    6.4208    2.6913   33.2341 H   0  0  0  0  0  0
    7.9183    2.0308   34.9286 H   0  0  0  0  0  0
    9.3622    2.4221   33.9342 H   0  0  0  0  0  0
    8.6545    3.2612   28.9234 H   0  0  0  0  0  0
    8.2543    5.4775   27.8718 H   0  0  0  0  0  0
    5.7659    6.7386   31.1156 H   0  0  0  0  0  0
    5.9466    4.4641   32.0198 H   0  0  0  0  0  0
    9.0547   -6.8454   31.0263 H   0  0  0  0  0  0
    9.6966   -5.8169   32.3518 H   0  0  0  0  0  0
    8.6025   -5.1092   31.1152 H   0  0  0  0  0  0
  1  2  2  0  0  0
  1  6  1  0  0  0
  1 29  1  0  0  0
  2  3  1  0  0  0
  2 27  1  0  0  0
  3  4  2  0  0  0
  3  7  1  0  0  0
  4  5  1  0  0  0
  4 10  1  0  0  0
  5  6  2  0  0  0
  5 30  1  0  0  0
  6 31  1  0  0  0
  7  8  2  0  0  0
  8  9  1  0  0  0
  8 12  1  0  0  0
  9 10  1  0  0  0
  9 32  1  0  0  0
 10 11  2  0  0  0
 12 13  1  0  0  0
 12 33  1  0  0  0
 12 34  1  0  0  0
 13 14  1  0  0  0
 13 35  1  0  0  0
 13 36  1  0  0  0
 14 15  1  0  0  0
 14 37  1  0  0  0
 14 38  1  0  0  0
 15 16  1  0  0  0
 15 20  1  0  0  0
 15 39  1  0  0  0
 16 17  1  0  0  0
 16 40  1  0  0  0
 16 41  1  0  0  0
 17 18  2  0  0  0
 17 42  1  0  0  0
 18 19  1  0  0  0
 18 21  1  0  0  0
 19 20  1  0  0  0
 19 43  1  0  0  0
 19 44  1  0  0  0
 20 45  1  0  0  0
 20 46  1  0  0  0
 21 22  2  0  0  0
 21 26  1  0  0  0
 22 23  1  0  0  0
 22 47  1  0  0  0
 23 24  2  0  0  0
 23 48  1  0  0  0
 24 25  1  0  0  0
 24 28  1  0  0  0
 25 26  2  0  0  0
 25 49  1  0  0  0
 26 50  1  0  0  0
 27 51  1  0  0  0
 27 52  1  0  0  0
 27 53  1  0  0  0
M  CHG  1  15   1
M  END
> <s_m_source_file>
../1uk0_ligand.sdf

> <i_m_source_file_index>
1

> <s_epik_input>
W0NIM11jMVtjSF1bY0hdW2NIXWMoYzEyKWMoPU8pW25IXWMobjIpW0NIMl1bQ0gyXVtDSDJdW05ASCtdM1tDSDJdW0NIXT1DKFtDSDJdW0NIMl0zKWM0W2NIXVtjSF1jKEYpW2NIXVtjSF00

> <s_epik_cmdline>
J2VwaWtfYXBwJywgJy1pbWFlJywgJ2xpZ2FuZF9wcm8ubWFlJywgJy1vbWFlJywgJ2xpZ2FuZF9wcmVwLm1hZScsICctbXMnLCAnMScsICctcGgnLCAnNycsICctcGh0JywgJzAuNScsICctbnQn

> <r_lp_tautomer_probability>
0.883938

> <r_epik_Ionization_Penalty>
  0.0260

> <r_epik_Ionization_Penalty_Charging>
  0.0260

> <r_epik_Ionization_Penalty_Neutral>
  0.0000

> <r_epik_State_Penalty>
  0.0201

> <r_epik_Charging_Adjusted_Penalty>
0.0461115405566806

> <i_epik_Tot_Q>
1

> <i_epik_Tot_abs_Q>
1

$$$$
