1uk1_ligand
                    3D
 Schrodinger Suite 2020-3.
 54 57  0  0  1  0            999 V2000
    7.6140   -7.7970   32.1870 C   0  0  0  0  0  0
    8.1890   -6.5390   32.2300 C   0  0  0  0  0  0
    7.6850   -5.5770   33.0970 C   0  0  0  0  0  0
    6.5890   -5.8690   33.8730 C   0  0  0  0  0  0
    6.0230   -7.0990   33.8040 C   0  0  0  0  0  0
    6.5240   -8.0790   32.9930 C   0  0  0  0  0  0
    8.2480   -4.3570   33.2710 N   0  0  0  0  0  0
    7.7040   -3.4420   34.0540 C   0  0  0  0  0  0
    6.6400   -3.7060   34.7200 N   0  0  0  0  0  0
    6.0480   -4.8680   34.7540 C   0  0  0  0  0  0
    5.1070   -5.0400   35.5180 O   0  0  0  0  0  0
    8.2020   -2.3610   34.1990 O   0  0  0  0  0  0
    9.5310   -4.0410   32.7140 C   0  0  0  0  0  0
    9.3860   -3.4660   31.3230 C   0  0  0  0  0  0
    8.9980   -2.0130   31.2620 C   0  0  0  0  0  0
    9.4010   -1.4750   29.8970 C   0  0  0  0  0  0
    9.0110   -0.0870   29.7140 N   0  3  2  0  0  0
    8.6410    0.7200   30.8850 C   0  0  0  0  0  0
    8.4270    2.1540   30.5010 C   0  0  0  0  0  0
    8.5790    2.6760   29.2750 C   0  0  0  0  0  0
    8.9560    1.7710   28.1380 C   0  0  0  0  0  0
    8.4970    0.3440   28.4150 C   0  0  0  0  0  0
    8.2340    4.0760   29.0770 C   0  0  0  0  0  0
    8.4500    4.9790   30.1090 C   0  0  0  0  0  0
    8.0450    6.2940   29.9790 C   0  0  0  0  0  0
    7.4740    6.7300   28.8000 C   0  0  0  0  0  0
    7.3110    5.8440   27.7390 C   0  0  0  0  0  0
    7.6690    4.5130   27.8910 C   0  0  0  0  0  0
    4.9480   -7.3330   34.5090 F   0  0  0  0  0  0
    8.0168   -8.5614   31.5225 H   0  0  0  0  0  0
    9.0355   -6.3032   31.5851 H   0  0  0  0  0  0
    6.0709   -9.0703   32.9810 H   0  0  0  0  0  0
    6.1585   -2.9208   35.3213 H   0  0  0  0  0  0
   10.0358   -3.3011   33.3525 H   0  0  0  0  0  0
   10.1415   -4.9543   32.6581 H   0  0  0  0  0  0
   10.3429   -3.5552   30.7878 H   0  0  0  0  0  0
    8.6076   -4.0190   30.7769 H   0  0  0  0  0  0
    7.9111   -1.9176   31.4019 H   0  0  0  0  0  0
    9.5200   -1.4604   32.0571 H   0  0  0  0  0  0
   10.4934   -1.5393   29.7855 H   0  0  0  0  0  0
    8.9163   -2.0715   29.1101 H   0  0  0  0  0  0
   10.0576    0.2308   29.5975 H   0  0  0  0  0  0
    7.7103    0.3281   31.3211 H   0  0  0  0  0  0
    9.4457    0.6707   31.6334 H   0  0  0  0  0  0
    8.1174    2.7970   31.3381 H   0  0  0  0  0  0
    8.4785    2.1262   27.2129 H   0  0  0  0  0  0
   10.0487    1.7762   28.0120 H   0  0  0  0  0  0
    8.8794   -0.3242   27.6293 H   0  0  0  0  0  0
    7.3977    0.3068   28.4250 H   0  0  0  0  0  0
    8.9407    4.6498   31.0250 H   0  0  0  0  0  0
    8.1766    6.9883   30.8089 H   0  0  0  0  0  0
    7.1514    7.7664   28.7003 H   0  0  0  0  0  0
    6.9031    6.1954   26.7913 H   0  0  0  0  0  0
    7.5052    3.8092   27.0749 H   0  0  0  0  0  0
  1  2  1  0  0  0
  1  6  2  0  0  0
  1 30  1  0  0  0
  2  3  2  0  0  0
  2 31  1  0  0  0
  3  4  1  0  0  0
  3  7  1  0  0  0
  4  5  2  0  0  0
  4 10  1  0  0  0
  5  6  1  0  0  0
  5 29  1  0  0  0
  6 32  1  0  0  0
  7  8  1  0  0  0
  7 13  1  0  0  0
  8  9  1  0  0  0
  8 12  2  0  0  0
  9 10  1  0  0  0
  9 33  1  0  0  0
 10 11  2  0  0  0
 13 14  1  0  0  0
 13 34  1  0  0  0
 13 35  1  0  0  0
 14 15  1  0  0  0
 14 36  1  0  0  0
 14 37  1  0  0  0
 15 16  1  0  0  0
 15 38  1  0  0  0
 15 39  1  0  0  0
 16 17  1  0  0  0
 16 40  1  0  0  0
 16 41  1  0  0  0
 17 18  1  0  0  0
 17 22  1  0  0  0
 17 42  1  0  0  0
 18 19  1  0  0  0
 18 43  1  0  0  0
 18 44  1  0  0  0
 19 20  2  0  0  0
 19 45  1  0  0  0
 20 21  1  0  0  0
 20 23  1  0  0  0
 21 22  1  0  0  0
 21 46  1  0  0  0
 21 47  1  0  0  0
 22 48  1  0  0  0
 22 49  1  0  0  0
 23 24  2  0  0  0
 23 28  1  0  0  0
 24 25  1  0  0  0
 24 50  1  0  0  0
 25 26  2  0  0  0
 25 51  1  0  0  0
 26 27  1  0  0  0
 26 52  1  0  0  0
 27 28  2  0  0  0
 27 53  1  0  0  0
 28 54  1  0  0  0
M  CHG  1  17   1
M  END
> <s_m_source_file>
../1uk1_ligand.sdf

> <i_m_source_file_index>
1

> <s_epik_input>
W2NIXTFbY0hdW2NIXWMoRiljKGMxMiljKD1PKVtuSF1jKD1PKW4yW0NIMl1bQ0gyXVtDSDJdW0NIMl1bTkBASCtdM1tDSDJdW0NIXT1DKFtDSDJdW0NIMl0zKWM0W2NIXVtjSF1bY0hdW2NIXVtjSF00

> <s_epik_cmdline>
J2VwaWtfYXBwJywgJy1pbWFlJywgJ2xpZ2FuZF9wcm8ubWFlJywgJy1vbWFlJywgJ2xpZ2FuZF9wcmVwLm1hZScsICctbXMnLCAnMScsICctcGgnLCAnNycsICctcGh0JywgJzAuNScsICctbnQn

> <r_epik_Ionization_Penalty>
  0.0200

> <r_epik_Ionization_Penalty_Charging>
  0.0200

> <r_epik_Ionization_Penalty_Neutral>
  0.0000

> <r_epik_State_Penalty>
  0.0138

> <r_epik_Charging_Adjusted_Penalty>
0.0338172399796315

> <i_epik_Tot_Q>
1

> <i_epik_Tot_abs_Q>
1

$$$$
