1ukh_ligand
                    3D
 Schrodinger Suite 2020-3.
177179  0  0  1  0            999 V2000
   19.5540   15.3220   39.6960 N   0  3  0  0  0  0
   19.5560   16.7360   39.2110 C   0  0  2  0  0  0
   18.3180   17.5160   39.6570 C   0  0  0  0  0  0
   17.2000   17.2350   39.2250 O   0  0  0  0  0  0
   19.6410   16.6890   37.6940 C   0  0  0  0  0  0
   19.0860   15.2490   37.4020 C   0  0  0  0  0  0
   19.6090   14.3850   38.5570 C   0  0  0  0  0  0
   18.5280   18.4970   40.5280 N   0  0  0  0  0  0
   17.4320   19.3140   41.0320 C   0  0  2  0  0  0
   17.1840   20.4940   40.0800 C   0  0  0  0  0  0
   18.1280   21.0980   39.5540 O   0  0  0  0  0  0
   17.7710   19.8230   42.4430 C   0  0  0  0  0  0
   16.5790   19.9440   43.3960 C   0  0  0  0  0  0
   15.5040   20.8810   42.8480 C   0  0  0  0  0  0
   14.2790   20.9620   43.7620 C   0  0  0  0  0  0
   13.1760   21.7610   43.1460 N   0  3  0  0  0  0
   15.9110   20.8120   39.8590 N   0  0  0  0  0  0
   15.5300   21.9110   38.9720 C   0  0  2  0  0  0
   15.6690   23.2740   39.6470 C   0  0  0  0  0  0
   15.2220   23.4570   40.7760 O   0  0  0  0  0  0
   14.0820   21.7310   38.4910 C   0  0  0  0  0  0
   13.8460   20.5050   37.5990 C   0  0  0  0  0  0
   12.4060   20.4630   37.1170 C   0  0  0  0  0  0
   12.0890   19.2900   36.3020 N   0  0  0  0  0  0
   10.9100   19.0960   35.7100 C   0  0  0  0  0  0
    9.9460   19.9980   35.8470 N   0  0  0  0  0  0
   10.6890   18.0080   34.9810 N   0  0  0  0  0  0
   16.2910   24.2500   38.9570 N   0  0  0  0  0  0
   16.4800   25.5950   39.5010 C   0  0  2  0  0  0
   15.2060   26.1000   40.1680 C   0  0  0  0  0  0
   14.1030   25.9380   39.6300 O   0  0  0  0  0  0
   16.8600   26.4070   38.2680 C   0  0  0  0  0  0
   17.6480   25.4300   37.4730 C   0  0  0  0  0  0
   16.7990   24.1800   37.5730 C   0  0  0  0  0  0
   15.3650   26.7010   41.3430 N   0  0  0  0  0  0
   14.2300   27.2170   42.1010 C   0  0  2  0  0  0
   14.1750   28.7330   41.9960 C   0  0  0  0  0  0
   13.2460   29.3740   42.5000 O   0  0  0  0  0  0
   14.3390   26.8380   43.5900 C   0  0  2  0  0  0
   15.3410   27.6510   44.2170 O   0  0  0  0  0  0
   14.7140   25.3610   43.7350 C   0  0  0  0  0  0
   15.1820   29.3000   41.3410 N   0  0  0  0  0  0
   15.2450   30.7380   41.1720 C   0  0  2  0  0  0
   16.0160   31.1770   39.9090 C   0  0  0  0  0  0
   16.8650   30.4510   39.3810 O   0  0  0  0  0  0
   15.8600   31.3960   42.4380 C   0  0  2  0  0  0
   17.0560   30.7010   42.8100 O   0  0  0  0  0  0
   14.8740   31.3390   43.6040 C   0  0  0  0  0  0
   15.6750   32.3610   39.4150 N   0  0  0  0  0  0
   16.3100   32.9500   38.2490 C   0  0  2  0  0  0
   16.3370   34.4320   38.5790 C   0  0  0  0  0  0
   15.3160   34.9970   38.9690 O   0  0  0  0  0  0
   15.4730   32.7170   36.9930 C   0  0  0  0  0  0
   16.0700   33.3220   35.7190 C   0  0  0  0  0  0
   17.2800   32.5110   35.2870 C   0  0  0  0  0  0
   15.0220   33.3390   34.6220 C   0  0  0  0  0  0
   17.4950   35.0630   38.4330 N   0  0  0  0  0  0
   17.6150   36.4790   38.7680 C   0  0  2  0  0  0
   17.2480   37.3950   37.6050 C   0  0  0  0  0  0
   18.0480   37.6200   36.6970 O   0  0  0  0  0  0
   19.0400   36.7780   39.2330 C   0  0  0  0  0  0
   19.1580   38.1210   39.9200 C   0  0  0  0  0  0
   18.7850   38.2750   41.0830 O   0  0  0  0  0  0
   19.6730   39.1080   39.1960 N   0  0  0  0  0  0
   16.0400   37.9380   37.6440 N   0  0  0  0  0  0
   15.6020   38.8110   36.5800 C   0  0  2  0  0  0
   16.2700   40.1740   36.6140 C   0  0  0  0  0  0
   16.6530   40.7020   35.5670 O   0  0  0  0  0  0
   14.0950   38.9700   36.6310 C   0  0  0  0  0  0
   13.3200   37.6590   36.5190 C   0  0  0  0  0  0
   13.9120   36.7730   35.4270 C   0  0  0  0  0  0
   13.3800   36.9530   37.8460 C   0  0  0  0  0  0
   16.3910   40.7460   37.8140 N   0  0  0  0  0  0
   17.0240   42.0580   38.0100 C   0  0  2  0  0  0
   18.3780   42.1600   37.2960 C   0  0  0  0  0  0
   18.7010   43.2660   36.8140 O   0  0  0  0  0  0
   17.2230   42.3490   39.5030 C   0  0  0  0  0  0
   15.9580   42.7290   40.2360 C   0  0  0  0  0  0
   15.9870   42.9780   41.6150 C   0  0  0  0  0  0
   14.7440   42.8510   39.5620 C   0  0  0  0  0  0
   14.8240   43.3480   42.3120 C   0  0  0  0  0  0
   13.5770   43.2200   40.2500 C   0  0  0  0  0  0
   13.6180   43.4690   41.6330 C   0  0  0  0  0  0
   19.1100   41.1460   37.2450 O   0  0  0  0  0  0
   20.4300   15.1539   40.3397 H   0  0  0  0  0  0
   18.6352   15.1327   40.2705 H   0  0  0  0  0  0
   20.4243   17.2479   39.6515 H   0  0  0  0  0  0
   19.0216   17.4915   37.2670 H   0  0  0  0  0  0
   20.6865   16.8268   37.3809 H   0  0  0  0  0  0
   17.9866   15.2773   37.3798 H   0  0  0  0  0  0
   19.4636   14.9008   36.4293 H   0  0  0  0  0  0
   20.6460   14.0500   38.4076 H   0  0  0  0  0  0
   18.9693   13.5150   38.7666 H   0  0  0  0  0  0
   19.5568   18.6864   40.8683 H   0  0  0  0  0  0
   16.5459   18.6631   41.0656 H   0  0  0  0  0  0
   18.4843   19.1345   42.9196 H   0  0  0  0  0  0
   18.2193   20.8251   42.3735 H   0  0  0  0  0  0
   16.1274   18.9523   43.5461 H   0  0  0  0  0  0
   16.9215   20.3410   44.3630 H   0  0  0  0  0  0
   15.9187   21.8947   42.7455 H   0  0  0  0  0  0
   15.1701   20.5202   41.8639 H   0  0  0  0  0  0
   13.9011   19.9480   43.9594 H   0  0  0  0  0  0
   14.5612   21.4394   44.7120 H   0  0  0  0  0  0
   12.3184   21.7934   43.8340 H   0  0  0  0  0  0
   12.8689   21.2930   42.1991 H   0  0  0  0  0  0
   13.5291   22.7845   42.9516 H   0  0  0  0  0  0
   15.1348   20.2205   40.3665 H   0  0  0  0  0  0
   16.2453   21.8463   38.1388 H   0  0  0  0  0  0
   13.4176   21.6218   39.3609 H   0  0  0  0  0  0
   13.7780   22.6113   37.9056 H   0  0  0  0  0  0
   14.5127   20.5534   36.7254 H   0  0  0  0  0  0
   14.0570   19.5894   38.1709 H   0  0  0  0  0  0
   11.7293   20.4501   37.9842 H   0  0  0  0  0  0
   12.1986   21.3521   36.5034 H   0  0  0  0  0  0
   12.8449   18.5055   36.1497 H   0  0  0  0  0  0
   10.1202   20.9021   36.4489 H   0  0  0  0  0  0
   11.4822   17.2552   34.8620 H   0  0  0  0  0  0
    9.7128   17.8597   34.4962 H   0  0  0  0  0  0
   17.2481   25.6149   40.2882 H   0  0  0  0  0  0
   15.9470   26.7403   37.7528 H   0  0  0  0  0  0
   17.4494   27.2840   38.5738 H   0  0  0  0  0  0
   17.7533   25.7968   36.4413 H   0  0  0  0  0  0
   18.6446   25.3100   37.9230 H   0  0  0  0  0  0
   17.3817   23.2562   37.4426 H   0  0  0  0  0  0
   15.9521   24.1814   36.8710 H   0  0  0  0  0  0
   16.3851   26.8045   41.7413 H   0  0  0  0  0  0
   13.3465   26.7555   41.6358 H   0  0  0  0  0  0
   13.3993   27.0492   44.1214 H   0  0  0  0  0  0
   15.2415   28.7465   44.2139 H   0  0  0  0  0  0
   13.9451   24.7386   43.2539 H   0  0  0  0  0  0
   14.7801   25.1026   44.8022 H   0  0  0  0  0  0
   15.6862   25.1805   43.2531 H   0  0  0  0  0  0
   15.9751   28.6619   40.9241 H   0  0  0  0  0  0
   14.1882   31.0104   41.0346 H   0  0  0  0  0  0
   16.1586   32.4355   42.2375 H   0  0  0  0  0  0
   17.8936   30.6292   42.1006 H   0  0  0  0  0  0
   13.9506   31.8701   43.3296 H   0  0  0  0  0  0
   15.3229   31.8165   44.4875 H   0  0  0  0  0  0
   14.6387   30.2894   43.8342 H   0  0  0  0  0  0
   14.8690   32.9007   39.9338 H   0  0  0  0  0  0
   17.2993   32.4981   38.0847 H   0  0  0  0  0  0
   15.3675   31.6361   36.8180 H   0  0  0  0  0  0
   14.4776   33.1655   37.1272 H   0  0  0  0  0  0
   16.3918   34.3568   35.9076 H   0  0  0  0  0  0
   18.0278   32.5101   36.0937 H   0  0  0  0  0  0
   17.7173   32.9584   34.3822 H   0  0  0  0  0  0
   16.9709   31.4774   35.0723 H   0  0  0  0  0  0
   14.1550   33.9298   34.9524 H   0  0  0  0  0  0
   14.7025   32.3092   34.4042 H   0  0  0  0  0  0
   15.4488   33.7903   33.7142 H   0  0  0  0  0  0
   18.3687   34.5110   38.0563 H   0  0  0  0  0  0
   16.8831   36.6358   39.5740 H   0  0  0  0  0  0
   19.3631   36.0047   39.9454 H   0  0  0  0  0  0
   19.7157   36.7821   38.3650 H   0  0  0  0  0  0
   19.9924   38.9215   38.1600 H   0  0  0  0  0  0
   19.7802   40.1121   39.6323 H   0  0  0  0  0  0
   15.3702   37.7224   38.4895 H   0  0  0  0  0  0
   15.9218   38.2934   35.6636 H   0  0  0  0  0  0
   13.8073   39.4329   37.5865 H   0  0  0  0  0  0
   13.7655   39.6103   35.7995 H   0  0  0  0  0  0
   12.2702   37.8657   36.2637 H   0  0  0  0  0  0
   13.8631   37.2985   34.4619 H   0  0  0  0  0  0
   13.3388   35.8363   35.3640 H   0  0  0  0  0  0
   14.9609   36.5455   35.6679 H   0  0  0  0  0  0
   12.9511   37.6001   38.6253 H   0  0  0  0  0  0
   14.4275   36.7260   38.0935 H   0  0  0  0  0  0
   12.8053   36.0167   37.7895 H   0  0  0  0  0  0
   15.9927   40.1930   38.6774 H   0  0  0  0  0  0
   16.3139   42.7674   37.5600 H   0  0  0  0  0  0
   17.6268   41.4547   40.0002 H   0  0  0  0  0  0
   17.9279   43.1849   39.6229 H   0  0  0  0  0  0
   16.9282   42.8830   42.1565 H   0  0  0  0  0  0
   14.7002   42.6580   38.4901 H   0  0  0  0  0  0
   14.8682   43.5398   43.3841 H   0  0  0  0  0  0
   12.6351   43.3138   39.7095 H   0  0  0  0  0  0
   12.7120   43.7543   42.1676 H   0  0  0  0  0  0
   20.0849   41.1964   36.7381 H   0  0  0  0  0  0
  1  2  1  0  0  0
  1  7  1  0  0  0
  1 85  1  0  0  0
  1 86  1  0  0  0
  2  3  1  0  0  0
  2  5  1  0  0  0
  2 87  1  0  0  0
  3  4  2  0  0  0
  3  8  1  0  0  0
  5  6  1  0  0  0
  5 88  1  0  0  0
  5 89  1  0  0  0
  6  7  1  0  0  0
  6 90  1  0  0  0
  6 91  1  0  0  0
  7 92  1  0  0  0
  7 93  1  0  0  0
  8  9  1  0  0  0
  8 94  1  0  0  0
  9 10  1  0  0  0
  9 12  1  0  0  0
  9 95  1  0  0  0
 10 11  2  0  0  0
 10 17  1  0  0  0
 12 13  1  0  0  0
 12 96  1  0  0  0
 12 97  1  0  0  0
 13 14  1  0  0  0
 13 98  1  0  0  0
 13 99  1  0  0  0
 14 15  1  0  0  0
 14100  1  0  0  0
 14101  1  0  0  0
 15 16  1  0  0  0
 15102  1  0  0  0
 15103  1  0  0  0
 16104  1  0  0  0
 16105  1  0  0  0
 16106  1  0  0  0
 17 18  1  0  0  0
 17107  1  0  0  0
 18 19  1  0  0  0
 18 21  1  0  0  0
 18108  1  0  0  0
 19 20  2  0  0  0
 19 28  1  0  0  0
 21 22  1  0  0  0
 21109  1  0  0  0
 21110  1  0  0  0
 22 23  1  0  0  0
 22111  1  0  0  0
 22112  1  0  0  0
 23 24  1  0  0  0
 23113  1  0  0  0
 23114  1  0  0  0
 24 25  1  0  0  0
 24115  1  0  0  0
 25 26  2  0  0  0
 25 27  1  0  0  0
 26116  1  0  0  0
 27117  1  0  0  0
 27118  1  0  0  0
 28 29  1  0  0  0
 28 34  1  0  0  0
 29 30  1  0  0  0
 29 32  1  0  0  0
 29119  1  0  0  0
 30 31  2  0  0  0
 30 35  1  0  0  0
 32 33  1  0  0  0
 32120  1  0  0  0
 32121  1  0  0  0
 33 34  1  0  0  0
 33122  1  0  0  0
 33123  1  0  0  0
 34124  1  0  0  0
 34125  1  0  0  0
 35 36  1  0  0  0
 35126  1  0  0  0
 36 37  1  0  0  0
 36 39  1  0  0  0
 36127  1  0  0  0
 37 38  2  0  0  0
 37 42  1  0  0  0
 39 40  1  0  0  0
 39 41  1  0  0  0
 39128  1  0  0  0
 40129  1  0  0  0
 41130  1  0  0  0
 41131  1  0  0  0
 41132  1  0  0  0
 42 43  1  0  0  0
 42133  1  0  0  0
 43 44  1  0  0  0
 43 46  1  0  0  0
 43134  1  0  0  0
 44 45  2  0  0  0
 44 49  1  0  0  0
 46 47  1  0  0  0
 46 48  1  0  0  0
 46135  1  0  0  0
 47136  1  0  0  0
 48137  1  0  0  0
 48138  1  0  0  0
 48139  1  0  0  0
 49 50  1  0  0  0
 49140  1  0  0  0
 50 51  1  0  0  0
 50 53  1  0  0  0
 50141  1  0  0  0
 51 52  2  0  0  0
 51 57  1  0  0  0
 53 54  1  0  0  0
 53142  1  0  0  0
 53143  1  0  0  0
 54 55  1  0  0  0
 54 56  1  0  0  0
 54144  1  0  0  0
 55145  1  0  0  0
 55146  1  0  0  0
 55147  1  0  0  0
 56148  1  0  0  0
 56149  1  0  0  0
 56150  1  0  0  0
 57 58  1  0  0  0
 57151  1  0  0  0
 58 59  1  0  0  0
 58 61  1  0  0  0
 58152  1  0  0  0
 59 60  2  0  0  0
 59 65  1  0  0  0
 61 62  1  0  0  0
 61153  1  0  0  0
 61154  1  0  0  0
 62 63  2  0  0  0
 62 64  1  0  0  0
 64155  1  0  0  0
 64156  1  0  0  0
 65 66  1  0  0  0
 65157  1  0  0  0
 66 67  1  0  0  0
 66 69  1  0  0  0
 66158  1  0  0  0
 67 68  2  0  0  0
 67 73  1  0  0  0
 69 70  1  0  0  0
 69159  1  0  0  0
 69160  1  0  0  0
 70 71  1  0  0  0
 70 72  1  0  0  0
 70161  1  0  0  0
 71162  1  0  0  0
 71163  1  0  0  0
 71164  1  0  0  0
 72165  1  0  0  0
 72166  1  0  0  0
 72167  1  0  0  0
 73 74  1  0  0  0
 73168  1  0  0  0
 74 75  1  0  0  0
 74 77  1  0  0  0
 74169  1  0  0  0
 75 76  2  0  0  0
 75 84  1  0  0  0
 77 78  1  0  0  0
 77170  1  0  0  0
 77171  1  0  0  0
 78 79  2  0  0  0
 78 80  1  0  0  0
 79 81  1  0  0  0
 79172  1  0  0  0
 80 82  2  0  0  0
 80173  1  0  0  0
 81 83  2  0  0  0
 81174  1  0  0  0
 82 83  1  0  0  0
 82175  1  0  0  0
 83176  1  0  0  0
 84177  1  0  0  0
M  CHG  2   1   1  16   1
M  END
> <s_m_source_file>
../1ukh_ligand.sdf

> <i_m_source_file_index>
1

> <s_epik_input>
W0NIMl0xW0NIMl1bQ0gyXVtOSDIrXVtDQEBIXTFDKD1PKVtOSF1bQ0BASF0oW0NIMl1bQ0gyXVtDSDJdW0NIMl1bTkgzK10pQyg9TylbTkhdW0NAQEhdKFtDSDJdW0NIMl1bQ0gyXVtOSF0vQyg9TlxbSF0pW05IMl0pQyg9TylOMltDQEBIXShbQ0gyXVtDSDJdW0NIMl0yKUMoPU8pW05IXVtDQEBIXShbQ0BIXShbT0hdKVtDSDNdKUMoPU8pW05IXVtDQEBIXShbQ0BIXShbT0hdKVtDSDNdKUMoPU8pW05IXVtDQEBIXShbQ0gyXVtDSF0oW0NIM10pW0NIM10pQyg9TylbTkhdW0NAQEhdKFtDSDJdQyg9TylbTkgyXSlDKD1PKVtOSF1bQ0BASF0oW0NIMl1bQ0hdKFtDSDNdKVtDSDNdKUMoPU8pW05IXVtDQEhdKEMoPU8pW09IXSlbQ0gyXWMzW2NIXVtjSF1bY0hdW2NIXVtjSF0z

> <s_epik_cmdline>
J2VwaWtfYXBwJywgJy1pbWFlJywgJ2xpZ2FuZF9wcm8ubWFlJywgJy1vbWFlJywgJ2xpZ2FuZF9wcmVwLm1hZScsICctbXMnLCAnMScsICctcGgnLCAnNycsICctcGh0JywgJzAuNScsICctbnQn

> <s_epik_pKa_notes>
Molecule size exceeds maximum supported for generating protonation states

> <s_epik_Chemistry_Notes>
This compound has an imine and may undergo hydrolysis.

$$$$
