1ukt_ligand
                    3D
 Schrodinger Suite 2020-3.
 88 91  0  0  1  0            999 V2000
   47.8770   51.3150   20.5620 C   0  0  2  0  0  0
   49.2710   50.7390   20.7620 C   0  0  1  0  0  0
   49.6050   50.7190   22.2440 C   0  0  2  0  0  0
   49.7690   52.1540   22.7350 C   0  0  1  0  0  0
   48.5170   52.9900   22.4500 C   0  0  0  0  0  0
   48.1250   54.2160   23.2730 C   0  0  0  0  0  0
   47.6400   52.6100   21.3920 C   0  0  0  0  0  0
   46.8940   50.2690   20.8450 N   0  3  0  0  0  0
   49.3240   49.4140   20.2450 O   0  0  0  0  0  0
   50.8150   50.0050   22.4300 O   0  0  0  0  0  0
   50.0660   52.1610   24.1290 O   0  0  0  0  0  0
   48.4780   54.0360   24.6360 O   0  0  0  0  0  0
   42.6390   51.0570   21.2370 C   0  0  2  0  0  0
   43.5740   52.0900   20.5840 C   0  0  1  0  0  0
   44.8120   51.3610   20.0300 C   0  0  2  0  0  0
   45.5900   50.8030   21.2320 C   0  0  1  0  0  0
   44.7380   49.7010   21.8780 C   0  0  1  0  0  0
   45.3700   49.2360   23.1990 C   0  0  0  0  0  0
   42.8920   52.7520   19.5280 O   0  0  0  0  0  0
   45.6220   52.2420   19.2480 O   0  0  0  0  0  0
   43.3940   50.1890   22.1290 O   0  0  0  0  0  0
   40.8420   46.6580   22.0040 C   0  0  2  0  0  0
   41.5610   46.6840   20.6630 C   0  0  1  0  0  0
   42.3250   47.9820   20.5220 C   0  0  2  0  0  0
   41.3150   49.1180   20.4910 C   0  0  1  0  0  0
   40.5090   49.1560   21.7970 C   0  0  1  0  0  0
   39.3370   50.1360   21.6550 C   0  0  0  0  0  0
   42.4440   45.5890   20.5140 O   0  0  0  0  0  0
   43.0720   47.9610   19.3080 O   0  0  0  0  0  0
   41.9550   50.3620   20.1840 O   0  0  0  0  0  0
   39.9920   47.8280   22.0830 O   0  0  0  0  0  0
   38.5440   50.0990   22.8370 O   0  0  0  0  0  0
   41.9200   42.4520   23.9250 C   0  0  2  0  0  0
   41.1370   43.3880   24.8570 C   0  0  1  0  0  0
   40.7520   44.6230   24.0580 C   0  0  2  0  0  0
   42.0450   45.3540   23.6880 C   0  0  1  0  0  0
   42.9390   44.4450   22.8160 C   0  0  1  0  0  0
   44.3320   45.0770   22.5890 C   0  0  0  0  0  0
   42.2740   41.2560   24.6080 O   0  0  0  0  0  0
   39.9730   42.7570   25.3690 O   0  0  0  0  0  0
   39.9090   45.4600   24.8380 O   0  0  0  0  0  0
   41.7950   46.6310   23.0720 O   0  0  0  0  0  0
   43.0910   43.1460   23.4440 O   0  0  0  0  0  0
   44.9300   45.4770   23.8190 O   0  0  0  0  0  0
   47.7367   51.5787   19.5033 H   0  0  0  0  0  0
   50.0194   51.3105   20.1934 H   0  0  0  0  0  0
   48.8472   50.1790   22.8306 H   0  0  0  0  0  0
   50.6428   52.6163   22.2524 H   0  0  0  0  0  0
   48.6480   55.1017   22.8833 H   0  0  0  0  0  0
   47.0383   54.3719   23.2038 H   0  0  0  0  0  0
   46.7710   53.2379   21.1456 H   0  0  0  0  0  0
   46.7491   49.6495   19.9476 H   0  0  0  0  0  0
   47.2563   49.6391   21.6708 H   0  0  0  0  0  0
   49.1097   49.2294   19.1820 H   0  0  0  0  0  0
   50.8817   48.9485   22.1310 H   0  0  0  0  0  0
   50.9374   51.6072   24.5085 H   0  0  0  0  0  0
   48.2647   54.8283   25.3687 H   0  0  0  0  0  0
   41.8477   51.4739   21.8773 H   0  0  0  0  0  0
   43.8507   52.8932   21.2828 H   0  0  0  0  0  0
   44.5511   50.5769   19.3040 H   0  0  0  0  0  0
   45.8341   51.6103   21.9382 H   0  0  0  0  0  0
   44.6328   48.8556   21.1821 H   0  0  0  0  0  0
   46.3883   48.8664   23.0081 H   0  0  0  0  0  0
   44.7618   48.4282   23.6320 H   0  0  0  0  0  0
   45.4123   50.0806   23.9025 H   0  0  0  0  0  0
   41.9787   53.3277   19.7388 H   0  0  0  0  0  0
   45.2042   52.7225   18.3510 H   0  0  0  0  0  0
   40.2150   45.7664   22.1520 H   0  0  0  0  0  0
   40.8387   46.5462   19.8449 H   0  0  0  0  0  0
   43.0688   48.1145   21.3215 H   0  0  0  0  0  0
   40.6220   48.9981   19.6452 H   0  0  0  0  0  0
   41.1524   49.4373   22.6437 H   0  0  0  0  0  0
   39.7263   51.1539   21.5054 H   0  0  0  0  0  0
   38.7211   49.8482   20.7902 H   0  0  0  0  0  0
   42.0615   44.5602   20.5866 H   0  0  0  0  0  0
   43.8521   47.2006   19.1553 H   0  0  0  0  0  0
   37.6530   50.7385   22.9218 H   0  0  0  0  0  0
   41.3464   42.1165   23.0484 H   0  0  0  0  0  0
   41.7073   43.6352   25.7646 H   0  0  0  0  0  0
   40.1423   44.3799   23.1753 H   0  0  0  0  0  0
   42.5767   45.6514   24.6039 H   0  0  0  0  0  0
   42.4452   44.2614   21.8504 H   0  0  0  0  0  0
   44.9924   44.3439   22.1028 H   0  0  0  0  0  0
   44.2320   45.9637   21.9457 H   0  0  0  0  0  0
   41.4897   40.6136   25.0348 H   0  0  0  0  0  0
   40.0640   41.8434   25.9748 H   0  0  0  0  0  0
   38.9357   45.0865   25.1890 H   0  0  0  0  0  0
   45.9257   45.9446   23.8200 H   0  0  0  0  0  0
  1  2  1  0  0  0
  1  7  1  0  0  0
  1  8  1  0  0  0
  1 45  1  0  0  0
  2  3  1  0  0  0
  2  9  1  0  0  0
  2 46  1  0  0  0
  3  4  1  0  0  0
  3 10  1  0  0  0
  3 47  1  0  0  0
  4  5  1  0  0  0
  4 11  1  0  0  0
  4 48  1  0  0  0
  5  6  1  0  0  0
  5  7  2  0  0  0
  6 12  1  0  0  0
  6 49  1  0  0  0
  6 50  1  0  0  0
  7 51  1  0  0  0
  8 16  1  0  0  0
  8 52  1  0  0  0
  8 53  1  0  0  0
  9 54  1  0  0  0
 10 55  1  0  0  0
 11 56  1  0  0  0
 12 57  1  0  0  0
 13 14  1  0  0  0
 13 21  1  0  0  0
 13 30  1  0  0  0
 13 58  1  0  0  0
 14 15  1  0  0  0
 14 19  1  0  0  0
 14 59  1  0  0  0
 15 16  1  0  0  0
 15 20  1  0  0  0
 15 60  1  0  0  0
 16 17  1  0  0  0
 16 61  1  0  0  0
 17 18  1  0  0  0
 17 21  1  0  0  0
 17 62  1  0  0  0
 18 63  1  0  0  0
 18 64  1  0  0  0
 18 65  1  0  0  0
 19 66  1  0  0  0
 20 67  1  0  0  0
 22 23  1  0  0  0
 22 31  1  0  0  0
 22 42  1  0  0  0
 22 68  1  0  0  0
 23 24  1  0  0  0
 23 28  1  0  0  0
 23 69  1  0  0  0
 24 25  1  0  0  0
 24 29  1  0  0  0
 24 70  1  0  0  0
 25 26  1  0  0  0
 25 30  1  0  0  0
 25 71  1  0  0  0
 26 27  1  0  0  0
 26 31  1  0  0  0
 26 72  1  0  0  0
 27 32  1  0  0  0
 27 73  1  0  0  0
 27 74  1  0  0  0
 28 75  1  0  0  0
 29 76  1  0  0  0
 32 77  1  0  0  0
 33 34  1  0  0  0
 33 39  1  0  0  0
 33 43  1  0  0  0
 33 78  1  0  0  0
 34 35  1  0  0  0
 34 40  1  0  0  0
 34 79  1  0  0  0
 35 36  1  0  0  0
 35 41  1  0  0  0
 35 80  1  0  0  0
 36 37  1  0  0  0
 36 42  1  0  0  0
 36 81  1  0  0  0
 37 38  1  0  0  0
 37 43  1  0  0  0
 37 82  1  0  0  0
 38 44  1  0  0  0
 38 83  1  0  0  0
 38 84  1  0  0  0
 39 85  1  0  0  0
 40 86  1  0  0  0
 41 87  1  0  0  0
 44 88  1  0  0  0
M  CHG  1   8   1
M  END
> <s_m_source_file>
../1ukt_ligand.sdf

> <i_m_source_file_index>
1

> <s_epik_input>
W09IXVtDSDJdQyg9W0NIXTEpW0NAQEhdKFtPSF0pW0NASF0oW09IXSlbQ0BASF0oW09IXSlbQ0BIXTFbTkgyK11bQ0BIXShbQ0BIXShPMilbQ0gzXSlbQ0BIXShbT0hdKVtDQEBIXShbT0hdKVtDQEhdMk9bQ0BIXShbQ0BIXShPMylbQ0gyXVtPSF0pW0NASF0oW09IXSlbQ0BASF0oW09IXSlbQ0BIXTNPW0NASF0oW0NASF0oTzQpW0NIMl1bT0hdKVtDQEhdKFtPSF0pW0NAQEhdKFtPSF0pW0NAQEhdNFtPSF0=

> <s_epik_cmdline>
J2VwaWtfYXBwJywgJy1pbWFlJywgJ2xpZ2FuZF9wcm8ubWFlJywgJy1vbWFlJywgJ2xpZ2FuZF9wcmVwLm1hZScsICctbXMnLCAnMScsICctcGgnLCAnNycsICctcGh0JywgJzAuNScsICctbnQn

> <r_epik_Ionization_Penalty>
  0.1167

> <r_epik_Ionization_Penalty_Charging>
  0.1167

> <r_epik_Ionization_Penalty_Neutral>
  0.0001

> <r_epik_State_Penalty>
  0.1063

> <r_epik_Charging_Adjusted_Penalty>
0.222957502643002

> <i_epik_Tot_Q>
1

> <i_epik_Tot_abs_Q>
1

> <s_epik_Chemistry_Notes>
This compound contains an acetal/aminal-like group ( X-CH(R)-Y where X, Y are N, S, or O) that may be acid/base labile, releasing an aldehyde.

$$$$
