1ule_ligand
                    3D
 Schrodinger Suite 2020-3.
 72 74  0  0  1  0            999 V2000
   38.7030   14.5150   32.4830 C   0  0  2  0  0  0
   38.3890   15.2860   33.7630 C   0  0  1  0  0  0
   36.9560   15.8200   33.7120 C   0  0  2  0  0  0
   36.7560   16.6610   32.4480 C   0  0  2  0  0  0
   37.1170   15.8290   31.2130 C   0  0  1  0  0  0
   37.0410   16.6260   29.9210 C   0  0  0  0  0  0
   38.5340   14.4240   34.8810 O   0  0  0  0  0  0
   36.7070   16.6140   34.8610 O   0  0  0  0  0  0
   37.5900   17.8090   32.5110 O   0  0  0  0  0  0
   38.4700   15.3340   31.3330 O   0  0  0  0  0  0
   37.2670   15.7930   28.7920 O   0  0  0  0  0  0
   36.9660   10.8190   29.8670 C   0  0  1  0  0  0
   36.8270   11.6740   31.1130 C   0  0  1  0  0  0
   38.0500   12.5720   31.2450 C   0  0  2  0  0  0
   39.3370   11.7350   31.2400 C   0  0  2  0  0  0
   39.3600   10.8400   29.9940 C   0  0  1  0  0  0
   40.5370    9.8950   29.9690 C   0  0  0  0  0  0
   35.6520   12.4650   31.0020 O   0  0  0  0  0  0
   37.9560   13.3310   32.4610 O   0  0  0  0  0  0
   39.4090   10.9370   32.4130 O   0  0  0  0  0  0
   38.1650   10.0290   29.9350 O   0  0  0  0  0  0
   40.5700    9.1630   28.7530 O   0  0  0  0  0  0
   33.9100    7.8150   26.8560 C   0  0  2  0  0  0
   35.0110    7.0550   27.6000 C   0  0  1  0  0  0
   35.3300    7.8060   28.8920 C   0  0  2  0  0  0
   35.7180    9.2480   28.5660 C   0  0  1  0  0  0
   34.6240    9.9200   27.7190 C   0  0  1  0  0  0
   34.9730   11.3270   27.2620 C   0  0  0  0  0  0
   35.0020    4.6910   27.1340 C   0  0  0  0  0  0
   34.6250    3.2820   27.5760 C   0  0  0  0  0  0
   34.5790    5.7020   27.8890 N   0  0  0  0  0  0
   33.6260    7.1670   25.6690 O   0  0  0  0  0  0
   36.3940    7.1690   29.5860 O   0  0  0  0  0  0
   35.8840    9.9670   29.7950 O   0  0  0  0  0  0
   34.3660    9.1390   26.5390 O   0  0  0  0  0  0
   36.2320   11.3670   26.6050 O   0  0  0  0  0  0
   35.6760    4.8520   26.1170 O   0  0  0  0  0  0
   39.7492   14.1867   32.3957 H   0  0  0  0  0  0
   39.1110   16.1007   33.9209 H   0  0  0  0  0  0
   36.2237   15.0006   33.7596 H   0  0  0  0  0  0
   35.7284   17.0477   32.3802 H   0  0  0  0  0  0
   36.4264   14.9741   31.1655 H   0  0  0  0  0  0
   36.0436   17.0806   29.8288 H   0  0  0  0  0  0
   37.8049   17.4174   29.9329 H   0  0  0  0  0  0
   39.5022   13.9422   35.0821 H   0  0  0  0  0  0
   36.8028   16.1743   35.8647 H   0  0  0  0  0  0
   37.4749   18.5279   33.3356 H   0  0  0  0  0  0
   37.2450   16.2215   27.7791 H   0  0  0  0  0  0
   36.9825   11.4077   28.9379 H   0  0  0  0  0  0
   36.6893   11.0598   32.0151 H   0  0  0  0  0  0
   38.0727   13.3097   30.4294 H   0  0  0  0  0  0
   40.2295   12.3759   31.2909 H   0  0  0  0  0  0
   39.3912   11.4946   29.1105 H   0  0  0  0  0  0
   41.4704   10.4694   30.0625 H   0  0  0  0  0  0
   40.4567    9.1870   30.8070 H   0  0  0  0  0  0
   34.6702   11.9799   30.8983 H   0  0  0  0  0  0
   39.4041   11.4143   33.4041 H   0  0  0  0  0  0
   41.3689    8.4281   28.5749 H   0  0  0  0  0  0
   32.9670    7.8772   27.4190 H   0  0  0  0  0  0
   35.9115    6.9378   26.9792 H   0  0  0  0  0  0
   34.4781    7.7654   29.5867 H   0  0  0  0  0  0
   36.6861    9.2855   28.0451 H   0  0  0  0  0  0
   33.7092    9.9555   28.3289 H   0  0  0  0  0  0
   34.2046   11.6862   26.5616 H   0  0  0  0  0  0
   35.0155   11.9959   28.1342 H   0  0  0  0  0  0
   34.0267    3.3346   28.4976 H   0  0  0  0  0  0
   35.5392    2.7001   27.7650 H   0  0  0  0  0  0
   34.0371    2.7944   26.7844 H   0  0  0  0  0  0
   33.9006    5.5098   28.7333 H   0  0  0  0  0  0
   33.2583    6.1304   25.6826 H   0  0  0  0  0  0
   36.2937    6.1207   29.9039 H   0  0  0  0  0  0
   36.6200   12.3205   26.2172 H   0  0  0  0  0  0
  1  2  1  0  0  0
  1 10  1  0  0  0
  1 19  1  0  0  0
  1 38  1  0  0  0
  2  3  1  0  0  0
  2  7  1  0  0  0
  2 39  1  0  0  0
  3  4  1  0  0  0
  3  8  1  0  0  0
  3 40  1  0  0  0
  4  5  1  0  0  0
  4  9  1  0  0  0
  4 41  1  0  0  0
  5  6  1  0  0  0
  5 10  1  0  0  0
  5 42  1  0  0  0
  6 11  1  0  0  0
  6 43  1  0  0  0
  6 44  1  0  0  0
  7 45  1  0  0  0
  8 46  1  0  0  0
  9 47  1  0  0  0
 11 48  1  0  0  0
 12 13  1  0  0  0
 12 21  1  0  0  0
 12 34  1  0  0  0
 12 49  1  0  0  0
 13 14  1  0  0  0
 13 18  1  0  0  0
 13 50  1  0  0  0
 14 15  1  0  0  0
 14 19  1  0  0  0
 14 51  1  0  0  0
 15 16  1  0  0  0
 15 20  1  0  0  0
 15 52  1  0  0  0
 16 17  1  0  0  0
 16 21  1  0  0  0
 16 53  1  0  0  0
 17 22  1  0  0  0
 17 54  1  0  0  0
 17 55  1  0  0  0
 18 56  1  0  0  0
 20 57  1  0  0  0
 22 58  1  0  0  0
 23 24  1  0  0  0
 23 32  1  0  0  0
 23 35  1  0  0  0
 23 59  1  0  0  0
 24 25  1  0  0  0
 24 31  1  0  0  0
 24 60  1  0  0  0
 25 26  1  0  0  0
 25 33  1  0  0  0
 25 61  1  0  0  0
 26 27  1  0  0  0
 26 34  1  0  0  0
 26 62  1  0  0  0
 27 28  1  0  0  0
 27 35  1  0  0  0
 27 63  1  0  0  0
 28 36  1  0  0  0
 28 64  1  0  0  0
 28 65  1  0  0  0
 29 30  1  0  0  0
 29 31  1  0  0  0
 29 37  2  0  0  0
 30 66  1  0  0  0
 30 67  1  0  0  0
 30 68  1  0  0  0
 31 69  1  0  0  0
 32 70  1  0  0  0
 33 71  1  0  0  0
 36 72  1  0  0  0
M  END
> <s_m_source_file>
../1ule_ligand.sdf

> <i_m_source_file_index>
1

> <s_epik_input>
W09IXVtDSDJdW0NAQEhdKE8xKVtDQEhdKFtPSF0pW0NASF0oW09IXSlbQ0BASF0oW09IXSlbQ0BIXTFPW0NAQEhdKFtDQEBIXShbT0hdKVtDQEhdKE8yKVtDSDJdW09IXSlbQ0BASF0oW09IXSlbQ0BASF0yT1tDQEhdKFtDQEhdKE8zKVtDSDJdW09IXSlbQ0BIXShbT0hdKVtDQEhdKFtDQEBIXTNbT0hdKVtOSF1DKD1PKVtDSDNd

> <s_epik_cmdline>
J2VwaWtfYXBwJywgJy1pbWFlJywgJ2xpZ2FuZF9wcm8ubWFlJywgJy1vbWFlJywgJ2xpZ2FuZF9wcmVwLm1hZScsICctbXMnLCAnMScsICctcGgnLCAnNycsICctcGh0JywgJzAuNScsICctbnQn

> <r_lp_tautomer_probability>
1

> <r_epik_Ionization_Penalty>
  0.0000

> <r_epik_Ionization_Penalty_Charging>
  0.0000

> <r_epik_Ionization_Penalty_Neutral>
  0.0000

> <r_epik_State_Penalty>
 -0.0000

> <r_epik_Charging_Adjusted_Penalty>
0

> <i_epik_Tot_Q>
0

> <i_epik_Tot_abs_Q>
0

> <s_epik_Chemistry_Notes>
This compound contains an acetal/aminal-like group ( X-CH(R)-Y where X, Y are N, S, or O) that may be acid/base labile, releasing an aldehyde.

$$$$
