1ulg_ligand
                    3D
 Schrodinger Suite 2020-3.
 51 52  0  0  1  0            999 V2000
  -33.8070  -20.4010  -17.0060 C   0  0  1  0  0  0
  -33.1600  -21.2000  -15.8670 C   0  0  1  0  0  0
  -34.1960  -21.4830  -14.7750 C   0  0  2  0  0  0
  -34.8490  -20.1780  -14.3190 C   0  0  2  0  0  0
  -35.4340  -19.4450  -15.5270 C   0  0  1  0  0  0
  -36.0340  -18.1030  -15.1540 C   0  0  0  0  0  0
  -32.6480  -22.4250  -16.3730 O   0  0  0  0  0  0
  -33.5710  -22.1150  -13.6690 O   0  0  0  0  0  0
  -33.8770  -19.3570  -13.6880 O   0  0  0  0  0  0
  -34.3980  -19.1940  -16.5020 O   0  0  0  0  0  0
  -36.3090  -17.3230  -16.3080 O   0  0  0  0  0  0
  -32.4550  -19.7700  -21.6780 C   0  0  2  0  0  0
  -32.0000  -20.0460  -20.2320 C   0  0  1  0  0  0
  -33.2190  -20.2470  -19.3260 C   0  0  2  0  0  0
  -34.3220  -19.2670  -19.7220 C   0  0  2  0  0  0
  -34.8070  -19.5970  -21.1440 C   0  0  2  0  0  0
  -36.0360  -20.4950  -21.1390 C   0  0  0  0  0  0
  -29.9340  -21.2560  -20.6860 C   0  0  0  0  0  0
  -29.3630  -19.9860  -21.3140 C   0  0  0  0  0  0
  -31.1740  -21.2430  -20.1920 N   0  0  0  0  0  0
  -32.4840  -18.4030  -21.9070 O   0  0  0  0  0  0
  -32.8480  -20.0500  -17.9450 O   0  0  0  0  0  0
  -33.8080  -17.9430  -19.6950 O   0  0  0  0  0  0
  -33.7770  -20.2920  -21.9010 O   0  0  0  0  0  0
  -36.7300  -20.4280  -19.8990 O   0  0  0  0  0  0
  -29.2350  -22.2670  -20.6510 O   0  0  0  0  0  0
  -34.5771  -20.9769  -17.5401 H   0  0  0  0  0  0
  -32.2875  -20.6718  -15.4550 H   0  0  0  0  0  0
  -34.9520  -22.2000  -15.1275 H   0  0  0  0  0  0
  -35.6184  -20.3622  -13.5548 H   0  0  0  0  0  0
  -36.2001  -20.0903  -15.9817 H   0  0  0  0  0  0
  -36.9746  -18.2615  -14.6061 H   0  0  0  0  0  0
  -35.3277  -17.5497  -14.5175 H   0  0  0  0  0  0
  -31.8885  -22.4168  -17.1687 H   0  0  0  0  0  0
  -33.0464  -23.0720  -13.8067 H   0  0  0  0  0  0
  -33.3461  -19.7200  -12.7956 H   0  0  0  0  0  0
  -36.7481  -16.3200  -16.2021 H   0  0  0  0  0  0
  -31.7772  -20.2004  -22.4299 H   0  0  0  0  0  0
  -31.3751  -19.2191  -19.8635 H   0  0  0  0  0  0
  -33.5850  -21.2826  -19.3854 H   0  0  0  0  0  0
  -35.1467  -19.2772  -18.9942 H   0  0  0  0  0  0
  -35.0228  -18.6441  -21.6495 H   0  0  0  0  0  0
  -36.7232  -20.1805  -21.9383 H   0  0  0  0  0  0
  -35.7290  -21.5376  -21.3086 H   0  0  0  0  0  0
  -30.1129  -19.1828  -21.2634 H   0  0  0  0  0  0
  -29.1049  -20.1809  -22.3654 H   0  0  0  0  0  0
  -28.4601  -19.6797  -20.7655 H   0  0  0  0  0  0
  -31.5679  -22.1684  -19.7464 H   0  0  0  0  0  0
  -31.5673  -17.8063  -21.7905 H   0  0  0  0  0  0
  -33.4118  -17.5258  -18.7575 H   0  0  0  0  0  0
  -37.6414  -21.0246  -19.7459 H   0  0  0  0  0  0
  1  2  1  0  0  0
  1 10  1  0  0  0
  1 22  1  0  0  0
  1 27  1  0  0  0
  2  3  1  0  0  0
  2  7  1  0  0  0
  2 28  1  0  0  0
  3  4  1  0  0  0
  3  8  1  0  0  0
  3 29  1  0  0  0
  4  5  1  0  0  0
  4  9  1  0  0  0
  4 30  1  0  0  0
  5  6  1  0  0  0
  5 10  1  0  0  0
  5 31  1  0  0  0
  6 11  1  0  0  0
  6 32  1  0  0  0
  6 33  1  0  0  0
  7 34  1  0  0  0
  8 35  1  0  0  0
  9 36  1  0  0  0
 11 37  1  0  0  0
 12 13  1  0  0  0
 12 21  1  0  0  0
 12 24  1  0  0  0
 12 38  1  0  0  0
 13 14  1  0  0  0
 13 20  1  0  0  0
 13 39  1  0  0  0
 14 15  1  0  0  0
 14 22  1  0  0  0
 14 40  1  0  0  0
 15 16  1  0  0  0
 15 23  1  0  0  0
 15 41  1  0  0  0
 16 17  1  0  0  0
 16 24  1  0  0  0
 16 42  1  0  0  0
 17 25  1  0  0  0
 17 43  1  0  0  0
 17 44  1  0  0  0
 18 19  1  0  0  0
 18 20  1  0  0  0
 18 26  2  0  0  0
 19 45  1  0  0  0
 19 46  1  0  0  0
 19 47  1  0  0  0
 20 48  1  0  0  0
 21 49  1  0  0  0
 23 50  1  0  0  0
 25 51  1  0  0  0
M  END
> <s_m_source_file>
../1ulg_ligand.sdf

> <i_m_source_file_index>
1

> <s_epik_input>
W0NIM11DKD1PKVtOSF1bQ0BASF0oW0NAQEhdMVtPSF0pW0NASF0oW0NAQEhdKFtPSF0pW0NAQEhdKE8xKVtDSDJdW09IXSlPW0NASF0yW0NASF0oW09IXSlbQ0BASF0oW09IXSlbQ0BASF0oW09IXSlbQ0BIXShPMilbQ0gyXVtPSF0=

> <s_epik_cmdline>
J2VwaWtfYXBwJywgJy1pbWFlJywgJ2xpZ2FuZF9wcm8ubWFlJywgJy1vbWFlJywgJ2xpZ2FuZF9wcmVwLm1hZScsICctbXMnLCAnMScsICctcGgnLCAnNycsICctcGh0JywgJzAuNScsICctbnQn

> <r_lp_tautomer_probability>
1

> <r_epik_Ionization_Penalty>
  0.0000

> <r_epik_Ionization_Penalty_Charging>
  0.0000

> <r_epik_Ionization_Penalty_Neutral>
  0.0000

> <r_epik_State_Penalty>
 -0.0000

> <r_epik_Charging_Adjusted_Penalty>
0

> <i_epik_Tot_Q>
0

> <i_epik_Tot_abs_Q>
0

> <s_epik_Chemistry_Notes>
This compound contains an acetal/aminal-like group ( X-CH(R)-Y where X, Y are N, S, or O) that may be acid/base labile, releasing an aldehyde.

$$$$
