1umw_ligand
                    3D
 Schrodinger Suite 2020-3.
112113  0  0  1  0            999 V2000
   16.3950   -7.5830    9.8010 N   0  3  0  0  0  0
   15.5610   -7.7910    8.5860 C   0  0  2  0  0  0
   16.4370   -8.0650    7.3710 C   0  0  0  0  0  0
   17.5570   -7.5600    7.3010 O   0  0  0  0  0  0
   14.8620   -6.4350    8.4000 C   0  0  0  0  0  0
   15.2110   -5.6250    9.6170 C   0  0  0  0  0  0
   16.5070   -6.1570   10.1420 C   0  0  0  0  0  0
   15.9270   -8.8440    6.4230 N   0  0  0  0  0  0
   16.6860   -9.1650    5.2240 C   0  0  2  0  0  0
   16.3250   -8.2200    4.0840 C   0  0  0  0  0  0
   16.7950   -8.3760    2.9570 O   0  0  0  0  0  0
   16.4730  -10.6310    4.8320 C   0  0  0  0  0  0
   17.1560  -11.6060    5.7850 C   0  0  0  0  0  0
   18.9520  -11.3890    5.7770 S   0  0  0  0  0  0
   19.4550  -12.4320    7.1290 C   0  0  0  0  0  0
   15.4900   -7.2330    4.3940 N   0  0  0  0  0  0
   15.0750   -6.2330    3.4260 C   0  0  2  0  0  0
   14.7910   -4.9330    4.1620 C   0  0  0  0  0  0
   14.5730   -4.9420    5.3740 O   0  0  0  0  0  0
   13.8240   -6.6860    2.6700 C   0  0  0  0  0  0
   12.6340   -7.0400    3.5590 C   0  0  0  0  0  0
   11.4230   -7.4850    2.7580 C   0  0  0  0  0  0
   11.5300   -7.7400    1.5570 O   0  0  0  0  0  0
   10.2660   -7.5730    3.4170 N   0  0  0  0  0  0
   14.8050   -3.8220    3.4360 N   0  0  0  0  0  0
   14.5060   -2.5230    4.0380 C   0  0  2  0  0  0
   13.0040   -2.4130    4.3170 C   0  0  0  0  0  0
   12.2600   -3.3820    4.1230 O   0  0  0  0  0  0
   14.9520   -1.3920    3.1170 C   0  0  0  0  0  0
   14.2570   -1.4450    1.8840 O   0  0  0  0  0  0
   12.4670   -1.3020    4.8210 N   0  0  0  0  0  0
   11.1150   -1.1710    5.3530 C   0  0  1  0  0  0
   11.0270    0.2720    5.8830 C   0  0  1  0  0  0
    9.6140    0.5980    6.3400 C   0  0  0  0  0  0
   11.9120    0.4210    6.9900 O   0  0  0  0  0  0
   13.1820    1.3990    6.8550 P   0  0  0  0  0  0
   13.9030    1.1640    8.2580 O   0  5  0  0  0  0
   12.5480    2.8310    6.6330 O   0  0  0  0  0  0
   14.0260    0.8660    5.6050 O   0  5  0  0  0  0
   10.0530   -1.4240    4.3020 C   0  0  0  0  0  0
   10.1320   -0.8410    3.1120 O   0  0  0  0  0  0
    9.1180   -2.3380    4.5530 N   0  0  0  0  0  0
    8.0040   -2.7570    3.6510 C   0  0  2  0  0  0
    7.0000   -1.6420    3.3870 C   0  0  0  0  0  0
    6.8090   -0.7400    4.2070 O   0  0  0  0  0  0
    7.3180   -3.8860    4.4320 C   0  0  0  0  0  0
    8.3080   -4.3180    5.4640 C   0  0  0  0  0  0
    9.1080   -3.0880    5.8200 C   0  0  0  0  0  0
    6.3500   -1.7410    2.2350 N   0  0  0  0  0  0
    5.3520   -0.7860    1.7820 C   0  0  2  0  0  0
    4.1780   -0.6550    2.7570 C   0  0  0  0  0  0
    3.9230   -1.5500    3.5720 O   0  0  0  0  0  0
    4.8550   -1.2180    0.4020 C   0  0  0  0  0  0
    4.2200   -0.1710   -0.5050 C   0  0  0  0  0  0
    5.0060    1.1300   -0.4500 C   0  0  0  0  0  0
    4.1390   -0.7060   -1.9320 C   0  0  0  0  0  0
    3.4608    0.3806    2.7285 O   0  5  0  0  0  0
   15.9396   -8.1093   10.6528 H   0  0  0  0  0  0
   17.4061   -7.9784    9.6238 H   0  0  0  0  0  0
   14.8868   -8.6513    8.7100 H   0  0  0  0  0  0
   15.2311   -5.9551    7.4816 H   0  0  0  0  0  0
   13.7758   -6.5901    8.3215 H   0  0  0  0  0  0
   15.3114   -4.5662    9.3363 H   0  0  0  0  0  0
   14.4150   -5.7311   10.3687 H   0  0  0  0  0  0
   16.6138   -6.0478   11.2313 H   0  0  0  0  0  0
   17.3884   -5.7286    9.6424 H   0  0  0  0  0  0
   14.9127   -9.2482    6.5565 H   0  0  0  0  0  0
   17.7421   -9.0065    5.4878 H   0  0  0  0  0  0
   15.3968  -10.8586    4.8348 H   0  0  0  0  0  0
   16.8819  -10.8046    3.8257 H   0  0  0  0  0  0
   16.7887  -11.4368    6.8080 H   0  0  0  0  0  0
   16.9279  -12.6378    5.4795 H   0  0  0  0  0  0
   20.5490  -12.3912    7.2362 H   0  0  0  0  0  0
   19.1447  -13.4680    6.9280 H   0  0  0  0  0  0
   18.9821  -12.0813    8.0582 H   0  0  0  0  0  0
   15.1113   -7.1901    5.4259 H   0  0  0  0  0  0
   15.9101   -6.1189    2.7192 H   0  0  0  0  0  0
   13.4904   -5.8816    1.9979 H   0  0  0  0  0  0
   14.0576   -7.5841    2.0793 H   0  0  0  0  0  0
   12.9133   -7.8611    4.2356 H   0  0  0  0  0  0
   12.3439   -6.1595    4.1511 H   0  0  0  0  0  0
   10.2246   -7.3340    4.4899 H   0  0  0  0  0  0
    9.3537   -7.8846    2.8873 H   0  0  0  0  0  0
   15.0465   -3.8893    2.3650 H   0  0  0  0  0  0
   15.0774   -2.4792    4.9769 H   0  0  0  0  0  0
   14.7471   -0.4245    3.5987 H   0  0  0  0  0  0
   16.0305   -1.4827    2.9207 H   0  0  0  0  0  0
   14.4622   -0.6966    1.1044 H   0  0  0  0  0  0
   13.1417   -0.4333    4.8137 H   0  0  0  0  0  0
   10.9676   -1.9440    6.1216 H   0  0  0  0  0  0
   11.3533    0.9899    5.1161 H   0  0  0  0  0  0
    8.9201    0.4867    5.4938 H   0  0  0  0  0  0
    9.5780    1.6333    6.7100 H   0  0  0  0  0  0
    9.3217   -0.0901    7.1469 H   0  0  0  0  0  0
    8.4040   -3.0382    2.6656 H   0  0  0  0  0  0
    6.3963   -3.5039    4.8952 H   0  0  0  0  0  0
    7.0695   -4.7085    3.7452 H   0  0  0  0  0  0
    7.7745   -4.7112    6.3420 H   0  0  0  0  0  0
    8.9546   -5.1035    5.0457 H   0  0  0  0  0  0
   10.1414   -3.3213    6.1161 H   0  0  0  0  0  0
    8.6309   -2.4797    6.6025 H   0  0  0  0  0  0
    6.6048   -2.6089    1.6090 H   0  0  0  0  0  0
    5.8712    0.1830    1.7450 H   0  0  0  0  0  0
    5.6963   -1.6204   -0.1813 H   0  0  0  0  0  0
    4.0838   -1.9940    0.5164 H   0  0  0  0  0  0
    3.2006    0.0428   -0.1513 H   0  0  0  0  0  0
    5.0470    1.4900    0.5886 H   0  0  0  0  0  0
    4.5116    1.8840   -1.0802 H   0  0  0  0  0  0
    6.0278    0.9569   -0.8187 H   0  0  0  0  0  0
    3.5661   -1.6450   -1.9395 H   0  0  0  0  0  0
    5.1543   -0.8928   -2.3117 H   0  0  0  0  0  0
    3.6381    0.0343   -2.5732 H   0  0  0  0  0  0
  1  2  1  0  0  0
  1  7  1  0  0  0
  1 58  1  0  0  0
  1 59  1  0  0  0
  2  3  1  0  0  0
  2  5  1  0  0  0
  2 60  1  0  0  0
  3  4  2  0  0  0
  3  8  1  0  0  0
  5  6  1  0  0  0
  5 61  1  0  0  0
  5 62  1  0  0  0
  6  7  1  0  0  0
  6 63  1  0  0  0
  6 64  1  0  0  0
  7 65  1  0  0  0
  7 66  1  0  0  0
  8  9  1  0  0  0
  8 67  1  0  0  0
  9 12  1  0  0  0
  9 10  1  0  0  0
  9 68  1  0  0  0
 10 11  2  0  0  0
 10 16  1  0  0  0
 12 13  1  0  0  0
 12 69  1  0  0  0
 12 70  1  0  0  0
 13 14  1  0  0  0
 13 71  1  0  0  0
 13 72  1  0  0  0
 14 15  1  0  0  0
 15 73  1  0  0  0
 15 74  1  0  0  0
 15 75  1  0  0  0
 16 17  1  0  0  0
 16 76  1  0  0  0
 17 20  1  0  0  0
 17 18  1  0  0  0
 17 77  1  0  0  0
 18 19  2  0  0  0
 18 25  1  0  0  0
 20 21  1  0  0  0
 20 78  1  0  0  0
 20 79  1  0  0  0
 21 22  1  0  0  0
 21 80  1  0  0  0
 21 81  1  0  0  0
 22 24  1  0  0  0
 22 23  2  0  0  0
 24 82  1  0  0  0
 24 83  1  0  0  0
 25 26  1  0  0  0
 25 84  1  0  0  0
 26 29  1  0  0  0
 26 27  1  0  0  0
 26 85  1  0  0  0
 27 28  2  0  0  0
 27 31  1  0  0  0
 29 30  1  0  0  0
 29 86  1  0  0  0
 29 87  1  0  0  0
 30 88  1  0  0  0
 31 32  1  0  0  0
 31 89  1  0  0  0
 32 33  1  0  0  0
 32 40  1  0  0  0
 32 90  1  0  0  0
 33 35  1  0  0  0
 33 34  1  0  0  0
 33 91  1  0  0  0
 34 92  1  0  0  0
 34 93  1  0  0  0
 34 94  1  0  0  0
 35 36  1  0  0  0
 36 37  1  0  0  0
 36 38  2  0  0  0
 36 39  1  0  0  0
 40 41  2  0  0  0
 40 42  1  0  0  0
 42 43  1  0  0  0
 42 48  1  0  0  0
 43 44  1  0  0  0
 43 46  1  0  0  0
 43 95  1  0  0  0
 44 45  2  0  0  0
 44 49  1  0  0  0
 46 47  1  0  0  0
 46 96  1  0  0  0
 46 97  1  0  0  0
 47 48  1  0  0  0
 47 98  1  0  0  0
 47 99  1  0  0  0
 48100  1  0  0  0
 48101  1  0  0  0
 49 50  1  0  0  0
 49102  1  0  0  0
 50 53  1  0  0  0
 50 51  1  0  0  0
 50103  1  0  0  0
 51 52  2  0  0  0
 51 57  1  0  0  0
 53 54  1  0  0  0
 53104  1  0  0  0
 53105  1  0  0  0
 54 55  1  0  0  0
 54 56  1  0  0  0
 54106  1  0  0  0
 55107  1  0  0  0
 55108  1  0  0  0
 55109  1  0  0  0
 56110  1  0  0  0
 56111  1  0  0  0
 56112  1  0  0  0
M  CHG  4   1   1  37  -1  39  -1  57  -1
M  END
> <s_m_source_file>
../1umw_ligand.sdf

> <i_m_source_file_index>
1

> <s_epik_input>
W0NIMl0xW0NIMl1bQ0gyXVtOSDIrXVtDQEBIXTFDKD1PKVtOSF1bQ0BASF0oW0NIMl1bQ0gyXVNbQ0gzXSlDKD1PKVtOSF1bQ0BASF0oW0NIMl1bQ0gyXUMoPU8pW05IMl0pQyg9TylbTkhdW0NAQEhdKFtDSDJdW09IXSlDKD1PKVtOSF1bQ0BASF0oW0NAQEhdKFtDSDNdKU9QKD1PKShbT0hdKVtPSF0pQyg9TylOMltDQEBIXShbQ0gyXVtDSDJdW0NIMl0yKUMoPU8pW05IXVtDQEhdKEMoPU8pW09IXSlbQ0gyXVtDSF0oW0NIM10pW0NIM10=

> <s_epik_cmdline>
J2VwaWtfYXBwJywgJy1pbWFlJywgJ2xpZ2FuZF9wcm8ubWFlJywgJy1vbWFlJywgJ2xpZ2FuZF9wcmVwLm1hZScsICctbXMnLCAnMScsICctcGgnLCAnNycsICctcGh0JywgJzAuNScsICctbnQn

> <r_lp_tautomer_probability>
1

> <r_epik_Ionization_Penalty>
  0.1204

> <r_epik_Ionization_Penalty_Charging>
  0.1204

> <r_epik_Ionization_Penalty_Neutral>
  0.0000

> <r_epik_State_Penalty>
 -0.0000

> <r_epik_Charging_Adjusted_Penalty>
0.12040057035347

> <i_epik_Tot_Q>
-2

> <i_epik_Tot_abs_Q>
4

$$$$
