1ung_ligand
                    3D
 Schrodinger Suite 2020-3.
 37 39  0  0  1  0            999 V2000
    0.9860   70.0120    1.0710 O   0  0  0  0  0  0
    1.8070   69.0080    0.9370 C   0  0  0  0  0  0
    2.3790   68.3990    2.0550 C   0  0  0  0  0  0
    3.2490   67.3160    1.9140 C   0  0  0  0  0  0
    3.5520   66.8900    0.6280 C   0  0  0  0  0  0
    2.9860   67.5350   -0.4940 C   0  0  0  0  0  0
    2.1080   68.5970   -0.3450 C   0  0  0  0  0  0
    4.3980   65.8360    0.3110 C   0  0  0  0  0  0
    4.6370   65.4420   -0.9710 N   0  3  0  0  0  0
    5.4840   64.4360   -0.8390 C   0  0  0  0  0  0
    6.0700   63.6610   -1.9000 N   0  0  0  0  0  0
    5.7850   64.2120    0.4800 C   0  0  0  0  0  0
    6.7000   63.1680    0.8300 N   0  0  0  0  0  0
    7.2010   62.4310   -0.1540 C   0  0  0  0  0  0
    6.8800   62.6720   -1.4960 C   0  0  0  0  0  0
    5.0830   65.0800    1.2990 C   0  0  0  0  0  0
    5.1550   65.1990    2.8220 C   0  0  0  0  0  0
    4.3490   64.2710    3.7290 C   0  0  0  0  0  0
    5.1210   64.1220    5.0390 C   0  0  0  0  0  0
    4.5150   64.8330    6.2450 C   0  0  0  0  0  0
    0.7180   70.3731    2.0749 H   0  0  0  0  0  0
    2.1435   68.7737    3.0511 H   0  0  0  0  0  0
    3.6766   66.8209    2.7859 H   0  0  0  0  0  0
    3.2445   67.1911   -1.4955 H   0  0  0  0  0  0
    1.6698   69.0911   -1.2121 H   0  0  0  0  0  0
    7.8816   61.6151    0.0893 H   0  0  0  0  0  0
    7.3128   62.0192   -2.2540 H   0  0  0  0  0  0
    6.1915   65.0391    3.1537 H   0  0  0  0  0  0
    4.8229   66.2022    3.1275 H   0  0  0  0  0  0
    3.3580   64.7104    3.9154 H   0  0  0  0  0  0
    4.2302   63.2928    3.2402 H   0  0  0  0  0  0
    5.1853   63.0572    5.3076 H   0  0  0  0  0  0
    6.1347   64.5310    4.9158 H   0  0  0  0  0  0
    5.1474   64.6604    7.1283 H   0  0  0  0  0  0
    3.5056   64.4387    6.4340 H   0  0  0  0  0  0
    4.4550   65.9125    6.0422 H   0  0  0  0  0  0
    4.1459   65.9619   -1.8068 H   0  0  0  0  0  0
  1  2  1  0  0  0
  1 21  1  0  0  0
  2  3  2  0  0  0
  2  7  1  0  0  0
  3  4  1  0  0  0
  3 22  1  0  0  0
  4  5  2  0  0  0
  4 23  1  0  0  0
  5  6  1  0  0  0
  5  8  1  0  0  0
  6  7  2  0  0  0
  6 24  1  0  0  0
  7 25  1  0  0  0
  8  9  2  0  0  0
  8 16  1  0  0  0
  9 10  1  0  0  0
  9 37  1  0  0  0
 10 11  2  0  0  0
 10 12  1  0  0  0
 11 15  1  0  0  0
 12 13  1  0  0  0
 12 16  2  0  0  0
 13 14  1  0  0  0
 14 15  2  0  0  0
 14 26  1  0  0  0
 15 27  1  0  0  0
 16 17  1  0  0  0
 17 18  1  0  0  0
 17 28  1  0  0  0
 17 29  1  0  0  0
 18 19  1  0  0  0
 18 30  1  0  0  0
 18 31  1  0  0  0
 19 20  1  0  0  0
 19 32  1  0  0  0
 19 33  1  0  0  0
 20 34  1  0  0  0
 20 35  1  0  0  0
 20 36  1  0  0  0
M  CHG  1   9   1
M  END
> <s_m_source_file>
../1ung_ligand.sdf

> <i_m_source_file_index>
1

> <s_epik_input>
W09IXWMxW2NIXVtjSF1jKFtjSF1bY0hdMSktYyhuMiljKGMoYzIzKVtuSF1bY0hdW2NIXW4zKVtDSDJdW0NIMl1bQ0gyXVtDSDNd

> <s_epik_cmdline>
J2VwaWtfYXBwJywgJy1pbWFlJywgJ2xpZ2FuZF9wcm8ubWFlJywgJy1vbWFlJywgJ2xpZ2FuZF9wcmVwLm1hZScsICctbXMnLCAnMScsICctcGgnLCAnNycsICctcGh0JywgJzAuNScsICctbnQn

> <r_lp_tautomer_probability>
1

> <r_epik_Ionization_Penalty>
  0.0009

> <r_epik_Ionization_Penalty_Charging>
  0.0000

> <r_epik_Ionization_Penalty_Neutral>
  0.0009

> <r_epik_State_Penalty>
 -0.0000

> <r_epik_Charging_Adjusted_Penalty>
1.031969083792e-05

> <i_epik_Tot_Q>
1

> <i_epik_Tot_abs_Q>
1

$$$$
