1unh_ligand
                    3D
 Schrodinger Suite 2020-3.
 30 33  0  0  1  0            999 V2000
   40.8530   17.9780   30.4930 C   0  0  0  0  0  0
   39.9810   16.8140   30.6130 C   0  0  0  0  0  0
   40.8110   18.5550   31.7300 C   0  0  0  0  0  0
   39.9990   17.8910   32.6120 N   0  0  0  0  0  0
   41.5870   19.7640   31.9750 C   0  0  0  0  0  0
   42.3520   20.2740   30.9110 C   0  0  0  0  0  0
   42.3850   19.6630   29.6470 C   0  0  0  0  0  0
   41.6400   18.4960   29.3930 C   0  0  0  0  0  0
   39.4990   16.8390   31.9250 C   0  0  0  0  0  0
   38.6140   15.9230   32.5400 C   0  0  0  0  0  0
   38.2080   16.0590   33.8490 C   0  0  0  0  0  0
   37.3500   15.0800   34.2880 N   0  0  0  0  0  0
   37.2030   14.2840   33.1850 C   0  0  0  0  0  0
   37.9240   14.6840   32.0710 C   0  0  0  0  0  0
   36.4560   13.2070   33.1000 C   0  0  0  0  0  0
   36.3280   12.4750   32.0270 C   0  0  0  0  0  0
   37.0590   12.8780   30.8140 C   0  0  0  0  0  0
   37.8460   13.9700   30.7940 C   0  0  0  0  0  0
   38.6660   17.0210   34.5350 O   0  0  0  0  0  0
   39.7090   15.9230   29.6380 N   0  0  0  0  0  0
   40.2390   16.1410   28.3650 O   0  0  0  0  0  0
   41.5892   20.2757   32.9487 H   0  0  0  0  0  0
   42.9538   21.1838   31.0529 H   0  0  0  0  0  0
   43.0016   20.1060   28.8511 H   0  0  0  0  0  0
   41.6756   18.0262   28.3990 H   0  0  0  0  0  0
   36.9747   15.1007   35.3218 H   0  0  0  0  0  0
   35.9035   12.9028   33.9890 H   0  0  0  0  0  0
   35.6956   11.5872   32.0288 H   0  0  0  0  0  0
   36.9605   12.2772   29.9098 H   0  0  0  0  0  0
   38.3808   14.2959   29.9019 H   0  0  0  0  0  0
  1  2  2  0  0  0
  1  3  1  0  0  0
  1  8  1  0  0  0
  2  9  1  0  0  0
  2 20  1  0  0  0
  3  4  2  0  0  0
  3  5  1  0  0  0
  4  9  1  0  0  0
  5  6  2  0  0  0
  5 22  1  0  0  0
  6  7  1  0  0  0
  6 23  1  0  0  0
  7  8  2  0  0  0
  7 24  1  0  0  0
  8 25  1  0  0  0
  9 10  2  0  0  0
 10 11  1  0  0  0
 10 14  1  0  0  0
 11 12  1  0  0  0
 11 19  2  0  0  0
 12 13  1  0  0  0
 12 26  1  0  0  0
 13 14  2  0  0  0
 13 15  1  0  0  0
 14 18  1  0  0  0
 15 16  2  0  0  0
 15 27  1  0  0  0
 16 17  1  0  0  0
 16 28  1  0  0  0
 17 18  2  0  0  0
 17 29  1  0  0  0
 18 30  1  0  0  0
 20 21  2  0  0  0
M  END
> <s_m_source_file>
../1unh_ligand.sdf

> <i_m_source_file_index>
1

> <s_epik_input>
W2NIXTFbY0hdW2NIXVtjSF1jKGMxPTIpPU5DKFxDMk49Tyk9QygvQyg9TylbTkhdMyljKGMzNClbY0hdW2NIXVtjSF1bY0hdNA==

> <s_epik_cmdline>
J2VwaWtfYXBwJywgJy1pbWFlJywgJ2xpZ2FuZF9wcm8ubWFlJywgJy1vbWFlJywgJ2xpZ2FuZF9wcmVwLm1hZScsICctbXMnLCAnMScsICctcGgnLCAnNycsICctcGh0JywgJzAuNScsICctbnQn

> <r_lp_tautomer_probability>
1

> <r_epik_Ionization_Penalty>
  0.0006

> <r_epik_Ionization_Penalty_Charging>
  0.0000

> <r_epik_Ionization_Penalty_Neutral>
  0.0006

> <r_epik_State_Penalty>
 -0.0000

> <r_epik_Charging_Adjusted_Penalty>
0

> <i_epik_Tot_Q>
0

> <i_epik_Tot_abs_Q>
0

> <s_epik_Chemistry_Notes>
This compound has an imine and may undergo hydrolysis.

$$$$
