1unl_ligand
                    3D
 Schrodinger Suite 2020-3.
 52 54  0  0  1  0            999 V2000
   57.5260   30.7120   29.6960 O   0  0  0  0  0  0
   58.5430   30.4700   30.6370 C   0  0  0  0  0  0
   59.7790   30.0060   29.8600 C   0  0  1  0  0  0
   60.9360   29.9110   30.8560 C   0  0  0  0  0  0
   61.5400   28.5300   31.0020 C   0  0  0  0  0  0
   59.3650   28.7200   29.3170 N   0  0  0  0  0  0
   59.1540   28.4240   28.0090 C   0  0  0  0  0  0
   58.7540   27.1700   27.6870 N   0  0  0  0  0  0
   58.5380   26.8490   26.4000 C   0  0  0  0  0  0
   58.1300   25.6970   25.9200 N   0  0  0  0  0  0
   57.8910   24.6280   26.9030 C   0  0  0  0  0  0
   56.3900   24.3410   26.8940 C   0  0  0  0  0  0
   58.8760   23.5100   26.6870 C   0  0  0  0  0  0
   58.0350   25.8320   24.5670 C   0  0  0  0  0  0
   58.7260   27.7150   25.3830 C   0  0  0  0  0  0
   58.4500   27.0880   24.1650 N   0  0  0  0  0  0
   59.3420   29.3060   27.0100 N   0  0  0  0  0  0
   59.1360   28.9930   25.7240 C   0  0  0  0  0  0
   59.2820   29.8860   24.7360 N   0  0  0  0  0  0
   59.3710   31.3210   24.9960 C   0  0  0  0  0  0
   60.7840   31.8420   25.1170 C   0  0  0  0  0  0
   61.1160   32.7270   26.1490 C   0  0  0  0  0  0
   62.4230   33.2180   26.2560 C   0  0  0  0  0  0
   63.3890   32.8540   25.3140 C   0  0  0  0  0  0
   63.0520   31.9900   24.2700 C   0  0  0  0  0  0
   61.7520   31.4840   24.1730 C   0  0  0  0  0  0
   56.5372   31.0579   30.0315 H   0  0  0  0  0  0
   58.7589   31.3961   31.1898 H   0  0  0  0  0  0
   58.2137   29.6913   31.3407 H   0  0  0  0  0  0
   60.1155   30.6319   29.0204 H   0  0  0  0  0  0
   61.7495   30.5796   30.5379 H   0  0  0  0  0  0
   60.5854   30.2097   31.8549 H   0  0  0  0  0  0
   62.3591   28.5637   31.7355 H   0  0  0  0  0  0
   61.9319   28.1966   30.0298 H   0  0  0  0  0  0
   60.7677   27.8266   31.3468 H   0  0  0  0  0  0
   59.1919   27.8683   29.9913 H   0  0  0  0  0  0
   58.1283   24.9158   27.9378 H   0  0  0  0  0  0
   55.8369   25.2759   27.0675 H   0  0  0  0  0  0
   56.1498   23.6199   27.6892 H   0  0  0  0  0  0
   56.1029   23.9206   25.9189 H   0  0  0  0  0  0
   59.8998   23.9103   26.7279 H   0  0  0  0  0  0
   58.7005   23.0518   25.7025 H   0  0  0  0  0  0
   58.7474   22.7511   27.4728 H   0  0  0  0  0  0
   57.6793   25.0536   23.8920 H   0  0  0  0  0  0
   59.3347   29.5098   23.7037 H   0  0  0  0  0  0
   58.8929   31.8730   24.1734 H   0  0  0  0  0  0
   58.8588   31.5549   25.9410 H   0  0  0  0  0  0
   60.3576   33.0340   26.8692 H   0  0  0  0  0  0
   62.6876   33.8857   27.0759 H   0  0  0  0  0  0
   64.4038   33.2438   25.3940 H   0  0  0  0  0  0
   63.8023   31.7100   23.5306 H   0  0  0  0  0  0
   61.4920   30.8079   23.3585 H   0  0  0  0  0  0
  1  2  1  0  0  0
  1 27  1  0  0  0
  2  3  1  0  0  0
  2 28  1  0  0  0
  2 29  1  0  0  0
  3  4  1  0  0  0
  3  6  1  0  0  0
  3 30  1  0  0  0
  4  5  1  0  0  0
  4 31  1  0  0  0
  4 32  1  0  0  0
  5 33  1  0  0  0
  5 34  1  0  0  0
  5 35  1  0  0  0
  6  7  1  0  0  0
  6 36  1  0  0  0
  7  8  2  0  0  0
  7 17  1  0  0  0
  8  9  1  0  0  0
  9 10  1  0  0  0
  9 15  2  0  0  0
 10 11  1  0  0  0
 10 14  1  0  0  0
 11 12  1  0  0  0
 11 13  1  0  0  0
 11 37  1  0  0  0
 12 38  1  0  0  0
 12 39  1  0  0  0
 12 40  1  0  0  0
 13 41  1  0  0  0
 13 42  1  0  0  0
 13 43  1  0  0  0
 14 16  2  0  0  0
 14 44  1  0  0  0
 15 16  1  0  0  0
 15 18  1  0  0  0
 17 18  2  0  0  0
 18 19  1  0  0  0
 19 20  1  0  0  0
 19 45  1  0  0  0
 20 21  1  0  0  0
 20 46  1  0  0  0
 20 47  1  0  0  0
 21 22  2  0  0  0
 21 26  1  0  0  0
 22 23  1  0  0  0
 22 48  1  0  0  0
 23 24  2  0  0  0
 23 49  1  0  0  0
 24 25  1  0  0  0
 24 50  1  0  0  0
 25 26  2  0  0  0
 25 51  1  0  0  0
 26 52  1  0  0  0
M  END
> <s_m_source_file>
../1unl_ligand.sdf

> <i_m_source_file_index>
1

> <s_epik_input>
W09IXVtDSDJdW0NAQEhdKFtDSDJdW0NIM10pW05IXWMobjEpbmMoYyhjMTIpbltjSF1uMltDSF0oW0NIM10pW0NIM10pW05IXVtDSDJdYzNbY0hdW2NIXVtjSF1bY0hdW2NIXTM=

> <s_epik_cmdline>
J2VwaWtfYXBwJywgJy1pbWFlJywgJ2xpZ2FuZF9wcm8ubWFlJywgJy1vbWFlJywgJ2xpZ2FuZF9wcmVwLm1hZScsICctbXMnLCAnMScsICctcGgnLCAnNycsICctcGh0JywgJzAuNScsICctbnQn

> <r_epik_Ionization_Penalty>
  0.0222

> <r_epik_Ionization_Penalty_Charging>
  0.0000

> <r_epik_Ionization_Penalty_Neutral>
  0.0222

> <r_epik_State_Penalty>
  0.0128

> <r_epik_Charging_Adjusted_Penalty>
0.0128024195703568

> <i_epik_Tot_Q>
0

> <i_epik_Tot_abs_Q>
0

$$$$
