1uom_ligand
                    3D
 Schrodinger Suite 2020-3.
 65 69  0  0  1  0            999 V2000
   -3.1030   53.4940   19.4140 C   0  0  0  0  0  0
   -1.9600   53.8010   18.4030 C   0  0  0  0  0  0
   -2.5510   54.4550   17.1200 C   0  0  0  0  0  0
   -3.9320   54.7120   19.7410 N   0  3  0  0  0  0
   -3.3140   55.7660   17.5060 C   0  0  0  0  0  0
   -4.4500   55.4410   18.5200 C   0  0  0  0  0  0
   -5.0190   54.3990   20.7130 C   0  0  0  0  0  0
   -4.6090   54.3590   22.2140 C   0  0  0  0  0  0
   -3.7250   53.2370   22.4260 O   0  0  0  0  0  0
   -3.1760   52.8610   23.6760 C   0  0  0  0  0  0
   -3.4350   53.5470   24.9120 C   0  0  0  0  0  0
   -2.8460   53.0890   26.1300 C   0  0  0  0  0  0
   -1.9890   51.9450   26.1420 C   0  0  0  0  0  0
   -1.7340   51.2670   24.9020 C   0  0  0  0  0  0
   -2.3210   51.7240   23.6980 C   0  0  0  0  0  0
   -1.3290   51.4190   27.4700 C   0  0  1  0  0  0
   -1.8570   50.0460   27.8620 N   0  0  0  0  0  0
   -0.9350   49.0100   28.4040 C   0  0  0  0  0  0
    0.4420   48.9400   27.6670 C   0  0  0  0  0  0
    1.0320   50.3300   27.3360 C   0  0  0  0  0  0
    0.2030   51.4910   27.2360 C   0  0  0  0  0  0
    0.8050   52.7540   26.9090 C   0  0  0  0  0  0
    2.2040   52.8580   26.6870 C   0  0  0  0  0  0
    3.0240   51.7120   26.7890 C   0  0  0  0  0  0
    2.4340   50.4520   27.1110 C   0  0  0  0  0  0
    4.4020   51.7840   26.5760 O   0  0  0  0  0  0
   -3.2130   49.7890   27.9000 C   0  0  0  0  0  0
   -3.9470   50.1380   29.0730 C   0  0  0  0  0  0
   -5.3410   49.8980   29.1540 C   0  0  0  0  0  0
   -6.0260   49.3020   28.0590 C   0  0  0  0  0  0
   -5.3110   48.9420   26.8840 C   0  0  0  0  0  0
   -3.9130   49.1800   26.8020 C   0  0  0  0  0  0
   -3.7741   52.7332   18.9887 H   0  0  0  0  0  0
   -2.6708   53.1179   20.3530 H   0  0  0  0  0  0
   -1.2387   54.4920   18.8638 H   0  0  0  0  0  0
   -1.4494   52.8653   18.1316 H   0  0  0  0  0  0
   -1.7353   54.6974   16.4230 H   0  0  0  0  0  0
   -3.2482   53.7534   16.6386 H   0  0  0  0  0  0
   -3.2523   55.4145   20.2455 H   0  0  0  0  0  0
   -2.6116   56.4775   17.9648 H   0  0  0  0  0  0
   -3.7525   56.2147   16.6024 H   0  0  0  0  0  0
   -5.1967   54.8156   18.0089 H   0  0  0  0  0  0
   -4.9151   56.3888   18.8287 H   0  0  0  0  0  0
   -5.8105   55.1589   20.6351 H   0  0  0  0  0  0
   -5.4389   53.4077   20.4869 H   0  0  0  0  0  0
   -4.0938   55.2942   22.4784 H   0  0  0  0  0  0
   -5.5087   54.2472   22.8370 H   0  0  0  0  0  0
   -4.0848   54.4221   24.9200 H   0  0  0  0  0  0
   -3.0523   53.6177   27.0606 H   0  0  0  0  0  0
   -1.0828   50.3930   24.8880 H   0  0  0  0  0  0
   -2.1138   51.1939   22.7684 H   0  0  0  0  0  0
   -1.5909   52.0090   28.3607 H   0  0  0  0  0  0
   -0.7271   49.2222   29.4631 H   0  0  0  0  0  0
   -1.4034   48.0188   28.3137 H   0  0  0  0  0  0
    1.1709   48.4141   28.3011 H   0  0  0  0  0  0
    0.3227   48.3971   26.7178 H   0  0  0  0  0  0
    0.1801   53.6436   26.8303 H   0  0  0  0  0  0
    2.6455   53.8229   26.4377 H   0  0  0  0  0  0
    3.0672   49.5679   27.1860 H   0  0  0  0  0  0
    4.8705   52.7477   26.3272 H   0  0  0  0  0  0
   -3.4291   50.5945   29.9165 H   0  0  0  0  0  0
   -5.8890   50.1703   30.0561 H   0  0  0  0  0  0
   -7.0991   49.1213   28.1208 H   0  0  0  0  0  0
   -5.8357   48.4833   26.0459 H   0  0  0  0  0  0
   -3.3677   48.8991   25.9010 H   0  0  0  0  0  0
  1  2  1  0  0  0
  1  4  1  0  0  0
  1 33  1  0  0  0
  1 34  1  0  0  0
  2  3  1  0  0  0
  2 35  1  0  0  0
  2 36  1  0  0  0
  3  5  1  0  0  0
  3 37  1  0  0  0
  3 38  1  0  0  0
  4  6  1  0  0  0
  4  7  1  0  0  0
  4 39  1  0  0  0
  5  6  1  0  0  0
  5 40  1  0  0  0
  5 41  1  0  0  0
  6 42  1  0  0  0
  6 43  1  0  0  0
  7  8  1  0  0  0
  7 44  1  0  0  0
  7 45  1  0  0  0
  8  9  1  0  0  0
  8 46  1  0  0  0
  8 47  1  0  0  0
  9 10  1  0  0  0
 10 11  2  0  0  0
 10 15  1  0  0  0
 11 12  1  0  0  0
 11 48  1  0  0  0
 12 13  2  0  0  0
 12 49  1  0  0  0
 13 14  1  0  0  0
 13 16  1  0  0  0
 14 15  2  0  0  0
 14 50  1  0  0  0
 15 51  1  0  0  0
 16 17  1  0  0  0
 16 21  1  0  0  0
 16 52  1  0  0  0
 17 18  1  0  0  0
 17 27  1  0  0  0
 18 19  1  0  0  0
 18 53  1  0  0  0
 18 54  1  0  0  0
 19 20  1  0  0  0
 19 55  1  0  0  0
 19 56  1  0  0  0
 20 21  2  0  0  0
 20 25  1  0  0  0
 21 22  1  0  0  0
 22 23  2  0  0  0
 22 57  1  0  0  0
 23 24  1  0  0  0
 23 58  1  0  0  0
 24 25  2  0  0  0
 24 26  1  0  0  0
 25 59  1  0  0  0
 26 60  1  0  0  0
 27 28  2  0  0  0
 27 32  1  0  0  0
 28 29  1  0  0  0
 28 61  1  0  0  0
 29 30  2  0  0  0
 29 62  1  0  0  0
 30 31  1  0  0  0
 30 63  1  0  0  0
 31 32  2  0  0  0
 31 64  1  0  0  0
 32 65  1  0  0  0
M  CHG  1   4   1
M  END
> <s_m_source_file>
../1uom_ligand.sdf

> <i_m_source_file_index>
1

> <s_epik_input>
W0NIMl0xW0NIMl1bQ0gyXVtDSDJdW0NIMl1bTkgrXTFbQ0gyXVtDSDJdT2MyW2NIXVtjSF1jKFtjSF1bY0hdMilbQ0BIXShjKGMzNClbY0hdW2NIXWMoW2NIXTQpW09IXSlOKFtDSDJdW0NIMl0zKWM1W2NIXVtjSF1bY0hdW2NIXVtjSF01

> <s_epik_cmdline>
J2VwaWtfYXBwJywgJy1pbWFlJywgJ2xpZ2FuZF9wcm8ubWFlJywgJy1vbWFlJywgJ2xpZ2FuZF9wcmVwLm1hZScsICctbXMnLCAnMScsICctcGgnLCAnNycsICctcGh0JywgJzAuNScsICctbnQn

> <r_lp_tautomer_probability>
0.999999999997365

> <r_epik_Ionization_Penalty>
  0.0125

> <r_epik_Ionization_Penalty_Charging>
  0.0122

> <r_epik_Ionization_Penalty_Neutral>
  0.0003

> <r_epik_State_Penalty>
  0.0095

> <r_epik_Charging_Adjusted_Penalty>
0.0216736986220823

> <i_epik_Tot_Q>
1

> <i_epik_Tot_abs_Q>
1

$$$$
