1uou_ligand
                    3D
 Schrodinger Suite 2020-3.
 27 28  0  0  1  0            999 V2000
   -4.8020    4.5290   30.6010 Cl  0  0  0  0  0  0
   -3.5890    3.2930   30.6160 C   0  0  0  0  0  0
   -3.1120    2.7640   29.4620 C   0  0  0  0  0  0
   -3.6290    3.1660   28.0780 C   0  0  0  0  0  0
   -4.2650    1.9450   27.4960 N   0  0  0  0  0  0
   -5.2940    1.1310   28.1790 C   0  0  0  0  0  0
   -5.8240    0.1420   27.1130 C   0  0  0  0  0  0
   -4.7920    0.1450   25.9440 C   0  0  0  0  0  0
   -3.9760    1.3960   26.2670 C   0  0  0  0  0  0
   -3.1160    1.9270   25.4500 N   0  0  0  0  0  0
   -2.1490    1.7930   29.5710 N   0  0  0  0  0  0
   -1.6730    1.3490   30.7550 C   0  0  0  0  0  0
   -0.8200    0.4700   30.7610 O   0  0  0  0  0  0
   -2.1450    1.8640   31.9070 N   0  0  0  0  0  0
   -3.0730    2.8300   31.8600 C   0  0  0  0  0  0
   -3.4740    3.3130   32.8930 O   0  0  0  0  0  0
   -4.3609    3.9805   28.1824 H   0  0  0  0  0  0
   -2.7875    3.5067   27.4569 H   0  0  0  0  0  0
   -4.8373    0.5982   29.0261 H   0  0  0  0  0  0
   -6.0956    1.7877   28.5481 H   0  0  0  0  0  0
   -5.9109   -0.8616   27.5549 H   0  0  0  0  0  0
   -6.8121    0.4752   26.7628 H   0  0  0  0  0  0
   -4.5446   -0.4597   25.0590 H   0  0  0  0  0  0
   -2.5611    2.8295   25.7458 H   0  0  0  0  0  0
   -2.9430    1.4739   24.4627 H   0  0  0  0  0  0
   -1.7248    1.3349   28.6653 H   0  0  0  0  0  0
   -1.7686    1.4913   32.8711 H   0  0  0  0  0  0
  1  2  1  0  0  0
  2  3  2  0  0  0
  2 15  1  0  0  0
  3  4  1  0  0  0
  3 11  1  0  0  0
  4  5  1  0  0  0
  4 17  1  0  0  0
  4 18  1  0  0  0
  5  6  1  0  0  0
  5  9  1  0  0  0
  6  7  1  0  0  0
  6 19  1  0  0  0
  6 20  1  0  0  0
  7  8  1  0  0  0
  7 21  1  0  0  0
  7 22  1  0  0  0
  8  9  2  0  0  0
  8 23  1  0  0  0
  9 10  1  0  0  0
 10 24  1  0  0  0
 10 25  1  0  0  0
 11 12  1  0  0  0
 11 26  1  0  0  0
 12 13  2  0  0  0
 12 14  1  0  0  0
 14 15  1  0  0  0
 14 27  1  0  0  0
 15 16  2  0  0  0
M  END
> <s_m_source_file>
../1uou_ligand.sdf

> <i_m_source_file_index>
1

> <s_epik_input>
Tz1jMVtuSF1jKD1PKVtuSF1jKGMxQ2wpW0NIMl1OMltDSDJdW0NIMl1bQ0hdPUMyW05IMl0=

> <s_epik_cmdline>
J2VwaWtfYXBwJywgJy1pbWFlJywgJ2xpZ2FuZF9wcm8ubWFlJywgJy1vbWFlJywgJ2xpZ2FuZF9wcmVwLm1hZScsICctbXMnLCAnMScsICctcGgnLCAnNycsICctcGh0JywgJzAuNScsICctbnQn

> <r_lp_tautomer_probability>
1

> <r_epik_Ionization_Penalty>
  0.1886

> <r_epik_Ionization_Penalty_Charging>
  0.0459

> <r_epik_Ionization_Penalty_Neutral>
  0.1427

> <r_epik_State_Penalty>
 -0.0000

> <r_epik_Charging_Adjusted_Penalty>
0.0458946001519956

> <i_epik_Tot_Q>
0

> <i_epik_Tot_abs_Q>
0

$$$$
