1upk_ligand
                    3D
 Schrodinger Suite 2020-3.
 74 76  0  0  1  0            999 V2000
   59.0090  -46.3590    8.2930 N   0  3  0  0  0  0
   59.0280  -44.8780    8.0680 C   0  0  2  0  0  0
   59.6170  -44.5730    6.6950 C   0  0  0  0  0  0
   60.4230  -45.3490    6.1510 O   0  0  0  0  0  0
   59.8730  -44.1940    9.1430 C   0  0  0  0  0  0
   59.7180  -42.6870    9.1450 C   0  0  0  0  0  0
   60.0290  -42.0500    8.1180 O   0  0  0  0  0  0
   59.2830  -42.1380   10.1780 O   0  5  0  0  0  0
   59.2210  -43.4420    6.1250 N   0  0  0  0  0  0
   59.7440  -43.0620    4.8210 C   0  0  2  0  0  0
   61.1570  -42.5390    5.0310 C   0  0  0  0  0  0
   61.5210  -42.1460    6.1360 O   0  0  0  0  0  0
   58.9000  -41.9460    4.1810 C   0  0  0  0  0  0
   57.4370  -42.2320    4.0810 C   0  0  0  0  0  0
   56.4150  -41.5340    4.6870 C   0  0  0  0  0  0
   56.8110  -43.2880    3.3370 C   0  0  0  0  0  0
   55.2060  -42.0950    4.3640 N   0  3  0  0  0  0
   55.4150  -43.1720    3.5430 C   0  0  0  0  0  0
   57.2910  -44.3210    2.5210 C   0  0  0  0  0  0
   54.4950  -44.0560    2.9640 C   0  0  0  0  0  0
   56.3720  -45.2020    1.9440 C   0  0  0  0  0  0
   54.9920  -45.0600    2.1710 C   0  0  0  0  0  0
   61.9520  -42.5380    3.9700 N   0  0  0  0  0  0
   63.3080  -42.0120    4.0280 C   0  0  2  0  0  0
   63.4140  -40.9520    2.9380 C   0  0  0  0  0  0
   63.1610  -41.2320    1.7670 O   0  0  0  0  0  0
   64.3130  -43.1520    3.8290 C   0  0  0  0  0  0
   64.2390  -44.1360    4.9910 C   0  0  0  0  0  0
   65.3450  -45.1770    4.9940 C   0  0  0  0  0  0
   66.3150  -45.0380    4.2010 O   0  5  0  0  0  0
   65.2300  -46.1260    5.8030 O   0  0  0  0  0  0
   63.7730  -39.7280    3.3210 N   0  0  0  0  0  0
   63.8560  -38.6190    2.3570 C   0  0  2  0  0  0
   65.2690  -38.1230    2.0670 C   0  0  0  0  0  0
   65.5180  -37.5980    0.9450 O   0  5  0  0  0  0
   62.9880  -37.4370    2.8390 C   0  0  0  0  0  0
   61.5580  -37.8150    3.1440 C   0  0  0  0  0  0
   61.1110  -37.8830    4.4510 C   0  0  0  0  0  0
   60.6650  -38.1250    2.1160 C   0  0  0  0  0  0
   59.7900  -38.2590    4.7380 C   0  0  0  0  0  0
   59.3350  -38.5030    2.3940 C   0  0  0  0  0  0
   58.9040  -38.5690    3.7080 C   0  0  0  0  0  0
   66.1110  -38.2440    2.9790 O   0  0  0  0  0  0
   58.3988  -46.8403    7.5146 H   0  0  0  0  0  0
   58.5781  -46.5741    9.2820 H   0  0  0  0  0  0
   60.0362  -46.7499    8.2477 H   0  0  0  0  0  0
   57.9902  -44.5172    8.1215 H   0  0  0  0  0  0
   59.5729  -44.5628   10.1350 H   0  0  0  0  0  0
   60.9359  -44.4211    8.9735 H   0  0  0  0  0  0
   58.4974  -42.7916    6.6382 H   0  0  0  0  0  0
   59.7110  -43.9652    4.1940 H   0  0  0  0  0  0
   58.9989  -41.0252    4.7746 H   0  0  0  0  0  0
   59.2534  -41.7611    3.1559 H   0  0  0  0  0  0
   56.6431  -40.6643    5.3207 H   0  0  0  0  0  0
   58.3597  -44.4353    2.3398 H   0  0  0  0  0  0
   53.4240  -43.9503    3.1370 H   0  0  0  0  0  0
   56.7308  -46.0115    1.3083 H   0  0  0  0  0  0
   54.3008  -45.7633    1.7066 H   0  0  0  0  0  0
   61.5615  -42.9494    3.0275 H   0  0  0  0  0  0
   63.4880  -41.5668    5.0176 H   0  0  0  0  0  0
   64.0833  -43.6843    2.8942 H   0  0  0  0  0  0
   65.3308  -42.7383    3.7747 H   0  0  0  0  0  0
   64.3091  -43.5868    5.9415 H   0  0  0  0  0  0
   63.2834  -44.6794    4.9511 H   0  0  0  0  0  0
   64.0098  -39.5542    4.3810 H   0  0  0  0  0  0
   63.4847  -39.0763    1.4280 H   0  0  0  0  0  0
   63.4184  -37.0179    3.7605 H   0  0  0  0  0  0
   62.9613  -36.6603    2.0605 H   0  0  0  0  0  0
   61.7923  -37.6419    5.2670 H   0  0  0  0  0  0
   61.0018  -38.0739    1.0806 H   0  0  0  0  0  0
   59.4545  -38.3090    5.7739 H   0  0  0  0  0  0
   58.6509  -38.7416    1.5796 H   0  0  0  0  0  0
   57.8788  -38.8614    3.9353 H   0  0  0  0  0  0
   54.2755  -41.6627    4.7607 H   0  0  0  0  0  0
  1  2  1  0  0  0
  1 44  1  0  0  0
  1 45  1  0  0  0
  1 46  1  0  0  0
  2  3  1  0  0  0
  2  5  1  0  0  0
  2 47  1  0  0  0
  3  4  2  0  0  0
  3  9  1  0  0  0
  5  6  1  0  0  0
  5 48  1  0  0  0
  5 49  1  0  0  0
  6  7  2  0  0  0
  6  8  1  0  0  0
  9 10  1  0  0  0
  9 50  1  0  0  0
 10 11  1  0  0  0
 10 13  1  0  0  0
 10 51  1  0  0  0
 11 12  2  0  0  0
 11 23  1  0  0  0
 13 14  1  0  0  0
 13 52  1  0  0  0
 13 53  1  0  0  0
 14 15  2  0  0  0
 14 16  1  0  0  0
 15 17  1  0  0  0
 15 54  1  0  0  0
 16 18  2  0  0  0
 16 19  1  0  0  0
 17 18  1  0  0  0
 17 74  1  0  0  0
 18 20  1  0  0  0
 19 21  2  0  0  0
 19 55  1  0  0  0
 20 22  2  0  0  0
 20 56  1  0  0  0
 21 22  1  0  0  0
 21 57  1  0  0  0
 22 58  1  0  0  0
 23 24  1  0  0  0
 23 59  1  0  0  0
 24 25  1  0  0  0
 24 27  1  0  0  0
 24 60  1  0  0  0
 25 26  2  0  0  0
 25 32  1  0  0  0
 27 28  1  0  0  0
 27 61  1  0  0  0
 27 62  1  0  0  0
 28 29  1  0  0  0
 28 63  1  0  0  0
 28 64  1  0  0  0
 29 30  1  0  0  0
 29 31  2  0  0  0
 32 33  1  0  0  0
 32 65  1  0  0  0
 33 34  1  0  0  0
 33 36  1  0  0  0
 33 66  1  0  0  0
 34 35  1  0  0  0
 34 43  2  0  0  0
 36 37  1  0  0  0
 36 67  1  0  0  0
 36 68  1  0  0  0
 37 38  2  0  0  0
 37 39  1  0  0  0
 38 40  1  0  0  0
 38 69  1  0  0  0
 39 41  2  0  0  0
 39 70  1  0  0  0
 40 42  2  0  0  0
 40 71  1  0  0  0
 41 42  1  0  0  0
 41 72  1  0  0  0
 42 73  1  0  0  0
M  CHG  5   1   1   8  -1  17   1  30  -1  35  -1
M  END
> <s_m_source_file>
../1upk_ligand.sdf

> <i_m_source_file_index>
1

> <s_epik_input>
W2NIXTFbY0hdW2NIXVtjSF1jKGMxMilbbkhdW2NIXWMyW0NIMl1bQ0BIXShbTkhdQyg9TylbQ0BASF0oW05IMytdKVtDSDJdQyg9TylbT0hdKUMoPU8pW05IXVtDQEBIXShbQ0gyXVtDSDJdQyg9TylbT0hdKUMoPU8pW05IXVtDQEhdKEMoPU8pW09IXSlbQ0gyXWMzW2NIXVtjSF1bY0hdW2NIXVtjSF0z

> <s_epik_cmdline>
J2VwaWtfYXBwJywgJy1pbWFlJywgJ2xpZ2FuZF9wcm8ubWFlJywgJy1vbWFlJywgJ2xpZ2FuZF9wcmVwLm1hZScsICctbXMnLCAnMScsICctcGgnLCAnNycsICctcGh0JywgJzAuNScsICctbnQn

> <r_epik_Ionization_Penalty>
  0.0230

> <r_epik_Ionization_Penalty_Charging>
  0.0230

> <r_epik_Ionization_Penalty_Neutral>
  0.0000

> <r_epik_State_Penalty>
  0.0167

> <r_epik_Charging_Adjusted_Penalty>
0.0397236643186923

> <i_epik_Tot_Q>
-1

> <i_epik_Tot_abs_Q>
5

$$$$
