1urc_ligand
                    3D
 Schrodinger Suite 2020-3.
 96 97  0  0  1  0            999 V2000
   35.3960   18.7820   -2.0240 C   0  0  0  0  0  0
   34.2160   18.5140   -2.2200 O   0  0  0  0  0  0
   36.4040   17.6870   -1.7060 C   0  0  0  0  0  0
   35.8140   20.0360   -1.9690 N   0  0  0  0  0  0
   37.2040   20.4270   -1.8800 C   0  0  2  0  0  0
   37.4680   21.4440   -0.7980 C   0  0  0  0  0  0
   36.9090   22.5280   -0.6940 O   0  0  0  0  0  0
   37.4910   21.0380   -3.2630 C   0  0  0  0  0  0
   38.9500   21.3700   -3.4170 C   0  0  0  0  0  0
   39.3240   21.4400   -4.9050 C   0  0  0  0  0  0
   40.5590   22.2240   -4.8790 N   0  0  0  0  0  0
   40.7030   23.2440   -5.7010 C   0  0  0  0  0  0
   41.8030   23.9950   -5.6050 N   0  0  0  0  0  0
   39.7450   23.4320   -6.6120 N   0  3  0  0  0  0
   38.3650   21.0430    0.0520 N   0  0  0  0  0  0
   38.7490   21.9250    1.1170 C   0  0  2  0  0  0
   40.0810   22.5030    0.6640 C   0  0  0  0  0  0
   40.9740   21.7450    0.3110 O   0  0  0  0  0  0
   39.0910   21.0460    2.2950 C   0  0  0  0  0  0
   40.0280   21.8980    3.1590 C   0  0  0  0  0  0
   39.8950   21.5260    4.6350 C   0  0  0  0  0  0
   41.2390   20.9560    5.1420 C   0  0  0  0  0  0
   42.2900   21.9800    5.0020 N   0  0  0  0  0  0
   40.1840   23.8200    0.6760 N   0  0  0  0  0  0
   41.4040   24.5390    0.2970 C   0  0  2  0  0  0
   42.1710   24.9470    1.5760 C   0  0  0  0  0  0
   41.5770   25.1670    2.6300 O   0  0  0  0  0  0
   40.8960   25.8450   -0.3390 C   0  0  0  0  0  0
   39.9450   25.6300   -1.5470 C   0  0  0  0  0  0
   40.5990   25.1090   -2.8200 C   0  0  0  0  0  0
   39.4580   27.0200   -1.9170 C   0  0  0  0  0  0
   43.4890   25.0680    1.4840 N   0  0  0  0  0  0
   44.3190   25.5470    2.6140 C   0  0  2  0  0  0
   44.5660   24.6400    3.8240 C   0  0  0  0  0  0
   45.6970   24.2050    4.0330 O   0  0  0  0  0  0
   44.0670   27.0060    3.0120 C   0  0  0  0  0  0
   43.7400   27.8260    1.7660 C   0  0  0  0  0  0
   42.4470   28.3040    1.5410 C   0  0  0  0  0  0
   44.3890   28.6930   -0.3830 C   0  0  0  0  0  0
   42.1290   28.9890    0.3620 C   0  0  0  0  0  0
   44.7230   28.0190    0.7970 C   0  0  0  0  0  0
   43.1150   29.2220   -0.5940 C   0  0  0  0  0  0
   43.5770   24.3810    4.6660 N   0  0  0  0  0  0
   43.9330   23.5470    5.8210 C   0  0  0  0  0  0
   42.8750   22.4960    6.0800 C   0  0  0  0  0  0
   42.6180   22.1620    7.2370 O   0  0  0  0  0  0
   35.9171   16.7043   -1.7916 H   0  0  0  0  0  0
   36.7806   17.8217   -0.6813 H   0  0  0  0  0  0
   37.2428   17.7436   -2.4153 H   0  0  0  0  0  0
   35.0271   20.8042   -1.9948 H   0  0  0  0  0  0
   37.8015   19.5461   -1.6023 H   0  0  0  0  0  0
   37.2094   20.3195   -4.0469 H   0  0  0  0  0  0
   36.9057   21.9614   -3.3846 H   0  0  0  0  0  0
   39.1560   22.3434   -2.9479 H   0  0  0  0  0  0
   39.5564   20.5924   -2.9296 H   0  0  0  0  0  0
   39.4708   20.4218   -5.2945 H   0  0  0  0  0  0
   38.5149   21.9331   -5.4637 H   0  0  0  0  0  0
   41.3626   21.9612   -4.1753 H   0  0  0  0  0  0
   42.5500   23.7794   -4.8268 H   0  0  0  0  0  0
   41.9621   24.8292   -6.3041 H   0  0  0  0  0  0
   38.8656   22.7715   -6.6297 H   0  0  0  0  0  0
   38.8282   20.0489   -0.0328 H   0  0  0  0  0  0
   37.9532   22.6548    1.3268 H   0  0  0  0  0  0
   38.1695   20.7794    2.8333 H   0  0  0  0  0  0
   39.5851   20.1303    1.9380 H   0  0  0  0  0  0
   41.0689   21.7320    2.8444 H   0  0  0  0  0  0
   39.7733   22.9612    3.0374 H   0  0  0  0  0  0
   39.6324   22.4219    5.2167 H   0  0  0  0  0  0
   39.1062   20.7684    4.7526 H   0  0  0  0  0  0
   41.1412   20.6728    6.2004 H   0  0  0  0  0  0
   41.5086   20.0698    4.5487 H   0  0  0  0  0  0
   42.5950   22.3220    4.0020 H   0  0  0  0  0  0
   39.2912   24.3798    0.9914 H   0  0  0  0  0  0
   42.0186   23.9026   -0.3566 H   0  0  0  0  0  0
   40.3411   26.4268    0.4117 H   0  0  0  0  0  0
   41.7519   26.4341   -0.7002 H   0  0  0  0  0  0
   39.1844   24.8925   -1.2511 H   0  0  0  0  0  0
   40.9861   24.0944   -2.6446 H   0  0  0  0  0  0
   41.4280   25.7736   -3.1048 H   0  0  0  0  0  0
   39.8552   25.0827   -3.6300 H   0  0  0  0  0  0
   38.9657   27.4796   -1.0473 H   0  0  0  0  0  0
   38.7414   26.9482   -2.7485 H   0  0  0  0  0  0
   40.3142   27.6390   -2.2232 H   0  0  0  0  0  0
   43.9632   24.7988    0.5287 H   0  0  0  0  0  0
   45.2709   25.4638    2.0691 H   0  0  0  0  0  0
   43.2215   27.0537    3.7140 H   0  0  0  0  0  0
   44.9671   27.4154    3.4938 H   0  0  0  0  0  0
   41.6752   28.1416    2.2933 H   0  0  0  0  0  0
   45.1454   28.8081   -1.1594 H   0  0  0  0  0  0
   41.1110   29.3396    0.1924 H   0  0  0  0  0  0
   45.7365   27.6506    0.9559 H   0  0  0  0  0  0
   42.8960   29.8054   -1.4883 H   0  0  0  0  0  0
   42.5457   24.7448    4.5473 H   0  0  0  0  0  0
   44.8909   23.0421    5.6273 H   0  0  0  0  0  0
   44.0267   24.1802    6.7156 H   0  0  0  0  0  0
   39.8352   24.2474   -7.3448 H   0  0  0  0  0  0
  1  2  2  0  0  0
  1  3  1  0  0  0
  1  4  1  0  0  0
  3 47  1  0  0  0
  3 48  1  0  0  0
  3 49  1  0  0  0
  4  5  1  0  0  0
  4 50  1  0  0  0
  5  6  1  0  0  0
  5  8  1  0  0  0
  5 51  1  0  0  0
  6  7  2  0  0  0
  6 15  1  0  0  0
  8  9  1  0  0  0
  8 52  1  0  0  0
  8 53  1  0  0  0
  9 10  1  0  0  0
  9 54  1  0  0  0
  9 55  1  0  0  0
 10 11  1  0  0  0
 10 56  1  0  0  0
 10 57  1  0  0  0
 11 12  1  0  0  0
 11 58  1  0  0  0
 12 13  1  0  0  0
 12 14  2  0  0  0
 13 59  1  0  0  0
 13 60  1  0  0  0
 14 61  1  0  0  0
 14 96  1  0  0  0
 15 16  1  0  0  0
 15 62  1  0  0  0
 16 17  1  0  0  0
 16 19  1  0  0  0
 16 63  1  0  0  0
 17 18  2  0  0  0
 17 24  1  0  0  0
 19 20  1  0  0  0
 19 64  1  0  0  0
 19 65  1  0  0  0
 20 21  1  0  0  0
 20 66  1  0  0  0
 20 67  1  0  0  0
 21 22  1  0  0  0
 21 68  1  0  0  0
 21 69  1  0  0  0
 22 23  1  0  0  0
 22 70  1  0  0  0
 22 71  1  0  0  0
 23 45  1  0  0  0
 23 72  1  0  0  0
 24 25  1  0  0  0
 24 73  1  0  0  0
 25 26  1  0  0  0
 25 28  1  0  0  0
 25 74  1  0  0  0
 26 27  2  0  0  0
 26 32  1  0  0  0
 28 29  1  0  0  0
 28 75  1  0  0  0
 28 76  1  0  0  0
 29 30  1  0  0  0
 29 31  1  0  0  0
 29 77  1  0  0  0
 30 78  1  0  0  0
 30 79  1  0  0  0
 30 80  1  0  0  0
 31 81  1  0  0  0
 31 82  1  0  0  0
 31 83  1  0  0  0
 32 33  1  0  0  0
 32 84  1  0  0  0
 33 34  1  0  0  0
 33 36  1  0  0  0
 33 85  1  0  0  0
 34 35  2  0  0  0
 34 43  1  0  0  0
 36 37  1  0  0  0
 36 86  1  0  0  0
 36 87  1  0  0  0
 37 38  2  0  0  0
 37 41  1  0  0  0
 38 40  1  0  0  0
 38 88  1  0  0  0
 39 41  2  0  0  0
 39 42  1  0  0  0
 39 89  1  0  0  0
 40 42  2  0  0  0
 40 90  1  0  0  0
 41 91  1  0  0  0
 42 92  1  0  0  0
 43 44  1  0  0  0
 43 93  1  0  0  0
 44 45  1  0  0  0
 44 94  1  0  0  0
 44 95  1  0  0  0
 45 46  2  0  0  0
M  CHG  1  14   1
M  END
> <s_m_source_file>
../1urc_ligand.sdf

> <i_m_source_file_index>
1

> <s_epik_input>
W0hdL049QyhbTkgyXSlcW05IXVtDSDJdW0NIMl1bQ0gyXVtDQEhdKFtOSF1DKD1PKVtDSDNdKUMoPU8pW05IXVtDQEBIXTFDKD1PKVtOSF1bQ0BASF0oW0NIMl1bQ0hdKFtDSDNdKVtDSDNdKUMoPU8pW05IXVtDQEBIXShbQ0gyXWMyW2NIXVtjSF1bY0hdW2NIXVtjSF0yKUMoPU8pW05IXVtDSDJdQyg9TylbTkhdW0NIMl1bQ0gyXVtDSDJdW0NIMl0x

> <s_epik_cmdline>
J2VwaWtfYXBwJywgJy1pbWFlJywgJ2xpZ2FuZF9wcm8ubWFlJywgJy1vbWFlJywgJ2xpZ2FuZF9wcmVwLm1hZScsICctbXMnLCAnMScsICctcGgnLCAnNycsICctcGh0JywgJzAuNScsICctbnQn

> <r_lp_tautomer_probability>
1

> <r_epik_Ionization_Penalty>
  0.0000

> <r_epik_Ionization_Penalty_Charging>
  0.0000

> <r_epik_Ionization_Penalty_Neutral>
  0.0000

> <r_epik_State_Penalty>
 -0.0000

> <r_epik_Charging_Adjusted_Penalty>
2.82880843743756e-06

> <i_epik_Tot_Q>
1

> <i_epik_Tot_abs_Q>
1

> <s_epik_Chemistry_Notes>
This compound has an imine and may undergo hydrolysis.

$$$$
