1urg_ligand
                    3D
 Schrodinger Suite 2020-3.
 45 46  0  0  1  0            999 V2000
  -34.5870   -0.0020   41.6420 C   0  0  1  0  0  0
  -35.1750   -0.9660   42.6760 C   0  0  1  0  0  0
  -35.9110   -2.0900   41.9280 C   0  0  2  0  0  0
  -36.9940   -1.4960   41.0210 C   0  0  1  0  0  0
  -36.3750   -0.4520   40.0820 C   0  0  1  0  0  0
  -37.4080    0.2940   39.2580 C   0  0  0  0  0  0
  -33.6660   -0.7020   40.8590 O   0  0  0  0  0  0
  -34.1280   -1.5140   43.4690 O   0  0  0  0  0  0
  -36.4900   -3.0050   42.8430 O   0  0  0  0  0  0
  -37.5900   -2.5310   40.2520 O   0  0  0  0  0  0
  -35.6420    0.5390   40.8440 O   0  0  0  0  0  0
  -36.7770    1.0580   38.2410 O   0  0  0  0  0  0
  -29.7960   -0.3900   39.4060 C   0  0  1  0  0  0
  -29.9220   -0.4040   40.9290 C   0  0  1  0  0  0
  -31.3100   -0.9020   41.3240 C   0  0  2  0  0  0
  -32.3970   -0.0820   40.6280 C   0  0  1  0  0  0
  -32.1570   -0.0070   39.1130 C   0  0  1  0  0  0
  -33.1050    0.9870   38.4620 C   0  0  0  0  0  0
  -29.9460   -1.6770   38.9160 O   0  0  0  0  0  0
  -28.9350   -1.2630   41.4760 O   0  0  0  0  0  0
  -31.4810   -0.8170   42.7300 O   0  0  0  0  0  0
  -30.8140    0.4450   38.8290 O   0  0  0  0  0  0
  -33.0440    0.9060   37.0470 O   0  0  0  0  0  0
  -34.0365    0.8542   42.0590 H   0  0  0  0  0  0
  -35.8288   -0.4511   43.3953 H   0  0  0  0  0  0
  -35.2037   -2.7034   41.3505 H   0  0  0  0  0  0
  -37.8129   -1.0628   41.6141 H   0  0  0  0  0  0
  -35.6764   -0.9788   39.4153 H   0  0  0  0  0  0
  -38.0935   -0.4273   38.7891 H   0  0  0  0  0  0
  -37.9785    0.9710   39.9109 H   0  0  0  0  0  0
  -33.4930   -0.8515   44.0755 H   0  0  0  0  0  0
  -35.8554   -3.5282   43.5734 H   0  0  0  0  0  0
  -38.0869   -3.3736   40.7552 H   0  0  0  0  0  0
  -37.3838    1.6620   37.5503 H   0  0  0  0  0  0
  -28.8136   -0.0362   39.0598 H   0  0  0  0  0  0
  -29.7188    0.5882   41.3582 H   0  0  0  0  0  0
  -31.4090   -1.9709   41.0840 H   0  0  0  0  0  0
  -32.4399    0.9275   41.0629 H   0  0  0  0  0  0
  -32.2709   -1.0146   38.6867 H   0  0  0  0  0  0
  -34.1359    0.7733   38.7808 H   0  0  0  0  0  0
  -32.8314    2.0080   38.7663 H   0  0  0  0  0  0
  -29.2583   -2.4723   39.2394 H   0  0  0  0  0  0
  -27.8689   -1.0609   41.2957 H   0  0  0  0  0  0
  -30.7885   -1.3460   43.4013 H   0  0  0  0  0  0
  -33.6739    1.5643   36.4307 H   0  0  0  0  0  0
  1  2  1  0  0  0
  1  7  1  0  0  0
  1 11  1  0  0  0
  1 24  1  0  0  0
  2  3  1  0  0  0
  2  8  1  0  0  0
  2 25  1  0  0  0
  3  4  1  0  0  0
  3  9  1  0  0  0
  3 26  1  0  0  0
  4  5  1  0  0  0
  4 10  1  0  0  0
  4 27  1  0  0  0
  5  6  1  0  0  0
  5 11  1  0  0  0
  5 28  1  0  0  0
  6 12  1  0  0  0
  6 29  1  0  0  0
  6 30  1  0  0  0
  7 16  1  0  0  0
  8 31  1  0  0  0
  9 32  1  0  0  0
 10 33  1  0  0  0
 12 34  1  0  0  0
 13 14  1  0  0  0
 13 19  1  0  0  0
 13 22  1  0  0  0
 13 35  1  0  0  0
 14 15  1  0  0  0
 14 20  1  0  0  0
 14 36  1  0  0  0
 15 16  1  0  0  0
 15 21  1  0  0  0
 15 37  1  0  0  0
 16 17  1  0  0  0
 16 38  1  0  0  0
 17 18  1  0  0  0
 17 22  1  0  0  0
 17 39  1  0  0  0
 18 23  1  0  0  0
 18 40  1  0  0  0
 18 41  1  0  0  0
 19 42  1  0  0  0
 20 43  1  0  0  0
 21 44  1  0  0  0
 23 45  1  0  0  0
M  END
> <s_m_source_file>
../1urg_ligand.sdf

> <i_m_source_file_index>
1

> <s_epik_input>
W09IXVtDQEBIXTFbQ0BIXShbT0hdKVtDQEBIXShbT0hdKVtDQEBIXShbQ0BIXShPMSlbQ0gyXVtPSF0pT1tDQEBIXTJbQ0BIXShbT0hdKVtDQEBIXShbT0hdKVtDQEhdKFtPSF0pW0NASF0oTzIpW0NIMl1bT0hd

> <s_epik_cmdline>
J2VwaWtfYXBwJywgJy1pbWFlJywgJ2xpZ2FuZF9wcm8ubWFlJywgJy1vbWFlJywgJ2xpZ2FuZF9wcmVwLm1hZScsICctbXMnLCAnMScsICctcGgnLCAnNycsICctcGh0JywgJzAuNScsICctbnQn

> <r_lp_tautomer_probability>
1

> <r_epik_Ionization_Penalty>
  0.0000

> <r_epik_Ionization_Penalty_Charging>
  0.0000

> <r_epik_Ionization_Penalty_Neutral>
  0.0000

> <r_epik_State_Penalty>
 -0.0000

> <r_epik_Charging_Adjusted_Penalty>
0

> <i_epik_Tot_Q>
0

> <i_epik_Tot_abs_Q>
0

> <s_epik_Chemistry_Notes>
This compound contains an acetal/aminal-like group ( X-CH(R)-Y where X, Y are N, S, or O) that may be acid/base labile, releasing an aldehyde.

$$$$
