1urw_ligand
                    3D
 Schrodinger Suite 2020-3.
 57 60  0  0  1  0            999 V2000
    8.6020  -11.8350   11.7020 C   0  0  0  0  0  0
   17.4510   -5.8040   13.3890 C   0  0  0  0  0  0
   16.7050   -5.7110   12.2190 C   0  0  0  0  0  0
   13.9060   -7.9330   12.9490 C   0  0  0  0  0  0
   17.0620   -6.5740   14.4790 C   0  0  0  0  0  0
   15.3940   -6.5600   12.1540 C   0  0  0  0  0  0
   15.9460   -7.2920   14.4550 N   0  0  0  0  0  0
   13.4070   -8.9970   15.1560 C   0  0  0  0  0  0
   13.1360   -8.8360   13.7480 C   0  0  0  0  0  0
   13.5960   -7.4850   11.5970 C   0  0  0  0  0  0
    9.6150  -10.8910   12.0370 C   0  0  0  0  0  0
   11.4130  -10.4070   13.9510 C   0  0  0  0  0  0
   12.5900   -9.9160   15.8700 C   0  0  0  0  0  0
   12.1280   -9.5630   13.1890 N   0  0  0  0  0  0
    9.8370   -9.7660   11.1720 C   0  0  0  0  0  0
    9.0610   -9.5840   10.0160 C   0  0  0  0  0  0
    8.0550  -10.5260    9.7140 C   0  0  0  0  0  0
   15.1460   -7.3460   13.2810 N   0  0  0  0  0  0
   14.5560   -6.5990   11.0750 N   0  0  0  0  0  0
   11.6090  -10.6050   15.2590 N   0  0  0  0  0  0
   10.3630  -11.1090   13.2540 N   0  0  0  0  0  0
    7.8170  -11.6560   10.5390 C   0  0  0  0  0  0
    7.0600  -10.2820    8.3090 S   0  0  0  0  0  0
    8.0120   -9.4770    7.0960 N   0  0  3  0  0  0
    8.9500  -10.4070    6.4280 C   0  0  0  0  0  0
    9.2920   -9.9200    5.0140 C   0  0  0  0  0  0
    8.0420   -9.8120    4.0910 C   0  0  0  0  0  0
    8.2740   -9.6630    2.6080 N   0  3  0  0  0  0
    8.6270  -10.9290    1.9080 C   0  0  0  0  0  0
    9.2700   -8.5860    2.2800 C   0  0  0  0  0  0
    5.8420   -9.3400    8.6930 O   0  0  0  0  0  0
    6.5250  -11.6650    7.7570 O   0  0  0  0  0  0
    8.4311  -12.6988   12.3445 H   0  0  0  0  0  0
   18.3853   -5.2465   13.4544 H   0  0  0  0  0  0
   17.0187   -5.0779   11.3890 H   0  0  0  0  0  0
   17.6866   -6.5884   15.3722 H   0  0  0  0  0  0
   14.2024   -8.4391   15.6502 H   0  0  0  0  0  0
   12.7108   -7.8039   11.0467 H   0  0  0  0  0  0
   12.7622  -10.0656   16.9359 H   0  0  0  0  0  0
   10.6172   -9.0449   11.4159 H   0  0  0  0  0  0
    9.2330   -8.7288    9.3625 H   0  0  0  0  0  0
   10.1603  -11.9955   13.8729 H   0  0  0  0  0  0
    7.0404  -12.3757   10.2801 H   0  0  0  0  0  0
    8.0942   -8.3939    6.9223 H   0  0  0  0  0  0
    9.8792  -10.4735    7.0129 H   0  0  0  0  0  0
    8.4897  -11.4035    6.3565 H   0  0  0  0  0  0
    9.7533   -8.9230    5.0711 H   0  0  0  0  0  0
    9.9955  -10.6231    4.5442 H   0  0  0  0  0  0
    7.4287  -10.7190    4.1968 H   0  0  0  0  0  0
    7.4482   -8.9321    4.3794 H   0  0  0  0  0  0
    7.2931   -9.3662    2.2084 H   0  0  0  0  0  0
    7.8888  -11.7049    2.1590 H   0  0  0  0  0  0
    9.6272  -11.2576    2.2268 H   0  0  0  0  0  0
    8.6258  -10.7596    0.8211 H   0  0  0  0  0  0
    8.9942   -7.6594    2.8048 H   0  0  0  0  0  0
    9.2716   -8.4063    1.1948 H   0  0  0  0  0  0
   10.2730   -8.9043    2.6004 H   0  0  0  0  0  0
  1 11  2  0  0  0
  1 22  1  0  0  0
  1 33  1  0  0  0
  2  3  2  0  0  0
  2  5  1  0  0  0
  2 34  1  0  0  0
  3  6  1  0  0  0
  3 35  1  0  0  0
  4  9  1  0  0  0
  4 10  2  0  0  0
  4 18  1  0  0  0
  5  7  2  0  0  0
  5 36  1  0  0  0
  6 18  1  0  0  0
  6 19  2  0  0  0
  7 18  1  0  0  0
  8  9  2  0  0  0
  8 13  1  0  0  0
  8 37  1  0  0  0
  9 14  1  0  0  0
 10 19  1  0  0  0
 10 38  1  0  0  0
 11 15  1  0  0  0
 11 21  1  0  0  0
 12 14  2  0  0  0
 12 20  1  0  0  0
 12 21  1  0  0  0
 13 20  2  0  0  0
 13 39  1  0  0  0
 15 16  2  0  0  0
 15 40  1  0  0  0
 16 17  1  0  0  0
 16 41  1  0  0  0
 17 22  2  0  0  0
 17 23  1  0  0  0
 21 42  1  0  0  0
 22 43  1  0  0  0
 23 24  1  0  0  0
 23 31  2  0  0  0
 23 32  2  0  0  0
 24 25  1  0  0  0
 24 44  1  0  0  0
 25 26  1  0  0  0
 25 45  1  0  0  0
 25 46  1  0  0  0
 26 27  1  0  0  0
 26 47  1  0  0  0
 26 48  1  0  0  0
 27 28  1  0  0  0
 27 49  1  0  0  0
 27 50  1  0  0  0
 28 29  1  0  0  0
 28 30  1  0  0  0
 28 51  1  0  0  0
 29 52  1  0  0  0
 29 53  1  0  0  0
 29 54  1  0  0  0
 30 55  1  0  0  0
 30 56  1  0  0  0
 30 57  1  0  0  0
M  CHG  1  28   1
M  END
> <s_m_source_file>
../1urw_ligand.sdf

> <i_m_source_file_index>
1

> <s_epik_input>
W0NIM11bTkgrXShbQ0gzXSlbQ0gyXVtDSDJdW0NIMl1bTkhdUyg9TykoPU8pYyhbY0hdW2NIXTEpW2NIXVtjSF1jMVtOSF1jKG4yKW5bY0hdW2NIXWMyLWMoW2NIXW4zKW4oYzM0KW5bY0hdW2NIXVtjSF00

> <s_epik_cmdline>
J2VwaWtfYXBwJywgJy1pbWFlJywgJ2xpZ2FuZF9wcm8ubWFlJywgJy1vbWFlJywgJ2xpZ2FuZF9wcmVwLm1hZScsICctbXMnLCAnMScsICctcGgnLCAnNycsICctcGh0JywgJzAuNScsICctbnQn

> <r_lp_tautomer_probability>
1

> <r_epik_Ionization_Penalty>
  0.0043

> <r_epik_Ionization_Penalty_Charging>
  0.0040

> <r_epik_Ionization_Penalty_Neutral>
  0.0003

> <r_epik_State_Penalty>
 -0.0000

> <r_epik_Charging_Adjusted_Penalty>
0.00396607552524782

> <i_epik_Tot_Q>
1

> <i_epik_Tot_abs_Q>
1

$$$$
