1usk_ligand
                    3D
 Schrodinger Suite 2020-3.
 22 21  0  0  1  0            999 V2000
   32.7000   -1.4910   39.7910 N   0  3  0  0  0  0
   33.5930   -1.5670   38.6390 C   0  0  2  0  0  0
   33.0740   -2.5760   37.6260 C   0  0  0  0  0  0
   32.0400   -3.2200   37.8510 O   0  5  0  0  0  0
   35.0040   -1.9670   39.0680 C   0  0  0  0  0  0
   35.6950   -1.0680   40.0870 C   0  0  0  0  0  0
   37.0080   -1.7090   40.5270 C   0  0  0  0  0  0
   35.9190    0.3250   39.5230 C   0  0  0  0  0  0
   33.6950   -2.7370   36.5760 O   0  0  0  0  0  0
   31.6930   -1.2019   39.4558 H   0  0  0  0  0  0
   33.0797   -0.7410   40.5004 H   0  0  0  0  0  0
   32.6543   -2.4728   40.2849 H   0  0  0  0  0  0
   33.5938   -0.5550   38.2078 H   0  0  0  0  0  0
   34.9788   -2.9678   39.5238 H   0  0  0  0  0  0
   35.6645   -1.9813   38.1885 H   0  0  0  0  0  0
   35.0441   -0.9549   40.9665 H   0  0  0  0  0  0
   36.8091   -2.7134   40.9289 H   0  0  0  0  0  0
   37.4761   -1.0886   41.3055 H   0  0  0  0  0  0
   37.6853   -1.7870   39.6638 H   0  0  0  0  0  0
   34.9544    0.7560   39.2167 H   0  0  0  0  0  0
   36.5870    0.2645   38.6511 H   0  0  0  0  0  0
   36.3778    0.9629   40.2929 H   0  0  0  0  0  0
  1  2  1  0  0  0
  1 10  1  0  0  0
  1 11  1  0  0  0
  1 12  1  0  0  0
  2  3  1  0  0  0
  2  5  1  0  0  0
  2 13  1  0  0  0
  3  4  1  0  0  0
  3  9  2  0  0  0
  5  6  1  0  0  0
  5 14  1  0  0  0
  5 15  1  0  0  0
  6  7  1  0  0  0
  6  8  1  0  0  0
  6 16  1  0  0  0
  7 17  1  0  0  0
  7 18  1  0  0  0
  7 19  1  0  0  0
  8 20  1  0  0  0
  8 21  1  0  0  0
  8 22  1  0  0  0
M  CHG  2   1   1   4  -1
M  END
> <s_m_source_file>
../1usk_ligand.sdf

> <i_m_source_file_index>
1

> <s_epik_input>
W09IXUMoPU8pW0NAQEhdKFtOSDMrXSlbQ0gyXVtDSF0oW0NIM10pW0NIM10=

> <s_epik_cmdline>
J2VwaWtfYXBwJywgJy1pbWFlJywgJ2xpZ2FuZF9wcm8ubWFlJywgJy1vbWFlJywgJ2xpZ2FuZF9wcmVwLm1hZScsICctbXMnLCAnMScsICctcGgnLCAnNycsICctcGh0JywgJzAuNScsICctbnQn

> <r_lp_tautomer_probability>
1

> <r_epik_Ionization_Penalty>
  0.0008

> <r_epik_Ionization_Penalty_Charging>
  0.0008

> <r_epik_Ionization_Penalty_Neutral>
  0.0000

> <r_epik_State_Penalty>
 -0.0000

> <r_epik_Charging_Adjusted_Penalty>
0.000784145532055113

> <i_epik_Tot_Q>
0

> <i_epik_Tot_abs_Q>
2

$$$$
