1usn_ligand
                    3D
 Schrodinger Suite 2020-3.
 36 37  0  0  1  0            999 V2000
   30.2460   46.7170   48.5170 C   0  0  0  0  0  0
   31.5450   48.6720   48.9840 C   0  0  0  0  0  0
   28.0690   45.4910   48.7770 C   0  0  0  0  0  0
   25.2580   44.2280   47.2870 C   0  0  0  0  0  0
   24.5330   46.5630   46.8750 C   0  0  0  0  0  0
   25.4050   45.5580   46.6030 C   0  0  0  0  0  0
   26.3780   45.7110   45.6450 C   0  0  0  0  0  0
   26.5220   46.9180   45.0240 C   0  0  0  0  0  0
   25.6820   47.9480   45.3290 C   0  0  0  0  0  0
   24.6970   47.7870   46.2570 C   0  0  0  0  0  0
   24.3630   41.3640   50.6840 C   0  0  0  0  0  0
   29.9770   48.1660   49.3840 S   0  0  0  0  0  0
   31.4160   46.6130   47.9580 N   0  0  0  0  0  0
   32.1760   47.7510   48.2380 N   0  0  0  0  0  0
   29.3610   45.5620   48.4130 N   0  0  0  0  0  0
   32.3620   50.2300   49.4090 S   0  5  0  0  0  0
   27.4500   46.5950   49.3110 O   0  0  0  0  0  0
   27.3770   44.2800   48.4840 N   0  0  0  0  0  0
   25.9460   44.2060   48.6720 C   0  0  2  0  0  0
   25.7070   42.8950   49.3170 C   0  0  0  0  0  0
   26.4450   41.9680   49.0470 O   0  0  0  0  0  0
   24.5620   42.7460   50.1680 N   0  0  0  0  0  0
   27.2580   44.7130   45.3510 F   0  0  0  0  0  0
   27.4790   47.1340   44.0660 F   0  0  0  0  0  0
   25.7740   49.1330   44.6540 F   0  0  0  0  0  0
   23.8030   48.8230   46.4920 F   0  0  0  0  0  0
   23.4670   46.4350   47.7380 F   0  0  0  0  0  0
   25.7085   43.4596   46.6416 H   0  0  0  0  0  0
   24.1842   44.0220   47.4077 H   0  0  0  0  0  0
   23.4690   41.3369   51.3243 H   0  0  0  0  0  0
   25.2432   41.0612   51.2702 H   0  0  0  0  0  0
   24.2298   40.6727   49.8388 H   0  0  0  0  0  0
   29.7382   44.6157   47.9979 H   0  0  0  0  0  0
   27.9294   43.4030   48.1156 H   0  0  0  0  0  0
   25.6016   45.0362   49.3061 H   0  0  0  0  0  0
   23.8593   43.5444   50.4487 H   0  0  0  0  0  0
  1 15  1  0  0  0
  1 13  2  0  0  0
  1 12  1  0  0  0
  2 16  1  0  0  0
  2 14  2  0  0  0
  2 12  1  0  0  0
  3 15  1  0  0  0
  3 17  2  0  0  0
  3 18  1  0  0  0
  4 19  1  0  0  0
  4  6  1  0  0  0
  4 28  1  0  0  0
  4 29  1  0  0  0
  5  6  2  0  0  0
  5 10  1  0  0  0
  5 27  1  0  0  0
  6  7  1  0  0  0
  7  8  2  0  0  0
  7 23  1  0  0  0
  8  9  1  0  0  0
  8 24  1  0  0  0
  9 10  2  0  0  0
  9 25  1  0  0  0
 10 26  1  0  0  0
 11 22  1  0  0  0
 11 30  1  0  0  0
 11 31  1  0  0  0
 11 32  1  0  0  0
 13 14  1  0  0  0
 15 33  1  0  0  0
 18 19  1  0  0  0
 18 34  1  0  0  0
 19 20  1  0  0  0
 19 35  1  0  0  0
 20 22  1  0  0  0
 20 21  2  0  0  0
 22 36  1  0  0  0
M  CHG  1  16  -1
M  END
> <s_m_source_file>
../1usn_ligand.sdf

> <i_m_source_file_index>
1

> <s_epik_input>
bjFuYyhbU0hdKXNjMVtOSF1DKD1PKVtOSF1bQ0BIXShDKD1PKVtOSF1bQ0gzXSlbQ0gyXWMoYzJGKWMoRiljKEYpYyhGKWMyRg==

> <s_epik_cmdline>
J2VwaWtfYXBwJywgJy1pbWFlJywgJ2xpZ2FuZF9wcm8ubWFlJywgJy1vbWFlJywgJ2xpZ2FuZF9wcmVwLm1hZScsICctbXMnLCAnMScsICctcGgnLCAnNycsICctcGh0JywgJzAuNScsICctbnQn

> <r_lp_tautomer_probability>
1

> <r_epik_Ionization_Penalty>
  0.0008

> <r_epik_Ionization_Penalty_Charging>
  0.0000

> <r_epik_Ionization_Penalty_Neutral>
  0.0008

> <r_epik_State_Penalty>
 -0.0000

> <r_epik_Charging_Adjusted_Penalty>
1.03367830819356e-10

> <i_epik_Tot_Q>
-1

> <i_epik_Tot_abs_Q>
1

$$$$
