1utc_ligand
                    3D
 Schrodinger Suite 2020-3.
129133  0  0  1  0            999 V2000
   29.2280   60.2100   31.8600 N   0  3  0  0  0  0
   29.7790   60.0600   30.4770 C   0  0  2  0  0  0
   29.4610   58.7060   29.8490 C   0  0  0  0  0  0
   28.7380   58.6630   28.8400 O   0  0  0  0  0  0
   31.2730   60.2560   30.5030 C   0  0  2  0  0  0
   31.5930   61.2320   31.5080 O   0  0  0  0  0  0
   31.7710   60.8310   29.1410 C   0  0  0  0  0  0
   29.9930   57.6120   30.4190 N   0  0  0  0  0  0
   29.5490   56.2770   29.9880 C   0  0  2  0  0  0
   28.1200   56.0190   30.5020 C   0  0  0  0  0  0
   27.8950   55.9960   31.6920 O   0  0  0  0  0  0
   30.4910   55.1670   30.4590 C   0  0  0  0  0  0
   30.1950   53.8310   29.7710 C   0  0  0  0  0  0
   30.5100   53.9210   28.3070 C   0  0  0  0  0  0
   30.9690   52.6700   30.3960 C   0  0  0  0  0  0
   27.1400   55.8420   29.6300 N   0  0  0  0  0  0
   25.7960   55.5170   30.1320 C   0  0  2  0  0  0
   25.7050   54.1180   30.7740 C   0  0  0  0  0  0
   26.3610   53.1650   30.3130 O   0  0  0  0  0  0
   24.8960   55.6360   28.8990 C   0  0  0  0  0  0
   25.8050   55.5810   27.7220 C   0  0  0  0  0  0
   27.1950   55.9320   28.1600 C   0  0  0  0  0  0
   24.8510   54.0180   31.7960 N   0  0  0  0  0  0
   24.8330   52.8720   32.7060 C   0  0  2  0  0  0
   24.5630   51.5480   32.0170 C   0  0  0  0  0  0
   25.0730   50.5000   32.4560 O   0  0  0  0  0  0
   23.8220   53.0790   33.8430 C   0  0  0  0  0  0
   22.3600   52.8710   33.3940 C   0  0  0  0  0  0
   21.5240   53.8220   32.9570 C   0  0  0  0  0  0
   21.6300   51.6310   33.3130 C   0  0  0  0  0  0
   20.3100   53.2750   32.6310 N   0  3  0  0  0  0
   20.3490   51.9320   32.8370 C   0  0  0  0  0  0
   21.9330   50.3030   33.6030 C   0  0  0  0  0  0
   19.3610   50.9690   32.6410 C   0  0  0  0  0  0
   20.9370   49.3270   33.4110 C   0  0  0  0  0  0
   19.6710   49.6720   32.9340 C   0  0  0  0  0  0
   23.7760   51.5690   30.9400 N   0  0  0  0  0  0
   23.5030   50.3150   30.2480 C   0  0  2  0  0  0
   24.7760   49.6840   29.6600 C   0  0  0  0  0  0
   24.7810   48.4790   29.3810 O   0  0  0  0  0  0
   22.3720   50.3800   29.2110 C   0  0  0  0  0  0
   22.5590   51.4590   28.1400 C   0  0  0  0  0  0
   23.1720   52.5270   28.3650 O   0  5  0  0  0  0
   22.0510   51.3370   27.0180 O   0  0  0  0  0  0
   25.8310   50.4820   29.4750 N   0  0  0  0  0  0
   27.1100   49.9670   28.9650 C   0  0  2  0  0  0
   28.1220   49.5590   30.0830 C   0  0  0  0  0  0
   29.1600   49.0110   29.7820 O   0  0  0  0  0  0
   27.7570   51.0000   28.0030 C   0  0  0  0  0  0
   27.0020   51.3240   26.7140 C   0  0  0  0  0  0
   27.7380   52.3350   25.8960 C   0  0  0  0  0  0
   26.8020   50.0640   25.9000 C   0  0  0  0  0  0
   27.8170   49.7960   31.3500 N   0  0  0  0  0  0
   28.7860   49.5060   32.4480 C   0  0  2  0  0  0
   29.2840   48.0870   32.4910 C   0  0  0  0  0  0
   28.4896   47.1688   32.1542 O   0  5  0  0  0  0
   28.1860   49.8740   33.7960 C   0  0  0  0  0  0
   28.0530   51.3660   33.9540 C   0  0  0  0  0  0
   28.4850   52.3070   33.0910 C   0  0  0  0  0  0
   27.4720   52.0680   35.0550 C   0  0  0  0  0  0
   28.2030   53.5600   33.5730 N   0  3  0  0  0  0
   27.5710   53.4340   34.7780 C   0  0  0  0  0  0
   26.8140   51.6730   36.2170 C   0  0  0  0  0  0
   27.0900   54.4070   35.6350 C   0  0  0  0  0  0
   26.3410   52.6420   37.0730 C   0  0  0  0  0  0
   26.4730   53.9840   36.7830 C   0  0  0  0  0  0
   30.4618   47.8244   32.8535 O   0  0  0  0  0  0
   28.1376   60.0664   31.8378 H   0  0  0  0  0  0
   29.4577   61.2168   32.2390 H   0  0  0  0  0  0
   29.6836   59.4570   32.5199 H   0  0  0  0  0  0
   29.2949   60.8408   29.8720 H   0  0  0  0  0  0
   31.7491   59.3017   30.7727 H   0  0  0  0  0  0
   31.3337   61.0433   32.5602 H   0  0  0  0  0  0
   31.5468   60.1148   28.3367 H   0  0  0  0  0  0
   32.8569   60.9999   29.1894 H   0  0  0  0  0  0
   31.2605   61.7837   28.9366 H   0  0  0  0  0  0
   30.7569   57.7106   31.2043 H   0  0  0  0  0  0
   29.5824   56.3026   28.8888 H   0  0  0  0  0  0
   31.5302   55.4470   30.2316 H   0  0  0  0  0  0
   30.3783   55.0263   31.5441 H   0  0  0  0  0  0
   29.1207   53.6255   29.8881 H   0  0  0  0  0  0
   29.9508   54.7575   27.8624 H   0  0  0  0  0  0
   30.2212   52.9824   27.8115 H   0  0  0  0  0  0
   31.5889   54.0892   28.1738 H   0  0  0  0  0  0
   30.7346   52.6085   31.4690 H   0  0  0  0  0  0
   32.0485   52.8365   30.2655 H   0  0  0  0  0  0
   30.6808   51.7297   29.9032 H   0  0  0  0  0  0
   25.5360   56.2203   30.9369 H   0  0  0  0  0  0
   24.1786   54.8022   28.8868 H   0  0  0  0  0  0
   24.3491   56.5897   28.9349 H   0  0  0  0  0  0
   25.7954   54.5659   27.2985 H   0  0  0  0  0  0
   25.4640   56.2988   26.9615 H   0  0  0  0  0  0
   27.4764   56.9538   27.8655 H   0  0  0  0  0  0
   27.9419   55.2212   27.7768 H   0  0  0  0  0  0
   24.1403   54.8453   31.9393 H   0  0  0  0  0  0
   25.8658   52.8483   33.0838 H   0  0  0  0  0  0
   24.0285   52.3629   34.6521 H   0  0  0  0  0  0
   23.9103   54.1049   34.2299 H   0  0  0  0  0  0
   21.8603   54.8680   32.9041 H   0  0  0  0  0  0
   22.9207   50.0252   33.9709 H   0  0  0  0  0  0
   18.3744   51.2419   32.2666 H   0  0  0  0  0  0
   21.1579   48.2842   33.6386 H   0  0  0  0  0  0
   18.9196   48.8950   32.7935 H   0  0  0  0  0  0
   23.3360   52.5075   30.5718 H   0  0  0  0  0  0
   23.1322   49.7004   31.0815 H   0  0  0  0  0  0
   22.2995   49.4158   28.6866 H   0  0  0  0  0  0
   21.4202   50.5933   29.7194 H   0  0  0  0  0  0
   25.7247   51.5502   29.7150 H   0  0  0  0  0  0
   26.8058   49.0543   28.4318 H   0  0  0  0  0  0
   27.8750   51.9619   28.5234 H   0  0  0  0  0  0
   28.7431   50.6339   27.6812 H   0  0  0  0  0  0
   26.0250   51.7576   26.9736 H   0  0  0  0  0  0
   27.8830   53.2505   26.4883 H   0  0  0  0  0  0
   27.1553   52.5707   24.9933 H   0  0  0  0  0  0
   28.7174   51.9279   25.6044 H   0  0  0  0  0  0
   26.2602   49.3203   26.5027 H   0  0  0  0  0  0
   27.7813   49.6566   25.6084 H   0  0  0  0  0  0
   26.2192   50.2993   24.9973 H   0  0  0  0  0  0
   26.8276   50.2147   31.5860 H   0  0  0  0  0  0
   29.6612   50.1279   32.2086 H   0  0  0  0  0  0
   27.1862   49.4244   33.8874 H   0  0  0  0  0  0
   28.8331   49.4956   34.6010 H   0  0  0  0  0  0
   28.9830   52.0092   32.1565 H   0  0  0  0  0  0
   26.6760   50.6160   36.4446 H   0  0  0  0  0  0
   27.1974   55.4674   35.4065 H   0  0  0  0  0  0
   25.8517   52.3422   37.9997 H   0  0  0  0  0  0
   26.0787   54.7227   37.4809 H   0  0  0  0  0  0
   28.4888   54.4497   32.9927 H   0  0  0  0  0  0
   19.4962   53.9195   32.2672 H   0  0  0  0  0  0
  1  2  1  0  0  0
  1 68  1  0  0  0
  1 69  1  0  0  0
  1 70  1  0  0  0
  2  3  1  0  0  0
  2  5  1  0  0  0
  2 71  1  0  0  0
  3  4  2  0  0  0
  3  8  1  0  0  0
  5  6  1  0  0  0
  5  7  1  0  0  0
  5 72  1  0  0  0
  6 73  1  0  0  0
  7 74  1  0  0  0
  7 75  1  0  0  0
  7 76  1  0  0  0
  8  9  1  0  0  0
  8 77  1  0  0  0
  9 10  1  0  0  0
  9 12  1  0  0  0
  9 78  1  0  0  0
 10 11  2  0  0  0
 10 16  1  0  0  0
 12 13  1  0  0  0
 12 79  1  0  0  0
 12 80  1  0  0  0
 13 14  1  0  0  0
 13 15  1  0  0  0
 13 81  1  0  0  0
 14 82  1  0  0  0
 14 83  1  0  0  0
 14 84  1  0  0  0
 15 85  1  0  0  0
 15 86  1  0  0  0
 15 87  1  0  0  0
 16 17  1  0  0  0
 16 22  1  0  0  0
 17 18  1  0  0  0
 17 20  1  0  0  0
 17 88  1  0  0  0
 18 19  2  0  0  0
 18 23  1  0  0  0
 20 21  1  0  0  0
 20 89  1  0  0  0
 20 90  1  0  0  0
 21 22  1  0  0  0
 21 91  1  0  0  0
 21 92  1  0  0  0
 22 93  1  0  0  0
 22 94  1  0  0  0
 23 24  1  0  0  0
 23 95  1  0  0  0
 24 25  1  0  0  0
 24 27  1  0  0  0
 24 96  1  0  0  0
 25 26  2  0  0  0
 25 37  1  0  0  0
 27 28  1  0  0  0
 27 97  1  0  0  0
 27 98  1  0  0  0
 28 29  2  0  0  0
 28 30  1  0  0  0
 29 31  1  0  0  0
 29 99  1  0  0  0
 30 32  2  0  0  0
 30 33  1  0  0  0
 31 32  1  0  0  0
 31129  1  0  0  0
 32 34  1  0  0  0
 33 35  2  0  0  0
 33100  1  0  0  0
 34 36  2  0  0  0
 34101  1  0  0  0
 35 36  1  0  0  0
 35102  1  0  0  0
 36103  1  0  0  0
 37 38  1  0  0  0
 37104  1  0  0  0
 38 39  1  0  0  0
 38 41  1  0  0  0
 38105  1  0  0  0
 39 40  2  0  0  0
 39 45  1  0  0  0
 41 42  1  0  0  0
 41106  1  0  0  0
 41107  1  0  0  0
 42 43  1  0  0  0
 42 44  2  0  0  0
 45 46  1  0  0  0
 45108  1  0  0  0
 46 47  1  0  0  0
 46 49  1  0  0  0
 46109  1  0  0  0
 47 48  2  0  0  0
 47 53  1  0  0  0
 49 50  1  0  0  0
 49110  1  0  0  0
 49111  1  0  0  0
 50 51  1  0  0  0
 50 52  1  0  0  0
 50112  1  0  0  0
 51113  1  0  0  0
 51114  1  0  0  0
 51115  1  0  0  0
 52116  1  0  0  0
 52117  1  0  0  0
 52118  1  0  0  0
 53 54  1  0  0  0
 53119  1  0  0  0
 54 55  1  0  0  0
 54 57  1  0  0  0
 54120  1  0  0  0
 55 56  1  0  0  0
 55 67  2  0  0  0
 57 58  1  0  0  0
 57121  1  0  0  0
 57122  1  0  0  0
 58 59  2  0  0  0
 58 60  1  0  0  0
 59 61  1  0  0  0
 59123  1  0  0  0
 60 62  2  0  0  0
 60 63  1  0  0  0
 61 62  1  0  0  0
 61128  1  0  0  0
 62 64  1  0  0  0
 63 65  2  0  0  0
 63124  1  0  0  0
 64 66  2  0  0  0
 64125  1  0  0  0
 65 66  1  0  0  0
 65126  1  0  0  0
 66127  1  0  0  0
M  CHG  5   1   1  31   1  43  -1  56  -1  61   1
M  END
> <s_m_source_file>
../1utc_ligand.sdf

> <i_m_source_file_index>
1

> <s_epik_input>
W09IXVtDQEhdKFtDSDNdKVtDQEhdKFtOSDMrXSlDKD1PKVtOSF1bQ0BASF0oW0NIMl1bQ0hdKFtDSDNdKVtDSDNdKUMoPU8pTjFbQ0BASF0oW0NIMl1bQ0gyXVtDSDJdMSlDKD1PKVtOSF1bQ0BASF0oW0NIMl1jMltjSF1bbkhdYyhjMjMpW2NIXVtjSF1bY0hdW2NIXTMpQyg9TylbTkhdW0NAQEhdKFtDSDJdQyg9TylbT0hdKUMoPU8pW05IXVtDQEBIXShbQ0gyXVtDSF0oW0NIM10pW0NIM10pQyg9TylbTkhdW0NASF0oQyg9TylbT0hdKVtDSDJdYzRbY0hdW25IXWMoYzQ1KVtjSF1bY0hdW2NIXVtjSF01

> <s_epik_cmdline>
J2VwaWtfYXBwJywgJy1pbWFlJywgJ2xpZ2FuZF9wcm8ubWFlJywgJy1vbWFlJywgJ2xpZ2FuZF9wcmVwLm1hZScsICctbXMnLCAnMScsICctcGgnLCAnNycsICctcGh0JywgJzAuNScsICctbnQn

> <r_epik_Ionization_Penalty>
  0.0815

> <r_epik_Ionization_Penalty_Charging>
  0.0815

> <r_epik_Ionization_Penalty_Neutral>
  0.0000

> <r_epik_State_Penalty>
  0.0687

> <r_epik_Charging_Adjusted_Penalty>
0.150124852023328

> <i_epik_Tot_Q>
1

> <i_epik_Tot_abs_Q>
5

$$$$
