1uti_ligand
                    3D
 Schrodinger Suite 2020-3.
271274  0  0  1  0            999 V2000
   24.9300   -0.3000    4.2770 N   0  3  0  0  0  0
   24.0390   -1.3310    3.6800 C   0  0  0  0  0  0
   22.9430   -1.8080    4.6180 C   0  0  0  0  0  0
   21.7730   -1.8760    4.2240 O   0  0  0  0  0  0
   23.3060   -2.1320    5.8590 N   0  0  0  0  0  0
   22.3910   -2.8550    6.7440 C   0  0  2  0  0  0
   21.2960   -1.9460    7.2920 C   0  0  0  0  0  0
   21.5620   -0.7880    7.6120 O   0  0  0  0  0  0
   23.1490   -3.5130    7.8990 C   0  0  0  0  0  0
   24.1850   -4.5350    7.4410 C   0  0  0  0  0  0
   24.4050   -5.6520    8.4440 C   0  0  0  0  0  0
   25.3680   -5.6230    9.2030 O   0  0  0  0  0  0
   23.5170   -6.6370    8.4460 N   0  0  0  0  0  0
   20.0720   -2.4670    7.4040 N   0  0  0  0  0  0
   18.9680   -1.6810    7.9660 C   0  0  2  0  0  0
   19.2390   -1.3010    9.4150 C   0  0  0  0  0  0
   20.0340   -1.9580   10.0920 O   0  0  0  0  0  0
   17.7700   -2.6320    7.8800 C   0  0  0  0  0  0
   18.1700   -3.6710    6.9150 C   0  0  0  0  0  0
   19.6360   -3.8240    7.0310 C   0  0  0  0  0  0
   18.5810   -0.2510    9.8930 N   0  0  0  0  0  0
   18.7750    0.1900   11.2720 C   0  0  2  0  0  0
   18.1700   -0.7860   12.2600 C   0  0  0  0  0  0
   17.3760   -1.6500   11.8830 O   0  0  0  0  0  0
   18.0300    1.5240   11.3110 C   0  0  0  0  0  0
   16.9550    1.3760   10.2920 C   0  0  0  0  0  0
   17.5760    0.5710    9.1950 C   0  0  0  0  0  0
   18.5480   -0.6410   13.5210 N   0  0  0  0  0  0
   17.9690   -1.4470   14.5800 C   0  0  2  0  0  0
   16.4870   -1.1550   14.7340 C   0  0  0  0  0  0
   16.0190   -0.0490   14.4640 O   0  0  0  0  0  0
   18.6640   -1.1760   15.9190 C   0  0  0  0  0  0
   20.1560   -1.4770   16.0130 C   0  0  0  0  0  0
   20.6280   -1.1930   17.4240 C   0  0  0  0  0  0
   20.4690   -2.9130   15.6270 C   0  0  0  0  0  0
   15.7690   -2.1750   15.1810 N   0  0  0  0  0  0
   14.4200   -2.0390   15.7000 C   0  0  2  0  0  0
   14.5240   -1.5390   17.1410 C   0  0  0  0  0  0
   15.3700   -2.0150   17.9050 O   0  0  0  0  0  0
   13.6970   -3.4060   15.6590 C   0  0  0  0  0  0
   12.3100   -3.3260   16.2780 C   0  0  0  0  0  0
   13.6310   -3.9210   14.2190 C   0  0  0  0  0  0
   13.6980   -0.5650   17.5220 N   0  0  0  0  0  0
   13.7190   -0.0800   18.9060 C   0  0  2  0  0  0
   13.3280   -1.1720   19.8980 C   0  0  0  0  0  0
   12.7170   -2.1750   19.5160 O   0  0  0  0  0  0
   12.6870    1.0580   18.9140 C   0  0  0  0  0  0
   11.8840    0.8940   17.6990 C   0  0  0  0  0  0
   12.7170    0.1610   16.7000 C   0  0  0  0  0  0
   13.6700   -0.9930   21.1710 N   0  0  0  0  0  0
   13.2550   -1.9590   22.1900 C   0  0  2  0  0  0
   11.7520   -2.2280   22.1440 C   0  0  0  0  0  0
   10.9580   -1.2940   22.0370 O   0  0  0  0  0  0
   13.6470   -1.2780   23.5070 C   0  0  0  0  0  0
   14.6920   -0.2930   23.1560 C   0  0  0  0  0  0
   14.4680    0.1060   21.7360 C   0  0  0  0  0  0
   11.3680   -3.4970   22.2350 N   0  0  0  0  0  0
    9.9510   -3.8710   22.2420 C   0  0  2  0  0  0
    9.1700   -3.2650   23.4130 C   0  0  0  0  0  0
    7.9680   -3.0560   23.2910 O   0  0  0  0  0  0
    9.7660   -5.3990   22.2090 C   0  0  0  0  0  0
    9.5090   -5.9480   20.8180 C   0  0  0  0  0  0
   10.6800   -5.8450   19.8560 C   0  0  0  0  0  0
   10.2480   -6.2480   18.5190 N   0  0  0  0  0  0
   11.0560   -6.5940   17.5280 C   0  0  0  0  0  0
   10.5370   -6.9520   16.3640 N   0  0  0  0  0  0
   12.3700   -6.5500   17.6720 N   0  0  0  0  0  0
    9.8400   -2.9700   24.5240 N   0  0  0  0  0  0
    9.1600   -2.3960   25.6830 C   0  0  2  0  0  0
    8.5880   -1.0180   25.3810 C   0  0  0  0  0  0
    7.6580   -0.5680   26.0490 O   0  0  0  0  0  0
   10.0790   -2.3520   26.9110 C   0  0  0  0  0  0
   11.2790   -1.4240   26.8170 C   0  0  0  0  0  0
   12.2900   -1.7470   27.9230 C   0  0  0  0  0  0
   13.2020   -0.5810   28.2430 C   0  0  0  0  0  0
   13.9200   -0.0590   27.0580 N   0  3  0  0  0  0
    9.1150   -0.3640   24.3510 N   0  0  0  0  0  0
    8.6500    0.9640   23.9730 C   0  0  2  0  0  0
    7.3510    0.9720   23.1650 C   0  0  0  0  0  0
    6.8400    2.0410   22.8520 O   0  0  0  0  0  0
    9.7530    1.7190   23.2310 C   0  0  0  0  0  0
   10.9290    2.0550   24.1380 C   0  0  0  0  0  0
   12.0950    2.6640   23.3990 C   0  0  0  0  0  0
   11.9570    2.9520   22.1930 O   0  0  0  0  0  0
   13.1560    2.8590   24.0250 O   0  0  0  0  0  0
    6.8140   -0.2050   22.8500 N   0  0  0  0  0  0
    5.5010   -0.3010   22.2180 C   0  0  2  0  0  0
    4.4260    0.2110   23.1630 C   0  0  0  0  0  0
    3.4380    0.7870   22.7190 O   0  0  0  0  0  0
    5.1960   -1.7390   21.8030 C   0  0  0  0  0  0
    5.9560   -2.1680   20.5590 C   0  0  0  0  0  0
    5.5590   -3.5480   20.0690 C   0  0  0  0  0  0
    5.9710   -4.6300   21.0390 C   0  0  0  0  0  0
    5.8660   -5.9690   20.4180 N   0  3  0  0  0  0
    4.6300    0.0120   24.4640 N   0  0  0  0  0  0
    3.7470    0.5880   25.4750 C   0  0  2  0  0  0
    3.8290    2.1140   25.4600 C   0  0  0  0  0  0
    4.7720    2.6910   24.9230 O   0  0  0  0  0  0
    4.1090    0.0790   26.8720 C   0  0  0  0  0  0
    4.1220   -1.4390   27.0460 C   0  0  0  0  0  0
    3.1450   -2.0560   28.4700 S   0  0  0  0  0  0
    3.4100   -0.7670   29.7030 C   0  0  0  0  0  0
    2.8460    2.7630   26.0730 N   0  0  0  0  0  0
    2.7550    4.2240   26.0660 C   0  0  2  0  0  0
    3.8850    4.8810   26.8710 C   0  0  0  0  0  0
    4.4520    4.2740   27.7830 O   0  0  0  0  0  0
    1.3940    4.6690   26.6080 C   0  0  0  0  0  0
    0.9050    5.9890   26.0550 C   0  0  0  0  0  0
   -0.4380    6.4290   26.6180 C   0  0  0  0  0  0
   -0.4070    7.8150   27.0790 N   0  0  0  0  0  0
   -0.3750    8.8840   26.2850 C   0  0  0  0  0  0
   -0.3460   10.0990   26.8180 N   0  0  0  0  0  0
   -0.3770    8.7540   24.9610 N   0  0  0  0  0  0
    4.1880    6.1310   26.5290 N   0  0  0  0  0  0
    5.3060    6.8630   27.1050 C   0  0  0  0  0  0
    6.6400    6.4490   26.5080 C   0  0  0  0  0  0
    7.6860    6.6370   27.1350 O   0  0  0  0  0  0
    6.6000    5.9180   25.2840 N   0  0  0  0  0  0
    7.7340    5.2210   24.6720 C   0  0  2  0  0  0
    8.2100    4.0920   25.5860 C   0  0  0  0  0  0
    7.3990    3.3760   26.1780 O   0  0  0  0  0  0
    8.8860    6.1830   24.3380 C   0  0  0  0  0  0
   10.2140    5.4820   24.0540 C   0  0  0  0  0  0
   11.1660    6.3350   23.2310 C   0  0  0  0  0  0
   11.7540    7.4780   24.0330 C   0  0  0  0  0  0
   13.2250    7.3660   24.1500 N   0  3  0  0  0  0
    9.5133    3.8795   25.7446 O   0  0  0  0  0  0
   25.6940   -0.0058    3.5423 H   0  0  0  0  0  0
   25.4206   -0.7126    5.1709 H   0  0  0  0  0  0
   24.3342    0.5806    4.5591 H   0  0  0  0  0  0
   23.5484   -0.9184    2.7861 H   0  0  0  0  0  0
   24.6348   -2.2116    3.3978 H   0  0  0  0  0  0
   24.3074   -1.8492    6.2156 H   0  0  0  0  0  0
   21.9359   -3.6219    6.1000 H   0  0  0  0  0  0
   23.6796   -2.7414    8.4762 H   0  0  0  0  0  0
   22.4369   -4.0361    8.5542 H   0  0  0  0  0  0
   23.8543   -4.9950    6.4981 H   0  0  0  0  0  0
   25.1512   -4.0330    7.2850 H   0  0  0  0  0  0
   22.6702   -6.6155    7.7442 H   0  0  0  0  0  0
   23.6272   -7.4755    9.1494 H   0  0  0  0  0  0
   18.8452   -0.7396    7.4103 H   0  0  0  0  0  0
   17.5688   -3.0590    8.8736 H   0  0  0  0  0  0
   16.8856   -2.0773    7.5334 H   0  0  0  0  0  0
   17.6594   -4.6142    7.1591 H   0  0  0  0  0  0
   17.8905   -3.3550    5.8991 H   0  0  0  0  0  0
   20.1107   -4.1137    6.0819 H   0  0  0  0  0  0
   19.9294   -4.5330    7.8191 H   0  0  0  0  0  0
   19.8460    0.2476   11.5162 H   0  0  0  0  0  0
   17.6216    1.6865   12.3194 H   0  0  0  0  0  0
   18.7247    2.3394   11.0609 H   0  0  0  0  0  0
   16.0939    0.8585   10.7400 H   0  0  0  0  0  0
   16.6429    2.3707    9.9411 H   0  0  0  0  0  0
   18.0753    1.2023    8.4453 H   0  0  0  0  0  0
   16.8482   -0.0854    8.6955 H   0  0  0  0  0  0
   19.3172    0.1087   13.7584 H   0  0  0  0  0  0
   18.1267   -2.4847   14.2510 H   0  0  0  0  0  0
   18.5664   -0.1104   16.1737 H   0  0  0  0  0  0
   18.1950   -1.7854   16.7055 H   0  0  0  0  0  0
   20.6938   -0.8296   15.3048 H   0  0  0  0  0  0
   20.3936   -0.1507   17.6862 H   0  0  0  0  0  0
   21.7148   -1.3512   17.4859 H   0  0  0  0  0  0
   20.1183   -1.8708   18.1245 H   0  0  0  0  0  0
   20.1199   -3.1013   14.6010 H   0  0  0  0  0  0
   19.9586   -3.5984   16.3196 H   0  0  0  0  0  0
   21.5551   -3.0788   15.6810 H   0  0  0  0  0  0
   16.2470   -3.1650   15.1443 H   0  0  0  0  0  0
   13.8922   -1.3139   15.0631 H   0  0  0  0  0  0
   14.2634   -4.1291   16.2642 H   0  0  0  0  0  0
   12.3900   -2.9537   17.3100 H   0  0  0  0  0  0
   11.8527   -4.3264   16.2835 H   0  0  0  0  0  0
   11.6843   -2.6401   15.6881 H   0  0  0  0  0  0
   14.6468   -3.9677   13.7994 H   0  0  0  0  0  0
   13.0152   -3.2395   13.6137 H   0  0  0  0  0  0
   13.1836   -4.9259   14.2091 H   0  0  0  0  0  0
   14.7389    0.2301   19.1772 H   0  0  0  0  0  0
   12.0607    0.9786   19.8148 H   0  0  0  0  0  0
   13.2089    2.0263   18.9145 H   0  0  0  0  0  0
   10.9757    0.3200   17.9345 H   0  0  0  0  0  0
   11.6019    1.8833   17.3096 H   0  0  0  0  0  0
   13.2442    0.8441   16.0178 H   0  0  0  0  0  0
   12.1257   -0.5581   16.1141 H   0  0  0  0  0  0
   13.7444   -2.9280   22.0128 H   0  0  0  0  0  0
   12.7647   -0.7857   23.9420 H   0  0  0  0  0  0
   14.0299   -2.0324   24.2101 H   0  0  0  0  0  0
   14.6102    0.5805   23.8196 H   0  0  0  0  0  0
   15.6842   -0.7527   23.2756 H   0  0  0  0  0  0
   15.4127    0.1967   21.1798 H   0  0  0  0  0  0
   13.9040    1.0471   21.6567 H   0  0  0  0  0  0
   12.1425   -4.2749   22.3061 H   0  0  0  0  0  0
    9.5795   -3.4195   21.3103 H   0  0  0  0  0  0
   10.6743   -5.8867   22.5927 H   0  0  0  0  0  0
    8.9070   -5.6780   22.8368 H   0  0  0  0  0  0
    9.2530   -7.0156   20.8867 H   0  0  0  0  0  0
    8.6747   -5.3999   20.3558 H   0  0  0  0  0  0
   11.0408   -4.8063   19.8275 H   0  0  0  0  0  0
   11.4916   -6.5060   20.1942 H   0  0  0  0  0  0
    9.1762   -6.2803   18.2738 H   0  0  0  0  0  0
    9.4450   -6.9907   16.2373 H   0  0  0  0  0  0
   11.1977   -7.2108   15.5235 H   0  0  0  0  0  0
   12.8080   -6.2534   18.6365 H   0  0  0  0  0  0
   10.9220   -3.1645   24.5617 H   0  0  0  0  0  0
    8.3245   -3.0859   25.8726 H   0  0  0  0  0  0
    9.5043   -2.0176   27.7873 H   0  0  0  0  0  0
   10.4857   -3.3563   27.1008 H   0  0  0  0  0  0
   11.7649   -1.5510   25.8384 H   0  0  0  0  0  0
   10.9460   -0.3816   26.9285 H   0  0  0  0  0  0
   11.7523   -2.0157   28.8442 H   0  0  0  0  0  0
   12.9214   -2.5907   27.6077 H   0  0  0  0  0  0
   12.6081    0.2448   28.6617 H   0  0  0  0  0  0
   13.9582   -0.8975   28.9765 H   0  0  0  0  0  0
   14.5616    0.7822   27.3592 H   0  0  0  0  0  0
   13.1909    0.2855   26.3098 H   0  0  0  0  0  0
   14.5409   -0.8569   26.6246 H   0  0  0  0  0  0
    9.9203   -0.8482   23.7792 H   0  0  0  0  0  0
    8.4273    1.4318   24.9433 H   0  0  0  0  0  0
   10.1266    1.1005   22.4016 H   0  0  0  0  0  0
    9.3483    2.6611   22.8325 H   0  0  0  0  0  0
   10.6073    2.7768   24.9032 H   0  0  0  0  0  0
   11.2885    1.1377   24.6273 H   0  0  0  0  0  0
   12.7938    3.3969   21.6345 H   0  0  0  0  0  0
    7.3834   -1.1185   23.0766 H   0  0  0  0  0  0
    5.5526    0.3377   21.3239 H   0  0  0  0  0  0
    5.4741   -2.4228   22.6185 H   0  0  0  0  0  0
    4.1213   -1.8393   21.5908 H   0  0  0  0  0  0
    5.7593   -1.4548   19.7450 H   0  0  0  0  0  0
    7.0341   -2.1878   20.7765 H   0  0  0  0  0  0
    4.4668   -3.5932   19.9460 H   0  0  0  0  0  0
    6.0454   -3.7480   19.1029 H   0  0  0  0  0  0
    7.0136   -4.4666   21.3494 H   0  0  0  0  0  0
    5.3163   -4.5992   21.9224 H   0  0  0  0  0  0
    6.1715   -6.7355   21.1454 H   0  0  0  0  0  0
    6.5229   -6.0171   19.5370 H   0  0  0  0  0  0
    4.8256   -6.1497   20.1100 H   0  0  0  0  0  0
    5.4887   -0.6036   24.7701 H   0  0  0  0  0  0
    2.7380    0.2527   25.1929 H   0  0  0  0  0  0
    5.1179    0.4268   27.1389 H   0  0  0  0  0  0
    3.3828    0.4651   27.6025 H   0  0  0  0  0  0
    3.7064   -1.9148   26.1455 H   0  0  0  0  0  0
    5.1561   -1.7818   27.1978 H   0  0  0  0  0  0
    2.8654   -1.0229   30.6238 H   0  0  0  0  0  0
    3.0416    0.1937   29.3141 H   0  0  0  0  0  0
    4.4847   -0.6856   29.9232 H   0  0  0  0  0  0
    2.0848    2.1670   26.5977 H   0  0  0  0  0  0
    2.8644    4.5045   25.0080 H   0  0  0  0  0  0
    0.6346    3.9139   26.3568 H   0  0  0  0  0  0
    1.4530    4.7802   27.7008 H   0  0  0  0  0  0
    1.6335    6.7783   26.2922 H   0  0  0  0  0  0
    0.7921    5.9101   24.9637 H   0  0  0  0  0  0
   -1.2087    6.3424   25.8379 H   0  0  0  0  0  0
   -0.7058    5.7880   27.4709 H   0  0  0  0  0  0
   -0.4091    8.0364   28.1565 H   0  0  0  0  0  0
   -0.3440   10.2201   27.9113 H   0  0  0  0  0  0
   -0.4009    7.7525   24.5067 H   0  0  0  0  0  0
   -0.3548    9.6480   24.3205 H   0  0  0  0  0  0
    3.5477    6.6100   25.7736 H   0  0  0  0  0  0
    5.1723    7.9395   26.9227 H   0  0  0  0  0  0
    5.3469    6.6769   28.1884 H   0  0  0  0  0  0
    5.6556    6.0240   24.7300 H   0  0  0  0  0  0
    7.3444    4.8031   23.7320 H   0  0  0  0  0  0
    8.6278    6.7673   23.4425 H   0  0  0  0  0  0
    9.0519    6.8646   25.1853 H   0  0  0  0  0  0
   10.7132    5.2432   25.0047 H   0  0  0  0  0  0
   10.0263    4.5534   23.4951 H   0  0  0  0  0  0
   11.9962    5.7115   22.8678 H   0  0  0  0  0  0
   10.6265    6.7631   22.3733 H   0  0  0  0  0  0
   11.5181    8.4320   23.5389 H   0  0  0  0  0  0
   11.3252    7.4738   25.0460 H   0  0  0  0  0  0
   13.6116    8.2119   24.7373 H   0  0  0  0  0  0
   13.6748    7.3805   23.1463 H   0  0  0  0  0  0
   13.4820    6.4223   24.6533 H   0  0  0  0  0  0
    9.8625    3.0687   26.4009 H   0  0  0  0  0  0
  1  2  1  0  0  0
  1128  1  0  0  0
  1129  1  0  0  0
  1130  1  0  0  0
  2  3  1  0  0  0
  2131  1  0  0  0
  2132  1  0  0  0
  3  4  2  0  0  0
  3  5  1  0  0  0
  5  6  1  0  0  0
  5133  1  0  0  0
  6  9  1  0  0  0
  6  7  1  0  0  0
  6134  1  0  0  0
  7  8  2  0  0  0
  7 14  1  0  0  0
  9 10  1  0  0  0
  9135  1  0  0  0
  9136  1  0  0  0
 10 11  1  0  0  0
 10137  1  0  0  0
 10138  1  0  0  0
 11 13  1  0  0  0
 11 12  2  0  0  0
 13139  1  0  0  0
 13140  1  0  0  0
 14 15  1  0  0  0
 14 20  1  0  0  0
 15 16  1  0  0  0
 15 18  1  0  0  0
 15141  1  0  0  0
 16 17  2  0  0  0
 16 21  1  0  0  0
 18 19  1  0  0  0
 18142  1  0  0  0
 18143  1  0  0  0
 19 20  1  0  0  0
 19144  1  0  0  0
 19145  1  0  0  0
 20146  1  0  0  0
 20147  1  0  0  0
 21 22  1  0  0  0
 21 27  1  0  0  0
 22 23  1  0  0  0
 22 25  1  0  0  0
 22148  1  0  0  0
 23 24  2  0  0  0
 23 28  1  0  0  0
 25 26  1  0  0  0
 25149  1  0  0  0
 25150  1  0  0  0
 26 27  1  0  0  0
 26151  1  0  0  0
 26152  1  0  0  0
 27153  1  0  0  0
 27154  1  0  0  0
 28 29  1  0  0  0
 28155  1  0  0  0
 29 32  1  0  0  0
 29 30  1  0  0  0
 29156  1  0  0  0
 30 31  2  0  0  0
 30 36  1  0  0  0
 32 33  1  0  0  0
 32157  1  0  0  0
 32158  1  0  0  0
 33 34  1  0  0  0
 33 35  1  0  0  0
 33159  1  0  0  0
 34160  1  0  0  0
 34161  1  0  0  0
 34162  1  0  0  0
 35163  1  0  0  0
 35164  1  0  0  0
 35165  1  0  0  0
 36 37  1  0  0  0
 36166  1  0  0  0
 37 40  1  0  0  0
 37 38  1  0  0  0
 37167  1  0  0  0
 38 39  2  0  0  0
 38 43  1  0  0  0
 40 42  1  0  0  0
 40 41  1  0  0  0
 40168  1  0  0  0
 41169  1  0  0  0
 41170  1  0  0  0
 41171  1  0  0  0
 42172  1  0  0  0
 42173  1  0  0  0
 42174  1  0  0  0
 43 44  1  0  0  0
 43 49  1  0  0  0
 44 45  1  0  0  0
 44 47  1  0  0  0
 44175  1  0  0  0
 45 46  2  0  0  0
 45 50  1  0  0  0
 47 48  1  0  0  0
 47176  1  0  0  0
 47177  1  0  0  0
 48 49  1  0  0  0
 48178  1  0  0  0
 48179  1  0  0  0
 49180  1  0  0  0
 49181  1  0  0  0
 50 51  1  0  0  0
 50 56  1  0  0  0
 51 52  1  0  0  0
 51 54  1  0  0  0
 51182  1  0  0  0
 52 53  2  0  0  0
 52 57  1  0  0  0
 54 55  1  0  0  0
 54183  1  0  0  0
 54184  1  0  0  0
 55 56  1  0  0  0
 55185  1  0  0  0
 55186  1  0  0  0
 56187  1  0  0  0
 56188  1  0  0  0
 57 58  1  0  0  0
 57189  1  0  0  0
 58 61  1  0  0  0
 58 59  1  0  0  0
 58190  1  0  0  0
 59 60  2  0  0  0
 59 68  1  0  0  0
 61 62  1  0  0  0
 61191  1  0  0  0
 61192  1  0  0  0
 62 63  1  0  0  0
 62193  1  0  0  0
 62194  1  0  0  0
 63 64  1  0  0  0
 63195  1  0  0  0
 63196  1  0  0  0
 64 65  1  0  0  0
 64197  1  0  0  0
 65 67  2  0  0  0
 65 66  1  0  0  0
 66198  1  0  0  0
 66199  1  0  0  0
 67200  1  0  0  0
 68 69  1  0  0  0
 68201  1  0  0  0
 69 72  1  0  0  0
 69 70  1  0  0  0
 69202  1  0  0  0
 70 71  2  0  0  0
 70 77  1  0  0  0
 72 73  1  0  0  0
 72203  1  0  0  0
 72204  1  0  0  0
 73 74  1  0  0  0
 73205  1  0  0  0
 73206  1  0  0  0
 74 75  1  0  0  0
 74207  1  0  0  0
 74208  1  0  0  0
 75 76  1  0  0  0
 75209  1  0  0  0
 75210  1  0  0  0
 76211  1  0  0  0
 76212  1  0  0  0
 76213  1  0  0  0
 77 78  1  0  0  0
 77214  1  0  0  0
 78 81  1  0  0  0
 78 79  1  0  0  0
 78215  1  0  0  0
 79 80  2  0  0  0
 79 86  1  0  0  0
 81 82  1  0  0  0
 81216  1  0  0  0
 81217  1  0  0  0
 82 83  1  0  0  0
 82218  1  0  0  0
 82219  1  0  0  0
 83 85  2  0  0  0
 83 84  1  0  0  0
 84220  1  0  0  0
 86 87  1  0  0  0
 86221  1  0  0  0
 87 90  1  0  0  0
 87 88  1  0  0  0
 87222  1  0  0  0
 88 89  2  0  0  0
 88 95  1  0  0  0
 90 91  1  0  0  0
 90223  1  0  0  0
 90224  1  0  0  0
 91 92  1  0  0  0
 91225  1  0  0  0
 91226  1  0  0  0
 92 93  1  0  0  0
 92227  1  0  0  0
 92228  1  0  0  0
 93 94  1  0  0  0
 93229  1  0  0  0
 93230  1  0  0  0
 94231  1  0  0  0
 94232  1  0  0  0
 94233  1  0  0  0
 95 96  1  0  0  0
 95234  1  0  0  0
 96 99  1  0  0  0
 96 97  1  0  0  0
 96235  1  0  0  0
 97 98  2  0  0  0
 97103  1  0  0  0
 99100  1  0  0  0
 99236  1  0  0  0
 99237  1  0  0  0
100101  1  0  0  0
100238  1  0  0  0
100239  1  0  0  0
101102  1  0  0  0
102240  1  0  0  0
102241  1  0  0  0
102242  1  0  0  0
103104  1  0  0  0
103243  1  0  0  0
104107  1  0  0  0
104105  1  0  0  0
104244  1  0  0  0
105106  2  0  0  0
105114  1  0  0  0
107108  1  0  0  0
107245  1  0  0  0
107246  1  0  0  0
108109  1  0  0  0
108247  1  0  0  0
108248  1  0  0  0
109110  1  0  0  0
109249  1  0  0  0
109250  1  0  0  0
110111  1  0  0  0
110251  1  0  0  0
111113  1  0  0  0
111112  2  0  0  0
112252  1  0  0  0
113253  1  0  0  0
113254  1  0  0  0
114115  1  0  0  0
114255  1  0  0  0
115116  1  0  0  0
115256  1  0  0  0
115257  1  0  0  0
116117  2  0  0  0
116118  1  0  0  0
118119  1  0  0  0
118258  1  0  0  0
119122  1  0  0  0
119120  1  0  0  0
119259  1  0  0  0
120121  2  0  0  0
120127  1  0  0  0
122123  1  0  0  0
122260  1  0  0  0
122261  1  0  0  0
123124  1  0  0  0
123262  1  0  0  0
123263  1  0  0  0
124125  1  0  0  0
124264  1  0  0  0
124265  1  0  0  0
125126  1  0  0  0
125266  1  0  0  0
125267  1  0  0  0
126268  1  0  0  0
126269  1  0  0  0
126270  1  0  0  0
127271  1  0  0  0
M  CHG  4   1   1  76   1  94   1 126   1
M  END
> <s_m_source_file>
../1uti_ligand.sdf

> <i_m_source_file_index>
1

> <s_epik_input>
W05IMytdW0NIMl1DKD1PKVtOSF1bQ0BASF0oW0NIMl1bQ0gyXUMoPU8pW05IMl0pQyg9TylOMVtDQEBIXShbQ0gyXVtDSDJdW0NIMl0xKUMoPU8pTjJbQ0BASF0oW0NIMl1bQ0gyXVtDSDJdMilDKD1PKVtOSF1bQ0BASF0oW0NIMl1bQ0hdKFtDSDNdKVtDSDNdKUMoPU8pW05IXVtDQEBIXShbQ0hdKFtDSDNdKVtDSDNdKUMoPU8pTjNbQ0BASF0oW0NIMl1bQ0gyXVtDSDJdMylDKD1PKU40W0NAQEhdKFtDSDJdW0NIMl1bQ0gyXTQpQyg9TylbTkhdW0NAQEhdKFtDSDJdW0NIMl1bQ0gyXVtOSF0vQyhbTkgyXSk9TlxbSF0pQyg9TylbTkhdW0NAQEhdKFtDSDJdW0NIMl1bQ0gyXVtDSDJdW05IMytdKUMoPU8pW05IXVtDQEBIXShbQ0gyXVtDSDJdQyg9TylbT0hdKUMoPU8pW05IXVtDQEBIXShbQ0gyXVtDSDJdW0NIMl1bQ0gyXVtOSDMrXSlDKD1PKVtOSF1bQ0BASF0oW0NIMl1bQ0gyXVNbQ0gzXSlDKD1PKVtOSF1bQ0BASF0oW0NIMl1bQ0gyXVtDSDJdW05IXS9DKD1OXFtIXSlbTkgyXSlDKD1PKVtOSF1bQ0gyXUMoPU8pW05IXVtDQEhdKEMoPU8pW09IXSlbQ0gyXVtDSDJdW0NIMl1bQ0gyXVtOSDMrXQ==

> <s_epik_cmdline>
J2VwaWtfYXBwJywgJy1pbWFlJywgJ2xpZ2FuZF9wcm8ubWFlJywgJy1vbWFlJywgJ2xpZ2FuZF9wcmVwLm1hZScsICctbXMnLCAnMScsICctcGgnLCAnNycsICctcGh0JywgJzAuNScsICctbnQn

> <s_epik_pKa_notes>
Molecule size exceeds maximum supported for generating protonation states

> <s_epik_Chemistry_Notes>
This compound has an imine and may undergo hydrolysis.

$$$$
