1utp_ligand
                    3D
 Schrodinger Suite 2020-3.
 27 27  0  0  1  0            999 V2000
   45.1120   18.4410   52.3110 C   0  0  0  0  0  0
   45.3410   18.6890   50.8450 C   0  0  0  0  0  0
   45.9470   20.0530   50.5420 C   0  0  0  0  0  0
   44.9500   20.8470   49.7010 C   0  0  0  0  0  0
   45.1900   22.1990   49.5100 C   0  0  0  0  0  0
   44.4270   22.9590   48.6320 C   0  0  0  0  0  0
   44.7030   24.2970   48.4720 C   0  0  0  0  0  0
   45.7240   24.9230   49.1610 C   0  0  0  0  0  0
   46.4970   24.1830   50.0360 C   0  0  0  0  0  0
   46.2170   22.8440   50.1990 C   0  0  0  0  0  0
   46.0630   17.4450   52.8970 N   0  3  0  0  0  0
   45.2345   19.3830   52.8657 H   0  0  0  0  0  0
   44.0929   18.0559   52.4629 H   0  0  0  0  0  0
   46.0301   17.9291   50.4479 H   0  0  0  0  0  0
   44.3822   18.6304   50.3090 H   0  0  0  0  0  0
   46.1493   20.5820   51.4850 H   0  0  0  0  0  0
   46.8872   19.9213   49.9865 H   0  0  0  0  0  0
   44.9023   20.4198   48.6885 H   0  0  0  0  0  0
   43.9550   20.7968   50.1674 H   0  0  0  0  0  0
   43.6135   22.4971   48.0726 H   0  0  0  0  0  0
   44.0972   24.8818   47.7799 H   0  0  0  0  0  0
   45.9173   25.9860   49.0165 H   0  0  0  0  0  0
   47.3132   24.6504   50.5869 H   0  0  0  0  0  0
   46.8232   22.2646   50.8953 H   0  0  0  0  0  0
   45.8412   17.3113   53.9661 H   0  0  0  0  0  0
   47.0942   17.8094   52.7792 H   0  0  0  0  0  0
   45.9526   16.4823   52.3764 H   0  0  0  0  0  0
  1  2  1  0  0  0
  1 11  1  0  0  0
  1 12  1  0  0  0
  1 13  1  0  0  0
  2  3  1  0  0  0
  2 14  1  0  0  0
  2 15  1  0  0  0
  3  4  1  0  0  0
  3 16  1  0  0  0
  3 17  1  0  0  0
  4  5  1  0  0  0
  4 18  1  0  0  0
  4 19  1  0  0  0
  5  6  2  0  0  0
  5 10  1  0  0  0
  6  7  1  0  0  0
  6 20  1  0  0  0
  7  8  2  0  0  0
  7 21  1  0  0  0
  8  9  1  0  0  0
  8 22  1  0  0  0
  9 10  2  0  0  0
  9 23  1  0  0  0
 10 24  1  0  0  0
 11 25  1  0  0  0
 11 26  1  0  0  0
 11 27  1  0  0  0
M  CHG  1  11   1
M  END
> <s_m_source_file>
../1utp_ligand.sdf

> <i_m_source_file_index>
1

> <s_epik_input>
W05IMytdW0NIMl1bQ0gyXVtDSDJdW0NIMl1jMVtjSF1bY0hdW2NIXVtjSF1bY0hdMQ==

> <s_epik_cmdline>
J2VwaWtfYXBwJywgJy1pbWFlJywgJ2xpZ2FuZF9wcm8ubWFlJywgJy1vbWFlJywgJ2xpZ2FuZF9wcmVwLm1hZScsICctbXMnLCAnMScsICctcGgnLCAnNycsICctcGh0JywgJzAuNScsICctbnQn

> <r_lp_tautomer_probability>
1

> <r_epik_Ionization_Penalty>
  0.0004

> <r_epik_Ionization_Penalty_Charging>
  0.0004

> <r_epik_Ionization_Penalty_Neutral>
  0.0000

> <r_epik_State_Penalty>
 -0.0000

> <r_epik_Charging_Adjusted_Penalty>
0.00042819563192759

> <i_epik_Tot_Q>
1

> <i_epik_Tot_abs_Q>
1

$$$$
