1utt_ligand
                    3D
 Schrodinger Suite 2020-3.
 46 49  0  0  1  0            999 V2000
  120.0250   37.5110   80.3020 C   0  0  0  0  0  0
  119.6350   36.7030   79.1170 C   0  0  0  0  0  0
  120.5530   38.7440   79.9670 N   0  0  0  0  0  0
  119.8420   36.9650   81.5940 C   0  0  0  0  0  0
  119.0800   35.4200   79.2710 C   0  0  0  0  0  0
  119.9280   37.4420   77.8680 C   0  0  0  0  0  0
  121.0080   38.7540   78.3900 S   0  0  0  0  0  0
  121.0470   39.6920   80.9670 C   0  0  0  0  0  0
  119.2800   35.6620   81.7290 C   0  0  0  0  0  0
  118.8950   34.8820   80.5830 C   0  0  0  0  0  0
  120.6250   40.0090   77.8130 O   0  0  0  0  0  0
  122.3760   38.3450   78.3490 O   0  0  0  0  0  0
  118.2820   33.5010   80.7450 C   0  0  1  0  0  0
  119.2570   32.3960   80.2780 C   0  0  0  0  0  0
  117.9630   33.2610   82.1120 O   0  0  0  0  0  0
  118.8740   31.0270   80.7130 N   0  0  0  0  0  0
  117.3400   32.0110   82.4280 C   0  0  0  0  0  0
  119.5210   29.8940   80.0020 C   0  0  0  0  0  0
  117.9660   30.7770   81.7390 C   0  0  0  0  0  0
  118.6200   29.1080   79.0530 C   0  0  0  0  0  0
  117.6500   29.6550   82.1070 O   0  0  0  0  0  0
  117.4080   29.6540   78.5350 C   0  0  0  0  0  0
  118.9880   27.7930   78.6660 C   0  0  0  0  0  0
  116.5880   28.8980   77.6580 C   0  0  0  0  0  0
  118.1720   27.0370   77.7890 C   0  0  0  0  0  0
  116.9710   27.5900   77.2850 C   0  0  0  0  0  0
  120.1280   37.5352   82.4779 H   0  0  0  0  0  0
  118.7924   34.8387   78.3949 H   0  0  0  0  0  0
  120.4132   36.7669   77.1478 H   0  0  0  0  0  0
  118.9897   37.8230   77.4386 H   0  0  0  0  0  0
  120.5882   39.4692   81.9416 H   0  0  0  0  0  0
  120.7836   40.7159   80.6632 H   0  0  0  0  0  0
  122.1404   39.6033   81.0476 H   0  0  0  0  0  0
  119.1383   35.2458   82.7264 H   0  0  0  0  0  0
  117.3314   33.4740   80.1922 H   0  0  0  0  0  0
  119.3011   32.3865   79.1789 H   0  0  0  0  0  0
  120.2597   32.5964   80.6835 H   0  0  0  0  0  0
  117.4038   31.8331   83.5116 H   0  0  0  0  0  0
  116.2836   32.0403   82.1228 H   0  0  0  0  0  0
  120.3556   30.2718   79.3931 H   0  0  0  0  0  0
  119.9019   29.1695   80.7368 H   0  0  0  0  0  0
  117.1085   30.6636   78.8162 H   0  0  0  0  0  0
  119.9115   27.3587   79.0490 H   0  0  0  0  0  0
  115.6628   29.3261   77.2721 H   0  0  0  0  0  0
  118.4695   26.0284   77.5021 H   0  0  0  0  0  0
  116.3427   27.0083   76.6105 H   0  0  0  0  0  0
  1  2  2  0  0  0
  1  3  1  0  0  0
  1  4  1  0  0  0
  2  5  1  0  0  0
  2  6  1  0  0  0
  3  7  1  0  0  0
  3  8  1  0  0  0
  4  9  2  0  0  0
  4 27  1  0  0  0
  5 10  2  0  0  0
  5 28  1  0  0  0
  6  7  1  0  0  0
  6 29  1  0  0  0
  6 30  1  0  0  0
  7 11  2  0  0  0
  7 12  2  0  0  0
  8 31  1  0  0  0
  8 32  1  0  0  0
  8 33  1  0  0  0
  9 10  1  0  0  0
  9 34  1  0  0  0
 10 13  1  0  0  0
 13 14  1  0  0  0
 13 15  1  0  0  0
 13 35  1  0  0  0
 14 16  1  0  0  0
 14 36  1  0  0  0
 14 37  1  0  0  0
 15 17  1  0  0  0
 16 18  1  0  0  0
 16 19  1  0  0  0
 17 19  1  0  0  0
 17 38  1  0  0  0
 17 39  1  0  0  0
 18 20  1  0  0  0
 18 40  1  0  0  0
 18 41  1  0  0  0
 19 21  2  0  0  0
 20 22  2  0  0  0
 20 23  1  0  0  0
 22 24  1  0  0  0
 22 42  1  0  0  0
 23 25  2  0  0  0
 23 43  1  0  0  0
 24 26  2  0  0  0
 24 44  1  0  0  0
 25 26  1  0  0  0
 25 45  1  0  0  0
 26 46  1  0  0  0
M  END
> <s_m_source_file>
../1utt_ligand.sdf

> <i_m_source_file_index>
1

> <s_epik_input>
W0NIM11OMVMoPU8pKD1PKVtDSDJdYyhjMTIpW2NIXWMoW2NIXVtjSF0yKVtDQEhdM1tDSDJdTihDKD1PKVtDSDJdTzMpW0NIMl1jNFtjSF1bY0hdW2NIXVtjSF1bY0hdNA==

> <s_epik_cmdline>
J2VwaWtfYXBwJywgJy1pbWFlJywgJ2xpZ2FuZF9wcm8ubWFlJywgJy1vbWFlJywgJ2xpZ2FuZF9wcmVwLm1hZScsICctbXMnLCAnMScsICctcGgnLCAnNycsICctcGh0JywgJzAuNScsICctbnQn

> <r_lp_tautomer_probability>
1

> <r_epik_Ionization_Penalty>
  0.0000

> <r_epik_Ionization_Penalty_Charging>
  0.0000

> <r_epik_Ionization_Penalty_Neutral>
  0.0000

> <r_epik_State_Penalty>
 -0.0000

> <r_epik_Charging_Adjusted_Penalty>
0

> <i_epik_Tot_Q>
0

> <i_epik_Tot_abs_Q>
0

$$$$
