1uu7_ligand
                    3D
 Schrodinger Suite 2020-3.
 58 63  0  0  1  0            999 V2000
   18.6890   83.9280    4.3630 C   0  0  0  0  0  0
   19.9450   83.5080    3.7070 N   0  3  2  0  0  0
   20.5210   82.2620    4.2770 C   0  0  0  0  0  0
   21.9460   82.2090    3.6800 C   0  0  0  0  0  0
   22.2500   83.6460    3.2430 C   0  0  0  0  0  0
   21.0630   84.4870    3.7610 C   0  0  2  0  0  0
   21.4020   85.0010    5.1750 C   0  0  0  0  0  0
   20.1980   85.4350    5.9630 C   0  0  0  0  0  0
   19.7680   86.7530    5.4820 N   0  0  0  0  0  0
   20.5920   87.7290    5.1220 C   0  0  0  0  0  0
   18.5130   87.1270    5.3790 C   0  0  0  0  0  0
   17.3290   86.4700    5.6670 C   0  0  0  0  0  0
   16.1320   87.1340    5.4650 C   0  0  0  0  0  0
   16.1300   88.4520    5.0050 C   0  0  0  0  0  0
   17.3200   89.0890    4.7140 C   0  0  0  0  0  0
   18.5230   88.4440    4.9160 C   0  0  0  0  0  0
   19.8680   88.7840    4.7430 C   0  0  0  0  0  0
   20.4090   90.0330    4.3520 C   0  0  0  0  0  0
   19.9070   91.2750    4.7540 C   0  0  0  0  0  0
   18.8500   91.4110    5.3880 O   0  5  0  0  0  0
   20.7090   92.2810    4.2890 N   0  0  0  0  0  0
   21.7390   91.7180    3.6540 C   0  0  0  0  0  0
   22.6650   92.3310    3.1180 O   0  0  0  0  0  0
   21.6200   90.3180    3.6780 C   0  0  0  0  0  0
   22.5690   89.4440    3.0950 C   0  0  0  0  0  0
   22.3480   88.2270    2.4390 C   0  0  0  0  0  0
   21.2300   87.4430    2.1230 C   0  0  0  0  0  0
   21.3870   86.2200    1.4310 C   0  0  0  0  0  0
   22.6620   85.7860    1.0810 C   0  0  0  0  0  0
   23.7700   86.5690    1.3950 C   0  0  0  0  0  0
   23.6040   87.7850    2.0710 C   0  0  0  0  0  0
   24.4980   88.6860    2.4720 N   0  0  0  0  0  0
   23.8890   89.6770    3.0760 C   0  0  0  0  0  0
   18.3211   84.8520    3.8930 H   0  0  0  0  0  0
   18.8764   84.1096    5.4316 H   0  0  0  0  0  0
   17.9347   83.1350    4.2526 H   0  0  0  0  0  0
   19.5911   83.3844    2.6728 H   0  0  0  0  0  0
   20.5317   82.3318    5.3747 H   0  0  0  0  0  0
   19.9087   81.4012    3.9703 H   0  0  0  0  0  0
   22.6526   81.8612    4.4480 H   0  0  0  0  0  0
   21.9606   81.5146    2.8270 H   0  0  0  0  0  0
   23.2012   83.9715    3.6894 H   0  0  0  0  0  0
   22.3265   83.6874    2.1464 H   0  0  0  0  0  0
   20.7836   85.3812    3.1845 H   0  0  0  0  0  0
   21.8976   84.2023    5.7464 H   0  0  0  0  0  0
   22.0742   85.8684    5.0985 H   0  0  0  0  0  0
   19.3868   84.7050    5.8250 H   0  0  0  0  0  0
   20.4599   85.4947    7.0297 H   0  0  0  0  0  0
   21.6807   87.6774    5.1339 H   0  0  0  0  0  0
   17.3395   85.4481    6.0460 H   0  0  0  0  0  0
   15.1883   86.6267    5.6655 H   0  0  0  0  0  0
   15.1855   88.9803    4.8750 H   0  0  0  0  0  0
   17.3091   90.1063    4.3228 H   0  0  0  0  0  0
   20.2262   87.7840    2.4165 H   0  0  0  0  0  0
   20.5040   85.6172    1.1722 H   0  0  0  0  0  0
   22.7930   84.8361    0.5627 H   0  0  0  0  0  0
   24.7774   86.2307    1.1110 H   0  0  0  0  0  0
   24.4720   90.5225    3.4700 H   0  0  0  0  0  0
  1  2  1  0  0  0
  1 34  1  0  0  0
  1 35  1  0  0  0
  1 36  1  0  0  0
  2  6  1  0  0  0
  2  3  1  0  0  0
  2 37  1  0  0  0
  3  4  1  0  0  0
  3 38  1  0  0  0
  3 39  1  0  0  0
  4  5  1  0  0  0
  4 40  1  0  0  0
  4 41  1  0  0  0
  5  6  1  0  0  0
  5 42  1  0  0  0
  5 43  1  0  0  0
  6  7  1  0  0  0
  6 44  1  0  0  0
  7  8  1  0  0  0
  7 45  1  0  0  0
  7 46  1  0  0  0
  8  9  1  0  0  0
  8 47  1  0  0  0
  8 48  1  0  0  0
  9 11  1  0  0  0
  9 10  1  0  0  0
 10 17  2  0  0  0
 10 49  1  0  0  0
 11 12  2  0  0  0
 11 16  1  0  0  0
 12 13  1  0  0  0
 12 50  1  0  0  0
 13 14  2  0  0  0
 13 51  1  0  0  0
 14 15  1  0  0  0
 14 52  1  0  0  0
 15 16  2  0  0  0
 15 53  1  0  0  0
 16 17  1  0  0  0
 17 18  1  0  0  0
 18 19  1  0  0  0
 18 24  2  0  0  0
 19 20  1  0  0  0
 19 21  2  0  0  0
 21 22  1  0  0  0
 22 23  2  0  0  0
 22 24  1  0  0  0
 24 25  1  0  0  0
 25 26  2  0  0  0
 25 33  1  0  0  0
 26 27  1  0  0  0
 26 31  1  0  0  0
 27 28  2  0  0  0
 27 54  1  0  0  0
 28 29  1  0  0  0
 28 55  1  0  0  0
 29 30  1  0  0  0
 29 56  1  0  0  0
 30 31  2  0  0  0
 30 57  1  0  0  0
 31 32  1  0  0  0
 32 33  2  0  0  0
 33 58  1  0  0  0
M  CHG  2   2   1  20  -1
M  END
> <s_m_source_file>
../1uu7_ligand.sdf

> <i_m_source_file_index>
1

> <s_epik_input>
W0NIM11bTkBASCtdMVtDSDJdW0NIMl1bQ0gyXVtDQEBIXTFbQ0gyXVtDSDJdbjJbY0hdYyhjKGMyMylbY0hdW2NIXVtjSF1bY0hdMylDND1DKEMoPU8pW05IXUM0PU8pQz01W0NIXT1OQyhDNTYpPVtDSF1bQ0gyXVtDSF09W0NIXTY=

> <s_epik_cmdline>
J2VwaWtfYXBwJywgJy1pbWFlJywgJ2xpZ2FuZF9wcm8ubWFlJywgJy1vbWFlJywgJ2xpZ2FuZF9wcmVwLm1hZScsICctbXMnLCAnMScsICctcGgnLCAnNycsICctcGh0JywgJzAuNScsICctbnQn

> <r_lp_tautomer_probability>
1

> <r_epik_Ionization_Penalty>
  0.0079

> <r_epik_Ionization_Penalty_Charging>
  0.0079

> <r_epik_Ionization_Penalty_Neutral>
  0.0000

> <r_epik_State_Penalty>
 -0.0000

> <r_epik_Charging_Adjusted_Penalty>
0.00788504104775028

> <i_epik_Tot_Q>
0

> <i_epik_Tot_abs_Q>
2

> <s_epik_Chemistry_Notes>
This compound has an imine and may undergo hydrolysis.

$$$$
