1uu8_ligand
                    3D
 Schrodinger Suite 2020-3.
 54 58  0  0  1  0            999 V2000
   21.2110   82.7320   28.9170 C   0  0  0  0  0  0
   22.0130   83.1720   27.7670 N   0  3  0  0  0  0
   21.3240   83.3210   26.4750 C   0  0  0  0  0  0
   23.4430   82.8110   27.7940 C   0  0  0  0  0  0
   24.0330   82.4730   26.4210 C   0  0  0  0  0  0
   23.5990   81.1010   25.8940 C   0  0  0  0  0  0
   24.3450   79.9750   26.4790 N   0  0  0  0  0  0
   25.6270   80.0290   26.8540 C   0  0  0  0  0  0
   23.8380   78.7500   26.6070 C   0  0  0  0  0  0
   22.6000   78.1790   26.3290 C   0  0  0  0  0  0
   22.4150   76.8160   26.5390 C   0  0  0  0  0  0
   23.4610   76.0360   27.0260 C   0  0  0  0  0  0
   24.6950   76.6180   27.3060 C   0  0  0  0  0  0
   24.8860   77.9790   27.0950 C   0  0  0  0  0  0
   25.9910   78.8060   27.2390 C   0  0  0  0  0  0
   27.3070   78.5400   27.6120 C   0  0  0  0  0  0
   28.0140   77.4010   27.2330 C   0  0  0  0  0  0
   27.6040   76.4380   26.5910 O   0  5  0  0  0  0
   29.2570   77.5830   27.6770 N   0  0  0  0  0  0
   29.4330   78.7400   28.3140 C   0  0  0  0  0  0
   30.4810   79.1680   28.7910 O   0  0  0  0  0  0
   28.1920   79.3690   28.2920 C   0  0  0  0  0  0
   27.9160   80.5880   28.9100 C   0  0  0  0  0  0
   26.8090   81.0660   29.5920 C   0  0  0  0  0  0
   25.5640   80.5180   29.8900 C   0  0  0  0  0  0
   24.6270   81.2670   30.5960 C   0  0  0  0  0  0
   24.9300   82.5620   31.0100 C   0  0  0  0  0  0
   26.1750   83.1100   30.7190 C   0  0  0  0  0  0
   27.1060   82.3550   30.0100 C   0  0  0  0  0  0
   28.3460   82.5940   29.5830 N   0  0  0  0  0  0
   28.8430   81.5430   28.9250 C   0  0  0  0  0  0
   21.8530   82.6655   29.8078 H   0  0  0  0  0  0
   20.7758   81.7444   28.7041 H   0  0  0  0  0  0
   20.4039   83.4567   29.0999 H   0  0  0  0  0  0
   22.1139   84.2507   27.9573 H   0  0  0  0  0  0
   20.2719   83.5904   26.6495 H   0  0  0  0  0  0
   21.3725   82.3714   25.9219 H   0  0  0  0  0  0
   21.8127   84.1126   25.8880 H   0  0  0  0  0  0
   24.0260   83.6523   28.1968 H   0  0  0  0  0  0
   23.5860   81.9268   28.4325 H   0  0  0  0  0  0
   23.7097   83.2263   25.6875 H   0  0  0  0  0  0
   25.1312   82.4706   26.4843 H   0  0  0  0  0  0
   22.5349   80.9405   26.1221 H   0  0  0  0  0  0
   23.7506   81.0617   24.8052 H   0  0  0  0  0  0
   26.2615   80.9152   26.8463 H   0  0  0  0  0  0
   21.7831   78.7934   25.9504 H   0  0  0  0  0  0
   21.4500   76.3580   26.3220 H   0  0  0  0  0  0
   23.3137   74.9683   27.1883 H   0  0  0  0  0  0
   25.5112   76.0064   27.6906 H   0  0  0  0  0  0
   25.3206   79.4947   29.5683 H   0  0  0  0  0  0
   23.6419   80.8367   30.8294 H   0  0  0  0  0  0
   24.1925   83.1453   31.5613 H   0  0  0  0  0  0
   26.4270   84.1303   31.0437 H   0  0  0  0  0  0
   29.8616   81.5843   28.5119 H   0  0  0  0  0  0
  1  2  1  0  0  0
  1 32  1  0  0  0
  1 33  1  0  0  0
  1 34  1  0  0  0
  2  4  1  0  0  0
  2  3  1  0  0  0
  2 35  1  0  0  0
  3 36  1  0  0  0
  3 37  1  0  0  0
  3 38  1  0  0  0
  4  5  1  0  0  0
  4 39  1  0  0  0
  4 40  1  0  0  0
  5  6  1  0  0  0
  5 41  1  0  0  0
  5 42  1  0  0  0
  6  7  1  0  0  0
  6 43  1  0  0  0
  6 44  1  0  0  0
  7  8  1  0  0  0
  7  9  1  0  0  0
  8 15  2  0  0  0
  8 45  1  0  0  0
  9 10  2  0  0  0
  9 14  1  0  0  0
 10 11  1  0  0  0
 10 46  1  0  0  0
 11 12  2  0  0  0
 11 47  1  0  0  0
 12 13  1  0  0  0
 12 48  1  0  0  0
 13 14  2  0  0  0
 13 49  1  0  0  0
 14 15  1  0  0  0
 15 16  1  0  0  0
 16 17  1  0  0  0
 16 22  2  0  0  0
 17 18  1  0  0  0
 17 19  2  0  0  0
 19 20  1  0  0  0
 20 21  2  0  0  0
 20 22  1  0  0  0
 22 23  1  0  0  0
 23 24  2  0  0  0
 23 31  1  0  0  0
 24 25  1  0  0  0
 24 29  1  0  0  0
 25 26  2  0  0  0
 25 50  1  0  0  0
 26 27  1  0  0  0
 26 51  1  0  0  0
 27 28  1  0  0  0
 27 52  1  0  0  0
 28 29  2  0  0  0
 28 53  1  0  0  0
 29 30  1  0  0  0
 30 31  2  0  0  0
 31 54  1  0  0  0
M  CHG  2   2   1  18  -1
M  END
> <s_m_source_file>
../1uu8_ligand.sdf

> <i_m_source_file_index>
1

> <s_epik_input>
W0NIM11bTkgrXShbQ0gzXSlbQ0gyXVtDSDJdW0NIMl1uMVtjSF1jKGMoYzEyKVtjSF1bY0hdW2NIXVtjSF0yKUMzPUMoQyg9TylbTkhdQzM9TylDPTRbQ0hdPU5DKEM0NSk9W0NIXVtDSDJdW0NIXT1bQ0hdNQ==

> <s_epik_cmdline>
J2VwaWtfYXBwJywgJy1pbWFlJywgJ2xpZ2FuZF9wcm8ubWFlJywgJy1vbWFlJywgJ2xpZ2FuZF9wcmVwLm1hZScsICctbXMnLCAnMScsICctcGgnLCAnNycsICctcGh0JywgJzAuNScsICctbnQn

> <r_lp_tautomer_probability>
1

> <r_epik_Ionization_Penalty>
  0.0109

> <r_epik_Ionization_Penalty_Charging>
  0.0109

> <r_epik_Ionization_Penalty_Neutral>
  0.0000

> <r_epik_State_Penalty>
 -0.0000

> <r_epik_Charging_Adjusted_Penalty>
0.0108641612970909

> <i_epik_Tot_Q>
0

> <i_epik_Tot_abs_Q>
2

> <s_epik_Chemistry_Notes>
This compound has an imine and may undergo hydrolysis.

$$$$
