1uu9_ligand
                    3D
 Schrodinger Suite 2020-3.
 48 52  0  0  1  0            999 V2000
   22.6160   83.3560   28.2110 N   0  3  0  0  0  0
   23.4400   82.3390   27.5390 C   0  0  0  0  0  0
   22.5360   81.3210   26.8390 C   0  0  0  0  0  0
   23.3280   80.3940   25.9120 C   0  0  0  0  0  0
   24.1130   79.3600   26.6060 N   0  0  0  0  0  0
   25.3650   79.5310   27.0370 C   0  0  0  0  0  0
   23.7190   78.0900   26.7040 C   0  0  0  0  0  0
   22.5550   77.4040   26.3670 C   0  0  0  0  0  0
   22.4960   76.0240   26.5390 C   0  0  0  0  0  0
   23.5950   75.3400   27.0540 C   0  0  0  0  0  0
   24.7490   76.0370   27.4000 C   0  0  0  0  0  0
   24.8180   77.4170   27.2240 C   0  0  0  0  0  0
   25.8300   78.3430   27.4250 C   0  0  0  0  0  0
   27.1790   78.1790   27.7460 C   0  0  0  0  0  0
   27.9500   77.1160   27.2840 C   0  0  0  0  0  0
   27.5760   76.1550   26.6150 O   0  5  0  0  0  0
   29.1970   77.3600   27.6830 N   0  0  0  0  0  0
   29.3160   78.4950   28.3720 C   0  0  0  0  0  0
   30.3570   78.9720   28.8250 O   0  0  0  0  0  0
   28.0340   79.0350   28.4340 C   0  0  0  0  0  0
   27.7260   80.2170   29.1110 C   0  0  0  0  0  0
   26.5630   80.7200   29.6780 C   0  0  0  0  0  0
   25.3220   80.1590   29.9710 C   0  0  0  0  0  0
   24.3180   80.9390   30.5390 C   0  0  0  0  0  0
   24.5460   82.2840   30.8200 C   0  0  0  0  0  0
   25.7860   82.8490   30.5360 C   0  0  0  0  0  0
   26.7840   82.0610   29.9710 C   0  0  0  0  0  0
   28.0400   82.3060   29.5940 N   0  0  0  0  0  0
   28.6100   81.2130   29.0800 C   0  0  0  0  0  0
   23.2698   84.0849   28.7123 H   0  0  0  0  0  0
   21.9693   82.8700   28.9564 H   0  0  0  0  0  0
   21.9929   83.8734   27.4667 H   0  0  0  0  0  0
   24.0867   82.8250   26.7936 H   0  0  0  0  0  0
   24.0631   81.8216   28.2833 H   0  0  0  0  0  0
   22.0287   80.7015   27.5932 H   0  0  0  0  0  0
   21.7852   81.8516   26.2351 H   0  0  0  0  0  0
   22.6345   79.8697   25.2380 H   0  0  0  0  0  0
   24.0376   80.9885   25.3179 H   0  0  0  0  0  0
   25.9103   80.4743   27.0665 H   0  0  0  0  0  0
   21.6953   77.9444   25.9709 H   0  0  0  0  0  0
   21.5908   75.4790   26.2710 H   0  0  0  0  0  0
   23.5511   74.2589   27.1860 H   0  0  0  0  0  0
   25.6037   75.4998   27.8111 H   0  0  0  0  0  0
   25.1362   79.0970   29.7525 H   0  0  0  0  0  0
   23.3387   80.4935   30.7681 H   0  0  0  0  0  0
   23.7561   82.8921   31.2608 H   0  0  0  0  0  0
   25.9802   83.9094   30.7546 H   0  0  0  0  0  0
   29.6491   81.2516   28.7212 H   0  0  0  0  0  0
  1  2  1  0  0  0
  1 30  1  0  0  0
  1 31  1  0  0  0
  1 32  1  0  0  0
  2  3  1  0  0  0
  2 33  1  0  0  0
  2 34  1  0  0  0
  3  4  1  0  0  0
  3 35  1  0  0  0
  3 36  1  0  0  0
  4  5  1  0  0  0
  4 37  1  0  0  0
  4 38  1  0  0  0
  5  6  1  0  0  0
  5  7  1  0  0  0
  6 13  2  0  0  0
  6 39  1  0  0  0
  7  8  2  0  0  0
  7 12  1  0  0  0
  8  9  1  0  0  0
  8 40  1  0  0  0
  9 10  2  0  0  0
  9 41  1  0  0  0
 10 11  1  0  0  0
 10 42  1  0  0  0
 11 12  2  0  0  0
 11 43  1  0  0  0
 12 13  1  0  0  0
 13 14  1  0  0  0
 14 15  1  0  0  0
 14 20  2  0  0  0
 15 16  1  0  0  0
 15 17  2  0  0  0
 17 18  1  0  0  0
 18 19  2  0  0  0
 18 20  1  0  0  0
 20 21  1  0  0  0
 21 22  2  0  0  0
 21 29  1  0  0  0
 22 23  1  0  0  0
 22 27  1  0  0  0
 23 24  2  0  0  0
 23 44  1  0  0  0
 24 25  1  0  0  0
 24 45  1  0  0  0
 25 26  1  0  0  0
 25 46  1  0  0  0
 26 27  2  0  0  0
 26 47  1  0  0  0
 27 28  1  0  0  0
 28 29  2  0  0  0
 29 48  1  0  0  0
M  CHG  2   1   1  16  -1
M  END
> <s_m_source_file>
../1uu9_ligand.sdf

> <i_m_source_file_index>
1

> <s_epik_input>
W05IMytdW0NIMl1bQ0gyXVtDSDJdbjFbY0hdYyhjKGMxMilbY0hdW2NIXVtjSF1bY0hdMilDMz1DKEMoPU8pW05IXUMzPU8pQz00W0NIXT1OQyhDNDUpPVtDSF1bQ0gyXVtDSF09W0NIXTU=

> <s_epik_cmdline>
J2VwaWtfYXBwJywgJy1pbWFlJywgJ2xpZ2FuZF9wcm8ubWFlJywgJy1vbWFlJywgJ2xpZ2FuZF9wcmVwLm1hZScsICctbXMnLCAnMScsICctcGgnLCAnNycsICctcGh0JywgJzAuNScsICctbnQn

> <r_lp_tautomer_probability>
1

> <r_epik_Ionization_Penalty>
  0.0071

> <r_epik_Ionization_Penalty_Charging>
  0.0071

> <r_epik_Ionization_Penalty_Neutral>
  0.0000

> <r_epik_State_Penalty>
 -0.0000

> <r_epik_Charging_Adjusted_Penalty>
0.00705784402853413

> <i_epik_Tot_Q>
0

> <i_epik_Tot_abs_Q>
2

> <s_epik_Chemistry_Notes>
This compound has an imine and may undergo hydrolysis.

$$$$
