1uvr_ligand
                    3D
 Schrodinger Suite 2020-3.
 53 57  0  0  1  0            999 V2000
   87.4040   16.4900   14.1670 C   0  0  0  0  0  0
   84.4180   21.8000   12.3560 N   0  3  0  0  0  0
   83.1690   21.1020   12.0200 C   0  0  0  0  0  0
   83.2120   20.6520   10.5590 C   0  0  0  0  0  0
   81.8490   20.1280   10.1040 C   0  0  0  0  0  0
   81.3960   18.8960   10.7710 N   0  0  0  0  0  0
   82.1790   17.8820   11.1540 C   0  0  0  0  0  0
   80.1010   18.6290   10.9500 C   0  0  0  0  0  0
   78.9210   19.3190   10.6880 C   0  0  0  0  0  0
   77.6960   18.7140   10.9550 C   0  0  0  0  0  0
   77.6610   17.4290   11.4880 C   0  0  0  0  0  0
   78.8470   16.7490   11.7570 C   0  0  0  0  0  0
   80.0750   17.3480   11.4840 C   0  0  0  0  0  0
   81.3860   16.9080   11.6000 C   0  0  0  0  0  0
   81.8920   15.6350   11.8570 C   0  0  0  0  0  0
   81.2610   14.4680   11.4410 C   0  0  0  0  0  0
   80.2110   14.3690   10.8080 O   0  0  0  0  0  0
   82.0450   13.4660   11.8340 N   0  0  0  0  0  0
   83.1430   13.8710   12.4690 C   0  0  0  0  0  0
   84.0320   13.1500   12.9200 O   0  0  0  0  0  0
   83.0700   15.2610   12.4970 C   0  0  0  0  0  0
   84.0190   16.0860   13.0940 C   0  0  0  0  0  0
   83.9420   17.3390   13.6860 C   0  0  0  0  0  0
   82.8910   18.2270   13.8920 C   0  0  0  0  0  0
   83.1140   19.4350   14.5460 C   0  0  0  0  0  0
   84.3930   19.7570   14.9930 C   0  0  0  0  0  0
   85.4480   18.8730   14.7940 C   0  0  0  0  0  0
   85.2120   17.6660   14.1450 C   0  0  0  0  0  0
   85.9680   16.6140   13.8290 N   0  0  0  0  0  0
   85.2770   15.6620   13.2000 C   0  0  0  0  0  0
   87.7400   17.4030   14.6803 H   0  0  0  0  0  0
   87.9872   16.3522   13.2446 H   0  0  0  0  0  0
   87.5517   15.6226   14.8272 H   0  0  0  0  0  0
   84.3861   22.1232   13.4070 H   0  0  0  0  0  0
   84.5331   22.6794   11.7052 H   0  0  0  0  0  0
   85.2696   21.1198   12.2073 H   0  0  0  0  0  0
   83.0539   20.2226   12.6708 H   0  0  0  0  0  0
   82.3174   21.7822   12.1687 H   0  0  0  0  0  0
   83.4924   21.5033    9.9213 H   0  0  0  0  0  0
   83.9540   19.8481   10.4446 H   0  0  0  0  0  0
   81.0798   20.8900   10.2982 H   0  0  0  0  0  0
   81.8821   19.9067    9.0270 H   0  0  0  0  0  0
   83.2678   17.8566   11.1095 H   0  0  0  0  0  0
   78.9559   20.3275   10.2760 H   0  0  0  0  0  0
   76.7671   19.2452   10.7472 H   0  0  0  0  0  0
   76.7027   16.9529   11.6957 H   0  0  0  0  0  0
   78.8140   15.7459   12.1821 H   0  0  0  0  0  0
   81.7556   12.4259   11.6230 H   0  0  0  0  0  0
   81.8903   17.9759   13.5402 H   0  0  0  0  0  0
   82.2886   20.1282   14.7082 H   0  0  0  0  0  0
   84.5679   20.7055   15.5008 H   0  0  0  0  0  0
   86.4497   19.1237   15.1432 H   0  0  0  0  0  0
   85.6699   14.7115   12.8390 H   0  0  0  0  0  0
  1 29  1  0  0  0
  1 31  1  0  0  0
  1 32  1  0  0  0
  1 33  1  0  0  0
  2  3  1  0  0  0
  2 34  1  0  0  0
  2 35  1  0  0  0
  2 36  1  0  0  0
  3  4  1  0  0  0
  3 37  1  0  0  0
  3 38  1  0  0  0
  4  5  1  0  0  0
  4 39  1  0  0  0
  4 40  1  0  0  0
  5  6  1  0  0  0
  5 41  1  0  0  0
  5 42  1  0  0  0
  6  7  1  0  0  0
  6  8  1  0  0  0
  7 14  2  0  0  0
  7 43  1  0  0  0
  8  9  1  0  0  0
  8 13  2  0  0  0
  9 10  2  0  0  0
  9 44  1  0  0  0
 10 11  1  0  0  0
 10 45  1  0  0  0
 11 12  2  0  0  0
 11 46  1  0  0  0
 12 13  1  0  0  0
 12 47  1  0  0  0
 13 14  1  0  0  0
 14 15  1  0  0  0
 15 16  1  0  0  0
 15 21  2  0  0  0
 16 17  2  0  0  0
 16 18  1  0  0  0
 18 19  1  0  0  0
 18 48  1  0  0  0
 19 20  2  0  0  0
 19 21  1  0  0  0
 21 22  1  0  0  0
 22 23  1  0  0  0
 22 30  2  0  0  0
 23 24  2  0  0  0
 23 28  1  0  0  0
 24 25  1  0  0  0
 24 49  1  0  0  0
 25 26  2  0  0  0
 25 50  1  0  0  0
 26 27  1  0  0  0
 26 51  1  0  0  0
 27 28  2  0  0  0
 27 52  1  0  0  0
 28 29  1  0  0  0
 29 30  1  0  0  0
 30 53  1  0  0  0
M  CHG  1   2   1
M  END
> <s_m_source_file>
../1uvr_ligand.sdf

> <i_m_source_file_index>
1

> <s_epik_input>
W2NIXTFbY0hdW2NIXVtjSF1jKGMxMiluKFtDSDNdKVtjSF1jMkMoQyg9TylbTkhdQzM9Tyk9QzNjKGMoYzQ1KVtjSF1bY0hdW2NIXVtjSF01KVtjSF1uNFtDSDJdW0NIMl1bQ0gyXVtOSDMrXQ==

> <s_epik_cmdline>
J2VwaWtfYXBwJywgJy1pbWFlJywgJ2xpZ2FuZF9wcm8ubWFlJywgJy1vbWFlJywgJ2xpZ2FuZF9wcmVwLm1hZScsICctbXMnLCAnMScsICctcGgnLCAnNycsICctcGh0JywgJzAuNScsICctbnQn

> <r_epik_Ionization_Penalty>
  0.0378

> <r_epik_Ionization_Penalty_Charging>
  0.0014

> <r_epik_Ionization_Penalty_Neutral>
  0.0363

> <r_epik_State_Penalty>
  0.0303

> <r_epik_Charging_Adjusted_Penalty>
0.0317821636683683

> <i_epik_Tot_Q>
1

> <i_epik_Tot_abs_Q>
1

$$$$
