1uvs_ligand
                    3D
 Schrodinger Suite 2020-3.
 68 70  0  0  1  0            999 V2000
  -14.2180   71.3980  179.0320 C   0  0  0  0  0  0
  -15.2580   70.4900  178.3270 C   0  0  0  0  0  0
  -14.6890   69.0660  178.1910 C   0  0  0  0  0  0
  -13.4110   69.0900  177.3340 C   0  0  0  0  0  0
  -12.3690   69.9550  178.0720 C   0  0  0  0  0  0
  -12.8880   71.3990  178.2650 C   0  0  0  0  0  0
  -15.9430   67.9520  177.4860 S   0  0  0  0  0  0
  -17.2430   68.2660  178.0360 O   0  0  0  0  0  0
  -15.5690   66.6470  177.9620 O   0  0  0  0  0  0
  -16.1320   67.9780  175.8560 N   0  0  3  0  0  0
  -15.6040   66.9480  175.1880 C   0  0  0  0  0  0
  -14.7440   67.2670  174.0370 C   0  0  0  0  0  0
  -14.6660   68.4630  173.7340 O   0  0  0  0  0  0
  -14.0700   66.2960  173.3860 N   0  0  0  0  0  0
  -13.3320   66.6720  172.1910 C   0  0  2  0  0  0
  -14.0640   66.1050  170.9500 C   0  0  0  0  0  0
  -13.9150   67.0190  169.7090 C   0  0  0  0  0  0
  -14.4510   68.3700  169.8780 N   0  0  0  0  0  0
  -15.6700   68.6850  169.4830 C   0  0  0  0  0  0
  -16.7890   67.9140  169.8150 C   0  0  0  0  0  0
  -18.0460   68.2720  169.2880 C   0  0  0  0  0  0
  -18.2010   69.3070  168.4930 N   0  3  0  0  0  0
  -17.2510   70.2210  168.3850 C   0  0  0  0  0  0
  -15.9320   69.9520  168.7760 C   0  0  0  0  0  0
  -11.8720   66.2470  172.2530 C   0  0  0  0  0  0
  -11.4940   65.2330  171.6780 O   0  0  0  0  0  0
  -11.0460   66.9060  173.1060 N   0  0  0  0  0  0
  -11.0360   68.3670  173.1000 C   0  0  0  0  0  0
  -10.9680   68.8510  174.5720 C   0  0  0  0  0  0
   -9.8430   68.1980  175.4210 C   0  0  0  0  0  0
   -9.1660   67.0120  174.7040 C   0  0  0  0  0  0
  -10.2470   66.1270  174.0530 C   0  0  0  0  0  0
  -14.6019   72.4278  179.0782 H   0  0  0  0  0  0
  -14.0392   71.0272  180.0521 H   0  0  0  0  0  0
  -16.1821   70.4598  178.9229 H   0  0  0  0  0  0
  -15.4791   70.8931  177.3277 H   0  0  0  0  0  0
  -14.3054   68.8309  179.1948 H   0  0  0  0  0  0
  -13.0357   68.0639  177.2066 H   0  0  0  0  0  0
  -13.6385   69.5222  176.3484 H   0  0  0  0  0  0
  -12.1635   69.5180  179.0603 H   0  0  0  0  0  0
  -11.4390   69.9889  177.4855 H   0  0  0  0  0  0
  -13.0349   71.8596  177.2769 H   0  0  0  0  0  0
  -12.1394   71.9739  178.8299 H   0  0  0  0  0  0
  -16.5081   68.8543  175.3078 H   0  0  0  0  0  0
  -14.9777   66.3522  175.8682 H   0  0  0  0  0  0
  -16.4118   66.3181  174.7872 H   0  0  0  0  0  0
  -14.0653   65.2510  173.7293 H   0  0  0  0  0  0
  -13.3240   67.7719  172.1781 H   0  0  0  0  0  0
  -13.6476   65.1186  170.6976 H   0  0  0  0  0  0
  -15.1368   66.0044  171.1712 H   0  0  0  0  0  0
  -12.8491   67.1283  169.4600 H   0  0  0  0  0  0
  -14.4464   66.5700  168.8570 H   0  0  0  0  0  0
  -13.8339   69.1522  170.3441 H   0  0  0  0  0  0
  -16.6902   67.0494  170.4714 H   0  0  0  0  0  0
  -18.9176   67.6713  169.5480 H   0  0  0  0  0  0
  -17.4989   71.2036  167.9837 H   0  0  0  0  0  0
  -15.1271   70.6559  168.5645 H   0  0  0  0  0  0
  -10.1590   68.7254  172.5411 H   0  0  0  0  0  0
  -11.9535   68.7380  172.6198 H   0  0  0  0  0  0
  -10.7917   69.9366  174.5932 H   0  0  0  0  0  0
  -11.9185   68.6240  175.0769 H   0  0  0  0  0  0
   -9.0669   68.9464  175.6391 H   0  0  0  0  0  0
  -10.2663   67.8232  176.3646 H   0  0  0  0  0  0
   -8.4852   67.3927  173.9284 H   0  0  0  0  0  0
   -8.5952   66.4195  175.4342 H   0  0  0  0  0  0
  -10.9011   65.7247  174.8406 H   0  0  0  0  0  0
   -9.7573   65.2965  173.5234 H   0  0  0  0  0  0
  -19.1271   69.4189  167.9100 H   0  0  0  0  0  0
  1  2  1  0  0  0
  1  6  1  0  0  0
  1 33  1  0  0  0
  1 34  1  0  0  0
  2  3  1  0  0  0
  2 35  1  0  0  0
  2 36  1  0  0  0
  3  4  1  0  0  0
  3  7  1  0  0  0
  3 37  1  0  0  0
  4  5  1  0  0  0
  4 38  1  0  0  0
  4 39  1  0  0  0
  5  6  1  0  0  0
  5 40  1  0  0  0
  5 41  1  0  0  0
  6 42  1  0  0  0
  6 43  1  0  0  0
  7  8  2  0  0  0
  7  9  2  0  0  0
  7 10  1  0  0  0
 10 11  1  0  0  0
 10 44  1  0  0  0
 11 12  1  0  0  0
 11 45  1  0  0  0
 11 46  1  0  0  0
 12 13  2  0  0  0
 12 14  1  0  0  0
 14 15  1  0  0  0
 14 47  1  0  0  0
 15 16  1  0  0  0
 15 25  1  0  0  0
 15 48  1  0  0  0
 16 17  1  0  0  0
 16 49  1  0  0  0
 16 50  1  0  0  0
 17 18  1  0  0  0
 17 51  1  0  0  0
 17 52  1  0  0  0
 18 19  1  0  0  0
 18 53  1  0  0  0
 19 20  2  0  0  0
 19 24  1  0  0  0
 20 21  1  0  0  0
 20 54  1  0  0  0
 21 22  2  0  0  0
 21 55  1  0  0  0
 22 23  1  0  0  0
 22 68  1  0  0  0
 23 24  2  0  0  0
 23 56  1  0  0  0
 24 57  1  0  0  0
 25 26  2  0  0  0
 25 27  1  0  0  0
 27 28  1  0  0  0
 27 32  1  0  0  0
 28 29  1  0  0  0
 28 58  1  0  0  0
 28 59  1  0  0  0
 29 30  1  0  0  0
 29 60  1  0  0  0
 29 61  1  0  0  0
 30 31  1  0  0  0
 30 62  1  0  0  0
 30 63  1  0  0  0
 31 32  1  0  0  0
 31 64  1  0  0  0
 31 65  1  0  0  0
 32 66  1  0  0  0
 32 67  1  0  0  0
M  CHG  1  22   1
M  END
> <s_m_source_file>
../1uvs_ligand.sdf

> <i_m_source_file_index>
1

> <s_epik_input>
W0NIMl0xW0NIMl1bQ0gyXVtDSDJdW0NIMl1bQ0hdMVMoPU8pKD1PKVtOSF1bQ0gyXUMoPU8pW05IXVtDQEBIXShDKD1PKU4yW0NIMl1bQ0gyXVtDSDJdW0NIMl1bQ0gyXTIpW0NIMl1bQ0gyXVtOSF1jM1tjSF1bY0hdbltjSF1bY0hdMw==

> <s_epik_cmdline>
J2VwaWtfYXBwJywgJy1pbWFlJywgJ2xpZ2FuZF9wcm8ubWFlJywgJy1vbWFlJywgJ2xpZ2FuZF9wcmVwLm1hZScsICctbXMnLCAnMScsICctcGgnLCAnNycsICctcGh0JywgJzAuNScsICctbnQn

> <r_lp_tautomer_probability>
1

> <r_epik_Ionization_Penalty>
  0.0029

> <r_epik_Ionization_Penalty_Charging>
  0.0029

> <r_epik_Ionization_Penalty_Neutral>
  0.0000

> <r_epik_State_Penalty>
 -0.0000

> <r_epik_Charging_Adjusted_Penalty>
0.00288371778104378

> <i_epik_Tot_Q>
1

> <i_epik_Tot_abs_Q>
1

$$$$
