1uvt_ligand
                    3D
 Schrodinger Suite 2020-3.
 49 51  0  0  1  0            999 V2000
   45.6890   56.1380   40.4510 N   0  3  0  0  0  0
   47.0040   55.6120   40.5200 C   0  0  0  0  0  0
   48.0910   56.4960   40.4990 C   0  0  0  0  0  0
   47.9000   57.8890   40.4890 C   0  0  0  0  0  0
   46.6050   58.4010   40.3980 C   0  0  0  0  0  0
   45.5020   57.5480   40.4580 C   0  0  0  0  0  0
   49.0120   58.7930   40.4820 N   0  0  0  0  0  0
   50.3570   58.2420   40.4260 C   0  0  0  0  0  0
   51.3090   58.9710   41.3910 C   0  0  0  0  0  0
   50.7670   59.0030   42.7200 O   0  0  0  0  0  0
   51.6860   59.2410   43.7660 C   0  0  0  0  0  0
   51.6380   58.5000   44.9710 C   0  0  0  0  0  0
   52.2140   59.0250   46.1450 C   0  0  0  0  0  0
   53.0180   60.1840   46.0710 C   0  0  0  0  0  0
   53.1420   60.8710   44.8590 C   0  0  0  0  0  0
   52.5570   60.3530   43.6960 C   0  0  0  0  0  0
   54.1780   61.9570   44.7040 C   0  0  0  0  0  0
   52.2660   58.2310   47.3180 N   0  0  0  0  0  0
   50.9340   58.3490   48.2640 S   0  0  0  0  0  0
   51.1400   57.4350   49.3600 O   0  0  0  0  0  0
   49.7050   58.0150   47.5850 O   0  0  0  0  0  0
   50.7250   59.9530   48.9100 C   0  0  0  0  0  0
   49.4410   60.5040   48.9530 C   0  0  0  0  0  0
   49.3270   61.8920   49.1570 C   0  0  0  0  0  0
   50.3900   62.5890   49.7680 C   0  0  0  0  0  0
   51.6420   61.9500   49.9290 C   0  0  0  0  0  0
   51.7980   60.5990   49.5380 C   0  0  0  0  0  0
   47.1668   54.5364   40.5883 H   0  0  0  0  0  0
   49.1048   56.0958   40.4902 H   0  0  0  0  0  0
   46.4540   59.4739   40.2793 H   0  0  0  0  0  0
   44.4955   57.9631   40.5103 H   0  0  0  0  0  0
   48.8650   59.8825   40.5179 H   0  0  0  0  0  0
   50.3292   57.1780   40.7037 H   0  0  0  0  0  0
   50.7529   58.3441   39.4048 H   0  0  0  0  0  0
   52.2764   58.4480   41.4165 H   0  0  0  0  0  0
   51.4600   60.0046   41.0461 H   0  0  0  0  0  0
   51.1553   57.5229   44.9909 H   0  0  0  0  0  0
   53.5412   60.5426   46.9574 H   0  0  0  0  0  0
   52.7747   60.8102   42.7307 H   0  0  0  0  0  0
   54.5430   62.2599   45.6965 H   0  0  0  0  0  0
   53.7275   62.8240   44.1987 H   0  0  0  0  0  0
   55.0187   61.5788   44.1038 H   0  0  0  0  0  0
   53.0975   57.5763   47.6181 H   0  0  0  0  0  0
   48.5563   59.8787   48.8324 H   0  0  0  0  0  0
   48.4269   62.4224   48.8461 H   0  0  0  0  0  0
   50.2480   63.6129   50.1138 H   0  0  0  0  0  0
   52.4841   62.4969   50.3531 H   0  0  0  0  0  0
   52.7340   60.0716   49.7217 H   0  0  0  0  0  0
   44.8185   55.4680   40.3925 H   0  0  0  0  0  0
  1  6  2  0  0  0
  1  2  1  0  0  0
  1 49  1  0  0  0
  2  3  2  0  0  0
  2 28  1  0  0  0
  3  4  1  0  0  0
  3 29  1  0  0  0
  4  7  1  0  0  0
  4  5  2  0  0  0
  5  6  1  0  0  0
  5 30  1  0  0  0
  6 31  1  0  0  0
  7  8  1  0  0  0
  7 32  1  0  0  0
  8  9  1  0  0  0
  8 33  1  0  0  0
  8 34  1  0  0  0
  9 10  1  0  0  0
  9 35  1  0  0  0
  9 36  1  0  0  0
 10 11  1  0  0  0
 11 16  2  0  0  0
 11 12  1  0  0  0
 12 13  2  0  0  0
 12 37  1  0  0  0
 13 18  1  0  0  0
 13 14  1  0  0  0
 14 15  2  0  0  0
 14 38  1  0  0  0
 15 17  1  0  0  0
 15 16  1  0  0  0
 16 39  1  0  0  0
 17 40  1  0  0  0
 17 41  1  0  0  0
 17 42  1  0  0  0
 18 19  1  0  0  0
 18 43  1  0  0  0
 19 22  1  0  0  0
 19 21  2  0  0  0
 19 20  2  0  0  0
 22 27  2  0  0  0
 22 23  1  0  0  0
 23 24  2  0  0  0
 23 44  1  0  0  0
 24 25  1  0  0  0
 24 45  1  0  0  0
 25 26  2  0  0  0
 25 46  1  0  0  0
 26 27  1  0  0  0
 26 47  1  0  0  0
 27 48  1  0  0  0
M  CHG  1   1   1
M  END
> <s_m_source_file>
../1uvt_ligand.sdf

> <i_m_source_file_index>
1

> <s_epik_input>
W2NIXTFbY0hdbltjSF1bY0hdYzFbTkhdW0NIMl1bQ0gyXU9jMltjSF1jKFtjSF1jKFtjSF0yKVtDSDNdKVtOSF1TKD1PKSg9TyljM1tjSF1bY0hdW2NIXVtjSF1bY0hdMw==

> <s_epik_cmdline>
J2VwaWtfYXBwJywgJy1pbWFlJywgJ2xpZ2FuZF9wcm8ubWFlJywgJy1vbWFlJywgJ2xpZ2FuZF9wcmVwLm1hZScsICctbXMnLCAnMScsICctcGgnLCAnNycsICctcGh0JywgJzAuNScsICctbnQn

> <r_lp_tautomer_probability>
0.9999999999368

> <r_epik_Ionization_Penalty>
  0.0190

> <r_epik_Ionization_Penalty_Charging>
  0.0022

> <r_epik_Ionization_Penalty_Neutral>
  0.0168

> <r_epik_State_Penalty>
  0.0133

> <r_epik_Charging_Adjusted_Penalty>
0.01549028613461

> <i_epik_Tot_Q>
1

> <i_epik_Tot_abs_Q>
1

$$$$
