1uvu_ligand
                    3D
 Schrodinger Suite 2020-3.
 39 40  0  0  1  0            999 V2000
  -40.5130  -31.7940   40.6990 C   0  0  0  0  0  0
  -41.4660  -30.9130   40.4530 N   0  0  0  0  0  0
  -40.6450  -33.1040   40.7160 N   0  3  0  0  0  0
  -39.1950  -31.1150   40.9500 C   0  0  0  0  0  0
  -38.3370  -31.6200   41.9030 C   0  0  0  0  0  0
  -37.1250  -30.9650   42.1090 C   0  0  0  0  0  0
  -36.2890  -31.5020   43.0770 C   0  0  0  0  0  0
  -35.0500  -30.9210   43.3510 C   0  0  0  0  0  0
  -34.6680  -29.7420   42.6540 C   0  0  0  0  0  0
  -35.5100  -29.1720   41.6780 C   0  0  0  0  0  0
  -36.7450  -29.7830   41.3980 C   0  0  0  0  0  0
  -37.5960  -29.2590   40.4370 C   0  0  0  0  0  0
  -38.8120  -29.9430   40.2200 C   0  0  0  0  0  0
  -34.2340  -31.5860   44.4640 C   0  0  0  0  0  0
  -34.7480  -30.9950   45.8200 C   0  0  0  0  0  0
  -34.7110  -29.4350   45.9130 C   0  0  0  0  0  0
  -35.5520  -28.8830   46.6220 O   0  0  0  0  0  0
  -33.7450  -28.7320   45.1840 O   0  0  0  0  0  0
  -33.1660  -27.4690   45.7410 C   0  0  0  0  0  0
  -32.5910  -26.8750   44.4140 C   0  0  0  0  0  0
  -42.4915  -31.2546   40.2489 H   0  0  0  0  0  0
  -41.2341  -29.8377   40.4522 H   0  0  0  0  0  0
  -41.6279  -33.5602   40.5271 H   0  0  0  0  0  0
  -38.5995  -32.5071   42.4794 H   0  0  0  0  0  0
  -36.6032  -32.3874   43.6297 H   0  0  0  0  0  0
  -33.7102  -29.2723   42.8777 H   0  0  0  0  0  0
  -35.2077  -28.2693   41.1472 H   0  0  0  0  0  0
  -37.3384  -28.3611   39.8753 H   0  0  0  0  0  0
  -39.4930  -29.5606   39.4596 H   0  0  0  0  0  0
  -34.3872  -32.6748   44.4304 H   0  0  0  0  0  0
  -33.1668  -31.3613   44.3206 H   0  0  0  0  0  0
  -35.7939  -31.2967   45.9784 H   0  0  0  0  0  0
  -34.1276  -31.3759   46.6446 H   0  0  0  0  0  0
  -33.9658  -26.8714   46.2027 H   0  0  0  0  0  0
  -32.4085  -27.7161   46.4994 H   0  0  0  0  0  0
  -32.1073  -25.9096   44.6238 H   0  0  0  0  0  0
  -33.4092  -26.7264   43.6940 H   0  0  0  0  0  0
  -31.8520  -27.5711   43.9907 H   0  0  0  0  0  0
  -39.7723  -33.7421   40.9191 H   0  0  0  0  0  0
  1  2  1  0  0  0
  1  3  2  0  0  0
  1  4  1  0  0  0
  2 21  1  0  0  0
  2 22  1  0  0  0
  3 23  1  0  0  0
  3 39  1  0  0  0
  4  5  2  0  0  0
  4 13  1  0  0  0
  5  6  1  0  0  0
  5 24  1  0  0  0
  6  7  2  0  0  0
  6 11  1  0  0  0
  7  8  1  0  0  0
  7 25  1  0  0  0
  8  9  2  0  0  0
  8 14  1  0  0  0
  9 10  1  0  0  0
  9 26  1  0  0  0
 10 11  2  0  0  0
 10 27  1  0  0  0
 11 12  1  0  0  0
 12 13  2  0  0  0
 12 28  1  0  0  0
 13 29  1  0  0  0
 14 15  1  0  0  0
 14 30  1  0  0  0
 14 31  1  0  0  0
 15 16  1  0  0  0
 15 32  1  0  0  0
 15 33  1  0  0  0
 16 17  2  0  0  0
 16 18  1  0  0  0
 18 19  1  0  0  0
 19 20  1  0  0  0
 19 34  1  0  0  0
 19 35  1  0  0  0
 20 36  1  0  0  0
 20 37  1  0  0  0
 20 38  1  0  0  0
M  CHG  1   3   1
M  END
> <s_m_source_file>
../1uvu_ligand.sdf

> <i_m_source_file_index>
1

> <s_epik_input>
W0hdXE49QyhcW05IMl0pYyhbY0hdMSlbY0hdW2NIXWMoYzEyKVtjSF1bY0hdYyhbY0hdMilbQ0gyXVtDSDJdQyg9TylPW0NIMl1bQ0gzXQ==

> <s_epik_cmdline>
J2VwaWtfYXBwJywgJy1pbWFlJywgJ2xpZ2FuZF9wcm8ubWFlJywgJy1vbWFlJywgJ2xpZ2FuZF9wcmVwLm1hZScsICctbXMnLCAnMScsICctcGgnLCAnNycsICctcGh0JywgJzAuNScsICctbnQn

> <r_lp_tautomer_probability>
1

> <r_epik_Ionization_Penalty>
  0.0003

> <r_epik_Ionization_Penalty_Charging>
  0.0003

> <r_epik_Ionization_Penalty_Neutral>
  0.0000

> <r_epik_State_Penalty>
 -0.0000

> <r_epik_Charging_Adjusted_Penalty>
0.0003115973184836

> <i_epik_Tot_Q>
1

> <i_epik_Tot_abs_Q>
1

> <s_epik_Chemistry_Notes>
This compound has an ester and may undergo hydrolysis at high or low pH. This compound has an imine and may undergo hydrolysis.

$$$$
