1uw6_ligand
                    3D
 Schrodinger Suite 2020-3.
 27 28  0  0  1  0            999 V2000
   81.7260   69.9810   -7.9430 N   0  0  0  0  0  0
   82.9260   69.9090   -8.6150 C   0  0  0  0  0  0
   83.0690   69.2560   -9.8570 C   0  0  0  0  0  0
   81.9220   68.6110  -10.3710 C   0  0  0  0  0  0
   80.7050   68.6170   -9.6410 C   0  0  0  0  0  0
   80.6360   69.3450   -8.4410 C   0  0  0  0  0  0
   84.7730   70.4880  -11.3170 N   0  3  1  0  0  0
   84.3480   69.2120  -10.6390 C   0  0  1  0  0  0
   85.5370   68.7450   -9.8010 C   0  0  0  0  0  0
   86.7370   69.4340  -10.4240 C   0  0  0  0  0  0
   86.2330   70.6250  -11.2350 C   0  0  0  0  0  0
   84.5020   70.4860  -12.7560 C   0  0  0  0  0  0
   83.8030   70.3768   -8.1678 H   0  0  0  0  0  0
   81.9721   68.1051  -11.3352 H   0  0  0  0  0  0
   79.8379   68.0659  -10.0052 H   0  0  0  0  0  0
   79.6907   69.3996   -7.9011 H   0  0  0  0  0  0
   84.2244   71.3073  -10.8294 H   0  0  0  0  0  0
   84.0676   68.4980  -11.4274 H   0  0  0  0  0  0
   85.3889   69.0475   -8.7538 H   0  0  0  0  0  0
   85.6182   67.6495   -9.8582 H   0  0  0  0  0  0
   87.4161   69.7770   -9.6296 H   0  0  0  0  0  0
   87.2667   68.7267  -11.0791 H   0  0  0  0  0  0
   86.6594   70.6181  -12.2490 H   0  0  0  0  0  0
   86.4850   71.5733  -10.7378 H   0  0  0  0  0  0
   83.4197   70.3862  -12.9251 H   0  0  0  0  0  0
   85.0261   69.6411  -13.2266 H   0  0  0  0  0  0
   84.8567   71.4292  -13.1972 H   0  0  0  0  0  0
  1  2  2  0  0  0
  1  6  1  0  0  0
  2  3  1  0  0  0
  2 13  1  0  0  0
  3  4  2  0  0  0
  3  8  1  0  0  0
  4  5  1  0  0  0
  4 14  1  0  0  0
  5  6  2  0  0  0
  5 15  1  0  0  0
  6 16  1  0  0  0
  7  8  1  0  0  0
  7 11  1  0  0  0
  7 12  1  0  0  0
  7 17  1  0  0  0
  8  9  1  0  0  0
  8 18  1  0  0  0
  9 10  1  0  0  0
  9 19  1  0  0  0
  9 20  1  0  0  0
 10 11  1  0  0  0
 10 21  1  0  0  0
 10 22  1  0  0  0
 11 23  1  0  0  0
 11 24  1  0  0  0
 12 25  1  0  0  0
 12 26  1  0  0  0
 12 27  1  0  0  0
M  CHG  1   7   1
M  END
> <s_m_source_file>
../1uw6_ligand.sdf

> <i_m_source_file_index>
1

> <s_epik_input>
W2NIXTFbY0hdW2NIXW5bY0hdYzFbQ0BASF0oW05AQEgrXTJbQ0gzXSlbQ0gyXVtDSDJdW0NIMl0y

> <s_epik_cmdline>
J2VwaWtfYXBwJywgJy1pbWFlJywgJ2xpZ2FuZF9wcm8ubWFlJywgJy1vbWFlJywgJ2xpZ2FuZF9wcmVwLm1hZScsICctbXMnLCAnMScsICctcGgnLCAnNycsICctcGh0JywgJzAuNScsICctbnQn

> <r_lp_tautomer_probability>
1

> <r_epik_Ionization_Penalty>
  0.0329

> <r_epik_Ionization_Penalty_Charging>
  0.0294

> <r_epik_Ionization_Penalty_Neutral>
  0.0035

> <r_epik_State_Penalty>
 -0.0000

> <r_epik_Charging_Adjusted_Penalty>
0.0293941144825489

> <i_epik_Tot_Q>
1

> <i_epik_Tot_abs_Q>
1

$$$$
