1uwb_ligand
                    3D
 Schrodinger Suite 2020-3.
 41 43  0  0  1  0            999 V2000
  141.4970  -25.3980   71.5960 N   0  0  0  0  0  0
  142.1040  -25.8440   72.8160 C   0  0  0  0  0  0
  142.4550  -24.5720   70.9310 C   0  0  0  0  0  0
  142.2550  -23.7960   69.4350 S   0  5  0  0  0  0
  143.6120  -24.5610   71.7120 N   0  0  0  0  0  0
  143.3270  -25.3030   72.8470 C   0  0  0  0  0  0
  144.8140  -23.9420   71.2260 C   0  0  0  0  0  0
  145.4980  -23.0340   72.1840 C   0  0  1  0  0  0
  145.4360  -23.3420   73.5970 N   0  3  1  0  0  0
  145.5750  -24.7420   73.8760 C   0  0  0  0  0  0
  144.2360  -25.4030   73.9080 C   0  0  0  0  0  0
  143.8450  -26.1990   75.0330 C   0  0  0  0  0  0
  144.8780  -26.3460   76.4260 Cl  0  0  0  0  0  0
  142.5870  -26.8370   75.0380 C   0  0  0  0  0  0
  141.7090  -26.6630   73.8970 C   0  0  0  0  0  0
  146.9010  -23.2960   71.8330 C   0  0  0  0  0  0
  145.8800  -22.3500   74.6520 C   0  0  0  0  0  0
  144.7590  -22.0250   75.6250 C   0  0  0  0  0  0
  144.7820  -21.4460   76.8150 C   0  0  0  0  0  0
  143.3780  -21.4150   77.2860 C   0  0  0  0  0  0
  146.0530  -20.9630   77.4590 C   0  0  0  0  0  0
  145.5449  -24.7196   70.9594 H   0  0  0  0  0  0
  144.5814  -23.3372   70.3371 H   0  0  0  0  0  0
  145.0521  -22.0309   72.1134 H   0  0  0  0  0  0
  144.3569  -23.1747   73.7292 H   0  0  0  0  0  0
  146.1878  -25.2128   73.0932 H   0  0  0  0  0  0
  146.0629  -24.8745   74.8529 H   0  0  0  0  0  0
  142.2800  -27.4504   75.8851 H   0  0  0  0  0  0
  140.7420  -27.1654   73.8735 H   0  0  0  0  0  0
  147.0562  -23.0894   70.7638 H   0  0  0  0  0  0
  147.1406  -24.3492   72.0415 H   0  0  0  0  0  0
  147.5562  -22.6456   72.4311 H   0  0  0  0  0  0
  146.7211  -22.7722   75.2214 H   0  0  0  0  0  0
  146.1984  -21.4159   74.1661 H   0  0  0  0  0  0
  143.8034  -22.3581   75.1938 H   0  0  0  0  0  0
  142.7259  -21.8684   76.5250 H   0  0  0  0  0  0
  143.0717  -20.3725   77.4574 H   0  0  0  0  0  0
  143.2938  -21.9811   78.2254 H   0  0  0  0  0  0
  146.9026  -21.1650   76.7902 H   0  0  0  0  0  0
  146.2039  -21.4897   78.4128 H   0  0  0  0  0  0
  145.9817  -19.8812   77.6448 H   0  0  0  0  0  0
  1  2  1  0  0  0
  1  3  2  0  0  0
  2  6  2  0  0  0
  2 15  1  0  0  0
  3  4  1  0  0  0
  3  5  1  0  0  0
  5  6  1  0  0  0
  5  7  1  0  0  0
  6 11  1  0  0  0
  7  8  1  0  0  0
  7 22  1  0  0  0
  7 23  1  0  0  0
  8  9  1  0  0  0
  8 16  1  0  0  0
  8 24  1  0  0  0
  9 10  1  0  0  0
  9 17  1  0  0  0
  9 25  1  0  0  0
 10 11  1  0  0  0
 10 26  1  0  0  0
 10 27  1  0  0  0
 11 12  2  0  0  0
 12 13  1  0  0  0
 12 14  1  0  0  0
 14 15  2  0  0  0
 14 28  1  0  0  0
 15 29  1  0  0  0
 16 30  1  0  0  0
 16 31  1  0  0  0
 16 32  1  0  0  0
 17 18  1  0  0  0
 17 33  1  0  0  0
 17 34  1  0  0  0
 18 19  2  0  0  0
 18 35  1  0  0  0
 19 20  1  0  0  0
 19 21  1  0  0  0
 20 36  1  0  0  0
 20 37  1  0  0  0
 20 38  1  0  0  0
 21 39  1  0  0  0
 21 40  1  0  0  0
 21 41  1  0  0  0
M  CHG  2   4  -1   9   1
M  END
> <s_m_source_file>
../1uwb_ligand.sdf

> <i_m_source_file_index>
1

> <s_epik_input>
W25IXTFjKD1TKW4oYzJjMTMpW0NIMl1bQ0BIXShbQ0gzXSlbTkBIK10oW0NIMl1bQ0hdPUMoW0NIM10pW0NIM10pW0NIMl1jMmMoQ2wpW2NIXVtjSF0z

> <s_epik_cmdline>
J2VwaWtfYXBwJywgJy1pbWFlJywgJ2xpZ2FuZF9wcm8ubWFlJywgJy1vbWFlJywgJ2xpZ2FuZF9wcmVwLm1hZScsICctbXMnLCAnMScsICctcGgnLCAnNycsICctcGh0JywgJzAuNScsICctbnQn

> <r_epik_Ionization_Penalty>
  0.3584

> <r_epik_Ionization_Penalty_Charging>
  0.0106

> <r_epik_Ionization_Penalty_Neutral>
  0.3478

> <r_epik_State_Penalty>
  0.3438

> <r_epik_Charging_Adjusted_Penalty>
0.35442539940881

> <i_epik_Tot_Q>
0

> <i_epik_Tot_abs_Q>
2

$$$$
