1uwf_ligand
                    3D
 Schrodinger Suite 2020-3.
 36 36  0  0  1  0            999 V2000
    9.6880   14.7890   40.6340 C   0  0  0  0  0  0
    9.6030   14.0160   41.9330 C   0  0  0  0  0  0
    9.0430   15.4140   38.1340 C   0  0  0  0  0  0
    8.8570   14.5640   39.3790 C   0  0  0  0  0  0
    7.2140   14.8730   34.8130 C   0  0  1  0  0  0
    7.4110   15.3800   33.5040 O   0  0  0  0  0  0
    7.3680   13.2960   34.7580 C   0  0  1  0  0  0
    6.3800   12.7570   33.8740 O   0  0  0  0  0  0
    8.7660   12.9250   34.2330 C   0  0  2  0  0  0
    8.9190   11.4860   34.1850 O   0  0  0  0  0  0
    9.8510   13.5190   35.1970 C   0  0  2  0  0  0
    9.6810   15.0020   35.2810 O   0  0  0  0  0  0
   11.2620   13.2090   34.7100 C   0  0  0  0  0  0
   11.5150   13.7850   33.4460 O   0  0  0  0  0  0
    8.1120   14.9640   37.1100 O   0  0  0  0  0  0
    8.3350   15.4590   35.7760 C   0  0  2  0  0  0
    9.4690   15.8501   40.8238 H   0  0  0  0  0  0
   10.7008   14.6928   40.2156 H   0  0  0  0  0  0
   10.3350   14.4193   42.6482 H   0  0  0  0  0  0
    9.8220   12.9549   41.7432 H   0  0  0  0  0  0
    8.5902   14.1123   42.3513 H   0  0  0  0  0  0
    8.8458   16.4685   38.3772 H   0  0  0  0  0  0
   10.0753   15.3087   37.7690 H   0  0  0  0  0  0
    9.0223   13.5417   39.0082 H   0  0  0  0  0  0
    7.7914   14.7004   39.6154 H   0  0  0  0  0  0
    6.2024   15.2056   35.0886 H   0  0  0  0  0  0
    6.7298   15.0859   32.6920 H   0  0  0  0  0  0
    7.1841   12.8167   35.7309 H   0  0  0  0  0  0
    5.3114   12.9164   34.0807 H   0  0  0  0  0  0
    8.8814   13.2668   33.1938 H   0  0  0  0  0  0
    8.2461   10.8819   33.5587 H   0  0  0  0  0  0
    9.7360   13.0923   36.2043 H   0  0  0  0  0  0
   11.9937   13.6103   35.4266 H   0  0  0  0  0  0
   11.3901   12.1197   34.6265 H   0  0  0  0  0  0
   12.4944   13.6467   32.9647 H   0  0  0  0  0  0
    8.3336   16.5554   35.8644 H   0  0  0  0  0  0
  1  2  1  0  0  0
  1  4  1  0  0  0
  1 17  1  0  0  0
  1 18  1  0  0  0
  2 19  1  0  0  0
  2 20  1  0  0  0
  2 21  1  0  0  0
  3  4  1  0  0  0
  3 15  1  0  0  0
  3 22  1  0  0  0
  3 23  1  0  0  0
  4 24  1  0  0  0
  4 25  1  0  0  0
  5  6  1  0  0  0
  5  7  1  0  0  0
  5 16  1  0  0  0
  5 26  1  0  0  0
  6 27  1  0  0  0
  7  8  1  0  0  0
  7  9  1  0  0  0
  7 28  1  0  0  0
  8 29  1  0  0  0
  9 10  1  0  0  0
  9 11  1  0  0  0
  9 30  1  0  0  0
 10 31  1  0  0  0
 11 12  1  0  0  0
 11 13  1  0  0  0
 11 32  1  0  0  0
 12 16  1  0  0  0
 13 14  1  0  0  0
 13 33  1  0  0  0
 13 34  1  0  0  0
 14 35  1  0  0  0
 15 16  1  0  0  0
 16 36  1  0  0  0
M  END
> <s_m_source_file>
../1uwf_ligand.sdf

> <i_m_source_file_index>
1

> <s_epik_input>
W0NIM11bQ0gyXVtDSDJdW0NIMl1PW0NASF0xT1tDQEhdKFtDSDJdW09IXSlbQ0BASF0oW09IXSlbQ0BIXShbT0hdKVtDQEBIXTFbT0hd

> <s_epik_cmdline>
J2VwaWtfYXBwJywgJy1pbWFlJywgJ2xpZ2FuZF9wcm8ubWFlJywgJy1vbWFlJywgJ2xpZ2FuZF9wcmVwLm1hZScsICctbXMnLCAnMScsICctcGgnLCAnNycsICctcGh0JywgJzAuNScsICctbnQn

> <r_lp_tautomer_probability>
1

> <r_epik_Ionization_Penalty>
  0.0000

> <r_epik_Ionization_Penalty_Charging>
  0.0000

> <r_epik_Ionization_Penalty_Neutral>
  0.0000

> <r_epik_State_Penalty>
 -0.0000

> <r_epik_Charging_Adjusted_Penalty>
0

> <i_epik_Tot_Q>
0

> <i_epik_Tot_abs_Q>
0

> <s_epik_Chemistry_Notes>
This compound contains an acetal/aminal-like group ( X-CH(R)-Y where X, Y are N, S, or O) that may be acid/base labile, releasing an aldehyde.

$$$$
