1uwh_ligand
                    3D
 Schrodinger Suite 2020-3.
 48 50  0  0  1  0            999 V2000
   77.6250   47.8530   68.5610 C   0  0  0  0  0  0
   77.1990   48.8230   67.6770 C   0  0  0  0  0  0
   77.0410   50.1520   68.0650 C   0  0  0  0  0  0
   77.3070   50.5060   69.3560 C   0  0  0  0  0  0
   76.1690   47.3550   65.5280 C   0  0  0  0  0  0
   75.3080   46.2050   63.3490 C   0  0  0  0  0  0
   75.7030   45.8670   61.9800 C   0  0  0  0  0  0
   74.9730   44.9030   61.2950 C   0  0  0  0  0  0
   73.8960   44.2580   61.8870 C   0  0  0  0  0  0
   73.5170   44.5670   63.2070 C   0  0  0  0  0  0
   74.2130   45.5420   63.9430 C   0  0  0  0  0  0
   73.2130   43.3320   61.1480 O   0  0  0  0  0  0
   74.6220   41.3330   61.8990 C   0  0  0  0  0  0
   74.6010   39.9590   62.0580 C   0  0  0  0  0  0
   72.2730   39.9270   61.2150 C   0  0  0  0  0  0
   72.3300   41.2550   61.0770 C   0  0  0  0  0  0
   70.5070   37.9140   61.3520 N   0  0  0  0  0  0
   70.0640   37.0280   60.3220 C   0  0  0  0  0  0
   77.7370   49.5450   70.2650 C   0  0  0  0  0  0
   77.9050   48.1580   69.8670 C   0  0  0  0  0  0
   78.3340   47.1480   70.7270 C   0  0  0  0  0  0
   79.5630   47.3940   71.1380 F   0  0  0  0  0  0
   77.5040   47.0700   71.7710 F   0  0  0  0  0  0
   78.3720   45.9370   70.1830 F   0  0  0  0  0  0
   78.0460   50.1400   71.9170 Cl  0  0  0  0  0  0
   76.9190   48.4000   66.3580 N   0  0  0  0  0  0
   76.0650   47.3550   64.1450 N   0  0  0  0  0  0
   76.2500   46.2990   66.0550 O   0  0  0  0  0  0
   73.4160   41.9760   61.3840 C   0  0  0  0  0  0
   73.3930   39.2430   61.7070 N   0  0  0  0  0  0
   70.9260   39.2220   60.8210 C   0  0  0  0  0  0
   69.9160   39.9770   60.5670 O   0  0  0  0  0  0
   77.7408   46.8261   68.2142 H   0  0  0  0  0  0
   76.7087   50.9004   67.3456 H   0  0  0  0  0  0
   77.1826   51.5410   69.6745 H   0  0  0  0  0  0
   76.5521   46.3613   61.5080 H   0  0  0  0  0  0
   75.2518   44.6484   60.2725 H   0  0  0  0  0  0
   72.6756   44.0452   63.6630 H   0  0  0  0  0  0
   73.9099   45.7833   64.9618 H   0  0  0  0  0  0
   75.5083   41.9159   62.1495 H   0  0  0  0  0  0
   75.4735   39.4281   62.4386 H   0  0  0  0  0  0
   71.4513   41.7758   60.6967 H   0  0  0  0  0  0
   70.5055   37.5825   62.4009 H   0  0  0  0  0  0
   69.7631   36.0686   60.7680 H   0  0  0  0  0  0
   70.8823   36.8592   59.6066 H   0  0  0  0  0  0
   69.2056   37.4743   59.7986 H   0  0  0  0  0  0
   77.3428   48.9474   65.5032 H   0  0  0  0  0  0
   76.5152   48.1702   63.5596 H   0  0  0  0  0  0
  1  2  2  0  0  0
  1 20  1  0  0  0
  1 33  1  0  0  0
  2  3  1  0  0  0
  2 26  1  0  0  0
  3  4  2  0  0  0
  3 34  1  0  0  0
  4 19  1  0  0  0
  4 35  1  0  0  0
  5 26  1  0  0  0
  5 27  1  0  0  0
  5 28  2  0  0  0
  6  7  2  0  0  0
  6 11  1  0  0  0
  6 27  1  0  0  0
  7  8  1  0  0  0
  7 36  1  0  0  0
  8  9  2  0  0  0
  8 37  1  0  0  0
  9 10  1  0  0  0
  9 12  1  0  0  0
 10 11  2  0  0  0
 10 38  1  0  0  0
 11 39  1  0  0  0
 12 29  1  0  0  0
 13 14  2  0  0  0
 13 29  1  0  0  0
 13 40  1  0  0  0
 14 30  1  0  0  0
 14 41  1  0  0  0
 15 16  1  0  0  0
 15 30  2  0  0  0
 15 31  1  0  0  0
 16 29  2  0  0  0
 16 42  1  0  0  0
 17 18  1  0  0  0
 17 31  1  0  0  0
 17 43  1  0  0  0
 18 44  1  0  0  0
 18 45  1  0  0  0
 18 46  1  0  0  0
 19 20  2  0  0  0
 19 25  1  0  0  0
 20 21  1  0  0  0
 21 22  1  0  0  0
 21 23  1  0  0  0
 21 24  1  0  0  0
 26 47  1  0  0  0
 27 48  1  0  0  0
 31 32  2  0  0  0
M  END
> <s_m_source_file>
../1uwh_ligand.sdf

> <i_m_source_file_index>
1

> <s_epik_input>
W2NIXTFbY0hdYyhDbCljKEMoRikoRilGKVtjSF1jMVtOSF1DKD1PKVtOSF1jMltjSF1bY0hdYyhbY0hdW2NIXTIpT2MoW2NIXVtjSF1uMylbY0hdYzNDKD1PKVtOSF1bQ0gzXQ==

> <s_epik_cmdline>
J2VwaWtfYXBwJywgJy1pbWFlJywgJ2xpZ2FuZF9wcm8ubWFlJywgJy1vbWFlJywgJ2xpZ2FuZF9wcmVwLm1hZScsICctbXMnLCAnMScsICctcGgnLCAnNycsICctcGh0JywgJzAuNScsICctbnQn

> <r_lp_tautomer_probability>
1

> <r_epik_Ionization_Penalty>
  0.0154

> <r_epik_Ionization_Penalty_Charging>
  0.0000

> <r_epik_Ionization_Penalty_Neutral>
  0.0154

> <r_epik_State_Penalty>
 -0.0000

> <r_epik_Charging_Adjusted_Penalty>
0

> <i_epik_Tot_Q>
0

> <i_epik_Tot_abs_Q>
0

$$$$
