1uwt_ligand
                    3D
 Schrodinger Suite 2020-3.
 25 25  0  0  1  0            999 V2000
  119.3410   38.7040   64.7170 C   0  0  0  0  0  0
  118.7030   38.8310   65.8720 N   0  0  0  0  0  0
  118.8190   37.5970   63.7760 C   0  0  2  0  0  0
  120.3920   39.5900   64.4340 N   0  0  0  0  0  0
  118.8930   40.0260   66.5570 O   0  0  0  0  0  0
  118.7250   36.3890   64.4950 O   0  0  0  0  0  0
  119.8420   37.4220   62.6450 C   0  0  1  0  0  0
  119.2140   36.7030   61.6040 O   0  0  0  0  0  0
  120.4200   38.7570   62.0970 C   0  0  1  0  0  0
  119.3120   39.5740   61.7840 O   0  0  0  0  0  0
  121.2460   39.3860   63.2530 C   0  0  1  0  0  0
  121.9620   40.7360   62.9390 C   0  0  0  0  0  0
  121.0770   41.8230   63.1270 O   0  0  0  0  0  0
  117.8017   37.7905   63.4051 H   0  0  0  0  0  0
  120.5747   40.4429   65.1042 H   0  0  0  0  0  0
  118.3911   40.1929   67.5215 H   0  0  0  0  0  0
  118.0392   36.3107   65.3515 H   0  0  0  0  0  0
  120.6794   36.8047   63.0024 H   0  0  0  0  0  0
  118.7469   35.7291   61.8122 H   0  0  0  0  0  0
  120.9971   38.6825   61.1635 H   0  0  0  0  0  0
  118.6176   39.2764   60.9845 H   0  0  0  0  0  0
  122.0218   38.6416   63.4856 H   0  0  0  0  0  0
  122.8248   40.8582   63.6103 H   0  0  0  0  0  0
  122.3074   40.7336   61.8946 H   0  0  0  0  0  0
  121.4234   42.8516   62.9478 H   0  0  0  0  0  0
  1  2  2  0  0  0
  1  3  1  0  0  0
  1  4  1  0  0  0
  2  5  1  0  0  0
  3  6  1  0  0  0
  3  7  1  0  0  0
  3 14  1  0  0  0
  4 11  1  0  0  0
  4 15  1  0  0  0
  5 16  1  0  0  0
  6 17  1  0  0  0
  7  8  1  0  0  0
  7  9  1  0  0  0
  7 18  1  0  0  0
  8 19  1  0  0  0
  9 10  1  0  0  0
  9 11  1  0  0  0
  9 20  1  0  0  0
 10 21  1  0  0  0
 11 12  1  0  0  0
 11 22  1  0  0  0
 12 13  1  0  0  0
 12 23  1  0  0  0
 12 24  1  0  0  0
 13 25  1  0  0  0
M  END
> <s_m_source_file>
../1uwt_ligand.sdf

> <i_m_source_file_index>
1

> <s_epik_input>
W09IXVxOPUMxXFtDQEhdKFtPSF0pW0NAQEhdKFtPSF0pW0NAQEhdKFtPSF0pW0NASF0oW05IXTEpW0NIMl1bT0hd

> <s_epik_cmdline>
J2VwaWtfYXBwJywgJy1pbWFlJywgJ2xpZ2FuZF9wcm8ubWFlJywgJy1vbWFlJywgJ2xpZ2FuZF9wcmVwLm1hZScsICctbXMnLCAnMScsICctcGgnLCAnNycsICctcGh0JywgJzAuNScsICctbnQn

> <r_lp_tautomer_probability>
1

> <r_epik_Ionization_Penalty>
  0.0001

> <r_epik_Ionization_Penalty_Charging>
  0.0000

> <r_epik_Ionization_Penalty_Neutral>
  0.0001

> <r_epik_State_Penalty>
 -0.0000

> <r_epik_Charging_Adjusted_Penalty>
0

> <i_epik_Tot_Q>
0

> <i_epik_Tot_abs_Q>
0

> <s_epik_Chemistry_Notes>
This compound has an imine and may undergo hydrolysis.

$$$$
