1uwu_ligand
                    3D
 Schrodinger Suite 2020-3.
 26 26  0  0  1  0            999 V2000
   74.5520   21.0060   89.4610 C   0  0  3  0  0  0
   75.0040   21.1720   90.6950 N   0  0  0  0  0  0
   73.8000   22.2220   88.8780 C   0  0  2  0  0  0
   74.7720   19.7820   88.7940 N   0  3  0  0  0  0
   75.8450   20.1790   91.2060 O   0  0  0  0  0  0
   72.7420   22.5540   89.7360 O   0  0  0  0  0  0
   73.2510   21.9150   87.4810 C   0  0  1  0  0  0
   72.9960   23.2170   86.9110 O   0  0  0  0  0  0
   74.2960   21.0370   86.7040 C   0  0  2  0  0  0
   73.9330   20.9240   85.3500 O   0  0  0  0  0  0
   74.3700   19.6410   87.3900 C   0  0  1  0  0  0
   75.3780   18.6410   86.7940 C   0  0  0  0  0  0
   76.6830   19.1360   86.9310 O   0  0  0  0  0  0
   73.6057   20.6124   89.8606 H   0  0  0  0  0  0
   74.4412   23.1152   88.8450 H   0  0  0  0  0  0
   75.8481   19.5541   88.7914 H   0  0  0  0  0  0
   74.2284   18.9787   89.3129 H   0  0  0  0  0  0
   72.9449   22.8066   90.7872 H   0  0  0  0  0  0
   72.2860   21.3882   87.4450 H   0  0  0  0  0  0
   72.2774   23.8969   87.3921 H   0  0  0  0  0  0
   75.2877   21.5061   86.6230 H   0  0  0  0  0  0
   73.8386   21.8268   84.7287 H   0  0  0  0  0  0
   73.3530   19.2322   87.2971 H   0  0  0  0  0  0
   75.2980   17.6802   87.3235 H   0  0  0  0  0  0
   75.1582   18.4908   85.7267 H   0  0  0  0  0  0
   77.5357   18.5494   86.5585 H   0  0  0  0  0  0
  1  2  1  0  0  0
  1  3  1  0  0  0
  1  4  1  0  0  0
  1 14  1  0  0  0
  2  5  2  0  0  0
  3  6  1  0  0  0
  3  7  1  0  0  0
  3 15  1  0  0  0
  4 11  1  0  0  0
  4 16  1  0  0  0
  4 17  1  0  0  0
  6 18  1  0  0  0
  7  8  1  0  0  0
  7  9  1  0  0  0
  7 19  1  0  0  0
  8 20  1  0  0  0
  9 10  1  0  0  0
  9 11  1  0  0  0
  9 21  1  0  0  0
 10 22  1  0  0  0
 11 12  1  0  0  0
 11 23  1  0  0  0
 12 13  1  0  0  0
 12 24  1  0  0  0
 12 25  1  0  0  0
 13 26  1  0  0  0
M  CHG  1   4   1
M  END
> <s_m_source_file>
../1uwu_ligand.sdf

> <i_m_source_file_index>
1

> <s_epik_input>
Tz1OW0NIXTFbQ0BIXShbT0hdKVtDQEBIXShbT0hdKVtDQEhdKFtPSF0pW0NASF0oW05IMitdMSlbQ0gyXVtPSF0=

> <s_epik_cmdline>
J2VwaWtfYXBwJywgJy1pbWFlJywgJ2xpZ2FuZF9wcm8ubWFlJywgJy1vbWFlJywgJ2xpZ2FuZF9wcmVwLm1hZScsICctbXMnLCAnMScsICctcGgnLCAnNycsICctcGh0JywgJzAuNScsICctbnQn

> <r_epik_Ionization_Penalty>
  0.3107

> <r_epik_Ionization_Penalty_Charging>
  0.3106

> <r_epik_Ionization_Penalty_Neutral>
  0.0000

> <r_epik_State_Penalty>
  0.3046

> <r_epik_Charging_Adjusted_Penalty>
0.615242222555093

> <i_epik_Tot_Q>
1

> <i_epik_Tot_abs_Q>
1

> <s_epik_Chemistry_Notes>
This compound contains an acetal/aminal-like group ( X-CH(R)-Y where X, Y are N, S, or O) that may be acid/base labile, releasing an aldehyde.

$$$$
