1ux7_ligand
                    3D
 Schrodinger Suite 2020-3.
 40 41  0  0  1  0            999 V2000
    9.3790   19.4890   -9.6130 O   0  0  0  0  0  0
   10.6620   18.9130   -9.4020 C   0  0  0  0  0  0
    8.3760   18.5440  -10.0490 C   0  0  1  0  0  0
    7.2340   18.5170   -9.0460 C   0  0  1  0  0  0
    6.0850   17.6320   -9.5300 C   0  0  2  0  0  0
    5.6580   18.0060  -10.9420 C   0  0  1  0  0  0
    6.9110   17.9990  -11.8070 C   0  0  0  0  0  0
    7.6490   18.1440   -7.7450 O   0  0  0  0  0  0
    4.9840   17.7580   -8.6460 O   0  0  0  0  0  0
    4.7090   17.0830  -11.4410 O   0  0  0  0  0  0
    7.8580   18.8910  -11.2550 O   0  0  0  0  0  0
    3.6560   17.6650  -12.2230 C   0  0  1  0  0  0
    3.1210   16.5640  -13.0950 C   0  0  1  0  0  0
    1.8730   16.9810  -13.8770 C   0  0  2  0  0  0
    0.8550   17.6270  -12.9250 C   0  0  1  0  0  0
    1.5720   18.6860  -12.1110 C   0  0  0  0  0  0
    4.1530   16.1290  -13.9550 O   0  0  0  0  0  0
    1.3350   15.8340  -14.5210 O   0  0  0  0  0  0
   -0.2370   18.2660  -13.5600 O   0  0  0  0  0  0
    2.6480   18.0990  -11.4260 O   0  0  0  0  0  0
   11.3646   19.6931   -9.0736 H   0  0  0  0  0  0
   11.0223   18.4665  -10.3405 H   0  0  0  0  0  0
   10.5915   18.1339   -8.6286 H   0  0  0  0  0  0
    8.8764   17.5806  -10.2264 H   0  0  0  0  0  0
    6.8914   19.5506   -8.8898 H   0  0  0  0  0  0
    6.3752   16.5715   -9.4963 H   0  0  0  0  0  0
    5.1204   18.9650  -10.9773 H   0  0  0  0  0  0
    7.3316   16.9830  -11.8349 H   0  0  0  0  0  0
    6.6536   18.3174  -12.8280 H   0  0  0  0  0  0
    8.4699   18.6863   -7.2529 H   0  0  0  0  0  0
    5.1074   17.5276   -7.5775 H   0  0  0  0  0  0
    4.0114   18.5709  -12.7358 H   0  0  0  0  0  0
    2.8642   15.6923  -12.4752 H   0  0  0  0  0  0
    2.1054   17.6736  -14.6994 H   0  0  0  0  0  0
    0.3690   16.8318  -12.3407 H   0  0  0  0  0  0
    1.9488   19.4717  -12.7823 H   0  0  0  0  0  0
    0.8722   19.1276  -11.3862 H   0  0  0  0  0  0
    5.1144   15.7968  -13.5363 H   0  0  0  0  0  0
    1.9494   15.2646  -15.2339 H   0  0  0  0  0  0
   -0.9091   17.6883  -14.2116 H   0  0  0  0  0  0
  1  2  1  0  0  0
  1  3  1  0  0  0
  2 21  1  0  0  0
  2 22  1  0  0  0
  2 23  1  0  0  0
  3  4  1  0  0  0
  3 11  1  0  0  0
  3 24  1  0  0  0
  4  5  1  0  0  0
  4  8  1  0  0  0
  4 25  1  0  0  0
  5  6  1  0  0  0
  5  9  1  0  0  0
  5 26  1  0  0  0
  6  7  1  0  0  0
  6 10  1  0  0  0
  6 27  1  0  0  0
  7 11  1  0  0  0
  7 28  1  0  0  0
  7 29  1  0  0  0
  8 30  1  0  0  0
  9 31  1  0  0  0
 10 12  1  0  0  0
 12 13  1  0  0  0
 12 20  1  0  0  0
 12 32  1  0  0  0
 13 14  1  0  0  0
 13 17  1  0  0  0
 13 33  1  0  0  0
 14 15  1  0  0  0
 14 18  1  0  0  0
 14 34  1  0  0  0
 15 16  1  0  0  0
 15 19  1  0  0  0
 15 35  1  0  0  0
 16 20  1  0  0  0
 16 36  1  0  0  0
 16 37  1  0  0  0
 17 38  1  0  0  0
 18 39  1  0  0  0
 19 40  1  0  0  0
M  END
> <s_m_source_file>
../1ux7_ligand.sdf

> <i_m_source_file_index>
1

> <s_epik_input>
W0NIM11PW0NASF0xW0NASF0oW09IXSlbQ0BASF0oW09IXSlbQ0BASF0oW0NIMl1PMSlPW0NASF0yW0NASF0oW09IXSlbQ0BASF0oW09IXSlbQ0BASF0oW0NIMl1PMilbT0hd

> <s_epik_cmdline>
J2VwaWtfYXBwJywgJy1pbWFlJywgJ2xpZ2FuZF9wcm8ubWFlJywgJy1vbWFlJywgJ2xpZ2FuZF9wcmVwLm1hZScsICctbXMnLCAnMScsICctcGgnLCAnNycsICctcGh0JywgJzAuNScsICctbnQn

> <r_lp_tautomer_probability>
1

> <r_epik_Ionization_Penalty>
  0.0000

> <r_epik_Ionization_Penalty_Charging>
  0.0000

> <r_epik_Ionization_Penalty_Neutral>
  0.0000

> <r_epik_State_Penalty>
 -0.0000

> <r_epik_Charging_Adjusted_Penalty>
0

> <i_epik_Tot_Q>
0

> <i_epik_Tot_abs_Q>
0

> <s_epik_Chemistry_Notes>
This compound contains an acetal/aminal-like group ( X-CH(R)-Y where X, Y are N, S, or O) that may be acid/base labile, releasing an aldehyde.

$$$$
