1uxa_ligand
                    3D
 Schrodinger Suite 2020-3.
 60 61  0  0  1  0            999 V2000
   45.6100   53.3010   66.3770 C   0  0  0  0  0  0
   46.5790   52.9010   65.2170 C   0  0  1  0  0  0
   46.6810   51.3810   65.1080 C   0  0  0  0  0  0
   45.4200   50.7190   64.5000 C   0  0  1  0  0  0
   45.0050   51.4340   63.1900 C   0  0  2  0  0  0
   44.8610   52.9260   63.5110 C   0  0  2  0  0  0
   44.4710   53.7230   62.2760 C   0  0  1  0  0  0
   44.4580   55.2140   62.6210 C   0  0  1  0  0  0
   43.7460   55.9860   61.5300 C   0  0  0  0  0  0
   43.5570   50.1530   61.6940 C   0  0  0  0  0  0
   42.0640   49.8570   61.3800 C   0  0  0  0  0  0
   43.7200   50.8590   62.7980 N   0  0  0  0  0  0
   45.6500   52.6590   67.4510 O   0  5  0  0  0  0
   44.8290   54.2710   66.2550 O   0  0  0  0  0  0
   45.6910   49.3630   64.2410 O   0  0  0  0  0  0
   46.1270   53.4530   63.9800 O   0  0  0  0  0  0
   45.4470   53.4930   61.2680 O   0  0  0  0  0  0
   43.8060   55.4410   63.8610 O   0  0  0  0  0  0
   44.0250   57.3710   61.6750 O   0  0  0  0  0  0
   44.4740   49.8260   60.8760 O   0  0  0  0  0  0
   49.3320   56.8000   64.7540 C   0  0  2  0  0  0
   49.1250   55.3100   64.5780 C   0  0  1  0  0  0
   47.9640   54.8520   65.4830 C   0  0  2  0  0  0
   48.2180   55.2650   66.9130 C   0  0  2  0  0  0
   48.5120   56.7700   66.9720 C   0  0  1  0  0  0
   48.8200   57.3100   68.3460 C   0  0  0  0  0  0
   50.3790   57.2390   63.9550 O   0  0  0  0  0  0
   48.8370   55.0500   63.2260 O   0  0  0  0  0  0
   47.8560   53.4160   65.4430 O   0  0  0  0  0  0
   49.3370   54.5210   67.3700 O   0  0  0  0  0  0
   49.6360   57.0740   66.1250 O   0  0  0  0  0  0
   48.8390   58.7300   68.3220 O   0  0  0  0  0  0
   47.5339   51.1159   64.4660 H   0  0  0  0  0  0
   46.8282   50.9506   66.1095 H   0  0  0  0  0  0
   44.5862   50.7033   65.2173 H   0  0  0  0  0  0
   45.6962   51.2963   62.3454 H   0  0  0  0  0  0
   44.1130   53.0492   64.3081 H   0  0  0  0  0  0
   43.5049   53.3917   61.8676 H   0  0  0  0  0  0
   45.4821   55.5870   62.7696 H   0  0  0  0  0  0
   44.0984   55.6408   60.5468 H   0  0  0  0  0  0
   42.6617   55.8188   61.6103 H   0  0  0  0  0  0
   41.4367   50.2164   62.2091 H   0  0  0  0  0  0
   41.9232   48.7730   61.2568 H   0  0  0  0  0  0
   41.7754   50.3721   60.4519 H   0  0  0  0  0  0
   42.8345   51.0067   63.4337 H   0  0  0  0  0  0
   46.0019   48.6980   65.0602 H   0  0  0  0  0  0
   45.6097   52.4759   60.8818 H   0  0  0  0  0  0
   44.1821   54.9605   64.7762 H   0  0  0  0  0  0
   43.5927   58.0959   60.9696 H   0  0  0  0  0  0
   48.4572   57.3942   64.4512 H   0  0  0  0  0  0
   50.0436   54.7390   64.7784 H   0  0  0  0  0  0
   47.0082   55.2652   65.1283 H   0  0  0  0  0  0
   47.3773   55.0126   67.5760 H   0  0  0  0  0  0
   47.6158   57.2906   66.6034 H   0  0  0  0  0  0
   48.0489   56.9722   69.0540 H   0  0  0  0  0  0
   49.8040   56.9422   68.6724 H   0  0  0  0  0  0
   50.3276   57.1141   62.8633 H   0  0  0  0  0  0
   49.5659   55.3180   62.4470 H   0  0  0  0  0  0
   49.2945   53.4221   67.3931 H   0  0  0  0  0  0
   49.0490   59.2929   69.2434 H   0  0  0  0  0  0
  1  2  1  0  0  0
  1 13  1  0  0  0
  1 14  2  0  0  0
  2  3  1  0  0  0
  2 16  1  0  0  0
  2 29  1  0  0  0
  3  4  1  0  0  0
  3 33  1  0  0  0
  3 34  1  0  0  0
  4  5  1  0  0  0
  4 15  1  0  0  0
  4 35  1  0  0  0
  5  6  1  0  0  0
  5 12  1  0  0  0
  5 36  1  0  0  0
  6  7  1  0  0  0
  6 16  1  0  0  0
  6 37  1  0  0  0
  7  8  1  0  0  0
  7 17  1  0  0  0
  7 38  1  0  0  0
  8  9  1  0  0  0
  8 18  1  0  0  0
  8 39  1  0  0  0
  9 19  1  0  0  0
  9 40  1  0  0  0
  9 41  1  0  0  0
 10 11  1  0  0  0
 10 12  1  0  0  0
 10 20  2  0  0  0
 11 42  1  0  0  0
 11 43  1  0  0  0
 11 44  1  0  0  0
 12 45  1  0  0  0
 15 46  1  0  0  0
 17 47  1  0  0  0
 18 48  1  0  0  0
 19 49  1  0  0  0
 21 22  1  0  0  0
 21 27  1  0  0  0
 21 31  1  0  0  0
 21 50  1  0  0  0
 22 23  1  0  0  0
 22 28  1  0  0  0
 22 51  1  0  0  0
 23 24  1  0  0  0
 23 29  1  0  0  0
 23 52  1  0  0  0
 24 25  1  0  0  0
 24 30  1  0  0  0
 24 53  1  0  0  0
 25 26  1  0  0  0
 25 31  1  0  0  0
 25 54  1  0  0  0
 26 32  1  0  0  0
 26 55  1  0  0  0
 26 56  1  0  0  0
 27 57  1  0  0  0
 28 58  1  0  0  0
 30 59  1  0  0  0
 32 60  1  0  0  0
M  CHG  1  13  -1
M  END
> <s_m_source_file>
../1uxa_ligand.sdf

> <i_m_source_file_index>
1

> <s_epik_input>
W09IXVtDSDJdW0NAQEhdKE8xKVtDQEhdKFtPSF0pW0NAQEhdKFtDQEBIXShbT0hdKVtDQEBIXTFbT0hdKU9bQ0BdMihDKD1PKVtPSF0pW0NIMl1bQ0BIXShbT0hdKVtDQEBIXShbTkhdQyg9TylbQ0gzXSlbQ0BASF0oTzIpW0NASF0oW09IXSlbQ0BIXShbT0hdKVtDSDJdW09IXQ==

> <s_epik_cmdline>
J2VwaWtfYXBwJywgJy1pbWFlJywgJ2xpZ2FuZF9wcm8ubWFlJywgJy1vbWFlJywgJ2xpZ2FuZF9wcmVwLm1hZScsICctbXMnLCAnMScsICctcGgnLCAnNycsICctcGh0JywgJzAuNScsICctbnQn

> <r_lp_tautomer_probability>
1

> <r_epik_Ionization_Penalty>
  0.0000

> <r_epik_Ionization_Penalty_Charging>
  0.0000

> <r_epik_Ionization_Penalty_Neutral>
  0.0000

> <r_epik_State_Penalty>
 -0.0000

> <r_epik_Charging_Adjusted_Penalty>
9.97000173871051e-06

> <i_epik_Tot_Q>
-1

> <i_epik_Tot_abs_Q>
1

> <s_epik_Chemistry_Notes>
This compound contains an acetal/aminal-like group ( X-CH(R)-Y where X, Y are N, S, or O) that may be acid/base labile, releasing an aldehyde.

$$$$
