1uxb_ligand
                    3D
 Schrodinger Suite 2020-3.
 60 61  0  0  1  0            999 V2000
   45.6930   53.0680   66.2750 C   0  0  0  0  0  0
   46.6500   52.5170   65.1700 C   0  0  1  0  0  0
   46.6390   50.9720   65.1590 C   0  0  0  0  0  0
   45.3830   50.3490   64.4770 C   0  0  1  0  0  0
   45.0290   51.0510   63.1630 C   0  0  2  0  0  0
   44.9680   52.5450   63.4530 C   0  0  2  0  0  0
   44.5060   53.3710   62.2490 C   0  0  1  0  0  0
   44.5630   54.8230   62.6530 C   0  0  1  0  0  0
   43.8180   55.6620   61.6380 C   0  0  0  0  0  0
   43.4990   49.8990   61.6470 C   0  0  0  0  0  0
   42.0420   49.6190   61.3380 C   0  0  0  0  0  0
   43.7070   50.6150   62.7480 N   0  0  0  0  0  0
   45.7120   52.5420   67.4080 O   0  5  0  0  0  0
   44.9670   54.0510   66.0200 O   0  0  0  0  0  0
   45.6650   49.0070   64.1860 O   0  0  0  0  0  0
   46.2550   53.0280   63.8850 O   0  0  0  0  0  0
   45.3800   53.1430   61.1480 O   0  0  0  0  0  0
   43.9660   54.9820   63.9340 O   0  0  0  0  0  0
   44.2220   57.0120   61.7970 O   0  0  0  0  0  0
   44.3920   49.4540   60.9030 O   0  0  0  0  0  0
   49.4100   56.3700   64.6080 C   0  0  2  0  0  0
   49.1680   54.8630   64.4370 C   0  0  1  0  0  0
   48.0820   54.4020   65.4330 C   0  0  2  0  0  0
   48.4380   54.8150   66.8570 C   0  0  2  0  0  0
   48.6840   56.3170   66.8780 C   0  0  1  0  0  0
   49.0550   56.8470   68.2390 C   0  0  0  0  0  0
   50.4490   56.8040   63.7850 O   0  0  0  0  0  0
   48.7520   54.6010   63.1010 O   0  0  0  0  0  0
   47.9460   52.9680   65.3980 O   0  0  0  0  0  0
   49.6120   54.1050   67.2430 O   0  0  0  0  0  0
   49.7590   56.6480   65.9660 O   0  0  0  0  0  0
   49.0660   58.2700   68.2450 O   0  0  0  0  0  0
   47.5200   50.6029   64.6134 H   0  0  0  0  0  0
   46.6648   50.5977   66.1931 H   0  0  0  0  0  0
   44.5155   50.3615   65.1533 H   0  0  0  0  0  0
   45.7311   50.8081   62.3518 H   0  0  0  0  0  0
   44.2695   52.6908   64.2902 H   0  0  0  0  0  0
   43.5077   53.0858   61.8857 H   0  0  0  0  0  0
   45.6047   55.1611   62.7558 H   0  0  0  0  0  0
   44.0606   55.3117   60.6239 H   0  0  0  0  0  0
   42.7354   55.5687   61.8089 H   0  0  0  0  0  0
   41.4077   50.0911   62.1027 H   0  0  0  0  0  0
   41.8694   48.5326   61.3381 H   0  0  0  0  0  0
   41.7914   50.0300   60.3489 H   0  0  0  0  0  0
   42.8265   50.8759   63.3536 H   0  0  0  0  0  0
   45.9452   48.3160   64.9947 H   0  0  0  0  0  0
   45.4693   52.1353   60.7162 H   0  0  0  0  0  0
   44.3755   54.4448   64.8022 H   0  0  0  0  0  0
   43.7957   57.7934   61.1508 H   0  0  0  0  0  0
   48.5355   56.9767   64.3302 H   0  0  0  0  0  0
   50.0960   54.2856   64.5615 H   0  0  0  0  0  0
   47.1076   54.8198   65.1398 H   0  0  0  0  0  0
   47.6679   54.5407   67.5930 H   0  0  0  0  0  0
   47.7585   56.8114   66.5479 H   0  0  0  0  0  0
   48.3227   56.4963   68.9812 H   0  0  0  0  0  0
   50.0569   56.4848   68.5129 H   0  0  0  0  0  0
   50.3752   56.6802   62.6945 H   0  0  0  0  0  0
   49.4074   54.8672   62.2587 H   0  0  0  0  0  0
   49.6027   53.0057   67.2800 H   0  0  0  0  0  0
   49.3186   58.8142   69.1670 H   0  0  0  0  0  0
  1  2  1  0  0  0
  1 13  1  0  0  0
  1 14  2  0  0  0
  2  3  1  0  0  0
  2 16  1  0  0  0
  2 29  1  0  0  0
  3  4  1  0  0  0
  3 33  1  0  0  0
  3 34  1  0  0  0
  4  5  1  0  0  0
  4 15  1  0  0  0
  4 35  1  0  0  0
  5  6  1  0  0  0
  5 12  1  0  0  0
  5 36  1  0  0  0
  6  7  1  0  0  0
  6 16  1  0  0  0
  6 37  1  0  0  0
  7  8  1  0  0  0
  7 17  1  0  0  0
  7 38  1  0  0  0
  8  9  1  0  0  0
  8 18  1  0  0  0
  8 39  1  0  0  0
  9 19  1  0  0  0
  9 40  1  0  0  0
  9 41  1  0  0  0
 10 11  1  0  0  0
 10 12  1  0  0  0
 10 20  2  0  0  0
 11 42  1  0  0  0
 11 43  1  0  0  0
 11 44  1  0  0  0
 12 45  1  0  0  0
 15 46  1  0  0  0
 17 47  1  0  0  0
 18 48  1  0  0  0
 19 49  1  0  0  0
 21 22  1  0  0  0
 21 27  1  0  0  0
 21 31  1  0  0  0
 21 50  1  0  0  0
 22 23  1  0  0  0
 22 28  1  0  0  0
 22 51  1  0  0  0
 23 24  1  0  0  0
 23 29  1  0  0  0
 23 52  1  0  0  0
 24 25  1  0  0  0
 24 30  1  0  0  0
 24 53  1  0  0  0
 25 26  1  0  0  0
 25 31  1  0  0  0
 25 54  1  0  0  0
 26 32  1  0  0  0
 26 55  1  0  0  0
 26 56  1  0  0  0
 27 57  1  0  0  0
 28 58  1  0  0  0
 30 59  1  0  0  0
 32 60  1  0  0  0
M  CHG  1  13  -1
M  END
> <s_m_source_file>
../1uxb_ligand.sdf

> <i_m_source_file_index>
1

> <s_epik_input>
W09IXVtDSDJdW0NAQEhdKE8xKVtDQEhdKFtPSF0pW0NAQEhdKFtDQEBIXShbT0hdKVtDQEBIXTFbT0hdKU9bQ0BdMihDKD1PKVtPSF0pW0NIMl1bQ0BIXShbT0hdKVtDQEBIXShbTkhdQyg9TylbQ0gzXSlbQ0BASF0oTzIpW0NASF0oW09IXSlbQ0BIXShbT0hdKVtDSDJdW09IXQ==

> <s_epik_cmdline>
J2VwaWtfYXBwJywgJy1pbWFlJywgJ2xpZ2FuZF9wcm8ubWFlJywgJy1vbWFlJywgJ2xpZ2FuZF9wcmVwLm1hZScsICctbXMnLCAnMScsICctcGgnLCAnNycsICctcGh0JywgJzAuNScsICctbnQn

> <r_lp_tautomer_probability>
1

> <r_epik_Ionization_Penalty>
  0.0000

> <r_epik_Ionization_Penalty_Charging>
  0.0000

> <r_epik_Ionization_Penalty_Neutral>
  0.0000

> <r_epik_State_Penalty>
 -0.0000

> <r_epik_Charging_Adjusted_Penalty>
9.97000173871051e-06

> <i_epik_Tot_Q>
-1

> <i_epik_Tot_abs_Q>
1

> <s_epik_Chemistry_Notes>
This compound contains an acetal/aminal-like group ( X-CH(R)-Y where X, Y are N, S, or O) that may be acid/base labile, releasing an aldehyde.

$$$$
