1uy6_ligand
                    3D
 Schrodinger Suite 2020-3.
 52 54  0  0  1  0            999 V2000
    8.2560   10.1870   23.0600 C   0  0  0  0  0  0
    8.0950   11.3890   23.8530 O   0  0  0  0  0  0
    6.8220   11.8930   24.0150 C   0  0  0  0  0  0
    5.6590   11.2860   23.4960 C   0  0  0  0  0  0
    6.6540   13.0700   24.8410 C   0  0  0  0  0  0
    7.7140   13.7150   25.3760 O   0  0  0  0  0  0
    8.0410   15.0020   24.8170 C   0  0  0  0  0  0
    5.3100   13.5540   25.1120 C   0  0  0  0  0  0
    5.2900   14.7170   25.8570 O   0  0  0  0  0  0
    4.1560   15.5370   25.9070 C   0  0  0  0  0  0
    4.1860   12.8870   24.5880 C   0  0  0  0  0  0
    4.3830   11.7460   23.7770 C   0  0  0  0  0  0
    3.2090   11.0270   23.1370 C   0  0  0  0  0  0
    1.9940   10.7670   23.9920 C   0  0  0  0  0  0
    0.8030   11.3050   23.7050 N   0  0  0  0  0  0
    0.0520   10.9000   24.7540 C   0  0  0  0  0  0
   -1.3510   11.0400   25.1150 C   0  0  0  0  0  0
   -2.1950   11.7260   24.3210 N   0  0  0  0  0  0
    0.8580   10.0890   25.6590 C   0  0  0  0  0  0
    0.3420    9.5640   26.7850 N   0  0  0  0  0  0
   -0.9570    9.7930   27.0860 C   0  0  0  0  0  0
   -1.7780   10.5150   26.2810 N   0  0  0  0  0  0
    2.0680   10.0630   25.1400 N   0  0  0  0  0  0
    3.1820    9.3050   25.7100 C   0  0  0  0  0  0
    2.9290    7.8460   25.3350 C   0  0  0  0  0  0
    4.0350    7.2060   24.5160 C   0  0  0  0  0  0
    4.0540    5.7230   24.9060 C   0  0  0  0  0  0
    9.3203    9.9116   23.0236 H   0  0  0  0  0  0
    7.8893   10.3694   22.0391 H   0  0  0  0  0  0
    7.6805    9.3675   23.5153 H   0  0  0  0  0  0
    5.7693   10.4179   22.8461 H   0  0  0  0  0  0
    8.9168   15.4162   25.3380 H   0  0  0  0  0  0
    7.1857   15.6828   24.9392 H   0  0  0  0  0  0
    8.2702   14.8895   23.7470 H   0  0  0  0  0  0
    4.3582   16.4033   26.5541 H   0  0  0  0  0  0
    3.3082   14.9659   26.3132 H   0  0  0  0  0  0
    3.9109   15.8860   24.8930 H   0  0  0  0  0  0
    3.1795   13.2450   24.8044 H   0  0  0  0  0  0
    2.8403   11.6147   22.2834 H   0  0  0  0  0  0
    3.5327   10.0356   22.7871 H   0  0  0  0  0  0
   -1.8351   12.1498   23.3718 H   0  0  0  0  0  0
   -3.2443   11.8626   24.6216 H   0  0  0  0  0  0
   -1.3603    9.3816   28.0113 H   0  0  0  0  0  0
    4.1287    9.6679   25.2834 H   0  0  0  0  0  0
    3.1964    9.4393   26.8017 H   0  0  0  0  0  0
    2.8204    7.2457   26.2503 H   0  0  0  0  0  0
    2.0074    7.7752   24.7386 H   0  0  0  0  0  0
    3.8171    7.3304   23.4450 H   0  0  0  0  0  0
    4.9940    7.6896   24.7536 H   0  0  0  0  0  0
    4.8419    5.2050   24.3396 H   0  0  0  0  0  0
    3.0784    5.2705   24.6748 H   0  0  0  0  0  0
    4.2553    5.6298   25.9834 H   0  0  0  0  0  0
  1  2  1  0  0  0
  1 28  1  0  0  0
  1 29  1  0  0  0
  1 30  1  0  0  0
  2  3  1  0  0  0
  3  4  2  0  0  0
  3  5  1  0  0  0
  4 12  1  0  0  0
  4 31  1  0  0  0
  5  6  1  0  0  0
  5  8  2  0  0  0
  6  7  1  0  0  0
  7 32  1  0  0  0
  7 33  1  0  0  0
  7 34  1  0  0  0
  8  9  1  0  0  0
  8 11  1  0  0  0
  9 10  1  0  0  0
 10 35  1  0  0  0
 10 36  1  0  0  0
 10 37  1  0  0  0
 11 12  2  0  0  0
 11 38  1  0  0  0
 12 13  1  0  0  0
 13 14  1  0  0  0
 13 39  1  0  0  0
 13 40  1  0  0  0
 14 15  2  0  0  0
 14 23  1  0  0  0
 15 16  1  0  0  0
 16 17  2  0  0  0
 16 19  1  0  0  0
 17 18  1  0  0  0
 17 22  1  0  0  0
 18 41  1  0  0  0
 18 42  1  0  0  0
 19 20  2  0  0  0
 19 23  1  0  0  0
 20 21  1  0  0  0
 21 22  2  0  0  0
 21 43  1  0  0  0
 23 24  1  0  0  0
 24 25  1  0  0  0
 24 44  1  0  0  0
 24 45  1  0  0  0
 25 26  1  0  0  0
 25 46  1  0  0  0
 25 47  1  0  0  0
 26 27  1  0  0  0
 26 48  1  0  0  0
 26 49  1  0  0  0
 27 50  1  0  0  0
 27 51  1  0  0  0
 27 52  1  0  0  0
M  END
> <s_m_source_file>
../1uy6_ligand.sdf

> <i_m_source_file_index>
1

> <s_epik_input>
W0NIM11PYzFjKE9bQ0gzXSlbY0hdYyhbY0hdYzFPW0NIM10pW0NIMl1jKG4yKW4oW0NIMl1bQ0gyXVtDSDJdW0NIM10pYyhjMjMpbltjSF1uYzNbTkgyXQ==

> <s_epik_cmdline>
J2VwaWtfYXBwJywgJy1pbWFlJywgJ2xpZ2FuZF9wcm8ubWFlJywgJy1vbWFlJywgJ2xpZ2FuZF9wcmVwLm1hZScsICctbXMnLCAnMScsICctcGgnLCAnNycsICctcGh0JywgJzAuNScsICctbnQn

> <r_lp_tautomer_probability>
1

> <r_epik_Ionization_Penalty>
  0.0015

> <r_epik_Ionization_Penalty_Charging>
  0.0000

> <r_epik_Ionization_Penalty_Neutral>
  0.0015

> <r_epik_State_Penalty>
 -0.0000

> <r_epik_Charging_Adjusted_Penalty>
0

> <i_epik_Tot_Q>
0

> <i_epik_Tot_abs_Q>
0

$$$$
