1uy8_ligand
                    3D
 Schrodinger Suite 2020-3.
 44 46  0  0  1  0            999 V2000
    5.0660    7.3220   23.7970 C   0  0  0  0  0  0
    3.6040    7.4470   24.2530 C   0  0  0  0  0  0
    3.2740    7.8790   25.4860 C   0  0  0  0  0  0
    3.2960    9.3810   25.7620 C   0  0  0  0  0  0
    2.0990    9.9760   25.1460 N   0  0  0  0  0  0
    0.9010    9.9800   25.6920 C   0  0  0  0  0  0
    0.4000    9.5170   26.8410 N   0  0  0  0  0  0
   -0.9160    9.6640   27.0930 C   0  0  0  0  0  0
    3.2450   10.8070   23.0920 C   0  0  0  0  0  0
   -1.7690   10.3330   26.2830 N   0  0  0  0  0  0
    0.0520   10.7140   24.7590 C   0  0  0  0  0  0
   -1.3430   10.8240   25.0970 C   0  0  0  0  0  0
   -2.1500   11.4490   24.2400 N   0  0  0  0  0  0
    0.8130   11.0990   23.7430 N   0  0  0  0  0  0
    2.0450   10.6060   23.9820 C   0  0  0  0  0  0
    5.5570   11.6860   23.5570 C   0  0  0  0  0  0
    4.1670   11.8520   23.6790 C   0  0  0  0  0  0
    3.6200   12.9700   24.2770 C   0  0  0  0  0  0
    6.3990   12.6580   24.0770 C   0  0  0  0  0  0
    5.8540   13.7700   24.6880 C   0  0  0  0  0  0
    4.4770   13.9330   24.7560 C   0  0  0  0  0  0
    3.9190   15.0200   25.3740 O   0  0  0  0  0  0
    4.6480   16.2200   25.6550 C   0  0  0  0  0  0
    5.0967    6.9527   22.7613 H   0  0  0  0  0  0
    5.5959    6.6164   24.4538 H   0  0  0  0  0  0
    5.5520    8.3074   23.8495 H   0  0  0  0  0  0
    3.0741    8.1526   23.5962 H   0  0  0  0  0  0
    3.1180    6.4616   24.2005 H   0  0  0  0  0  0
    2.2464    7.5652   25.7216 H   0  0  0  0  0  0
    3.9671    7.4478   26.2233 H   0  0  0  0  0  0
    3.2895    9.5543   26.8482 H   0  0  0  0  0  0
    4.2052    9.8207   25.3260 H   0  0  0  0  0  0
   -1.3168    9.2176   28.0030 H   0  0  0  0  0  0
    3.7935    9.8583   22.9962 H   0  0  0  0  0  0
    2.9125   11.1402   22.0978 H   0  0  0  0  0  0
   -3.2214   11.5505   24.4676 H   0  0  0  0  0  0
   -1.7447   11.8633   23.3051 H   0  0  0  0  0  0
    5.9675   10.8064   23.0611 H   0  0  0  0  0  0
    2.5399   13.0859   24.3668 H   0  0  0  0  0  0
    7.4807   12.5451   24.0040 H   0  0  0  0  0  0
    6.5100   14.5256   25.1202 H   0  0  0  0  0  0
    3.9856   16.9433   26.1531 H   0  0  0  0  0  0
    5.0206   16.6514   24.7142 H   0  0  0  0  0  0
    5.4977   15.9871   26.3135 H   0  0  0  0  0  0
  1  2  1  0  0  0
  1 24  1  0  0  0
  1 25  1  0  0  0
  1 26  1  0  0  0
  2  3  1  0  0  0
  2 27  1  0  0  0
  2 28  1  0  0  0
  3  4  1  0  0  0
  3 29  1  0  0  0
  3 30  1  0  0  0
  4  5  1  0  0  0
  4 31  1  0  0  0
  4 32  1  0  0  0
  5  6  1  0  0  0
  5 15  1  0  0  0
  6  7  1  0  0  0
  6 11  2  0  0  0
  7  8  2  0  0  0
  8 10  1  0  0  0
  8 33  1  0  0  0
  9 15  1  0  0  0
  9 17  1  0  0  0
  9 34  1  0  0  0
  9 35  1  0  0  0
 10 12  2  0  0  0
 11 12  1  0  0  0
 11 14  1  0  0  0
 12 13  1  0  0  0
 13 36  1  0  0  0
 13 37  1  0  0  0
 14 15  2  0  0  0
 16 17  2  0  0  0
 16 19  1  0  0  0
 16 38  1  0  0  0
 17 18  1  0  0  0
 18 21  2  0  0  0
 18 39  1  0  0  0
 19 20  2  0  0  0
 19 40  1  0  0  0
 20 21  1  0  0  0
 20 41  1  0  0  0
 21 22  1  0  0  0
 22 23  1  0  0  0
 23 42  1  0  0  0
 23 43  1  0  0  0
 23 44  1  0  0  0
M  END
> <s_m_source_file>
../1uy8_ligand.sdf

> <i_m_source_file_index>
1

> <s_epik_input>
bjFbY0hdbmMoW05IMl0pYyhjMTIpbmMobjJbQ0gyXVtDSDJdW0NIMl1bQ0gzXSlbQ0gyXWMzW2NIXVtjSF1bY0hdYyhbY0hdMylPW0NIM10=

> <s_epik_cmdline>
J2VwaWtfYXBwJywgJy1pbWFlJywgJ2xpZ2FuZF9wcm8ubWFlJywgJy1vbWFlJywgJ2xpZ2FuZF9wcmVwLm1hZScsICctbXMnLCAnMScsICctcGgnLCAnNycsICctcGh0JywgJzAuNScsICctbnQn

> <r_lp_tautomer_probability>
1

> <r_epik_Ionization_Penalty>
  0.0015

> <r_epik_Ionization_Penalty_Charging>
  0.0000

> <r_epik_Ionization_Penalty_Neutral>
  0.0015

> <r_epik_State_Penalty>
 -0.0000

> <r_epik_Charging_Adjusted_Penalty>
0

> <i_epik_Tot_Q>
0

> <i_epik_Tot_abs_Q>
0

$$$$
