1uy9_ligand
                    3D
 Schrodinger Suite 2020-3.
 43 46  0  0  1  0            999 V2000
    4.9830    7.5760   23.7480 C   0  0  0  0  0  0
    3.5060    7.4260   24.1100 C   0  0  0  0  0  0
    3.1540    7.8810   25.5340 C   0  0  0  0  0  0
    3.2590    9.4030   25.7530 C   0  0  0  0  0  0
    2.0760   10.0190   25.1410 N   0  0  0  0  0  0
    0.8200   10.0430   25.6620 C   0  0  0  0  0  0
    0.3600    9.5230   26.8260 N   0  0  0  0  0  0
   -0.9510    9.6980   27.1070 C   0  0  0  0  0  0
   -1.7740   10.3570   26.2580 N   0  0  0  0  0  0
   -0.0120   10.7330   24.7930 C   0  0  0  0  0  0
   -1.3440   10.8860   25.0860 C   0  0  0  0  0  0
   -2.2200   11.5340   24.2540 N   0  0  0  0  0  0
    0.7760   11.1190   23.7730 N   0  0  0  0  0  0
    2.0420   10.6920   23.9610 C   0  0  0  0  0  0
    3.2450   10.9050   23.0700 C   0  0  0  0  0  0
    4.1030   12.0040   23.6760 C   0  0  0  0  0  0
    3.5210   13.1730   24.2180 C   0  0  0  0  0  0
    4.3850   14.1340   24.7300 C   0  0  0  0  0  0
    5.4980   11.8400   23.6620 C   0  0  0  0  0  0
    4.0980   15.3560   25.3160 O   0  0  0  0  0  0
    6.3360   12.8310   24.1870 C   0  0  0  0  0  0
    5.7420   13.9700   24.7070 C   0  0  0  0  0  0
    6.3480   15.0850   25.2850 O   0  0  0  0  0  0
    5.3240   16.0030   25.6900 C   0  0  0  0  0  0
    5.1449    7.2287   22.7169 H   0  0  0  0  0  0
    5.5925    6.9737   24.4377 H   0  0  0  0  0  0
    5.2747    8.6335   23.8288 H   0  0  0  0  0  0
    2.8965    8.0283   23.4203 H   0  0  0  0  0  0
    3.2142    6.3685   24.0292 H   0  0  0  0  0  0
    2.1184    7.5916   25.7659 H   0  0  0  0  0  0
    3.8376    7.4031   26.2512 H   0  0  0  0  0  0
    3.2894    9.6170   26.8316 H   0  0  0  0  0  0
    4.1773    9.7792   25.2785 H   0  0  0  0  0  0
   -1.3542    9.2995   28.0380 H   0  0  0  0  0  0
   -3.2788   11.6291   24.5366 H   0  0  0  0  0  0
   -1.8640   11.9588   23.3038 H   0  0  0  0  0  0
    3.8220    9.9709   23.0035 H   0  0  0  0  0  0
    2.9093   11.2009   22.0651 H   0  0  0  0  0  0
    2.4404   13.3147   24.2337 H   0  0  0  0  0  0
    5.9316   10.9338   23.2390 H   0  0  0  0  0  0
    7.4193   12.7108   24.1868 H   0  0  0  0  0  0
    5.4046   16.9668   25.1660 H   0  0  0  0  0  0
    5.3314   16.1746   26.7765 H   0  0  0  0  0  0
  1  2  1  0  0  0
  1 25  1  0  0  0
  1 26  1  0  0  0
  1 27  1  0  0  0
  2  3  1  0  0  0
  2 28  1  0  0  0
  2 29  1  0  0  0
  3  4  1  0  0  0
  3 30  1  0  0  0
  3 31  1  0  0  0
  4  5  1  0  0  0
  4 32  1  0  0  0
  4 33  1  0  0  0
  5  6  1  0  0  0
  5 14  1  0  0  0
  6  7  1  0  0  0
  6 10  2  0  0  0
  7  8  2  0  0  0
  8  9  1  0  0  0
  8 34  1  0  0  0
  9 11  2  0  0  0
 10 11  1  0  0  0
 10 13  1  0  0  0
 11 12  1  0  0  0
 12 35  1  0  0  0
 12 36  1  0  0  0
 13 14  2  0  0  0
 14 15  1  0  0  0
 15 16  1  0  0  0
 15 37  1  0  0  0
 15 38  1  0  0  0
 16 17  2  0  0  0
 16 19  1  0  0  0
 17 18  1  0  0  0
 17 39  1  0  0  0
 18 20  1  0  0  0
 18 22  2  0  0  0
 19 21  2  0  0  0
 19 40  1  0  0  0
 20 24  1  0  0  0
 21 22  1  0  0  0
 21 41  1  0  0  0
 22 23  1  0  0  0
 23 24  1  0  0  0
 24 42  1  0  0  0
 24 43  1  0  0  0
M  END
> <s_m_source_file>
../1uy9_ligand.sdf

> <i_m_source_file_index>
1

> <s_epik_input>
bjFbY0hdbmMoW05IMl0pYyhjMTIpbmMobjJbQ0gyXVtDSDJdW0NIMl1bQ0gzXSlbQ0gyXWMoW2NIXTMpW2NIXVtjSF1jKGMzNClPW0NIMl1PNA==

> <s_epik_cmdline>
J2VwaWtfYXBwJywgJy1pbWFlJywgJ2xpZ2FuZF9wcm8ubWFlJywgJy1vbWFlJywgJ2xpZ2FuZF9wcmVwLm1hZScsICctbXMnLCAnMScsICctcGgnLCAnNycsICctcGh0JywgJzAuNScsICctbnQn

> <r_lp_tautomer_probability>
1

> <r_epik_Ionization_Penalty>
  0.0015

> <r_epik_Ionization_Penalty_Charging>
  0.0000

> <r_epik_Ionization_Penalty_Neutral>
  0.0015

> <r_epik_State_Penalty>
 -0.0000

> <r_epik_Charging_Adjusted_Penalty>
0

> <i_epik_Tot_Q>
0

> <i_epik_Tot_abs_Q>
0

> <s_epik_Chemistry_Notes>
This compound contains an acetal/aminal-like group ( X-CH(R)-Y where X, Y are N, S, or O) that may be acid/base labile, releasing an aldehyde.

$$$$
