1uyc_ligand
                    3D
 Schrodinger Suite 2020-3.
 48 50  0  0  1  0            999 V2000
    7.7380   10.0170   23.0910 C   0  0  0  0  0  0
    6.7340   12.5930   23.8320 C   0  0  0  0  0  0
    6.3690   10.4460   22.7950 O   0  0  0  0  0  0
    5.8380   11.5810   23.4170 C   0  0  0  0  0  0
    6.2120   13.7390   24.4690 C   0  0  0  0  0  0
    4.8210   13.8110   24.6450 C   0  0  0  0  0  0
    4.1810   14.9090   25.2820 O   0  0  0  0  0  0
    4.8610   16.0970   25.6550 C   0  0  0  0  0  0
    3.9570   12.7910   24.2740 C   0  0  0  0  0  0
    4.4470   11.6690   23.6390 C   0  0  0  0  0  0
    3.4480   10.6040   23.2180 C   0  0  0  0  0  0
    2.1830   10.4840   24.0560 C   0  0  0  0  0  0
    0.9770   11.0060   23.7820 N   0  0  0  0  0  0
    0.1980   10.6660   24.8270 C   0  0  0  0  0  0
   -1.1490   10.8710   25.0860 C   0  0  0  0  0  0
   -2.0300   11.5510   24.1910 N   0  0  0  0  0  0
    0.9590    9.9560   25.7260 C   0  0  0  0  0  0
    0.4920    9.5090   26.8940 N   0  0  0  0  0  0
   -0.8270    9.7040   27.1420 C   0  0  0  0  0  0
   -1.6940   10.4430   26.2530 N   0  0  0  0  0  0
    2.1600    9.8720   25.2240 N   0  0  0  0  0  0
    3.3720    9.2320   25.7790 C   0  0  0  0  0  0
    3.4270    7.7050   25.6300 C   0  0  0  0  0  0
    3.9250    7.0200   24.3570 C   0  0  0  0  0  0
    5.3200    7.2640   23.7080 C   0  0  0  0  0  0
    7.9726    9.1129   22.5100 H   0  0  0  0  0  0
    7.8291    9.7966   24.1648 H   0  0  0  0  0  0
    8.4402   10.8193   22.8205 H   0  0  0  0  0  0
    7.8060   12.4901   23.6634 H   0  0  0  0  0  0
    6.8661   14.5404   24.8124 H   0  0  0  0  0  0
    4.1519   16.7921   26.1283 H   0  0  0  0  0  0
    5.2942   16.5679   24.7602 H   0  0  0  0  0  0
    5.6641   15.8521   26.3657 H   0  0  0  0  0  0
    2.8909   12.8763   24.4843 H   0  0  0  0  0  0
    3.1082   10.8054   22.1914 H   0  0  0  0  0  0
    3.9277    9.6149   23.2580 H   0  0  0  0  0  0
   -1.6540   11.9246   23.2271 H   0  0  0  0  0  0
   -3.0846   11.7012   24.4655 H   0  0  0  0  0  0
   -1.2525    9.2841   28.0535 H   0  0  0  0  0  0
    4.2624    9.6299   25.2703 H   0  0  0  0  0  0
    3.4390    9.4455   26.8560 H   0  0  0  0  0  0
    4.0877    7.2848   26.4026 H   0  0  0  0  0  0
    2.4156    7.2885   25.7464 H   0  0  0  0  0  0
    3.9428    5.9308   24.5097 H   0  0  0  0  0  0
    3.2506    7.2622   23.5224 H   0  0  0  0  0  0
    5.4173    6.6445   22.8043 H   0  0  0  0  0  0
    6.1099    6.9941   24.4244 H   0  0  0  0  0  0
    5.4177    8.3256   23.4371 H   0  0  0  0  0  0
  1  3  1  0  0  0
  1 26  1  0  0  0
  1 27  1  0  0  0
  1 28  1  0  0  0
  2  4  2  0  0  0
  2  5  1  0  0  0
  2 29  1  0  0  0
  3  4  1  0  0  0
  4 10  1  0  0  0
  5  6  2  0  0  0
  5 30  1  0  0  0
  6  7  1  0  0  0
  6  9  1  0  0  0
  7  8  1  0  0  0
  8 31  1  0  0  0
  8 32  1  0  0  0
  8 33  1  0  0  0
  9 10  2  0  0  0
  9 34  1  0  0  0
 10 11  1  0  0  0
 11 12  1  0  0  0
 11 35  1  0  0  0
 11 36  1  0  0  0
 12 13  2  0  0  0
 12 21  1  0  0  0
 13 14  1  0  0  0
 14 15  2  0  0  0
 14 17  1  0  0  0
 15 16  1  0  0  0
 15 20  1  0  0  0
 16 37  1  0  0  0
 16 38  1  0  0  0
 17 18  2  0  0  0
 17 21  1  0  0  0
 18 19  1  0  0  0
 19 20  2  0  0  0
 19 39  1  0  0  0
 21 22  1  0  0  0
 22 23  1  0  0  0
 22 40  1  0  0  0
 22 41  1  0  0  0
 23 24  1  0  0  0
 23 42  1  0  0  0
 23 43  1  0  0  0
 24 25  1  0  0  0
 24 44  1  0  0  0
 24 45  1  0  0  0
 25 46  1  0  0  0
 25 47  1  0  0  0
 25 48  1  0  0  0
M  END
> <s_m_source_file>
../1uyc_ligand.sdf

> <i_m_source_file_index>
1

> <s_epik_input>
W0NIM11PYzFbY0hdW2NIXWMoT1tDSDNdKVtjSF1jMVtDSDJdYyhuMiluKFtDSDJdW0NIMl1bQ0gyXVtDSDNdKWMoYzIzKW5bY0hdbmMzW05IMl0=

> <s_epik_cmdline>
J2VwaWtfYXBwJywgJy1pbWFlJywgJ2xpZ2FuZF9wcm8ubWFlJywgJy1vbWFlJywgJ2xpZ2FuZF9wcmVwLm1hZScsICctbXMnLCAnMScsICctcGgnLCAnNycsICctcGh0JywgJzAuNScsICctbnQn

> <r_lp_tautomer_probability>
1

> <r_epik_Ionization_Penalty>
  0.0015

> <r_epik_Ionization_Penalty_Charging>
  0.0000

> <r_epik_Ionization_Penalty_Neutral>
  0.0015

> <r_epik_State_Penalty>
 -0.0000

> <r_epik_Charging_Adjusted_Penalty>
0

> <i_epik_Tot_Q>
0

> <i_epik_Tot_abs_Q>
0

$$$$
