1uyd_ligand
                    3D
 Schrodinger Suite 2020-3.
 52 54  0  0  1  0            999 V2000
    4.4030   15.5280   26.5790 C   0  0  0  0  0  0
    5.1220   15.0840   25.4530 O   0  0  0  0  0  0
    5.0910   13.7860   24.8460 C   0  0  0  0  0  0
    3.9590   13.1780   24.2910 C   0  0  0  0  0  0
    6.3240   13.1530   24.7740 C   0  0  0  0  0  0
    7.4370   13.8000   25.3630 O   0  0  0  0  0  0
    7.9680   14.9820   24.7400 C   0  0  0  0  0  0
    6.4650   11.9280   24.1660 C   0  0  0  0  0  0
    7.7380   11.2760   24.1460 O   0  0  0  0  0  0
    8.1250   10.3750   23.0920 C   0  0  0  0  0  0
    5.3500   11.3260   23.6130 C   0  0  0  0  0  0
    4.1060   11.9220   23.6560 C   0  0  0  0  0  0
    2.9810   11.1340   22.9970 C   0  0  0  0  0  0
    1.7990   10.8980   23.8970 C   0  0  0  0  0  0
    0.5690   11.3430   23.6650 N   0  0  0  0  0  0
   -0.1860   10.9430   24.6660 C   0  0  0  0  0  0
   -1.5340   11.1210   24.9450 C   0  0  0  0  0  0
   -2.4390   11.8290   24.0330 N   0  0  0  0  0  0
    0.6250   10.2700   25.5670 C   0  0  0  0  0  0
    0.1180    9.7800   26.7170 N   0  0  0  0  0  0
   -1.1950    9.9850   26.9470 C   0  0  0  0  0  0
   -2.0040   10.6440   26.0890 N   0  0  0  0  0  0
    1.8540   10.2510   25.0560 N   0  0  0  0  0  0
    3.0530    9.6350   25.6380 C   0  0  0  0  0  0
    2.9130    8.1310   25.6360 C   0  0  0  0  0  0
    3.6440    7.2660   24.6120 C   0  0  0  0  0  0
    4.6650    7.8940   23.6780 C   0  0  0  0  0  0
    2.4190   14.0030   24.3670 Cl  0  0  0  0  0  0
    4.6554   16.5788   26.7843 H   0  0  0  0  0  0
    4.6677   14.9104   27.4499 H   0  0  0  0  0  0
    3.3241   15.4417   26.3825 H   0  0  0  0  0  0
    8.8233   15.3518   25.3245 H   0  0  0  0  0  0
    7.1885   15.7571   24.7001 H   0  0  0  0  0  0
    8.2984   14.7413   23.7188 H   0  0  0  0  0  0
    9.1394    9.9969   23.2869 H   0  0  0  0  0  0
    8.1111   10.9084   22.1301 H   0  0  0  0  0  0
    7.4202    9.5313   23.0537 H   0  0  0  0  0  0
    5.4563   10.3546   23.1301 H   0  0  0  0  0  0
    2.6167   11.6823   22.1157 H   0  0  0  0  0  0
    3.3572   10.1482   22.6859 H   0  0  0  0  0  0
   -2.0588   12.2286   23.0813 H   0  0  0  0  0  0
   -3.4978   11.9603   24.3009 H   0  0  0  0  0  0
   -1.6250    9.5996   27.8715 H   0  0  0  0  0  0
    3.9351    9.9174   25.0446 H   0  0  0  0  0  0
    3.1798    9.9855   26.6729 H   0  0  0  0  0  0
    3.2606    7.7291   26.5992 H   0  0  0  0  0  0
    1.8572    7.8612   25.4857 H   0  0  0  0  0  0
    4.2090    6.4792   25.1333 H   0  0  0  0  0  0
    2.9121    6.8034   23.9335 H   0  0  0  0  0  0
    5.0825    7.1199   23.0174 H   0  0  0  0  0  0
    5.4742    8.3462   24.2701 H   0  0  0  0  0  0
    4.1773    8.6705   23.0704 H   0  0  0  0  0  0
  1  2  1  0  0  0
  1 29  1  0  0  0
  1 30  1  0  0  0
  1 31  1  0  0  0
  2  3  1  0  0  0
  3  4  2  0  0  0
  3  5  1  0  0  0
  4 12  1  0  0  0
  4 28  1  0  0  0
  5  6  1  0  0  0
  5  8  2  0  0  0
  6  7  1  0  0  0
  7 32  1  0  0  0
  7 33  1  0  0  0
  7 34  1  0  0  0
  8  9  1  0  0  0
  8 11  1  0  0  0
  9 10  1  0  0  0
 10 35  1  0  0  0
 10 36  1  0  0  0
 10 37  1  0  0  0
 11 12  2  0  0  0
 11 38  1  0  0  0
 12 13  1  0  0  0
 13 14  1  0  0  0
 13 39  1  0  0  0
 13 40  1  0  0  0
 14 15  2  0  0  0
 14 23  1  0  0  0
 15 16  1  0  0  0
 16 17  2  0  0  0
 16 19  1  0  0  0
 17 18  1  0  0  0
 17 22  1  0  0  0
 18 41  1  0  0  0
 18 42  1  0  0  0
 19 20  2  0  0  0
 19 23  1  0  0  0
 20 21  1  0  0  0
 21 22  2  0  0  0
 21 43  1  0  0  0
 23 24  1  0  0  0
 24 25  1  0  0  0
 24 44  1  0  0  0
 24 45  1  0  0  0
 25 26  1  0  0  0
 25 46  1  0  0  0
 25 47  1  0  0  0
 26 27  1  0  0  0
 26 48  1  0  0  0
 26 49  1  0  0  0
 27 50  1  0  0  0
 27 51  1  0  0  0
 27 52  1  0  0  0
M  END
> <s_m_source_file>
../1uyd_ligand.sdf

> <i_m_source_file_index>
1

> <s_epik_input>
W0NIM11PYzFjKE9bQ0gzXSlbY0hdYyhjKENsKWMxT1tDSDNdKVtDSDJdYyhuMiluKFtDSDJdW0NIMl1bQ0gyXVtDSDNdKWMoYzIzKW5bY0hdbmMzW05IMl0=

> <s_epik_cmdline>
J2VwaWtfYXBwJywgJy1pbWFlJywgJ2xpZ2FuZF9wcm8ubWFlJywgJy1vbWFlJywgJ2xpZ2FuZF9wcmVwLm1hZScsICctbXMnLCAnMScsICctcGgnLCAnNycsICctcGh0JywgJzAuNScsICctbnQn

> <r_lp_tautomer_probability>
1

> <r_epik_Ionization_Penalty>
  0.0015

> <r_epik_Ionization_Penalty_Charging>
  0.0000

> <r_epik_Ionization_Penalty_Neutral>
  0.0015

> <r_epik_State_Penalty>
 -0.0000

> <r_epik_Charging_Adjusted_Penalty>
0

> <i_epik_Tot_Q>
0

> <i_epik_Tot_abs_Q>
0

$$$$
