1uye_ligand
                    3D
 Schrodinger Suite 2020-3.
 50 52  0  0  1  0            999 V2000
    2.2560   13.9900   24.2570 Cl  0  0  0  0  0  0
    3.8690   13.2630   24.2860 C   0  0  0  0  0  0
    4.9460   13.9470   24.8770 C   0  0  0  0  0  0
    4.9810   15.2210   25.5140 O   0  0  0  0  0  0
    5.1590   16.5150   25.7010 C   0  0  0  0  0  0
    6.2210   13.4310   24.8810 C   0  0  0  0  0  0
    7.2220   14.2270   25.5350 O   0  0  0  0  0  0
    8.3290   14.8030   24.7850 C   0  0  0  0  0  0
    6.4930   12.2180   24.2920 C   0  0  0  0  0  0
    7.8040   11.7830   24.3480 O   0  0  0  0  0  0
    8.2840   10.6560   23.5810 C   0  0  0  0  0  0
    5.4480   11.5030   23.6890 C   0  0  0  0  0  0
    4.1290   12.0070   23.6840 C   0  0  0  0  0  0
    3.0450   11.1730   22.9810 C   0  0  0  0  0  0
    1.8530   10.8790   23.8830 C   0  0  0  0  0  0
    0.6050   11.3020   23.6430 N   0  0  0  0  0  0
   -0.1510   10.8810   24.6540 C   0  0  0  0  0  0
   -1.4770   10.9720   24.9820 C   0  0  0  0  0  0
   -2.4380   11.6520   24.1500 N   0  0  0  0  0  0
    0.6680   10.2330   25.5240 C   0  0  0  0  0  0
    0.2850    9.6600   26.6660 N   0  0  0  0  0  0
   -1.0230    9.7970   26.9490 C   0  0  0  0  0  0
   -1.8770   10.4420   26.1350 N   0  0  0  0  0  0
    1.9020   10.2070   25.0690 N   0  0  0  0  0  0
    3.0610    9.5780   25.7040 C   0  0  0  0  0  0
    3.0370    8.0610   25.4890 C   0  0  0  0  0  0
    3.1550    7.7060   24.0130 C   0  0  0  0  0  0
    4.5690    7.8510   23.4340 C   0  0  0  0  0  0
    5.6920    7.9600   23.0730 C   0  0  0  0  0  0
    4.8868   16.7770   26.7341 H   0  0  0  0  0  0
    4.5240   17.0774   25.0006 H   0  0  0  0  0  0
    6.2145   16.7692   25.5241 H   0  0  0  0  0  0
    8.9774   15.3721   25.4674 H   0  0  0  0  0  0
    7.9353   15.4747   24.0079 H   0  0  0  0  0  0
    8.9106   13.9974   24.3130 H   0  0  0  0  0  0
    9.3530   10.5000   23.7883 H   0  0  0  0  0  0
    8.1439   10.8561   22.5085 H   0  0  0  0  0  0
    7.7205    9.7542   23.8625 H   0  0  0  0  0  0
    5.6573   10.5432   23.2168 H   0  0  0  0  0  0
    2.6751   11.7195   22.1010 H   0  0  0  0  0  0
    3.4719   10.2107   22.6622 H   0  0  0  0  0  0
   -2.1219   12.0951   23.1941 H   0  0  0  0  0  0
   -3.4874   11.7278   24.4710 H   0  0  0  0  0  0
   -1.4058    9.3680   27.8751 H   0  0  0  0  0  0
    3.9846    9.9852   25.2667 H   0  0  0  0  0  0
    3.0445    9.7850   26.7842 H   0  0  0  0  0  0
    3.8793    7.6011   26.0266 H   0  0  0  0  0  0
    2.0905    7.6514   25.8715 H   0  0  0  0  0  0
    2.8539    6.6588   23.8626 H   0  0  0  0  0  0
    2.4994    8.3642   23.4240 H   0  0  0  0  0  0
  1  2  1  0  0  0
  2  3  2  0  0  0
  2 13  1  0  0  0
  3  4  1  0  0  0
  3  6  1  0  0  0
  4  5  1  0  0  0
  5 30  1  0  0  0
  5 31  1  0  0  0
  5 32  1  0  0  0
  6  7  1  0  0  0
  6  9  2  0  0  0
  7  8  1  0  0  0
  8 33  1  0  0  0
  8 34  1  0  0  0
  8 35  1  0  0  0
  9 10  1  0  0  0
  9 12  1  0  0  0
 10 11  1  0  0  0
 11 36  1  0  0  0
 11 37  1  0  0  0
 11 38  1  0  0  0
 12 13  2  0  0  0
 12 39  1  0  0  0
 13 14  1  0  0  0
 14 15  1  0  0  0
 14 40  1  0  0  0
 14 41  1  0  0  0
 15 16  2  0  0  0
 15 24  1  0  0  0
 16 17  1  0  0  0
 17 18  2  0  0  0
 17 20  1  0  0  0
 18 19  1  0  0  0
 18 23  1  0  0  0
 19 42  1  0  0  0
 19 43  1  0  0  0
 20 21  2  0  0  0
 20 24  1  0  0  0
 21 22  1  0  0  0
 22 23  2  0  0  0
 22 44  1  0  0  0
 24 25  1  0  0  0
 25 26  1  0  0  0
 25 45  1  0  0  0
 25 46  1  0  0  0
 26 27  1  0  0  0
 26 47  1  0  0  0
 26 48  1  0  0  0
 27 28  1  0  0  0
 27 49  1  0  0  0
 27 50  1  0  0  0
 28 29  3  0  0  0
M  END
> <s_m_source_file>
../1uye_ligand.sdf

> <i_m_source_file_index>
1

> <s_epik_input>
Q2xjMWMoT1tDSDNdKWMoT1tDSDNdKWMoT1tDSDNdKVtjSF1jMVtDSDJdYyhuMiluKFtDSDJdW0NIMl1bQ0gyXUMjW0NIXSljKGMyMyluW2NIXW5jM1tOSDJd

> <s_epik_cmdline>
J2VwaWtfYXBwJywgJy1pbWFlJywgJ2xpZ2FuZF9wcm8ubWFlJywgJy1vbWFlJywgJ2xpZ2FuZF9wcmVwLm1hZScsICctbXMnLCAnMScsICctcGgnLCAnNycsICctcGh0JywgJzAuNScsICctbnQn

> <r_lp_tautomer_probability>
1

> <r_epik_Ionization_Penalty>
  0.0015

> <r_epik_Ionization_Penalty_Charging>
  0.0000

> <r_epik_Ionization_Penalty_Neutral>
  0.0015

> <r_epik_State_Penalty>
 -0.0000

> <r_epik_Charging_Adjusted_Penalty>
0

> <i_epik_Tot_Q>
0

> <i_epik_Tot_abs_Q>
0

$$$$
