1uyf_ligand
                    3D
 Schrodinger Suite 2020-3.
 50 52  0  0  1  0            999 V2000
    2.3120   14.0680   24.3150 Cl  0  0  0  0  0  0
    3.8980   13.2920   24.2100 C   0  0  0  0  0  0
    5.0260   13.9110   24.7110 C   0  0  0  0  0  0
    5.1190   15.1390   25.3580 O   0  0  0  0  0  0
    4.1260   15.7230   26.1350 C   0  0  0  0  0  0
    6.2650   13.3670   24.6310 C   0  0  0  0  0  0
    7.3090   14.0870   25.2130 O   0  0  0  0  0  0
    7.7660   15.2710   24.5720 C   0  0  0  0  0  0
    6.5020   12.1950   24.0430 C   0  0  0  0  0  0
    7.8340   11.7330   24.1060 O   0  0  0  0  0  0
    8.1810   10.7080   23.1560 C   0  0  0  0  0  0
    5.4270   11.5070   23.5020 C   0  0  0  0  0  0
    4.1400   12.0430   23.5720 C   0  0  0  0  0  0
    3.0410   11.2150   22.9470 C   0  0  0  0  0  0
    1.8300   11.0150   23.8120 C   0  0  0  0  0  0
    0.6270   11.4450   23.5600 N   0  0  0  0  0  0
   -0.1750   10.9720   24.6730 C   0  0  0  0  0  0
   -1.4840   11.1340   24.9560 C   0  0  0  0  0  0
   -2.4570   11.8080   24.1250 N   0  0  0  0  0  0
    0.5830   10.3140   25.5770 C   0  0  0  0  0  0
    0.1470    9.8430   26.7050 N   0  0  0  0  0  0
   -1.1360   10.0080   26.9530 C   0  0  0  0  0  0
   -1.8970   10.6050   26.0990 N   0  0  0  0  0  0
    1.9230   10.3260   25.0990 N   0  0  0  0  0  0
    3.0880    9.6600   25.7080 C   0  0  0  0  0  0
    2.9510    8.1510   25.6090 C   0  0  0  0  0  0
    3.3900    7.4800   24.3360 C   0  0  0  0  0  0
    4.7800    7.7670   23.7480 C   0  0  0  0  0  0
    5.8230    8.0360   23.2680 C   0  0  0  0  0  0
   -1.6960    9.5510   28.0950 F   0  0  0  0  0  0
    4.4816   16.6912   26.5174 H   0  0  0  0  0  0
    3.8849   15.0612   26.9799 H   0  0  0  0  0  0
    3.2255   15.8789   25.5227 H   0  0  0  0  0  0
    8.5861   15.7119   25.1577 H   0  0  0  0  0  0
    6.9382   15.9918   24.4999 H   0  0  0  0  0  0
    8.1273   15.0253   23.5625 H   0  0  0  0  0  0
    9.2348   10.4234   23.2922 H   0  0  0  0  0  0
    8.0332   11.0893   22.1348 H   0  0  0  0  0  0
    7.5400    9.8283   23.3152 H   0  0  0  0  0  0
    5.5875   10.5428   23.0196 H   0  0  0  0  0  0
    2.6933   11.7035   22.0248 H   0  0  0  0  0  0
    3.4274   10.2132   22.7080 H   0  0  0  0  0  0
   -2.1474   12.2579   23.1702 H   0  0  0  0  0  0
   -3.5067   11.8707   24.4478 H   0  0  0  0  0  0
    4.0036    9.9705   25.1833 H   0  0  0  0  0  0
    3.1593    9.9431   26.7685 H   0  0  0  0  0  0
    3.5483    7.6759   26.4011 H   0  0  0  0  0  0
    1.8942    7.8701   25.7283 H   0  0  0  0  0  0
    3.3840    6.3889   24.4757 H   0  0  0  0  0  0
    2.7000    7.7493   23.5227 H   0  0  0  0  0  0
  1  2  1  0  0  0
  2  3  2  0  0  0
  2 13  1  0  0  0
  3  4  1  0  0  0
  3  6  1  0  0  0
  4  5  1  0  0  0
  5 31  1  0  0  0
  5 32  1  0  0  0
  5 33  1  0  0  0
  6  7  1  0  0  0
  6  9  2  0  0  0
  7  8  1  0  0  0
  8 34  1  0  0  0
  8 35  1  0  0  0
  8 36  1  0  0  0
  9 10  1  0  0  0
  9 12  1  0  0  0
 10 11  1  0  0  0
 11 37  1  0  0  0
 11 38  1  0  0  0
 11 39  1  0  0  0
 12 13  2  0  0  0
 12 40  1  0  0  0
 13 14  1  0  0  0
 14 15  1  0  0  0
 14 41  1  0  0  0
 14 42  1  0  0  0
 15 16  2  0  0  0
 15 24  1  0  0  0
 16 17  1  0  0  0
 17 18  2  0  0  0
 17 20  1  0  0  0
 18 19  1  0  0  0
 18 23  1  0  0  0
 19 43  1  0  0  0
 19 44  1  0  0  0
 20 21  2  0  0  0
 20 24  1  0  0  0
 21 22  1  0  0  0
 22 23  2  0  0  0
 22 30  1  0  0  0
 24 25  1  0  0  0
 25 26  1  0  0  0
 25 45  1  0  0  0
 25 46  1  0  0  0
 26 27  1  0  0  0
 26 47  1  0  0  0
 26 48  1  0  0  0
 27 28  1  0  0  0
 27 49  1  0  0  0
 27 50  1  0  0  0
 28 29  3  0  0  0
M  END
> <s_m_source_file>
../1uyf_ligand.sdf

> <i_m_source_file_index>
1

> <s_epik_input>
Q2xjMWMoT1tDSDNdKWMoT1tDSDNdKWMoT1tDSDNdKVtjSF1jMVtDSDJdYyhuMiluKFtDSDJdW0NIMl1bQ0gyXUMjW0NIXSljKGMyMyluYyhGKW5jM1tOSDJd

> <s_epik_cmdline>
J2VwaWtfYXBwJywgJy1pbWFlJywgJ2xpZ2FuZF9wcm8ubWFlJywgJy1vbWFlJywgJ2xpZ2FuZF9wcmVwLm1hZScsICctbXMnLCAnMScsICctcGgnLCAnNycsICctcGh0JywgJzAuNScsICctbnQn

> <r_lp_tautomer_probability>
1

> <r_epik_Ionization_Penalty>
  0.0000

> <r_epik_Ionization_Penalty_Charging>
  0.0000

> <r_epik_Ionization_Penalty_Neutral>
  0.0000

> <r_epik_State_Penalty>
 -0.0000

> <r_epik_Charging_Adjusted_Penalty>
0

> <i_epik_Tot_Q>
0

> <i_epik_Tot_abs_Q>
0

$$$$
