1uyg_ligand
                    3D
 Schrodinger Suite 2020-3.
 36 38  0  0  1  0            999 V2000
    7.6810   10.0890   22.8450 C   0  0  0  0  0  0
    2.2600    9.9580   25.3190 N   0  3  0  0  0  0
    1.0480   10.0930   25.7560 C   0  0  0  0  0  0
    0.5710    9.6940   26.9140 N   0  0  0  0  0  0
   -0.7110    9.9290   27.0940 C   0  0  0  0  0  0
    3.5150   10.5050   23.2700 C   0  0  0  0  0  0
   -1.5560   10.4980   26.2430 N   0  0  0  0  0  0
    0.2840   10.6970   24.8250 C   0  0  0  0  0  0
   -1.0660   10.8650   25.0730 C   0  0  0  0  0  0
   -1.9680   11.4750   24.1540 N   0  0  0  0  0  0
    1.0320   10.9440   23.7520 N   0  0  0  0  0  0
    2.2550   10.4610   24.0760 C   0  0  0  0  0  0
    5.7960   11.5440   23.4120 C   0  0  0  0  0  0
    4.4370   11.6390   23.6640 C   0  0  0  0  0  0
    3.9210   12.7510   24.2870 C   0  0  0  0  0  0
    6.6830   12.5560   23.7270 C   0  0  0  0  0  0
    6.1770   13.6970   24.3390 C   0  0  0  0  0  0
    4.8010   13.7840   24.6080 C   0  0  0  0  0  0
   -1.3040    9.4820   28.5200 F   0  0  0  0  0  0
    4.2350   14.9180   25.2610 O   0  0  0  0  0  0
    6.2690   10.3840   22.8050 O   0  0  0  0  0  0
    5.0310   16.0220   25.7110 C   0  0  0  0  0  0
    7.8726    9.1416   22.3199 H   0  0  0  0  0  0
    8.0076   10.0008   23.8917 H   0  0  0  0  0  0
    8.2390   10.8998   22.3539 H   0  0  0  0  0  0
    4.0695    9.5646   23.4048 H   0  0  0  0  0  0
    3.2656   10.6345   22.2065 H   0  0  0  0  0  0
   -3.0319   11.5779   24.4138 H   0  0  0  0  0  0
   -1.6004   11.8430   23.1848 H   0  0  0  0  0  0
    2.8591   12.8226   24.5222 H   0  0  0  0  0  0
    7.7456   12.4624   23.5027 H   0  0  0  0  0  0
    6.8424   14.5174   24.6079 H   0  0  0  0  0  0
    4.3814   16.7744   26.1821 H   0  0  0  0  0  0
    5.5516   16.4725   24.8530 H   0  0  0  0  0  0
    5.7708   15.6662   26.4432 H   0  0  0  0  0  0
    3.0283    9.5017   25.9605 H   0  0  0  0  0  0
  1 21  1  0  0  0
  1 23  1  0  0  0
  1 24  1  0  0  0
  1 25  1  0  0  0
  2  3  2  0  0  0
  2 12  1  0  0  0
  2 36  1  0  0  0
  3  4  1  0  0  0
  3  8  1  0  0  0
  4  5  2  0  0  0
  5  7  1  0  0  0
  5 19  1  0  0  0
  6 12  1  0  0  0
  6 14  1  0  0  0
  6 26  1  0  0  0
  6 27  1  0  0  0
  7  9  1  0  0  0
  8  9  2  0  0  0
  8 11  1  0  0  0
  9 10  1  0  0  0
 10 28  1  0  0  0
 10 29  1  0  0  0
 11 12  2  0  0  0
 13 14  2  0  0  0
 13 16  1  0  0  0
 13 21  1  0  0  0
 14 15  1  0  0  0
 15 18  2  0  0  0
 15 30  1  0  0  0
 16 17  2  0  0  0
 16 31  1  0  0  0
 17 18  1  0  0  0
 17 32  1  0  0  0
 18 20  1  0  0  0
 20 22  1  0  0  0
 22 33  1  0  0  0
 22 34  1  0  0  0
 22 35  1  0  0  0
M  CHG  1   2   1
M  END
> <s_m_source_file>
../1uyg_ligand.sdf

> <i_m_source_file_index>
1

> <s_epik_input>
W2NIXTFbY0hdYyhPW0NIM10pW2NIXWMoYzFPW0NIM10pW0NIMl1jKG4yKW5jKGMyMyljKFtOSDJdKVtuSF1jKG4zKUY=

> <s_epik_cmdline>
J2VwaWtfYXBwJywgJy1pbWFlJywgJ2xpZ2FuZF9wcm8ubWFlJywgJy1vbWFlJywgJ2xpZ2FuZF9wcmVwLm1hZScsICctbXMnLCAnMScsICctcGgnLCAnNycsICctcGh0JywgJzAuNScsICctbnQn

> <r_lp_tautomer_probability>
1

> <r_epik_Ionization_Penalty>
  0.0056

> <r_epik_Ionization_Penalty_Charging>
  0.0000

> <r_epik_Ionization_Penalty_Neutral>
  0.0056

> <r_epik_State_Penalty>
 -0.0000

> <r_epik_Charging_Adjusted_Penalty>
0

> <i_epik_Tot_Q>
1

> <i_epik_Tot_abs_Q>
1

$$$$
