1uyh_ligand
                    3D
 Schrodinger Suite 2020-3.
 48 50  0  0  1  0            999 V2000
    7.6600   10.1370   22.8270 C   0  0  0  0  0  0
    6.5610   12.6060   23.9570 C   0  0  0  0  0  0
    6.2680   10.4730   22.8830 O   0  0  0  0  0  0
    5.7460   11.5810   23.4960 C   0  0  0  0  0  0
    6.0280   13.7640   24.5690 C   0  0  0  0  0  0
    4.6400   13.8430   24.7210 C   0  0  0  0  0  0
    4.0570   14.9380   25.2980 O   0  0  0  0  0  0
    4.7890   16.0680   25.7960 C   0  0  0  0  0  0
    3.8030   12.8220   24.2300 C   0  0  0  0  0  0
    4.3340   11.6820   23.6210 C   0  0  0  0  0  0
    3.4310   10.5670   23.0940 C   0  0  0  0  0  0
    2.1840   10.4650   23.9250 C   0  0  0  0  0  0
    0.9310   10.9810   23.6270 N   0  0  0  0  0  0
    0.1520   10.6510   24.6980 C   0  0  0  0  0  0
   -1.2090   10.8330   24.9700 C   0  0  0  0  0  0
   -2.0560   11.4690   24.0840 N   0  0  0  0  0  0
    0.9420    9.9900   25.6220 C   0  0  0  0  0  0
    0.4270    9.5620   26.7940 N   0  0  0  0  0  0
   -0.8970    9.7890   27.0310 C   0  0  0  0  0  0
   -1.6890   10.3960   26.1580 N   0  0  0  0  0  0
    2.1790    9.8520   25.1220 N   0  0  0  0  0  0
    3.3630    9.2450   25.7890 C   0  0  0  0  0  0
    3.3520    7.7240   25.8130 C   0  0  0  0  0  0
    3.8830    7.0990   24.5370 C   0  0  0  0  0  0
    5.2980    7.5180   24.1720 C   0  0  0  0  0  0
   -1.4630    9.4060   28.1750 F   0  0  0  0  0  0
    7.7879    9.1954   22.2728 H   0  0  0  0  0  0
    8.0496   10.0170   23.8487 H   0  0  0  0  0  0
    8.2109   10.9407   22.3165 H   0  0  0  0  0  0
    7.6414   12.5157   23.8441 H   0  0  0  0  0  0
    6.6781   14.5692   24.9113 H   0  0  0  0  0  0
    4.0864   16.8073   26.2081 H   0  0  0  0  0  0
    5.3619   16.5244   24.9753 H   0  0  0  0  0  0
    5.4796   15.7382   26.5861 H   0  0  0  0  0  0
    2.7220   12.9230   24.3268 H   0  0  0  0  0  0
    3.1504   10.7838   22.0527 H   0  0  0  0  0  0
    3.9689    9.6085   23.1368 H   0  0  0  0  0  0
   -1.6726   11.8266   23.1170 H   0  0  0  0  0  0
   -3.1141   11.6180   24.3453 H   0  0  0  0  0  0
    4.2784    9.5533   25.2627 H   0  0  0  0  0  0
    3.4091    9.5844   26.8343 H   0  0  0  0  0  0
    3.9791    7.3659   26.6427 H   0  0  0  0  0  0
    2.3209    7.3669   25.9521 H   0  0  0  0  0  0
    3.8901    6.0039   24.6405 H   0  0  0  0  0  0
    3.2373    7.3833   23.6931 H   0  0  0  0  0  0
    5.5988    7.0194   23.2387 H   0  0  0  0  0  0
    5.9859    7.2291   24.9803 H   0  0  0  0  0  0
    5.3331    8.6086   24.0329 H   0  0  0  0  0  0
  1  3  1  0  0  0
  1 27  1  0  0  0
  1 28  1  0  0  0
  1 29  1  0  0  0
  2  4  2  0  0  0
  2  5  1  0  0  0
  2 30  1  0  0  0
  3  4  1  0  0  0
  4 10  1  0  0  0
  5  6  2  0  0  0
  5 31  1  0  0  0
  6  7  1  0  0  0
  6  9  1  0  0  0
  7  8  1  0  0  0
  8 32  1  0  0  0
  8 33  1  0  0  0
  8 34  1  0  0  0
  9 10  2  0  0  0
  9 35  1  0  0  0
 10 11  1  0  0  0
 11 12  1  0  0  0
 11 36  1  0  0  0
 11 37  1  0  0  0
 12 13  2  0  0  0
 12 21  1  0  0  0
 13 14  1  0  0  0
 14 15  2  0  0  0
 14 17  1  0  0  0
 15 16  1  0  0  0
 15 20  1  0  0  0
 16 38  1  0  0  0
 16 39  1  0  0  0
 17 18  2  0  0  0
 17 21  1  0  0  0
 18 19  1  0  0  0
 19 20  2  0  0  0
 19 26  1  0  0  0
 21 22  1  0  0  0
 22 23  1  0  0  0
 22 40  1  0  0  0
 22 41  1  0  0  0
 23 24  1  0  0  0
 23 42  1  0  0  0
 23 43  1  0  0  0
 24 25  1  0  0  0
 24 44  1  0  0  0
 24 45  1  0  0  0
 25 46  1  0  0  0
 25 47  1  0  0  0
 25 48  1  0  0  0
M  END
> <s_m_source_file>
../1uyh_ligand.sdf

> <i_m_source_file_index>
1

> <s_epik_input>
W0NIM11PYzFbY0hdW2NIXWMoT1tDSDNdKVtjSF1jMVtDSDJdYyhuMiluKFtDSDJdW0NIMl1bQ0gyXVtDSDNdKWMoYzIzKW5jKEYpbmMzW05IMl0=

> <s_epik_cmdline>
J2VwaWtfYXBwJywgJy1pbWFlJywgJ2xpZ2FuZF9wcm8ubWFlJywgJy1vbWFlJywgJ2xpZ2FuZF9wcmVwLm1hZScsICctbXMnLCAnMScsICctcGgnLCAnNycsICctcGh0JywgJzAuNScsICctbnQn

> <r_lp_tautomer_probability>
1

> <r_epik_Ionization_Penalty>
  0.0000

> <r_epik_Ionization_Penalty_Charging>
  0.0000

> <r_epik_Ionization_Penalty_Neutral>
  0.0000

> <r_epik_State_Penalty>
 -0.0000

> <r_epik_Charging_Adjusted_Penalty>
0

> <i_epik_Tot_Q>
0

> <i_epik_Tot_abs_Q>
0

$$$$
