1uyi_ligand
                    3D
 Schrodinger Suite 2020-3.
 46 48  0  0  1  0            999 V2000
    5.1990    7.9820   29.0130 C   0  0  0  0  0  0
    4.9810    7.6540   27.7770 C   0  0  0  0  0  0
    4.6800    7.2890   26.3660 C   0  0  0  0  0  0
    3.3540    7.9330   25.9080 C   0  0  0  0  0  0
    3.4660    9.4610   26.0310 C   0  0  0  0  0  0
    2.2830   10.0330   25.3560 N   0  0  0  0  0  0
    1.0330   10.1470   25.8500 C   0  0  0  0  0  0
    0.5660    9.7670   27.0420 N   0  0  0  0  0  0
    0.2250   10.7470   24.9230 C   0  0  0  0  0  0
   -1.1230   10.9340   25.2300 C   0  0  0  0  0  0
   -2.0080   11.4920   24.3850 N   0  0  0  0  0  0
   -1.5600   10.5490   26.4280 N   0  0  0  0  0  0
   -0.7260    9.9790   27.3070 C   0  0  0  0  0  0
   -1.1800    9.6000   28.4740 F   0  0  0  0  0  0
    0.9970   11.0240   23.8410 N   0  0  0  0  0  0
    2.2460   10.5480   24.1200 C   0  0  0  0  0  0
    3.4810   10.6170   23.2590 C   0  0  0  0  0  0
    4.3670   11.7960   23.6460 C   0  0  0  0  0  0
    5.7400   11.7320   23.3330 C   0  0  0  0  0  0
    6.2150   10.5960   22.7090 O   0  0  0  0  0  0
    7.4960   10.0370   23.0230 C   0  0  0  0  0  0
    6.6110   12.8020   23.6220 C   0  0  0  0  0  0
    6.0550   13.9340   24.2360 C   0  0  0  0  0  0
    4.6950   13.9950   24.5770 C   0  0  0  0  0  0
    3.8370   12.9190   24.2740 C   0  0  0  0  0  0
    4.1630   15.1080   25.1890 O   0  0  0  0  0  0
    4.9430   16.2520   25.5770 C   0  0  0  0  0  0
    5.4919    7.6441   25.7142 H   0  0  0  0  0  0
    4.5928    6.1958   26.2806 H   0  0  0  0  0  0
    3.1564    7.6602   24.8608 H   0  0  0  0  0  0
    2.5319    7.5706   26.5427 H   0  0  0  0  0  0
    3.4827    9.7430   27.0941 H   0  0  0  0  0  0
    4.3935    9.8008   25.5469 H   0  0  0  0  0  0
   -1.6831   11.8220   23.3873 H   0  0  0  0  0  0
   -3.0568   11.6184   24.6916 H   0  0  0  0  0  0
    4.0627    9.6909   23.3774 H   0  0  0  0  0  0
    3.1874   10.7334   22.2053 H   0  0  0  0  0  0
    7.6654    9.1404   22.4086 H   0  0  0  0  0  0
    7.5253    9.7627   24.0879 H   0  0  0  0  0  0
    8.2810   10.7786   22.8136 H   0  0  0  0  0  0
    7.6723   12.7518   23.3785 H   0  0  0  0  0  0
    6.6958   14.7884   24.4539 H   0  0  0  0  0  0
    2.7778   12.9655   24.5269 H   0  0  0  0  0  0
    4.2871   17.0019   26.0434 H   0  0  0  0  0  0
    5.4232   16.6870   24.6880 H   0  0  0  0  0  0
    5.7154   15.9423   26.2964 H   0  0  0  0  0  0
  1  2  3  0  0  0
  2  3  1  0  0  0
  3  4  1  0  0  0
  3 28  1  0  0  0
  3 29  1  0  0  0
  4  5  1  0  0  0
  4 30  1  0  0  0
  4 31  1  0  0  0
  5  6  1  0  0  0
  5 32  1  0  0  0
  5 33  1  0  0  0
  6  7  1  0  0  0
  6 16  1  0  0  0
  7  8  1  0  0  0
  7  9  2  0  0  0
  8 13  2  0  0  0
  9 10  1  0  0  0
  9 15  1  0  0  0
 10 11  1  0  0  0
 10 12  2  0  0  0
 11 34  1  0  0  0
 11 35  1  0  0  0
 12 13  1  0  0  0
 13 14  1  0  0  0
 15 16  2  0  0  0
 16 17  1  0  0  0
 17 18  1  0  0  0
 17 36  1  0  0  0
 17 37  1  0  0  0
 18 19  2  0  0  0
 18 25  1  0  0  0
 19 20  1  0  0  0
 19 22  1  0  0  0
 20 21  1  0  0  0
 21 38  1  0  0  0
 21 39  1  0  0  0
 21 40  1  0  0  0
 22 23  2  0  0  0
 22 41  1  0  0  0
 23 24  1  0  0  0
 23 42  1  0  0  0
 24 25  2  0  0  0
 24 26  1  0  0  0
 25 43  1  0  0  0
 26 27  1  0  0  0
 27 44  1  0  0  0
 27 45  1  0  0  0
 27 46  1  0  0  0
M  END
> <s_m_source_file>
../1uyi_ligand.sdf

> <i_m_source_file_index>
1

> <s_epik_input>
W0NIXSNDW0NIMl1bQ0gyXVtDSDJdbjFjKG5jKGMxMiljKFtOSDJdKW5jKG4yKUYpW0NIMl1jM2MoT1tDSDNdKVtjSF1bY0hdYyhbY0hdMylPW0NIM10=

> <s_epik_cmdline>
J2VwaWtfYXBwJywgJy1pbWFlJywgJ2xpZ2FuZF9wcm8ubWFlJywgJy1vbWFlJywgJ2xpZ2FuZF9wcmVwLm1hZScsICctbXMnLCAnMScsICctcGgnLCAnNycsICctcGh0JywgJzAuNScsICctbnQn

> <r_lp_tautomer_probability>
1

> <r_epik_Ionization_Penalty>
  0.0000

> <r_epik_Ionization_Penalty_Charging>
  0.0000

> <r_epik_Ionization_Penalty_Neutral>
  0.0000

> <r_epik_State_Penalty>
 -0.0000

> <r_epik_Charging_Adjusted_Penalty>
0

> <i_epik_Tot_Q>
0

> <i_epik_Tot_abs_Q>
0

$$$$
