1uyk_ligand
                    3D
 Schrodinger Suite 2020-3.
 43 46  0  0  1  0            999 V2000
    5.3940    7.6590   24.4680 C   0  0  0  0  0  0
    4.0100    7.1350   24.8390 C   0  0  0  0  0  0
    3.3890    7.7240   26.1230 C   0  0  0  0  0  0
    3.2200    9.2470   26.2410 C   0  0  0  0  0  0
    2.0930    9.8900   25.5500 N   0  0  0  0  0  0
    0.8250   10.0070   26.0520 C   0  0  0  0  0  0
    0.3140    9.5400   27.2570 N   0  0  0  0  0  0
   -0.9760    9.6780   27.6180 C   0  0  0  0  0  0
   -1.7200   10.3440   26.6920 N   0  0  0  0  0  0
    0.0060   10.6760   25.1210 C   0  0  0  0  0  0
   -1.3120   10.8640   25.4670 C   0  0  0  0  0  0
   -2.1950   11.5520   24.6520 N   0  0  0  0  0  0
    0.7570   10.9790   24.0390 N   0  0  0  0  0  0
    2.0730   10.5310   24.2650 C   0  0  0  0  0  0
    3.3060   10.7450   23.2830 C   0  0  0  0  0  0
    4.1450   11.9080   23.7980 C   0  0  0  0  0  0
    3.5400   13.0490   24.3440 C   0  0  0  0  0  0
    4.4210   14.0360   24.8000 C   0  0  0  0  0  0
    5.5280   11.7650   23.7620 C   0  0  0  0  0  0
    4.1730   15.2730   25.3690 O   0  0  0  0  0  0
    6.4250   12.7800   24.2490 C   0  0  0  0  0  0
    5.7770   13.9010   24.7390 C   0  0  0  0  0  0
    6.3090   14.9930   25.2870 O   0  0  0  0  0  0
    5.3560   15.8990   25.8170 C   0  0  0  0  0  0
   -1.8330    9.3920   29.0180 F   0  0  0  0  0  0
    5.7343    7.1723   23.5421 H   0  0  0  0  0  0
    6.1007    7.4355   25.2808 H   0  0  0  0  0  0
    5.3449    8.7470   24.3136 H   0  0  0  0  0  0
    3.3033    7.3585   24.0262 H   0  0  0  0  0  0
    4.0591    6.0470   24.9933 H   0  0  0  0  0  0
    2.3731    7.3237   26.2559 H   0  0  0  0  0  0
    4.0080    7.4483   26.9895 H   0  0  0  0  0  0
    3.0902    9.5206   27.2985 H   0  0  0  0  0  0
    4.1138    9.7473   25.8399 H   0  0  0  0  0  0
   -3.2422   11.6824   24.9623 H   0  0  0  0  0  0
   -1.8492   11.9682   23.6943 H   0  0  0  0  0  0
    3.9148    9.8293   23.2540 H   0  0  0  0  0  0
    2.9350   10.9708   22.2724 H   0  0  0  0  0  0
    2.4576   13.1596   24.4088 H   0  0  0  0  0  0
    5.9491   10.8484   23.3488 H   0  0  0  0  0  0
    7.5099   12.6760   24.2335 H   0  0  0  0  0  0
    5.4149   16.9143   25.3979 H   0  0  0  0  0  0
    5.3475   15.9557   26.9155 H   0  0  0  0  0  0
  1  2  1  0  0  0
  1 26  1  0  0  0
  1 27  1  0  0  0
  1 28  1  0  0  0
  2  3  1  0  0  0
  2 29  1  0  0  0
  2 30  1  0  0  0
  3  4  1  0  0  0
  3 31  1  0  0  0
  3 32  1  0  0  0
  4  5  1  0  0  0
  4 33  1  0  0  0
  4 34  1  0  0  0
  5  6  1  0  0  0
  5 14  1  0  0  0
  6  7  1  0  0  0
  6 10  2  0  0  0
  7  8  2  0  0  0
  8  9  1  0  0  0
  8 25  1  0  0  0
  9 11  2  0  0  0
 10 11  1  0  0  0
 10 13  1  0  0  0
 11 12  1  0  0  0
 12 35  1  0  0  0
 12 36  1  0  0  0
 13 14  2  0  0  0
 14 15  1  0  0  0
 15 16  1  0  0  0
 15 37  1  0  0  0
 15 38  1  0  0  0
 16 17  2  0  0  0
 16 19  1  0  0  0
 17 18  1  0  0  0
 17 39  1  0  0  0
 18 20  1  0  0  0
 18 22  2  0  0  0
 19 21  2  0  0  0
 19 40  1  0  0  0
 20 24  1  0  0  0
 21 22  1  0  0  0
 21 41  1  0  0  0
 22 23  1  0  0  0
 23 24  1  0  0  0
 24 42  1  0  0  0
 24 43  1  0  0  0
M  END
> <s_m_source_file>
../1uyk_ligand.sdf

> <i_m_source_file_index>
1

> <s_epik_input>
bjFjKEYpbmMoW05IMl0pYyhjMTIpbmMobjJbQ0gyXVtDSDJdW0NIMl1bQ0gzXSlbQ0gyXWMoW2NIXTMpW2NIXVtjSF1jKGMzNClPW0NIMl1PNA==

> <s_epik_cmdline>
J2VwaWtfYXBwJywgJy1pbWFlJywgJ2xpZ2FuZF9wcm8ubWFlJywgJy1vbWFlJywgJ2xpZ2FuZF9wcmVwLm1hZScsICctbXMnLCAnMScsICctcGgnLCAnNycsICctcGh0JywgJzAuNScsICctbnQn

> <r_lp_tautomer_probability>
1

> <r_epik_Ionization_Penalty>
  0.0000

> <r_epik_Ionization_Penalty_Charging>
  0.0000

> <r_epik_Ionization_Penalty_Neutral>
  0.0000

> <r_epik_State_Penalty>
 -0.0000

> <r_epik_Charging_Adjusted_Penalty>
0

> <i_epik_Tot_Q>
0

> <i_epik_Tot_abs_Q>
0

> <s_epik_Chemistry_Notes>
This compound contains an acetal/aminal-like group ( X-CH(R)-Y where X, Y are N, S, or O) that may be acid/base labile, releasing an aldehyde.

$$$$
