1uym_ligand
                    3D
 Schrodinger Suite 2020-3.
 52 54  0  0  1  0            999 V2000
    8.4640   10.0760   22.9460 C   0  0  0  0  0  0
    8.3440   11.2560   23.7340 O   0  0  0  0  0  0
    6.9910   11.6300   24.0410 C   0  0  0  0  0  0
    5.7600   11.0910   23.3580 C   0  0  0  0  0  0
    6.7610   12.9230   24.7240 C   0  0  0  0  0  0
    7.8080   13.5830   25.4380 O   0  0  0  0  0  0
    8.3080   14.6680   24.6630 C   0  0  0  0  0  0
    5.3520   13.3220   25.0060 C   0  0  0  0  0  0
    5.2000   14.5000   25.8540 O   0  0  0  0  0  0
    4.4290   15.6400   25.5330 C   0  0  0  0  0  0
    4.3980   12.6900   24.4120 C   0  0  0  0  0  0
    4.5540   11.6470   23.6670 C   0  0  0  0  0  0
    3.3500   10.9700   23.0240 C   0  0  0  0  0  0
    2.1830   10.7420   23.9560 C   0  0  0  0  0  0
    0.9210   11.2490   23.7430 N   0  0  0  0  0  0
    0.1450   10.8330   24.7520 C   0  0  0  0  0  0
   -1.2660   11.0070   25.1640 C   0  0  0  0  0  0
   -2.1020   11.7400   24.4230 N   0  0  0  0  0  0
    1.0160   10.0430   25.5830 C   0  0  0  0  0  0
    0.5640    9.4680   26.7350 N   0  0  0  0  0  0
   -0.8260    9.6280   27.1630 C   0  0  0  0  0  0
   -1.6180   10.4520   26.2380 N   0  0  0  0  0  0
    2.2420    9.9970   25.0830 N   0  0  0  0  0  0
    3.3880    9.2670   25.6110 C   0  0  0  0  0  0
    3.2360    7.8460   25.0520 C   0  0  0  0  0  0
    4.5380    7.0580   24.9490 C   0  0  0  0  0  0
    5.2630    7.3030   23.6400 C   0  0  0  0  0  0
    9.5276    9.8658   22.7602 H   0  0  0  0  0  0
    7.9460   10.2216   21.9866 H   0  0  0  0  0  0
    8.0111    9.2292   23.4825 H   0  0  0  0  0  0
    5.8321   10.2778   22.6358 H   0  0  0  0  0  0
    9.1135   15.1731   25.2162 H   0  0  0  0  0  0
    7.4953   15.3823   24.4650 H   0  0  0  0  0  0
    8.7014   14.2866   23.7092 H   0  0  0  0  0  0
    4.4955   16.3703   26.3529 H   0  0  0  0  0  0
    3.3793   15.3442   25.3897 H   0  0  0  0  0  0
    4.8121   16.0928   24.6066 H   0  0  0  0  0  0
    3.3835   13.0643   24.5490 H   0  0  0  0  0  0
    2.9791   11.5913   22.1955 H   0  0  0  0  0  0
    3.6467    9.9835   22.6382 H   0  0  0  0  0  0
   -1.7474   12.2054   23.4915 H   0  0  0  0  0  0
   -3.1449   11.8781   24.7445 H   0  0  0  0  0  0
   -1.2316    9.1832   28.0717 H   0  0  0  0  0  0
    4.3172    9.7443   25.2663 H   0  0  0  0  0  0
    3.3556    9.2791   26.7105 H   0  0  0  0  0  0
    2.5644    7.2661   25.7022 H   0  0  0  0  0  0
    2.8129    7.8943   24.0378 H   0  0  0  0  0  0
    5.2103    7.3519   25.7686 H   0  0  0  0  0  0
    4.3219    5.9818   25.0201 H   0  0  0  0  0  0
    6.1910    6.7128   23.6188 H   0  0  0  0  0  0
    5.5062    8.3720   23.5501 H   0  0  0  0  0  0
    4.6177    7.0019   22.8016 H   0  0  0  0  0  0
  1  2  1  0  0  0
  1 28  1  0  0  0
  1 29  1  0  0  0
  1 30  1  0  0  0
  2  3  1  0  0  0
  3  4  2  0  0  0
  3  5  1  0  0  0
  4 12  1  0  0  0
  4 31  1  0  0  0
  5  6  1  0  0  0
  5  8  2  0  0  0
  6  7  1  0  0  0
  7 32  1  0  0  0
  7 33  1  0  0  0
  7 34  1  0  0  0
  8  9  1  0  0  0
  8 11  1  0  0  0
  9 10  1  0  0  0
 10 35  1  0  0  0
 10 36  1  0  0  0
 10 37  1  0  0  0
 11 12  2  0  0  0
 11 38  1  0  0  0
 12 13  1  0  0  0
 13 14  1  0  0  0
 13 39  1  0  0  0
 13 40  1  0  0  0
 14 15  2  0  0  0
 14 23  1  0  0  0
 15 16  1  0  0  0
 16 17  2  0  0  0
 16 19  1  0  0  0
 17 18  1  0  0  0
 17 22  1  0  0  0
 18 41  1  0  0  0
 18 42  1  0  0  0
 19 20  2  0  0  0
 19 23  1  0  0  0
 20 21  1  0  0  0
 21 22  2  0  0  0
 21 43  1  0  0  0
 23 24  1  0  0  0
 24 25  1  0  0  0
 24 44  1  0  0  0
 24 45  1  0  0  0
 25 26  1  0  0  0
 25 46  1  0  0  0
 25 47  1  0  0  0
 26 27  1  0  0  0
 26 48  1  0  0  0
 26 49  1  0  0  0
 27 50  1  0  0  0
 27 51  1  0  0  0
 27 52  1  0  0  0
M  END
> <s_m_source_file>
../1uym_ligand.sdf

> <i_m_source_file_index>
1

> <s_epik_input>
W0NIM11PYzFjKE9bQ0gzXSlbY0hdYyhbY0hdYzFPW0NIM10pW0NIMl1jKG4yKW4oW0NIMl1bQ0gyXVtDSDJdW0NIM10pYyhjMjMpbltjSF1uYzNbTkgyXQ==

> <s_epik_cmdline>
J2VwaWtfYXBwJywgJy1pbWFlJywgJ2xpZ2FuZF9wcm8ubWFlJywgJy1vbWFlJywgJ2xpZ2FuZF9wcmVwLm1hZScsICctbXMnLCAnMScsICctcGgnLCAnNycsICctcGh0JywgJzAuNScsICctbnQn

> <r_lp_tautomer_probability>
1

> <r_epik_Ionization_Penalty>
  0.0015

> <r_epik_Ionization_Penalty_Charging>
  0.0000

> <r_epik_Ionization_Penalty_Neutral>
  0.0015

> <r_epik_State_Penalty>
 -0.0000

> <r_epik_Charging_Adjusted_Penalty>
0

> <i_epik_Tot_Q>
0

> <i_epik_Tot_abs_Q>
0

$$$$
