1uys_ligand
                    3D
 Schrodinger Suite 2020-3.
 34 35  0  0  1  0            999 V2000
   -0.4320   19.6980  -23.6330 O   0  5  0  0  0  0
    0.0050   18.8510  -22.8410 C   0  0  0  0  0  0
    1.1880   18.4950  -22.9160 O   0  0  0  0  0  0
   -0.9040   18.2590  -21.7910 C   0  0  1  0  0  0
   -1.8940   17.2720  -22.4230 C   0  0  0  0  0  0
   -0.0850   17.5570  -20.8320 O   0  0  0  0  0  0
   -0.1460   18.0510  -19.5930 C   0  0  0  0  0  0
   -0.1350   19.4240  -19.3000 C   0  0  0  0  0  0
   -0.0540   19.8720  -17.9730 C   0  0  0  0  0  0
   -0.1000   17.1270  -18.5210 C   0  0  0  0  0  0
   -0.0320   17.5800  -17.2190 C   0  0  0  0  0  0
    0.0080   18.9480  -16.9610 C   0  0  0  0  0  0
    0.2570   19.3490  -15.6510 O   0  0  0  0  0  0
   -0.8660   19.4940  -14.8980 C   0  0  0  0  0  0
   -2.0280   19.0590  -15.2960 N   0  0  0  0  0  0
   -3.1400   19.1600  -14.5220 C   0  0  0  0  0  0
   -3.0550   19.7300  -13.2910 C   0  0  0  0  0  0
   -4.2850   19.8330  -12.3950 C   0  0  0  0  0  0
   -5.3510   19.3610  -13.0280 F   0  0  0  0  0  0
   -4.0590   19.1190  -11.2980 F   0  0  0  0  0  0
   -4.5130   21.0920  -12.0620 F   0  0  0  0  0  0
   -1.8400   20.2240  -12.8210 C   0  0  0  0  0  0
   -0.7030   20.1120  -13.6400 C   0  0  0  0  0  0
    0.8220   20.6720  -13.1410 Cl  0  0  0  0  0  0
   -1.4427   19.0598  -21.2632 H   0  0  0  0  0  0
   -2.5218   17.8007  -23.1554 H   0  0  0  0  0  0
   -2.5317   16.8392  -21.6381 H   0  0  0  0  0  0
   -1.3383   16.4685  -22.9286 H   0  0  0  0  0  0
   -0.1900   20.1493  -20.1118 H   0  0  0  0  0  0
   -0.0405   20.9387  -17.7494 H   0  0  0  0  0  0
   -0.1183   16.0563  -18.7243 H   0  0  0  0  0  0
   -0.0096   16.8681  -16.3939 H   0  0  0  0  0  0
   -4.0964   18.7854  -14.8867 H   0  0  0  0  0  0
   -1.7724   20.6884  -11.8372 H   0  0  0  0  0  0
  1  2  1  0  0  0
  2  3  2  0  0  0
  2  4  1  0  0  0
  4  5  1  0  0  0
  4  6  1  0  0  0
  4 25  1  0  0  0
  5 26  1  0  0  0
  5 27  1  0  0  0
  5 28  1  0  0  0
  6  7  1  0  0  0
  7  8  2  0  0  0
  7 10  1  0  0  0
  8  9  1  0  0  0
  8 29  1  0  0  0
  9 12  2  0  0  0
  9 30  1  0  0  0
 10 11  2  0  0  0
 10 31  1  0  0  0
 11 12  1  0  0  0
 11 32  1  0  0  0
 12 13  1  0  0  0
 13 14  1  0  0  0
 14 15  2  0  0  0
 14 23  1  0  0  0
 15 16  1  0  0  0
 16 17  2  0  0  0
 16 33  1  0  0  0
 17 18  1  0  0  0
 17 22  1  0  0  0
 18 19  1  0  0  0
 18 20  1  0  0  0
 18 21  1  0  0  0
 22 23  2  0  0  0
 22 34  1  0  0  0
 23 24  1  0  0  0
M  CHG  1   1  -1
M  END
> <s_m_source_file>
../1uys_ligand.sdf

> <i_m_source_file_index>
1

> <s_epik_input>
W09IXUMoPU8pW0NAQEhdKFtDSDNdKU9jMVtjSF1bY0hdYyhbY0hdW2NIXTEpT2MybltjSF1jKEMoRikoRilGKVtjSF1jMkNs

> <s_epik_cmdline>
J2VwaWtfYXBwJywgJy1pbWFlJywgJ2xpZ2FuZF9wcm8ubWFlJywgJy1vbWFlJywgJ2xpZ2FuZF9wcmVwLm1hZScsICctbXMnLCAnMScsICctcGgnLCAnNycsICctcGh0JywgJzAuNScsICctbnQn

> <r_lp_tautomer_probability>
1

> <r_epik_Ionization_Penalty>
  0.0001

> <r_epik_Ionization_Penalty_Charging>
  0.0001

> <r_epik_Ionization_Penalty_Neutral>
  0.0000

> <r_epik_State_Penalty>
 -0.0000

> <r_epik_Charging_Adjusted_Penalty>
7.83662743558813e-05

> <i_epik_Tot_Q>
-1

> <i_epik_Tot_abs_Q>
1

$$$$
