1uz8_ligand
                    3D
 Schrodinger Suite 2020-3.
 74 76  0  0  1  0            999 V2000
    3.7450   18.8730   20.3630 C   0  0  2  0  0  0
    2.3090   19.3940   20.4620 C   0  0  1  0  0  0
    1.4510   19.1240   19.2320 C   0  0  2  0  0  0
    2.2380   19.3440   17.9460 C   0  0  1  0  0  0
    3.5480   18.5690   18.0430 C   0  0  1  0  0  0
    4.3490   18.6230   16.7480 C   0  0  0  0  0  0
    1.7470   19.2360   22.8160 C   0  0  0  0  0  0
    1.3500   18.3040   23.9220 C   0  0  0  0  0  0
    1.6580   18.7490   21.5860 N   0  0  0  0  0  0
    4.5190   19.5360   21.3430 O   0  0  0  0  0  0
    0.2900   19.9270   19.2290 O   0  0  0  0  0  0
    1.4580   18.8710   16.8690 O   0  0  0  0  0  0
    4.3270   19.0990   19.0930 O   0  0  0  0  0  0
    4.7940   19.9420   16.5280 O   0  0  0  0  0  0
    2.1430   20.3750   23.0470 O   0  0  0  0  0  0
    5.8280   19.0590   21.6280 C   0  0  0  0  0  0
   -0.8750   19.2240   19.6950 C   0  0  1  0  0  0
   -1.8760   20.2430   20.2160 C   0  0  2  0  0  0
   -2.3420   21.1100   19.0540 C   0  0  1  0  0  0
   -2.9840   20.2340   17.9900 C   0  0  1  0  0  0
   -2.0420   19.1000   17.5960 C   0  0  2  0  0  0
   -2.7430   18.1080   16.6690 C   0  0  0  0  0  0
   -1.2570   21.0010   21.2320 O   0  0  0  0  0  0
   -3.2630   22.0920   19.4740 O   0  0  0  0  0  0
   -4.2070   19.7070   18.4510 O   0  0  0  0  0  0
   -1.5300   18.4250   18.7300 O   0  0  0  0  0  0
    1.3190   19.8570   15.8280 C   0  0  1  0  0  0
    0.6340   19.2030   14.6300 C   0  0  1  0  0  0
    0.3530   20.2150   13.5260 C   0  0  2  0  0  0
   -0.3920   21.3930   14.1230 C   0  0  2  0  0  0
    0.3980   21.9610   15.2940 C   0  0  1  0  0  0
   -0.2990   23.1690   15.9060 C   0  0  0  0  0  0
    1.4510   18.1910   14.1010 O   0  0  0  0  0  0
   -0.4270   19.6390   12.4980 O   0  0  0  0  0  0
   -1.6670   20.9540   14.5310 O   0  0  0  0  0  0
    0.5640   20.9600   16.2710 O   0  0  0  0  0  0
    0.4940   23.6320   16.9750 O   0  0  0  0  0  0
    3.8067   17.7847   20.5104 H   0  0  0  0  0  0
    2.3643   20.4816   20.6173 H   0  0  0  0  0  0
    1.0657   18.0947   19.2790 H   0  0  0  0  0  0
    2.4238   20.4054   17.7248 H   0  0  0  0  0  0
    3.3399   17.5215   18.3066 H   0  0  0  0  0  0
    5.2162   17.9506   16.8249 H   0  0  0  0  0  0
    3.7120   18.3054   15.9093 H   0  0  0  0  0  0
    1.0290   17.3429   23.4940 H   0  0  0  0  0  0
    0.5208   18.7459   24.4940 H   0  0  0  0  0  0
    2.2091   18.1397   24.5891 H   0  0  0  0  0  0
    1.0718   17.8314   21.4296 H   0  0  0  0  0  0
    5.3927   20.1789   15.6362 H   0  0  0  0  0  0
    6.2847   19.6855   22.4083 H   0  0  0  0  0  0
    6.4413   19.1040   20.7159 H   0  0  0  0  0  0
    5.7705   18.0185   21.9802 H   0  0  0  0  0  0
   -0.4853   18.4915   20.4172 H   0  0  0  0  0  0
   -2.7430   19.7877   20.7171 H   0  0  0  0  0  0
   -1.4994   21.6945   18.6561 H   0  0  0  0  0  0
   -3.2630   20.8407   17.1159 H   0  0  0  0  0  0
   -1.1452   19.5226   17.1194 H   0  0  0  0  0  0
   -3.1371   18.6417   15.7916 H   0  0  0  0  0  0
   -3.5720   17.6257   17.2077 H   0  0  0  0  0  0
   -2.0246   17.3426   16.3405 H   0  0  0  0  0  0
   -0.8714   20.5018   22.1332 H   0  0  0  0  0  0
   -2.9751   22.8223   20.2446 H   0  0  0  0  0  0
   -5.0090   20.3845   18.7792 H   0  0  0  0  0  0
    2.3154   20.2683   15.6090 H   0  0  0  0  0  0
   -0.2911   18.7075   14.9596 H   0  0  0  0  0  0
    1.2822   20.5213   13.0233 H   0  0  0  0  0  0
   -0.5879   22.1832   13.3833 H   0  0  0  0  0  0
    1.4129   22.2383   14.9729 H   0  0  0  0  0  0
   -0.4069   23.9550   15.1441 H   0  0  0  0  0  0
   -1.2936   22.8727   16.2706 H   0  0  0  0  0  0
    1.7733   17.3547   14.7388 H   0  0  0  0  0  0
   -0.0494   18.7669   11.9441 H   0  0  0  0  0  0
   -2.3593   20.5169   13.7964 H   0  0  0  0  0  0
    0.1718   24.5056   17.5607 H   0  0  0  0  0  0
  1  2  1  0  0  0
  1 10  1  0  0  0
  1 13  1  0  0  0
  1 38  1  0  0  0
  2  3  1  0  0  0
  2  9  1  0  0  0
  2 39  1  0  0  0
  3  4  1  0  0  0
  3 11  1  0  0  0
  3 40  1  0  0  0
  4  5  1  0  0  0
  4 12  1  0  0  0
  4 41  1  0  0  0
  5  6  1  0  0  0
  5 13  1  0  0  0
  5 42  1  0  0  0
  6 14  1  0  0  0
  6 43  1  0  0  0
  6 44  1  0  0  0
  7  8  1  0  0  0
  7  9  1  0  0  0
  7 15  2  0  0  0
  8 45  1  0  0  0
  8 46  1  0  0  0
  8 47  1  0  0  0
  9 48  1  0  0  0
 10 16  1  0  0  0
 11 17  1  0  0  0
 12 27  1  0  0  0
 14 49  1  0  0  0
 16 50  1  0  0  0
 16 51  1  0  0  0
 16 52  1  0  0  0
 17 18  1  0  0  0
 17 26  1  0  0  0
 17 53  1  0  0  0
 18 19  1  0  0  0
 18 23  1  0  0  0
 18 54  1  0  0  0
 19 20  1  0  0  0
 19 24  1  0  0  0
 19 55  1  0  0  0
 20 21  1  0  0  0
 20 25  1  0  0  0
 20 56  1  0  0  0
 21 22  1  0  0  0
 21 26  1  0  0  0
 21 57  1  0  0  0
 22 58  1  0  0  0
 22 59  1  0  0  0
 22 60  1  0  0  0
 23 61  1  0  0  0
 24 62  1  0  0  0
 25 63  1  0  0  0
 27 28  1  0  0  0
 27 36  1  0  0  0
 27 64  1  0  0  0
 28 29  1  0  0  0
 28 33  1  0  0  0
 28 65  1  0  0  0
 29 30  1  0  0  0
 29 34  1  0  0  0
 29 66  1  0  0  0
 30 31  1  0  0  0
 30 35  1  0  0  0
 30 67  1  0  0  0
 31 32  1  0  0  0
 31 36  1  0  0  0
 31 68  1  0  0  0
 32 37  1  0  0  0
 32 69  1  0  0  0
 32 70  1  0  0  0
 33 71  1  0  0  0
 34 72  1  0  0  0
 35 73  1  0  0  0
 37 74  1  0  0  0
M  END
> <s_m_source_file>
../1uz8_ligand.sdf

> <i_m_source_file_index>
1

> <s_epik_input>
W0NIM11bQ0BIXShPMSlbQ0BASF0oW09IXSlbQ0BASF0oW09IXSlbQ0BIXShbT0hdKVtDQEBIXTFPW0NASF0oW0NASF0oW0NAQEhdMk9bQ0gzXSlbTkhdQyg9TylbQ0gzXSlbQ0BASF0oW0NASF0oTzIpW0NIMl1bT0hdKU9bQ0BIXTNbQ0BIXShbT0hdKVtDQEBIXShbT0hdKVtDQEBIXShbT0hdKVtDQEhdKE8zKVtDSDJdW09IXQ==

> <s_epik_cmdline>
J2VwaWtfYXBwJywgJy1pbWFlJywgJ2xpZ2FuZF9wcm8ubWFlJywgJy1vbWFlJywgJ2xpZ2FuZF9wcmVwLm1hZScsICctbXMnLCAnMScsICctcGgnLCAnNycsICctcGh0JywgJzAuNScsICctbnQn

> <r_lp_tautomer_probability>
1

> <r_epik_Ionization_Penalty>
  0.0000

> <r_epik_Ionization_Penalty_Charging>
  0.0000

> <r_epik_Ionization_Penalty_Neutral>
  0.0000

> <r_epik_State_Penalty>
 -0.0000

> <r_epik_Charging_Adjusted_Penalty>
0

> <i_epik_Tot_Q>
0

> <i_epik_Tot_abs_Q>
0

> <s_epik_Chemistry_Notes>
This compound contains an acetal/aminal-like group ( X-CH(R)-Y where X, Y are N, S, or O) that may be acid/base labile, releasing an aldehyde.

$$$$
