1uze_ligand
                    3D
 Schrodinger Suite 2020-3.
 46 47  0  0  1  0            999 V2000
   40.1920   34.0940   44.9270 O   0  0  0  0  0  0
   43.2850   36.5220   48.1860 O   0  5  0  0  0  0
   41.9880   37.6940   46.9090 O   0  0  0  0  0  0
   38.8040   33.6840   41.7050 O   0  5  0  0  0  0
   40.6740   32.5860   42.1270 O   0  0  0  0  0  0
   41.7710   34.4720   47.1180 N   0  3  0  0  0  0
   41.7570   34.8740   43.4350 N   0  0  0  0  0  0
   41.4150   34.3910   44.6760 C   0  0  0  0  0  0
   42.4920   34.1960   45.8130 C   0  0  2  0  0  0
   42.2070   36.6640   47.5300 C   0  0  0  0  0  0
   41.1980   35.5090   47.4850 C   0  0  2  0  0  0
   40.6840   35.0230   42.3630 C   0  0  1  0  0  0
   41.5090   35.5880   41.1790 C   0  0  0  0  0  0
   42.8210   35.7280   41.5570 C   0  0  0  0  0  0
   43.0940   35.3080   42.9330 C   0  0  0  0  0  0
   40.0410   33.6030   42.0400 C   0  0  0  0  0  0
   43.0740   32.7750   45.7120 C   0  0  0  0  0  0
   40.5060   35.7720   48.7790 C   0  0  0  0  0  0
   39.3030   36.6650   49.0290 C   0  0  0  0  0  0
   38.7470   36.7910   50.4110 C   0  0  0  0  0  0
   38.5240   35.6000   51.2570 C   0  0  0  0  0  0
   37.9710   35.7450   52.5950 C   0  0  0  0  0  0
   37.6300   37.0810   53.1110 C   0  0  0  0  0  0
   37.8500   38.2740   52.2740 C   0  0  0  0  0  0
   38.4070   38.1300   50.9260 C   0  0  0  0  0  0
   40.9386   33.7623   47.2342 H   0  0  0  0  0  0
   42.4729   34.3544   47.9567 H   0  0  0  0  0  0
   43.3580   34.8726   45.7653 H   0  0  0  0  0  0
   40.4844   35.2035   46.7056 H   0  0  0  0  0  0
   39.8549   35.6863   42.6504 H   0  0  0  0  0  0
   41.1971   35.8660   40.1614 H   0  0  0  0  0  0
   43.5589   36.1267   40.8453 H   0  0  0  0  0  0
   43.4696   36.1329   43.5563 H   0  0  0  0  0  0
   43.7961   34.4626   42.9817 H   0  0  0  0  0  0
   43.8263   32.6299   46.5013 H   0  0  0  0  0  0
   43.5453   32.6410   44.7272 H   0  0  0  0  0  0
   42.2664   32.0384   45.8353 H   0  0  0  0  0  0
   40.1211   34.8261   49.1878 H   0  0  0  0  0  0
   41.2166   36.2170   49.4910 H   0  0  0  0  0  0
   39.5479   37.6986   48.7431 H   0  0  0  0  0  0
   38.4521   36.3104   48.4288 H   0  0  0  0  0  0
   38.7747   34.6095   50.8773 H   0  0  0  0  0  0
   37.8091   34.8638   53.2158 H   0  0  0  0  0  0
   37.2144   37.1879   54.1130 H   0  0  0  0  0  0
   37.5986   39.2629   52.6573 H   0  0  0  0  0  0
   38.5696   39.0112   50.3054 H   0  0  0  0  0  0
  1  8  2  0  0  0
  2 10  1  0  0  0
  3 10  2  0  0  0
  4 16  1  0  0  0
  5 16  2  0  0  0
  6  9  1  0  0  0
  6 11  1  0  0  0
  6 26  1  0  0  0
  6 27  1  0  0  0
  7  8  1  0  0  0
  7 12  1  0  0  0
  7 15  1  0  0  0
  8  9  1  0  0  0
  9 17  1  0  0  0
  9 28  1  0  0  0
 10 11  1  0  0  0
 11 18  1  0  0  0
 11 29  1  0  0  0
 12 13  1  0  0  0
 12 16  1  0  0  0
 12 30  1  0  0  0
 13 14  2  0  0  0
 13 31  1  0  0  0
 14 15  1  0  0  0
 14 32  1  0  0  0
 15 33  1  0  0  0
 15 34  1  0  0  0
 17 35  1  0  0  0
 17 36  1  0  0  0
 17 37  1  0  0  0
 18 19  1  0  0  0
 18 38  1  0  0  0
 18 39  1  0  0  0
 19 20  1  0  0  0
 19 40  1  0  0  0
 19 41  1  0  0  0
 20 21  2  0  0  0
 20 25  1  0  0  0
 21 22  1  0  0  0
 21 42  1  0  0  0
 22 23  2  0  0  0
 22 43  1  0  0  0
 23 24  1  0  0  0
 23 44  1  0  0  0
 24 25  2  0  0  0
 24 45  1  0  0  0
 25 46  1  0  0  0
M  CHG  3   2  -1   4  -1   6   1
M  END
> <s_m_source_file>
../1uze_ligand.sdf

> <i_m_source_file_index>
1

> <s_epik_input>
W0NIMl0xW0NIXT1bQ0hdW0NAQEhdKEMoPU8pW09IXSlOMUMoPU8pW0NASF0oW0NIM10pW05IMitdW0NASF0oQyg9TylbT0hdKVtDSDJdW0NIMl1jMltjSF1bY0hdW2NIXVtjSF1bY0hdMg==

> <s_epik_cmdline>
J2VwaWtfYXBwJywgJy1pbWFlJywgJ2xpZ2FuZF9wcm8ubWFlJywgJy1vbWFlJywgJ2xpZ2FuZF9wcmVwLm1hZScsICctbXMnLCAnMScsICctcGgnLCAnNycsICctcGh0JywgJzAuNScsICctbnQn

> <r_epik_Ionization_Penalty>
  0.1861

> <r_epik_Ionization_Penalty_Charging>
  0.1861

> <r_epik_Ionization_Penalty_Neutral>
  0.0000

> <r_epik_State_Penalty>
  0.1756

> <r_epik_Charging_Adjusted_Penalty>
0.36166973744102

> <i_epik_Tot_Q>
-1

> <i_epik_Tot_abs_Q>
3

$$$$
