1v0l_ligand
                    3D
 Schrodinger Suite 2020-3.
 37 38  0  0  1  0            999 V2000
   10.7080   17.4190   14.5750 N   0  3  0  0  0  0
   10.4450   17.2940   16.0170 C   0  0  0  0  0  0
    9.9420   15.8970   16.3650 C   0  0  1  0  0  0
    9.6280   15.8440   17.7490 O   0  0  0  0  0  0
    8.7160   15.5760   15.5600 C   0  0  2  0  0  0
    8.2270   14.2770   15.9650 O   0  0  0  0  0  0
    9.1070   15.6140   14.0800 C   0  0  0  0  0  0
    9.5470   17.0150   13.7380 C   0  0  0  0  0  0
    6.8640   14.0980   15.6960 C   0  0  1  0  0  0
    6.5170   12.6600   15.9770 C   0  0  1  0  0  0
    5.0140   12.4380   15.8900 C   0  0  2  0  0  0
    4.2410   13.5020   16.6610 C   0  0  1  0  0  0
    4.7600   14.8800   16.3140 C   0  0  0  0  0  0
    7.2040   11.8450   15.0400 O   0  0  0  0  0  0
    4.7110   11.1420   16.3810 O   0  0  0  0  0  0
    2.8570   13.3930   16.3600 O   0  0  0  0  0  0
    6.1400   14.9380   16.5670 O   0  0  0  0  0  0
   10.9459   18.4658   14.3351 H   0  0  0  0  0  0
   11.5584   16.7776   14.3004 H   0  0  0  0  0  0
   11.3729   17.4830   16.5767 H   0  0  0  0  0  0
    9.6811   18.0271   16.3153 H   0  0  0  0  0  0
   10.7154   15.1340   16.1927 H   0  0  0  0  0  0
   10.4063   16.0522   18.4979 H   0  0  0  0  0  0
    7.8849   16.2686   15.7589 H   0  0  0  0  0  0
    9.9304   14.9072   13.9000 H   0  0  0  0  0  0
    8.2402   15.3316   13.4644 H   0  0  0  0  0  0
    8.7089   17.7048   13.9161 H   0  0  0  0  0  0
    9.8310   17.0496   12.6759 H   0  0  0  0  0  0
    6.6513   14.4032   14.6608 H   0  0  0  0  0  0
    6.8744   12.3544   16.9714 H   0  0  0  0  0  0
    4.6821   12.4458   14.8413 H   0  0  0  0  0  0
    4.3114   13.3450   17.7475 H   0  0  0  0  0  0
    4.5735   15.0847   15.2494 H   0  0  0  0  0  0
    4.2428   15.6320   16.9280 H   0  0  0  0  0  0
    8.3013   11.8867   14.9752 H   0  0  0  0  0  0
    5.1871   10.2582   15.9313 H   0  0  0  0  0  0
    2.3245   12.4502   16.5540 H   0  0  0  0  0  0
  1  2  1  0  0  0
  1  8  1  0  0  0
  1 18  1  0  0  0
  1 19  1  0  0  0
  2  3  1  0  0  0
  2 20  1  0  0  0
  2 21  1  0  0  0
  3  4  1  0  0  0
  3  5  1  0  0  0
  3 22  1  0  0  0
  4 23  1  0  0  0
  5  6  1  0  0  0
  5  7  1  0  0  0
  5 24  1  0  0  0
  6  9  1  0  0  0
  7  8  1  0  0  0
  7 25  1  0  0  0
  7 26  1  0  0  0
  8 27  1  0  0  0
  8 28  1  0  0  0
  9 10  1  0  0  0
  9 17  1  0  0  0
  9 29  1  0  0  0
 10 11  1  0  0  0
 10 14  1  0  0  0
 10 30  1  0  0  0
 11 12  1  0  0  0
 11 15  1  0  0  0
 11 31  1  0  0  0
 12 13  1  0  0  0
 12 16  1  0  0  0
 12 32  1  0  0  0
 13 17  1  0  0  0
 13 33  1  0  0  0
 13 34  1  0  0  0
 14 35  1  0  0  0
 15 36  1  0  0  0
 16 37  1  0  0  0
M  CHG  1   1   1
M  END
> <s_m_source_file>
../1v0l_ligand.sdf

> <i_m_source_file_index>
1

> <s_epik_input>
W09IXVtDQEBIXTFbQ0gyXVtOSDIrXVtDSDJdW0NIMl1bQ0BIXTFPW0NASF0yW0NASF0oW09IXSlbQ0BASF0oW09IXSlbQ0BASF0oW0NIMl1PMilbT0hd

> <s_epik_cmdline>
J2VwaWtfYXBwJywgJy1pbWFlJywgJ2xpZ2FuZF9wcm8ubWFlJywgJy1vbWFlJywgJ2xpZ2FuZF9wcmVwLm1hZScsICctbXMnLCAnMScsICctcGgnLCAnNycsICctcGh0JywgJzAuNScsICctbnQn

> <r_lp_tautomer_probability>
1

> <r_epik_Ionization_Penalty>
  0.0068

> <r_epik_Ionization_Penalty_Charging>
  0.0068

> <r_epik_Ionization_Penalty_Neutral>
  0.0000

> <r_epik_State_Penalty>
 -0.0000

> <r_epik_Charging_Adjusted_Penalty>
0.00676565991405059

> <i_epik_Tot_Q>
1

> <i_epik_Tot_abs_Q>
1

> <s_epik_Chemistry_Notes>
This compound contains an acetal/aminal-like group ( X-CH(R)-Y where X, Y are N, S, or O) that may be acid/base labile, releasing an aldehyde.

$$$$
