1v0m_ligand
                    3D
 Schrodinger Suite 2020-3.
 38 39  0  0  1  0            999 V2000
   10.5150   17.8060   15.2180 C   0  0  0  0  0  0
   10.5110   17.4590   16.7080 C   0  0  2  0  0  0
   11.7630   17.7910   17.2680 O   0  0  0  0  0  0
   10.1140   15.9960   16.9980 C   0  0  1  0  0  0
    9.8660   15.8360   18.3700 O   0  0  0  0  0  0
    8.8210   15.7330   16.2490 C   0  0  2  0  0  0
    8.3830   14.4030   16.5540 O   0  0  0  0  0  0
    9.0590   15.9010   14.7450 C   0  0  0  0  0  0
    9.2850   17.3470   14.5170 N   0  3  0  0  0  0
    6.9970   14.2200   16.3310 C   0  0  1  0  0  0
    6.6920   12.7820   16.5940 C   0  0  1  0  0  0
    5.1880   12.5430   16.5000 C   0  0  2  0  0  0
    4.4050   13.5800   17.2910 C   0  0  1  0  0  0
    4.8970   14.9850   16.9530 C   0  0  0  0  0  0
    7.3640   11.9670   15.6590 O   0  0  0  0  0  0
    4.8780   11.2400   16.9870 O   0  0  0  0  0  0
    3.0260   13.4940   16.9780 O   0  0  0  0  0  0
    6.2990   15.0520   17.1950 O   0  0  0  0  0  0
   10.5847   18.8970   15.0958 H   0  0  0  0  0  0
   11.3778   17.3268   14.7322 H   0  0  0  0  0  0
    9.7992   18.1087   17.2383 H   0  0  0  0  0  0
   12.1718   18.8041   17.1393 H   0  0  0  0  0  0
   10.9097   15.2726   16.7664 H   0  0  0  0  0  0
   10.6787   15.9828   19.0966 H   0  0  0  0  0  0
    8.0114   16.3989   16.5823 H   0  0  0  0  0  0
    9.9385   15.3125   14.4450 H   0  0  0  0  0  0
    8.1758   15.5481   14.1923 H   0  0  0  0  0  0
    8.4167   17.9059   14.8961 H   0  0  0  0  0  0
    9.3913   17.5234   13.4365 H   0  0  0  0  0  0
    6.7096   14.5375   15.3178 H   0  0  0  0  0  0
    7.0926   12.4901   17.5760 H   0  0  0  0  0  0
    4.8724   12.5637   15.4465 H   0  0  0  0  0  0
    4.4827   13.3694   18.3679 H   0  0  0  0  0  0
    4.6912   15.2007   15.8942 H   0  0  0  0  0  0
    4.3746   15.7184   17.5849 H   0  0  0  0  0  0
    8.4607   12.0056   15.5838 H   0  0  0  0  0  0
    5.3518   10.3565   16.5343 H   0  0  0  0  0  0
    2.4804   12.5545   17.1504 H   0  0  0  0  0  0
  1  2  1  0  0  0
  1  9  1  0  0  0
  1 19  1  0  0  0
  1 20  1  0  0  0
  2  3  1  0  0  0
  2  4  1  0  0  0
  2 21  1  0  0  0
  3 22  1  0  0  0
  4  5  1  0  0  0
  4  6  1  0  0  0
  4 23  1  0  0  0
  5 24  1  0  0  0
  6  7  1  0  0  0
  6  8  1  0  0  0
  6 25  1  0  0  0
  7 10  1  0  0  0
  8  9  1  0  0  0
  8 26  1  0  0  0
  8 27  1  0  0  0
  9 28  1  0  0  0
  9 29  1  0  0  0
 10 11  1  0  0  0
 10 18  1  0  0  0
 10 30  1  0  0  0
 11 12  1  0  0  0
 11 15  1  0  0  0
 11 31  1  0  0  0
 12 13  1  0  0  0
 12 16  1  0  0  0
 12 32  1  0  0  0
 13 14  1  0  0  0
 13 17  1  0  0  0
 13 33  1  0  0  0
 14 18  1  0  0  0
 14 34  1  0  0  0
 14 35  1  0  0  0
 15 36  1  0  0  0
 16 37  1  0  0  0
 17 38  1  0  0  0
M  CHG  1   9   1
M  END
> <s_m_source_file>
../1v0m_ligand.sdf

> <i_m_source_file_index>
1

> <s_epik_input>
W09IXVtDQEhdMVtDSDJdW05IMitdW0NIMl1bQ0BIXShbQ0BASF0xW09IXSlPW0NASF0yW0NASF0oW09IXSlbQ0BASF0oW09IXSlbQ0BASF0oW0NIMl1PMilbT0hd

> <s_epik_cmdline>
J2VwaWtfYXBwJywgJy1pbWFlJywgJ2xpZ2FuZF9wcm8ubWFlJywgJy1vbWFlJywgJ2xpZ2FuZF9wcmVwLm1hZScsICctbXMnLCAnMScsICctcGgnLCAnNycsICctcGh0JywgJzAuNScsICctbnQn

> <r_lp_tautomer_probability>
1

> <r_epik_Ionization_Penalty>
  0.0052

> <r_epik_Ionization_Penalty_Charging>
  0.0051

> <r_epik_Ionization_Penalty_Neutral>
  0.0000

> <r_epik_State_Penalty>
 -0.0000

> <r_epik_Charging_Adjusted_Penalty>
0.00514212605680371

> <i_epik_Tot_Q>
1

> <i_epik_Tot_abs_Q>
1

> <s_epik_Chemistry_Notes>
This compound contains an acetal/aminal-like group ( X-CH(R)-Y where X, Y are N, S, or O) that may be acid/base labile, releasing an aldehyde.

$$$$
