1v0n_ligand
                    3D
 Schrodinger Suite 2020-3.
 37 38  0  0  1  0            999 V2000
   10.7430   17.3460   14.5510 N   0  3  0  0  0  0
   10.4620   17.2140   15.9950 C   0  0  0  0  0  0
    9.9720   15.7830   16.3470 C   0  0  1  0  0  0
    9.6540   15.7560   17.7380 O   0  0  0  0  0  0
    8.7180   15.4920   15.5390 C   0  0  2  0  0  0
    8.2370   14.2000   15.9360 O   0  0  0  0  0  0
    9.1080   15.5330   14.0620 C   0  0  0  0  0  0
    9.6060   16.9200   13.6960 C   0  0  0  0  0  0
    6.8560   14.0210   15.6740 C   0  0  1  0  0  0
    6.5170   12.5650   15.9420 C   0  0  1  0  0  0
    4.9960   12.3430   15.8930 C   0  0  2  0  0  0
    4.2210   13.4080   16.6760 C   0  0  1  0  0  0
    4.7210   14.7960   16.3070 C   0  0  0  0  0  0
    7.2060   11.7550   15.0140 O   0  0  0  0  0  0
    4.7140   11.0340   16.3630 O   0  0  0  0  0  0
    2.8310   13.2960   16.3440 O   0  0  0  0  0  0
    6.1500   14.8750   16.5460 O   0  0  0  0  0  0
   10.9622   18.3977   14.3148 H   0  0  0  0  0  0
   11.6102   16.7226   14.2877 H   0  0  0  0  0  0
   11.3785   17.4203   16.5672 H   0  0  0  0  0  0
    9.6802   17.9320   16.2836 H   0  0  0  0  0  0
   10.7304   15.0029   16.1851 H   0  0  0  0  0  0
   10.4387   15.9452   18.4853 H   0  0  0  0  0  0
    7.8831   16.1811   15.7343 H   0  0  0  0  0  0
    9.9060   14.7999   13.8730 H   0  0  0  0  0  0
    8.2314   15.2881   13.4443 H   0  0  0  0  0  0
    8.7720   17.6272   13.8158 H   0  0  0  0  0  0
    9.9247   16.9039   12.6433 H   0  0  0  0  0  0
    6.6100   14.3307   14.6476 H   0  0  0  0  0  0
    6.9031   12.2329   16.9170 H   0  0  0  0  0  0
    4.6268   12.3605   14.8570 H   0  0  0  0  0  0
    4.3051   13.2536   17.7619 H   0  0  0  0  0  0
    4.5160   14.9889   15.2436 H   0  0  0  0  0  0
    4.2044   15.5474   16.9222 H   0  0  0  0  0  0
    8.3021   11.8119   14.9417 H   0  0  0  0  0  0
    5.1993   10.1650   15.8947 H   0  0  0  0  0  0
    2.2926   12.3570   16.5400 H   0  0  0  0  0  0
  1  2  1  0  0  0
  1  8  1  0  0  0
  1 18  1  0  0  0
  1 19  1  0  0  0
  2  3  1  0  0  0
  2 20  1  0  0  0
  2 21  1  0  0  0
  3  4  1  0  0  0
  3  5  1  0  0  0
  3 22  1  0  0  0
  4 23  1  0  0  0
  5  6  1  0  0  0
  5  7  1  0  0  0
  5 24  1  0  0  0
  6  9  1  0  0  0
  7  8  1  0  0  0
  7 25  1  0  0  0
  7 26  1  0  0  0
  8 27  1  0  0  0
  8 28  1  0  0  0
  9 10  1  0  0  0
  9 17  1  0  0  0
  9 29  1  0  0  0
 10 11  1  0  0  0
 10 14  1  0  0  0
 10 30  1  0  0  0
 11 12  1  0  0  0
 11 15  1  0  0  0
 11 31  1  0  0  0
 12 13  1  0  0  0
 12 16  1  0  0  0
 12 32  1  0  0  0
 13 17  1  0  0  0
 13 33  1  0  0  0
 13 34  1  0  0  0
 14 35  1  0  0  0
 15 36  1  0  0  0
 16 37  1  0  0  0
M  CHG  1   1   1
M  END
> <s_m_source_file>
../1v0n_ligand.sdf

> <i_m_source_file_index>
1

> <s_epik_input>
W09IXVtDQEBIXTFbQ0gyXVtOSDIrXVtDSDJdW0NIMl1bQ0BIXTFPW0NASF0yW0NASF0oW09IXSlbQ0BASF0oW09IXSlbQ0BASF0oW0NIMl1PMilbT0hd

> <s_epik_cmdline>
J2VwaWtfYXBwJywgJy1pbWFlJywgJ2xpZ2FuZF9wcm8ubWFlJywgJy1vbWFlJywgJ2xpZ2FuZF9wcmVwLm1hZScsICctbXMnLCAnMScsICctcGgnLCAnNycsICctcGh0JywgJzAuNScsICctbnQn

> <r_lp_tautomer_probability>
1

> <r_epik_Ionization_Penalty>
  0.0068

> <r_epik_Ionization_Penalty_Charging>
  0.0068

> <r_epik_Ionization_Penalty_Neutral>
  0.0000

> <r_epik_State_Penalty>
 -0.0000

> <r_epik_Charging_Adjusted_Penalty>
0.00676565991405059

> <i_epik_Tot_Q>
1

> <i_epik_Tot_abs_Q>
1

> <s_epik_Chemistry_Notes>
This compound contains an acetal/aminal-like group ( X-CH(R)-Y where X, Y are N, S, or O) that may be acid/base labile, releasing an aldehyde.

$$$$
