1v0p_ligand
                    3D
 Schrodinger Suite 2020-3.
 54 56  0  0  1  0            999 V2000
   25.2760   -1.1690   35.1390 N   0  0  0  0  0  0
   22.6470    1.7330   38.7140 C   0  0  0  0  0  0
   23.4030    0.4990   38.3800 N   0  0  0  0  0  0
   23.9850    0.0940   37.2170 C   0  0  0  0  0  0
   23.9440    0.6800   35.8860 N   0  0  0  0  0  0
   24.6310    0.0420   34.8920 C   0  0  0  0  0  0
   25.3300   -1.7820   36.3630 C   0  0  0  0  0  0
   24.7030   -1.1680   37.4670 C   0  0  0  0  0  0
   24.5060   -1.4480   38.7840 N   0  0  0  0  0  0
   23.7470   -0.4480   39.3040 C   0  0  0  0  0  0
   25.9890   -2.9740   36.5700 N   0  0  0  0  0  0
   26.8160   -3.5670   35.6610 C   0  0  0  0  0  0
   28.1070   -3.9710   36.0580 C   0  0  0  0  0  0
   28.9820   -4.5320   35.1390 C   0  0  0  0  0  0
   28.5780   -4.6840   33.7990 C   0  0  0  0  0  0
   27.2240   -4.2230   33.3810 C   0  0  0  0  0  0
   26.7410   -4.3360   31.9420 Cl  0  0  0  0  0  0
   26.3940   -3.6880   34.3530 C   0  0  0  0  0  0
   29.5100   -5.2780   32.7970 C   0  0  0  0  0  0
   30.1350   -6.3150   33.0750 O   0  5  0  0  0  0
   29.6670   -4.7350   31.6930 O   0  0  0  0  0  0
   24.6340    0.5440   33.6180 N   0  0  0  0  0  0
   25.3470   -0.2440   32.6130 C   0  0  2  0  0  0
   26.2920    0.5610   31.6970 C   0  0  0  0  0  0
   26.4770    2.0350   32.1370 C   0  0  0  0  0  0
   26.0990    0.3400   30.2020 C   0  0  0  0  0  0
   24.5370   -1.3740   31.9510 C   0  0  0  0  0  0
   23.2040   -0.9450   31.8650 O   0  0  0  0  0  0
   23.4690    2.8820   38.1590 C   0  0  0  0  0  0
   21.2420    1.8350   38.1350 C   0  0  0  0  0  0
   22.5183    1.7204   39.8064 H   0  0  0  0  0  0
   23.4437   -0.4053   40.3501 H   0  0  0  0  0  0
   25.8646   -3.5134   37.5206 H   0  0  0  0  0  0
   28.4199   -3.8417   37.0941 H   0  0  0  0  0  0
   29.9755   -4.8529   35.4524 H   0  0  0  0  0  0
   25.3918   -3.3575   34.0800 H   0  0  0  0  0  0
   24.1389    1.4833   33.3307 H   0  0  0  0  0  0
   26.0260   -0.7879   33.2861 H   0  0  0  0  0  0
   27.2789    0.0970   31.8409 H   0  0  0  0  0  0
   26.6072    2.0783   33.2284 H   0  0  0  0  0  0
   25.5890    2.6174   31.8502 H   0  0  0  0  0  0
   27.3662    2.4557   31.6447 H   0  0  0  0  0  0
   25.9782   -0.7351   30.0029 H   0  0  0  0  0  0
   26.9783    0.7169   29.6591 H   0  0  0  0  0  0
   25.2012    0.8786   29.8646 H   0  0  0  0  0  0
   24.9408   -1.5754   30.9478 H   0  0  0  0  0  0
   24.6084   -2.2843   32.5645 H   0  0  0  0  0  0
   22.4423   -1.6022   31.4202 H   0  0  0  0  0  0
   24.4908    2.8306   38.5632 H   0  0  0  0  0  0
   23.0072    3.8371   38.4497 H   0  0  0  0  0  0
   23.5047    2.8109   37.0619 H   0  0  0  0  0  0
   20.6249    1.0112   38.5230 H   0  0  0  0  0  0
   21.2919    1.7706   37.0380 H   0  0  0  0  0  0
   20.7945    2.7968   38.4259 H   0  0  0  0  0  0
  1  6  1  0  0  0
  1  7  2  0  0  0
  2  3  1  0  0  0
  2 29  1  0  0  0
  2 30  1  0  0  0
  2 31  1  0  0  0
  3  4  1  0  0  0
  3 10  1  0  0  0
  4  5  1  0  0  0
  4  8  2  0  0  0
  5  6  2  0  0  0
  6 22  1  0  0  0
  7  8  1  0  0  0
  7 11  1  0  0  0
  8  9  1  0  0  0
  9 10  2  0  0  0
 10 32  1  0  0  0
 11 12  1  0  0  0
 11 33  1  0  0  0
 12 13  2  0  0  0
 12 18  1  0  0  0
 13 14  1  0  0  0
 13 34  1  0  0  0
 14 15  2  0  0  0
 14 35  1  0  0  0
 15 16  1  0  0  0
 15 19  1  0  0  0
 16 17  1  0  0  0
 16 18  2  0  0  0
 18 36  1  0  0  0
 19 20  1  0  0  0
 19 21  2  0  0  0
 22 23  1  0  0  0
 22 37  1  0  0  0
 23 24  1  0  0  0
 23 27  1  0  0  0
 23 38  1  0  0  0
 24 25  1  0  0  0
 24 26  1  0  0  0
 24 39  1  0  0  0
 25 40  1  0  0  0
 25 41  1  0  0  0
 25 42  1  0  0  0
 26 43  1  0  0  0
 26 44  1  0  0  0
 26 45  1  0  0  0
 27 28  1  0  0  0
 27 46  1  0  0  0
 27 47  1  0  0  0
 28 48  1  0  0  0
 29 49  1  0  0  0
 29 50  1  0  0  0
 29 51  1  0  0  0
 30 52  1  0  0  0
 30 53  1  0  0  0
 30 54  1  0  0  0
M  CHG  1  20  -1
M  END
> <s_m_source_file>
../1v0p_ligand.sdf

> <i_m_source_file_index>
1

> <s_epik_input>
W0NIM11bQ0hdKFtDSDNdKVtDQEhdKFtDSDJdW09IXSlbTkhdYyhuMSluYyhjKGMxMiluW2NIXW4yW0NIXShbQ0gzXSlbQ0gzXSlbTkhdYzNbY0hdW2NIXWMoYyhDbClbY0hdMylDKD1PKVtPSF0=

> <s_epik_cmdline>
J2VwaWtfYXBwJywgJy1pbWFlJywgJ2xpZ2FuZF9wcm8ubWFlJywgJy1vbWFlJywgJ2xpZ2FuZF9wcmVwLm1hZScsICctbXMnLCAnMScsICctcGgnLCAnNycsICctcGh0JywgJzAuNScsICctbnQn

> <r_lp_tautomer_probability>
1

> <r_epik_Ionization_Penalty>
  0.0020

> <r_epik_Ionization_Penalty_Charging>
  0.0001

> <r_epik_Ionization_Penalty_Neutral>
  0.0019

> <r_epik_State_Penalty>
 -0.0000

> <r_epik_Charging_Adjusted_Penalty>
9.0187192490536e-05

> <i_epik_Tot_Q>
-1

> <i_epik_Tot_abs_Q>
1

$$$$
