1v11_ligand
                    3D
 Schrodinger Suite 2020-3.
 42 43  0  0  1  0            999 V2000
   77.0940    0.6000   11.1890 N   0  0  0  0  0  0
   77.3550    1.7860   11.7580 C   0  0  0  0  0  0
   77.4600    1.9740   13.2600 C   0  0  0  0  0  0
   77.4460    2.8960   10.9710 N   0  0  0  0  0  0
   77.3340    2.8570    9.6150 C   0  0  0  0  0  0
   77.5390    4.0350    8.9390 N   0  0  0  0  0  0
   77.1030    1.5880    8.9950 C   0  0  0  0  0  0
   76.9460    0.4970    9.8490 C   0  0  0  0  0  0
   76.9640    1.4180    7.4700 C   0  0  0  0  0  0
   75.6730    1.9780    7.0130 N   0  3  0  0  0  0
   75.7960    3.2460    6.3450 C   0  0  0  0  0  0
   74.0630    3.6270    5.9090 S   0  0  0  0  0  0
   73.3750    2.1240    6.5320 C   0  0  0  0  0  0
   74.4510    1.3760    7.0430 C   0  0  0  0  0  0
   74.2630    0.0230    7.6330 C   0  0  0  0  0  0
   71.9080    1.8660    6.4200 C   0  0  0  0  0  0
   71.1190    2.8860    7.2480 C   0  0  0  0  0  0
   69.7730    2.6770    7.1320 O   0  0  0  0  0  0
   68.7020    3.6990    7.6490 P   0  0  2  0  0  0
   68.7790    5.0250    6.7250 O   0  0  0  0  0  0
   69.1020    4.1640    8.9760 O   0  0  0  0  0  0
   67.3230    3.0360    7.5420 O   0  5  0  0  0  0
   68.5080    5.1730    5.1260 P   0  0  0  0  0  0
   69.8360    4.8430    4.4200 O   0  5  0  0  0  0
   67.4630    4.1030    4.7390 O   0  5  0  0  0  0
   68.0890    6.5980    4.8690 O   0  0  0  0  0  0
   77.3694    0.9978   13.7589 H   0  0  0  0  0  0
   76.6530    2.6378   13.6037 H   0  0  0  0  0  0
   78.4337    2.4226   13.5062 H   0  0  0  0  0  0
   77.7095    4.9672    9.4976 H   0  0  0  0  0  0
   77.5327    4.0462    7.8391 H   0  0  0  0  0  0
   76.6950   -0.4735    9.4210 H   0  0  0  0  0  0
   77.7862    1.9468    6.9657 H   0  0  0  0  0  0
   77.0048    0.3487    7.2150 H   0  0  0  0  0  0
   76.6946    3.8309    6.1488 H   0  0  0  0  0  0
   75.2350   -0.3704    7.9653 H   0  0  0  0  0  0
   73.8341   -0.6505    6.8764 H   0  0  0  0  0  0
   73.5809    0.0897    8.4934 H   0  0  0  0  0  0
   71.6009    1.9465    5.3668 H   0  0  0  0  0  0
   71.6841    0.8549    6.7909 H   0  0  0  0  0  0
   71.3997    2.7938    8.3076 H   0  0  0  0  0  0
   71.3494    3.9019    6.8947 H   0  0  0  0  0  0
  1  2  2  0  0  0
  1  8  1  0  0  0
  2  3  1  0  0  0
  2  4  1  0  0  0
  3 27  1  0  0  0
  3 28  1  0  0  0
  3 29  1  0  0  0
  4  5  2  0  0  0
  5  6  1  0  0  0
  5  7  1  0  0  0
  6 30  1  0  0  0
  6 31  1  0  0  0
  7  8  2  0  0  0
  7  9  1  0  0  0
  8 32  1  0  0  0
  9 10  1  0  0  0
  9 33  1  0  0  0
  9 34  1  0  0  0
 10 11  2  0  0  0
 10 14  1  0  0  0
 11 12  1  0  0  0
 11 35  1  0  0  0
 12 13  1  0  0  0
 13 14  2  0  0  0
 13 16  1  0  0  0
 14 15  1  0  0  0
 15 36  1  0  0  0
 15 37  1  0  0  0
 15 38  1  0  0  0
 16 17  1  0  0  0
 16 39  1  0  0  0
 16 40  1  0  0  0
 17 18  1  0  0  0
 17 41  1  0  0  0
 17 42  1  0  0  0
 18 19  1  0  0  0
 19 20  1  0  0  0
 19 21  2  0  0  0
 19 22  1  0  0  0
 20 23  1  0  0  0
 23 24  1  0  0  0
 23 25  1  0  0  0
 23 26  2  0  0  0
M  CHG  4  10   1  22  -1  24  -1  25  -1
M  END
> <s_m_source_file>
../1v11_ligand.sdf

> <i_m_source_file_index>
1

> <s_epik_input>
W0NIM11jMW5bY0hdYyhjKG4xKVtOSDJdKVtDSDJdW24rXTJbY0hdc2MoYzJbQ0gzXSlbQ0gyXVtDSDJdT1tQQF0oPU8pKFtPSF0pT1AoPU8pKFtPSF0pW09IXQ==

> <s_epik_cmdline>
J2VwaWtfYXBwJywgJy1pbWFlJywgJ2xpZ2FuZF9wcm8ubWFlJywgJy1vbWFlJywgJ2xpZ2FuZF9wcmVwLm1hZScsICctbXMnLCAnMScsICctcGgnLCAnNycsICctcGh0JywgJzAuNScsICctbnQn

> <r_lp_tautomer_probability>
1

> <r_epik_Ionization_Penalty>
  0.1081

> <r_epik_Ionization_Penalty_Charging>
  0.0846

> <r_epik_Ionization_Penalty_Neutral>
  0.0235

> <r_epik_State_Penalty>
 -0.0000

> <r_epik_Charging_Adjusted_Penalty>
0.0846133443195182

> <i_epik_Tot_Q>
-2

> <i_epik_Tot_abs_Q>
4

$$$$
