1v1k_ligand
                    3D
 Schrodinger Suite 2020-3.
 57 59  0  0  1  0            999 V2000
   13.6820   -8.5830   13.3310 C   0  0  0  0  0  0
   11.9190  -10.3240   14.4390 N   0  0  0  0  0  0
   12.6230   -9.1040   12.5640 C   0  0  0  0  0  0
   14.2580   -5.4090    9.3020 C   0  0  0  0  0  0
   13.2990   -5.2970   10.3030 C   0  0  0  0  0  0
   13.4090   -6.0450   11.4740 C   0  0  0  0  0  0
   14.4870   -6.9260   11.6460 C   0  0  0  0  0  0
   11.7200  -10.0030   13.1650 C   0  0  0  0  0  0
    9.5630  -11.5030   10.5110 C   0  0  0  0  0  0
   10.1720  -10.4300   11.1890 C   0  0  0  0  0  0
   15.4470   -7.0190   10.6380 C   0  0  0  0  0  0
   15.3400   -6.2760    9.4650 C   0  0  0  0  0  0
    9.1030  -11.3750    9.1970 C   0  0  0  0  0  0
    9.2860  -10.5320    6.1020 C   0  0  0  0  0  0
    9.8250   -9.0790    9.2400 C   0  0  0  0  0  0
    9.2580  -10.1480    8.5420 C   0  0  0  0  0  0
   10.2890   -9.2010   10.5380 C   0  0  0  0  0  0
   12.9250   -9.8250   15.1460 C   0  0  0  0  0  0
   13.7980   -8.9810   14.6210 N   0  0  0  0  0  0
   14.6340   -7.6940   12.8110 N   0  0  0  0  0  0
   12.4700   -5.9310   12.4440 F   0  0  0  0  0  0
   10.6150  -10.5950   12.5240 N   0  0  0  0  0  0
    8.7970   -9.8710    7.2750 O   0  0  0  0  0  0
   16.4170   -6.4150    8.3870 C   0  0  0  0  0  0
   16.7700   -5.1930    7.7780 F   0  0  0  0  0  0
   17.5840   -6.8690    9.0030 F   0  0  0  0  0  0
   16.0260   -7.3450    7.3990 F   0  0  0  0  0  0
    8.5310   -9.8690    4.9180 C   0  0  1  0  0  0
    7.8630  -10.8470    3.9230 C   0  0  0  0  0  0
    5.8170  -11.4900    5.0570 C   0  0  0  0  0  0
    6.6690  -12.7830    3.3390 C   0  0  0  0  0  0
    7.0890  -11.9730    4.4970 N   0  3  0  0  0  0
    7.5400   -8.9230    5.3700 O   0  0  0  0  0  0
   12.5032   -8.8159   11.5196 H   0  0  0  0  0  0
   14.1648   -4.8196    8.3898 H   0  0  0  0  0  0
   12.4554   -4.6195   10.1709 H   0  0  0  0  0  0
    9.4472  -12.4579   11.0236 H   0  0  0  0  0  0
   16.2981   -7.6868   10.7713 H   0  0  0  0  0  0
    8.6313  -12.2173    8.6909 H   0  0  0  0  0  0
   10.3730  -10.3827    6.0233 H   0  0  0  0  0  0
    9.0676  -11.6080    6.1695 H   0  0  0  0  0  0
    9.9050   -8.1120    8.7434 H   0  0  0  0  0  0
   10.7400   -8.3483   11.0454 H   0  0  0  0  0  0
   13.0353  -10.1191   16.1898 H   0  0  0  0  0  0
   15.5951   -7.5535   13.3273 H   0  0  0  0  0  0
    9.9657  -11.2898   13.0769 H   0  0  0  0  0  0
    9.2912   -9.2846    4.3790 H   0  0  0  0  0  0
    7.1535  -10.2962    3.2880 H   0  0  0  0  0  0
    8.6347  -11.3123    3.2922 H   0  0  0  0  0  0
    6.0187  -10.8653    5.9396 H   0  0  0  0  0  0
    5.1957  -12.3491    5.3501 H   0  0  0  0  0  0
    5.2857  -10.8945    4.2999 H   0  0  0  0  0  0
    7.5573  -13.1980    2.8403 H   0  0  0  0  0  0
    6.1132  -12.1504    2.6313 H   0  0  0  0  0  0
    6.0232  -13.6050    3.6814 H   0  0  0  0  0  0
    7.6867  -12.4932    5.2600 H   0  0  0  0  0  0
    7.8170   -8.1373    6.0884 H   0  0  0  0  0  0
  1  3  2  0  0  0
  1 19  1  0  0  0
  1 20  1  0  0  0
  2  8  2  0  0  0
  2 18  1  0  0  0
  3  8  1  0  0  0
  3 34  1  0  0  0
  4  5  2  0  0  0
  4 12  1  0  0  0
  4 35  1  0  0  0
  5  6  1  0  0  0
  5 36  1  0  0  0
  6  7  2  0  0  0
  6 21  1  0  0  0
  7 11  1  0  0  0
  7 20  1  0  0  0
  8 22  1  0  0  0
  9 10  2  0  0  0
  9 13  1  0  0  0
  9 37  1  0  0  0
 10 17  1  0  0  0
 10 22  1  0  0  0
 11 12  2  0  0  0
 11 38  1  0  0  0
 12 24  1  0  0  0
 13 16  2  0  0  0
 13 39  1  0  0  0
 14 23  1  0  0  0
 14 28  1  0  0  0
 14 40  1  0  0  0
 14 41  1  0  0  0
 15 16  1  0  0  0
 15 17  2  0  0  0
 15 42  1  0  0  0
 16 23  1  0  0  0
 17 43  1  0  0  0
 18 19  2  0  0  0
 18 44  1  0  0  0
 20 45  1  0  0  0
 22 46  1  0  0  0
 24 25  1  0  0  0
 24 26  1  0  0  0
 24 27  1  0  0  0
 28 29  1  0  0  0
 28 33  1  0  0  0
 28 47  1  0  0  0
 29 32  1  0  0  0
 29 48  1  0  0  0
 29 49  1  0  0  0
 30 32  1  0  0  0
 30 50  1  0  0  0
 30 51  1  0  0  0
 30 52  1  0  0  0
 31 32  1  0  0  0
 31 53  1  0  0  0
 31 54  1  0  0  0
 31 55  1  0  0  0
 32 56  1  0  0  0
 33 57  1  0  0  0
M  CHG  1  32   1
M  END
> <s_m_source_file>
../1v1k_ligand.sdf

> <i_m_source_file_index>
1

> <s_epik_input>
RmMxW2NIXVtjSF1jKEMoRikoRilGKVtjSF1jMVtOSF1jMltjSF1jKG5bY0hdbjIpW05IXWMzW2NIXVtjSF1jKFtjSF1bY0hdMylPW0NIMl1bQ0BIXShbT0hdKVtDSDJdW05IK10oW0NIM10pW0NIM10=

> <s_epik_cmdline>
J2VwaWtfYXBwJywgJy1pbWFlJywgJ2xpZ2FuZF9wcm8ubWFlJywgJy1vbWFlJywgJ2xpZ2FuZF9wcmVwLm1hZScsICctbXMnLCAnMScsICctcGgnLCAnNycsICctcGh0JywgJzAuNScsICctbnQn

> <r_lp_tautomer_probability>
0.999999968245435

> <r_epik_Ionization_Penalty>
  0.1094

> <r_epik_Ionization_Penalty_Charging>
  0.1092

> <r_epik_Ionization_Penalty_Neutral>
  0.0002

> <r_epik_State_Penalty>
  0.0990

> <r_epik_Charging_Adjusted_Penalty>
0.20818616252629

> <i_epik_Tot_Q>
1

> <i_epik_Tot_abs_Q>
1

$$$$
