1v1m_ligand
                    3D
 Schrodinger Suite 2020-3.
 42 43  0  0  1  0            999 V2000
   77.0360    0.6090   11.1920 N   0  0  0  0  0  0
   77.2770    1.7880   11.7620 C   0  0  0  0  0  0
   77.4390    1.9590   13.2600 C   0  0  0  0  0  0
   77.3610    2.8970   10.9710 N   0  0  0  0  0  0
   77.2890    2.8230    9.6240 C   0  0  0  0  0  0
   77.4370    3.9870    8.9510 N   0  0  0  0  0  0
   77.0120    1.5830    9.0030 C   0  0  0  0  0  0
   76.9010    0.4930    9.8570 C   0  0  0  0  0  0
   76.8960    1.3740    7.4660 C   0  0  0  0  0  0
   75.6220    1.9350    7.0040 N   0  3  0  0  0  0
   75.7320    3.2610    6.3570 C   0  0  0  0  0  0
   73.9910    3.5920    5.9110 S   0  0  0  0  0  0
   73.3250    2.1140    6.5260 C   0  0  0  0  0  0
   74.3850    1.3610    7.0790 C   0  0  0  0  0  0
   74.1640   -0.0290    7.6780 C   0  0  0  0  0  0
   71.8700    1.8700    6.4450 C   0  0  0  0  0  0
   71.0800    2.9800    7.2100 C   0  0  0  0  0  0
   69.6840    2.6740    7.1470 O   0  0  0  0  0  0
   68.6020    3.7010    7.6550 P   0  0  2  0  0  0
   68.7530    5.0260    6.7070 O   0  0  0  0  0  0
   69.0390    4.1450    9.0110 O   0  5  0  0  0  0
   67.2820    3.0810    7.5180 O   0  0  0  0  0  0
   68.4430    5.1190    5.0550 P   0  0  0  0  0  0
   69.8320    4.8360    4.3350 O   0  5  0  0  0  0
   67.3170    4.0740    4.7440 O   0  5  0  0  0  0
   67.9690    6.5360    4.8620 O   0  0  0  0  0  0
   77.3460    0.9801   13.7530 H   0  0  0  0  0  0
   76.6586    2.6357   13.6383 H   0  0  0  0  0  0
   78.4299    2.3853   13.4753 H   0  0  0  0  0  0
   77.6519    4.9160    9.4995 H   0  0  0  0  0  0
   77.3424    4.0046    7.8552 H   0  0  0  0  0  0
   76.6977   -0.4899    9.4320 H   0  0  0  0  0  0
   77.7307    1.8838    6.9626 H   0  0  0  0  0  0
   76.9325    0.2984    7.2384 H   0  0  0  0  0  0
   76.6160    3.8765    6.1907 H   0  0  0  0  0  0
   75.1214   -0.4258    8.0467 H   0  0  0  0  0  0
   73.7614   -0.7012    6.9059 H   0  0  0  0  0  0
   73.4503    0.0405    8.5121 H   0  0  0  0  0  0
   71.5559    1.8728    5.3908 H   0  0  0  0  0  0
   71.6363    0.8937    6.8946 H   0  0  0  0  0  0
   71.4098    3.0079    8.2590 H   0  0  0  0  0  0
   71.2706    3.9560    6.7397 H   0  0  0  0  0  0
  1  2  2  0  0  0
  1  8  1  0  0  0
  2  3  1  0  0  0
  2  4  1  0  0  0
  3 27  1  0  0  0
  3 28  1  0  0  0
  3 29  1  0  0  0
  4  5  2  0  0  0
  5  6  1  0  0  0
  5  7  1  0  0  0
  6 30  1  0  0  0
  6 31  1  0  0  0
  7  8  2  0  0  0
  7  9  1  0  0  0
  8 32  1  0  0  0
  9 10  1  0  0  0
  9 33  1  0  0  0
  9 34  1  0  0  0
 10 11  2  0  0  0
 10 14  1  0  0  0
 11 12  1  0  0  0
 11 35  1  0  0  0
 12 13  1  0  0  0
 13 14  2  0  0  0
 13 16  1  0  0  0
 14 15  1  0  0  0
 15 36  1  0  0  0
 15 37  1  0  0  0
 15 38  1  0  0  0
 16 17  1  0  0  0
 16 39  1  0  0  0
 16 40  1  0  0  0
 17 18  1  0  0  0
 17 41  1  0  0  0
 17 42  1  0  0  0
 18 19  1  0  0  0
 19 20  1  0  0  0
 19 21  1  0  0  0
 19 22  2  0  0  0
 20 23  1  0  0  0
 23 24  1  0  0  0
 23 25  1  0  0  0
 23 26  2  0  0  0
M  CHG  4  10   1  21  -1  24  -1  25  -1
M  END
> <s_m_source_file>
../1v1m_ligand.sdf

> <i_m_source_file_index>
1

> <s_epik_input>
W0NIM11jMW5bY0hdYyhjKG4xKVtOSDJdKVtDSDJdW24rXTJbY0hdc2MoYzJbQ0gzXSlbQ0gyXVtDSDJdT1tQQEBdKD1PKShbT0hdKU9QKD1PKShbT0hdKVtPSF0=

> <s_epik_cmdline>
J2VwaWtfYXBwJywgJy1pbWFlJywgJ2xpZ2FuZF9wcm8ubWFlJywgJy1vbWFlJywgJ2xpZ2FuZF9wcmVwLm1hZScsICctbXMnLCAnMScsICctcGgnLCAnNycsICctcGh0JywgJzAuNScsICctbnQn

> <r_lp_tautomer_probability>
1

> <r_epik_Ionization_Penalty>
  0.1081

> <r_epik_Ionization_Penalty_Charging>
  0.0846

> <r_epik_Ionization_Penalty_Neutral>
  0.0235

> <r_epik_State_Penalty>
 -0.0000

> <r_epik_Charging_Adjusted_Penalty>
0.0846133443195182

> <i_epik_Tot_Q>
-2

> <i_epik_Tot_abs_Q>
4

$$$$
