1v2j_ligand
                    3D
 Schrodinger Suite 2020-3.
 18 18  0  0  1  0            999 V2000
   -3.1810    9.0690   19.6770 C   0  0  0  0  0  0
   -1.7990    8.8300   19.2450 C   0  0  0  0  0  0
   -1.1970    7.5130   19.3840 C   0  0  0  0  0  0
   -1.9660    6.4190   19.9580 C   0  0  0  0  0  0
   -3.3290    6.6410   20.3880 C   0  0  0  0  0  0
   -3.9370    7.9570   20.2510 C   0  0  0  0  0  0
   -3.8250   10.4620   19.5310 C   0  0  0  0  0  0
   -5.1290   10.5930   19.6880 N   0  3  0  0  0  0
   -3.0690   11.5130   19.2490 N   0  0  0  0  0  0
   -1.2183    9.6467   18.8161 H   0  0  0  0  0  0
   -0.1703    7.3457   19.0583 H   0  0  0  0  0  0
   -1.5149    5.4324   20.0639 H   0  0  0  0  0  0
   -3.9035    5.8197   20.8164 H   0  0  0  0  0  0
   -4.9644    8.1144   20.5792 H   0  0  0  0  0  0
   -5.7460    9.7129   19.9219 H   0  0  0  0  0  0
   -1.9834   11.3910   19.1205 H   0  0  0  0  0  0
   -3.5270   12.5075   19.1434 H   0  0  0  0  0  0
   -5.5987   11.5823   19.5849 H   0  0  0  0  0  0
  1  2  2  0  0  0
  1  6  1  0  0  0
  1  7  1  0  0  0
  2  3  1  0  0  0
  2 10  1  0  0  0
  3  4  2  0  0  0
  3 11  1  0  0  0
  4  5  1  0  0  0
  4 12  1  0  0  0
  5  6  2  0  0  0
  5 13  1  0  0  0
  6 14  1  0  0  0
  7  8  2  0  0  0
  7  9  1  0  0  0
  8 15  1  0  0  0
  8 18  1  0  0  0
  9 16  1  0  0  0
  9 17  1  0  0  0
M  CHG  1   8   1
M  END
> <s_m_source_file>
../1v2j_ligand.sdf

> <i_m_source_file_index>
1

> <s_epik_input>
W0hdXE49QyhbTkgyXSlcYzFbY0hdW2NIXVtjSF1bY0hdW2NIXTE=

> <s_epik_cmdline>
J2VwaWtfYXBwJywgJy1pbWFlJywgJ2xpZ2FuZF9wcm8ubWFlJywgJy1vbWFlJywgJ2xpZ2FuZF9wcmVwLm1hZScsICctbXMnLCAnMScsICctcGgnLCAnNycsICctcGh0JywgJzAuNScsICctbnQn

> <r_lp_tautomer_probability>
1

> <r_epik_Ionization_Penalty>
  0.0003

> <r_epik_Ionization_Penalty_Charging>
  0.0003

> <r_epik_Ionization_Penalty_Neutral>
  0.0000

> <r_epik_State_Penalty>
 -0.0000

> <r_epik_Charging_Adjusted_Penalty>
0.0003115973184836

> <i_epik_Tot_Q>
1

> <i_epik_Tot_abs_Q>
1

> <s_epik_Chemistry_Notes>
This compound has an imine and may undergo hydrolysis.

$$$$
