1v2n_ligand
                    3D
 Schrodinger Suite 2020-3.
 54 56  0  0  1  0            999 V2000
   43.6060   22.6170   51.1030 C   0  0  0  0  0  0
   44.1480   21.4790   51.9700 C   0  0  0  0  0  0
   44.9630   21.7290   53.1220 C   0  0  0  0  0  0
   45.4370   20.6620   53.9120 C   0  0  0  0  0  0
   43.8520   20.1330   51.6060 C   0  0  0  0  0  0
   44.3330   19.0570   52.4030 C   0  0  0  0  0  0
   45.1400   19.3200   53.5490 C   0  0  0  0  0  0
   45.6570   18.1900   54.4070 C   0  0  0  0  0  0
   45.1280   16.9340   54.2960 N   0  3  0  0  0  0
   46.6630   18.4220   55.3090 N   0  0  0  0  0  0
   42.1130   26.2480   54.3230 C   0  0  0  0  0  0
   40.8730   25.7440   55.0500 C   0  0  0  0  0  0
   40.8900   25.6100   56.4690 C   0  0  0  0  0  0
   39.7270   25.1470   57.1580 C   0  0  0  0  0  0
   39.6900   25.4080   54.3320 C   0  0  0  0  0  0
   38.5350   24.9480   55.0130 C   0  0  0  0  0  0
   38.5420   24.8140   56.4250 C   0  0  0  0  0  0
   37.2940   24.3240   57.1370 C   0  0  0  0  0  0
   36.5080   23.3580   56.5620 N   0  0  0  0  0  0
   36.9320   24.8480   58.3480 N   0  3  0  0  0  0
   43.0560   23.7970   51.5100 C   0  0  0  0  0  0
   42.6450   24.7630   50.4190 C   0  0  0  0  0  0
   43.7200   25.8790   50.2600 C   0  0  0  0  0  0
   43.5940   26.9650   51.3760 C   0  0  0  0  0  0
   43.9970   26.4030   52.7760 C   0  0  0  0  0  0
   42.8480   25.6160   53.3680 C   0  0  0  0  0  0
   42.7070   24.1870   52.9230 C   0  0  0  0  0  0
   42.3200   23.3360   53.7180 O   0  0  0  0  0  0
   43.7002   22.3953   50.0297 H   0  0  0  0  0  0
   45.2189   22.7541   53.3899 H   0  0  0  0  0  0
   46.0319   20.8662   54.8022 H   0  0  0  0  0  0
   43.2566   19.9279   50.7163 H   0  0  0  0  0  0
   44.0842   18.0296   52.1371 H   0  0  0  0  0  0
   44.3206   16.7390   53.5749 H   0  0  0  0  0  0
   47.0943   19.4294   55.4048 H   0  0  0  0  0  0
   47.0389   17.6008   55.9369 H   0  0  0  0  0  0
   42.3977   27.2561   54.6586 H   0  0  0  0  0  0
   41.7909   25.8609   57.0289 H   0  0  0  0  0  0
   39.7414   25.0470   58.2433 H   0  0  0  0  0  0
   39.6724   25.5056   53.2465 H   0  0  0  0  0  0
   37.6371   24.6960   54.4488 H   0  0  0  0  0  0
   36.7879   22.9286   55.5887 H   0  0  0  0  0  0
   35.5978   23.0127   57.0742 H   0  0  0  0  0  0
   37.5536   25.6232   58.8198 H   0  0  0  0  0  0
   42.5444   24.2203   49.4675 H   0  0  0  0  0  0
   41.6816   25.2244   50.6816 H   0  0  0  0  0  0
   44.7236   25.4330   50.3224 H   0  0  0  0  0  0
   43.5971   26.3700   49.2834 H   0  0  0  0  0  0
   44.2547   27.8121   51.1395 H   0  0  0  0  0  0
   42.5529   27.3160   51.4302 H   0  0  0  0  0  0
   44.8704   25.7430   52.6686 H   0  0  0  0  0  0
   44.2483   27.2372   53.4475 H   0  0  0  0  0  0
   45.5099   16.1186   54.9279 H   0  0  0  0  0  0
   36.0193   24.4941   58.8498 H   0  0  0  0  0  0
  1  2  1  0  0  0
  1 21  2  0  0  0
  1 29  1  0  0  0
  2  3  2  0  0  0
  2  5  1  0  0  0
  3  4  1  0  0  0
  3 30  1  0  0  0
  4  7  2  0  0  0
  4 31  1  0  0  0
  5  6  2  0  0  0
  5 32  1  0  0  0
  6  7  1  0  0  0
  6 33  1  0  0  0
  7  8  1  0  0  0
  8  9  2  0  0  0
  8 10  1  0  0  0
  9 34  1  0  0  0
  9 53  1  0  0  0
 10 35  1  0  0  0
 10 36  1  0  0  0
 11 12  1  0  0  0
 11 26  2  0  0  0
 11 37  1  0  0  0
 12 13  2  0  0  0
 12 15  1  0  0  0
 13 14  1  0  0  0
 13 38  1  0  0  0
 14 17  2  0  0  0
 14 39  1  0  0  0
 15 16  2  0  0  0
 15 40  1  0  0  0
 16 17  1  0  0  0
 16 41  1  0  0  0
 17 18  1  0  0  0
 18 19  1  0  0  0
 18 20  2  0  0  0
 19 42  1  0  0  0
 19 43  1  0  0  0
 20 44  1  0  0  0
 20 54  1  0  0  0
 21 22  1  0  0  0
 21 27  1  0  0  0
 22 23  1  0  0  0
 22 45  1  0  0  0
 22 46  1  0  0  0
 23 24  1  0  0  0
 23 47  1  0  0  0
 23 48  1  0  0  0
 24 25  1  0  0  0
 24 49  1  0  0  0
 24 50  1  0  0  0
 25 26  1  0  0  0
 25 51  1  0  0  0
 25 52  1  0  0  0
 26 27  1  0  0  0
 27 28  2  0  0  0
M  CHG  2   9   1  20   1
M  END
> <s_m_source_file>
../1v2n_ligand.sdf

> <i_m_source_file_index>
1

> <s_epik_input>
W0hdXE49QyhbTkgyXSlcYyhbY0hdW2NIXTEpW2NIXVtjSF1jMS9bQ0hdPUMyL1tDSDJdW0NIMl1bQ0gyXVtDSDJdXEMoQzI9Tyk9W0NIXVxjM1tjSF1bY0hdYyhbY0hdW2NIXTMpL0MoW05IMl0pPU5cW0hd

> <s_epik_cmdline>
J2VwaWtfYXBwJywgJy1pbWFlJywgJ2xpZ2FuZF9wcm8ubWFlJywgJy1vbWFlJywgJ2xpZ2FuZF9wcmVwLm1hZScsICctbXMnLCAnMScsICctcGgnLCAnNycsICctcGh0JywgJzAuNScsICctbnQn

> <r_lp_tautomer_probability>
1

> <r_epik_Ionization_Penalty>
  0.0006

> <r_epik_Ionization_Penalty_Charging>
  0.0006

> <r_epik_Ionization_Penalty_Neutral>
  0.0000

> <r_epik_State_Penalty>
 -0.0000

> <r_epik_Charging_Adjusted_Penalty>
0.000623030849310646

> <i_epik_Tot_Q>
2

> <i_epik_Tot_abs_Q>
2

> <s_epik_Chemistry_Notes>
This compound has an imine and may undergo hydrolysis.

$$$$
