1v2p_ligand
                    3D
 Schrodinger Suite 2020-3.
 55 56  0  0  1  0            999 V2000
   44.8690   24.1710   52.5180 N   0  0  0  0  0  0
   46.1270   23.9440   53.2980 C   0  0  1  0  0  0
   46.9490   22.8700   52.5580 C   0  0  0  0  0  0
   47.0480   25.2090   53.5330 C   0  0  0  0  0  0
   47.5050   25.8310   52.5430 O   0  0  0  0  0  0
   47.3130   25.5760   54.8850 O   0  0  0  0  0  0
   46.7880   24.8640   56.0630 C   0  0  0  0  0  0
   46.2880   21.5170   52.4030 C   0  0  0  0  0  0
   45.4260   21.2770   51.2950 C   0  0  0  0  0  0
   44.7810   20.0240   51.1240 C   0  0  0  0  0  0
   45.0000   18.9950   52.0710 C   0  0  0  0  0  0
   45.8790   19.1940   53.2250 C   0  0  0  0  0  0
   46.5110   20.4880   53.3570 C   0  0  0  0  0  0
   46.0950   18.1850   54.1550 C   0  0  0  0  0  0
   46.8000   18.3360   55.2620 N   0  3  0  0  0  0
   45.6340   16.9460   54.0410 N   0  0  0  0  0  0
   43.6320   23.8630   52.9600 C   0  0  0  0  0  0
   42.4450   24.3460   52.1360 C   0  0  0  0  0  0
   42.1970   25.8070   52.1270 N   0  0  3  0  0  0
   43.4350   23.2060   53.9820 O   0  0  0  0  0  0
   37.1300   24.9640   56.7690 C   0  0  0  0  0  0
   38.3670   25.3410   56.0110 C   0  0  0  0  0  0
   39.6070   24.6230   56.1710 C   0  0  0  0  0  0
   40.7710   25.0110   55.4270 C   0  0  0  0  0  0
   40.6610   26.1310   54.5250 C   0  0  0  0  0  0
   39.4330   26.8430   54.3690 C   0  0  0  0  0  0
   38.2970   26.4460   55.1100 C   0  0  0  0  0  0
   42.0230   26.6880   53.5760 S   0  0  0  0  0  0
   43.4310   26.5710   54.3470 O   0  0  0  0  0  0
   41.7000   28.1440   53.0380 O   0  0  0  0  0  0
   44.9175   24.6168   51.5136 H   0  0  0  0  0  0
   45.7554   23.6237   54.2826 H   0  0  0  0  0  0
   47.1740   23.2180   51.5391 H   0  0  0  0  0  0
   47.8891   22.6898   53.0999 H   0  0  0  0  0  0
   47.1463   25.3566   56.9789 H   0  0  0  0  0  0
   47.1374   23.8211   56.0469 H   0  0  0  0  0  0
   45.6883   24.8827   56.0427 H   0  0  0  0  0  0
   45.2586   22.0693   50.5654 H   0  0  0  0  0  0
   44.1232   19.8559   50.2713 H   0  0  0  0  0  0
   44.5036   18.0337   51.9383 H   0  0  0  0  0  0
   47.1705   20.6774   54.2039 H   0  0  0  0  0  0
   47.2501   19.3114   55.4987 H   0  0  0  0  0  0
   45.0265   16.6633   53.1687 H   0  0  0  0  0  0
   45.8594   16.2016   54.8188 H   0  0  0  0  0  0
   42.5881   24.0590   51.0838 H   0  0  0  0  0  0
   41.5217   23.8869   52.5190 H   0  0  0  0  0  0
   42.2843   26.3739   51.1884 H   0  0  0  0  0  0
   37.3451   24.1006   57.4157 H   0  0  0  0  0  0
   36.3313   24.7010   56.0598 H   0  0  0  0  0  0
   36.8058   25.8138   57.3877 H   0  0  0  0  0  0
   39.6605   23.7808   56.8609 H   0  0  0  0  0  0
   41.7127   24.4739   55.5404 H   0  0  0  0  0  0
   39.3722   27.6875   53.6826 H   0  0  0  0  0  0
   37.3589   26.9884   54.9925 H   0  0  0  0  0  0
   46.9369   17.4863   55.9471 H   0  0  0  0  0  0
  1  2  1  0  0  0
  1 17  1  0  0  0
  1 31  1  0  0  0
  2  3  1  0  0  0
  2  4  1  0  0  0
  2 32  1  0  0  0
  3  8  1  0  0  0
  3 33  1  0  0  0
  3 34  1  0  0  0
  4  5  2  0  0  0
  4  6  1  0  0  0
  6  7  1  0  0  0
  7 35  1  0  0  0
  7 36  1  0  0  0
  7 37  1  0  0  0
  8  9  2  0  0  0
  8 13  1  0  0  0
  9 10  1  0  0  0
  9 38  1  0  0  0
 10 11  2  0  0  0
 10 39  1  0  0  0
 11 12  1  0  0  0
 11 40  1  0  0  0
 12 13  2  0  0  0
 12 14  1  0  0  0
 13 41  1  0  0  0
 14 15  2  0  0  0
 14 16  1  0  0  0
 15 42  1  0  0  0
 15 55  1  0  0  0
 16 43  1  0  0  0
 16 44  1  0  0  0
 17 18  1  0  0  0
 17 20  2  0  0  0
 18 19  1  0  0  0
 18 45  1  0  0  0
 18 46  1  0  0  0
 19 28  1  0  0  0
 19 47  1  0  0  0
 21 22  1  0  0  0
 21 48  1  0  0  0
 21 49  1  0  0  0
 21 50  1  0  0  0
 22 23  2  0  0  0
 22 27  1  0  0  0
 23 24  1  0  0  0
 23 51  1  0  0  0
 24 25  2  0  0  0
 24 52  1  0  0  0
 25 26  1  0  0  0
 25 28  1  0  0  0
 26 27  2  0  0  0
 26 53  1  0  0  0
 27 54  1  0  0  0
 28 29  2  0  0  0
 28 30  2  0  0  0
M  CHG  1  15   1
M  END
> <s_m_source_file>
../1v2p_ligand.sdf

> <i_m_source_file_index>
1

> <s_epik_input>
W0NIM11jMVtjSF1bY0hdYyhbY0hdW2NIXTEpUyg9TykoPU8pW05IXVtDSDJdQyg9TylbTkhdW0NASF0oQyg9TylPW0NIM10pW0NIMl1jMltjSF1bY0hdW2NIXWMoW2NIXTIpL0MoPU5cW0hdKVtOSDJd

> <s_epik_cmdline>
J2VwaWtfYXBwJywgJy1pbWFlJywgJ2xpZ2FuZF9wcm8ubWFlJywgJy1vbWFlJywgJ2xpZ2FuZF9wcmVwLm1hZScsICctbXMnLCAnMScsICctcGgnLCAnNycsICctcGh0JywgJzAuNScsICctbnQn

> <r_lp_tautomer_probability>
1

> <r_epik_Ionization_Penalty>
  0.0004

> <r_epik_Ionization_Penalty_Charging>
  0.0002

> <r_epik_Ionization_Penalty_Neutral>
  0.0002

> <r_epik_State_Penalty>
 -0.0000

> <r_epik_Charging_Adjusted_Penalty>
0.000184009597780671

> <i_epik_Tot_Q>
1

> <i_epik_Tot_abs_Q>
1

> <s_epik_Chemistry_Notes>
This compound has an ester and may undergo hydrolysis at high or low pH. This compound has an imine and may undergo hydrolysis.

$$$$
