1v2q_ligand
                    3D
 Schrodinger Suite 2020-3.
 55 56  0  0  1  0            999 V2000
   -2.2800   18.9300   17.9170 N   0  0  0  0  0  0
   -3.4640   18.2170   18.4920 C   0  0  1  0  0  0
   -2.9710   17.2080   19.5280 C   0  0  0  0  0  0
   -4.6140   19.1340   19.1410 C   0  0  0  0  0  0
   -5.7990   18.9310   18.7760 O   0  0  0  0  0  0
   -4.2630   20.1560   20.1100 O   0  0  0  0  0  0
   -2.9090   20.4780   20.6100 C   0  0  0  0  0  0
   -2.1670   16.0220   19.0020 C   0  0  0  0  0  0
   -1.0870   15.5360   19.7790 C   0  0  0  0  0  0
   -0.3060   14.4310   19.3350 C   0  0  0  0  0  0
   -0.6080   13.8010   18.0980 C   0  0  0  0  0  0
   -1.7090   14.2500   17.2450 C   0  0  0  0  0  0
   -2.4810   15.3820   17.7350 C   0  0  0  0  0  0
   -1.9920   13.6130   16.0220 C   0  0  0  0  0  0
   -2.6100   14.1680   15.0120 N   0  3  0  0  0  0
   -1.6720   12.3600   15.7290 N   0  0  0  0  0  0
   -2.3410   19.8660   16.9590 C   0  0  0  0  0  0
   -1.0710   20.6410   16.6560 C   0  0  0  0  0  0
   -0.9820   21.2180   15.2790 N   0  0  3  0  0  0
   -3.3590   20.1090   16.3220 O   0  0  0  0  0  0
    2.8230   25.1510   19.2420 C   0  0  0  0  0  0
    1.9690   24.5760   18.1720 C   0  0  0  0  0  0
    2.5140   23.8190   17.0730 C   0  0  0  0  0  0
    1.6330   23.2820   16.0740 C   0  0  0  0  0  0
    0.2180   23.5290   16.2140 C   0  0  0  0  0  0
   -0.3070   24.2810   17.2990 C   0  0  0  0  0  0
    0.5700   24.7960   18.2670 C   0  0  0  0  0  0
   -0.9330   22.9050   15.0710 S   0  0  0  0  0  0
   -0.5630   23.1630   13.5340 O   0  0  0  0  0  0
   -2.3840   23.3400   15.4840 O   0  0  0  0  0  0
   -1.2681   18.6975   18.2804 H   0  0  0  0  0  0
   -3.8851   17.7208   17.6051 H   0  0  0  0  0  0
   -2.3157   17.7155   20.2512 H   0  0  0  0  0  0
   -3.8328   16.7737   20.0559 H   0  0  0  0  0  0
   -2.9727   21.3015   21.3365 H   0  0  0  0  0  0
   -2.2695   20.7807   19.7677 H   0  0  0  0  0  0
   -2.4777   19.5913   21.0976 H   0  0  0  0  0  0
   -0.8505   16.0142   20.7295 H   0  0  0  0  0  0
    0.5226   14.0690   19.9436 H   0  0  0  0  0  0
   -0.0002   12.9562   17.7739 H   0  0  0  0  0  0
   -3.3126   15.7582   17.1392 H   0  0  0  0  0  0
   -2.9496   15.2120   15.0814 H   0  0  0  0  0  0
   -1.1441   11.7399   16.4684 H   0  0  0  0  0  0
   -1.9345   11.9407   14.7465 H   0  0  0  0  0  0
   -0.9827   21.4872   17.3533 H   0  0  0  0  0  0
   -0.2007   19.9783   16.7715 H   0  0  0  0  0  0
   -0.7833   20.5612   14.4192 H   0  0  0  0  0  0
    3.8764   24.9048   19.0424 H   0  0  0  0  0  0
    2.5259   24.7303   20.2140 H   0  0  0  0  0  0
    2.6993   26.2438   19.2622 H   0  0  0  0  0  0
    3.5892   23.6550   17.0006 H   0  0  0  0  0  0
    2.0216   22.7049   15.2349 H   0  0  0  0  0  0
   -1.3798   24.4564   17.3792 H   0  0  0  0  0  0
    0.1714   25.3721   19.1021 H   0  0  0  0  0  0
   -2.7902   13.5909   14.0930 H   0  0  0  0  0  0
  1  2  1  0  0  0
  1 17  1  0  0  0
  1 31  1  0  0  0
  2  3  1  0  0  0
  2  4  1  0  0  0
  2 32  1  0  0  0
  3  8  1  0  0  0
  3 33  1  0  0  0
  3 34  1  0  0  0
  4  5  2  0  0  0
  4  6  1  0  0  0
  6  7  1  0  0  0
  7 35  1  0  0  0
  7 36  1  0  0  0
  7 37  1  0  0  0
  8  9  2  0  0  0
  8 13  1  0  0  0
  9 10  1  0  0  0
  9 38  1  0  0  0
 10 11  2  0  0  0
 10 39  1  0  0  0
 11 12  1  0  0  0
 11 40  1  0  0  0
 12 13  2  0  0  0
 12 14  1  0  0  0
 13 41  1  0  0  0
 14 15  2  0  0  0
 14 16  1  0  0  0
 15 42  1  0  0  0
 15 55  1  0  0  0
 16 43  1  0  0  0
 16 44  1  0  0  0
 17 18  1  0  0  0
 17 20  2  0  0  0
 18 19  1  0  0  0
 18 45  1  0  0  0
 18 46  1  0  0  0
 19 28  1  0  0  0
 19 47  1  0  0  0
 21 22  1  0  0  0
 21 48  1  0  0  0
 21 49  1  0  0  0
 21 50  1  0  0  0
 22 23  2  0  0  0
 22 27  1  0  0  0
 23 24  1  0  0  0
 23 51  1  0  0  0
 24 25  2  0  0  0
 24 52  1  0  0  0
 25 26  1  0  0  0
 25 28  1  0  0  0
 26 27  2  0  0  0
 26 53  1  0  0  0
 27 54  1  0  0  0
 28 29  2  0  0  0
 28 30  2  0  0  0
M  CHG  1  15   1
M  END
> <s_m_source_file>
../1v2q_ligand.sdf

> <i_m_source_file_index>
1

> <s_epik_input>
W0NIM11jMVtjSF1bY0hdYyhbY0hdW2NIXTEpUyg9TykoPU8pW05IXVtDSDJdQyg9TylbTkhdW0NASF0oQyg9TylPW0NIM10pW0NIMl1jMltjSF1bY0hdW2NIXWMoW2NIXTIpL0MoPU5cW0hdKVtOSDJd

> <s_epik_cmdline>
J2VwaWtfYXBwJywgJy1pbWFlJywgJ2xpZ2FuZF9wcm8ubWFlJywgJy1vbWFlJywgJ2xpZ2FuZF9wcmVwLm1hZScsICctbXMnLCAnMScsICctcGgnLCAnNycsICctcGh0JywgJzAuNScsICctbnQn

> <r_lp_tautomer_probability>
1

> <r_epik_Ionization_Penalty>
  0.0004

> <r_epik_Ionization_Penalty_Charging>
  0.0002

> <r_epik_Ionization_Penalty_Neutral>
  0.0002

> <r_epik_State_Penalty>
 -0.0000

> <r_epik_Charging_Adjusted_Penalty>
0.000184009597780671

> <i_epik_Tot_Q>
1

> <i_epik_Tot_abs_Q>
1

> <s_epik_Chemistry_Notes>
This compound has an ester and may undergo hydrolysis at high or low pH. This compound has an imine and may undergo hydrolysis.

$$$$
