1v2t_ligand
                    3D
 Schrodinger Suite 2020-3.
 55 56  0  0  1  0            999 V2000
   -2.2950   17.9690   16.9110 N   0  0  0  0  0  0
   -3.5390   17.3060   17.3910 C   0  0  1  0  0  0
   -3.1940   16.3550   18.5510 C   0  0  0  0  0  0
   -4.7250   18.2880   17.8240 C   0  0  0  0  0  0
   -5.8640   18.0820   17.3530 O   0  0  0  0  0  0
   -4.4480   19.3740   18.7300 O   0  0  0  0  0  0
   -3.1410   19.7050   19.3430 C   0  0  0  0  0  0
   -2.4180   15.0850   18.2160 C   0  0  0  0  0  0
   -1.3990   14.6560   19.1030 C   0  0  0  0  0  0
   -0.6460   13.4820   18.8380 C   0  0  0  0  0  0
   -0.9150   12.7250   17.6680 C   0  0  0  0  0  0
   -1.9500   13.1110   16.7150 C   0  0  0  0  0  0
   -2.6950   14.3160   17.0230 C   0  0  0  0  0  0
   -2.2030   12.3380   15.5590 C   0  0  0  0  0  0
   -2.6820   12.8080   14.4160 N   0  3  0  0  0  0
   -2.0000   11.0200   15.4740 N   0  0  0  0  0  0
   -2.2320   18.7750   15.8390 C   0  0  0  0  0  0
   -0.9450   19.5430   15.6260 C   0  0  0  0  0  0
   -0.6660   19.8780   14.2110 N   0  0  3  0  0  0
   -3.1560   18.9130   15.0350 O   0  0  0  0  0  0
    3.8860   24.4330   16.2500 C   0  0  0  0  0  0
    2.8060   23.6850   15.5830 C   0  0  0  0  0  0
    3.0340   22.9510   14.3640 C   0  0  0  0  0  0
    1.9500   22.2470   13.7500 C   0  0  0  0  0  0
    0.6590   22.3060   14.3810 C   0  0  0  0  0  0
    0.4430   23.0360   15.5930 C   0  0  0  0  0  0
    1.5160   23.7200   16.1840 C   0  0  0  0  0  0
   -0.7030   21.4820   13.7020 S   0  0  0  0  0  0
   -0.7080   21.4480   12.1190 O   0  0  0  0  0  0
   -2.0190   22.0410   14.3330 O   0  0  0  0  0  0
   -1.3464   17.8110   17.4450 H   0  0  0  0  0  0
   -3.8621   16.7496   16.4988 H   0  0  0  0  0  0
   -2.5755   16.8865   19.2892 H   0  0  0  0  0  0
   -4.1219   16.0098   19.0305 H   0  0  0  0  0  0
   -3.2519   20.5892   19.9879 H   0  0  0  0  0  0
   -2.4081   19.9185   18.5510 H   0  0  0  0  0  0
   -2.7923   18.8532   19.9454 H   0  0  0  0  0  0
   -1.1904   15.2361   20.0019 H   0  0  0  0  0  0
    0.1344   13.1638   19.5293 H   0  0  0  0  0  0
   -0.3294   11.8261   17.4752 H   0  0  0  0  0  0
   -3.4788   14.6487   16.3425 H   0  0  0  0  0  0
   -2.9067   13.8799   14.3131 H   0  0  0  0  0  0
   -1.6030   10.4678   16.3385 H   0  0  0  0  0  0
   -2.2299   10.4872   14.5395 H   0  0  0  0  0  0
   -0.9885   20.4923   16.1801 H   0  0  0  0  0  0
   -0.0965   18.9448   15.9896 H   0  0  0  0  0  0
   -0.2754   19.1074   13.5301 H   0  0  0  0  0  0
    4.8190   24.3172   15.6790 H   0  0  0  0  0  0
    4.0282   24.0419   17.2682 H   0  0  0  0  0  0
    3.6170   25.4984   16.3007 H   0  0  0  0  0  0
    4.0259   22.9322   13.9125 H   0  0  0  0  0  0
    2.0986   21.6819   12.8299 H   0  0  0  0  0  0
   -0.5452   23.0603   16.0523 H   0  0  0  0  0  0
    1.3614   24.2800   17.1063 H   0  0  0  0  0  0
   -2.8548   12.1262   13.5703 H   0  0  0  0  0  0
  1  2  1  0  0  0
  1 17  1  0  0  0
  1 31  1  0  0  0
  2  3  1  0  0  0
  2  4  1  0  0  0
  2 32  1  0  0  0
  3  8  1  0  0  0
  3 33  1  0  0  0
  3 34  1  0  0  0
  4  5  2  0  0  0
  4  6  1  0  0  0
  6  7  1  0  0  0
  7 35  1  0  0  0
  7 36  1  0  0  0
  7 37  1  0  0  0
  8  9  2  0  0  0
  8 13  1  0  0  0
  9 10  1  0  0  0
  9 38  1  0  0  0
 10 11  2  0  0  0
 10 39  1  0  0  0
 11 12  1  0  0  0
 11 40  1  0  0  0
 12 13  2  0  0  0
 12 14  1  0  0  0
 13 41  1  0  0  0
 14 15  2  0  0  0
 14 16  1  0  0  0
 15 42  1  0  0  0
 15 55  1  0  0  0
 16 43  1  0  0  0
 16 44  1  0  0  0
 17 18  1  0  0  0
 17 20  2  0  0  0
 18 19  1  0  0  0
 18 45  1  0  0  0
 18 46  1  0  0  0
 19 28  1  0  0  0
 19 47  1  0  0  0
 21 22  1  0  0  0
 21 48  1  0  0  0
 21 49  1  0  0  0
 21 50  1  0  0  0
 22 23  2  0  0  0
 22 27  1  0  0  0
 23 24  1  0  0  0
 23 51  1  0  0  0
 24 25  2  0  0  0
 24 52  1  0  0  0
 25 26  1  0  0  0
 25 28  1  0  0  0
 26 27  2  0  0  0
 26 53  1  0  0  0
 27 54  1  0  0  0
 28 29  2  0  0  0
 28 30  2  0  0  0
M  CHG  1  15   1
M  END
> <s_m_source_file>
../1v2t_ligand.sdf

> <i_m_source_file_index>
1

> <s_epik_input>
W0NIM11jMVtjSF1bY0hdYyhbY0hdW2NIXTEpUyg9TykoPU8pW05IXVtDSDJdQyg9TylbTkhdW0NASF0oQyg9TylPW0NIM10pW0NIMl1jMltjSF1bY0hdW2NIXWMoW2NIXTIpL0MoPU5cW0hdKVtOSDJd

> <s_epik_cmdline>
J2VwaWtfYXBwJywgJy1pbWFlJywgJ2xpZ2FuZF9wcm8ubWFlJywgJy1vbWFlJywgJ2xpZ2FuZF9wcmVwLm1hZScsICctbXMnLCAnMScsICctcGgnLCAnNycsICctcGh0JywgJzAuNScsICctbnQn

> <r_lp_tautomer_probability>
1

> <r_epik_Ionization_Penalty>
  0.0004

> <r_epik_Ionization_Penalty_Charging>
  0.0002

> <r_epik_Ionization_Penalty_Neutral>
  0.0002

> <r_epik_State_Penalty>
 -0.0000

> <r_epik_Charging_Adjusted_Penalty>
0.000184009597780671

> <i_epik_Tot_Q>
1

> <i_epik_Tot_abs_Q>
1

> <s_epik_Chemistry_Notes>
This compound has an ester and may undergo hydrolysis at high or low pH. This compound has an imine and may undergo hydrolysis.

$$$$
