1v2v_ligand
                    3D
 Schrodinger Suite 2020-3.
 18 18  0  0  1  0            999 V2000
   -3.1900    8.9750   19.6480 C   0  0  0  0  0  0
   -1.8280    8.7350   19.2290 C   0  0  0  0  0  0
   -1.2400    7.4330   19.3660 C   0  0  0  0  0  0
   -2.0070    6.3540   19.9250 C   0  0  0  0  0  0
   -3.3530    6.5790   20.3430 C   0  0  0  0  0  0
   -3.9450    7.8830   20.2070 C   0  0  0  0  0  0
   -3.8220   10.3670   19.4980 C   0  0  0  0  0  0
   -5.1220   10.5100   19.6390 N   0  3  0  0  0  0
   -3.0550   11.4030   19.2200 N   0  0  0  0  0  0
   -1.2418    9.5503   18.8050 H   0  0  0  0  0  0
   -0.2120    7.2626   19.0462 H   0  0  0  0  0  0
   -1.5613    5.3648   20.0297 H   0  0  0  0  0  0
   -3.9343    5.7601   20.7667 H   0  0  0  0  0  0
   -4.9733    8.0461   20.5296 H   0  0  0  0  0  0
   -5.7494    9.6368   19.8709 H   0  0  0  0  0  0
   -1.9693   11.2684   19.1049 H   0  0  0  0  0  0
   -3.5008   12.4018   19.1032 H   0  0  0  0  0  0
   -5.5817   11.5028   19.5250 H   0  0  0  0  0  0
  1  2  2  0  0  0
  1  6  1  0  0  0
  1  7  1  0  0  0
  2  3  1  0  0  0
  2 10  1  0  0  0
  3  4  2  0  0  0
  3 11  1  0  0  0
  4  5  1  0  0  0
  4 12  1  0  0  0
  5  6  2  0  0  0
  5 13  1  0  0  0
  6 14  1  0  0  0
  7  8  2  0  0  0
  7  9  1  0  0  0
  8 15  1  0  0  0
  8 18  1  0  0  0
  9 16  1  0  0  0
  9 17  1  0  0  0
M  CHG  1   8   1
M  END
> <s_m_source_file>
../1v2v_ligand.sdf

> <i_m_source_file_index>
1

> <s_epik_input>
W0hdXE49QyhbTkgyXSlcYzFbY0hdW2NIXVtjSF1bY0hdW2NIXTE=

> <s_epik_cmdline>
J2VwaWtfYXBwJywgJy1pbWFlJywgJ2xpZ2FuZF9wcm8ubWFlJywgJy1vbWFlJywgJ2xpZ2FuZF9wcmVwLm1hZScsICctbXMnLCAnMScsICctcGgnLCAnNycsICctcGh0JywgJzAuNScsICctbnQn

> <r_lp_tautomer_probability>
1

> <r_epik_Ionization_Penalty>
  0.0003

> <r_epik_Ionization_Penalty_Charging>
  0.0003

> <r_epik_Ionization_Penalty_Neutral>
  0.0000

> <r_epik_State_Penalty>
 -0.0000

> <r_epik_Charging_Adjusted_Penalty>
0.0003115973184836

> <i_epik_Tot_Q>
1

> <i_epik_Tot_abs_Q>
1

> <s_epik_Chemistry_Notes>
This compound has an imine and may undergo hydrolysis.

$$$$
