1v2w_ligand
                    3D
 Schrodinger Suite 2020-3.
 55 56  0  0  1  0            999 V2000
   -2.2300   19.0600   17.5820 N   0  0  0  0  0  0
   -3.4070   18.3790   18.1940 C   0  0  1  0  0  0
   -2.9030   17.3950   19.2540 C   0  0  0  0  0  0
   -4.5280   19.3290   18.8380 C   0  0  0  0  0  0
   -5.7260   19.1350   18.5120 O   0  0  0  0  0  0
   -4.1320   20.3700   19.7610 O   0  0  0  0  0  0
   -2.7570   20.6800   20.2080 C   0  0  0  0  0  0
   -2.1280   16.1710   18.7720 C   0  0  0  0  0  0
   -1.0760   15.6750   19.5830 C   0  0  0  0  0  0
   -0.3200   14.5390   19.1890 C   0  0  0  0  0  0
   -0.6200   13.8860   17.9650 C   0  0  0  0  0  0
   -1.6940   14.3480   17.0800 C   0  0  0  0  0  0
   -2.4400   15.5120   17.5220 C   0  0  0  0  0  0
   -1.9750   13.6840   15.8740 C   0  0  0  0  0  0
   -2.6570   14.1910   14.8700 N   0  3  0  0  0  0
   -1.5940   12.4440   15.5960 N   0  0  0  0  0  0
   -2.2880   19.9770   16.6060 C   0  0  0  0  0  0
   -1.0030   20.7140   16.2760 C   0  0  0  0  0  0
   -0.9320   21.2560   14.8920 N   0  0  3  0  0  0
   -3.3110   20.2340   15.9770 O   0  0  0  0  0  0
    2.9430   25.4260   18.6360 C   0  0  0  0  0  0
    2.0660   24.7860   17.6200 C   0  0  0  0  0  0
    2.5960   23.9820   16.5510 C   0  0  0  0  0  0
    1.7010   23.3830   15.5960 C   0  0  0  0  0  0
    0.2840   23.6190   15.7510 C   0  0  0  0  0  0
   -0.2270   24.4190   16.8130 C   0  0  0  0  0  0
    0.6630   24.9930   17.7360 C   0  0  0  0  0  0
   -0.8860   22.9300   14.6560 S   0  0  0  0  0  0
   -0.5540   23.1530   13.1090 O   0  0  0  0  0  0
   -2.3250   23.3780   15.1000 O   0  0  0  0  0  0
   -1.2141   18.8206   17.9293 H   0  0  0  0  0  0
   -3.8510   17.8660   17.3282 H   0  0  0  0  0  0
   -2.2222   17.9157   19.9434 H   0  0  0  0  0  0
   -3.7581   16.9929   19.8172 H   0  0  0  0  0  0
   -2.7819   21.5260   20.9106 H   0  0  0  0  0  0
   -2.1393   20.9446   19.3372 H   0  0  0  0  0  0
   -2.3271   19.8000   20.7087 H   0  0  0  0  0  0
   -0.8437   16.1736   20.5240 H   0  0  0  0  0  0
    0.4863   14.1706   19.8232 H   0  0  0  0  0  0
   -0.0340   13.0142   17.6739 H   0  0  0  0  0  0
   -3.2495   15.8965   16.9015 H   0  0  0  0  0  0
   -3.0501   15.2164   14.9342 H   0  0  0  0  0  0
   -1.0109   11.8699   16.3311 H   0  0  0  0  0  0
   -1.8612   11.9899   14.6304 H   0  0  0  0  0  0
   -0.8854   21.5693   16.9577 H   0  0  0  0  0  0
   -0.1484   20.0315   16.3933 H   0  0  0  0  0  0
   -0.7446   20.5793   14.0453 H   0  0  0  0  0  0
    3.9934   25.1803   18.4207 H   0  0  0  0  0  0
    2.6770   25.0541   19.6365 H   0  0  0  0  0  0
    2.8074   26.5171   18.6024 H   0  0  0  0  0  0
    3.6715   23.8270   16.4646 H   0  0  0  0  0  0
    2.0812   22.7691   14.7795 H   0  0  0  0  0  0
   -1.3001   24.5845   16.9088 H   0  0  0  0  0  0
    0.2743   25.6041   18.5506 H   0  0  0  0  0  0
   -2.8343   13.5896   13.9662 H   0  0  0  0  0  0
  1  2  1  0  0  0
  1 17  1  0  0  0
  1 31  1  0  0  0
  2  3  1  0  0  0
  2  4  1  0  0  0
  2 32  1  0  0  0
  3  8  1  0  0  0
  3 33  1  0  0  0
  3 34  1  0  0  0
  4  5  2  0  0  0
  4  6  1  0  0  0
  6  7  1  0  0  0
  7 35  1  0  0  0
  7 36  1  0  0  0
  7 37  1  0  0  0
  8  9  2  0  0  0
  8 13  1  0  0  0
  9 10  1  0  0  0
  9 38  1  0  0  0
 10 11  2  0  0  0
 10 39  1  0  0  0
 11 12  1  0  0  0
 11 40  1  0  0  0
 12 13  2  0  0  0
 12 14  1  0  0  0
 13 41  1  0  0  0
 14 15  2  0  0  0
 14 16  1  0  0  0
 15 42  1  0  0  0
 15 55  1  0  0  0
 16 43  1  0  0  0
 16 44  1  0  0  0
 17 18  1  0  0  0
 17 20  2  0  0  0
 18 19  1  0  0  0
 18 45  1  0  0  0
 18 46  1  0  0  0
 19 28  1  0  0  0
 19 47  1  0  0  0
 21 22  1  0  0  0
 21 48  1  0  0  0
 21 49  1  0  0  0
 21 50  1  0  0  0
 22 23  2  0  0  0
 22 27  1  0  0  0
 23 24  1  0  0  0
 23 51  1  0  0  0
 24 25  2  0  0  0
 24 52  1  0  0  0
 25 26  1  0  0  0
 25 28  1  0  0  0
 26 27  2  0  0  0
 26 53  1  0  0  0
 27 54  1  0  0  0
 28 29  2  0  0  0
 28 30  2  0  0  0
M  CHG  1  15   1
M  END
> <s_m_source_file>
../1v2w_ligand.sdf

> <i_m_source_file_index>
1

> <s_epik_input>
W0NIM11jMVtjSF1bY0hdYyhbY0hdW2NIXTEpUyg9TykoPU8pW05IXVtDSDJdQyg9TylbTkhdW0NASF0oQyg9TylPW0NIM10pW0NIMl1jMltjSF1bY0hdW2NIXWMoW2NIXTIpL0MoPU5cW0hdKVtOSDJd

> <s_epik_cmdline>
J2VwaWtfYXBwJywgJy1pbWFlJywgJ2xpZ2FuZF9wcm8ubWFlJywgJy1vbWFlJywgJ2xpZ2FuZF9wcmVwLm1hZScsICctbXMnLCAnMScsICctcGgnLCAnNycsICctcGh0JywgJzAuNScsICctbnQn

> <r_lp_tautomer_probability>
1

> <r_epik_Ionization_Penalty>
  0.0004

> <r_epik_Ionization_Penalty_Charging>
  0.0002

> <r_epik_Ionization_Penalty_Neutral>
  0.0002

> <r_epik_State_Penalty>
 -0.0000

> <r_epik_Charging_Adjusted_Penalty>
0.000184009597780671

> <i_epik_Tot_Q>
1

> <i_epik_Tot_abs_Q>
1

> <s_epik_Chemistry_Notes>
This compound has an ester and may undergo hydrolysis at high or low pH. This compound has an imine and may undergo hydrolysis.

$$$$
