1v3x_ligand
                    3D
 Schrodinger Suite 2020-3.
 59 63  0  0  1  0            999 V2000
    9.7770    0.3270   16.8850 C   0  0  0  0  0  0
    8.8880    1.4080   17.3350 N   0  0  1  0  0  0
    8.1500    1.0110   18.5780 C   0  0  0  0  0  0
    9.5380    2.7670   17.3910 C   0  0  0  0  0  0
    8.5460    3.9030   17.7650 C   0  0  0  0  0  0
    7.5950    3.5130   18.8950 C   0  0  0  0  0  0
    7.4390    2.1940   19.2350 C   0  0  0  0  0  0
    6.8460    4.3850   19.6390 N   0  0  0  0  0  0
    6.1340    3.6760   20.5460 C   0  0  0  0  0  0
    6.3410    1.9780   20.5220 S   0  0  0  0  0  0
    5.1500    4.2030   21.5870 C   0  0  0  0  0  0
    4.6270    3.3610   22.3410 O   0  0  0  0  0  0
    4.8500    5.5250   21.6730 N   0  0  0  0  0  0
    4.0740    6.0250   22.8560 C   0  0  0  0  0  0
    5.0210    6.8520   23.7360 C   0  0  0  0  0  0
    5.5400    6.5710   20.8060 C   0  0  1  0  0  0
    4.5900    7.5120   19.9910 C   0  0  0  0  0  0
    4.9300    8.6030   19.5210 O   0  0  0  0  0  0
    3.3390    7.1600   19.7830 N   0  0  0  0  0  0
    6.4650    7.4040   21.7340 C   0  0  0  0  0  0
    5.6690    7.8790   22.8930 N   0  0  2  0  0  0
    6.1310    9.3630   23.5960 S   0  0  0  0  0  0
    5.3340    9.6380   24.9390 O   0  0  0  0  0  0
    6.0510   10.4380   22.4280 O   0  0  0  0  0  0
    7.8130    9.0440   24.0090 C   0  0  0  0  0  0
    8.8150    9.4950   23.1520 C   0  0  0  0  0  0
   10.1500    9.2170   23.4840 C   0  0  0  0  0  0
   10.4690    8.4910   24.6490 C   0  0  0  0  0  0
   11.7970    8.2070   24.9810 C   0  0  0  0  0  0
    9.4070    7.9940   25.5200 C   0  0  0  0  0  0
    8.0820    8.2960   25.1740 C   0  0  0  0  0  0
    9.7420    7.2870   26.6790 C   0  0  0  0  0  0
   11.0830    7.0300   26.9910 C   0  0  0  0  0  0
   12.1070    7.4830   26.1370 C   0  0  0  0  0  0
   13.8160    7.1700   26.4730 Cl  0  0  0  0  0  0
    9.2228   -0.6231   16.8746 H   0  0  0  0  0  0
   10.6319    0.2453   17.5723 H   0  0  0  0  0  0
   10.1414    0.5500   15.8714 H   0  0  0  0  0  0
    7.3916    0.2544   18.3282 H   0  0  0  0  0  0
    8.8590    0.5925   19.3075 H   0  0  0  0  0  0
   10.3369    2.7604   18.1471 H   0  0  0  0  0  0
    9.9662    3.0095   16.4072 H   0  0  0  0  0  0
    9.1098    4.7891   18.0922 H   0  0  0  0  0  0
    7.9355    4.1605   16.8870 H   0  0  0  0  0  0
    3.2383    6.6502   22.5086 H   0  0  0  0  0  0
    3.6803    5.1695   23.4244 H   0  0  0  0  0  0
    4.4463    7.3348   24.5402 H   0  0  0  0  0  0
    5.7833    6.1919   24.1755 H   0  0  0  0  0  0
    6.0959    6.0050   20.0440 H   0  0  0  0  0  0
    2.9653    6.2015   20.1723 H   0  0  0  0  0  0
    2.6671    7.8243   19.2198 H   0  0  0  0  0  0
    7.2966    6.7745   22.0835 H   0  0  0  0  0  0
    6.8651    8.2639   21.1768 H   0  0  0  0  0  0
    8.5682   10.0496   22.2467 H   0  0  0  0  0  0
   10.9505    9.5672   22.8323 H   0  0  0  0  0  0
   12.6005    8.5539   24.3312 H   0  0  0  0  0  0
    7.2615    7.9532   25.8043 H   0  0  0  0  0  0
    8.9541    6.9335   27.3442 H   0  0  0  0  0  0
   11.3345    6.4782   27.8967 H   0  0  0  0  0  0
  1  2  1  0  0  0
  1 36  1  0  0  0
  1 37  1  0  0  0
  1 38  1  0  0  0
  2  3  1  0  0  0
  2  4  1  0  0  0
  3  7  1  0  0  0
  3 39  1  0  0  0
  3 40  1  0  0  0
  4  5  1  0  0  0
  4 41  1  0  0  0
  4 42  1  0  0  0
  5  6  1  0  0  0
  5 43  1  0  0  0
  5 44  1  0  0  0
  6  7  2  0  0  0
  6  8  1  0  0  0
  7 10  1  0  0  0
  8  9  2  0  0  0
  9 10  1  0  0  0
  9 11  1  0  0  0
 11 12  2  0  0  0
 11 13  1  0  0  0
 13 14  1  0  0  0
 13 16  1  0  0  0
 14 15  1  0  0  0
 14 45  1  0  0  0
 14 46  1  0  0  0
 15 21  1  0  0  0
 15 47  1  0  0  0
 15 48  1  0  0  0
 16 17  1  0  0  0
 16 20  1  0  0  0
 16 49  1  0  0  0
 17 18  2  0  0  0
 17 19  1  0  0  0
 19 50  1  0  0  0
 19 51  1  0  0  0
 20 21  1  0  0  0
 20 52  1  0  0  0
 20 53  1  0  0  0
 21 22  1  0  0  0
 22 23  2  0  0  0
 22 24  2  0  0  0
 22 25  1  0  0  0
 25 26  2  0  0  0
 25 31  1  0  0  0
 26 27  1  0  0  0
 26 54  1  0  0  0
 27 28  2  0  0  0
 27 55  1  0  0  0
 28 29  1  0  0  0
 28 30  1  0  0  0
 29 34  2  0  0  0
 29 56  1  0  0  0
 30 31  2  0  0  0
 30 32  1  0  0  0
 31 57  1  0  0  0
 32 33  2  0  0  0
 32 58  1  0  0  0
 33 34  1  0  0  0
 33 59  1  0  0  0
 34 35  1  0  0  0
M  END
> <s_m_source_file>
../1v3x_ligand.sdf

> <i_m_source_file_index>
1

> <s_epik_input>
W0NIMl0xW0NIMl1bTkBASCtdKFtDSDNdKVtDSDJdYyhjMTIpc2MobjIpQyg9TylOM1tDSDJdW0NIMl1OKFtDSDJdW0NAQEhdM0MoPU8pW05IMl0pUyg9TykoPU8pYyhbY0hdW2NIXTQpW2NIXWMoYzQ1KVtjSF1bY0hdYyhDbClbY0hdNQ==

> <s_epik_cmdline>
J2VwaWtfYXBwJywgJy1pbWFlJywgJ2xpZ2FuZF9wcm8ubWFlJywgJy1vbWFlJywgJ2xpZ2FuZF9wcmVwLm1hZScsICctbXMnLCAnMScsICctcGgnLCAnNycsICctcGh0JywgJzAuNScsICctbnQn

> <r_epik_Ionization_Penalty>
  0.2400

> <r_epik_Ionization_Penalty_Charging>
  0.0000

> <r_epik_Ionization_Penalty_Neutral>
  0.2400

> <r_epik_State_Penalty>
  0.2309

> <r_epik_Charging_Adjusted_Penalty>
0.230908979395978

> <i_epik_Tot_Q>
0

> <i_epik_Tot_abs_Q>
0

$$$$
