1v79_ligand
                    3D
 Schrodinger Suite 2020-3.
 39 40  0  0  1  0            999 V2000
   62.0880   65.4480   46.3820 C   0  0  0  0  0  0
   61.0600   65.2680   45.3450 N   0  0  0  0  0  0
   61.6880   65.5840   44.2340 C   0  0  0  0  0  0
   62.9900   65.8200   44.3710 N   0  0  0  0  0  0
   63.2640   65.7220   45.7940 C   0  0  0  0  0  0
   64.5920   65.8730   46.4960 C   0  0  0  0  0  0
   64.4650   66.0780   47.6370 O   0  0  0  0  0  0
   65.7620   65.8040   45.9000 N   0  0  0  0  0  0
   59.6230   65.2920   45.6040 C   0  0  1  0  0  0
   59.1240   63.8220   45.9310 C   0  0  1  0  0  0
   59.3510   62.6680   45.0710 O   0  0  0  0  0  0
   59.2300   66.3100   46.7330 C   0  0  0  0  0  0
   59.8110   67.7760   46.6780 C   0  0  0  0  0  0
   59.3510   68.6040   47.8340 C   0  0  0  0  0  0
   58.1360   69.2790   47.7600 C   0  0  0  0  0  0
   57.5320   69.8640   48.8940 C   0  0  0  0  0  0
   58.1750   69.8190   50.1350 C   0  0  0  0  0  0
   59.4470   69.2760   50.1570 C   0  0  0  0  0  0
   60.0210   68.6790   49.0320 C   0  0  0  0  0  0
   60.3630   69.4420   51.6430 Cl  0  0  0  0  0  0
   61.6070   68.0660   49.1230 Cl  0  0  0  0  0  0
   59.6760   63.2060   47.2370 C   0  0  0  0  0  0
   61.9217   65.3712   47.4565 H   0  0  0  0  0  0
   61.1795   65.6479   43.2720 H   0  0  0  0  0  0
   65.8179   65.6076   44.8191 H   0  0  0  0  0  0
   66.6849   65.9427   46.4823 H   0  0  0  0  0  0
   59.1944   65.6663   44.6626 H   0  0  0  0  0  0
   58.0575   64.0724   45.8317 H   0  0  0  0  0  0
   59.0747   62.7120   44.0072 H   0  0  0  0  0  0
   58.1385   66.4463   46.7401 H   0  0  0  0  0  0
   59.5572   65.9203   47.7082 H   0  0  0  0  0  0
   60.9100   67.7359   46.6999 H   0  0  0  0  0  0
   59.4805   68.2669   45.7508 H   0  0  0  0  0  0
   57.6347   69.3585   46.7954 H   0  0  0  0  0  0
   56.5618   70.3521   48.8020 H   0  0  0  0  0  0
   57.6973   70.1934   51.0404 H   0  0  0  0  0  0
   59.5964   63.9412   48.0514 H   0  0  0  0  0  0
   60.7311   62.9293   47.0946 H   0  0  0  0  0  0
   59.0933   62.3092   47.4943 H   0  0  0  0  0  0
  1  2  1  0  0  0
  1  5  2  0  0  0
  1 23  1  0  0  0
  2  3  1  0  0  0
  2  9  1  0  0  0
  3  4  2  0  0  0
  3 24  1  0  0  0
  4  5  1  0  0  0
  5  6  1  0  0  0
  6  7  2  0  0  0
  6  8  1  0  0  0
  8 25  1  0  0  0
  8 26  1  0  0  0
  9 10  1  0  0  0
  9 12  1  0  0  0
  9 27  1  0  0  0
 10 11  1  0  0  0
 10 22  1  0  0  0
 10 28  1  0  0  0
 11 29  1  0  0  0
 12 13  1  0  0  0
 12 30  1  0  0  0
 12 31  1  0  0  0
 13 14  1  0  0  0
 13 32  1  0  0  0
 13 33  1  0  0  0
 14 15  2  0  0  0
 14 19  1  0  0  0
 15 16  1  0  0  0
 15 34  1  0  0  0
 16 17  2  0  0  0
 16 35  1  0  0  0
 17 18  1  0  0  0
 17 36  1  0  0  0
 18 19  2  0  0  0
 18 20  1  0  0  0
 19 21  1  0  0  0
 22 37  1  0  0  0
 22 38  1  0  0  0
 22 39  1  0  0  0
M  END
> <s_m_source_file>
../1v79_ligand.sdf

> <i_m_source_file_index>
1

> <s_epik_input>
W2NIXTFuYyhDKD1PKVtOSDJdKVtjSF1uMVtDQEBIXShbQ0BASF0oW09IXSlbQ0gzXSlbQ0gyXVtDSDJdYzJbY0hdW2NIXVtjSF1jKENsKWMyQ2w=

> <s_epik_cmdline>
J2VwaWtfYXBwJywgJy1pbWFlJywgJ2xpZ2FuZF9wcm8ubWFlJywgJy1vbWFlJywgJ2xpZ2FuZF9wcmVwLm1hZScsICctbXMnLCAnMScsICctcGgnLCAnNycsICctcGh0JywgJzAuNScsICctbnQn

> <r_lp_tautomer_probability>
1

> <r_epik_Ionization_Penalty>
  0.0016

> <r_epik_Ionization_Penalty_Charging>
  0.0016

> <r_epik_Ionization_Penalty_Neutral>
  0.0000

> <r_epik_State_Penalty>
 -0.0000

> <r_epik_Charging_Adjusted_Penalty>
0.00156046522043803

> <i_epik_Tot_Q>
0

> <i_epik_Tot_abs_Q>
0

$$$$
