1v7a_ligand
                    3D
 Schrodinger Suite 2020-3.
 46 48  0  0  1  0            999 V2000
   50.7510   54.0540   21.0480 C   0  0  0  0  0  0
   50.8140   55.0020   22.1580 N   0  0  0  0  0  0
   50.6630   54.3300   23.3010 C   0  0  0  0  0  0
   50.6320   53.0020   23.0840 N   0  0  0  0  0  0
   50.5470   52.8540   21.6130 C   0  0  0  0  0  0
   50.2530   51.5860   20.8930 C   0  0  0  0  0  0
   50.1320   51.5300   19.6800 O   0  0  0  0  0  0
   50.1500   50.4890   21.6260 N   0  0  0  0  0  0
   50.9040   56.4390   22.0460 C   0  0  1  0  0  0
   52.3720   56.9050   21.8960 C   0  0  1  0  0  0
   53.2270   56.6770   23.0760 O   0  0  0  0  0  0
   49.9540   56.9960   20.9920 C   0  0  0  0  0  0
   48.5270   57.0650   21.5700 C   0  0  0  0  0  0
   52.9090   56.4890   20.4960 C   0  0  0  0  0  0
   47.6000   57.5200   20.6120 O   0  0  0  0  0  0
   46.8830   53.2500   15.8850 C   0  0  0  0  0  0
   46.5800   54.6160   15.9670 C   0  0  0  0  0  0
   46.9250   55.3240   17.1240 C   0  0  0  0  0  0
   47.4710   54.6410   18.2340 C   0  0  0  0  0  0
   47.7820   53.2780   18.1290 C   0  0  0  0  0  0
   47.4660   52.5760   16.9620 C   0  0  0  0  0  0
   46.5850   56.6800   17.2070 C   0  0  0  0  0  0
   46.8560   57.3520   18.4000 C   0  0  0  0  0  0
   47.4160   56.7040   19.5080 C   0  0  0  0  0  0
   47.7540   55.3330   19.4230 C   0  0  0  0  0  0
   50.8490   54.2749   19.9851 H   0  0  0  0  0  0
   50.5761   54.7959   24.2826 H   0  0  0  0  0  0
   50.2600   50.5455   22.7190 H   0  0  0  0  0  0
   49.9544   49.5206   21.1423 H   0  0  0  0  0  0
   50.5255   56.8051   23.0117 H   0  0  0  0  0  0
   52.4470   58.0003   21.9651 H   0  0  0  0  0  0
   52.8706   56.9622   24.0768 H   0  0  0  0  0  0
   50.2804   58.0053   20.7009 H   0  0  0  0  0  0
   49.9603   56.3398   20.1092 H   0  0  0  0  0  0
   48.2177   56.0635   21.9035 H   0  0  0  0  0  0
   48.5106   57.7574   22.4246 H   0  0  0  0  0  0
   52.1559   56.7246   19.7296 H   0  0  0  0  0  0
   53.1143   55.4084   20.4883 H   0  0  0  0  0  0
   53.8363   57.0400   20.2805 H   0  0  0  0  0  0
   46.6607   52.7050   14.9676 H   0  0  0  0  0  0
   46.0816   55.1209   15.1395 H   0  0  0  0  0  0
   48.2704   52.7653   18.9577 H   0  0  0  0  0  0
   47.6732   51.5082   16.8923 H   0  0  0  0  0  0
   46.1226   57.1953   16.3651 H   0  0  0  0  0  0
   46.6244   58.4147   18.4715 H   0  0  0  0  0  0
   48.2248   54.8236   20.2638 H   0  0  0  0  0  0
  1  2  1  0  0  0
  1  5  2  0  0  0
  1 26  1  0  0  0
  2  3  1  0  0  0
  2  9  1  0  0  0
  3  4  2  0  0  0
  3 27  1  0  0  0
  4  5  1  0  0  0
  5  6  1  0  0  0
  6  7  2  0  0  0
  6  8  1  0  0  0
  8 28  1  0  0  0
  8 29  1  0  0  0
  9 10  1  0  0  0
  9 12  1  0  0  0
  9 30  1  0  0  0
 10 11  1  0  0  0
 10 14  1  0  0  0
 10 31  1  0  0  0
 11 32  1  0  0  0
 12 13  1  0  0  0
 12 33  1  0  0  0
 12 34  1  0  0  0
 13 15  1  0  0  0
 13 35  1  0  0  0
 13 36  1  0  0  0
 14 37  1  0  0  0
 14 38  1  0  0  0
 14 39  1  0  0  0
 15 24  1  0  0  0
 16 17  2  0  0  0
 16 21  1  0  0  0
 16 40  1  0  0  0
 17 18  1  0  0  0
 17 41  1  0  0  0
 18 19  2  0  0  0
 18 22  1  0  0  0
 19 20  1  0  0  0
 19 25  1  0  0  0
 20 21  2  0  0  0
 20 42  1  0  0  0
 21 43  1  0  0  0
 22 23  2  0  0  0
 22 44  1  0  0  0
 23 24  1  0  0  0
 23 45  1  0  0  0
 24 25  2  0  0  0
 25 46  1  0  0  0
M  END
> <s_m_source_file>
../1v7a_ligand.sdf

> <i_m_source_file_index>
1

> <s_epik_input>
W2NIXTFuYyhDKD1PKVtOSDJdKVtjSF1uMVtDQEBIXShbQ0BASF0oW09IXSlbQ0gzXSlbQ0gyXVtDSDJdT2MoW2NIXVtjSF0yKVtjSF1jKGMyMylbY0hdW2NIXVtjSF1bY0hdMw==

> <s_epik_cmdline>
J2VwaWtfYXBwJywgJy1pbWFlJywgJ2xpZ2FuZF9wcm8ubWFlJywgJy1vbWFlJywgJ2xpZ2FuZF9wcmVwLm1hZScsICctbXMnLCAnMScsICctcGgnLCAnNycsICctcGh0JywgJzAuNScsICctbnQn

> <r_lp_tautomer_probability>
1

> <r_epik_Ionization_Penalty>
  0.0014

> <r_epik_Ionization_Penalty_Charging>
  0.0014

> <r_epik_Ionization_Penalty_Neutral>
  0.0000

> <r_epik_State_Penalty>
 -0.0000

> <r_epik_Charging_Adjusted_Penalty>
0.00140497381515896

> <i_epik_Tot_Q>
0

> <i_epik_Tot_abs_Q>
0

$$$$
