1vcj_ligand
                    3D
 Schrodinger Suite 2020-3.
 52 53  0  0  1  0            999 V2000
   33.9140   -9.4170   64.8000 C   0  0  0  0  0  0
   32.6210   -9.0360   64.3580 C   0  0  0  0  0  0
   31.5040   -9.8770   64.6320 C   0  0  0  0  0  0
   31.7220  -11.0950   65.3350 C   0  0  0  0  0  0
   33.0130  -11.4650   65.7570 C   0  0  0  0  0  0
   34.1040  -10.6170   65.4910 C   0  0  0  0  0  0
   33.2040  -12.7410   66.4500 C   0  0  0  0  0  0
   32.3210  -13.7140   66.1440 O   0  5  0  0  0  0
   34.1010  -12.9090   67.1950 O   0  0  0  0  0  0
   30.2750   -9.4810   64.1950 N   0  0  0  0  0  0
   29.0320  -10.2580   64.2940 C   0  0  0  0  0  0
   28.7160  -10.8760   62.9100 C   0  0  0  0  0  0
   27.9150   -9.3170   64.8210 C   0  0  0  0  0  0
   28.2790  -12.3520   62.9670 C   0  0  0  0  0  0
   27.5770   -8.1140   63.9220 C   0  0  0  0  0  0
   32.4790   -7.8500   63.6470 N   0  0  0  0  0  0
   33.0240   -7.6000   62.2720 C   0  0  1  0  0  0
   32.0750   -6.4670   61.7890 C   0  0  0  0  0  0
   31.5810   -5.7250   63.0360 C   0  0  0  0  0  0
   31.7640   -6.7950   64.0770 C   0  0  0  0  0  0
   31.2610   -6.6900   65.2020 O   0  0  0  0  0  0
   34.5440   -7.1480   62.2720 C   0  0  0  0  0  0
   34.8240   -6.2980   63.3880 O   0  0  0  0  0  0
   32.8670   -8.8250   61.3170 C   0  0  0  0  0  0
   31.5340   -9.3880   61.1180 N   0  3  0  0  0  0
   34.7666   -8.7684   64.5990 H   0  0  0  0  0  0
   30.8779  -11.7503   65.5496 H   0  0  0  0  0  0
   35.1027  -10.8975   65.8257 H   0  0  0  0  0  0
   30.2641   -8.4824   63.7339 H   0  0  0  0  0  0
   29.1742  -11.0813   65.0095 H   0  0  0  0  0  0
   27.8982  -10.3138   62.4355 H   0  0  0  0  0  0
   29.6119  -10.8274   62.2735 H   0  0  0  0  0  0
   26.9811   -9.8863   64.9384 H   0  0  0  0  0  0
   28.2152   -8.9004   65.7938 H   0  0  0  0  0  0
   28.0744  -12.7134   61.9484 H   0  0  0  0  0  0
   27.3684  -12.4415   63.5776 H   0  0  0  0  0  0
   29.0821  -12.9551   63.4157 H   0  0  0  0  0  0
   26.7781   -7.5198   64.3897 H   0  0  0  0  0  0
   27.2386   -8.4743   62.9393 H   0  0  0  0  0  0
   28.4727   -7.4883   63.7946 H   0  0  0  0  0  0
   32.6268   -5.7841   61.1263 H   0  0  0  0  0  0
   31.2289   -6.9064   61.2403 H   0  0  0  0  0  0
   32.2025   -4.8327   63.2020 H   0  0  0  0  0  0
   30.5339   -5.4207   62.8909 H   0  0  0  0  0  0
   35.1905   -8.0359   62.3329 H   0  0  0  0  0  0
   34.7630   -6.5979   61.3449 H   0  0  0  0  0  0
   35.8379   -5.8968   63.5331 H   0  0  0  0  0  0
   33.2087   -8.5497   60.3083 H   0  0  0  0  0  0
   33.4722   -9.6631   61.6931 H   0  0  0  0  0  0
   31.5951  -10.2383   60.4228 H   0  0  0  0  0  0
   30.8698   -8.6182   60.6983 H   0  0  0  0  0  0
   31.1333   -9.7315   62.0831 H   0  0  0  0  0  0
  1  2  2  0  0  0
  1  6  1  0  0  0
  1 26  1  0  0  0
  2  3  1  0  0  0
  2 16  1  0  0  0
  3  4  2  0  0  0
  3 10  1  0  0  0
  4  5  1  0  0  0
  4 27  1  0  0  0
  5  6  2  0  0  0
  5  7  1  0  0  0
  6 28  1  0  0  0
  7  8  1  0  0  0
  7  9  2  0  0  0
 10 11  1  0  0  0
 10 29  1  0  0  0
 11 12  1  0  0  0
 11 13  1  0  0  0
 11 30  1  0  0  0
 12 14  1  0  0  0
 12 31  1  0  0  0
 12 32  1  0  0  0
 13 15  1  0  0  0
 13 33  1  0  0  0
 13 34  1  0  0  0
 14 35  1  0  0  0
 14 36  1  0  0  0
 14 37  1  0  0  0
 15 38  1  0  0  0
 15 39  1  0  0  0
 15 40  1  0  0  0
 16 17  1  0  0  0
 16 20  1  0  0  0
 17 18  1  0  0  0
 17 22  1  0  0  0
 17 24  1  0  0  0
 18 19  1  0  0  0
 18 41  1  0  0  0
 18 42  1  0  0  0
 19 20  1  0  0  0
 19 43  1  0  0  0
 19 44  1  0  0  0
 20 21  2  0  0  0
 22 23  1  0  0  0
 22 45  1  0  0  0
 22 46  1  0  0  0
 23 47  1  0  0  0
 24 25  1  0  0  0
 24 48  1  0  0  0
 24 49  1  0  0  0
 25 50  1  0  0  0
 25 51  1  0  0  0
 25 52  1  0  0  0
M  CHG  2   8  -1  25   1
M  END
> <s_m_source_file>
../1vcj_ligand.sdf

> <i_m_source_file_index>
1

> <s_epik_input>
W0NIMl0xW0NIMl1DKD1PKU4oW0NAQF0xKFtDSDJdW09IXSlbQ0gyXVtOSDMrXSljMltjSF1bY0hdYyhDKD1PKVtPSF0pW2NIXWMyW05IXVtDSF0oW0NIMl1bQ0gzXSlbQ0gyXVtDSDNd

> <s_epik_cmdline>
J2VwaWtfYXBwJywgJy1pbWFlJywgJ2xpZ2FuZF9wcm8ubWFlJywgJy1vbWFlJywgJ2xpZ2FuZF9wcmVwLm1hZScsICctbXMnLCAnMScsICctcGgnLCAnNycsICctcGh0JywgJzAuNScsICctbnQn

> <r_lp_tautomer_probability>
1

> <r_epik_Ionization_Penalty>
  0.0117

> <r_epik_Ionization_Penalty_Charging>
  0.0080

> <r_epik_Ionization_Penalty_Neutral>
  0.0036

> <r_epik_State_Penalty>
 -0.0000

> <r_epik_Charging_Adjusted_Penalty>
0.0080141809221471

> <i_epik_Tot_Q>
0

> <i_epik_Tot_abs_Q>
2

$$$$
