1vcu_ligand
                    3D
 Schrodinger Suite 2020-3.
 38 38  0  0  1  0            999 V2000
   10.3920    3.8360    7.6340 C   0  0  0  0  0  0
   10.4530    5.0810    8.3340 C   0  0  3  0  0  0
    9.4390    5.3690    9.4640 C   0  0  0  0  0  0
   10.0400    6.3520   10.4910 C   0  0  1  0  0  0
   10.8740    7.4410    9.8330 C   0  0  2  0  0  0
   12.0060    6.7630    9.0230 C   0  0  2  0  0  0
   12.9210    7.7780    8.2950 C   0  0  1  0  0  0
   14.0940    7.1090    7.5110 C   0  0  1  0  0  0
   14.9750    8.1510    6.8080 C   0  0  0  0  0  0
   11.0030    9.5750   11.1250 C   0  0  0  0  0  0
   11.6100   10.3450   12.2730 C   0  0  0  0  0  0
   11.3800    8.3040   10.9130 N   0  0  0  0  0  0
   11.4290    3.3790    6.8690 O   0  5  0  0  0  0
    9.3360    3.0920    7.7250 O   0  0  0  0  0  0
    8.9620    6.9120   11.2330 O   0  0  0  0  0  0
   11.4020    5.9040    8.0000 O   0  0  0  0  0  0
   12.1690    8.5060    7.3140 O   0  0  0  0  0  0
   14.9200    6.3740    8.4160 O   0  0  0  0  0  0
   15.7280    8.9330    7.7010 O   0  0  0  0  0  0
   10.0790   10.2290   10.3410 O   0  0  0  0  0  0
   11.1210    5.7914    7.8250 H   0  0  0  0  0  0
    8.5283    5.8124    9.0351 H   0  0  0  0  0  0
    9.1834    4.4294    9.9756 H   0  0  0  0  0  0
   10.6897    5.8399   11.2160 H   0  0  0  0  0  0
   10.2940    8.0932    9.1635 H   0  0  0  0  0  0
   12.6074    6.1521    9.7123 H   0  0  0  0  0  0
   13.2846    8.4817    9.0583 H   0  0  0  0  0  0
   13.6989    6.3868    6.7814 H   0  0  0  0  0  0
   15.6813    7.6409    6.1365 H   0  0  0  0  0  0
   14.3404    8.8331    6.2231 H   0  0  0  0  0  0
   12.3251    9.7027   12.8079 H   0  0  0  0  0  0
   10.8143   10.6620   12.9633 H   0  0  0  0  0  0
   12.1328   11.2313   11.8843 H   0  0  0  0  0  0
   12.1255    7.9166   11.6230 H   0  0  0  0  0  0
    8.2634    6.2536   11.7701 H   0  0  0  0  0  0
   11.2767    9.0743    7.6155 H   0  0  0  0  0  0
   14.4854    5.5698    9.0279 H   0  0  0  0  0  0
   16.3987    9.7153    7.3161 H   0  0  0  0  0  0
  1  2  1  0  0  0
  1 13  1  0  0  0
  1 14  2  0  0  0
  2  3  1  0  0  0
  2 16  1  0  0  0
  2 21  1  0  0  0
  3  4  1  0  0  0
  3 22  1  0  0  0
  3 23  1  0  0  0
  4  5  1  0  0  0
  4 15  1  0  0  0
  4 24  1  0  0  0
  5  6  1  0  0  0
  5 12  1  0  0  0
  5 25  1  0  0  0
  6  7  1  0  0  0
  6 16  1  0  0  0
  6 26  1  0  0  0
  7  8  1  0  0  0
  7 17  1  0  0  0
  7 27  1  0  0  0
  8  9  1  0  0  0
  8 18  1  0  0  0
  8 28  1  0  0  0
  9 19  1  0  0  0
  9 29  1  0  0  0
  9 30  1  0  0  0
 10 11  1  0  0  0
 10 12  1  0  0  0
 10 20  2  0  0  0
 11 31  1  0  0  0
 11 32  1  0  0  0
 11 33  1  0  0  0
 12 34  1  0  0  0
 15 35  1  0  0  0
 17 36  1  0  0  0
 18 37  1  0  0  0
 19 38  1  0  0  0
M  CHG  1  13  -1
M  END
> <s_m_source_file>
../1vcu_ligand.sdf

> <i_m_source_file_index>
1

> <s_epik_input>
W09IXUMoPU8pW0NIXTFbQ0gyXVtDQEhdKFtPSF0pW0NAQEhdKFtOSF1DKD1PKVtDSDNdKVtDQEBIXShPMSlbQ0BIXShbT0hdKVtDQEhdKFtPSF0pW0NIMl1bT0hd

> <s_epik_cmdline>
J2VwaWtfYXBwJywgJy1pbWFlJywgJ2xpZ2FuZF9wcm8ubWFlJywgJy1vbWFlJywgJ2xpZ2FuZF9wcmVwLm1hZScsICctbXMnLCAnMScsICctcGgnLCAnNycsICctcGh0JywgJzAuNScsICctbnQn

> <r_lp_tautomer_probability>
1

> <r_epik_Ionization_Penalty>
  0.0001

> <r_epik_Ionization_Penalty_Charging>
  0.0001

> <r_epik_Ionization_Penalty_Neutral>
  0.0000

> <r_epik_State_Penalty>
 -0.0000

> <r_epik_Charging_Adjusted_Penalty>
0.000104746784792729

> <i_epik_Tot_Q>
-1

> <i_epik_Tot_abs_Q>
1

$$$$
