1vea_ligand
                    3D
 Schrodinger Suite 2020-3.
 36 38  0  0  1  0            999 V2000
   47.5760 -104.1540   85.8410 C   0  0  0  0  0  0
   48.7270 -103.3370   85.8210 C   0  0  0  0  0  0
   49.0690 -102.5490   86.9540 C   0  0  0  0  0  0
   48.2600 -102.5680   88.1270 C   0  0  0  0  0  0
   47.0960 -103.3810   88.1770 C   0  0  0  0  0  0
   46.7520 -104.1930   86.9960 C   0  0  0  0  0  0
   45.6150 -104.9930   87.0380 C   0  0  0  0  0  0
   44.7720 -105.0540   88.1830 C   0  0  0  0  0  0
   45.0930 -104.2690   89.3340 C   0  0  0  0  0  0
   46.2500 -103.4340   89.3320 C   0  0  0  0  0  0
   43.7410 -105.8130   88.1690 N   0  0  0  0  0  0
   40.7010 -107.8190   89.1320 N   0  0  0  0  0  0
   41.8840 -107.4200   88.3920 C   0  0  1  0  0  0
   43.0920 -106.7670   89.0460 C   0  0  0  0  0  0
   43.4620 -107.0920   90.1560 O   0  0  0  0  0  0
   42.0380 -107.6090   87.0730 C   0  0  0  0  0  0
   41.2440 -108.1990   85.9550 C   0  0  0  0  0  0
   41.6720 -108.0770   84.6490 N   0  0  0  0  0  0
   40.0600 -108.9180   86.0510 C   0  0  0  0  0  0
   40.6730 -108.7600   84.0420 C   0  0  0  0  0  0
   39.6590 -109.3010   84.7860 N   0  0  0  0  0  0
   47.3198 -104.7554   84.9687 H   0  0  0  0  0  0
   49.3571 -103.3101   84.9320 H   0  0  0  0  0  0
   49.9607 -101.9228   86.9250 H   0  0  0  0  0  0
   48.5347 -101.9577   88.9873 H   0  0  0  0  0  0
   45.3610 -105.5935   86.1645 H   0  0  0  0  0  0
   44.4524 -104.3085   90.2150 H   0  0  0  0  0  0
   46.4906 -102.8355   90.2106 H   0  0  0  0  0  0
   43.0821 -105.8295   87.2884 H   0  0  0  0  0  0
   40.8195 -108.8551   89.4819 H   0  0  0  0  0  0
   40.5677 -107.1528   89.9971 H   0  0  0  0  0  0
   41.4413 -106.4280   88.2192 H   0  0  0  0  0  0
   43.0337 -107.1849   86.8764 H   0  0  0  0  0  0
   39.4558 -109.1960   86.9272 H   0  0  0  0  0  0
   40.6760 -108.8794   82.9586 H   0  0  0  0  0  0
   42.5988 -107.5294   84.4228 H   0  0  0  0  0  0
  1  2  2  0  0  0
  1  6  1  0  0  0
  1 22  1  0  0  0
  2  3  1  0  0  0
  2 23  1  0  0  0
  3  4  2  0  0  0
  3 24  1  0  0  0
  4  5  1  0  0  0
  4 25  1  0  0  0
  5  6  2  0  0  0
  5 10  1  0  0  0
  6  7  1  0  0  0
  7  8  2  0  0  0
  7 26  1  0  0  0
  8  9  1  0  0  0
  8 11  1  0  0  0
  9 10  2  0  0  0
  9 27  1  0  0  0
 10 28  1  0  0  0
 11 14  1  0  0  0
 11 29  1  0  0  0
 12 13  1  0  0  0
 12 30  1  0  0  0
 12 31  1  0  0  0
 13 14  1  0  0  0
 13 16  1  0  0  0
 13 32  1  0  0  0
 14 15  2  0  0  0
 16 17  2  0  0  0
 16 33  1  0  0  0
 17 18  1  0  0  0
 17 19  1  0  0  0
 18 20  1  0  0  0
 18 36  1  0  0  0
 19 21  2  0  0  0
 19 34  1  0  0  0
 20 21  1  0  0  0
 20 35  1  0  0  0
M  END
> <s_m_source_file>
../1vea_ligand.sdf

> <i_m_source_file_index>
1

> <s_epik_input>
W2NIXTFbY0hdW2NIXVtjSF1jKGMxMilbY0hdYyhbY0hdW2NIXTIpW05IXUMoPU8pW0NIXShbTkgzK10pW0NIMl1DMz1OW0NIMl1OPVtDSF0z

> <s_epik_cmdline>
J2VwaWtfYXBwJywgJy1pbWFlJywgJ2xpZ2FuZF9wcm8ubWFlJywgJy1vbWFlJywgJ2xpZ2FuZF9wcmVwLm1hZScsICctbXMnLCAnMScsICctcGgnLCAnNycsICctcGh0JywgJzAuNScsICctbnQn

> <r_epik_Ionization_Penalty>
  0.0738

> <r_epik_Ionization_Penalty_Charging>
  0.0000

> <r_epik_Ionization_Penalty_Neutral>
  0.0738

> <r_epik_State_Penalty>
  0.0650

> <r_epik_Charging_Adjusted_Penalty>
0.0649618870108263

> <i_epik_Tot_Q>
0

> <i_epik_Tot_abs_Q>
0

> <s_epik_Chemistry_Notes>
This compound has an imine and may undergo hydrolysis.

$$$$
