1vgc_ligand
                    3D
 Schrodinger Suite 2020-3.
 29 29  0  0  1  0            999 V2000
   26.8760    3.4290   40.1690 C   0  0  0  0  0  0
   27.0200    2.5050   41.2060 C   0  0  0  0  0  0
   26.8610    2.8880   42.5440 C   0  0  0  0  0  0
   26.5560    4.2020   42.8510 C   0  0  0  0  0  0
   26.4300    5.1380   41.8340 C   0  0  0  0  0  0
   26.5950    4.7520   40.5090 C   0  0  0  0  0  0
   26.8560    2.9970   38.7220 C   0  0  0  0  0  0
   27.7440    1.8220   38.3480 C   0  0  2  0  0  0
   31.4680    1.6380   38.5250 C   0  0  0  0  0  0
   30.0570    1.2290   38.9010 C   0  0  0  0  0  0
   29.0790    2.1210   38.8070 N   0  0  0  0  0  0
   29.8210    0.0490   39.1740 O   0  0  0  0  0  0
   26.4770    0.7070   36.6590 O   0  0  0  0  0  0
   28.8580    0.6520   36.6170 O   0  0  0  0  0  0
   27.6760    1.4890   36.7200 B   0  0  0  0  0  0
   26.2360    4.8280   44.4970 Cl  0  0  0  0  0  0
   27.2602    1.4682   40.9704 H   0  0  0  0  0  0
   26.9772    2.1532   43.3406 H   0  0  0  0  0  0
   26.2015    6.1763   42.0745 H   0  0  0  0  0  0
   26.5029    5.4983   39.7199 H   0  0  0  0  0  0
   25.8345    2.7002   38.4421 H   0  0  0  0  0  0
   27.1825    3.8325   38.0853 H   0  0  0  0  0  0
   27.4548    0.9512   38.9547 H   0  0  0  0  0  0
   31.4933    2.7176   38.3156 H   0  0  0  0  0  0
   31.7842    1.0832   37.6293 H   0  0  0  0  0  0
   32.1500    1.4099   39.3574 H   0  0  0  0  0  0
   29.3405    3.1463   39.1077 H   0  0  0  0  0  0
   25.4954    1.1992   36.7240 H   0  0  0  0  0  0
   29.8588    1.1074   36.6479 H   0  0  0  0  0  0
  1  2  2  0  0  0
  1  6  1  0  0  0
  1  7  1  0  0  0
  2  3  1  0  0  0
  2 17  1  0  0  0
  3  4  2  0  0  0
  3 18  1  0  0  0
  4  5  1  0  0  0
  4 16  1  0  0  0
  5  6  2  0  0  0
  5 19  1  0  0  0
  6 20  1  0  0  0
  7  8  1  0  0  0
  7 21  1  0  0  0
  7 22  1  0  0  0
  8 11  1  0  0  0
  8 15  1  0  0  0
  8 23  1  0  0  0
  9 10  1  0  0  0
  9 24  1  0  0  0
  9 25  1  0  0  0
  9 26  1  0  0  0
 10 11  1  0  0  0
 10 12  2  0  0  0
 11 27  1  0  0  0
 13 15  1  0  0  0
 13 28  1  0  0  0
 14 15  1  0  0  0
 14 29  1  0  0  0
M  END
> <s_m_source_file>
../1vgc_ligand.sdf

> <i_m_source_file_index>
1

> <s_epik_input>
W0NIM11DKD1PKVtOSF1bQ0BIXShCKFtPSF0pW09IXSlbQ0gyXWMxW2NIXVtjSF1jKENsKVtjSF1bY0hdMQ==

> <s_epik_cmdline>
J2VwaWtfYXBwJywgJy1pbWFlJywgJ2xpZ2FuZF9wcm8ubWFlJywgJy1vbWFlJywgJ2xpZ2FuZF9wcmVwLm1hZScsICctbXMnLCAnMScsICctcGgnLCAnNycsICctcGh0JywgJzAuNScsICctbnQn

> <r_lp_tautomer_probability>
1

> <r_epik_Ionization_Penalty>
  0.0000

> <r_epik_Ionization_Penalty_Charging>
  0.0000

> <r_epik_Ionization_Penalty_Neutral>
  0.0000

> <r_epik_State_Penalty>
 -0.0000

> <r_epik_Charging_Adjusted_Penalty>
0

> <i_epik_Tot_Q>
0

> <i_epik_Tot_abs_Q>
0

> <s_epik_Chemistry_Notes>
This compound contains a Lewis acid (boronic acid) which adds nucleophiles to form tetrahedral complexes, lowering the experimental pKa

$$$$
