1vij_ligand
                    3D
 Schrodinger Suite 2020-3.
162167  0  0  1  0            999 V2000
  -14.3120   12.9870   37.3370 C   0  0  0  0  0  0
  -12.8550   10.9880   37.8450 C   0  0  0  0  0  0
  -12.2350   13.1680   38.8290 C   0  0  0  0  0  0
  -12.8260   12.5340   37.5440 C   0  0  0  0  0  0
  -11.7520   12.9340   36.1420 S   0  0  0  0  0  0
  -11.2410   14.2950   36.1100 O   0  0  0  0  0  0
  -10.8370   11.8590   35.8870 O   0  0  0  0  0  0
  -13.2130   12.6850   35.0930 C   0  0  0  0  0  0
  -13.6010   13.9310   34.2130 C   0  0  2  0  0  0
  -14.8280   13.6800   33.2500 C   0  0  0  0  0  0
  -14.8910   12.1560   32.7900 C   0  0  0  0  0  0
  -13.6580   11.5130   32.7150 C   0  0  0  0  0  0
  -13.3900   10.1470   32.3380 C   0  0  0  0  0  0
  -14.6010    9.4610   32.0220 C   0  0  0  0  0  0
  -15.8990   10.0770   32.0830 C   0  0  0  0  0  0
  -17.0690    9.3750   31.7690 C   0  0  0  0  0  0
  -18.4780    9.8550   31.7810 C   0  0  0  0  0  0
  -18.6390   11.2130   32.1580 C   0  0  0  0  0  0
  -17.4550   11.9480   32.4780 C   0  0  0  0  0  0
  -16.0780   11.5090   32.4870 C   0  0  0  0  0  0
  -12.5580   14.8040   33.5210 C   0  0  0  0  0  0
  -12.7380   15.9770   33.8050 O   0  0  0  0  0  0
  -11.5330   14.4870   32.6930 N   0  0  0  0  0  0
  -10.6460   15.5740   32.1550 C   0  0  1  0  0  0
   -9.3020   15.5260   32.9690 C   0  0  0  0  0  0
   -9.3910   16.3130   34.2830 C   0  0  0  0  0  0
   -8.3810   16.6520   32.4460 C   0  0  0  0  0  0
  -10.2420   15.2440   30.7020 C   0  0  0  0  0  0
   -9.3390   14.4500   30.5180 O   0  0  0  0  0  0
  -10.9010   15.8410   29.6860 N   0  0  0  0  0  0
  -10.6670   15.6770   28.2520 C   0  0  1  0  0  0
  -11.8240   15.0660   27.4250 C   0  0  0  0  0  0
  -12.8070   14.2740   28.2860 C   0  0  0  0  0  0
  -12.4570   12.8550   28.4430 C   0  0  0  0  0  0
  -13.3770   12.1390   29.2310 C   0  0  0  0  0  0
  -14.4630   12.7690   29.7780 C   0  0  0  0  0  0
  -14.8550   14.1420   29.6730 C   0  0  0  0  0  0
  -13.9540   14.8860   28.8860 C   0  0  0  0  0  0
  -10.7810   17.0840   27.5850 C   0  0  1  0  0  0
  -12.0610   17.5880   27.9780 O   0  0  0  0  0  0
   -9.6760   18.0690   28.0400 C   0  0  2  0  0  0
  -10.2590   19.3430   27.8220 O   0  0  0  0  0  0
   -8.3490   17.9570   27.2710 C   0  0  2  0  0  0
   -7.2240   18.7860   27.8120 C   0  0  0  0  0  0
   -5.8170   18.1700   27.7030 C   0  0  0  0  0  0
   -5.2810   17.2310   28.5840 C   0  0  0  0  0  0
   -3.9560   16.7740   28.3680 C   0  0  0  0  0  0
   -3.1910   17.2390   27.2850 C   0  0  0  0  0  0
   -3.7320   18.1810   26.4000 C   0  0  0  0  0  0
   -5.0380   18.6370   26.6220 C   0  0  0  0  0  0
   -8.4750   17.6210   25.8860 N   0  0  0  0  0  0
   -8.1410   16.3850   25.3890 C   0  0  0  0  0  0
   -7.6590   15.5380   26.1570 O   0  0  0  0  0  0
   -8.3180   16.0800   23.9410 C   0  0  3  0  0  0
   -9.4800   15.4240   23.2380 C   0  0  0  0  0  0
  -10.8320   15.7260   23.9350 C   0  0  0  0  0  0
   -9.5460   15.6420   21.7140 C   0  0  0  0  0  0
   -7.1660   16.4790   23.2360 N   0  0  0  0  0  0
   -7.1220   17.5580   22.3980 C   0  0  0  0  0  0
   -8.0270   18.3170   22.1630 O   0  0  0  0  0  0
   -5.7100   17.6930   21.8710 C   0  0  2  0  0  0
   -5.1820   18.5260   23.0970 C   0  0  0  0  0  0
   -3.8250   19.2740   23.1210 C   0  0  0  0  0  0
   -4.0520   20.6510   23.3410 C   0  0  0  0  0  0
   -2.9620   21.5240   23.4070 C   0  0  0  0  0  0
   -1.6460   21.0580   23.2640 C   0  0  0  0  0  0
   -1.4170   19.6800   23.0430 C   0  0  0  0  0  0
   -0.0830   19.2500   22.9040 C   0  0  0  0  0  0
    0.2040   17.8940   22.6890 C   0  0  0  0  0  0
   -0.8590   16.9870   22.6180 C   0  0  0  0  0  0
   -2.1800   17.4170   22.7530 C   0  0  0  0  0  0
   -2.5140   18.7760   22.9650 C   0  0  0  0  0  0
   -5.1540   18.2180   20.5470 C   0  0  0  0  0  0
   -5.0770   16.8710   19.3000 S   0  0  0  0  0  0
   -4.0840   15.9110   19.8270 O   0  0  0  0  0  0
   -6.4350   16.3640   19.1460 O   0  0  0  0  0  0
   -4.1960   17.6720   17.8700 C   0  0  0  0  0  0
   -3.6060   16.4140   17.0670 C   0  0  0  0  0  0
   -5.2810   18.0260   16.7970 C   0  0  0  0  0  0
   -3.7420   19.1330   18.2660 C   0  0  0  0  0  0
  -14.9052   12.7141   38.2222 H   0  0  0  0  0  0
  -14.7272   12.4877   36.4492 H   0  0  0  0  0  0
  -14.3465   14.0772   37.1943 H   0  0  0  0  0  0
  -13.5177   10.7935   38.7011 H   0  0  0  0  0  0
  -11.8383   10.6415   38.0822 H   0  0  0  0  0  0
  -13.2292   10.4495   36.9619 H   0  0  0  0  0  0
  -12.8818   12.9297   39.6863 H   0  0  0  0  0  0
  -12.1767   14.2595   38.7059 H   0  0  0  0  0  0
  -11.2272   12.7647   39.0067 H   0  0  0  0  0  0
  -13.0302   11.8486   34.4023 H   0  0  0  0  0  0
  -14.0834   12.4550   35.7251 H   0  0  0  0  0  0
  -13.8219   14.6068   35.0523 H   0  0  0  0  0  0
  -15.7625   13.9289   33.7743 H   0  0  0  0  0  0
  -14.7287   14.3141   32.3566 H   0  0  0  0  0  0
  -12.7880   12.1167   32.9731 H   0  0  0  0  0  0
  -12.3970    9.6991   32.2996 H   0  0  0  0  0  0
  -14.5388    8.4159   31.7187 H   0  0  0  0  0  0
  -16.9290    8.3346   31.4756 H   0  0  0  0  0  0
  -19.3198    9.2134   31.5206 H   0  0  0  0  0  0
  -19.6244   11.6769   32.2019 H   0  0  0  0  0  0
  -17.6139   12.9901   32.7553 H   0  0  0  0  0  0
  -11.3491   13.4388   32.4145 H   0  0  0  0  0  0
  -11.2024   16.5207   32.2203 H   0  0  0  0  0  0
   -9.0241   14.4617   32.9815 H   0  0  0  0  0  0
  -10.0339   15.7710   34.9922 H   0  0  0  0  0  0
   -9.8185   17.3073   34.0866 H   0  0  0  0  0  0
   -8.3844   16.4249   34.7123 H   0  0  0  0  0  0
   -8.0718   16.4237   31.4153 H   0  0  0  0  0  0
   -7.4909   16.7255   33.0881 H   0  0  0  0  0  0
   -8.9250   17.6079   32.4624 H   0  0  0  0  0  0
  -11.6934   16.5167   30.0402 H   0  0  0  0  0  0
   -9.7401   15.0858   28.2890 H   0  0  0  0  0  0
  -12.3839   15.8714   26.9271 H   0  0  0  0  0  0
  -11.4123   14.3830   26.6673 H   0  0  0  0  0  0
  -11.5729   12.4025   27.9938 H   0  0  0  0  0  0
  -13.2241   11.0743   29.4075 H   0  0  0  0  0  0
  -15.1200   12.1376   30.3762 H   0  0  0  0  0  0
  -15.7435   14.5612   30.1451 H   0  0  0  0  0  0
  -14.1338   15.9498   28.7306 H   0  0  0  0  0  0
  -10.7368   17.0246   26.4875 H   0  0  0  0  0  0
  -12.9725   17.0203   27.7396 H   0  0  0  0  0  0
   -9.4107   17.9389   29.0996 H   0  0  0  0  0  0
  -11.2172   19.5981   28.2982 H   0  0  0  0  0  0
   -7.8278   16.9957   27.3902 H   0  0  0  0  0  0
   -7.1806   19.7429   27.2711 H   0  0  0  0  0  0
   -7.3911   18.9771   28.8823 H   0  0  0  0  0  0
   -5.8688   16.8559   29.4218 H   0  0  0  0  0  0
   -3.5225   16.0478   29.0556 H   0  0  0  0  0  0
   -2.1776   16.8673   27.1335 H   0  0  0  0  0  0
   -3.1491   18.5512   25.5566 H   0  0  0  0  0  0
   -5.4648   19.3732   25.9408 H   0  0  0  0  0  0
   -8.8526   18.3670   25.1712 H   0  0  0  0  0  0
   -9.3483   15.7839   23.6942 H   0  0  0  0  0  0
   -9.2473   14.3548   23.3507 H   0  0  0  0  0  0
  -10.7326   15.5559   25.0172 H   0  0  0  0  0  0
  -11.6099   15.0624   23.5294 H   0  0  0  0  0  0
  -11.1124   16.7739   23.7527 H   0  0  0  0  0  0
   -8.5662   15.4154   21.2684 H   0  0  0  0  0  0
   -9.8108   16.6889   21.5045 H   0  0  0  0  0  0
  -10.3082   14.9773   21.2812 H   0  0  0  0  0  0
   -6.2306   15.9104   23.3441 H   0  0  0  0  0  0
   -5.4401   16.6867   21.5180 H   0  0  0  0  0  0
   -5.8889   19.3388   23.3197 H   0  0  0  0  0  0
   -5.0903   17.8690   23.9745 H   0  0  0  0  0  0
   -5.0675   21.0292   23.4582 H   0  0  0  0  0  0
   -3.1377   22.5869   23.5727 H   0  0  0  0  0  0
   -0.8076   21.7521   23.3228 H   0  0  0  0  0  0
    0.7297   19.9740   22.9638 H   0  0  0  0  0  0
    1.2338   17.5539   22.5795 H   0  0  0  0  0  0
   -0.6525   15.9292   22.4549 H   0  0  0  0  0  0
   -2.9818   16.6811   22.6931 H   0  0  0  0  0  0
   -5.8057   19.0187   20.1674 H   0  0  0  0  0  0
   -4.1405   18.6148   20.7065 H   0  0  0  0  0  0
   -4.3426   15.5970   17.0729 H   0  0  0  0  0  0
   -2.6775   16.0741   17.5490 H   0  0  0  0  0  0
   -3.3936   16.7087   16.0287 H   0  0  0  0  0  0
   -5.7192   17.0989   16.3989 H   0  0  0  0  0  0
   -4.8150   18.5927   15.9775 H   0  0  0  0  0  0
   -6.0707   18.6350   17.2612 H   0  0  0  0  0  0
   -2.9576   19.0774   19.0351 H   0  0  0  0  0  0
   -4.6041   19.6904   18.6611 H   0  0  0  0  0  0
   -3.3483   19.6481   17.3774 H   0  0  0  0  0  0
  1  4  1  0  0  0
  1 81  1  0  0  0
  1 82  1  0  0  0
  1 83  1  0  0  0
  2  4  1  0  0  0
  2 84  1  0  0  0
  2 85  1  0  0  0
  2 86  1  0  0  0
  3  4  1  0  0  0
  3 87  1  0  0  0
  3 88  1  0  0  0
  3 89  1  0  0  0
  4  5  1  0  0  0
  5  6  2  0  0  0
  5  7  2  0  0  0
  5  8  1  0  0  0
  8  9  1  0  0  0
  8 90  1  0  0  0
  8 91  1  0  0  0
  9 10  1  0  0  0
  9 21  1  0  0  0
  9 92  1  0  0  0
 10 11  1  0  0  0
 10 93  1  0  0  0
 10 94  1  0  0  0
 11 12  2  0  0  0
 11 20  1  0  0  0
 12 13  1  0  0  0
 12 95  1  0  0  0
 13 14  2  0  0  0
 13 96  1  0  0  0
 14 15  1  0  0  0
 14 97  1  0  0  0
 15 16  1  0  0  0
 15 20  2  0  0  0
 16 17  2  0  0  0
 16 98  1  0  0  0
 17 18  1  0  0  0
 17 99  1  0  0  0
 18 19  2  0  0  0
 18100  1  0  0  0
 19 20  1  0  0  0
 19101  1  0  0  0
 21 22  2  0  0  0
 21 23  1  0  0  0
 23 24  1  0  0  0
 23102  1  0  0  0
 24 25  1  0  0  0
 24 28  1  0  0  0
 24103  1  0  0  0
 25 26  1  0  0  0
 25 27  1  0  0  0
 25104  1  0  0  0
 26105  1  0  0  0
 26106  1  0  0  0
 26107  1  0  0  0
 27108  1  0  0  0
 27109  1  0  0  0
 27110  1  0  0  0
 28 29  2  0  0  0
 28 30  1  0  0  0
 30 31  1  0  0  0
 30111  1  0  0  0
 31 32  1  0  0  0
 31 39  1  0  0  0
 31112  1  0  0  0
 32 33  1  0  0  0
 32113  1  0  0  0
 32114  1  0  0  0
 33 34  2  0  0  0
 33 38  1  0  0  0
 34 35  1  0  0  0
 34115  1  0  0  0
 35 36  2  0  0  0
 35116  1  0  0  0
 36 37  1  0  0  0
 36117  1  0  0  0
 37 38  2  0  0  0
 37118  1  0  0  0
 38119  1  0  0  0
 39 40  1  0  0  0
 39 41  1  0  0  0
 39120  1  0  0  0
 40121  1  0  0  0
 41 42  1  0  0  0
 41 43  1  0  0  0
 41122  1  0  0  0
 42123  1  0  0  0
 43 44  1  0  0  0
 43 51  1  0  0  0
 43124  1  0  0  0
 44 45  1  0  0  0
 44125  1  0  0  0
 44126  1  0  0  0
 45 46  2  0  0  0
 45 50  1  0  0  0
 46 47  1  0  0  0
 46127  1  0  0  0
 47 48  2  0  0  0
 47128  1  0  0  0
 48 49  1  0  0  0
 48129  1  0  0  0
 49 50  2  0  0  0
 49130  1  0  0  0
 50131  1  0  0  0
 51 52  1  0  0  0
 51132  1  0  0  0
 52 53  2  0  0  0
 52 54  1  0  0  0
 54 55  1  0  0  0
 54 58  1  0  0  0
 54133  1  0  0  0
 55 56  1  0  0  0
 55 57  1  0  0  0
 55134  1  0  0  0
 56135  1  0  0  0
 56136  1  0  0  0
 56137  1  0  0  0
 57138  1  0  0  0
 57139  1  0  0  0
 57140  1  0  0  0
 58 59  1  0  0  0
 58141  1  0  0  0
 59 60  2  0  0  0
 59 61  1  0  0  0
 61 62  1  0  0  0
 61 73  1  0  0  0
 61142  1  0  0  0
 62 63  1  0  0  0
 62143  1  0  0  0
 62144  1  0  0  0
 63 64  2  0  0  0
 63 72  1  0  0  0
 64 65  1  0  0  0
 64145  1  0  0  0
 65 66  2  0  0  0
 65146  1  0  0  0
 66 67  1  0  0  0
 66147  1  0  0  0
 67 68  1  0  0  0
 67 72  2  0  0  0
 68 69  2  0  0  0
 68148  1  0  0  0
 69 70  1  0  0  0
 69149  1  0  0  0
 70 71  2  0  0  0
 70150  1  0  0  0
 71 72  1  0  0  0
 71151  1  0  0  0
 73 74  1  0  0  0
 73152  1  0  0  0
 73153  1  0  0  0
 74 75  2  0  0  0
 74 76  2  0  0  0
 74 77  1  0  0  0
 77 78  1  0  0  0
 77 79  1  0  0  0
 77 80  1  0  0  0
 78154  1  0  0  0
 78155  1  0  0  0
 78156  1  0  0  0
 79157  1  0  0  0
 79158  1  0  0  0
 79159  1  0  0  0
 80160  1  0  0  0
 80161  1  0  0  0
 80162  1  0  0  0
M  END
> <s_m_source_file>
../1vij_ligand.sdf

> <i_m_source_file_index>
1

> <s_epik_input>
W2NIXTFbY0hdW2NIXVtjSF1jKGMxMiljKFtjSF1bY0hdW2NIXTIpW0NIMl1bQ0BASF0oW0NIMl1TKD1PKSg9TylDKFtDSDNdKShbQ0gzXSlbQ0gzXSlDKD1PKVtOSF1bQ0BASF0oW0NIXShbQ0gzXSlbQ0gzXSlDKD1PKVtOSF1bQ0BASF0oW0NIMl1jM1tjSF1bY0hdW2NIXVtjSF1bY0hdMylbQ0BASF0oW09IXSlbQ0BIXShbT0hdKVtDQEhdKFtDSDJdYzRbY0hdW2NIXVtjSF1bY0hdW2NIXTQpW05IXUMoPU8pW0NIXShbQ0hdKFtDSDNdKVtDSDNdKVtOSF1DKD1PKVtDQEBIXShbQ0gyXVMoPU8pKD1PKUMoW0NIM10pKFtDSDNdKVtDSDNdKVtDSDJdYyhbY0hdW2NIXVtjSF01KWMoYzU2KVtjSF1bY0hdW2NIXVtjSF02

> <s_epik_cmdline>
J2VwaWtfYXBwJywgJy1pbWFlJywgJ2xpZ2FuZF9wcm8ubWFlJywgJy1vbWFlJywgJ2xpZ2FuZF9wcmVwLm1hZScsICctbXMnLCAnMScsICctcGgnLCAnNycsICctcGh0JywgJzAuNScsICctbnQn

> <s_epik_pKa_notes>
Molecule size exceeds maximum supported for generating protonation states

$$$$
