1vik_ligand
                    3D
 Schrodinger Suite 2020-3.
162167  0  0  1  0            999 V2000
    4.5720   29.4190    7.5580 C   0  0  0  0  0  0
    3.3220   28.6550    5.7290 C   0  0  0  0  0  0
    2.6500   28.0420    7.9010 C   0  0  0  0  0  0
    3.8590   28.2140    7.0490 C   0  0  0  0  0  0
    4.7130   26.6440    6.7830 S   0  0  0  0  0  0
    5.6770   26.8400    7.8090 O   0  0  0  0  0  0
    4.0000   25.5350    6.7480 O   0  0  0  0  0  0
    5.7710   27.2110    5.4110 C   0  0  0  0  0  0
    6.7440   26.2810    4.7030 C   0  0  1  0  0  0
    6.8690   26.8580    3.2470 C   0  0  0  0  0  0
    5.8030   26.1270    2.3690 C   0  0  0  0  0  0
    4.7150   25.5350    3.0410 C   0  0  0  0  0  0
    3.7390   24.8730    2.2780 C   0  0  0  0  0  0
    3.8710   24.8170    0.8710 C   0  0  0  0  0  0
    4.9580   25.4090    0.2090 C   0  0  0  0  0  0
    5.0840   25.3450   -1.2020 C   0  0  0  0  0  0
    6.1910   25.9490   -1.8650 C   0  0  0  0  0  0
    7.1710   26.6180   -1.1170 C   0  0  0  0  0  0
    7.0680   26.6950    0.3080 C   0  0  0  0  0  0
    5.9590   26.0880    0.9670 C   0  0  0  0  0  0
    8.1540   26.3890    5.3330 C   0  0  0  0  0  0
    8.8070   27.4340    5.2420 O   0  0  0  0  0  0
    8.6250   25.3160    5.9640 N   0  0  0  0  0  0
    9.9490   25.3480    6.5700 C   0  0  1  0  0  0
   10.0240   25.4550    8.0940 C   0  0  0  0  0  0
    9.1630   26.4760    8.8350 C   0  0  0  0  0  0
   11.5020   25.5560    8.5310 C   0  0  0  0  0  0
   10.7140   24.1250    6.0070 C   0  0  0  0  0  0
   10.8650   23.0740    6.6230 O   0  0  0  0  0  0
   11.2020   24.3040    4.7680 N   0  0  0  0  0  0
   11.9730   23.1540    4.1240 C   0  0  1  0  0  0
   11.3340   22.8100    2.7800 C   0  0  0  0  0  0
   10.0850   21.9700    2.8210 C   0  0  0  0  0  0
   10.1360   20.5840    2.6440 C   0  0  0  0  0  0
    8.9200   19.8190    2.6950 C   0  0  0  0  0  0
    7.6820   20.4670    2.9200 C   0  0  0  0  0  0
    7.6390   21.8700    3.0980 C   0  0  0  0  0  0
    8.8270   22.6110    3.0500 C   0  0  0  0  0  0
   13.3740   23.7540    3.7120 C   0  0  1  0  0  0
   13.0260   24.8820    2.8580 O   0  0  0  0  0  0
   14.3590   24.1020    4.8650 C   0  0  2  0  0  0
   15.5580   24.7130    4.4230 O   0  0  0  0  0  0
   14.7360   23.0950    5.9730 C   0  0  2  0  0  0
   15.4210   23.7360    7.2130 C   0  0  0  0  0  0
   15.7690   22.7600    8.3190 C   0  0  0  0  0  0
   14.8750   22.3630    9.3290 C   0  0  0  0  0  0
   15.3000   21.4310   10.3240 C   0  0  0  0  0  0
   16.6090   20.9220   10.2790 C   0  0  0  0  0  0
   17.5090   21.3220    9.2680 C   0  0  0  0  0  0
   17.0800   22.2470    8.2800 C   0  0  0  0  0  0
   15.6250   22.0590    5.4130 N   0  0  0  0  0  0
   15.2160   20.8130    5.1340 C   0  0  0  0  0  0
   14.0980   20.2850    5.2680 O   0  0  0  0  0  0
   16.3030   19.8880    4.5550 C   0  0  2  0  0  0
   15.6070   18.8160    3.6440 C   0  0  0  0  0  0
   14.6890   19.4990    2.6410 C   0  0  0  0  0  0
   16.4830   17.7570    2.9920 C   0  0  0  0  0  0
   16.9440   19.1840    5.7110 N   0  0  0  0  0  0
   18.2980   19.0120    5.6930 C   0  0  0  0  0  0
   19.0170   19.4260    4.7700 O   0  0  0  0  0  0
   18.8460   18.2920    6.9060 C   0  0  2  0  0  0
   19.4420   19.4160    7.7880 C   0  0  0  0  0  0
   19.7600   18.9000    9.1780 C   0  0  0  0  0  0
   21.0330   19.1810    9.7490 C   0  0  0  0  0  0
   21.3240   18.7030   11.0450 C   0  0  0  0  0  0
   20.3800   17.9590   11.7650 C   0  0  0  0  0  0
   19.1270   17.6730   11.2180 C   0  0  0  0  0  0
   18.1880   16.9220   11.9650 C   0  0  0  0  0  0
   16.9270   16.6510   11.3830 C   0  0  0  0  0  0
   16.6060   17.1190   10.0910 C   0  0  0  0  0  0
   17.5500   17.8780    9.3350 C   0  0  0  0  0  0
   18.8170   18.1550    9.9030 C   0  0  0  0  0  0
   20.0420   17.3280    6.6470 C   0  0  0  0  0  0
   19.4510   15.7990    5.8430 S   0  0  0  0  0  0
   17.9900   15.2810    6.3770 O   0  0  0  0  0  0
   19.2630   15.7150    4.2900 O   0  0  0  0  0  0
   20.6510   14.6030    6.3960 C   0  0  0  0  0  0
   22.0620   15.0720    6.5750 C   0  0  0  0  0  0
   20.6480   14.0370    7.8830 C   0  0  0  0  0  0
   20.3820   13.1200    5.9360 C   0  0  0  0  0  0
    3.8631   30.2558    7.6432 H   0  0  0  0  0  0
    5.3775   29.6905    6.8599 H   0  0  0  0  0  0
    5.0018   29.2004    8.5467 H   0  0  0  0  0  0
    2.7927   29.6117    5.8496 H   0  0  0  0  0  0
    2.6246   27.8960    5.3448 H   0  0  0  0  0  0
    4.1527   28.7824    5.0193 H   0  0  0  0  0  0
    2.1581   29.0160    8.0404 H   0  0  0  0  0  0
    2.9460   27.6372    8.8801 H   0  0  0  0  0  0
    1.9528   27.3457    7.4119 H   0  0  0  0  0  0
    5.1394   27.5765    4.5879 H   0  0  0  0  0  0
    6.4225   28.0247    5.7624 H   0  0  0  0  0  0
    6.3833   25.2446    4.7787 H   0  0  0  0  0  0
    6.6797   27.9414    3.2645 H   0  0  0  0  0  0
    7.8825   26.6690    2.8634 H   0  0  0  0  0  0
    4.6328   25.5895    4.1265 H   0  0  0  0  0  0
    2.8848   24.4051    2.7675 H   0  0  0  0  0  0
    3.1095   24.3012    0.2860 H   0  0  0  0  0  0
    4.3240   24.8270   -1.7870 H   0  0  0  0  0  0
    6.2761   25.8914   -2.9501 H   0  0  0  0  0  0
    8.0165   27.0822   -1.6246 H   0  0  0  0  0  0
    7.8324   27.2143    0.8860 H   0  0  0  0  0  0
    8.0130   24.4042    6.0275 H   0  0  0  0  0  0
   10.3600   26.3228    6.2686 H   0  0  0  0  0  0
    9.5278   24.5258    8.4108 H   0  0  0  0  0  0
    8.1177   26.3823    8.5054 H   0  0  0  0  0  0
    9.5270   27.4906    8.6158 H   0  0  0  0  0  0
    9.2242   26.2904    9.9175 H   0  0  0  0  0  0
   12.0980   24.8113    7.9831 H   0  0  0  0  0  0
   11.5788   25.3642    9.6114 H   0  0  0  0  0  0
   11.8817   26.5644    8.3097 H   0  0  0  0  0  0
   11.0593   25.2462    4.2186 H   0  0  0  0  0  0
   11.9785   22.2912    4.8064 H   0  0  0  0  0  0
   11.0535   23.7375    2.2593 H   0  0  0  0  0  0
   12.0525   22.2475    2.1656 H   0  0  0  0  0  0
   11.0904   20.0874    2.4687 H   0  0  0  0  0  0
    8.9515   18.7378    2.5601 H   0  0  0  0  0  0
    6.7612   19.8849    2.9562 H   0  0  0  0  0  0
    6.6869   22.3715    3.2715 H   0  0  0  0  0  0
    8.7921   23.6915    3.1892 H   0  0  0  0  0  0
   13.9908   23.0468    3.1380 H   0  0  0  0  0  0
   12.3356   24.7400    2.0135 H   0  0  0  0  0  0
   13.7501   24.8685    5.3667 H   0  0  0  0  0  0
   15.5276   25.4727    3.6281 H   0  0  0  0  0  0
   13.8027   22.6178    6.3067 H   0  0  0  0  0  0
   16.3615   24.2162    6.9050 H   0  0  0  0  0  0
   14.7515   24.4897    7.6530 H   0  0  0  0  0  0
   13.8620   22.7648    9.3524 H   0  0  0  0  0  0
   14.6149   21.1172   11.1116 H   0  0  0  0  0  0
   16.9340   20.2080   11.0357 H   0  0  0  0  0  0
   18.5237   20.9246    9.2460 H   0  0  0  0  0  0
   17.7648   22.5599    7.4918 H   0  0  0  0  0  0
   16.6794   22.2931    5.2045 H   0  0  0  0  0  0
   17.0665   20.4569    4.0041 H   0  0  0  0  0  0
   15.0128   18.1836    4.3200 H   0  0  0  0  0  0
   14.0779   20.2535    3.1579 H   0  0  0  0  0  0
   14.0311   18.7496    2.1767 H   0  0  0  0  0  0
   15.2944   19.9876    1.8634 H   0  0  0  0  0  0
   17.1264   17.2933    3.7542 H   0  0  0  0  0  0
   17.1097   18.2250    2.2185 H   0  0  0  0  0  0
   15.8463   16.9870    2.5318 H   0  0  0  0  0  0
   16.3258   18.8209    6.5452 H   0  0  0  0  0  0
   18.0086   17.6996    7.3032 H   0  0  0  0  0  0
   20.3688   19.7901    7.3285 H   0  0  0  0  0  0
   18.7169   20.2388    7.8730 H   0  0  0  0  0  0
   21.7729   19.7572    9.1934 H   0  0  0  0  0  0
   22.2955   18.9154   11.4913 H   0  0  0  0  0  0
   20.6263   17.5991   12.7639 H   0  0  0  0  0  0
   18.4305   16.5611   12.9645 H   0  0  0  0  0  0
   16.1919   16.0715   11.9415 H   0  0  0  0  0  0
   15.6269   16.8987    9.6656 H   0  0  0  0  0  0
   17.2994   18.2382    8.3372 H   0  0  0  0  0  0
   20.7749   17.8210    5.9914 H   0  0  0  0  0  0
   20.5201   17.0716    7.6039 H   0  0  0  0  0  0
   22.0607   16.1240    6.8964 H   0  0  0  0  0  0
   22.6025   14.9806    5.6213 H   0  0  0  0  0  0
   22.5591   14.4558    7.3387 H   0  0  0  0  0  0
   20.8246   14.8614    8.5895 H   0  0  0  0  0  0
   21.4436   13.2851    7.9907 H   0  0  0  0  0  0
   19.6737   13.5732    8.0968 H   0  0  0  0  0  0
   20.3103   13.0837    4.8389 H   0  0  0  0  0  0
   19.4390   12.7646    6.3770 H   0  0  0  0  0  0
   21.2089   12.4765    6.2709 H   0  0  0  0  0  0
  1  4  1  0  0  0
  1 81  1  0  0  0
  1 82  1  0  0  0
  1 83  1  0  0  0
  2  4  1  0  0  0
  2 84  1  0  0  0
  2 85  1  0  0  0
  2 86  1  0  0  0
  3  4  1  0  0  0
  3 87  1  0  0  0
  3 88  1  0  0  0
  3 89  1  0  0  0
  4  5  1  0  0  0
  5  6  2  0  0  0
  5  7  2  0  0  0
  5  8  1  0  0  0
  8  9  1  0  0  0
  8 90  1  0  0  0
  8 91  1  0  0  0
  9 10  1  0  0  0
  9 21  1  0  0  0
  9 92  1  0  0  0
 10 11  1  0  0  0
 10 93  1  0  0  0
 10 94  1  0  0  0
 11 12  2  0  0  0
 11 20  1  0  0  0
 12 13  1  0  0  0
 12 95  1  0  0  0
 13 14  2  0  0  0
 13 96  1  0  0  0
 14 15  1  0  0  0
 14 97  1  0  0  0
 15 16  1  0  0  0
 15 20  2  0  0  0
 16 17  2  0  0  0
 16 98  1  0  0  0
 17 18  1  0  0  0
 17 99  1  0  0  0
 18 19  2  0  0  0
 18100  1  0  0  0
 19 20  1  0  0  0
 19101  1  0  0  0
 21 22  2  0  0  0
 21 23  1  0  0  0
 23 24  1  0  0  0
 23102  1  0  0  0
 24 25  1  0  0  0
 24 28  1  0  0  0
 24103  1  0  0  0
 25 26  1  0  0  0
 25 27  1  0  0  0
 25104  1  0  0  0
 26105  1  0  0  0
 26106  1  0  0  0
 26107  1  0  0  0
 27108  1  0  0  0
 27109  1  0  0  0
 27110  1  0  0  0
 28 29  2  0  0  0
 28 30  1  0  0  0
 30 31  1  0  0  0
 30111  1  0  0  0
 31 32  1  0  0  0
 31 39  1  0  0  0
 31112  1  0  0  0
 32 33  1  0  0  0
 32113  1  0  0  0
 32114  1  0  0  0
 33 34  2  0  0  0
 33 38  1  0  0  0
 34 35  1  0  0  0
 34115  1  0  0  0
 35 36  2  0  0  0
 35116  1  0  0  0
 36 37  1  0  0  0
 36117  1  0  0  0
 37 38  2  0  0  0
 37118  1  0  0  0
 38119  1  0  0  0
 39 40  1  0  0  0
 39 41  1  0  0  0
 39120  1  0  0  0
 40121  1  0  0  0
 41 42  1  0  0  0
 41 43  1  0  0  0
 41122  1  0  0  0
 42123  1  0  0  0
 43 44  1  0  0  0
 43 51  1  0  0  0
 43124  1  0  0  0
 44 45  1  0  0  0
 44125  1  0  0  0
 44126  1  0  0  0
 45 46  2  0  0  0
 45 50  1  0  0  0
 46 47  1  0  0  0
 46127  1  0  0  0
 47 48  2  0  0  0
 47128  1  0  0  0
 48 49  1  0  0  0
 48129  1  0  0  0
 49 50  2  0  0  0
 49130  1  0  0  0
 50131  1  0  0  0
 51 52  1  0  0  0
 51132  1  0  0  0
 52 53  2  0  0  0
 52 54  1  0  0  0
 54 55  1  0  0  0
 54 58  1  0  0  0
 54133  1  0  0  0
 55 56  1  0  0  0
 55 57  1  0  0  0
 55134  1  0  0  0
 56135  1  0  0  0
 56136  1  0  0  0
 56137  1  0  0  0
 57138  1  0  0  0
 57139  1  0  0  0
 57140  1  0  0  0
 58 59  1  0  0  0
 58141  1  0  0  0
 59 60  2  0  0  0
 59 61  1  0  0  0
 61 62  1  0  0  0
 61 73  1  0  0  0
 61142  1  0  0  0
 62 63  1  0  0  0
 62143  1  0  0  0
 62144  1  0  0  0
 63 64  2  0  0  0
 63 72  1  0  0  0
 64 65  1  0  0  0
 64145  1  0  0  0
 65 66  2  0  0  0
 65146  1  0  0  0
 66 67  1  0  0  0
 66147  1  0  0  0
 67 68  1  0  0  0
 67 72  2  0  0  0
 68 69  2  0  0  0
 68148  1  0  0  0
 69 70  1  0  0  0
 69149  1  0  0  0
 70 71  2  0  0  0
 70150  1  0  0  0
 71 72  1  0  0  0
 71151  1  0  0  0
 73 74  1  0  0  0
 73152  1  0  0  0
 73153  1  0  0  0
 74 75  2  0  0  0
 74 76  2  0  0  0
 74 77  1  0  0  0
 77 78  1  0  0  0
 77 79  1  0  0  0
 77 80  1  0  0  0
 78154  1  0  0  0
 78155  1  0  0  0
 78156  1  0  0  0
 79157  1  0  0  0
 79158  1  0  0  0
 79159  1  0  0  0
 80160  1  0  0  0
 80161  1  0  0  0
 80162  1  0  0  0
M  END
> <s_m_source_file>
../1vik_ligand.sdf

> <i_m_source_file_index>
1

> <s_epik_input>
W2NIXTFbY0hdW2NIXVtjSF1jKGMxMiljKFtjSF1bY0hdW2NIXTIpW0NIMl1bQ0BIXShbQ0gyXVMoPU8pKD1PKUMoW0NIM10pKFtDSDNdKVtDSDNdKUMoPU8pW05IXVtDQEBIXShbQ0hdKFtDSDNdKVtDSDNdKUMoPU8pW05IXVtDQEBIXShbQ0gyXWMzW2NIXVtjSF1bY0hdW2NIXVtjSF0zKVtDQEBIXShbT0hdKVtDQEhdKFtPSF0pW0NASF0oW0NIMl1jNFtjSF1bY0hdW2NIXVtjSF1bY0hdNClbTkhdQyg9TylbQ0BIXShbQ0hdKFtDSDNdKVtDSDNdKVtOSF1DKD1PKVtDQEBIXShbQ0gyXVMoPU8pKD1PKUMoW0NIM10pKFtDSDNdKVtDSDNdKVtDSDJdYyhbY0hdW2NIXVtjSF01KWMoYzU2KVtjSF1bY0hdW2NIXVtjSF02

> <s_epik_cmdline>
J2VwaWtfYXBwJywgJy1pbWFlJywgJ2xpZ2FuZF9wcm8ubWFlJywgJy1vbWFlJywgJ2xpZ2FuZF9wcmVwLm1hZScsICctbXMnLCAnMScsICctcGgnLCAnNycsICctcGh0JywgJzAuNScsICctbnQn

> <s_epik_pKa_notes>
Molecule size exceeds maximum supported for generating protonation states

$$$$
