1vj5_ligand
                    3D
 Schrodinger Suite 2020-3.
 34 35  0  0  1  0            999 V2000
   13.5790   10.6230  142.8130 C   0  0  0  0  0  0
   14.0880   10.8790  141.3560 C   0  0  0  0  0  0
   15.2020   11.9700  141.3250 C   0  0  0  0  0  0
   14.6830   13.3090  141.9410 C   0  0  0  0  0  0
   14.2110   13.0920  143.4170 C   0  0  0  0  0  0
   13.1240   11.9580  143.5160 C   0  0  0  0  0  0
   15.6320   12.1750  139.9280 N   0  0  0  0  0  0
   16.4570   11.3760  139.2540 C   0  0  0  0  0  0
   16.6090   10.2710  139.7650 O   0  0  0  0  0  0
   17.0770   11.7040  138.1310 N   0  0  0  0  0  0
   17.9780   10.9550  137.3190 C   0  0  0  0  0  0
   21.1070    8.3390  134.4770 I   0  0  0  0  0  0
   18.3260    9.6360  137.6510 C   0  0  0  0  0  0
   19.2730    8.8590  136.7900 C   0  0  0  0  0  0
   19.7880    9.4640  135.6590 C   0  0  0  0  0  0
   19.4350   10.8040  135.3180 C   0  0  0  0  0  0
   18.5250   11.5450  136.1460 C   0  0  0  0  0  0
   12.7200    9.9365  142.7860 H   0  0  0  0  0  0
   14.3871   10.1758  143.4105 H   0  0  0  0  0  0
   14.5011    9.9470  140.9429 H   0  0  0  0  0  0
   13.2501   11.2182  140.7292 H   0  0  0  0  0  0
   16.0912   11.6352  141.8793 H   0  0  0  0  0  0
   15.4919   14.0544  141.9322 H   0  0  0  0  0  0
   13.8349   13.6812  141.3475 H   0  0  0  0  0  0
   15.0716   12.8036  144.0385 H   0  0  0  0  0  0
   13.7758   14.0253  143.8038 H   0  0  0  0  0  0
   12.2041   12.3281  143.0397 H   0  0  0  0  0  0
   12.9327   11.7644  144.5818 H   0  0  0  0  0  0
   15.2658   13.0440  139.3617 H   0  0  0  0  0  0
   16.9236   12.6994  137.6886 H   0  0  0  0  0  0
   17.9032    9.1737  138.5430 H   0  0  0  0  0  0
   19.5505    7.8374  137.0497 H   0  0  0  0  0  0
   19.8575   11.2667  134.4261 H   0  0  0  0  0  0
   18.2522   12.5647  135.8741 H   0  0  0  0  0  0
  1  2  1  0  0  0
  1  6  1  0  0  0
  1 18  1  0  0  0
  1 19  1  0  0  0
  2  3  1  0  0  0
  2 20  1  0  0  0
  2 21  1  0  0  0
  3  4  1  0  0  0
  3  7  1  0  0  0
  3 22  1  0  0  0
  4  5  1  0  0  0
  4 23  1  0  0  0
  4 24  1  0  0  0
  5  6  1  0  0  0
  5 25  1  0  0  0
  5 26  1  0  0  0
  6 27  1  0  0  0
  6 28  1  0  0  0
  7  8  1  0  0  0
  7 29  1  0  0  0
  8  9  2  0  0  0
  8 10  1  0  0  0
 10 11  1  0  0  0
 10 30  1  0  0  0
 11 13  2  0  0  0
 11 17  1  0  0  0
 12 15  1  0  0  0
 13 14  1  0  0  0
 13 31  1  0  0  0
 14 15  2  0  0  0
 14 32  1  0  0  0
 15 16  1  0  0  0
 16 17  2  0  0  0
 16 33  1  0  0  0
 17 34  1  0  0  0
M  END
> <s_m_source_file>
../1vj5_ligand.sdf

> <i_m_source_file_index>
1

> <s_epik_input>
W0NIMl0xW0NIMl1bQ0gyXVtDSDJdW0NIMl1bQ0hdMVtOSF1DKD1PKVtOSF1jMltjSF1bY0hdYyhJKVtjSF1bY0hdMg==

> <s_epik_cmdline>
J2VwaWtfYXBwJywgJy1pbWFlJywgJ2xpZ2FuZF9wcm8ubWFlJywgJy1vbWFlJywgJ2xpZ2FuZF9wcmVwLm1hZScsICctbXMnLCAnMScsICctcGgnLCAnNycsICctcGh0JywgJzAuNScsICctbnQn

> <r_lp_tautomer_probability>
1

> <r_epik_Ionization_Penalty>
  0.0000

> <r_epik_Ionization_Penalty_Charging>
  0.0000

> <r_epik_Ionization_Penalty_Neutral>
  0.0000

> <r_epik_State_Penalty>
 -0.0000

> <r_epik_Charging_Adjusted_Penalty>
0

> <i_epik_Tot_Q>
0

> <i_epik_Tot_abs_Q>
0

$$$$
