1vj6_ligand
                    3D
 Schrodinger Suite 2020-3.
100100  0  0  1  0            999 V2000
   11.9420   -2.3830   14.9530 N   0  3  0  0  0  0
   11.0820   -1.3430   15.4280 C   0  0  2  0  0  0
    9.6590   -1.7130   15.1920 C   0  0  0  0  0  0
    8.8380   -1.7160   16.1090 O   0  0  0  0  0  0
   11.4400   -0.0250   14.7200 C   0  0  0  0  0  0
   11.3170    1.1540   15.6240 C   0  0  0  0  0  0
   10.1350    1.8460   15.7380 C   0  0  0  0  0  0
   12.4200    1.5860   16.3220 C   0  0  0  0  0  0
   10.0580    2.9680   16.5300 C   0  0  0  0  0  0
   12.3520    2.7100   17.1110 C   0  0  0  0  0  0
   11.1710    3.4080   17.2050 C   0  0  0  0  0  0
   11.1170    4.5830   17.9840 O   0  0  0  0  0  0
    9.3280   -2.0240   13.9260 N   0  0  0  0  0  0
    8.0190   -2.2450   13.3950 C   0  0  2  0  0  0
    7.1010   -1.0750   13.4870 C   0  0  0  0  0  0
    7.4670   -0.0070   13.9760 O   0  0  0  0  0  0
    7.3700   -3.5170   13.9650 C   0  0  0  0  0  0
    6.4510   -4.3350   13.0430 C   0  0  0  0  0  0
    7.2470   -4.9730   11.8920 C   0  0  0  0  0  0
    5.8150   -5.4380   13.9060 C   0  0  0  0  0  0
    5.8630   -1.2500   12.9920 N   0  0  0  0  0  0
    4.7130   -0.4030   13.0740 C   0  0  2  0  0  0
    4.9610    1.0670   13.0850 C   0  0  0  0  0  0
    5.1430    1.7280   14.1060 O   0  0  0  0  0  0
    3.6410   -0.8570   14.0210 C   0  0  0  0  0  0
    2.9960   -2.1150   13.4170 C   0  0  0  0  0  0
    4.1980   -1.1220   15.4300 C   0  0  0  0  0  0
    4.9880    1.6100   11.8550 N   0  0  0  0  0  0
    5.3730    2.9560   11.5700 C   0  0  2  0  0  0
    4.1880    3.4640   10.8220 C   0  0  0  0  0  0
    3.8120    2.8720    9.8130 O   0  0  0  0  0  0
    6.5680    3.0700   10.6700 C   0  0  2  0  0  0
    7.6800    2.3760   11.2140 O   0  0  0  0  0  0
    7.0000    4.5340   10.4790 C   0  0  0  0  0  0
    3.5680    4.5410   11.3360 N   0  0  0  0  0  0
    2.5430    5.2840   10.6680 C   0  0  2  0  0  0
    3.1360    6.0640    9.5450 C   0  0  0  0  0  0
    4.0560    6.8610    9.7270 O   0  0  0  0  0  0
    1.7630    6.2100   11.6150 C   0  0  0  0  0  0
    2.5840    7.1710   12.2630 O   0  0  0  0  0  0
    2.6550    5.8130    8.3150 N   0  0  0  0  0  0
    3.1450    6.4260    7.1190 C   0  0  2  0  0  0
    1.9200    6.4650    6.2180 C   0  0  0  0  0  0
    0.8730    5.8280    6.5110 O   0  5  0  0  0  0
    4.3960    5.8060    6.5720 C   0  0  0  0  0  0
    4.6980    4.4030    7.1250 C   0  0  0  0  0  0
    4.4840    5.7930    5.0360 C   0  0  0  0  0  0
    1.9750    7.2710    5.2510 O   0  0  0  0  0  0
   11.6887   -3.3272   15.4573 H   0  0  0  0  0  0
   12.9882   -2.1210   15.1692 H   0  0  0  0  0  0
   11.8103   -2.5004   13.8672 H   0  0  0  0  0  0
   11.2390   -1.2726   16.5145 H   0  0  0  0  0  0
   12.4787   -0.0721   14.3609 H   0  0  0  0  0  0
   10.7635    0.1282   13.8663 H   0  0  0  0  0  0
    9.2528    1.5034   15.1972 H   0  0  0  0  0  0
   13.3563    1.0327   16.2493 H   0  0  0  0  0  0
    9.1153    3.5074   16.6220 H   0  0  0  0  0  0
   13.2313    3.0466   17.6601 H   0  0  0  0  0  0
   10.1760    5.1470   18.0642 H   0  0  0  0  0  0
   10.2080   -2.1036   13.2708 H   0  0  0  0  0  0
    8.2504   -2.3517   12.3249 H   0  0  0  0  0  0
    8.1554   -4.2193   14.2810 H   0  0  0  0  0  0
    6.7443   -3.2532   14.8304 H   0  0  0  0  0  0
    5.6877   -3.6821   12.5945 H   0  0  0  0  0  0
    7.7004   -4.1817   11.2770 H   0  0  0  0  0  0
    6.5711   -5.5786   11.2704 H   0  0  0  0  0  0
    8.0388   -5.6150   12.3055 H   0  0  0  0  0  0
    5.2466   -4.9784   14.7280 H   0  0  0  0  0  0
    6.6056   -6.0804   14.3211 H   0  0  0  0  0  0
    5.1380   -6.0440   13.2860 H   0  0  0  0  0  0
    5.8024   -2.2095   12.4574 H   0  0  0  0  0  0
    4.3355   -0.5987   12.0595 H   0  0  0  0  0  0
    2.8996   -0.0515   14.1280 H   0  0  0  0  0  0
    2.6115   -1.8837   12.4127 H   0  0  0  0  0  0
    2.1671   -2.4466   14.0596 H   0  0  0  0  0  0
    3.7479   -2.9148   13.3466 H   0  0  0  0  0  0
    4.6493   -0.2000   15.8252 H   0  0  0  0  0  0
    4.9619   -1.9119   15.3797 H   0  0  0  0  0  0
    3.3811   -1.4437   16.0927 H   0  0  0  0  0  0
    4.6857    0.9395   11.0371 H   0  0  0  0  0  0
    5.6327    3.4574   12.5140 H   0  0  0  0  0  0
    6.3045    2.5747    9.7239 H   0  0  0  0  0  0
    7.6025    1.3016   11.4367 H   0  0  0  0  0  0
    6.1638    5.1110   10.0572 H   0  0  0  0  0  0
    7.8582    4.5764    9.7922 H   0  0  0  0  0  0
    7.2869    4.9614   11.4511 H   0  0  0  0  0  0
    3.8986    4.8413   12.3413 H   0  0  0  0  0  0
    1.8692    4.5097   10.2724 H   0  0  0  0  0  0
    0.9985    6.7580   11.0446 H   0  0  0  0  0  0
    1.2762    5.6088   12.3971 H   0  0  0  0  0  0
    2.1386    7.8905   12.9658 H   0  0  0  0  0  0
    1.8324    5.0845    8.2625 H   0  0  0  0  0  0
    3.5359    7.4320    7.3313 H   0  0  0  0  0  0
    5.1531    6.5059    6.9554 H   0  0  0  0  0  0
    4.6333    4.4199    8.2230 H   0  0  0  0  0  0
    5.7110    4.0997    6.8220 H   0  0  0  0  0  0
    3.9657    3.6860    6.7255 H   0  0  0  0  0  0
    4.2670    6.7991    4.6478 H   0  0  0  0  0  0
    3.7513    5.0785    4.6328 H   0  0  0  0  0  0
    5.4966    5.4922    4.7293 H   0  0  0  0  0  0
  1  2  1  0  0  0
  1 49  1  0  0  0
  1 50  1  0  0  0
  1 51  1  0  0  0
  2  3  1  0  0  0
  2  5  1  0  0  0
  2 52  1  0  0  0
  3  4  2  0  0  0
  3 13  1  0  0  0
  5  6  1  0  0  0
  5 53  1  0  0  0
  5 54  1  0  0  0
  6  7  2  0  0  0
  6  8  1  0  0  0
  7  9  1  0  0  0
  7 55  1  0  0  0
  8 10  2  0  0  0
  8 56  1  0  0  0
  9 11  2  0  0  0
  9 57  1  0  0  0
 10 11  1  0  0  0
 10 58  1  0  0  0
 11 12  1  0  0  0
 12 59  1  0  0  0
 13 14  1  0  0  0
 13 60  1  0  0  0
 14 15  1  0  0  0
 14 17  1  0  0  0
 14 61  1  0  0  0
 15 16  2  0  0  0
 15 21  1  0  0  0
 17 18  1  0  0  0
 17 62  1  0  0  0
 17 63  1  0  0  0
 18 19  1  0  0  0
 18 20  1  0  0  0
 18 64  1  0  0  0
 19 65  1  0  0  0
 19 66  1  0  0  0
 19 67  1  0  0  0
 20 68  1  0  0  0
 20 69  1  0  0  0
 20 70  1  0  0  0
 21 22  1  0  0  0
 21 71  1  0  0  0
 22 23  1  0  0  0
 22 25  1  0  0  0
 22 72  1  0  0  0
 23 24  2  0  0  0
 23 28  1  0  0  0
 25 26  1  0  0  0
 25 27  1  0  0  0
 25 73  1  0  0  0
 26 74  1  0  0  0
 26 75  1  0  0  0
 26 76  1  0  0  0
 27 77  1  0  0  0
 27 78  1  0  0  0
 27 79  1  0  0  0
 28 29  1  0  0  0
 28 80  1  0  0  0
 29 30  1  0  0  0
 29 32  1  0  0  0
 29 81  1  0  0  0
 30 31  2  0  0  0
 30 35  1  0  0  0
 32 33  1  0  0  0
 32 34  1  0  0  0
 32 82  1  0  0  0
 33 83  1  0  0  0
 34 84  1  0  0  0
 34 85  1  0  0  0
 34 86  1  0  0  0
 35 36  1  0  0  0
 35 87  1  0  0  0
 36 37  1  0  0  0
 36 39  1  0  0  0
 36 88  1  0  0  0
 37 38  2  0  0  0
 37 41  1  0  0  0
 39 40  1  0  0  0
 39 89  1  0  0  0
 39 90  1  0  0  0
 40 91  1  0  0  0
 41 42  1  0  0  0
 41 92  1  0  0  0
 42 43  1  0  0  0
 42 45  1  0  0  0
 42 93  1  0  0  0
 43 44  1  0  0  0
 43 48  2  0  0  0
 45 46  1  0  0  0
 45 47  1  0  0  0
 45 94  1  0  0  0
 46 95  1  0  0  0
 46 96  1  0  0  0
 46 97  1  0  0  0
 47 98  1  0  0  0
 47 99  1  0  0  0
 47100  1  0  0  0
M  CHG  2   1   1  44  -1
M  END
> <s_m_source_file>
../1vj6_ligand.sdf

> <i_m_source_file_index>
1

> <s_epik_input>
W2NIXTFbY0hdYyhbT0hdKVtjSF1bY0hdYzFbQ0gyXVtDQEhdKFtOSDMrXSlDKD1PKVtOSF1bQ0BASF0oW0NIMl1bQ0hdKFtDSDNdKVtDSDNdKUMoPU8pW05IXVtDQEBIXShbQ0hdKFtDSDNdKVtDSDNdKUMoPU8pW05IXVtDQEBIXShbQ0BIXShbT0hdKVtDSDNdKUMoPU8pW05IXVtDQEBIXShbQ0gyXVtPSF0pQyg9TylbTkhdW0NASF0oQyg9TylbT0hdKVtDSF0oW0NIM10pW0NIM10=

> <s_epik_cmdline>
J2VwaWtfYXBwJywgJy1pbWFlJywgJ2xpZ2FuZF9wcm8ubWFlJywgJy1vbWFlJywgJ2xpZ2FuZF9wcmVwLm1hZScsICctbXMnLCAnMScsICctcGgnLCAnNycsICctcGh0JywgJzAuNScsICctbnQn

> <r_lp_tautomer_probability>
0.999999999997365

> <r_epik_Ionization_Penalty>
  0.2026

> <r_epik_Ionization_Penalty_Charging>
  0.1999

> <r_epik_Ionization_Penalty_Neutral>
  0.0027

> <r_epik_State_Penalty>
  0.1896

> <r_epik_Charging_Adjusted_Penalty>
0.389463736200951

> <i_epik_Tot_Q>
0

> <i_epik_Tot_abs_Q>
2

$$$$
