1vj9_ligand
                    3D
 Schrodinger Suite 2020-3.
 74 76  0  0  1  0            999 V2000
   26.9540   13.3560   31.6730 C   0  0  0  0  0  0
   27.7720   12.2340   32.0140 O   0  0  0  0  0  0
   27.8100   11.3520   30.9070 C   0  0  0  0  0  0
   29.0800   10.4880   30.9340 C   0  0  2  0  0  0
   30.2260   11.3780   30.9580 N   0  0  0  0  0  0
   31.5370   10.8760   30.9940 C   0  0  0  0  0  0
   32.6730   11.9030   31.0090 C   0  0  2  0  0  0
   33.6380   11.7600   29.9540 N   0  0  3  0  0  0
   33.4900   12.0200   28.3290 S   0  0  0  0  0  0
   32.1710   10.9600   27.7080 C   0  0  0  0  0  0
   32.0150   11.2020   26.1530 C   0  0  0  0  0  0
   31.0180   12.1550   25.7940 C   0  0  0  0  0  0
   30.7720   12.4540   24.4210 C   0  0  0  0  0  0
   31.5280   11.7920   23.4260 C   0  0  0  0  0  0
   32.5220   10.8440   23.7770 C   0  0  0  0  0  0
   32.7670   10.5470   25.1410 C   0  0  0  0  0  0
   33.0920   13.3950   28.2000 O   0  0  0  0  0  0
   34.8540   11.7180   27.8430 O   0  0  0  0  0  0
   33.5270   11.8780   32.2870 C   0  0  0  0  0  0
   32.6690   12.0990   33.3800 O   0  0  0  0  0  0
   31.7780    9.6830   31.0070 O   0  0  0  0  0  0
   29.0220    9.5980   29.7210 C   0  0  0  0  0  0
   29.2530   10.0540   28.6280 O   0  0  0  0  0  0
   28.6870    8.2860   29.9850 N   0  0  0  0  0  0
   28.5770    7.3270   28.9210 C   0  0  0  0  0  0
   29.8580    6.5740   28.6010 C   0  0  0  0  0  0
   29.9480    5.2030   28.9490 C   0  0  0  0  0  0
   31.1100    4.4580   28.6640 C   0  0  0  0  0  0
   32.2480    5.0480   28.0170 C   0  0  0  0  0  0
   32.1860    6.4360   27.6530 C   0  0  0  0  0  0
   30.9930    7.1780   27.9490 C   0  0  0  0  0  0
   33.3730    4.2280   27.7550 C   0  0  0  0  0  0
   33.3600    2.9200   28.0940 N   0  0  0  0  0  0
   34.5170    4.6290   27.1660 N   0  3  0  0  0  0
   26.4810   14.0440   32.9540 C   0  0  0  0  0  0
   25.1870   13.7490   33.4850 C   0  0  0  0  0  0
   24.7470   14.3920   34.6820 C   0  0  0  0  0  0
   25.5980   15.3270   35.3460 C   0  0  0  0  0  0
   26.8890   15.6210   34.8150 C   0  0  0  0  0  0
   27.3330   14.9820   33.6210 C   0  0  0  0  0  0
   27.5381   14.0652   31.0681 H   0  0  0  0  0  0
   26.0827   13.0127   31.0960 H   0  0  0  0  0  0
   26.9323   10.6895   30.9357 H   0  0  0  0  0  0
   27.7995   11.9342   29.9738 H   0  0  0  0  0  0
   29.2132    9.8556   31.8241 H   0  0  0  0  0  0
   30.0764   12.4677   30.9481 H   0  0  0  0  0  0
   32.1333   12.8473   30.8446 H   0  0  0  0  0  0
   34.6973   11.5902   30.1969 H   0  0  0  0  0  0
   32.4265    9.9071   27.8983 H   0  0  0  0  0  0
   31.2297   11.2073   28.2207 H   0  0  0  0  0  0
   30.4416   12.6570   26.5710 H   0  0  0  0  0  0
   30.0112   13.1832   24.1425 H   0  0  0  0  0  0
   31.3440   12.0136   22.3748 H   0  0  0  0  0  0
   33.0976   10.3438   22.9982 H   0  0  0  0  0  0
   33.5303    9.8180   25.4129 H   0  0  0  0  0  0
   34.0197   10.8989   32.3796 H   0  0  0  0  0  0
   34.2898   12.6687   32.2338 H   0  0  0  0  0  0
   33.0749   12.1213   34.4021 H   0  0  0  0  0  0
   28.5033    7.9774   31.0247 H   0  0  0  0  0  0
   27.8241    6.5701   29.1860 H   0  0  0  0  0  0
   28.2726    7.8388   27.9961 H   0  0  0  0  0  0
   29.1067    4.7179   29.4440 H   0  0  0  0  0  0
   31.1458    3.4048   28.9425 H   0  0  0  0  0  0
   33.0304    6.9180   27.1603 H   0  0  0  0  0  0
   30.9440    8.2311   27.6720 H   0  0  0  0  0  0
   32.4740    2.4869   28.5814 H   0  0  0  0  0  0
   34.2354    2.2883   27.8826 H   0  0  0  0  0  0
   34.6349    5.6757   26.8490 H   0  0  0  0  0  0
   24.5379   13.0353   32.9777 H   0  0  0  0  0  0
   23.7608   14.1689   35.0891 H   0  0  0  0  0  0
   25.2607   15.8166   36.2596 H   0  0  0  0  0  0
   27.5367   16.3353   35.3232 H   0  0  0  0  0  0
   28.3197   15.2069   33.2161 H   0  0  0  0  0  0
   35.3328    3.9096   27.0023 H   0  0  0  0  0  0
  1  2  1  0  0  0
  1 35  1  0  0  0
  1 41  1  0  0  0
  1 42  1  0  0  0
  2  3  1  0  0  0
  3  4  1  0  0  0
  3 43  1  0  0  0
  3 44  1  0  0  0
  4  5  1  0  0  0
  4 22  1  0  0  0
  4 45  1  0  0  0
  5  6  1  0  0  0
  5 46  1  0  0  0
  6  7  1  0  0  0
  6 21  2  0  0  0
  7  8  1  0  0  0
  7 19  1  0  0  0
  7 47  1  0  0  0
  8  9  1  0  0  0
  8 48  1  0  0  0
  9 10  1  0  0  0
  9 17  2  0  0  0
  9 18  2  0  0  0
 10 11  1  0  0  0
 10 49  1  0  0  0
 10 50  1  0  0  0
 11 12  2  0  0  0
 11 16  1  0  0  0
 12 13  1  0  0  0
 12 51  1  0  0  0
 13 14  2  0  0  0
 13 52  1  0  0  0
 14 15  1  0  0  0
 14 53  1  0  0  0
 15 16  2  0  0  0
 15 54  1  0  0  0
 16 55  1  0  0  0
 19 20  1  0  0  0
 19 56  1  0  0  0
 19 57  1  0  0  0
 20 58  1  0  0  0
 22 23  2  0  0  0
 22 24  1  0  0  0
 24 25  1  0  0  0
 24 59  1  0  0  0
 25 26  1  0  0  0
 25 60  1  0  0  0
 25 61  1  0  0  0
 26 27  2  0  0  0
 26 31  1  0  0  0
 27 28  1  0  0  0
 27 62  1  0  0  0
 28 29  2  0  0  0
 28 63  1  0  0  0
 29 30  1  0  0  0
 29 32  1  0  0  0
 30 31  2  0  0  0
 30 64  1  0  0  0
 31 65  1  0  0  0
 32 33  1  0  0  0
 32 34  2  0  0  0
 33 66  1  0  0  0
 33 67  1  0  0  0
 34 68  1  0  0  0
 34 74  1  0  0  0
 35 36  2  0  0  0
 35 40  1  0  0  0
 36 37  1  0  0  0
 36 69  1  0  0  0
 37 38  2  0  0  0
 37 70  1  0  0  0
 38 39  1  0  0  0
 38 71  1  0  0  0
 39 40  2  0  0  0
 39 72  1  0  0  0
 40 73  1  0  0  0
M  CHG  1  34   1
M  END
> <s_m_source_file>
../1vj9_ligand.sdf

> <i_m_source_file_index>
1

> <s_epik_input>
W0hdL049QyhbTkgyXSlcYyhbY0hdW2NIXTEpW2NIXVtjSF1jMVtDSDJdW05IXUMoPU8pW0NASF0oW0NIMl1PW0NIMl1jMltjSF1bY0hdW2NIXVtjSF1bY0hdMilbTkhdQyg9TylbQ0BASF0oW0NIMl1bT0hdKVtOSF1TKD1PKSg9TylbQ0gyXWMzW2NIXVtjSF1bY0hdW2NIXVtjSF0z

> <s_epik_cmdline>
J2VwaWtfYXBwJywgJy1pbWFlJywgJ2xpZ2FuZF9wcm8ubWFlJywgJy1vbWFlJywgJ2xpZ2FuZF9wcmVwLm1hZScsICctbXMnLCAnMScsICctcGgnLCAnNycsICctcGh0JywgJzAuNScsICctbnQn

> <r_lp_tautomer_probability>
1

> <r_epik_Ionization_Penalty>
  0.0004

> <r_epik_Ionization_Penalty_Charging>
  0.0002

> <r_epik_Ionization_Penalty_Neutral>
  0.0002

> <r_epik_State_Penalty>
 -0.0000

> <r_epik_Charging_Adjusted_Penalty>
0.000162947685306239

> <i_epik_Tot_Q>
1

> <i_epik_Tot_abs_Q>
1

> <s_epik_Chemistry_Notes>
This compound has an imine and may undergo hydrolysis.

$$$$
