1vja_ligand
                    3D
 Schrodinger Suite 2020-3.
 61 62  0  0  1  0            999 V2000
   26.6200   11.5010   30.3330 O   0  0  0  0  0  0
   27.6950   11.4140   31.2160 C   0  0  0  0  0  0
   28.9390   10.5140   31.0670 C   0  0  2  0  0  0
   30.0860   11.4000   31.0500 N   0  0  0  0  0  0
   31.4060   10.9170   30.9290 C   0  0  0  0  0  0
   32.5150   11.9670   30.9090 C   0  0  2  0  0  0
   33.5050   11.7890   29.8860 N   0  0  3  0  0  0
   33.4490   12.0880   28.2590 S   0  0  0  0  0  0
   32.0990   11.1390   27.5200 C   0  0  0  0  0  0
   32.1310   11.3430   26.0080 C   0  0  0  0  0  0
   31.8260   12.6110   25.3700 C   0  0  0  0  0  0
   31.8810   12.7340   23.9270 C   0  0  0  0  0  0
   32.2400   11.5820   23.1410 C   0  0  0  0  0  0
   32.5410   10.3240   23.7700 C   0  0  0  0  0  0
   32.4870   10.2030   25.2030 C   0  0  0  0  0  0
   33.1630   13.4880   28.1530 O   0  0  0  0  0  0
   34.8170   11.6920   27.8400 O   0  0  0  0  0  0
   33.3410   12.0460   32.1970 C   0  0  0  0  0  0
   32.4440   12.2230   33.2660 O   0  0  0  0  0  0
   31.6740    9.7320   30.8350 O   0  0  0  0  0  0
   28.8140    9.7060   29.7820 C   0  0  0  0  0  0
   28.9940   10.2470   28.7110 O   0  0  0  0  0  0
   28.5130    8.3620   29.9660 N   0  0  0  0  0  0
   28.3800    7.4570   28.8450 C   0  0  0  0  0  0
   29.6510    6.6940   28.4840 C   0  0  0  0  0  0
   29.7260    5.2930   28.7870 C   0  0  0  0  0  0
   30.8930    4.5330   28.4710 C   0  0  0  0  0  0
   32.0570    5.1440   27.8310 C   0  0  0  0  0  0
   32.0060    6.5630   27.5140 C   0  0  0  0  0  0
   30.8100    7.3170   27.8420 C   0  0  0  0  0  0
   33.1900    4.3320   27.5450 C   0  0  0  0  0  0
   33.1990    3.0170   27.8500 N   0  0  0  0  0  0
   34.3300    4.7580   26.9660 N   0  3  0  0  0  0
   25.7851   12.1839   30.5486 H   0  0  0  0  0  0
   28.1748   12.3996   31.3078 H   0  0  0  0  0  0
   27.3336   11.0888   32.2027 H   0  0  0  0  0  0
   29.0988    9.8100   31.8970 H   0  0  0  0  0  0
   29.9423   12.4874   31.1330 H   0  0  0  0  0  0
   31.9510   12.8836   30.6816 H   0  0  0  0  0  0
   34.5428   11.5493   30.1607 H   0  0  0  0  0  0
   32.2280   10.0726   27.7567 H   0  0  0  0  0  0
   31.1388   11.4909   27.9251 H   0  0  0  0  0  0
   31.5547   13.4736   25.9785 H   0  0  0  0  0  0
   31.6540   13.6843   23.4438 H   0  0  0  0  0  0
   32.2842   11.6645   22.0550 H   0  0  0  0  0  0
   32.8103    9.4613   23.1606 H   0  0  0  0  0  0
   32.7154    9.2493   25.6788 H   0  0  0  0  0  0
   33.9112   11.1140   32.3247 H   0  0  0  0  0  0
   34.0367   12.8958   32.1349 H   0  0  0  0  0  0
   32.8241   12.3058   34.2949 H   0  0  0  0  0  0
   28.3752    7.9905   30.9922 H   0  0  0  0  0  0
   27.6115    6.7033   29.0714 H   0  0  0  0  0  0
   28.0853    8.0235   27.9493 H   0  0  0  0  0  0
   28.8790    4.8015   29.2657 H   0  0  0  0  0  0
   30.9166    3.4705   28.7131 H   0  0  0  0  0  0
   32.8545    7.0532   27.0366 H   0  0  0  0  0  0
   30.7735    8.3798   27.6030 H   0  0  0  0  0  0
   32.3210    2.5570   28.3269 H   0  0  0  0  0  0
   34.0844    2.4055   27.6216 H   0  0  0  0  0  0
   34.4373    5.8129   26.6732 H   0  0  0  0  0  0
   35.1532    4.0508   26.7862 H   0  0  0  0  0  0
  1  2  1  0  0  0
  1 34  1  0  0  0
  2  3  1  0  0  0
  2 35  1  0  0  0
  2 36  1  0  0  0
  3  4  1  0  0  0
  3 21  1  0  0  0
  3 37  1  0  0  0
  4  5  1  0  0  0
  4 38  1  0  0  0
  5  6  1  0  0  0
  5 20  2  0  0  0
  6  7  1  0  0  0
  6 18  1  0  0  0
  6 39  1  0  0  0
  7  8  1  0  0  0
  7 40  1  0  0  0
  8  9  1  0  0  0
  8 16  2  0  0  0
  8 17  2  0  0  0
  9 10  1  0  0  0
  9 41  1  0  0  0
  9 42  1  0  0  0
 10 11  2  0  0  0
 10 15  1  0  0  0
 11 12  1  0  0  0
 11 43  1  0  0  0
 12 13  2  0  0  0
 12 44  1  0  0  0
 13 14  1  0  0  0
 13 45  1  0  0  0
 14 15  2  0  0  0
 14 46  1  0  0  0
 15 47  1  0  0  0
 18 19  1  0  0  0
 18 48  1  0  0  0
 18 49  1  0  0  0
 19 50  1  0  0  0
 21 22  2  0  0  0
 21 23  1  0  0  0
 23 24  1  0  0  0
 23 51  1  0  0  0
 24 25  1  0  0  0
 24 52  1  0  0  0
 24 53  1  0  0  0
 25 26  2  0  0  0
 25 30  1  0  0  0
 26 27  1  0  0  0
 26 54  1  0  0  0
 27 28  2  0  0  0
 27 55  1  0  0  0
 28 29  1  0  0  0
 28 31  1  0  0  0
 29 30  2  0  0  0
 29 56  1  0  0  0
 30 57  1  0  0  0
 31 32  1  0  0  0
 31 33  2  0  0  0
 32 58  1  0  0  0
 32 59  1  0  0  0
 33 60  1  0  0  0
 33 61  1  0  0  0
M  CHG  1  33   1
M  END
> <s_m_source_file>
../1vja_ligand.sdf

> <i_m_source_file_index>
1

> <s_epik_input>
W0hdL049QyhbTkgyXSlcYyhbY0hdW2NIXTEpW2NIXVtjSF1jMVtDSDJdW05IXUMoPU8pW0NASF0oW0NIMl1bT0hdKVtOSF1DKD1PKVtDQEBIXShbQ0gyXVtPSF0pW05IXVMoPU8pKD1PKVtDSDJdYzJbY0hdW2NIXVtjSF1bY0hdW2NIXTI=

> <s_epik_cmdline>
J2VwaWtfYXBwJywgJy1pbWFlJywgJ2xpZ2FuZF9wcm8ubWFlJywgJy1vbWFlJywgJ2xpZ2FuZF9wcmVwLm1hZScsICctbXMnLCAnMScsICctcGgnLCAnNycsICctcGh0JywgJzAuNScsICctbnQn

> <r_lp_tautomer_probability>
1

> <r_epik_Ionization_Penalty>
  0.0004

> <r_epik_Ionization_Penalty_Charging>
  0.0002

> <r_epik_Ionization_Penalty_Neutral>
  0.0002

> <r_epik_State_Penalty>
 -0.0000

> <r_epik_Charging_Adjusted_Penalty>
0.000162947685306239

> <i_epik_Tot_Q>
1

> <i_epik_Tot_abs_Q>
1

> <s_epik_Chemistry_Notes>
This compound has an imine and may undergo hydrolysis.

$$$$
