1vjb_ligand
                    3D
 Schrodinger Suite 2020-3.
 59 61  0  0  1  0            999 V2000
  -19.2580   54.3850  -10.0820 C   0  0  0  0  0  0
  -19.2290   55.2590  -11.3080 C   0  0  0  0  0  0
  -17.9430   56.0490  -11.4340 C   0  0  0  0  0  0
  -16.8070   55.1990  -11.9480 C   0  0  0  0  0  0
  -15.7970   54.7000  -11.0560 C   0  0  0  0  0  0
  -14.7380   53.8970  -11.5380 C   0  0  0  0  0  0
  -14.6490   53.5700  -12.8940 C   0  0  0  0  0  0
  -15.6180   54.0420  -13.7800 C   0  0  0  0  0  0
  -16.6870   54.8500  -13.3090 C   0  0  0  0  0  0
  -17.8490   57.4090  -11.1200 C   0  0  0  0  0  0
  -18.9540   58.2370  -10.4470 C   0  0  0  0  0  0
  -19.4370   59.4800  -11.0360 C   0  0  0  0  0  0
  -20.4430   60.2430  -10.3960 C   0  0  0  0  0  0
  -20.9850   59.7820   -9.1620 C   0  0  0  0  0  0
  -21.9500   60.5330   -8.5680 O   0  0  0  0  0  0
  -20.5270   58.5670   -8.5660 C   0  0  0  0  0  0
  -19.5250   57.8200   -9.2120 C   0  0  0  0  0  0
  -16.6580   58.2410  -11.4070 C   0  0  0  0  0  0
  -16.1900   58.4630  -12.7220 C   0  0  0  0  0  0
  -15.0890   59.2560  -12.9920 C   0  0  0  0  0  0
  -14.3990   59.8720  -11.9330 C   0  0  0  0  0  0
  -13.3010   60.6840  -12.1380 O   0  0  0  0  0  0
  -12.6210   61.3250  -11.0490 C   0  0  0  0  0  0
  -11.2720   61.7410  -11.5640 C   0  0  0  0  0  0
  -11.2860   62.9850  -12.2660 N   0  3  0  0  0  0
  -10.3620   63.9470  -11.6520 C   0  0  0  0  0  0
  -10.8830   62.7680  -13.6620 C   0  0  0  0  0  0
  -14.8430   59.6640  -10.5960 C   0  0  0  0  0  0
  -15.9390   58.8670  -10.3530 C   0  0  0  0  0  0
  -20.2116   53.8381  -10.0441 H   0  0  0  0  0  0
  -19.1584   55.0110   -9.1830 H   0  0  0  0  0  0
  -18.4252   53.6676  -10.1234 H   0  0  0  0  0  0
  -19.3286   54.6330  -12.2070 H   0  0  0  0  0  0
  -20.0618   55.9764  -11.2667 H   0  0  0  0  0  0
  -15.8480   54.9436   -9.9948 H   0  0  0  0  0  0
  -13.9823   53.5287  -10.8442 H   0  0  0  0  0  0
  -13.8286   52.9508  -13.2567 H   0  0  0  0  0  0
  -15.5544   53.7895  -14.8384 H   0  0  0  0  0  0
  -17.4334   55.2094  -14.0174 H   0  0  0  0  0  0
  -19.0183   59.8262  -11.9810 H   0  0  0  0  0  0
  -20.7985   61.1719  -10.8420 H   0  0  0  0  0  0
  -22.2903   61.4657   -9.0414 H   0  0  0  0  0  0
  -20.9490   58.2228   -7.6218 H   0  0  0  0  0  0
  -19.1759   56.8949   -8.7532 H   0  0  0  0  0  0
  -16.7153   57.9926  -13.5532 H   0  0  0  0  0  0
  -14.7582   59.4025  -14.0202 H   0  0  0  0  0  0
  -13.2001   62.2003  -10.7195 H   0  0  0  0  0  0
  -12.5186   60.6173  -10.2132 H   0  0  0  0  0  0
  -10.5745   61.8482  -10.7202 H   0  0  0  0  0  0
  -10.8929   60.9766  -12.2583 H   0  0  0  0  0  0
  -12.3153   63.3680  -12.2046 H   0  0  0  0  0  0
  -10.6533   64.1183  -10.6052 H   0  0  0  0  0  0
  -10.4022   64.8976  -12.2041 H   0  0  0  0  0  0
   -9.3384   63.5457  -11.6868 H   0  0  0  0  0  0
  -11.5682   62.0483  -14.1338 H   0  0  0  0  0  0
   -9.8577   62.3707  -13.6901 H   0  0  0  0  0  0
  -10.9214   63.7225  -14.2073 H   0  0  0  0  0  0
  -14.3159   60.1351   -9.7663 H   0  0  0  0  0  0
  -16.2641   58.7119   -9.3242 H   0  0  0  0  0  0
  1  2  1  0  0  0
  1 30  1  0  0  0
  1 31  1  0  0  0
  1 32  1  0  0  0
  2  3  1  0  0  0
  2 33  1  0  0  0
  2 34  1  0  0  0
  3  4  1  0  0  0
  3 10  2  0  0  0
  4  5  2  0  0  0
  4  9  1  0  0  0
  5  6  1  0  0  0
  5 35  1  0  0  0
  6  7  2  0  0  0
  6 36  1  0  0  0
  7  8  1  0  0  0
  7 37  1  0  0  0
  8  9  2  0  0  0
  8 38  1  0  0  0
  9 39  1  0  0  0
 10 11  1  0  0  0
 10 18  1  0  0  0
 11 12  2  0  0  0
 11 17  1  0  0  0
 12 13  1  0  0  0
 12 40  1  0  0  0
 13 14  2  0  0  0
 13 41  1  0  0  0
 14 15  1  0  0  0
 14 16  1  0  0  0
 15 42  1  0  0  0
 16 17  2  0  0  0
 16 43  1  0  0  0
 17 44  1  0  0  0
 18 19  2  0  0  0
 18 29  1  0  0  0
 19 20  1  0  0  0
 19 45  1  0  0  0
 20 21  2  0  0  0
 20 46  1  0  0  0
 21 22  1  0  0  0
 21 28  1  0  0  0
 22 23  1  0  0  0
 23 24  1  0  0  0
 23 47  1  0  0  0
 23 48  1  0  0  0
 24 25  1  0  0  0
 24 49  1  0  0  0
 24 50  1  0  0  0
 25 26  1  0  0  0
 25 27  1  0  0  0
 25 51  1  0  0  0
 26 52  1  0  0  0
 26 53  1  0  0  0
 26 54  1  0  0  0
 27 55  1  0  0  0
 27 56  1  0  0  0
 27 57  1  0  0  0
 28 29  2  0  0  0
 28 58  1  0  0  0
 29 59  1  0  0  0
M  CHG  1  25   1
M  END
> <s_m_source_file>
../1vjb_ligand.sdf

> <i_m_source_file_index>
1

> <s_epik_input>
W2NIXTFbY0hdW2NIXVtjSF1bY0hdYzFDKFxbQ0gyXVtDSDNdKT1DKFxjMltjSF1bY0hdYyhbT0hdKVtjSF1bY0hdMiljM1tjSF1bY0hdYyhbY0hdW2NIXTMpT1tDSDJdW0NIMl1bTkgrXShbQ0gzXSlbQ0gzXQ==

> <s_epik_cmdline>
J2VwaWtfYXBwJywgJy1pbWFlJywgJ2xpZ2FuZF9wcm8ubWFlJywgJy1vbWFlJywgJ2xpZ2FuZF9wcmVwLm1hZScsICctbXMnLCAnMScsICctcGgnLCAnNycsICctcGh0JywgJzAuNScsICctbnQn

> <r_epik_Ionization_Penalty>
  0.0251

> <r_epik_Ionization_Penalty_Charging>
  0.0248

> <r_epik_Ionization_Penalty_Neutral>
  0.0003

> <r_epik_State_Penalty>
  0.0202

> <r_epik_Charging_Adjusted_Penalty>
0.0449633694247609

> <i_epik_Tot_Q>
1

> <i_epik_Tot_abs_Q>
1

$$$$
