1vjc_ligand
                    3D
 Schrodinger Suite 2020-3.
 43 45  0  0  1  0            999 V2000
    8.8290   -0.7400   23.5190 P   0  0  0  0  0  0
   10.2840   -0.6010   23.8230 O   0  5  0  0  0  0
    8.3370   -2.1300   23.4440 O   0  0  0  0  0  0
    7.9700    0.2250   24.2740 O   0  5  0  0  0  0
    9.3940    0.8970   21.2100 P   0  0  1  0  0  0
   10.8330    0.7800   21.3730 O   0  5  0  0  0  0
    8.8570    0.9830   19.8930 O   0  0  0  0  0  0
    8.7190   -0.3170   21.9830 O   0  0  0  0  0  0
    9.3240    3.6380   22.4940 P   0  0  1  0  0  0
   10.6370    3.6520   23.1500 O   0  5  0  0  0  0
    9.1170    4.4860   21.3390 O   0  0  0  0  0  0
    8.9180    2.1590   22.2050 O   0  0  0  0  0  0
    8.3250    3.9390   23.5210 O   0  0  0  0  0  0
    6.9160    3.9860   23.2330 C   0  0  0  0  0  0
    6.1440    3.7760   24.4910 C   0  0  1  0  0  0
    6.3980    4.9330   25.3270 O   0  0  0  0  0  0
    4.6490    3.7630   24.3000 C   0  0  1  0  0  0
    4.1560    2.4350   24.5440 O   0  0  0  0  0  0
    4.1160    4.7940   25.2710 C   0  0  1  0  0  0
    3.0380    4.3380   26.0780 O   0  0  0  0  0  0
    5.2980    5.0750   26.2160 C   0  0  2  0  0  0
    5.2580    6.4560   26.7800 N   0  0  0  0  0  0
    5.0370    7.6490   26.1280 C   0  0  0  0  0  0
    5.0470    8.7000   26.8800 N   0  0  0  0  0  0
    5.2970    8.1720   28.1320 C   0  0  0  0  0  0
    5.4310    8.7700   29.4170 C   0  0  0  0  0  0
    5.3130   10.0860   29.5700 N   0  0  0  0  0  0
    5.6810    7.9690   30.4910 N   0  0  0  0  0  0
    5.7940    6.6440   30.3180 C   0  0  0  0  0  0
    5.6840    5.9510   29.1630 N   0  0  0  0  0  0
    5.4310    6.7970   28.0880 C   0  0  0  0  0  0
    6.6615    4.9674   22.8063 H   0  0  0  0  0  0
    6.6627    3.1955   22.5112 H   0  0  0  0  0  0
    6.4750    2.8204   24.9236 H   0  0  0  0  0  0
    4.3071    3.9700   23.2752 H   0  0  0  0  0  0
    4.4759    1.6026   23.9000 H   0  0  0  0  0  0
    3.6702    5.6381   24.7244 H   0  0  0  0  0  0
    2.0768    4.0731   25.6133 H   0  0  0  0  0  0
    5.3821    4.4145   27.0916 H   0  0  0  0  0  0
    4.8656    7.7029   25.0529 H   0  0  0  0  0  0
    5.1112   10.7252   28.6978 H   0  0  0  0  0  0
    5.4172   10.5351   30.5687 H   0  0  0  0  0  0
    5.9985    6.0574   31.2136 H   0  0  0  0  0  0
  1  2  1  0  0  0
  1  3  2  0  0  0
  1  4  1  0  0  0
  1  8  1  0  0  0
  5  6  1  0  0  0
  5  7  2  0  0  0
  5  8  1  0  0  0
  5 12  1  0  0  0
  9 10  1  0  0  0
  9 11  2  0  0  0
  9 12  1  0  0  0
  9 13  1  0  0  0
 13 14  1  0  0  0
 14 15  1  0  0  0
 14 32  1  0  0  0
 14 33  1  0  0  0
 15 16  1  0  0  0
 15 17  1  0  0  0
 15 34  1  0  0  0
 16 21  1  0  0  0
 17 18  1  0  0  0
 17 19  1  0  0  0
 17 35  1  0  0  0
 18 36  1  0  0  0
 19 20  1  0  0  0
 19 21  1  0  0  0
 19 37  1  0  0  0
 20 38  1  0  0  0
 21 22  1  0  0  0
 21 39  1  0  0  0
 22 23  1  0  0  0
 22 31  1  0  0  0
 23 24  2  0  0  0
 23 40  1  0  0  0
 24 25  1  0  0  0
 25 26  2  0  0  0
 25 31  1  0  0  0
 26 27  1  0  0  0
 26 28  1  0  0  0
 27 41  1  0  0  0
 27 42  1  0  0  0
 28 29  2  0  0  0
 29 30  1  0  0  0
 29 43  1  0  0  0
 30 31  2  0  0  0
M  CHG  4   2  -1   4  -1   6  -1  10  -1
M  END
> <s_m_source_file>
../1vjc_ligand.sdf

> <i_m_source_file_index>
1

> <s_epik_input>
W09IXVAoPU8pKFtPSF0pT1tQQF0oPU8pKFtPSF0pT1tQQF0oPU8pKFtPSF0pT1tDSDJdW0NASF0xT1tDQEhdKFtDQEhdKFtPSF0pW0NAQEhdMVtPSF0pbihbY0hdbjIpYyhjMjMpbltjSF1uYzNbTkgyXQ==

> <s_epik_cmdline>
J2VwaWtfYXBwJywgJy1pbWFlJywgJ2xpZ2FuZF9wcm8ubWFlJywgJy1vbWFlJywgJ2xpZ2FuZF9wcmVwLm1hZScsICctbXMnLCAnMScsICctcGgnLCAnNycsICctcGh0JywgJzAuNScsICctbnQn

> <r_lp_tautomer_probability>
0.999997216410988

> <r_epik_Ionization_Penalty>
  0.0818

> <r_epik_Ionization_Penalty_Charging>
  0.0813

> <r_epik_Ionization_Penalty_Neutral>
  0.0004

> <r_epik_State_Penalty>
  0.0708

> <r_epik_Charging_Adjusted_Penalty>
0.152157994418768

> <i_epik_Tot_Q>
-4

> <i_epik_Tot_abs_Q>
4

> <s_epik_Chemistry_Notes>
This compound contains an acetal/aminal-like group ( X-CH(R)-Y where X, Y are N, S, or O) that may be acid/base labile, releasing an aldehyde.

$$$$
