1vjd_ligand
                    3D
 Schrodinger Suite 2020-3.
 43 45  0  0  1  0            999 V2000
    7.2830    4.1830    7.4010 P   0  0  0  0  0  0
    8.3390    4.6840    6.4980 O   0  5  0  0  0  0
    7.3640    2.7460    7.7120 O   0  0  0  0  0  0
    7.0210    5.0980    8.5660 O   0  5  0  0  0  0
    5.6130    4.9560    5.0640 P   0  0  2  0  0  0
    6.8010    5.7980    4.7040 O   0  5  0  0  0  0
    4.2950    5.6100    5.1440 O   0  0  0  0  0  0
    5.9420    4.2060    6.4960 O   0  0  0  0  0  0
    5.2320    3.4470    2.5720 P   0  0  1  0  0  0
    5.4370    2.0140    2.3280 O   0  0  0  0  0  0
    3.9180    4.0500    2.2160 O   0  5  0  0  0  0
    5.6430    3.7440    4.0820 O   0  0  0  0  0  0
    6.3690    4.2240    1.8300 O   0  0  0  0  0  0
    7.7580    4.1050    2.1670 C   0  0  0  0  0  0
    8.5460    3.9370    0.9050 C   0  0  1  0  0  0
    8.3460    5.1360    0.1280 O   0  0  0  0  0  0
   10.0370    3.8370    1.0960 C   0  0  1  0  0  0
   10.4680    2.4940    0.8260 O   0  0  0  0  0  0
   10.6100    4.8490    0.1200 C   0  0  1  0  0  0
   11.6160    4.3220   -0.7240 O   0  0  0  0  0  0
    9.4170    5.2240   -0.7900 C   0  0  2  0  0  0
    9.4830    6.6130   -1.3410 N   0  0  0  0  0  0
    9.6880    7.8040   -0.6820 C   0  0  0  0  0  0
    9.6970    8.8620   -1.4420 N   0  0  0  0  0  0
    9.4830    8.3270   -2.7060 C   0  0  0  0  0  0
    9.3770    8.9150   -3.9990 C   0  0  0  0  0  0
    9.4930   10.2250   -4.1670 N   0  0  0  0  0  0
    9.1550    8.1100   -5.0750 N   0  0  0  0  0  0
    9.0400    6.7870   -4.8980 C   0  0  0  0  0  0
    9.1200    6.1010   -3.7330 N   0  0  0  0  0  0
    9.3440    6.9530   -2.6580 C   0  0  0  0  0  0
    8.0864    5.0128    2.6943 H   0  0  0  0  0  0
    7.9038    3.2301    2.8176 H   0  0  0  0  0  0
    8.1824    3.0211    0.4163 H   0  0  0  0  0  0
   10.3860    4.0026    2.1259 H   0  0  0  0  0  0
   10.1219    1.6667    1.4631 H   0  0  0  0  0  0
   11.1348    5.6527    0.6572 H   0  0  0  0  0  0
   12.5708    3.9826   -0.2961 H   0  0  0  0  0  0
    9.2868    4.5828   -1.6743 H   0  0  0  0  0  0
    9.8323    7.8579    0.3971 H   0  0  0  0  0  0
    9.6723   10.8770   -3.2994 H   0  0  0  0  0  0
    9.4099   10.6599   -5.1740 H   0  0  0  0  0  0
    8.8614    6.1943   -5.7952 H   0  0  0  0  0  0
  1  2  1  0  0  0
  1  3  2  0  0  0
  1  4  1  0  0  0
  1  8  1  0  0  0
  5  6  1  0  0  0
  5  7  2  0  0  0
  5  8  1  0  0  0
  5 12  1  0  0  0
  9 10  2  0  0  0
  9 11  1  0  0  0
  9 12  1  0  0  0
  9 13  1  0  0  0
 13 14  1  0  0  0
 14 15  1  0  0  0
 14 32  1  0  0  0
 14 33  1  0  0  0
 15 16  1  0  0  0
 15 17  1  0  0  0
 15 34  1  0  0  0
 16 21  1  0  0  0
 17 18  1  0  0  0
 17 19  1  0  0  0
 17 35  1  0  0  0
 18 36  1  0  0  0
 19 20  1  0  0  0
 19 21  1  0  0  0
 19 37  1  0  0  0
 20 38  1  0  0  0
 21 22  1  0  0  0
 21 39  1  0  0  0
 22 23  1  0  0  0
 22 31  1  0  0  0
 23 24  2  0  0  0
 23 40  1  0  0  0
 24 25  1  0  0  0
 25 26  2  0  0  0
 25 31  1  0  0  0
 26 27  1  0  0  0
 26 28  1  0  0  0
 27 41  1  0  0  0
 27 42  1  0  0  0
 28 29  2  0  0  0
 29 30  1  0  0  0
 29 43  1  0  0  0
 30 31  2  0  0  0
M  CHG  4   2  -1   4  -1   6  -1  11  -1
M  END
> <s_m_source_file>
../1vjd_ligand.sdf

> <i_m_source_file_index>
1

> <s_epik_input>
W09IXVAoPU8pKFtPSF0pT1tQQEBdKD1PKShbT0hdKU9bUEBAXSg9TykoW09IXSlPW0NIMl1bQ0BIXTFPW0NASF0oW0NASF0oW09IXSlbQ0BASF0xW09IXSluKFtjSF1uMiljKGMyMyluW2NIXW5jM1tOSDJd

> <s_epik_cmdline>
J2VwaWtfYXBwJywgJy1pbWFlJywgJ2xpZ2FuZF9wcm8ubWFlJywgJy1vbWFlJywgJ2xpZ2FuZF9wcmVwLm1hZScsICctbXMnLCAnMScsICctcGgnLCAnNycsICctcGh0JywgJzAuNScsICctbnQn

> <r_lp_tautomer_probability>
0.999997216410988

> <r_epik_Ionization_Penalty>
  0.0818

> <r_epik_Ionization_Penalty_Charging>
  0.0813

> <r_epik_Ionization_Penalty_Neutral>
  0.0004

> <r_epik_State_Penalty>
  0.0708

> <r_epik_Charging_Adjusted_Penalty>
0.152157994418768

> <i_epik_Tot_Q>
-4

> <i_epik_Tot_abs_Q>
4

> <s_epik_Chemistry_Notes>
This compound contains an acetal/aminal-like group ( X-CH(R)-Y where X, Y are N, S, or O) that may be acid/base labile, releasing an aldehyde.

$$$$
