1vjy_ligand
                    3D
 Schrodinger Suite 2020-3.
 35 38  0  0  1  0            999 V2000
   10.4350   64.4240    4.9820 C   0  0  0  0  0  0
   11.8830   64.6150    4.6530 C   0  0  0  0  0  0
   12.4630   63.9310    3.5640 C   0  0  0  0  0  0
   13.8400   64.1450    3.2930 C   0  0  0  0  0  0
   14.6020   65.0260    4.1070 C   0  0  0  0  0  0
   13.9440   65.6800    5.1860 C   0  0  0  0  0  0
   12.6020   65.4750    5.4500 N   0  0  0  0  0  0
   14.6390   66.6150    6.0950 C   0  0  0  0  0  0
   14.4190   66.5460    7.4360 N   0  0  0  0  0  0
   15.1840   67.5170    7.9720 N   0  3  0  0  0  0
   15.8960   68.2180    7.0370 C   0  0  0  0  0  0
   15.5820   67.6780    5.7960 C   0  0  0  0  0  0
   16.1650   68.1850    4.5400 C   0  0  0  0  0  0
   15.3930   68.3920    3.3680 C   0  0  0  0  0  0
   16.0420   68.8870    2.2080 C   0  0  0  0  0  0
   17.4170   69.1720    2.2040 C   0  0  0  0  0  0
   18.0320   69.6550    1.0710 N   0  0  0  0  0  0
   19.3920   69.9150    1.1360 C   0  0  0  0  0  0
   20.1620   69.7100    2.2950 C   0  0  0  0  0  0
   19.4980   69.2120    3.4510 C   0  0  0  0  0  0
   18.1180   68.9310    3.4440 C   0  0  0  0  0  0
   17.5110   68.4510    4.5760 N   0  0  0  0  0  0
    9.9873   63.7159    4.2691 H   0  0  0  0  0  0
    9.9134   65.3902    4.9157 H   0  0  0  0  0  0
   10.3404   64.0256    6.0029 H   0  0  0  0  0  0
   11.8696   63.2561    2.9471 H   0  0  0  0  0  0
   14.3148   63.6314    2.4570 H   0  0  0  0  0  0
   15.6606   65.1960    3.9104 H   0  0  0  0  0  0
   16.6049   69.0560    7.1087 H   0  0  0  0  0  0
   14.3248   68.1755    3.3591 H   0  0  0  0  0  0
   15.4610   69.0497    1.3002 H   0  0  0  0  0  0
   19.8894   70.2973    0.2446 H   0  0  0  0  0  0
   21.2305   69.9251    2.3074 H   0  0  0  0  0  0
   20.0708   69.0441    4.3630 H   0  0  0  0  0  0
   15.1883   67.6759    9.0604 H   0  0  0  0  0  0
  1  2  1  0  0  0
  1 23  1  0  0  0
  1 24  1  0  0  0
  1 25  1  0  0  0
  2  3  2  0  0  0
  2  7  1  0  0  0
  3  4  1  0  0  0
  3 26  1  0  0  0
  4  5  2  0  0  0
  4 27  1  0  0  0
  5  6  1  0  0  0
  5 28  1  0  0  0
  6  7  2  0  0  0
  6  8  1  0  0  0
  8  9  2  0  0  0
  8 12  1  0  0  0
  9 10  1  0  0  0
 10 11  1  0  0  0
 10 35  1  0  0  0
 11 12  2  0  0  0
 11 29  1  0  0  0
 12 13  1  0  0  0
 13 14  2  0  0  0
 13 22  1  0  0  0
 14 15  1  0  0  0
 14 30  1  0  0  0
 15 16  2  0  0  0
 15 31  1  0  0  0
 16 17  1  0  0  0
 16 21  1  0  0  0
 17 18  2  0  0  0
 18 19  1  0  0  0
 18 32  1  0  0  0
 19 20  2  0  0  0
 19 33  1  0  0  0
 20 21  1  0  0  0
 20 34  1  0  0  0
 21 22  2  0  0  0
M  CHG  1  10   1
M  END
> <s_m_source_file>
../1vjy_ligand.sdf

> <i_m_source_file_index>
1

> <s_epik_input>
W0NIM11jMVtjSF1bY0hdW2NIXWMobjEpLWMybltuSF1bY0hdYzItYyhbY0hdW2NIXTMpbmMoYzM0KVtjSF1bY0hdW2NIXW40

> <s_epik_cmdline>
J2VwaWtfYXBwJywgJy1pbWFlJywgJ2xpZ2FuZF9wcm8ubWFlJywgJy1vbWFlJywgJ2xpZ2FuZF9wcmVwLm1hZScsICctbXMnLCAnMScsICctcGgnLCAnNycsICctcGh0JywgJzAuNScsICctbnQn

> <r_lp_tautomer_probability>
1

> <r_epik_Ionization_Penalty>
  0.0155

> <r_epik_Ionization_Penalty_Charging>
  0.0000

> <r_epik_Ionization_Penalty_Neutral>
  0.0155

> <r_epik_State_Penalty>
 -0.0000

> <r_epik_Charging_Adjusted_Penalty>
0

> <i_epik_Tot_Q>
1

> <i_epik_Tot_abs_Q>
1

> <s_epik_Chemistry_Notes>
This compound has an imine and may undergo hydrolysis.

$$$$
