1vkj_ligand
                    3D
 Schrodinger Suite 2020-3.
 38 40  0  0  1  0            999 V2000
   18.9850   85.5140   28.6730 P   0  0  0  0  0  0
   19.0000   86.0600   30.0970 O   0  5  0  0  0  0
   19.6970   84.1740   28.6080 O   0  5  0  0  0  0
   17.6240   85.4170   28.0210 O   0  0  0  0  0  0
   20.8180   88.6690   22.5970 P   0  0  0  0  0  0
   22.1350   89.1370   21.9970 O   0  5  0  0  0  0
   19.7360   89.7240   22.4470 O   0  0  0  0  0  0
   20.3500   87.3010   22.1140 O   0  5  0  0  0  0
   21.1260   88.5330   24.2000 O   0  0  0  0  0  0
   20.0680   88.1380   25.0920 C   0  0  0  0  0  0
   20.4570   88.4020   26.5140 C   0  0  1  0  0  0
   20.4640   89.8180   26.7630 O   0  0  0  0  0  0
   19.5210   87.8500   27.5760 C   0  0  1  0  0  0
   19.9300   86.5220   27.8410 O   0  0  0  0  0  0
   19.7730   88.7740   28.7720 C   0  0  1  0  0  0
   20.6440   88.1730   29.6860 O   0  0  0  0  0  0
   20.4720   89.9970   28.1510 C   0  0  2  0  0  0
   19.8770   91.3010   28.4570 N   0  0  0  0  0  0
   20.5720   92.4700   28.6470 C   0  0  0  0  0  0
   19.8140   93.5010   28.9460 N   0  0  0  0  0  0
   18.5370   92.9750   28.9510 C   0  0  0  0  0  0
   17.2990   93.5530   29.2310 C   0  0  0  0  0  0
   17.1690   94.8130   29.6470 N   0  0  0  0  0  0
   16.1910   92.7810   29.0990 N   0  0  0  0  0  0
   16.3560   91.4960   28.7640 C   0  0  0  0  0  0
   17.4910   90.8140   28.5450 N   0  0  0  0  0  0
   18.5550   91.6260   28.6360 C   0  0  0  0  0  0
   19.1582   88.7101   24.8577 H   0  0  0  0  0  0
   19.8671   87.0635   24.9695 H   0  0  0  0  0  0
   21.4552   87.9476   26.5981 H   0  0  0  0  0  0
   18.4581   87.7515   27.3104 H   0  0  0  0  0  0
   18.8813   88.9783   29.3829 H   0  0  0  0  0  0
   20.3276   87.2766   30.2394 H   0  0  0  0  0  0
   21.5063   90.0749   28.5172 H   0  0  0  0  0  0
   21.6563   92.5368   28.5577 H   0  0  0  0  0  0
   18.0588   95.4500   29.7584 H   0  0  0  0  0  0
   16.1719   95.2156   29.8788 H   0  0  0  0  0  0
   15.4368   90.9207   28.6531 H   0  0  0  0  0  0
  1  2  1  0  0  0
  1  3  1  0  0  0
  1  4  2  0  0  0
  1 14  1  0  0  0
  5  6  1  0  0  0
  5  7  2  0  0  0
  5  8  1  0  0  0
  5  9  1  0  0  0
  9 10  1  0  0  0
 10 11  1  0  0  0
 10 28  1  0  0  0
 10 29  1  0  0  0
 11 12  1  0  0  0
 11 13  1  0  0  0
 11 30  1  0  0  0
 12 17  1  0  0  0
 13 14  1  0  0  0
 13 15  1  0  0  0
 13 31  1  0  0  0
 15 16  1  0  0  0
 15 17  1  0  0  0
 15 32  1  0  0  0
 16 33  1  0  0  0
 17 18  1  0  0  0
 17 34  1  0  0  0
 18 19  1  0  0  0
 18 27  1  0  0  0
 19 20  2  0  0  0
 19 35  1  0  0  0
 20 21  1  0  0  0
 21 22  2  0  0  0
 21 27  1  0  0  0
 22 23  1  0  0  0
 22 24  1  0  0  0
 23 36  1  0  0  0
 23 37  1  0  0  0
 24 25  2  0  0  0
 25 26  1  0  0  0
 25 38  1  0  0  0
 26 27  2  0  0  0
M  CHG  4   2  -1   3  -1   6  -1   8  -1
M  END
> <s_m_source_file>
../1vkj_ligand.sdf

> <i_m_source_file_index>
1

> <s_epik_input>
W09IXVAoPU8pKFtPSF0pT1tDSDJdW0NASF0xT1tDQEhdKFtDQEhdKFtPSF0pW0NAQEhdMU9QKD1PKShbT0hdKVtPSF0pbihbY0hdbjIpYyhjMjMpbltjSF1uYzNbTkgyXQ==

> <s_epik_cmdline>
J2VwaWtfYXBwJywgJy1pbWFlJywgJ2xpZ2FuZF9wcm8ubWFlJywgJy1vbWFlJywgJ2xpZ2FuZF9wcmVwLm1hZScsICctbXMnLCAnMScsICctcGgnLCAnNycsICctcGh0JywgJzAuNScsICctbnQn

> <r_lp_tautomer_probability>
1

> <r_epik_Ionization_Penalty>
  0.1805

> <r_epik_Ionization_Penalty_Charging>
  0.1800

> <r_epik_Ionization_Penalty_Neutral>
  0.0005

> <r_epik_State_Penalty>
 -0.0000

> <r_epik_Charging_Adjusted_Penalty>
0.180046212178254

> <i_epik_Tot_Q>
-4

> <i_epik_Tot_abs_Q>
4

> <s_epik_Chemistry_Notes>
This compound contains an acetal/aminal-like group ( X-CH(R)-Y where X, Y are N, S, or O) that may be acid/base labile, releasing an aldehyde.

$$$$
