1vot_ligand
                    3D
 Schrodinger Suite 2020-3.
 37 39  0  0  1  0            999 V2000
    1.0960   69.1690   60.6670 C   0  0  0  0  0  0
    0.5910   69.5470   59.5810 O   0  0  0  0  0  0
    2.4300   68.8470   60.7360 N   0  0  0  0  0  0
    0.3550   69.0160   61.8850 C   0  0  0  0  0  0
    0.9710   68.6140   63.0250 C   0  0  0  0  0  0
    2.3680   68.3330   63.0880 C   0  0  0  0  0  0
    3.0880   68.4370   61.8980 C   0  0  0  0  0  0
    4.5590   68.2360   61.7940 C   0  0  0  0  0  0
    5.1250   67.5770   63.0860 C   0  0  2  0  0  0
    4.8110   66.0980   63.1810 C   0  0  0  0  0  0
    6.4780   69.8190   64.7220 C   0  0  0  0  0  0
    5.0720   69.3510   64.8500 C   0  0  0  0  0  0
    4.5400   68.3110   64.2660 C   0  0  0  0  0  0
    3.0810   67.9710   64.4350 C   0  0  1  0  0  0
    2.4610   68.7050   65.5570 N   0  3  0  0  0  0
    2.9410   66.4850   64.7410 C   0  0  0  0  0  0
    3.8190   65.6040   63.9290 C   0  0  0  0  0  0
    3.5550   64.1250   64.1060 C   0  0  0  0  0  0
    3.0569   68.9038   59.8339 H   0  0  0  0  0  0
   -0.7147   69.2249   61.8951 H   0  0  0  0  0  0
    0.3739   68.5011   63.9299 H   0  0  0  0  0  0
    4.7800   67.5811   60.9382 H   0  0  0  0  0  0
    5.0526   69.2083   61.6487 H   0  0  0  0  0  0
    6.2230   67.6415   63.0987 H   0  0  0  0  0  0
    5.4477   65.4195   62.5942 H   0  0  0  0  0  0
    6.6214   70.7210   65.3350 H   0  0  0  0  0  0
    6.6919   70.0536   63.6688 H   0  0  0  0  0  0
    7.1604   69.0285   65.0675 H   0  0  0  0  0  0
    4.4623   69.9800   65.5153 H   0  0  0  0  0  0
    2.5404   69.7871   65.3757 H   0  0  0  0  0  0
    2.9802   68.4509   66.4929 H   0  0  0  0  0  0
    1.4007   68.4236   65.6379 H   0  0  0  0  0  0
    3.1925   66.3027   65.7962 H   0  0  0  0  0  0
    1.9051   66.1675   64.5509 H   0  0  0  0  0  0
    4.2461   63.5507   63.4715 H   0  0  0  0  0  0
    2.5181   63.9003   63.8157 H   0  0  0  0  0  0
    3.7089   63.8486   65.1595 H   0  0  0  0  0  0
  1  4  1  0  0  0
  1  3  1  0  0  0
  1  2  2  0  0  0
  3  7  1  0  0  0
  3 19  1  0  0  0
  4  5  2  0  0  0
  4 20  1  0  0  0
  5  6  1  0  0  0
  5 21  1  0  0  0
  6  7  2  0  0  0
  6 14  1  0  0  0
  7  8  1  0  0  0
  8  9  1  0  0  0
  8 22  1  0  0  0
  8 23  1  0  0  0
  9 13  1  0  0  0
  9 10  1  0  0  0
  9 24  1  0  0  0
 10 17  2  0  0  0
 10 25  1  0  0  0
 11 12  1  0  0  0
 11 26  1  0  0  0
 11 27  1  0  0  0
 11 28  1  0  0  0
 12 13  2  0  0  0
 12 29  1  0  0  0
 13 14  1  0  0  0
 14 16  1  0  0  0
 14 15  1  0  0  0
 15 30  1  0  0  0
 15 31  1  0  0  0
 15 32  1  0  0  0
 16 17  1  0  0  0
 16 33  1  0  0  0
 16 34  1  0  0  0
 17 18  1  0  0  0
 18 35  1  0  0  0
 18 36  1  0  0  0
 18 37  1  0  0  0
M  CHG  1  15   1
M  END
> <s_m_source_file>
../1vot_ligand.sdf

> <i_m_source_file_index>
1

> <s_epik_input>
W2NIXTFbY0hdYyg9TylbbkhdYyhjMVtDQF0yM1tOSDMrXSlbQ0gyXVtDQEhdKFtDSF09QyhbQ0gyXTMpW0NIM10pL0MyPVtDSF1cW0NIM10=

> <s_epik_cmdline>
J2VwaWtfYXBwJywgJy1pbWFlJywgJ2xpZ2FuZF9wcm8ubWFlJywgJy1vbWFlJywgJ2xpZ2FuZF9wcmVwLm1hZScsICctbXMnLCAnMScsICctcGgnLCAnNycsICctcGh0JywgJzAuNScsICctbnQn

> <r_lp_tautomer_probability>
0.999

> <r_epik_Ionization_Penalty>
  0.1074

> <r_epik_Ionization_Penalty_Charging>
  0.1074

> <r_epik_Ionization_Penalty_Neutral>
  0.0000

> <r_epik_State_Penalty>
  0.0972

> <r_epik_Charging_Adjusted_Penalty>
0.20462481665009

> <i_epik_Tot_Q>
1

> <i_epik_Tot_abs_Q>
1

$$$$
