1vsn_ligand
                    3D
 Schrodinger Suite 2020-3.
 60 61  0  0  1  0            999 V2000
   -6.1900   24.6940    7.2220 C   0  0  0  0  0  0
   -3.9650   25.6090    6.5830 C   0  0  0  0  0  0
   -4.9350   24.5680    6.5520 C   0  0  0  0  0  0
   -4.5770   23.3670    5.8320 C   0  0  0  0  0  0
   -3.3280   23.2740    5.2140 C   0  0  0  0  0  0
   -2.6920   25.4990    5.9580 C   0  0  0  0  0  0
   -2.3760   24.3380    5.2790 C   0  0  0  0  0  0
   -1.0180   24.2380    4.6400 C   0  0  1  0  0  0
   -0.9860   24.9190    3.2150 C   0  0  0  0  0  0
   -2.0390   24.5580    2.4420 F   0  0  0  0  0  0
   -1.0050   26.2760    3.2870 F   0  0  0  0  0  0
    0.1240   24.5930    2.5000 F   0  0  0  0  0  0
    1.6450   21.2740    5.3060 N   0  0  0  0  0  0
    1.5660   19.8650    5.6750 C   0  0  0  0  0  0
    0.0270   24.4460    5.4490 N   0  0  1  0  0  0
    1.2480   23.6280    5.4390 C   0  0  1  0  0  0
    2.3600   24.3240    6.1560 C   0  0  0  0  0  0
    3.1980   25.5110    5.6400 C   0  0  0  0  0  0
    2.6860   26.1420    4.3520 C   0  0  0  0  0  0
    3.2440   26.5420    6.7290 C   0  0  0  0  0  0
    1.0670   22.2530    5.9860 C   0  0  0  0  0  0
    0.4220   22.0650    7.0060 O   0  0  0  0  0  0
   -7.3950   24.2250    6.6140 C   0  0  0  0  0  0
   -8.6080   24.3170    7.2770 C   0  0  0  0  0  0
   -8.6540   24.8740    8.5690 C   0  0  0  0  0  0
   -7.4920   25.3490    9.1910 C   0  0  0  0  0  0
   -6.2700   25.2610    8.5310 C   0  0  0  0  0  0
  -10.1260   24.7790    9.4760 S   0  0  0  0  0  0
   -9.8050   23.5450   10.5960 N   0  0  0  0  0  0
  -10.3390   26.0180   10.1400 O   0  0  0  0  0  0
  -11.1780   24.3560    8.5750 O   0  0  0  0  0  0
    2.6990   19.4010    6.5420 C   0  0  0  0  0  0
    2.8200   18.1450    6.8060 N   0  0  0  0  0  0
   -4.2085   26.5319    7.1093 H   0  0  0  0  0  0
   -5.2799   22.5361    5.7715 H   0  0  0  0  0  0
   -3.0725   22.3660    4.6677 H   0  0  0  0  0  0
   -1.9760   26.3190    6.0140 H   0  0  0  0  0  0
   -0.7174   23.1801    4.6154 H   0  0  0  0  0  0
    2.2115   21.5779    4.4134 H   0  0  0  0  0  0
    0.7764   19.1593    5.3774 H   0  0  0  0  0  0
    0.4299   25.4547    5.2755 H   0  0  0  0  0  0
    1.4908   23.5116    4.3725 H   0  0  0  0  0  0
    1.9800   24.7500    7.0963 H   0  0  0  0  0  0
    3.1612   23.6035    6.3773 H   0  0  0  0  0  0
    4.2056   25.1440    5.3951 H   0  0  0  0  0  0
    2.6548   25.3812    3.5582 H   0  0  0  0  0  0
    3.3588   26.9585    4.0511 H   0  0  0  0  0  0
    1.6746   26.5420    4.5165 H   0  0  0  0  0  0
    3.6144   26.0799    7.6560 H   0  0  0  0  0  0
    2.2335   26.9427    6.8974 H   0  0  0  0  0  0
    3.9177   27.3592    6.4320 H   0  0  0  0  0  0
   -7.3594   23.7892    5.6156 H   0  0  0  0  0  0
   -9.5214   23.9602    6.8010 H   0  0  0  0  0  0
   -7.5449   25.7859   10.1882 H   0  0  0  0  0  0
   -5.3659   25.6279    9.0170 H   0  0  0  0  0  0
  -10.6857   23.3940   11.2376 H   0  0  0  0  0  0
   -8.9430   23.8290   11.2175 H   0  0  0  0  0  0
    3.4168   20.1301    6.9459 H   0  0  0  0  0  0
    2.0963   17.4247    6.3967 H   0  0  0  0  0  0
    3.6469   17.7935    7.4406 H   0  0  0  0  0  0
  1  3  1  0  0  0
  1 23  2  0  0  0
  1 27  1  0  0  0
  2  3  2  0  0  0
  2  6  1  0  0  0
  2 34  1  0  0  0
  3  4  1  0  0  0
  4  5  2  0  0  0
  4 35  1  0  0  0
  5  7  1  0  0  0
  5 36  1  0  0  0
  6  7  2  0  0  0
  6 37  1  0  0  0
  7  8  1  0  0  0
  8  9  1  0  0  0
  8 15  1  0  0  0
  8 38  1  0  0  0
  9 10  1  0  0  0
  9 11  1  0  0  0
  9 12  1  0  0  0
 13 14  1  0  0  0
 13 21  1  0  0  0
 13 39  1  0  0  0
 14 32  2  0  0  0
 14 40  1  0  0  0
 15 16  1  0  0  0
 15 41  1  0  0  0
 16 17  1  0  0  0
 16 21  1  0  0  0
 16 42  1  0  0  0
 17 18  1  0  0  0
 17 43  1  0  0  0
 17 44  1  0  0  0
 18 19  1  0  0  0
 18 20  1  0  0  0
 18 45  1  0  0  0
 19 46  1  0  0  0
 19 47  1  0  0  0
 19 48  1  0  0  0
 20 49  1  0  0  0
 20 50  1  0  0  0
 20 51  1  0  0  0
 21 22  2  0  0  0
 23 24  1  0  0  0
 23 52  1  0  0  0
 24 25  2  0  0  0
 24 53  1  0  0  0
 25 26  1  0  0  0
 25 28  1  0  0  0
 26 27  2  0  0  0
 26 54  1  0  0  0
 27 55  1  0  0  0
 28 29  1  0  0  0
 28 30  2  0  0  0
 28 31  2  0  0  0
 29 56  1  0  0  0
 29 57  1  0  0  0
 32 33  1  0  0  0
 32 58  1  0  0  0
 33 59  1  0  0  0
 33 60  1  0  0  0
M  END
> <s_m_source_file>
../1vsn_ligand.sdf

> <i_m_source_file_index>
1

> <s_epik_input>
W2NIXTFbY0hdYyhTKD1PKSg9TylbTkgyXSlbY0hdW2NIXWMxLWMyW2NIXVtjSF1jKFtjSF1bY0hdMilbQ0BASF0oQyhGKShGKUYpW05IMitdW0NAQEhdKFtDSDJdW0NIXShbQ0gzXSlbQ0gzXSlDKD1PKVtOSF1bQ0gyXS9bQ0hdPU5cW0hd

> <s_epik_cmdline>
J2VwaWtfYXBwJywgJy1pbWFlJywgJ2xpZ2FuZF9wcm8ubWFlJywgJy1vbWFlJywgJ2xpZ2FuZF9wcmVwLm1hZScsICctbXMnLCAnMScsICctcGgnLCAnNycsICctcGh0JywgJzAuNScsICctbnQn

> <r_lp_tautomer_probability>
1

> <r_epik_Ionization_Penalty>
  0.0020

> <r_epik_Ionization_Penalty_Charging>
  0.0002

> <r_epik_Ionization_Penalty_Neutral>
  0.0018

> <r_epik_State_Penalty>
 -0.0000

> <r_epik_Charging_Adjusted_Penalty>
0.000197958953298997

> <i_epik_Tot_Q>
0

> <i_epik_Tot_abs_Q>
0

> <s_epik_Chemistry_Notes>
This compound has an imine and may undergo hydrolysis.

$$$$
