1vwf_ligand
                    3D
 Schrodinger Suite 2020-3.
113116  0  0  1  0            999 V2000
    9.1610    1.3470  -21.5920 C   0  0  0  0  0  0
    9.9540    2.2570  -21.8250 O   0  0  0  0  0  0
    7.7340    1.4080  -22.1140 C   0  0  0  0  0  0
    9.4250    0.2810  -20.8320 N   0  0  0  0  0  0
   10.6210    0.0910  -20.0350 C   0  0  2  0  0  0
   11.0220    1.2730  -19.1430 C   0  0  0  0  0  0
   11.9060    2.0890  -19.4020 O   0  0  0  0  0  0
   11.7220   -0.3310  -21.0050 C   0  0  0  0  0  0
   11.2360   -1.9590  -21.6650 S   0  0  0  0  0  0
   10.2810    1.3390  -18.0230 N   0  0  0  0  0  0
   10.5090    2.3270  -16.9680 C   0  0  2  0  0  0
   11.9150    2.1500  -16.4030 C   0  0  0  0  0  0
   12.3070    0.9950  -16.1180 O   0  0  0  0  0  0
    9.4740    2.1610  -15.8040 C   0  0  0  0  0  0
    9.5050    3.2970  -14.7870 C   0  0  0  0  0  0
   10.4540    3.3550  -13.8760 N   0  0  0  0  0  0
    8.6920    4.3940  -14.8010 C   0  0  0  0  0  0
   10.2320    4.5200  -13.3080 C   0  0  0  0  0  0
    9.1950    5.1330  -13.8500 N   0  0  0  0  0  0
   12.6520    3.2600  -16.1600 N   0  0  0  0  0  0
   13.9930    3.2050  -15.5880 C   0  0  2  0  0  0
   14.1520    2.5110  -14.2280 C   0  0  0  0  0  0
   15.2530    2.1100  -13.8650 O   0  0  0  0  0  0
   14.4050    4.6690  -15.5940 C   0  0  0  0  0  0
   13.1300    5.4780  -15.6150 C   0  0  0  0  0  0
   12.2430    4.6380  -16.5040 C   0  0  0  0  0  0
   13.0970    2.3660  -13.4090 N   0  0  0  0  0  0
   13.1500    1.6310  -12.1410 C   0  0  2  0  0  0
   13.3420    0.1380  -12.3740 C   0  0  0  0  0  0
   13.8940   -0.5410  -11.5080 O   0  0  0  0  0  0
   11.8600    1.8170  -11.3370 C   0  0  0  0  0  0
   12.0030    1.3590   -9.8840 C   0  0  0  0  0  0
   10.8240    1.6590   -8.9620 C   0  0  0  0  0  0
   10.1980    2.7160   -9.0590 O   0  0  0  0  0  0
   10.4470    0.7580   -8.0500 N   0  0  0  0  0  0
   12.8530   -0.3640  -13.5180 N   0  0  0  0  0  0
   12.8220   -1.7800  -13.8190 C   0  0  0  0  0  0
   14.1390   -2.2550  -14.4230 C   0  0  0  0  0  0
   15.0610   -1.4640  -14.6550 O   0  0  0  0  0  0
   14.3020   -3.5670  -14.6450 N   0  0  0  0  0  0
   15.4060   -4.1150  -15.4460 C   0  0  2  0  0  0
   15.1190   -4.3220  -16.9560 C   0  0  0  0  0  0
   14.0370   -4.8320  -17.2910 O   0  0  0  0  0  0
   15.7280   -5.3800  -14.6650 C   0  0  0  0  0  0
   14.3580   -5.9000  -14.2310 C   0  0  0  0  0  0
   13.5620   -4.6260  -13.9480 C   0  0  0  0  0  0
   15.9810   -3.9780  -17.9330 N   0  0  0  0  0  0
   17.0510   -2.9840  -17.8290 C   0  0  2  0  0  0
   16.6330   -1.5380  -18.1440 C   0  0  0  0  0  0
   15.4420   -1.2080  -18.1680 O   0  0  0  0  0  0
   18.0920   -3.5510  -18.7670 C   0  0  0  0  0  0
   17.2530   -4.0640  -19.9070 C   0  0  0  0  0  0
   16.1320   -4.7640  -19.1610 C   0  0  0  0  0  0
   17.6680   -0.7100  -18.3570 N   0  0  0  0  0  0
   17.6110    0.6180  -18.9590 C   0  0  2  0  0  0
   17.0970    1.7210  -18.0520 C   0  0  0  0  0  0
   15.9130    2.0110  -17.9150 O   0  0  0  0  0  0
   16.7630    0.6020  -20.2520 C   0  0  0  0  0  0
   17.6040   -0.2350  -21.6240 S   0  0  0  0  0  0
   18.0410    2.3840  -17.4010 N   0  0  0  0  0  0
    7.6060    2.3127  -22.7265 H   0  0  0  0  0  0
    7.0343    1.4374  -21.2658 H   0  0  0  0  0  0
    7.5296    0.5180  -22.7273 H   0  0  0  0  0  0
    8.6422   -0.4917  -20.8420 H   0  0  0  0  0  0
   10.3674   -0.6963  -19.3099 H   0  0  0  0  0  0
   11.8038    0.4116  -21.8124 H   0  0  0  0  0  0
   12.6796   -0.3951  -20.4674 H   0  0  0  0  0  0
   11.8814   -2.4723  -22.3931 H   0  0  0  0  0  0
    9.4705    0.6023  -17.9208 H   0  0  0  0  0  0
   10.4040    3.3039  -17.4627 H   0  0  0  0  0  0
    8.7665    1.3284  -15.6771 H   0  0  0  0  0  0
    7.8169    4.7463  -15.3668 H   0  0  0  0  0  0
   10.8287    4.9285  -12.4924 H   0  0  0  0  0  0
   14.6099    2.5440  -16.2145 H   0  0  0  0  0  0
   14.9929    4.8882  -14.6905 H   0  0  0  0  0  0
   15.0140    4.8749  -16.4866 H   0  0  0  0  0  0
   12.7430    5.5790  -14.5903 H   0  0  0  0  0  0
   13.3358    6.4760  -16.0293 H   0  0  0  0  0  0
   12.4214    4.8170  -17.5746 H   0  0  0  0  0  0
   11.1732    4.7688  -16.2837 H   0  0  0  0  0  0
   12.1565    2.8350  -13.7340 H   0  0  0  0  0  0
   14.0159    2.0613  -11.6166 H   0  0  0  0  0  0
   11.5823    2.8813  -11.3305 H   0  0  0  0  0  0
   11.0523    1.2302  -11.7988 H   0  0  0  0  0  0
   12.1398    0.2679   -9.8553 H   0  0  0  0  0  0
   12.8758    1.8501   -9.4289 H   0  0  0  0  0  0
   10.9971   -0.1896   -7.9529 H   0  0  0  0  0  0
    9.5866    0.9639   -7.3964 H   0  0  0  0  0  0
   12.4622    0.3618  -14.2463 H   0  0  0  0  0  0
   12.6397   -2.3475  -12.8945 H   0  0  0  0  0  0
   12.0163   -1.9842  -14.5395 H   0  0  0  0  0  0
   16.2371   -3.3966  -15.5020 H   0  0  0  0  0  0
   16.2545   -6.0907  -15.3190 H   0  0  0  0  0  0
   16.3682   -5.1281  -13.8067 H   0  0  0  0  0  0
   13.9174   -6.4956  -15.0442 H   0  0  0  0  0  0
   14.4713   -6.5290  -13.3357 H   0  0  0  0  0  0
   13.5216   -4.3982  -12.8726 H   0  0  0  0  0  0
   12.5394   -4.6838  -14.3492 H   0  0  0  0  0  0
   17.3940   -2.8957  -16.7876 H   0  0  0  0  0  0
   18.7852   -2.7529  -19.0710 H   0  0  0  0  0  0
   18.6518   -4.3476  -18.2551 H   0  0  0  0  0  0
   16.9080   -3.2171  -20.5184 H   0  0  0  0  0  0
   17.8547   -4.7437  -20.5283 H   0  0  0  0  0  0
   16.3899   -5.8017  -18.9027 H   0  0  0  0  0  0
   15.1869   -4.7502  -19.7237 H   0  0  0  0  0  0
   18.6324   -1.1230  -18.0262 H   0  0  0  0  0  0
   18.6787    0.8152  -19.1357 H   0  0  0  0  0  0
   15.8162    0.0748  -20.0630 H   0  0  0  0  0  0
   16.5513    1.6352  -20.5645 H   0  0  0  0  0  0
   17.1104   -0.3172  -22.6036 H   0  0  0  0  0  0
   19.0979    2.1104  -17.5358 H   0  0  0  0  0  0
   17.7681    3.2082  -16.7256 H   0  0  0  0  0  0
   11.1671    2.5241  -13.7710 H   0  0  0  0  0  0
  1  2  2  0  0  0
  1  3  1  0  0  0
  1  4  1  0  0  0
  3 61  1  0  0  0
  3 62  1  0  0  0
  3 63  1  0  0  0
  4  5  1  0  0  0
  4 64  1  0  0  0
  5  8  1  0  0  0
  5  6  1  0  0  0
  5 65  1  0  0  0
  6  7  2  0  0  0
  6 10  1  0  0  0
  8  9  1  0  0  0
  8 66  1  0  0  0
  8 67  1  0  0  0
  9 68  1  0  0  0
 10 11  1  0  0  0
 10 69  1  0  0  0
 11 14  1  0  0  0
 11 12  1  0  0  0
 11 70  1  0  0  0
 12 13  2  0  0  0
 12 20  1  0  0  0
 14 15  2  0  0  0
 14 71  1  0  0  0
 15 16  1  0  0  0
 15 17  1  0  0  0
 16 18  1  0  0  0
 16113  1  0  0  0
 17 19  2  0  0  0
 17 72  1  0  0  0
 18 19  1  0  0  0
 18 73  1  0  0  0
 20 21  1  0  0  0
 20 26  1  0  0  0
 21 22  1  0  0  0
 21 24  1  0  0  0
 21 74  1  0  0  0
 22 23  2  0  0  0
 22 27  1  0  0  0
 24 25  1  0  0  0
 24 75  1  0  0  0
 24 76  1  0  0  0
 25 26  1  0  0  0
 25 77  1  0  0  0
 25 78  1  0  0  0
 26 79  1  0  0  0
 26 80  1  0  0  0
 27 28  1  0  0  0
 27 81  1  0  0  0
 28 31  1  0  0  0
 28 29  1  0  0  0
 28 82  1  0  0  0
 29 30  2  0  0  0
 29 36  1  0  0  0
 31 32  1  0  0  0
 31 83  1  0  0  0
 31 84  1  0  0  0
 32 33  1  0  0  0
 32 85  1  0  0  0
 32 86  1  0  0  0
 33 35  1  0  0  0
 33 34  2  0  0  0
 35 87  1  0  0  0
 35 88  1  0  0  0
 36 37  1  0  0  0
 36 89  1  0  0  0
 37 38  1  0  0  0
 37 90  1  0  0  0
 37 91  1  0  0  0
 38 39  2  0  0  0
 38 40  1  0  0  0
 40 41  1  0  0  0
 40 46  1  0  0  0
 41 42  1  0  0  0
 41 44  1  0  0  0
 41 92  1  0  0  0
 42 43  2  0  0  0
 42 47  1  0  0  0
 44 45  1  0  0  0
 44 93  1  0  0  0
 44 94  1  0  0  0
 45 46  1  0  0  0
 45 95  1  0  0  0
 45 96  1  0  0  0
 46 97  1  0  0  0
 46 98  1  0  0  0
 47 48  1  0  0  0
 47 53  1  0  0  0
 48 49  1  0  0  0
 48 51  1  0  0  0
 48 99  1  0  0  0
 49 50  2  0  0  0
 49 54  1  0  0  0
 51 52  1  0  0  0
 51100  1  0  0  0
 51101  1  0  0  0
 52 53  1  0  0  0
 52102  1  0  0  0
 52103  1  0  0  0
 53104  1  0  0  0
 53105  1  0  0  0
 54 55  1  0  0  0
 54106  1  0  0  0
 55 58  1  0  0  0
 55 56  1  0  0  0
 55107  1  0  0  0
 56 57  2  0  0  0
 56 60  1  0  0  0
 58 59  1  0  0  0
 58108  1  0  0  0
 58109  1  0  0  0
 59110  1  0  0  0
 60111  1  0  0  0
 60112  1  0  0  0
M  END
> <s_m_source_file>
../1vwf_ligand.sdf

> <i_m_source_file_index>
1

> <s_epik_input>
Tz1DKFtDSDNdKVtOSF1bQ0BASF0oW0NIMl1bU0hdKUMoPU8pW05IXVtDQEBIXShbQ0gyXUMxPU5bQ0gyXU49W0NIXTEpQyg9TylOMltDQEBIXShbQ0gyXVtDSDJdW0NIMl0yKUMoPU8pW05IXVtDQEBIXShbQ0gyXVtDSDJdQyg9TylbTkgyXSlDKD1PKVtOSF1bQ0gyXUMoPU8pTjNbQ0BASF0oW0NIMl1bQ0gyXVtDSDJdMylDKD1PKU40W0NAQEhdKFtDSDJdW0NIMl1bQ0gyXTQpQyg9TylbTkhdW0NASF0oQyg9TylbTkgyXSlbQ0gyXVtTSF0=

> <s_epik_cmdline>
J2VwaWtfYXBwJywgJy1pbWFlJywgJ2xpZ2FuZF9wcm8ubWFlJywgJy1vbWFlJywgJ2xpZ2FuZF9wcmVwLm1hZScsICctbXMnLCAnMScsICctcGgnLCAnNycsICctcGh0JywgJzAuNScsICctbnQn

> <r_lp_tautomer_probability>
1

> <r_epik_Ionization_Penalty>
  0.0190

> <r_epik_Ionization_Penalty_Charging>
  0.0000

> <r_epik_Ionization_Penalty_Neutral>
  0.0190

> <r_epik_State_Penalty>
 -0.0000

> <r_epik_Charging_Adjusted_Penalty>
5.49693998804738e-07

> <i_epik_Tot_Q>
0

> <i_epik_Tot_abs_Q>
0

> <s_epik_Chemistry_Notes>
This compound has an imine and may undergo hydrolysis.

$$$$
