1vwl_ligand
                    3D
 Schrodinger Suite 2020-3.
131135  0  0  1  0            999 V2000
   32.8650   14.1820  -13.2150 N   0  0  0  0  0  0
   32.1150   14.4180  -11.9520 C   0  0  2  0  0  0
   33.2130   14.8690  -11.0020 C   0  0  0  0  0  0
   34.2130   14.1640  -10.9210 O   0  0  0  0  0  0
   31.4320   13.1080  -11.3810 C   0  0  0  0  0  0
   30.5270   13.5520  -10.1980 C   0  0  0  0  0  0
   31.0300   13.8560   -9.0070 N   0  0  0  0  0  0
   29.1370   13.7330  -10.2150 C   0  0  0  0  0  0
   29.9780   14.2200   -8.3150 C   0  0  0  0  0  0
   28.8720   14.1480   -9.0090 N   0  0  0  0  0  0
   33.0150   16.0000  -10.3280 N   0  0  0  0  0  0
   33.9450   16.5280   -9.2710 C   0  0  2  0  0  0
   34.3510   15.5430   -8.1420 C   0  0  0  0  0  0
   35.1280   15.8900   -7.2660 O   0  0  0  0  0  0
   33.2360   17.7980   -8.7120 C   0  0  0  0  0  0
   31.7490   17.5950   -9.0920 C   0  0  0  0  0  0
   31.8460   16.9520  -10.4880 C   0  0  0  0  0  0
   33.8230   14.3510   -8.1620 N   0  0  0  0  0  0
   34.2210   13.4000   -7.0780 C   0  0  2  0  0  0
   35.2410   12.4280   -7.6620 C   0  0  0  0  0  0
   35.8770   11.7160   -6.9050 O   0  0  0  0  0  0
   33.0210   12.5790   -6.5760 C   0  0  0  0  0  0
   33.4550   11.8980   -5.2410 C   0  0  0  0  0  0
   32.2400   11.2030   -4.7060 C   0  0  0  0  0  0
   31.1580   11.7480   -4.7710 O   0  0  0  0  0  0
   32.3700   10.0230   -4.1800 N   0  0  0  0  0  0
   35.3650   12.4310   -8.9600 N   0  0  0  0  0  0
   36.3240   11.5150   -9.6010 C   0  0  0  0  0  0
   37.5950   12.2700   -9.9190 C   0  0  0  0  0  0
   37.6670   13.4830   -9.7270 O   0  0  0  0  0  0
   38.5600   11.4940  -10.3990 N   0  0  0  0  0  0
   39.9210   12.0080  -10.7110 C   0  0  2  0  0  0
   39.8400   13.0960  -11.8160 C   0  0  0  0  0  0
   38.7760   13.3920  -12.3360 O   0  0  0  0  0  0
   40.7500   10.7110  -11.1170 C   0  0  0  0  0  0
   39.6790    9.7110  -11.6510 C   0  0  0  0  0  0
   38.4480   10.0110  -10.7190 C   0  0  0  0  0  0
   40.9830   13.6490  -12.1440 N   0  0  0  0  0  0
   41.0970   14.5530  -13.3130 C   0  0  2  0  0  0
   40.6770   13.7210  -14.5380 C   0  0  0  0  0  0
   40.5740   12.5090  -14.4700 O   0  0  0  0  0  0
   42.5740   14.9830  -13.3180 C   0  0  0  0  0  0
   43.0030   14.7810  -11.8150 C   0  0  0  0  0  0
   42.2900   13.4780  -11.4370 C   0  0  0  0  0  0
   40.4630   14.3760  -15.6360 N   0  0  0  0  0  0
   40.0480   13.6080  -16.8470 C   0  0  2  0  0  0
   41.2940   12.9800  -17.4950 C   0  0  0  0  0  0
   42.3430   12.9030  -16.8820 O   0  0  0  0  0  0
   39.3540   14.5890  -17.7930 C   0  0  0  0  0  0
   38.0800   15.6060  -17.0000 S   0  0  0  0  0  0
   41.1060   12.5540  -18.7160 N   0  0  0  0  0  0
   42.2020   11.9200  -19.4990 C   0  0  2  0  0  0
   43.3270   12.9430  -19.6290 C   0  0  0  0  0  0
   43.1040   14.1350  -19.6150 O   0  0  0  0  0  0
   41.6610   11.5360  -20.8990 C   0  0  0  0  0  0
   42.7830   10.9910  -21.8130 C   0  0  0  0  0  0
   42.2100   10.7190  -23.2290 C   0  0  0  0  0  0
   43.3650   10.3680  -24.1860 C   0  0  0  0  0  0
   42.8330   10.1080  -25.5540 N   0  3  0  0  0  0
   44.5450   12.5250  -19.7620 N   0  0  0  0  0  0
   33.0430   15.1960  -14.0310 C   0  0  0  0  0  0
   32.6020   16.3040  -13.7610 O   0  0  0  0  0  0
   33.8290   14.9530  -15.3590 C   0  0  0  0  0  0
   35.3690   14.8180  -15.0790 C   0  0  0  0  0  0
   36.0580   13.8120  -16.0810 C   0  0  0  0  0  0
   36.6410   14.5410  -17.3100 C   0  0  0  0  0  0
   33.2537   13.1789  -13.4446 H   0  0  0  0  0  0
   31.3237   15.1617  -12.1272 H   0  0  0  0  0  0
   31.4907   12.0456  -11.6599 H   0  0  0  0  0  0
   28.3240   13.6120  -10.9461 H   0  0  0  0  0  0
   30.0204   14.5466   -7.2759 H   0  0  0  0  0  0
   34.9095   16.7181   -9.7646 H   0  0  0  0  0  0
   33.3820   17.8500   -7.6230 H   0  0  0  0  0  0
   33.6653   18.6947   -9.1827 H   0  0  0  0  0  0
   31.2679   16.9383   -8.3522 H   0  0  0  0  0  0
   31.2377   18.5688   -9.1053 H   0  0  0  0  0  0
   32.0727   17.6812  -11.2798 H   0  0  0  0  0  0
   30.9446   16.3834  -10.7604 H   0  0  0  0  0  0
   33.1095   14.0342   -8.9369 H   0  0  0  0  0  0
   34.6312   13.9975   -6.2505 H   0  0  0  0  0  0
   32.1636   13.2475   -6.4088 H   0  0  0  0  0  0
   32.7544   11.8219   -7.3281 H   0  0  0  0  0  0
   34.2634   11.1795   -5.4418 H   0  0  0  0  0  0
   33.8121   12.6645   -4.5375 H   0  0  0  0  0  0
   33.3612    9.5484   -4.1319 H   0  0  0  0  0  0
   31.4889    9.4979   -3.7825 H   0  0  0  0  0  0
   34.7590   13.1119   -9.5758 H   0  0  0  0  0  0
   36.5496   10.6832   -8.9174 H   0  0  0  0  0  0
   35.8877   11.1184  -10.5296 H   0  0  0  0  0  0
   40.3622   12.5283   -9.8481 H   0  0  0  0  0  0
   41.4864   10.9739  -11.8907 H   0  0  0  0  0  0
   41.2722   10.3177  -10.2323 H   0  0  0  0  0  0
   39.4760    9.9228  -12.7112 H   0  0  0  0  0  0
   40.0543    8.6822  -11.5480 H   0  0  0  0  0  0
   38.4905    9.4303   -9.7857 H   0  0  0  0  0  0
   37.4925    9.8169  -11.2284 H   0  0  0  0  0  0
   40.4535   15.4442  -13.2714 H   0  0  0  0  0  0
   43.1400   14.3424  -14.0103 H   0  0  0  0  0  0
   42.6497   16.0311  -13.6434 H   0  0  0  0  0  0
   44.0984   14.7008  -11.7540 H   0  0  0  0  0  0
   42.6645   15.6409  -11.2183 H   0  0  0  0  0  0
   42.1115   13.3737  -10.3566 H   0  0  0  0  0  0
   42.7956   12.5766  -11.8138 H   0  0  0  0  0  0
   40.5796   15.4684  -15.6908 H   0  0  0  0  0  0
   39.3524   12.8016  -16.5715 H   0  0  0  0  0  0
   40.0991   15.2772  -18.2186 H   0  0  0  0  0  0
   38.8641   14.0313  -18.6048 H   0  0  0  0  0  0
   40.1083   12.6733  -19.1635 H   0  0  0  0  0  0
   42.5625   11.0237  -18.9730 H   0  0  0  0  0  0
   40.8905   10.7581  -20.7936 H   0  0  0  0  0  0
   41.2227   12.4235  -21.3788 H   0  0  0  0  0  0
   43.5928   11.7323  -21.8813 H   0  0  0  0  0  0
   43.1775   10.0549  -21.3910 H   0  0  0  0  0  0
   41.5016    9.8788  -23.1827 H   0  0  0  0  0  0
   41.6900   11.6174  -23.5929 H   0  0  0  0  0  0
   44.0748   11.2073  -24.2274 H   0  0  0  0  0  0
   43.8822    9.4680  -23.8219 H   0  0  0  0  0  0
   43.6645    9.8584  -26.2295 H   0  0  0  0  0  0
   42.3173   11.0065  -25.9237 H   0  0  0  0  0  0
   42.1246    9.2672  -25.5182 H   0  0  0  0  0  0
   44.7577   11.4459  -19.7759 H   0  0  0  0  0  0
   45.3672   13.2490  -19.8611 H   0  0  0  0  0  0
   33.4720   14.0263  -15.8320 H   0  0  0  0  0  0
   33.6657   15.7997  -16.0420 H   0  0  0  0  0  0
   35.8495   15.8012  -15.1903 H   0  0  0  0  0  0
   35.5244   14.4478  -14.0549 H   0  0  0  0  0  0
   36.8777   13.2875  -15.5682 H   0  0  0  0  0  0
   35.3168   13.0791  -16.4323 H   0  0  0  0  0  0
   35.8199   15.1452  -17.7231 H   0  0  0  0  0  0
   36.9149   13.7545  -18.0286 H   0  0  0  0  0  0
   32.1110   13.7621   -8.8262 H   0  0  0  0  0  0
  1  2  1  0  0  0
  1 61  1  0  0  0
  1 67  1  0  0  0
  2  5  1  0  0  0
  2  3  1  0  0  0
  2 68  1  0  0  0
  3  4  2  0  0  0
  3 11  1  0  0  0
  5  6  2  0  0  0
  5 69  1  0  0  0
  6  7  1  0  0  0
  6  8  1  0  0  0
  7  9  1  0  0  0
  7131  1  0  0  0
  8 10  2  0  0  0
  8 70  1  0  0  0
  9 10  1  0  0  0
  9 71  1  0  0  0
 11 12  1  0  0  0
 11 17  1  0  0  0
 12 13  1  0  0  0
 12 15  1  0  0  0
 12 72  1  0  0  0
 13 14  2  0  0  0
 13 18  1  0  0  0
 15 16  1  0  0  0
 15 73  1  0  0  0
 15 74  1  0  0  0
 16 17  1  0  0  0
 16 75  1  0  0  0
 16 76  1  0  0  0
 17 77  1  0  0  0
 17 78  1  0  0  0
 18 19  1  0  0  0
 18 79  1  0  0  0
 19 22  1  0  0  0
 19 20  1  0  0  0
 19 80  1  0  0  0
 20 21  2  0  0  0
 20 27  1  0  0  0
 22 23  1  0  0  0
 22 81  1  0  0  0
 22 82  1  0  0  0
 23 24  1  0  0  0
 23 83  1  0  0  0
 23 84  1  0  0  0
 24 26  1  0  0  0
 24 25  2  0  0  0
 26 85  1  0  0  0
 26 86  1  0  0  0
 27 28  1  0  0  0
 27 87  1  0  0  0
 28 29  1  0  0  0
 28 88  1  0  0  0
 28 89  1  0  0  0
 29 30  2  0  0  0
 29 31  1  0  0  0
 31 32  1  0  0  0
 31 37  1  0  0  0
 32 33  1  0  0  0
 32 35  1  0  0  0
 32 90  1  0  0  0
 33 34  2  0  0  0
 33 38  1  0  0  0
 35 36  1  0  0  0
 35 91  1  0  0  0
 35 92  1  0  0  0
 36 37  1  0  0  0
 36 93  1  0  0  0
 36 94  1  0  0  0
 37 95  1  0  0  0
 37 96  1  0  0  0
 38 39  1  0  0  0
 38 44  1  0  0  0
 39 40  1  0  0  0
 39 42  1  0  0  0
 39 97  1  0  0  0
 40 41  2  0  0  0
 40 45  1  0  0  0
 42 43  1  0  0  0
 42 98  1  0  0  0
 42 99  1  0  0  0
 43 44  1  0  0  0
 43100  1  0  0  0
 43101  1  0  0  0
 44102  1  0  0  0
 44103  1  0  0  0
 45 46  1  0  0  0
 45104  1  0  0  0
 46 49  1  0  0  0
 46 47  1  0  0  0
 46105  1  0  0  0
 47 48  2  0  0  0
 47 51  1  0  0  0
 49 50  1  0  0  0
 49106  1  0  0  0
 49107  1  0  0  0
 50 66  1  0  0  0
 51 52  1  0  0  0
 51108  1  0  0  0
 52 55  1  0  0  0
 52 53  1  0  0  0
 52109  1  0  0  0
 53 54  2  0  0  0
 53 60  1  0  0  0
 55 56  1  0  0  0
 55110  1  0  0  0
 55111  1  0  0  0
 56 57  1  0  0  0
 56112  1  0  0  0
 56113  1  0  0  0
 57 58  1  0  0  0
 57114  1  0  0  0
 57115  1  0  0  0
 58 59  1  0  0  0
 58116  1  0  0  0
 58117  1  0  0  0
 59118  1  0  0  0
 59119  1  0  0  0
 59120  1  0  0  0
 60121  1  0  0  0
 60122  1  0  0  0
 61 62  2  0  0  0
 61 63  1  0  0  0
 63 64  1  0  0  0
 63123  1  0  0  0
 63124  1  0  0  0
 64 65  1  0  0  0
 64125  1  0  0  0
 64126  1  0  0  0
 65 66  1  0  0  0
 65127  1  0  0  0
 65128  1  0  0  0
 66129  1  0  0  0
 66130  1  0  0  0
M  CHG  1  59   1
M  END
> <s_m_source_file>
../1vwl_ligand.sdf

> <i_m_source_file_index>
1

> <s_epik_input>
W0NIXTE9TltDSDJdTj1DMVtDSDJdW0NAQEhdKEMyPU8pW05IXUMoPU8pW0NIMl1bQ0gyXVtDSDJdW0NIMl1TW0NIMl1bQ0BASF0oQyg9TylbTkhdW0NASF0oQyg9TylbTkgyXSlbQ0gyXVtDSDJdW0NIMl1bQ0gyXVtOSDMrXSlbTkhdQyg9TylbQ0BIXShbQ0gyXVtDSDJdW0NIMl0zKU4zQyg9TylbQ0BIXShbQ0gyXVtDSDJdW0NIMl00KU40Qyg9TylbQ0gyXVtOSF1DKD1PKVtDQEhdKFtDSDJdW0NIMl1DKD1PKVtOSDJdKVtOSF1DKD1PKVtDQEBIXShOMjUpW0NIMl1bQ0gyXVtDSDJdNQ==

> <s_epik_cmdline>
J2VwaWtfYXBwJywgJy1pbWFlJywgJ2xpZ2FuZF9wcm8ubWFlJywgJy1vbWFlJywgJ2xpZ2FuZF9wcmVwLm1hZScsICctbXMnLCAnMScsICctcGgnLCAnNycsICctcGh0JywgJzAuNScsICctbnQn

> <r_lp_tautomer_probability>
1

> <r_epik_Ionization_Penalty>
  0.0004

> <r_epik_Ionization_Penalty_Charging>
  0.0004

> <r_epik_Ionization_Penalty_Neutral>
  0.0000

> <r_epik_State_Penalty>
 -0.0000

> <r_epik_Charging_Adjusted_Penalty>
0.00044451680150133

> <i_epik_Tot_Q>
1

> <i_epik_Tot_abs_Q>
1

> <s_epik_Chemistry_Notes>
This compound has an imine and may undergo hydrolysis.

$$$$
