1vwn_ligand
                    3D
 Schrodinger Suite 2020-3.
 95 98  0  0  1  0            999 V2000
    7.9710   -0.5070  -19.9300 C   0  0  0  0  0  0
    7.4420   -0.4090  -18.8350 O   0  0  0  0  0  0
    9.2120   -0.8750  -20.0760 N   0  0  0  0  0  0
    9.9750   -1.1680  -18.8420 C   0  0  2  0  0  0
   10.1370    0.2380  -18.2380 C   0  0  0  0  0  0
   10.0500    1.2110  -18.9660 O   0  0  0  0  0  0
   11.3270   -1.8060  -19.2040 C   0  0  0  0  0  0
   12.3510   -2.1550  -17.7640 S   0  0  0  0  0  0
    7.1618   -0.1918  -21.1543 C   0  0  0  0  0  0
   10.3690    0.3400  -16.9620 N   0  0  0  0  0  0
   10.5210    1.6960  -16.3310 C   0  0  2  0  0  0
   11.8950    1.7910  -15.6770 C   0  0  0  0  0  0
   12.3680    0.8010  -15.1530 O   0  0  0  0  0  0
    9.3540    1.8420  -15.3000 C   0  0  0  0  0  0
    9.4010    3.0530  -14.3570 C   0  0  0  0  0  0
   10.2340    3.1080  -13.3440 N   0  0  0  0  0  0
    8.6150    4.1910  -14.3950 C   0  0  0  0  0  0
    9.9580    4.2550  -12.7760 C   0  0  0  0  0  0
    9.0150    4.8920  -13.3820 N   0  3  0  0  0  0
   12.5000    2.9630  -15.7030 N   0  0  0  0  0  0
   13.8300    3.1840  -15.1160 C   0  0  2  0  0  0
   14.0420    2.6110  -13.7270 C   0  0  0  0  0  0
   15.1520    2.2420  -13.3880 O   0  0  0  0  0  0
   14.0140    4.6970  -15.1860 C   0  0  0  0  0  0
   12.6060    5.2790  -15.4320 C   0  0  0  0  0  0
   11.9570    4.2270  -16.3000 C   0  0  0  0  0  0
   13.0070    2.5560  -12.9340 N   0  0  0  0  0  0
   13.1760    2.0000  -11.5650 C   0  0  2  0  0  0
   13.7740    0.6110  -11.6740 C   0  0  0  0  0  0
   14.4860    0.1510  -10.7960 O   0  0  0  0  0  0
   11.8090    1.9250  -10.8430 C   0  0  0  0  0  0
   12.0330    1.3320   -9.4220 C   0  0  0  0  0  0
   10.8900    1.6520   -8.4700 C   0  0  0  0  0  0
   10.3140    2.7010   -8.6170 O   0  0  0  0  0  0
   10.5010    0.8640   -7.4990 N   0  0  0  0  0  0
   13.4420    0.0160  -12.7740 N   0  0  0  0  0  0
   13.9030   -1.3570  -13.0840 C   0  0  2  0  0  0
   14.9990   -1.4240  -14.1850 C   0  0  0  0  0  0
   15.9970   -2.1000  -13.9900 O   0  0  0  0  0  0
   12.6040   -2.1590  -13.4580 C   0  0  0  0  0  0
   11.5390   -1.8830  -12.3470 C   0  0  0  0  0  0
   11.6550   -2.4140  -11.0640 C   0  0  0  0  0  0
   10.4540   -1.0620  -12.6120 C   0  0  0  0  0  0
   10.7060   -2.1310  -10.0840 C   0  0  0  0  0  0
    9.5100   -0.7790  -11.6360 C   0  0  0  0  0  0
    9.6280   -1.3030  -10.3700 C   0  0  0  0  0  0
   14.8500   -0.7510  -15.2910 N   0  0  0  0  0  0
   15.9110   -0.8310  -16.3590 C   0  0  2  0  0  0
   16.7200    0.4470  -16.6850 C   0  0  0  0  0  0
   16.2250    1.5540  -16.7610 O   0  0  0  0  0  0
   15.2210   -1.3320  -17.6340 C   0  0  0  0  0  0
   13.6080   -0.5890  -17.9830 S   0  0  0  0  0  0
   17.9593    0.3336  -16.8824 O   0  5  0  0  0  0
    9.6969   -0.9721  -21.0586 H   0  0  0  0  0  0
    9.4698   -1.8817  -18.1747 H   0  0  0  0  0  0
   11.1547   -2.7572  -19.7290 H   0  0  0  0  0  0
   11.8913   -1.1238  -19.8569 H   0  0  0  0  0  0
    6.1440    0.0998  -20.8560 H   0  0  0  0  0  0
    7.1140   -1.0804  -21.8010 H   0  0  0  0  0  0
    7.6345    0.6361  -21.7031 H   0  0  0  0  0  0
   10.4539   -0.5665  -16.3447 H   0  0  0  0  0  0
   10.4816    2.4949  -17.0862 H   0  0  0  0  0  0
    8.3979    1.9243  -15.8377 H   0  0  0  0  0  0
    9.3312    0.9589  -14.6445 H   0  0  0  0  0  0
    7.8602    4.3119  -15.1859 H   0  0  0  0  0  0
   10.5131    4.5734  -11.8813 H   0  0  0  0  0  0
   14.5705    2.6140  -15.6963 H   0  0  0  0  0  0
   14.4360    5.0593  -14.2370 H   0  0  0  0  0  0
   14.6987    4.9454  -16.0103 H   0  0  0  0  0  0
   12.0909    5.4121  -14.4692 H   0  0  0  0  0  0
   12.6945    6.2517  -15.9380 H   0  0  0  0  0  0
   12.2564    4.2916  -17.3565 H   0  0  0  0  0  0
   10.8593    4.2237  -16.2296 H   0  0  0  0  0  0
   12.0206    2.9132  -13.2646 H   0  0  0  0  0  0
   13.8599    2.6621  -11.0138 H   0  0  0  0  0  0
   11.3797    2.9347  -10.7650 H   0  0  0  0  0  0
   11.1267    1.2797  -11.4158 H   0  0  0  0  0  0
   12.1198    0.2376   -9.4909 H   0  0  0  0  0  0
   12.9571    1.7468   -8.9930 H   0  0  0  0  0  0
   11.0053   -0.1002   -7.3376 H   0  0  0  0  0  0
    9.6699    1.1663   -6.8448 H   0  0  0  0  0  0
   12.8012    0.5552  -13.4872 H   0  0  0  0  0  0
   14.4129   -1.7440  -12.1894 H   0  0  0  0  0  0
   12.2329   -1.8201  -14.4365 H   0  0  0  0  0  0
   12.8372   -3.2329  -13.5062 H   0  0  0  0  0  0
   12.4997   -3.0596  -10.8238 H   0  0  0  0  0  0
   10.3405   -0.6305  -13.6065 H   0  0  0  0  0  0
   10.8100   -2.5614   -9.0880 H   0  0  0  0  0  0
    8.6647   -0.1337  -11.8752 H   0  0  0  0  0  0
    8.8879   -1.0724   -9.6037 H   0  0  0  0  0  0
   13.9574   -0.1276  -15.4480 H   0  0  0  0  0  0
   16.6616   -1.5138  -15.9343 H   0  0  0  0  0  0
   15.8585   -1.1175  -18.5044 H   0  0  0  0  0  0
   15.0555   -2.4169  -17.5593 H   0  0  0  0  0  0
    8.5493    5.8654  -13.1685 H   0  0  0  0  0  0
  1  2  2  0  0  0
  1  9  1  0  0  0
  1  3  1  0  0  0
  3  4  1  0  0  0
  3 54  1  0  0  0
  4  5  1  0  0  0
  4  7  1  0  0  0
  4 55  1  0  0  0
  5  6  2  0  0  0
  5 10  1  0  0  0
  7  8  1  0  0  0
  7 56  1  0  0  0
  7 57  1  0  0  0
  8 52  1  0  0  0
  9 58  1  0  0  0
  9 59  1  0  0  0
  9 60  1  0  0  0
 10 11  1  0  0  0
 10 61  1  0  0  0
 11 12  1  0  0  0
 11 14  1  0  0  0
 11 62  1  0  0  0
 12 13  2  0  0  0
 12 20  1  0  0  0
 14 15  1  0  0  0
 14 63  1  0  0  0
 14 64  1  0  0  0
 15 17  2  0  0  0
 15 16  1  0  0  0
 16 18  2  0  0  0
 17 19  1  0  0  0
 17 65  1  0  0  0
 18 19  1  0  0  0
 18 66  1  0  0  0
 19 95  1  0  0  0
 20 21  1  0  0  0
 20 26  1  0  0  0
 21 24  1  0  0  0
 21 22  1  0  0  0
 21 67  1  0  0  0
 22 23  2  0  0  0
 22 27  1  0  0  0
 24 25  1  0  0  0
 24 68  1  0  0  0
 24 69  1  0  0  0
 25 26  1  0  0  0
 25 70  1  0  0  0
 25 71  1  0  0  0
 26 72  1  0  0  0
 26 73  1  0  0  0
 27 28  1  0  0  0
 27 74  1  0  0  0
 28 29  1  0  0  0
 28 31  1  0  0  0
 28 75  1  0  0  0
 29 30  2  0  0  0
 29 36  1  0  0  0
 31 32  1  0  0  0
 31 76  1  0  0  0
 31 77  1  0  0  0
 32 33  1  0  0  0
 32 78  1  0  0  0
 32 79  1  0  0  0
 33 34  2  0  0  0
 33 35  1  0  0  0
 35 80  1  0  0  0
 35 81  1  0  0  0
 36 37  1  0  0  0
 36 82  1  0  0  0
 37 38  1  0  0  0
 37 40  1  0  0  0
 37 83  1  0  0  0
 38 39  2  0  0  0
 38 47  1  0  0  0
 40 41  1  0  0  0
 40 84  1  0  0  0
 40 85  1  0  0  0
 41 43  2  0  0  0
 41 42  1  0  0  0
 42 44  2  0  0  0
 42 86  1  0  0  0
 43 45  1  0  0  0
 43 87  1  0  0  0
 44 46  1  0  0  0
 44 88  1  0  0  0
 45 46  2  0  0  0
 45 89  1  0  0  0
 46 90  1  0  0  0
 47 48  1  0  0  0
 47 91  1  0  0  0
 48 49  1  0  0  0
 48 51  1  0  0  0
 48 92  1  0  0  0
 49 50  2  0  0  0
 49 53  1  0  0  0
 51 52  1  0  0  0
 51 93  1  0  0  0
 51 94  1  0  0  0
M  CHG  2  19   1  53  -1
M  END
> <s_m_source_file>
../1vwn_ligand.sdf

> <i_m_source_file_index>
1

> <s_epik_input>
W2NIXTFbbkhdW2NIXW5jMVtDSDJdW0NAQEhdKEMyPU8pW05IXUMoPU8pW0NAQEhdKFtOSF1DKD1PKVtDSDNdKVtDSDJdU1NbQ0gyXVtDQEBIXShDKD1PKVtPSF0pW05IXUMoPU8pW0NASF0oW0NIMl1jM1tjSF1bY0hdW2NIXVtjSF1bY0hdMylbTkhdQyg9TylbQ0BIXShbQ0gyXVtDSDJdQyg9TylbTkgyXSlbTkhdQyg9TylbQ0BASF0oTjI0KVtDSDJdW0NIMl1bQ0gyXTQ=

> <s_epik_cmdline>
J2VwaWtfYXBwJywgJy1pbWFlJywgJ2xpZ2FuZF9wcm8ubWFlJywgJy1vbWFlJywgJ2xpZ2FuZF9wcmVwLm1hZScsICctbXMnLCAnMScsICctcGgnLCAnNycsICctcGh0JywgJzAuNScsICctbnQn

> <r_epik_Ionization_Penalty>
  0.0078

> <r_epik_Ionization_Penalty_Charging>
  0.0078

> <r_epik_Ionization_Penalty_Neutral>
  0.0000

> <r_epik_State_Penalty>
  0.0002

> <r_epik_Charging_Adjusted_Penalty>
0.00798278646405397

> <i_epik_Tot_Q>
0

> <i_epik_Tot_abs_Q>
2

> <s_epik_Chemistry_Notes>
This compound has an imine and may undergo hydrolysis.

$$$$
