1vyf_ligand
                    3D
 Schrodinger Suite 2020-3.
 53 52  0  0  1  0            999 V2000
   16.9920   31.2630    6.3800 C   0  0  0  0  0  0
   17.7850   32.1150    6.7500 O   0  0  0  0  0  0
   17.0370   30.9660    5.0900 O   0  5  0  0  0  0
   16.0230   30.4770    7.2640 C   0  0  0  0  0  0
   15.4320   31.1480    8.5150 C   0  0  0  0  0  0
   13.8910   30.9830    8.6210 C   0  0  0  0  0  0
   13.3540   30.2580    9.8630 C   0  0  0  0  0  0
   11.9490   29.6720    9.6640 C   0  0  0  0  0  0
   10.7980   30.6320    9.9340 C   0  0  0  0  0  0
   10.3790   31.4310    8.7030 C   0  0  0  0  0  0
    8.9180   31.2450    8.3660 C   0  0  0  0  0  0
    8.3520   31.7600    7.2640 C   0  0  0  0  0  0
    9.1040   32.5700    6.2270 C   0  0  0  0  0  0
    8.3200   33.8070    5.7830 C   0  0  0  0  0  0
    8.8930   34.4630    4.5180 C   0  0  0  0  0  0
   10.2260   35.1930    4.7200 C   0  0  0  0  0  0
   11.4490   34.3300    4.3850 C   0  0  0  0  0  0
   12.7280   34.8900    5.0180 C   0  0  0  0  0  0
   13.4420   33.8780    5.9210 C   0  0  0  0  0  0
   14.4360   33.0810    5.1130 C   0  0  0  0  0  0
   15.1441   30.1815    6.6721 H   0  0  0  0  0  0
   16.5253   29.5772    7.6488 H   0  0  0  0  0  0
   15.8787   30.7020    9.4159 H   0  0  0  0  0  0
   15.6520   32.2255    8.4917 H   0  0  0  0  0  0
   13.4157   31.9750    8.6279 H   0  0  0  0  0  0
   13.5238   30.4065    7.7591 H   0  0  0  0  0  0
   14.0262   29.4265   10.1214 H   0  0  0  0  0  0
   13.3025   30.9632   10.7056 H   0  0  0  0  0  0
   11.8363   29.3352    8.6229 H   0  0  0  0  0  0
   11.8084   28.8180   10.3429 H   0  0  0  0  0  0
    9.9199   30.0646   10.2761 H   0  0  0  0  0  0
   11.0952   31.3514   10.7112 H   0  0  0  0  0  0
   10.5521   32.5020    8.8846 H   0  0  0  0  0  0
   10.9719   31.1057    7.8354 H   0  0  0  0  0  0
    8.3127   30.6571    9.0717 H   0  0  0  0  0  0
    7.2803   31.6035    7.0717 H   0  0  0  0  0  0
   10.0630   32.9055    6.6486 H   0  0  0  0  0  0
    9.2914   31.9468    5.3402 H   0  0  0  0  0  0
    7.2790   33.5238    5.5685 H   0  0  0  0  0  0
    8.3374   34.5596    6.5851 H   0  0  0  0  0  0
    9.0662   33.6929    3.7519 H   0  0  0  0  0  0
    8.1789   35.2070    4.1351 H   0  0  0  0  0  0
   10.2599   36.0806    4.0712 H   0  0  0  0  0  0
   10.3184   35.5035    5.7712 H   0  0  0  0  0  0
   11.2927   33.3095    4.7647 H   0  0  0  0  0  0
   11.5876   34.2981    3.2942 H   0  0  0  0  0  0
   13.4311   35.1844    4.2249 H   0  0  0  0  0  0
   12.4792   35.7682    5.6319 H   0  0  0  0  0  0
   13.9719   34.4124    6.7233 H   0  0  0  0  0  0
   12.7019   33.1944    6.3625 H   0  0  0  0  0  0
   14.9441   32.3573    5.7673 H   0  0  0  0  0  0
   15.1793   33.7613    4.6717 H   0  0  0  0  0  0
   13.9093   32.5433    4.3109 H   0  0  0  0  0  0
  1  2  2  0  0  0
  1  3  1  0  0  0
  1  4  1  0  0  0
  4  5  1  0  0  0
  4 21  1  0  0  0
  4 22  1  0  0  0
  5  6  1  0  0  0
  5 23  1  0  0  0
  5 24  1  0  0  0
  6  7  1  0  0  0
  6 25  1  0  0  0
  6 26  1  0  0  0
  7  8  1  0  0  0
  7 27  1  0  0  0
  7 28  1  0  0  0
  8  9  1  0  0  0
  8 29  1  0  0  0
  8 30  1  0  0  0
  9 10  1  0  0  0
  9 31  1  0  0  0
  9 32  1  0  0  0
 10 11  1  0  0  0
 10 33  1  0  0  0
 10 34  1  0  0  0
 11 12  2  0  0  0
 11 35  1  0  0  0
 12 13  1  0  0  0
 12 36  1  0  0  0
 13 14  1  0  0  0
 13 37  1  0  0  0
 13 38  1  0  0  0
 14 15  1  0  0  0
 14 39  1  0  0  0
 14 40  1  0  0  0
 15 16  1  0  0  0
 15 41  1  0  0  0
 15 42  1  0  0  0
 16 17  1  0  0  0
 16 43  1  0  0  0
 16 44  1  0  0  0
 17 18  1  0  0  0
 17 45  1  0  0  0
 17 46  1  0  0  0
 18 19  1  0  0  0
 18 47  1  0  0  0
 18 48  1  0  0  0
 19 20  1  0  0  0
 19 49  1  0  0  0
 19 50  1  0  0  0
 20 51  1  0  0  0
 20 52  1  0  0  0
 20 53  1  0  0  0
M  CHG  1   3  -1
M  END
> <s_m_source_file>
../1vyf_ligand.sdf

> <i_m_source_file_index>
1

> <s_epik_input>
Tz1DKFtPSF0pW0NIMl1bQ0gyXVtDSDJdW0NIMl1bQ0gyXVtDSDJdW0NIMl0vW0NIXT1bQ0hdXFtDSDJdW0NIMl1bQ0gyXVtDSDJdW0NIMl1bQ0gyXVtDSDJdW0NIM10=

> <s_epik_cmdline>
J2VwaWtfYXBwJywgJy1pbWFlJywgJ2xpZ2FuZF9wcm8ubWFlJywgJy1vbWFlJywgJ2xpZ2FuZF9wcmVwLm1hZScsICctbXMnLCAnMScsICctcGgnLCAnNycsICctcGh0JywgJzAuNScsICctbnQn

> <r_lp_tautomer_probability>
1

> <r_epik_Ionization_Penalty>
  0.0049

> <r_epik_Ionization_Penalty_Charging>
  0.0049

> <r_epik_Ionization_Penalty_Neutral>
  0.0000

> <r_epik_State_Penalty>
 -0.0000

> <r_epik_Charging_Adjusted_Penalty>
0.00485124679394524

> <i_epik_Tot_Q>
-1

> <i_epik_Tot_abs_Q>
1

$$$$
