1vyg_ligand
                    3D
 Schrodinger Suite 2020-3.
 53 52  0  0  1  0            999 V2000
   17.0340   31.3290    6.3160 C   0  0  0  0  0  0
   16.3860   30.3750    7.2820 C   0  0  0  0  0  0
   15.2910   31.1270    8.0340 C   0  0  0  0  0  0
   14.1260   30.1760    8.3230 C   0  0  0  0  0  0
   14.0140   29.8790    9.8140 C   0  0  0  0  0  0
   12.8630   29.3630   10.2740 C   0  0  0  0  0  0
   11.7080   29.0650    9.3390 C   0  0  0  0  0  0
   10.5190   29.6300   10.0190 C   0  0  0  0  0  0
    9.5660   30.3730    9.4630 C   0  0  0  0  0  0
    9.4810   30.8020    8.0320 C   0  0  0  0  0  0
    8.0200   31.1210    7.8520 C   0  0  0  0  0  0
    7.5120   31.6000    6.7320 C   0  0  0  0  0  0
    8.3700   31.8860    5.5430 C   0  0  0  0  0  0
    8.1380   33.3240    5.1070 C   0  0  0  0  0  0
    9.0190   33.9950    4.3560 C   0  0  0  0  0  0
   10.3060   33.3720    3.8360 C   0  0  0  0  0  0
   11.5240   34.0660    4.4230 C   0  0  0  0  0  0
   11.5070   35.5550    4.0900 C   0  0  0  0  0  0
   11.4270   36.3440    5.3890 C   0  0  0  0  0  0
   11.3330   37.8550    5.1650 C   0  0  0  0  0  0
   17.6710   32.3160    6.6950 O   0  0  0  0  0  0
   16.8700   31.0720    5.0250 O   0  5  0  0  0  0
   15.9516   29.5303    6.7273 H   0  0  0  0  0  0
   17.1407   30.0001    7.9890 H   0  0  0  0  0  0
   15.6950   31.5112    8.9822 H   0  0  0  0  0  0
   14.9351   31.9673    7.4198 H   0  0  0  0  0  0
   13.1853   30.6352    7.9850 H   0  0  0  0  0  0
   14.2846   29.2284    7.7873 H   0  0  0  0  0  0
   14.8444   30.0763   10.5079 H   0  0  0  0  0  0
   12.7460   29.1491   11.3466 H   0  0  0  0  0  0
   11.8899   29.5462    8.3667 H   0  0  0  0  0  0
   11.6206   27.9774    9.1992 H   0  0  0  0  0  0
   10.4676   29.3802   11.0890 H   0  0  0  0  0  0
    8.7270   30.7383   10.0734 H   0  0  0  0  0  0
   10.1254   31.6793    7.8733 H   0  0  0  0  0  0
    9.8148   29.9796    7.3822 H   0  0  0  0  0  0
    7.3664   30.9346    8.7169 H   0  0  0  0  0  0
    6.4325   31.7981    6.6582 H   0  0  0  0  0  0
    9.4273   31.7434    5.8110 H   0  0  0  0  0  0
    8.1034   31.2005    4.7250 H   0  0  0  0  0  0
    7.2069   33.8121    5.4308 H   0  0  0  0  0  0
    8.8272   35.0447    4.0890 H   0  0  0  0  0  0
   10.3376   32.3086    4.1154 H   0  0  0  0  0  0
   10.3416   33.4644    2.7405 H   0  0  0  0  0  0
   11.5231   33.9456    5.5164 H   0  0  0  0  0  0
   12.4379   33.6182    4.0056 H   0  0  0  0  0  0
   12.4266   35.8199    3.5477 H   0  0  0  0  0  0
   10.6329   35.7802    3.4614 H   0  0  0  0  0  0
   10.5347   36.0333    5.9523 H   0  0  0  0  0  0
   12.3268   36.1506    5.9915 H   0  0  0  0  0  0
   11.2783   38.3670    6.1370 H   0  0  0  0  0  0
   10.4306   38.0833    4.5789 H   0  0  0  0  0  0
   12.2226   38.2006    4.6181 H   0  0  0  0  0  0
  1  2  1  0  0  0
  1 21  2  0  0  0
  1 22  1  0  0  0
  2  3  1  0  0  0
  2 23  1  0  0  0
  2 24  1  0  0  0
  3  4  1  0  0  0
  3 25  1  0  0  0
  3 26  1  0  0  0
  4  5  1  0  0  0
  4 27  1  0  0  0
  4 28  1  0  0  0
  5  6  2  0  0  0
  5 29  1  0  0  0
  6  7  1  0  0  0
  6 30  1  0  0  0
  7  8  1  0  0  0
  7 31  1  0  0  0
  7 32  1  0  0  0
  8  9  2  0  0  0
  8 33  1  0  0  0
  9 10  1  0  0  0
  9 34  1  0  0  0
 10 11  1  0  0  0
 10 35  1  0  0  0
 10 36  1  0  0  0
 11 12  2  0  0  0
 11 37  1  0  0  0
 12 13  1  0  0  0
 12 38  1  0  0  0
 13 14  1  0  0  0
 13 39  1  0  0  0
 13 40  1  0  0  0
 14 15  2  0  0  0
 14 41  1  0  0  0
 15 16  1  0  0  0
 15 42  1  0  0  0
 16 17  1  0  0  0
 16 43  1  0  0  0
 16 44  1  0  0  0
 17 18  1  0  0  0
 17 45  1  0  0  0
 17 46  1  0  0  0
 18 19  1  0  0  0
 18 47  1  0  0  0
 18 48  1  0  0  0
 19 20  1  0  0  0
 19 49  1  0  0  0
 19 50  1  0  0  0
 20 51  1  0  0  0
 20 52  1  0  0  0
 20 53  1  0  0  0
M  CHG  1  22  -1
M  END
> <s_m_source_file>
../1vyg_ligand.sdf

> <i_m_source_file_index>
1

> <s_epik_input>
Tz1DKFtPSF0pW0NIMl1bQ0gyXVtDSDJdL1tDSF09W0NIXVxbQ0gyXS9bQ0hdPVtDSF1cW0NIMl0vW0NIXT1bQ0hdXFtDSDJdL1tDSF09W0NIXVxbQ0gyXVtDSDJdW0NIMl1bQ0gyXVtDSDNd

> <s_epik_cmdline>
J2VwaWtfYXBwJywgJy1pbWFlJywgJ2xpZ2FuZF9wcm8ubWFlJywgJy1vbWFlJywgJ2xpZ2FuZF9wcmVwLm1hZScsICctbXMnLCAnMScsICctcGgnLCAnNycsICctcGh0JywgJzAuNScsICctbnQn

> <r_lp_tautomer_probability>
1

> <r_epik_Ionization_Penalty>
  0.0041

> <r_epik_Ionization_Penalty_Charging>
  0.0041

> <r_epik_Ionization_Penalty_Neutral>
  0.0000

> <r_epik_State_Penalty>
 -0.0000

> <r_epik_Charging_Adjusted_Penalty>
0.00414476801241648

> <i_epik_Tot_Q>
-1

> <i_epik_Tot_abs_Q>
1

$$$$
