1vyj_ligand
                    3D
 Schrodinger Suite 2020-3.
282285  0  0  1  0            999 V2000
  -30.4110   49.9090   41.9340 N   0  3  0  0  0  0
  -31.3090   51.0360   41.6980 C   0  0  2  0  0  0
  -31.2140   52.0820   42.8170 C   0  0  0  0  0  0
  -30.2050   52.2270   43.4930 O   0  0  0  0  0  0
  -32.7340   50.4910   41.6040 C   0  0  0  0  0  0
  -32.7500   49.1330   42.0480 O   0  0  0  0  0  0
  -32.3020   52.8620   42.9700 N   0  0  0  0  0  0
  -32.3160   53.8530   44.0450 C   0  0  2  0  0  0
  -33.5360   54.7790   43.9790 C   0  0  0  0  0  0
  -33.9020   55.4370   44.9440 O   0  0  0  0  0  0
  -31.0260   54.6730   43.9670 C   0  0  0  0  0  0
  -34.1530   54.8520   42.7850 N   0  0  0  0  0  0
  -35.3120   55.7310   42.6400 C   0  0  2  0  0  0
  -36.1510   55.3850   41.4080 C   0  0  0  0  0  0
  -36.0760   54.3010   40.8450 O   0  0  0  0  0  0
  -34.8070   57.1720   42.5340 C   0  0  0  0  0  0
  -34.3930   57.6880   43.9110 C   0  0  0  0  0  0
  -33.6150   57.2360   41.5960 C   0  0  0  0  0  0
  -37.0090   56.3490   41.0190 N   0  0  0  0  0  0
  -37.8390   56.1500   39.8370 C   0  0  2  0  0  0
  -37.9410   57.4380   39.0070 C   0  0  0  0  0  0
  -37.7600   58.5470   39.4970 O   0  0  0  0  0  0
  -39.2220   55.6780   40.2970 C   0  0  0  0  0  0
  -39.1360   54.6050   41.3890 C   0  0  0  0  0  0
  -40.4640   54.4000   42.1230 C   0  0  0  0  0  0
  -38.7310   53.2330   40.8460 C   0  0  0  0  0  0
  -38.2000   57.2560   37.6960 N   0  0  0  0  0  0
  -38.1090   58.3830   36.7670 C   0  0  2  0  0  0
  -39.4280   59.1560   36.6320 C   0  0  0  0  0  0
  -40.3790   58.7040   36.0100 O   0  0  0  0  0  0
  -37.6800   57.8350   35.4030 C   0  0  0  0  0  0
  -37.7350   58.8980   34.3050 C   0  0  0  0  0  0
  -36.4890   59.7520   34.3680 C   0  0  0  0  0  0
  -35.3990   59.3640   33.9850 O   0  0  0  0  0  0
  -36.6980   60.9780   34.8870 N   0  0  0  0  0  0
  -39.3670   60.4030   37.0610 N   0  0  0  0  0  0
  -40.4790   61.2960   36.7960 C   0  0  2  0  0  0
  -40.6380   61.6090   35.3010 C   0  0  0  0  0  0
  -39.7490   61.3240   34.4940 O   0  0  0  0  0  0
  -40.3550   62.5240   37.6990 C   0  0  0  0  0  0
  -40.7930   62.1920   39.1440 C   0  0  0  0  0  0
  -42.1770   61.4820   39.1820 C   0  0  0  0  0  0
  -43.1320   62.0440   40.2400 C   0  0  0  0  0  0
  -43.8380   63.2730   39.7820 N   0  3  0  0  0  0
  -41.8080   62.1030   34.9020 N   0  0  0  0  0  0
  -41.9720   62.6210   33.5470 C   0  0  2  0  0  0
  -41.9150   64.1440   33.4990 C   0  0  0  0  0  0
  -41.9750   64.8250   34.5220 O   0  0  0  0  0  0
  -43.2590   62.1170   32.9220 C   0  0  0  0  0  0
  -43.5880   60.7010   33.2990 C   0  0  0  0  0  0
  -43.9890   59.8650   32.0860 C   0  0  0  0  0  0
  -45.4950   59.8830   31.8750 C   0  0  0  0  0  0
  -46.0190   58.5170   31.6140 N   0  3  0  0  0  0
  -41.7400   64.7040   32.3120 N   0  0  0  0  0  0
  -41.5890   66.1460   32.2800 C   0  0  2  0  0  0
  -42.9620   66.7920   32.4900 C   0  0  0  0  0  0
  -43.0750   67.8690   33.0590 O   0  0  0  0  0  0
  -40.8750   66.6060   31.0000 C   0  0  2  0  0  0
  -40.4500   68.0500   31.1590 C   0  0  0  0  0  0
  -41.7240   66.4270   29.7670 C   0  0  0  0  0  0
  -38.9530   68.0980   31.3920 C   0  0  0  0  0  0
  -44.0020   66.0660   32.1030 N   0  0  0  0  0  0
  -45.3840   66.4480   32.3650 C   0  0  2  0  0  0
  -45.7530   66.5900   33.8330 C   0  0  0  0  0  0
  -46.6480   67.3740   34.1310 O   0  0  0  0  0  0
  -46.3630   65.4470   31.7390 C   0  0  2  0  0  0
  -46.1710   64.1500   32.3130 O   0  0  0  0  0  0
  -46.0790   65.2040   30.2560 C   0  0  0  0  0  0
  -45.1330   65.8690   34.7650 N   0  0  0  0  0  0
  -45.4310   66.1150   36.1920 C   0  0  2  0  0  0
  -44.9670   67.4830   36.6910 C   0  0  0  0  0  0
  -45.0660   67.7400   37.8760 O   0  0  0  0  0  0
  -44.8980   65.0210   37.1350 C   0  0  0  0  0  0
  -44.9840   63.6190   36.5370 C   0  0  0  0  0  0
  -46.0520   63.2550   36.0130 O   0  0  0  0  0  0
  -44.0540   62.7780   36.5570 O   0  0  0  0  0  0
  -44.4260   68.3350   35.8240 N   0  0  0  0  0  0
  -43.7670   69.5760   36.2530 C   0  0  2  0  0  0
  -44.1860   70.7140   35.3320 C   0  0  0  0  0  0
  -44.1940   71.8650   35.7710 O   0  0  0  0  0  0
  -42.2230   69.5070   36.2120 C   0  0  0  0  0  0
  -41.5430   68.4540   37.0790 C   0  0  0  0  0  0
  -41.4290   67.1180   36.6640 C   0  0  0  0  0  0
  -40.9230   68.8160   38.2730 C   0  0  0  0  0  0
  -40.7880   66.1500   37.4800 C   0  0  0  0  0  0
  -40.2960   67.8690   39.0870 C   0  0  0  0  0  0
  -40.2430   66.5470   38.6890 C   0  0  0  0  0  0
  -39.6430   65.6520   39.5280 O   0  0  0  0  0  0
  -44.4500   70.4090   34.0590 N   0  0  0  0  0  0
  -44.8000   71.4250   33.0610 C   0  0  2  0  0  0
  -46.1440   71.0690   32.4680 C   0  0  0  0  0  0
  -46.3880   69.9140   32.0920 O   0  0  0  0  0  0
  -43.8020   71.5260   31.8880 C   0  0  0  0  0  0
  -42.4120   71.9480   32.2950 C   0  0  0  0  0  0
  -41.3000   71.5000   31.6030 C   0  0  0  0  0  0
  -42.2150   72.7600   33.3880 C   0  0  0  0  0  0
  -40.0350   71.8820   31.9840 C   0  0  0  0  0  0
  -40.9380   73.1230   33.7870 C   0  0  0  0  0  0
  -39.8550   72.6840   33.0910 C   0  0  0  0  0  0
  -47.0490   71.9180   32.4490 N   0  0  0  0  0  0
  -48.4390   71.6880   32.0730 C   0  0  2  0  0  0
  -48.8430   72.5400   30.8700 C   0  0  0  0  0  0
  -48.2500   73.5700   30.5690 O   0  0  0  0  0  0
  -49.3180   72.0330   33.2770 C   0  0  0  0  0  0
  -49.0360   71.0650   34.3960 C   0  0  0  0  0  0
  -48.6270   69.7890   34.1930 N   0  0  0  0  0  0
  -49.1230   71.2850   35.7760 C   0  0  0  0  0  0
  -48.4710   69.2560   35.4200 C   0  0  0  0  0  0
  -48.7610   70.1280   36.3870 N   0  0  0  0  0  0
  -49.8590   72.0480   30.1370 N   0  0  0  0  0  0
  -50.3950   72.7570   28.9910 C   0  0  2  0  0  0
  -50.4200   74.2740   29.2190 C   0  0  0  0  0  0
  -50.5220   74.7710   30.3350 O   0  0  0  0  0  0
  -51.7950   72.2100   28.7510 C   0  0  0  0  0  0
  -51.7980   70.7720   29.2690 C   0  0  0  0  0  0
  -50.5860   70.7980   30.3200 C   0  0  0  0  0  0
  -50.2670   75.0100   28.1010 N   0  0  0  0  0  0
  -50.1360   76.4600   28.1890 C   0  0  2  0  0  0
  -51.4190   77.1290   28.6860 C   0  0  0  0  0  0
  -52.4830   77.0460   28.0840 O   0  0  0  0  0  0
  -49.7590   76.9950   26.8060 C   0  0  0  0  0  0
  -48.4550   77.7990   26.8260 C   0  0  0  0  0  0
  -48.6300   79.1770   27.4710 C   0  0  0  0  0  0
  -48.7130   80.3100   26.4380 C   0  0  0  0  0  0
  -47.5090   81.1360   26.5120 N   0  3  0  0  0  0
  -51.2890   77.7830   29.8570 N   0  0  0  0  0  0
  -52.4290   78.4790   30.4410 C   0  0  2  0  0  0
  -53.4990   78.7890   29.3930 C   0  0  0  0  0  0
  -54.6020   78.2580   29.4180 O   0  0  0  0  0  0
  -51.9250   79.7800   31.0660 C   0  0  0  0  0  0
  -51.3200   79.5590   32.4520 C   0  0  0  0  0  0
  -50.2730   78.4440   32.4550 C   0  0  0  0  0  0
  -48.8850   78.9390   32.0300 C   0  0  0  0  0  0
  -49.0250   80.0030   31.0380 N   0  3  0  0  0  0
  -53.3010   79.5830   28.4810 O   0  0  0  0  0  0
  -29.3758   50.2739   42.0060 H   0  0  0  0  0  0
  -30.4912   49.1955   41.1006 H   0  0  0  0  0  0
  -30.6896   49.4086   42.8732 H   0  0  0  0  0  0
  -30.9863   51.5036   40.7561 H   0  0  0  0  0  0
  -33.3998   51.0940   42.2389 H   0  0  0  0  0  0
  -33.0778   50.5414   40.5603 H   0  0  0  0  0  0
  -33.6933   48.5672   42.0533 H   0  0  0  0  0  0
  -33.1705   52.7626   42.3023 H   0  0  0  0  0  0
  -32.3803   53.2748   44.9786 H   0  0  0  0  0  0
  -30.1589   53.9979   44.0153 H   0  0  0  0  0  0
  -30.9886   55.3787   44.8099 H   0  0  0  0  0  0
  -31.0034   55.2317   43.0197 H   0  0  0  0  0  0
  -33.7982   54.2635   41.9261 H   0  0  0  0  0  0
  -35.9308   55.5690   43.5349 H   0  0  0  0  0  0
  -35.6143   57.8033   42.1344 H   0  0  0  0  0  0
  -35.2544   57.6431   44.5936 H   0  0  0  0  0  0
  -34.0479   58.7288   43.8240 H   0  0  0  0  0  0
  -33.5785   57.0636   44.3069 H   0  0  0  0  0  0
  -33.9094   56.8651   40.6031 H   0  0  0  0  0  0
  -32.8013   56.6120   41.9941 H   0  0  0  0  0  0
  -33.2707   58.2773   41.5112 H   0  0  0  0  0  0
  -37.0835   57.2850   41.5921 H   0  0  0  0  0  0
  -37.3440   55.3829   39.2233 H   0  0  0  0  0  0
  -39.7850   56.5320   40.7016 H   0  0  0  0  0  0
  -39.7670   55.2515   39.4420 H   0  0  0  0  0  0
  -38.3671   54.9890   42.0756 H   0  0  0  0  0  0
  -40.8059   55.3599   42.5373 H   0  0  0  0  0  0
  -40.3235   53.6772   42.9402 H   0  0  0  0  0  0
  -41.2166   54.0156   41.4188 H   0  0  0  0  0  0
  -37.7770   53.3197   40.3053 H   0  0  0  0  0  0
  -39.5090   52.8657   40.1605 H   0  0  0  0  0  0
  -38.6159   52.5273   41.6819 H   0  0  0  0  0  0
  -38.4799   56.2589   37.3253 H   0  0  0  0  0  0
  -37.3645   59.0675   37.1996 H   0  0  0  0  0  0
  -36.6463   57.4641   35.4655 H   0  0  0  0  0  0
  -38.3482   57.0111   35.1122 H   0  0  0  0  0  0
  -37.7941   58.4073   33.3223 H   0  0  0  0  0  0
  -38.6219   59.5318   34.4523 H   0  0  0  0  0  0
  -37.7058   61.2715   35.2159 H   0  0  0  0  0  0
  -35.8608   61.6852   34.9817 H   0  0  0  0  0  0
  -38.4881   60.7678   37.6128 H   0  0  0  0  0  0
  -41.3912   60.7472   37.0730 H   0  0  0  0  0  0
  -39.3086   62.8628   37.7155 H   0  0  0  0  0  0
  -40.9953   63.3302   37.3116 H   0  0  0  0  0  0
  -40.0511   61.5255   39.6080 H   0  0  0  0  0  0
  -40.8666   63.1215   39.7276 H   0  0  0  0  0  0
  -42.6716   61.5904   38.2055 H   0  0  0  0  0  0
  -42.0353   60.4141   39.4047 H   0  0  0  0  0  0
  -43.8938   61.2890   40.4843 H   0  0  0  0  0  0
  -42.5648   62.2995   41.1472 H   0  0  0  0  0  0
  -44.5069   63.6301   40.5789 H   0  0  0  0  0  0
  -44.4287   63.0430   38.8830 H   0  0  0  0  0  0
  -43.0997   64.0535   39.5459 H   0  0  0  0  0  0
  -42.6554   62.1188   35.6032 H   0  0  0  0  0  0
  -41.1105   62.2161   32.9958 H   0  0  0  0  0  0
  -44.0974   62.7499   33.2483 H   0  0  0  0  0  0
  -43.1745   62.1568   31.8260 H   0  0  0  0  0  0
  -42.7086   60.2317   33.7642 H   0  0  0  0  0  0
  -44.4260   60.6965   34.0116 H   0  0  0  0  0  0
  -43.5049   60.2702   31.1852 H   0  0  0  0  0  0
  -43.6695   58.8233   32.2368 H   0  0  0  0  0  0
  -45.9866   60.2807   32.7751 H   0  0  0  0  0  0
  -45.7368   60.5216   31.0126 H   0  0  0  0  0  0
  -47.1080   58.5641   31.4661 H   0  0  0  0  0  0
  -45.7933   57.8675   32.4726 H   0  0  0  0  0  0
  -45.5435   58.1084   30.7101 H   0  0  0  0  0  0
  -41.7065   64.1266   31.3763 H   0  0  0  0  0  0
  -40.9333   66.4180   33.1203 H   0  0  0  0  0  0
  -39.9866   65.9776   30.8392 H   0  0  0  0  0  0
  -40.7025   68.6092   30.2460 H   0  0  0  0  0  0
  -40.9745   68.4942   32.0178 H   0  0  0  0  0  0
  -42.0188   65.3713   29.6750 H   0  0  0  0  0  0
  -41.1480   66.7256   28.8787 H   0  0  0  0  0  0
  -42.6245   67.0535   29.8478 H   0  0  0  0  0  0
  -38.6335   69.1441   31.5090 H   0  0  0  0  0  0
  -38.4336   67.6499   30.5321 H   0  0  0  0  0  0
  -38.7056   67.5349   32.3040 H   0  0  0  0  0  0
  -43.7822   65.1351   31.5598 H   0  0  0  0  0  0
  -45.4113   67.4442   31.8994 H   0  0  0  0  0  0
  -47.3778   65.8229   31.9364 H   0  0  0  0  0  0
  -46.3074   64.0014   33.3944 H   0  0  0  0  0  0
  -46.1970   66.1463   29.7009 H   0  0  0  0  0  0
  -46.7856   64.4571   29.8650 H   0  0  0  0  0  0
  -45.0502   64.8338   30.1356 H   0  0  0  0  0  0
  -44.4043   65.0956   34.4807 H   0  0  0  0  0  0
  -46.5307   66.0912   36.1793 H   0  0  0  0  0  0
  -43.8412   65.2196   37.3666 H   0  0  0  0  0  0
  -45.4839   65.0220   38.0660 H   0  0  0  0  0  0
  -44.1987   61.7870   36.1019 H   0  0  0  0  0  0
  -44.4841   68.0845   34.7545 H   0  0  0  0  0  0
  -44.1140   69.7041   37.2889 H   0  0  0  0  0  0
  -41.8926   69.2953   35.1844 H   0  0  0  0  0  0
  -41.8041   70.4694   36.5409 H   0  0  0  0  0  0
  -41.8394   66.8192   35.6994 H   0  0  0  0  0  0
  -40.9271   69.8621   38.5792 H   0  0  0  0  0  0
  -40.7257   65.1100   37.1598 H   0  0  0  0  0  0
  -39.8497   68.1726   40.0339 H   0  0  0  0  0  0
  -39.5811   64.5904   39.2465 H   0  0  0  0  0  0
  -44.3971   69.3491   33.7696 H   0  0  0  0  0  0
  -44.8030   72.3665   33.6299 H   0  0  0  0  0  0
  -43.7116   70.5453   31.3981 H   0  0  0  0  0  0
  -44.1648   72.2672   31.1606 H   0  0  0  0  0  0
  -41.4283   70.8374   30.7471 H   0  0  0  0  0  0
  -43.0761   73.1234   33.9488 H   0  0  0  0  0  0
  -39.1711   71.5494   31.4085 H   0  0  0  0  0  0
  -40.8016   73.7613   34.6600 H   0  0  0  0  0  0
  -38.8502   72.9647   33.4067 H   0  0  0  0  0  0
  -46.7205   72.9229   32.7528 H   0  0  0  0  0  0
  -48.5185   70.6273   31.7928 H   0  0  0  0  0  0
  -49.0954   73.0568   33.6121 H   0  0  0  0  0  0
  -50.3775   71.9635   32.9894 H   0  0  0  0  0  0
  -49.4094   72.1592   36.3791 H   0  0  0  0  0  0
  -48.1457   68.2317   35.6017 H   0  0  0  0  0  0
  -49.7272   72.5609   28.1392 H   0  0  0  0  0  0
  -52.5270   72.8242   29.2959 H   0  0  0  0  0  0
  -52.0206   72.2392   27.6748 H   0  0  0  0  0  0
  -52.7698   70.5523   29.7352 H   0  0  0  0  0  0
  -51.6286   70.0800   28.4309 H   0  0  0  0  0  0
  -49.9086   69.9502   30.1402 H   0  0  0  0  0  0
  -50.9733   70.7462   31.3483 H   0  0  0  0  0  0
  -50.2410   74.5140   27.1195 H   0  0  0  0  0  0
  -49.3459   76.6474   28.9311 H   0  0  0  0  0  0
  -49.6281   76.1530   26.1103 H   0  0  0  0  0  0
  -50.5587   77.6542   26.4374 H   0  0  0  0  0  0
  -47.6941   77.2493   27.3994 H   0  0  0  0  0  0
  -48.1005   77.9484   25.7955 H   0  0  0  0  0  0
  -49.5586   79.1906   28.0606 H   0  0  0  0  0  0
  -47.7742   79.3847   28.1301 H   0  0  0  0  0  0
  -48.7983   79.8806   25.4289 H   0  0  0  0  0  0
  -49.5951   80.9330   26.6471 H   0  0  0  0  0  0
  -47.5737   81.9457   25.7702 H   0  0  0  0  0  0
  -46.6253   80.5157   26.3016 H   0  0  0  0  0  0
  -47.4222   81.5681   27.5199 H   0  0  0  0  0  0
  -50.3173   77.7902   30.3724 H   0  0  0  0  0  0
  -52.8566   77.7974   31.1911 H   0  0  0  0  0  0
  -51.1499   80.2202   30.4214 H   0  0  0  0  0  0
  -52.7621   80.4864   31.1676 H   0  0  0  0  0  0
  -50.8333   80.4852   32.7916 H   0  0  0  0  0  0
  -52.1155   79.2822   33.1595 H   0  0  0  0  0  0
  -50.1869   78.0246   33.4683 H   0  0  0  0  0  0
  -50.5786   77.6522   31.7552 H   0  0  0  0  0  0
  -48.3493   79.3274   32.9087 H   0  0  0  0  0  0
  -48.3162   78.1050   31.5930 H   0  0  0  0  0  0
  -48.0280   80.3557   30.7354 H   0  0  0  0  0  0
  -49.5927   80.8383   31.4739 H   0  0  0  0  0  0
  -49.5597   79.6159   30.1581 H   0  0  0  0  0  0
  -54.0928   79.7827   27.7440 H   0  0  0  0  0  0
  1  2  1  0  0  0
  1136  1  0  0  0
  1137  1  0  0  0
  1138  1  0  0  0
  2  3  1  0  0  0
  2  5  1  0  0  0
  2139  1  0  0  0
  3  4  2  0  0  0
  3  7  1  0  0  0
  5  6  1  0  0  0
  5140  1  0  0  0
  5141  1  0  0  0
  6142  1  0  0  0
  7  8  1  0  0  0
  7143  1  0  0  0
  8  9  1  0  0  0
  8 11  1  0  0  0
  8144  1  0  0  0
  9 10  2  0  0  0
  9 12  1  0  0  0
 11145  1  0  0  0
 11146  1  0  0  0
 11147  1  0  0  0
 12 13  1  0  0  0
 12148  1  0  0  0
 13 14  1  0  0  0
 13 16  1  0  0  0
 13149  1  0  0  0
 14 15  2  0  0  0
 14 19  1  0  0  0
 16 17  1  0  0  0
 16 18  1  0  0  0
 16150  1  0  0  0
 17151  1  0  0  0
 17152  1  0  0  0
 17153  1  0  0  0
 18154  1  0  0  0
 18155  1  0  0  0
 18156  1  0  0  0
 19 20  1  0  0  0
 19157  1  0  0  0
 20 21  1  0  0  0
 20 23  1  0  0  0
 20158  1  0  0  0
 21 22  2  0  0  0
 21 27  1  0  0  0
 23 24  1  0  0  0
 23159  1  0  0  0
 23160  1  0  0  0
 24 25  1  0  0  0
 24 26  1  0  0  0
 24161  1  0  0  0
 25162  1  0  0  0
 25163  1  0  0  0
 25164  1  0  0  0
 26165  1  0  0  0
 26166  1  0  0  0
 26167  1  0  0  0
 27 28  1  0  0  0
 27168  1  0  0  0
 28 29  1  0  0  0
 28 31  1  0  0  0
 28169  1  0  0  0
 29 30  2  0  0  0
 29 36  1  0  0  0
 31 32  1  0  0  0
 31170  1  0  0  0
 31171  1  0  0  0
 32 33  1  0  0  0
 32172  1  0  0  0
 32173  1  0  0  0
 33 34  2  0  0  0
 33 35  1  0  0  0
 35174  1  0  0  0
 35175  1  0  0  0
 36 37  1  0  0  0
 36176  1  0  0  0
 37 38  1  0  0  0
 37 40  1  0  0  0
 37177  1  0  0  0
 38 39  2  0  0  0
 38 45  1  0  0  0
 40 41  1  0  0  0
 40178  1  0  0  0
 40179  1  0  0  0
 41 42  1  0  0  0
 41180  1  0  0  0
 41181  1  0  0  0
 42 43  1  0  0  0
 42182  1  0  0  0
 42183  1  0  0  0
 43 44  1  0  0  0
 43184  1  0  0  0
 43185  1  0  0  0
 44186  1  0  0  0
 44187  1  0  0  0
 44188  1  0  0  0
 45 46  1  0  0  0
 45189  1  0  0  0
 46 47  1  0  0  0
 46 49  1  0  0  0
 46190  1  0  0  0
 47 48  2  0  0  0
 47 54  1  0  0  0
 49 50  1  0  0  0
 49191  1  0  0  0
 49192  1  0  0  0
 50 51  1  0  0  0
 50193  1  0  0  0
 50194  1  0  0  0
 51 52  1  0  0  0
 51195  1  0  0  0
 51196  1  0  0  0
 52 53  1  0  0  0
 52197  1  0  0  0
 52198  1  0  0  0
 53199  1  0  0  0
 53200  1  0  0  0
 53201  1  0  0  0
 54 55  1  0  0  0
 54202  1  0  0  0
 55 56  1  0  0  0
 55 58  1  0  0  0
 55203  1  0  0  0
 56 57  2  0  0  0
 56 62  1  0  0  0
 58 59  1  0  0  0
 58 60  1  0  0  0
 58204  1  0  0  0
 59 61  1  0  0  0
 59205  1  0  0  0
 59206  1  0  0  0
 60207  1  0  0  0
 60208  1  0  0  0
 60209  1  0  0  0
 61210  1  0  0  0
 61211  1  0  0  0
 61212  1  0  0  0
 62 63  1  0  0  0
 62213  1  0  0  0
 63 64  1  0  0  0
 63 66  1  0  0  0
 63214  1  0  0  0
 64 65  2  0  0  0
 64 69  1  0  0  0
 66 67  1  0  0  0
 66 68  1  0  0  0
 66215  1  0  0  0
 67216  1  0  0  0
 68217  1  0  0  0
 68218  1  0  0  0
 68219  1  0  0  0
 69 70  1  0  0  0
 69220  1  0  0  0
 70 71  1  0  0  0
 70 73  1  0  0  0
 70221  1  0  0  0
 71 72  2  0  0  0
 71 77  1  0  0  0
 73 74  1  0  0  0
 73222  1  0  0  0
 73223  1  0  0  0
 74 75  2  0  0  0
 74 76  1  0  0  0
 76224  1  0  0  0
 77 78  1  0  0  0
 77225  1  0  0  0
 78 79  1  0  0  0
 78 81  1  0  0  0
 78226  1  0  0  0
 79 80  2  0  0  0
 79 89  1  0  0  0
 81 82  1  0  0  0
 81227  1  0  0  0
 81228  1  0  0  0
 82 83  2  0  0  0
 82 84  1  0  0  0
 83 85  1  0  0  0
 83229  1  0  0  0
 84 86  2  0  0  0
 84230  1  0  0  0
 85 87  2  0  0  0
 85231  1  0  0  0
 86 87  1  0  0  0
 86232  1  0  0  0
 87 88  1  0  0  0
 88233  1  0  0  0
 89 90  1  0  0  0
 89234  1  0  0  0
 90 91  1  0  0  0
 90 93  1  0  0  0
 90235  1  0  0  0
 91 92  2  0  0  0
 91100  1  0  0  0
 93 94  1  0  0  0
 93236  1  0  0  0
 93237  1  0  0  0
 94 95  2  0  0  0
 94 96  1  0  0  0
 95 97  1  0  0  0
 95238  1  0  0  0
 96 98  2  0  0  0
 96239  1  0  0  0
 97 99  2  0  0  0
 97240  1  0  0  0
 98 99  1  0  0  0
 98241  1  0  0  0
 99242  1  0  0  0
100101  1  0  0  0
100243  1  0  0  0
101102  1  0  0  0
101104  1  0  0  0
101244  1  0  0  0
102103  2  0  0  0
102110  1  0  0  0
104105  1  0  0  0
104245  1  0  0  0
104246  1  0  0  0
105106  2  0  0  0
105107  1  0  0  0
106108  1  0  0  0
107109  2  0  0  0
107247  1  0  0  0
108109  1  0  0  0
108248  1  0  0  0
110111  1  0  0  0
110116  1  0  0  0
111112  1  0  0  0
111114  1  0  0  0
111249  1  0  0  0
112113  2  0  0  0
112117  1  0  0  0
114115  1  0  0  0
114250  1  0  0  0
114251  1  0  0  0
115116  1  0  0  0
115252  1  0  0  0
115253  1  0  0  0
116254  1  0  0  0
116255  1  0  0  0
117118  1  0  0  0
117256  1  0  0  0
118119  1  0  0  0
118121  1  0  0  0
118257  1  0  0  0
119120  2  0  0  0
119126  1  0  0  0
121122  1  0  0  0
121258  1  0  0  0
121259  1  0  0  0
122123  1  0  0  0
122260  1  0  0  0
122261  1  0  0  0
123124  1  0  0  0
123262  1  0  0  0
123263  1  0  0  0
124125  1  0  0  0
124264  1  0  0  0
124265  1  0  0  0
125266  1  0  0  0
125267  1  0  0  0
125268  1  0  0  0
126127  1  0  0  0
126269  1  0  0  0
127128  1  0  0  0
127130  1  0  0  0
127270  1  0  0  0
128129  2  0  0  0
128135  1  0  0  0
130131  1  0  0  0
130271  1  0  0  0
130272  1  0  0  0
131132  1  0  0  0
131273  1  0  0  0
131274  1  0  0  0
132133  1  0  0  0
132275  1  0  0  0
132276  1  0  0  0
133134  1  0  0  0
133277  1  0  0  0
133278  1  0  0  0
134279  1  0  0  0
134280  1  0  0  0
134281  1  0  0  0
135282  1  0  0  0
M  CHG  5   1   1  44   1  53   1 125   1 134   1
M  END
> <s_m_source_file>
../1vyj_ligand.sdf

> <i_m_source_file_index>
1

> <s_epik_input>
W09IXVtDSDJdW0NASF0oW05IMytdKUMoPU8pW05IXVtDQEBIXShbQ0gzXSlDKD1PKVtOSF1bQ0BASF0oW0NIXShbQ0gzXSlbQ0gzXSlDKD1PKVtOSF1bQ0BASF0oW0NIMl1bQ0hdKFtDSDNdKVtDSDNdKUMoPU8pW05IXVtDQEBIXShbQ0gyXVtDSDJdQyg9TylbTkgyXSlDKD1PKVtOSF1bQ0BASF0oW0NIMl1bQ0gyXVtDSDJdW0NIMl1bTkgzK10pQyg9TylbTkhdW0NAQEhdKFtDSDJdW0NIMl1bQ0gyXVtDSDJdW05IMytdKUMoPU8pW05IXVtDQEBIXShbQ0BASF0oW0NIM10pW0NIMl1bQ0gzXSlDKD1PKVtOSF1bQ0BASF0oW0NASF0oW09IXSlbQ0gzXSlDKD1PKVtOSF1bQ0BASF0oW0NIMl1DKD1PKVtPSF0pQyg9TylbTkhdW0NAQEhdKFtDSDJdYzFbY0hdW2NIXWMoW09IXSlbY0hdW2NIXTEpQyg9TylbTkhdW0NAQEhdKFtDSDJdYzJbY0hdW2NIXVtjSF1bY0hdW2NIXTIpQyg9TylbTkhdW0NAQEhdKFtDSDJdQzM9TltDSDJdTj1bQ0hdMylDKD1PKU40W0NAQEhdKFtDSDJdW0NIMl1bQ0gyXTQpQyg9TylbTkhdW0NAQEhdKFtDSDJdW0NIMl1bQ0gyXVtDSDJdW05IMytdKUMoPU8pW05IXVtDQEhdKEMoPU8pW09IXSlbQ0gyXVtDSDJdW0NIMl1bQ0gyXVtOSDMrXQ==

> <s_epik_cmdline>
J2VwaWtfYXBwJywgJy1pbWFlJywgJ2xpZ2FuZF9wcm8ubWFlJywgJy1vbWFlJywgJ2xpZ2FuZF9wcmVwLm1hZScsICctbXMnLCAnMScsICctcGgnLCAnNycsICctcGh0JywgJzAuNScsICctbnQn

> <s_epik_pKa_notes>
Molecule size exceeds maximum supported for generating protonation states

> <s_epik_Chemistry_Notes>
This compound has an imine and may undergo hydrolysis.

$$$$
