1vyw_ligand
                    3D
 Schrodinger Suite 2020-3.
 39 42  0  0  1  0            999 V2000
  -14.2880  203.6300  112.0780 C   0  0  0  0  0  0
  -15.1160  204.8880  111.8320 C   0  0  0  0  0  0
  -14.1370  204.3990  110.7650 C   0  0  0  0  0  0
  -12.8620  205.2490  110.5460 C   0  0  0  0  0  0
  -11.9040  205.6350  111.4730 C   0  0  0  0  0  0
  -10.9660  206.3880  110.7680 C   0  0  3  0  0  0
  -11.3450  206.4530  109.4490 N   0  3  0  0  0  0
  -12.4870  205.7650  109.3270 N   0  0  0  0  0  0
   -9.7770  207.0220  111.3320 N   0  0  0  0  0  0
   -9.2810  207.0700  112.5820 C   0  0  0  0  0  0
   -7.9730  207.8680  112.7690 C   0  0  0  0  0  0
   -6.8060  206.9370  113.0810 C   0  0  0  0  0  0
   -5.9760  206.4610  112.0280 C   0  0  0  0  0  0
   -4.9020  205.5870  112.3160 C   0  0  0  0  0  0
   -4.6480  205.1820  113.7330 C   0  0  0  0  0  0
   -5.4940  205.6730  114.7540 C   0  0  0  0  0  0
   -6.5600  206.5420  114.4320 C   0  0  0  0  0  0
   -3.5670  204.3020  114.0230 C   0  0  0  0  0  0
   -4.0550  205.0930  111.2910 C   0  0  0  0  0  0
   -2.9830  204.2160  111.6190 C   0  0  0  0  0  0
   -2.7420  203.8280  112.9670 C   0  0  0  0  0  0
   -9.8080  206.5270  113.5570 O   0  0  0  0  0  0
  -13.6606  203.7727  112.9702 H   0  0  0  0  0  0
  -14.9601  202.7736  112.2356 H   0  0  0  0  0  0
  -16.1861  204.6362  111.8714 H   0  0  0  0  0  0
  -14.8865  205.6352  112.6059 H   0  0  0  0  0  0
  -14.2082  204.1190  109.7036 H   0  0  0  0  0  0
  -12.0018  205.3289  112.5250 H   0  0  0  0  0  0
   -9.0970  207.5921  110.6820 H   0  0  0  0  0  0
   -7.7461  208.4216  111.8459 H   0  0  0  0  0  0
   -8.0917  208.5768  113.6018 H   0  0  0  0  0  0
   -6.1677  206.7696  111.0003 H   0  0  0  0  0  0
   -5.3235  205.3808  115.7902 H   0  0  0  0  0  0
   -7.2050  206.9171  115.2265 H   0  0  0  0  0  0
   -3.3729  203.9932  115.0502 H   0  0  0  0  0  0
   -4.2247  205.3844  110.2545 H   0  0  0  0  0  0
   -2.3377  203.8363  110.8269 H   0  0  0  0  0  0
   -1.9127  203.1576  113.1929 H   0  0  0  0  0  0
  -10.8971  206.9360  108.5680 H   0  0  0  0  0  0
  1  2  1  0  0  0
  1  3  1  0  0  0
  1 23  1  0  0  0
  1 24  1  0  0  0
  2  3  1  0  0  0
  2 25  1  0  0  0
  2 26  1  0  0  0
  3  4  1  0  0  0
  3 27  1  0  0  0
  4  5  2  0  0  0
  4  8  1  0  0  0
  5  6  1  0  0  0
  5 28  1  0  0  0
  6  7  1  0  0  0
  6  9  1  0  0  0
  7  8  2  0  0  0
  7 39  1  0  0  0
  9 10  1  0  0  0
  9 29  1  0  0  0
 10 11  1  0  0  0
 10 22  2  0  0  0
 11 12  1  0  0  0
 11 30  1  0  0  0
 11 31  1  0  0  0
 12 13  2  0  0  0
 12 17  1  0  0  0
 13 14  1  0  0  0
 13 32  1  0  0  0
 14 15  2  0  0  0
 14 19  1  0  0  0
 15 16  1  0  0  0
 15 18  1  0  0  0
 16 17  2  0  0  0
 16 33  1  0  0  0
 17 34  1  0  0  0
 18 21  2  0  0  0
 18 35  1  0  0  0
 19 20  2  0  0  0
 19 36  1  0  0  0
 20 21  1  0  0  0
 20 37  1  0  0  0
 21 38  1  0  0  0
M  CHG  1   7   1
M  END
> <s_m_source_file>
../1vyw_ligand.sdf

> <i_m_source_file_index>
1

> <s_epik_input>
W0NIMl0xW0NIMl1bQ0hdMUMyPVtDSF1bQ0hdKE49TjIpW05IXUMoPU8pW0NIMl1jKFtjSF0zKVtjSF1bY0hdYyhjMzQpW2NIXVtjSF1bY0hdW2NIXTQ=

> <s_epik_cmdline>
J2VwaWtfYXBwJywgJy1pbWFlJywgJ2xpZ2FuZF9wcm8ubWFlJywgJy1vbWFlJywgJ2xpZ2FuZF9wcmVwLm1hZScsICctbXMnLCAnMScsICctcGgnLCAnNycsICctcGh0JywgJzAuNScsICctbnQn

> <r_lp_tautomer_probability>
1

> <r_epik_Ionization_Penalty>
  0.0000

> <r_epik_Ionization_Penalty_Charging>
  0.0000

> <r_epik_Ionization_Penalty_Neutral>
  0.0000

> <r_epik_State_Penalty>
 -0.0000

> <r_epik_Charging_Adjusted_Penalty>
1.09202602910095e-07

> <i_epik_Tot_Q>
1

> <i_epik_Tot_abs_Q>
1

$$$$
