1vyz_ligand
                    3D
 Schrodinger Suite 2020-3.
 30 32  0  0  1  0            999 V2000
   13.3460   45.8330   22.1760 C   0  0  0  0  0  0
   14.6380   45.0460   21.8820 C   0  0  0  0  0  0
   12.6940   45.9870   23.3940 C   0  0  0  0  0  0
   12.6150   46.5250   21.2280 N   0  0  0  0  0  0
   15.7760   45.2660   22.8960 C   0  0  0  0  0  0
   15.2540   43.8530   22.5490 C   0  0  0  0  0  0
   11.5690   46.7760   23.1460 C   0  0  3  0  0  0
   11.5360   47.1000   21.8090 N   0  3  0  0  0  0
   10.5930   47.1820   24.1540 N   0  0  0  0  0  0
   10.2410   46.6320   25.3470 C   0  0  0  0  0  0
    9.0630   47.2380   26.1210 C   0  0  0  0  0  0
   10.8790   45.6680   25.8050 O   0  0  0  0  0  0
    8.3470   46.3920   27.0380 C   0  0  0  0  0  0
    8.6470   48.6130   26.0220 C   0  0  0  0  0  0
    7.2720   46.8960   27.8190 C   0  0  0  0  0  0
    7.5730   49.1110   26.8040 C   0  0  0  0  0  0
    6.8900   48.2510   27.6990 C   0  0  0  0  0  0
   14.3885   45.1465   20.8154 H   0  0  0  0  0  0
   13.1040   45.5177   24.3005 H   0  0  0  0  0  0
   16.6175   45.7707   22.3989 H   0  0  0  0  0  0
   15.4124   45.8902   23.7256 H   0  0  0  0  0  0
   14.4820   43.3088   23.1128 H   0  0  0  0  0  0
   15.6871   43.1893   21.7861 H   0  0  0  0  0  0
    9.9878   48.0876   24.0003 H   0  0  0  0  0  0
    8.6343   45.3451   27.1356 H   0  0  0  0  0  0
    9.1655   49.2820   25.3352 H   0  0  0  0  0  0
    6.7433   46.2386   28.5092 H   0  0  0  0  0  0
    7.2734   50.1553   26.7162 H   0  0  0  0  0  0
    6.0653   48.6368   28.2983 H   0  0  0  0  0  0
   10.8367   47.6949   21.2031 H   0  0  0  0  0  0
  1  2  1  0  0  0
  1  3  2  0  0  0
  1  4  1  0  0  0
  2  5  1  0  0  0
  2  6  1  0  0  0
  2 18  1  0  0  0
  3  7  1  0  0  0
  3 19  1  0  0  0
  4  8  2  0  0  0
  5  6  1  0  0  0
  5 20  1  0  0  0
  5 21  1  0  0  0
  6 22  1  0  0  0
  6 23  1  0  0  0
  7  8  1  0  0  0
  7  9  1  0  0  0
  8 30  1  0  0  0
  9 10  1  0  0  0
  9 24  1  0  0  0
 10 11  1  0  0  0
 10 12  2  0  0  0
 11 13  2  0  0  0
 11 14  1  0  0  0
 13 15  1  0  0  0
 13 25  1  0  0  0
 14 16  2  0  0  0
 14 26  1  0  0  0
 15 17  2  0  0  0
 15 27  1  0  0  0
 16 17  1  0  0  0
 16 28  1  0  0  0
 17 29  1  0  0  0
M  CHG  1   8   1
M  END
> <s_m_source_file>
../1vyz_ligand.sdf

> <i_m_source_file_index>
1

> <s_epik_input>
W0NIMl0xW0NIMl1bQ0hdMUMyPVtDSF1bQ0hdKE49TjIpW05IXUMoPU8pYzNbY0hdW2NIXVtjSF1bY0hdW2NIXTM=

> <s_epik_cmdline>
J2VwaWtfYXBwJywgJy1pbWFlJywgJ2xpZ2FuZF9wcm8ubWFlJywgJy1vbWFlJywgJ2xpZ2FuZF9wcmVwLm1hZScsICctbXMnLCAnMScsICctcGgnLCAnNycsICctcGh0JywgJzAuNScsICctbnQn

> <r_lp_tautomer_probability>
1

> <r_epik_Ionization_Penalty>
  0.0000

> <r_epik_Ionization_Penalty_Charging>
  0.0000

> <r_epik_Ionization_Penalty_Neutral>
  0.0000

> <r_epik_State_Penalty>
 -0.0000

> <r_epik_Charging_Adjusted_Penalty>
1.10862869571298e-06

> <i_epik_Tot_Q>
1

> <i_epik_Tot_abs_Q>
1

$$$$
