1w0x_ligand
                    3D
 Schrodinger Suite 2020-3.
 40 42  0  0  1  0            999 V2000
  107.0840  100.2570   81.1410 N   0  0  0  0  0  0
  108.0000  100.9480   80.3360 C   0  0  0  0  0  0
  107.4580  101.3740   79.1990 N   0  0  0  0  0  0
  106.1350  100.9110   79.2460 C   0  0  0  0  0  0
  105.8950  100.2660   80.4270 C   0  0  0  0  0  0
  105.0440  100.9680   78.3580 C   0  0  0  0  0  0
  103.9470  100.3120   78.6750 N   0  0  0  0  0  0
  103.7070   99.7520   79.8650 C   0  0  0  0  0  0
  104.6740   99.7320   80.8190 N   0  0  0  0  0  0
  107.3030   99.5740   82.4900 C   0  0  0  0  0  0
  102.4930   99.0410   80.0920 N   0  0  0  0  0  0
  101.5880   98.7140   78.9120 C   0  0  0  0  0  0
  100.8840   97.3220   78.7590 C   0  0  0  0  0  0
   99.4610   97.6010   78.7240 O   0  0  0  0  0  0
  105.0290  101.6760   77.2000 N   0  0  0  0  0  0
  104.0080  101.3500   76.1800 C   0  0  0  0  0  0
  101.6240  101.7240   76.5510 C   0  0  0  0  0  0
  100.4600  102.5470   76.5070 C   0  0  0  0  0  0
  100.6270  103.8740   76.1430 C   0  0  0  0  0  0
  101.9520  104.3680   75.8390 C   0  0  0  0  0  0
  103.0670  103.5270   75.8960 C   0  0  0  0  0  0
  102.8890  102.2430   76.2340 C   0  0  0  0  0  0
  109.0409  101.1173   80.6114 H   0  0  0  0  0  0
  108.3414   99.7322   82.8168 H   0  0  0  0  0  0
  107.1101   98.4956   82.3906 H   0  0  0  0  0  0
  106.6152  100.0025   83.2338 H   0  0  0  0  0  0
  102.2072   98.7289   81.1073 H   0  0  0  0  0  0
  100.7426   99.4175   78.8924 H   0  0  0  0  0  0
  102.1596   98.8015   77.9762 H   0  0  0  0  0  0
  101.2196   96.8417   77.8280 H   0  0  0  0  0  0
  101.1446   96.6832   79.6157 H   0  0  0  0  0  0
   98.7411   96.7757   78.6206 H   0  0  0  0  0  0
  105.7570  102.4790   77.0124 H   0  0  0  0  0  0
  104.4554  101.4212   75.1776 H   0  0  0  0  0  0
  103.6386  100.3271   76.3448 H   0  0  0  0  0  0
  101.5298  100.6759   76.8352 H   0  0  0  0  0  0
   99.4756  102.1473   76.7506 H   0  0  0  0  0  0
   99.7662  104.5403   76.0863 H   0  0  0  0  0  0
  102.0832  105.4137   75.5608 H   0  0  0  0  0  0
  104.0626  103.9087   75.6697 H   0  0  0  0  0  0
  1  2  1  0  0  0
  1  5  1  0  0  0
  1 10  1  0  0  0
  2  3  2  0  0  0
  2 23  1  0  0  0
  3  4  1  0  0  0
  4  5  2  0  0  0
  4  6  1  0  0  0
  5  9  1  0  0  0
  6  7  2  0  0  0
  6 15  1  0  0  0
  7  8  1  0  0  0
  8  9  2  0  0  0
  8 11  1  0  0  0
 10 24  1  0  0  0
 10 25  1  0  0  0
 10 26  1  0  0  0
 11 12  1  0  0  0
 11 27  1  0  0  0
 12 13  1  0  0  0
 12 28  1  0  0  0
 12 29  1  0  0  0
 13 14  1  0  0  0
 13 30  1  0  0  0
 13 31  1  0  0  0
 14 32  1  0  0  0
 15 16  1  0  0  0
 15 33  1  0  0  0
 16 22  1  0  0  0
 16 34  1  0  0  0
 16 35  1  0  0  0
 17 18  2  0  0  0
 17 22  1  0  0  0
 17 36  1  0  0  0
 18 19  1  0  0  0
 18 37  1  0  0  0
 19 20  2  0  0  0
 19 38  1  0  0  0
 20 21  1  0  0  0
 20 39  1  0  0  0
 21 22  2  0  0  0
 21 40  1  0  0  0
M  END
> <s_m_source_file>
../1w0x_ligand.sdf

> <i_m_source_file_index>
1

> <s_epik_input>
bjFbY0hdbihbQ0gzXSljKGMxMiluYyhbTkhdW0NIMl1bQ0gyXVtPSF0pbmMyW05IXVtDSDJdYzNbY0hdW2NIXVtjSF1bY0hdW2NIXTM=

> <s_epik_cmdline>
J2VwaWtfYXBwJywgJy1pbWFlJywgJ2xpZ2FuZF9wcm8ubWFlJywgJy1vbWFlJywgJ2xpZ2FuZF9wcmVwLm1hZScsICctbXMnLCAnMScsICctcGgnLCAnNycsICctcGh0JywgJzAuNScsICctbnQn

> <r_epik_Ionization_Penalty>
  0.0161

> <r_epik_Ionization_Penalty_Charging>
  0.0000

> <r_epik_Ionization_Penalty_Neutral>
  0.0161

> <r_epik_State_Penalty>
  0.0087

> <r_epik_Charging_Adjusted_Penalty>
0.00869784526459579

> <i_epik_Tot_Q>
0

> <i_epik_Tot_abs_Q>
0

$$$$
