1w0y_ligand
                    3D
 Schrodinger Suite 2020-3.
 59 61  0  0  1  0            999 V2000
   29.8940    6.6810   15.0960 C   0  0  0  0  0  0
   29.3940    7.6860   15.8290 N   0  3  0  0  0  0
   30.2260    5.5920   15.8250 N   0  0  0  0  0  0
   30.2090    6.9370   13.6710 C   0  0  0  0  0  0
   29.4770    7.9530   12.9940 C   0  0  0  0  0  0
   29.6280    8.1420   11.6330 C   0  0  0  0  0  0
   30.5090    7.3190   10.9230 C   0  0  0  0  0  0
   30.7790    7.5770    9.5560 N   0  0  0  0  0  0
   31.7020    6.6900    8.7660 C   0  0  0  0  0  0
   38.1770    7.7270    9.5410 C   0  0  0  0  0  0
   38.4750    6.9510   10.7710 C   0  0  0  0  0  0
   37.7260    7.0730   11.9080 C   0  0  0  0  0  0
   38.0040    6.3000   13.0250 C   0  0  0  0  0  0
   39.0420    5.3970   13.0020 C   0  0  0  0  0  0
   39.5050    6.0500   10.7570 C   0  0  0  0  0  0
   39.7920    5.2820   11.8540 C   0  0  0  0  0  0
   33.1490    7.1280    8.8990 C   0  0  0  0  0  0
   35.4970    6.6340    9.4050 C   0  0  0  0  0  0
   34.2010    6.2070    9.1790 C   0  0  0  0  0  0
   33.9440    4.8440    9.3400 N   0  0  0  0  0  0
   33.7020    3.8520    7.9700 S   0  0  0  0  0  0
   35.3440    3.5370    7.3820 C   0  0  0  0  0  0
   32.9530    4.5850    6.9730 O   0  0  0  0  0  0
   33.1670    2.5920    8.3100 O   0  0  0  0  0  0
   35.7830    8.0010    9.3180 C   0  0  0  0  0  0
   37.0110    8.5270    9.6310 O   0  0  0  0  0  0
   33.4640    8.5070    8.7960 C   0  0  0  0  0  0
   34.7970    8.9390    8.9920 C   0  0  0  0  0  0
   35.2390   10.2440    8.7780 O   0  0  0  0  0  0
   34.3570   11.2760    8.3370 C   0  0  0  0  0  0
   31.2490    6.3180   11.5960 C   0  0  0  0  0  0
   31.1120    6.1260   12.9430 C   0  0  0  0  0  0
   29.1507    7.5251   16.8896 H   0  0  0  0  0  0
   29.9285    5.5261   16.8820 H   0  0  0  0  0  0
   30.7936    4.7718   15.3612 H   0  0  0  0  0  0
   28.7908    8.5881   13.5542 H   0  0  0  0  0  0
   29.0674    8.9229   11.1191 H   0  0  0  0  0  0
   30.3012    8.4423    9.0734 H   0  0  0  0  0  0
   31.6178    5.6557    9.1308 H   0  0  0  0  0  0
   31.4248    6.7272    7.7021 H   0  0  0  0  0  0
   39.0170    8.4022    9.3209 H   0  0  0  0  0  0
   38.0315    7.0359    8.6977 H   0  0  0  0  0  0
   36.9016    7.7854   11.9368 H   0  0  0  0  0  0
   37.3981    6.4080   13.9246 H   0  0  0  0  0  0
   39.2657    4.7849   13.8757 H   0  0  0  0  0  0
   40.1083    5.9416    9.8557 H   0  0  0  0  0  0
   40.6204    4.5746   11.8175 H   0  0  0  0  0  0
   36.2823    5.9178    9.6468 H   0  0  0  0  0  0
   33.8974    4.4089   10.3492 H   0  0  0  0  0  0
   35.8203    4.4870    7.0980 H   0  0  0  0  0  0
   35.2987    2.8732    6.5060 H   0  0  0  0  0  0
   35.9320    3.0553    8.1771 H   0  0  0  0  0  0
   32.6823    9.2312    8.5667 H   0  0  0  0  0  0
   34.9163   12.2178    8.2356 H   0  0  0  0  0  0
   33.5490   11.4067    9.0719 H   0  0  0  0  0  0
   33.9260   10.9988    7.3636 H   0  0  0  0  0  0
   31.9389    5.6903   11.0320 H   0  0  0  0  0  0
   31.6925    5.3559   13.4510 H   0  0  0  0  0  0
   29.2270    8.6715   15.3698 H   0  0  0  0  0  0
  1  2  2  0  0  0
  1  3  1  0  0  0
  1  4  1  0  0  0
  2 33  1  0  0  0
  2 59  1  0  0  0
  3 34  1  0  0  0
  3 35  1  0  0  0
  4  5  2  0  0  0
  4 32  1  0  0  0
  5  6  1  0  0  0
  5 36  1  0  0  0
  6  7  2  0  0  0
  6 37  1  0  0  0
  7  8  1  0  0  0
  7 31  1  0  0  0
  8  9  1  0  0  0
  8 38  1  0  0  0
  9 17  1  0  0  0
  9 39  1  0  0  0
  9 40  1  0  0  0
 10 11  1  0  0  0
 10 26  1  0  0  0
 10 41  1  0  0  0
 10 42  1  0  0  0
 11 12  2  0  0  0
 11 15  1  0  0  0
 12 13  1  0  0  0
 12 43  1  0  0  0
 13 14  2  0  0  0
 13 44  1  0  0  0
 14 16  1  0  0  0
 14 45  1  0  0  0
 15 16  2  0  0  0
 15 46  1  0  0  0
 16 47  1  0  0  0
 17 19  2  0  0  0
 17 27  1  0  0  0
 18 19  1  0  0  0
 18 25  2  0  0  0
 18 48  1  0  0  0
 19 20  1  0  0  0
 20 21  1  0  0  0
 20 49  1  0  0  0
 21 22  1  0  0  0
 21 23  2  0  0  0
 21 24  2  0  0  0
 22 50  1  0  0  0
 22 51  1  0  0  0
 22 52  1  0  0  0
 25 26  1  0  0  0
 25 28  1  0  0  0
 27 28  2  0  0  0
 27 53  1  0  0  0
 28 29  1  0  0  0
 29 30  1  0  0  0
 30 54  1  0  0  0
 30 55  1  0  0  0
 30 56  1  0  0  0
 31 32  2  0  0  0
 31 57  1  0  0  0
 32 58  1  0  0  0
M  CHG  1   2   1
M  END
> <s_m_source_file>
../1w0y_ligand.sdf

> <i_m_source_file_index>
1

> <s_epik_input>
W0hdXE49QyhcW05IMl0pYzFbY0hdW2NIXWMoW2NIXVtjSF0xKVtOSF1bQ0gyXWMyYyhbTkhdUyg9TykoPU8pW0NIM10pW2NIXWMoYyhbY0hdMilPW0NIM10pT1tDSDJdYzNbY0hdW2NIXVtjSF1bY0hdW2NIXTM=

> <s_epik_cmdline>
J2VwaWtfYXBwJywgJy1pbWFlJywgJ2xpZ2FuZF9wcm8ubWFlJywgJy1vbWFlJywgJ2xpZ2FuZF9wcmVwLm1hZScsICctbXMnLCAnMScsICctcGgnLCAnNycsICctcGh0JywgJzAuNScsICctbnQn

> <r_lp_tautomer_probability>
1

> <r_epik_Ionization_Penalty>
  0.0011

> <r_epik_Ionization_Penalty_Charging>
  0.0003

> <r_epik_Ionization_Penalty_Neutral>
  0.0008

> <r_epik_State_Penalty>
 -0.0000

> <r_epik_Charging_Adjusted_Penalty>
0.0003115973184836

> <i_epik_Tot_Q>
1

> <i_epik_Tot_abs_Q>
1

> <s_epik_Chemistry_Notes>
This compound has an imine and may undergo hydrolysis.

$$$$
