1w10_ligand
                    3D
 Schrodinger Suite 2020-3.
 62 61  0  0  1  0            999 V2000
   34.0800    4.8240   27.4120 N   0  3  0  0  0  0
   32.8460    4.4350   27.7720 C   0  0  0  0  0  0
   32.6280    3.1070   27.9330 N   0  0  0  0  0  0
   31.9280    5.3870   27.9520 N   0  0  0  0  0  0
   30.6340    5.0910   28.3970 C   0  0  0  0  0  0
   29.8170    6.4040   28.3990 C   0  0  0  0  0  0
   28.3350    6.1510   28.7610 C   0  0  0  0  0  0
   27.6410    7.5130   28.9680 C   0  0  1  0  0  0
   26.1840    7.4370   29.0710 C   0  0  0  0  0  0
   25.4310    8.3590   29.4320 O   0  0  0  0  0  0
   28.1330    8.1590   30.1550 N   0  0  0  0  0  0
   28.4260    9.4420   30.1350 C   0  0  0  0  0  0
   28.3660   10.1580   29.1010 O   0  0  0  0  0  0
   28.8520   10.0870   31.3850 C   0  0  2  0  0  0
   27.6270   10.8700   31.9120 C   0  0  0  0  0  0
   29.8930   11.0170   31.1460 N   0  0  0  0  0  0
   31.1120   10.7280   30.7190 C   0  0  0  0  0  0
   31.4080    9.5520   30.4560 O   0  0  0  0  0  0
   32.1030   11.7930   30.5570 C   0  0  1  0  0  0
   32.8280   12.1470   31.8800 C   0  0  0  0  0  0
   33.4680   10.9340   32.3030 O   0  0  0  0  0  0
   33.0810   11.3930   29.6090 N   0  0  0  0  0  0
   33.1830   11.8550   28.3880 C   0  0  0  0  0  0
   34.1030   11.4360   27.6680 O   0  0  0  0  0  0
   32.3870   12.7000   27.9110 O   0  0  0  0  0  0
   32.5690   13.7200   27.0490 C   0  0  0  0  0  0
   31.4140   13.7480   26.0070 C   0  0  0  0  0  0
   31.8850   12.8950   24.7950 C   0  0  0  0  0  0
   31.1320   15.1910   25.5150 C   0  0  0  0  0  0
   34.8686    4.0738   27.2526 H   0  0  0  0  0  0
   33.4454    2.3908   27.7627 H   0  0  0  0  0  0
   31.6337    2.7454   28.2339 H   0  0  0  0  0  0
   32.2120    6.4284   27.7403 H   0  0  0  0  0  0
   30.1722    4.3574   27.7198 H   0  0  0  0  0  0
   30.6825    4.6723   29.4130 H   0  0  0  0  0  0
   30.2415    7.0989   29.1386 H   0  0  0  0  0  0
   29.8572    6.8624   27.3999 H   0  0  0  0  0  0
   27.8463    5.6017   27.9428 H   0  0  0  0  0  0
   28.2795    5.5575   29.6855 H   0  0  0  0  0  0
   27.8588    8.1495   28.0977 H   0  0  0  0  0  0
   25.7628    6.4591   28.7947 H   0  0  0  0  0  0
   28.2649    7.5807   31.0814 H   0  0  0  0  0  0
   29.2817    9.3346   32.0627 H   0  0  0  0  0  0
   26.8008   10.1704   32.1067 H   0  0  0  0  0  0
   27.3126   11.6085   31.1598 H   0  0  0  0  0  0
   27.8963   11.3880   32.8443 H   0  0  0  0  0  0
   29.7216   12.0901   31.3163 H   0  0  0  0  0  0
   31.5533   12.6508   30.1424 H   0  0  0  0  0  0
   33.5621   12.9447   31.6937 H   0  0  0  0  0  0
   32.0916   12.4921   32.6207 H   0  0  0  0  0  0
   34.0580   10.9182   33.2313 H   0  0  0  0  0  0
   33.8327   10.6369   29.8799 H   0  0  0  0  0  0
   32.5802   14.6704   27.6027 H   0  0  0  0  0  0
   33.5270   13.5901   26.5242 H   0  0  0  0  0  0
   30.4901   13.3617   26.4621 H   0  0  0  0  0  0
   32.0896   11.8667   25.1278 H   0  0  0  0  0  0
   32.8014   13.3328   24.3725 H   0  0  0  0  0  0
   31.0972   12.8821   24.0274 H   0  0  0  0  0  0
   30.7973   15.8082   26.3618 H   0  0  0  0  0  0
   30.3472   15.1689   24.7446 H   0  0  0  0  0  0
   32.0514   15.6196   25.0896 H   0  0  0  0  0  0
   34.3022    5.8928   27.2765 H   0  0  0  0  0  0
  1  2  2  0  0  0
  1 30  1  0  0  0
  1 62  1  0  0  0
  2  3  1  0  0  0
  2  4  1  0  0  0
  3 31  1  0  0  0
  3 32  1  0  0  0
  4  5  1  0  0  0
  4 33  1  0  0  0
  5  6  1  0  0  0
  5 34  1  0  0  0
  5 35  1  0  0  0
  6  7  1  0  0  0
  6 36  1  0  0  0
  6 37  1  0  0  0
  7  8  1  0  0  0
  7 38  1  0  0  0
  7 39  1  0  0  0
  8  9  1  0  0  0
  8 11  1  0  0  0
  8 40  1  0  0  0
  9 10  2  0  0  0
  9 41  1  0  0  0
 11 12  1  0  0  0
 11 42  1  0  0  0
 12 13  2  0  0  0
 12 14  1  0  0  0
 14 15  1  0  0  0
 14 16  1  0  0  0
 14 43  1  0  0  0
 15 44  1  0  0  0
 15 45  1  0  0  0
 15 46  1  0  0  0
 16 17  1  0  0  0
 16 47  1  0  0  0
 17 18  2  0  0  0
 17 19  1  0  0  0
 19 20  1  0  0  0
 19 22  1  0  0  0
 19 48  1  0  0  0
 20 21  1  0  0  0
 20 49  1  0  0  0
 20 50  1  0  0  0
 21 51  1  0  0  0
 22 23  1  0  0  0
 22 52  1  0  0  0
 23 24  2  0  0  0
 23 25  1  0  0  0
 25 26  1  0  0  0
 26 27  1  0  0  0
 26 53  1  0  0  0
 26 54  1  0  0  0
 27 28  1  0  0  0
 27 29  1  0  0  0
 27 55  1  0  0  0
 28 56  1  0  0  0
 28 57  1  0  0  0
 28 58  1  0  0  0
 29 59  1  0  0  0
 29 60  1  0  0  0
 29 61  1  0  0  0
M  CHG  1   1   1
M  END
> <s_m_source_file>
../1w10_ligand.sdf

> <i_m_source_file_index>
1

> <s_epik_input>
W0hdL049QygvW05IMl0pW05IXVtDSDJdW0NIMl1bQ0gyXVtDQEBIXShbQ0hdPU8pW05IXUMoPU8pW0NASF0oW0NIM10pW05IXUMoPU8pW0NAQEhdKFtDSDJdW09IXSlbTkhdQyg9TylPW0NIMl1bQ0hdKFtDSDNdKVtDSDNd

> <s_epik_cmdline>
J2VwaWtfYXBwJywgJy1pbWFlJywgJ2xpZ2FuZF9wcm8ubWFlJywgJy1vbWFlJywgJ2xpZ2FuZF9wcmVwLm1hZScsICctbXMnLCAnMScsICctcGgnLCAnNycsICctcGh0JywgJzAuNScsICctbnQn

> <r_lp_tautomer_probability>
1

> <r_epik_Ionization_Penalty>
  0.0003

> <r_epik_Ionization_Penalty_Charging>
  0.0000

> <r_epik_Ionization_Penalty_Neutral>
  0.0003

> <r_epik_State_Penalty>
 -0.0000

> <r_epik_Charging_Adjusted_Penalty>
1.67815425768434e-05

> <i_epik_Tot_Q>
1

> <i_epik_Tot_abs_Q>
1

> <s_epik_Chemistry_Notes>
This compound has an ester and may undergo hydrolysis at high or low pH. This compound has an imine and may undergo hydrolysis.

$$$$
