1w11_ligand
                    3D
 Schrodinger Suite 2020-3.
 60 61  0  0  1  0            999 V2000
   28.4620    8.1490   29.6750 N   0  0  0  0  0  0
   34.2760    4.7210   26.7910 N   0  0  0  0  0  0
   33.1130    4.2970   27.3250 C   0  0  0  0  0  0
   33.0430    2.9720   27.5180 N   0  3  0  0  0  0
   32.0250    5.1160   27.6680 C   0  0  0  0  0  0
   31.9470    6.4710   27.3000 C   0  0  0  0  0  0
   30.7480    7.1680   27.5350 C   0  0  0  0  0  0
   29.6660    6.5930   28.2340 C   0  0  0  0  0  0
   29.8080    5.2800   28.6940 C   0  0  0  0  0  0
   30.9620    4.5500   28.4020 C   0  0  0  0  0  0
   28.3800    7.3430   28.4950 C   0  0  0  0  0  0
   28.8020    9.4820   29.6000 C   0  0  0  0  0  0
   29.0000   10.0970   28.5810 O   0  0  0  0  0  0
   28.9360   10.1550   30.9410 C   0  0  1  0  0  0
   29.9270   11.1780   30.9750 N   0  0  0  0  0  0
   31.2390   10.8040   30.7810 C   0  0  0  0  0  0
   31.5510    9.6390   30.6300 O   0  0  0  0  0  0
   32.2790   11.9060   30.7370 C   0  0  1  0  0  0
   33.0280   12.0850   32.0660 C   0  0  0  0  0  0
   32.0730   12.0210   33.0980 O   0  0  0  0  0  0
   33.3060   11.6510   29.7850 N   0  0  3  0  0  0
   33.2070   11.7830   28.1520 S   0  0  0  0  0  0
   34.5830   11.5010   27.7120 O   0  0  0  0  0  0
   32.7600   13.1350   27.9210 O   0  0  0  0  0  0
   31.9210   10.6550   27.5940 C   0  0  0  0  0  0
   31.8740   10.9070   26.1030 C   0  0  0  0  0  0
   32.5730   10.0880   25.2100 C   0  0  0  0  0  0
   32.6790   10.5110   23.8830 C   0  0  0  0  0  0
   32.1010   11.7150   23.4590 C   0  0  0  0  0  0
   31.3260   12.4830   24.3410 C   0  0  0  0  0  0
   31.1300   12.0100   25.6470 C   0  0  0  0  0  0
   27.6060   10.7720   31.3850 C   0  0  0  0  0  0
   28.2521    7.7056   30.6596 H   0  0  0  0  0  0
   35.0701    3.9967   26.5569 H   0  0  0  0  0  0
   34.4308    5.7912   26.5894 H   0  0  0  0  0  0
   33.8957    2.3312   27.2491 H   0  0  0  0  0  0
   32.7996    6.9718   26.8413 H   0  0  0  0  0  0
   30.6516    8.1883   27.1639 H   0  0  0  0  0  0
   29.0131    4.8237   29.2840 H   0  0  0  0  0  0
   31.0430    3.5199   28.7490 H   0  0  0  0  0  0
   27.5696    6.6079   28.6087 H   0  0  0  0  0  0
   28.1734    7.9850   27.6260 H   0  0  0  0  0  0
   29.3131    9.3840   31.6290 H   0  0  0  0  0  0
   29.6328   12.2231   31.1514 H   0  0  0  0  0  0
   31.7212   12.7988   30.4179 H   0  0  0  0  0  0
   33.7718   11.2825   32.1786 H   0  0  0  0  0  0
   33.5370   13.0601   32.0716 H   0  0  0  0  0  0
   32.3885   12.1258   34.1466 H   0  0  0  0  0  0
   34.3401   11.4868   30.1222 H   0  0  0  0  0  0
   32.2074    9.6219   27.8401 H   0  0  0  0  0  0
   30.9736   10.9021   28.0954 H   0  0  0  0  0  0
   33.0205    9.1501   25.5390 H   0  0  0  0  0  0
   33.2203    9.8943   23.1655 H   0  0  0  0  0  0
   32.2547   12.0576   22.4357 H   0  0  0  0  0  0
   30.8858   13.4266   24.0185 H   0  0  0  0  0  0
   30.4066   12.4936   26.3034 H   0  0  0  0  0  0
   26.8208   10.0019   31.3680 H   0  0  0  0  0  0
   27.3338   11.5884   30.6999 H   0  0  0  0  0  0
   27.7085   11.1687   32.4058 H   0  0  0  0  0  0
   32.1329    2.5258   27.9453 H   0  0  0  0  0  0
  1 11  1  0  0  0
  1 12  1  0  0  0
  1 33  1  0  0  0
  2  3  1  0  0  0
  2 34  1  0  0  0
  2 35  1  0  0  0
  3  4  2  0  0  0
  3  5  1  0  0  0
  4 36  1  0  0  0
  4 60  1  0  0  0
  5  6  2  0  0  0
  5 10  1  0  0  0
  6  7  1  0  0  0
  6 37  1  0  0  0
  7  8  2  0  0  0
  7 38  1  0  0  0
  8  9  1  0  0  0
  8 11  1  0  0  0
  9 10  2  0  0  0
  9 39  1  0  0  0
 10 40  1  0  0  0
 11 41  1  0  0  0
 11 42  1  0  0  0
 12 13  2  0  0  0
 12 14  1  0  0  0
 14 15  1  0  0  0
 14 32  1  0  0  0
 14 43  1  0  0  0
 15 16  1  0  0  0
 15 44  1  0  0  0
 16 17  2  0  0  0
 16 18  1  0  0  0
 18 19  1  0  0  0
 18 21  1  0  0  0
 18 45  1  0  0  0
 19 20  1  0  0  0
 19 46  1  0  0  0
 19 47  1  0  0  0
 20 48  1  0  0  0
 21 22  1  0  0  0
 21 49  1  0  0  0
 22 23  2  0  0  0
 22 24  2  0  0  0
 22 25  1  0  0  0
 25 26  1  0  0  0
 25 50  1  0  0  0
 25 51  1  0  0  0
 26 27  2  0  0  0
 26 31  1  0  0  0
 27 28  1  0  0  0
 27 52  1  0  0  0
 28 29  2  0  0  0
 28 53  1  0  0  0
 29 30  1  0  0  0
 29 54  1  0  0  0
 30 31  2  0  0  0
 30 55  1  0  0  0
 31 56  1  0  0  0
 32 57  1  0  0  0
 32 58  1  0  0  0
 32 59  1  0  0  0
M  CHG  1   4   1
M  END
> <s_m_source_file>
../1w11_ligand.sdf

> <i_m_source_file_index>
1

> <s_epik_input>
W0hdXE49QyhcW05IMl0pYzFbY0hdW2NIXWMoW2NIXVtjSF0xKVtDSDJdW05IXUMoPU8pW0NASF0oW0NIM10pW05IXUMoPU8pW0NAQEhdKFtDSDJdW09IXSlbTkhdUyg9TykoPU8pW0NIMl1jMltjSF1bY0hdW2NIXVtjSF1bY0hdMg==

> <s_epik_cmdline>
J2VwaWtfYXBwJywgJy1pbWFlJywgJ2xpZ2FuZF9wcm8ubWFlJywgJy1vbWFlJywgJ2xpZ2FuZF9wcmVwLm1hZScsICctbXMnLCAnMScsICctcGgnLCAnNycsICctcGh0JywgJzAuNScsICctbnQn

> <r_lp_tautomer_probability>
1

> <r_epik_Ionization_Penalty>
  0.0003

> <r_epik_Ionization_Penalty_Charging>
  0.0002

> <r_epik_Ionization_Penalty_Neutral>
  0.0002

> <r_epik_State_Penalty>
 -0.0000

> <r_epik_Charging_Adjusted_Penalty>
0.000162947685306239

> <i_epik_Tot_Q>
1

> <i_epik_Tot_abs_Q>
1

> <s_epik_Chemistry_Notes>
This compound has an imine and may undergo hydrolysis.

$$$$
