1w13_ligand
                    3D
 Schrodinger Suite 2020-3.
 62 63  0  0  1  0            999 V2000
   35.2150    4.5230   27.3340 N   0  0  0  0  0  0
   33.8740    4.5620   27.5210 C   0  0  0  0  0  0
   33.2280    3.3910   27.5790 N   0  3  0  0  0  0
   33.2140    5.7360   27.6500 N   0  0  0  0  0  0
   31.9150    6.0040   27.9610 C   0  0  0  0  0  0
   31.2870    7.0540   27.2660 C   0  0  0  0  0  0
   30.0050    7.4920   27.6570 C   0  0  0  0  0  0
   29.3460    6.8600   28.7290 C   0  0  0  0  0  0
   29.9450    5.7410   29.3510 C   0  0  0  0  0  0
   31.2040    5.2770   28.9450 C   0  0  0  0  0  0
   28.0340    7.3360   29.2240 C   0  0  0  0  0  0
   28.1660    8.2190   30.3150 N   0  0  0  0  0  0
   28.4450    9.5010   30.1970 C   0  0  0  0  0  0
   28.5460   10.0700   29.1000 O   0  0  0  0  0  0
   28.6590   10.3160   31.3940 C   0  0  2  0  0  0
   27.4340   11.2240   31.6640 C   0  0  0  0  0  0
   29.7590   11.1820   31.2470 N   0  0  0  0  0  0
   31.0080   10.8900   30.9890 C   0  0  0  0  0  0
   32.0080   11.9490   30.8560 C   0  0  1  0  0  0
   32.7220   12.2720   32.1990 C   0  0  0  0  0  0
   31.7500   12.5830   33.2100 O   0  0  0  0  0  0
   33.1030   11.5940   29.9160 N   0  0  3  0  0  0
   31.3520    9.7150   30.8480 O   0  0  0  0  0  0
   32.3880   13.3910   28.0760 O   0  0  0  0  0  0
   32.8660   11.9360   28.2830 S   0  0  0  0  0  0
   34.2430   11.6550   27.6120 O   0  0  0  0  0  0
   31.6480   10.8760   27.6040 C   0  0  0  0  0  0
   31.4700   11.0880   26.1490 C   0  0  0  0  0  0
   32.2100   10.3160   25.2160 C   0  0  0  0  0  0
   32.0930   10.5360   23.8260 C   0  0  0  0  0  0
   31.1900   11.5140   23.3590 C   0  0  0  0  0  0
   30.4040   12.2470   24.2780 C   0  0  0  0  0  0
   30.5650   12.0620   25.6730 C   0  0  0  0  0  0
   35.7282    3.5554   27.2319 H   0  0  0  0  0  0
   35.7908    5.4589   27.2842 H   0  0  0  0  0  0
   33.7860    2.4491   27.4714 H   0  0  0  0  0  0
   33.7458    6.6860   27.4931 H   0  0  0  0  0  0
   31.7918    7.5291   26.4249 H   0  0  0  0  0  0
   29.5254    8.3175   27.1309 H   0  0  0  0  0  0
   29.4200    5.2310   30.1587 H   0  0  0  0  0  0
   31.6279    4.3718   29.3798 H   0  0  0  0  0  0
   27.5079    7.8663   28.4165 H   0  0  0  0  0  0
   27.4315    6.4758   29.5511 H   0  0  0  0  0  0
   28.0343    7.8478   31.3421 H   0  0  0  0  0  0
   28.9111    9.6029   32.1927 H   0  0  0  0  0  0
   26.5361   10.6009   31.7887 H   0  0  0  0  0  0
   27.2904   11.9082   30.8147 H   0  0  0  0  0  0
   27.6053   11.8079   32.5803 H   0  0  0  0  0  0
   29.6214   12.2684   31.3507 H   0  0  0  0  0  0
   31.3985   12.7709   30.4522 H   0  0  0  0  0  0
   33.3115   11.4004   32.5197 H   0  0  0  0  0  0
   33.3895   13.1354   32.0610 H   0  0  0  0  0  0
   32.0781   12.8376   34.2286 H   0  0  0  0  0  0
   34.0829   11.2814   30.3060 H   0  0  0  0  0  0
   31.9437    9.8285   27.7629 H   0  0  0  0  0  0
   30.6827   11.0633   28.0971 H   0  0  0  0  0  0
   32.8817    9.5382   25.5793 H   0  0  0  0  0  0
   32.6926    9.9577   23.1231 H   0  0  0  0  0  0
   31.0981   11.7047   22.2897 H   0  0  0  0  0  0
   29.6674   12.9610   23.9094 H   0  0  0  0  0  0
   29.9933   12.6683   26.3756 H   0  0  0  0  0  0
   32.1392    3.3706   27.7342 H   0  0  0  0  0  0
  1  2  1  0  0  0
  1 34  1  0  0  0
  1 35  1  0  0  0
  2  3  2  0  0  0
  2  4  1  0  0  0
  3 36  1  0  0  0
  3 62  1  0  0  0
  4  5  1  0  0  0
  4 37  1  0  0  0
  5  6  2  0  0  0
  5 10  1  0  0  0
  6  7  1  0  0  0
  6 38  1  0  0  0
  7  8  2  0  0  0
  7 39  1  0  0  0
  8  9  1  0  0  0
  8 11  1  0  0  0
  9 10  2  0  0  0
  9 40  1  0  0  0
 10 41  1  0  0  0
 11 12  1  0  0  0
 11 42  1  0  0  0
 11 43  1  0  0  0
 12 13  1  0  0  0
 12 44  1  0  0  0
 13 14  2  0  0  0
 13 15  1  0  0  0
 15 16  1  0  0  0
 15 17  1  0  0  0
 15 45  1  0  0  0
 16 46  1  0  0  0
 16 47  1  0  0  0
 16 48  1  0  0  0
 17 18  1  0  0  0
 17 49  1  0  0  0
 18 19  1  0  0  0
 18 23  2  0  0  0
 19 20  1  0  0  0
 19 22  1  0  0  0
 19 50  1  0  0  0
 20 21  1  0  0  0
 20 51  1  0  0  0
 20 52  1  0  0  0
 21 53  1  0  0  0
 22 25  1  0  0  0
 22 54  1  0  0  0
 24 25  2  0  0  0
 25 26  2  0  0  0
 25 27  1  0  0  0
 27 28  1  0  0  0
 27 55  1  0  0  0
 27 56  1  0  0  0
 28 29  2  0  0  0
 28 33  1  0  0  0
 29 30  1  0  0  0
 29 57  1  0  0  0
 30 31  2  0  0  0
 30 58  1  0  0  0
 31 32  1  0  0  0
 31 59  1  0  0  0
 32 33  2  0  0  0
 32 60  1  0  0  0
 33 61  1  0  0  0
M  CHG  1   3   1
M  END
> <s_m_source_file>
../1w13_ligand.sdf

> <i_m_source_file_index>
1

> <s_epik_input>
W0hdXE49QyhcW05IMl0pW05IXWMxW2NIXVtjSF1jKFtjSF1bY0hdMSlbQ0gyXVtOSF1DKD1PKVtDQEhdKFtDSDNdKVtOSF1DKD1PKVtDQEBIXShbQ0gyXVtPSF0pW05IXVMoPU8pKD1PKVtDSDJdYzJbY0hdW2NIXVtjSF1bY0hdW2NIXTI=

> <s_epik_cmdline>
J2VwaWtfYXBwJywgJy1pbWFlJywgJ2xpZ2FuZF9wcm8ubWFlJywgJy1vbWFlJywgJ2xpZ2FuZF9wcmVwLm1hZScsICctbXMnLCAnMScsICctcGgnLCAnNycsICctcGh0JywgJzAuNScsICctbnQn

> <r_lp_tautomer_probability>
1

> <r_epik_Ionization_Penalty>
  0.0002

> <r_epik_Ionization_Penalty_Charging>
  0.0000

> <r_epik_Ionization_Penalty_Neutral>
  0.0002

> <r_epik_State_Penalty>
 -0.0000

> <r_epik_Charging_Adjusted_Penalty>
3.73871329367001e-05

> <i_epik_Tot_Q>
1

> <i_epik_Tot_abs_Q>
1

> <s_epik_Chemistry_Notes>
This compound has an imine and may undergo hydrolysis.

$$$$
