1w14_ligand
                    3D
 Schrodinger Suite 2020-3.
 68 68  0  0  1  0            999 V2000
   32.7040   12.0000   27.3830 C   0  0  0  0  0  0
   32.7350   12.9370   26.1960 C   0  0  0  0  0  0
   33.6190   12.4380   25.0570 C   0  0  0  0  0  0
   33.2190   11.3510   24.2740 C   0  0  0  0  0  0
   34.8320   13.0800   24.7990 C   0  0  0  0  0  0
   33.9910   10.9560   23.1850 C   0  0  0  0  0  0
   35.5850   12.6790   23.7080 C   0  0  0  0  0  0
   35.1660   11.6370   22.8950 C   0  0  0  0  0  0
   33.9890   12.3310   28.5990 S   0  0  0  0  0  0
   35.6470   11.8470   28.2450 O   0  0  0  0  0  0
   34.0560   14.0560   28.9730 O   0  0  0  0  0  0
   33.5470   11.4050   30.0130 N   0  0  3  0  0  0
   32.4610   11.9220   30.7860 C   0  0  2  0  0  0
   33.1480   12.2830   32.0940 C   0  0  0  0  0  0
   33.8480   11.1250   32.5350 O   0  0  0  0  0  0
   31.4270   10.8060   30.8860 C   0  0  0  0  0  0
   31.7310    9.6360   30.5900 O   0  0  0  0  0  0
   30.2100   11.1610   31.3020 N   0  0  0  0  0  0
   29.1480   10.2120   31.4990 C   0  0  1  0  0  0
   27.9950   10.9430   32.1380 C   0  0  0  0  0  0
   28.7610    9.5930   30.1500 C   0  0  0  0  0  0
   28.7030   10.2590   29.0860 O   0  0  0  0  0  0
   28.5020    8.2860   30.2400 N   0  0  0  0  0  0
   28.0250    7.5620   29.0730 C   0  0  1  0  0  0
   28.7440    6.2450   28.8480 C   0  0  0  0  0  0
   30.2290    6.4680   28.6670 C   0  0  0  0  0  0
   30.8540    5.1510   28.3070 C   0  0  0  0  0  0
   32.2470    5.4100   28.0420 N   0  0  0  0  0  0
   33.1520    4.4440   27.8860 C   0  0  0  0  0  0
   32.8260    3.1440   27.9710 N   0  0  0  0  0  0
   34.4110    4.8090   27.6420 N   0  3  0  0  0  0
   26.5090    7.3490   29.1840 C   0  0  0  0  0  0
   25.8170    8.5400   29.5650 O   0  0  0  0  0  0
   31.7356   12.0909   27.8967 H   0  0  0  0  0  0
   32.8395   10.9648   27.0366 H   0  0  0  0  0  0
   31.7169   13.0573   25.7972 H   0  0  0  0  0  0
   33.1231   13.9165   26.5121 H   0  0  0  0  0  0
   32.3026   10.8128   24.5162 H   0  0  0  0  0  0
   35.1809   13.8845   25.4464 H   0  0  0  0  0  0
   33.6753   10.1177   22.5640 H   0  0  0  0  0  0
   36.5214   13.1904   23.4851 H   0  0  0  0  0  0
   35.7599   11.3518   22.0267 H   0  0  0  0  0  0
   34.1546   10.5756   30.4040 H   0  0  0  0  0  0
   31.9537   12.7953   30.3501 H   0  0  0  0  0  0
   33.8461   13.1159   31.9238 H   0  0  0  0  0  0
   32.3921   12.5837   32.8344 H   0  0  0  0  0  0
   34.4240   11.1540   33.4717 H   0  0  0  0  0  0
   30.0356   12.2297   31.4958 H   0  0  0  0  0  0
   29.5044    9.4210   32.1752 H   0  0  0  0  0  0
   28.3183   11.3686   33.0994 H   0  0  0  0  0  0
   27.1651   10.2413   32.3082 H   0  0  0  0  0  0
   27.6602   11.7525   31.4727 H   0  0  0  0  0  0
   28.6485    7.7572   31.1934 H   0  0  0  0  0  0
   28.2830    8.2119   28.2239 H   0  0  0  0  0  0
   28.5873    5.5886   29.7167 H   0  0  0  0  0  0
   28.3457    5.7594   27.9449 H   0  0  0  0  0  0
   30.3945    7.2001   27.8628 H   0  0  0  0  0  0
   30.6594    6.8497   29.6046 H   0  0  0  0  0  0
   30.7400    4.4494   29.1465 H   0  0  0  0  0  0
   30.3566    4.7405   27.4159 H   0  0  0  0  0  0
   32.6078    6.4459   27.9595 H   0  0  0  0  0  0
   31.7854    2.8500   28.1725 H   0  0  0  0  0  0
   33.5996    2.3732   27.8391 H   0  0  0  0  0  0
   34.6710    5.8756   27.5737 H   0  0  0  0  0  0
   26.1124    7.0227   28.2113 H   0  0  0  0  0  0
   26.3014    6.5790   29.9416 H   0  0  0  0  0  0
   24.7232    8.5273   29.6812 H   0  0  0  0  0  0
   35.1896    4.0435   27.5090 H   0  0  0  0  0  0
  1  2  1  0  0  0
  1  9  1  0  0  0
  1 34  1  0  0  0
  1 35  1  0  0  0
  2  3  1  0  0  0
  2 36  1  0  0  0
  2 37  1  0  0  0
  3  4  2  0  0  0
  3  5  1  0  0  0
  4  6  1  0  0  0
  4 38  1  0  0  0
  5  7  2  0  0  0
  5 39  1  0  0  0
  6  8  2  0  0  0
  6 40  1  0  0  0
  7  8  1  0  0  0
  7 41  1  0  0  0
  8 42  1  0  0  0
  9 10  2  0  0  0
  9 11  2  0  0  0
  9 12  1  0  0  0
 12 13  1  0  0  0
 12 43  1  0  0  0
 13 14  1  0  0  0
 13 16  1  0  0  0
 13 44  1  0  0  0
 14 15  1  0  0  0
 14 45  1  0  0  0
 14 46  1  0  0  0
 15 47  1  0  0  0
 16 17  2  0  0  0
 16 18  1  0  0  0
 18 19  1  0  0  0
 18 48  1  0  0  0
 19 20  1  0  0  0
 19 21  1  0  0  0
 19 49  1  0  0  0
 20 50  1  0  0  0
 20 51  1  0  0  0
 20 52  1  0  0  0
 21 22  2  0  0  0
 21 23  1  0  0  0
 23 24  1  0  0  0
 23 53  1  0  0  0
 24 25  1  0  0  0
 24 32  1  0  0  0
 24 54  1  0  0  0
 25 26  1  0  0  0
 25 55  1  0  0  0
 25 56  1  0  0  0
 26 27  1  0  0  0
 26 57  1  0  0  0
 26 58  1  0  0  0
 27 28  1  0  0  0
 27 59  1  0  0  0
 27 60  1  0  0  0
 28 29  1  0  0  0
 28 61  1  0  0  0
 29 30  1  0  0  0
 29 31  2  0  0  0
 30 62  1  0  0  0
 30 63  1  0  0  0
 31 64  1  0  0  0
 31 68  1  0  0  0
 32 33  1  0  0  0
 32 65  1  0  0  0
 32 66  1  0  0  0
 33 67  1  0  0  0
M  CHG  1  31   1
M  END
> <s_m_source_file>
../1w14_ligand.sdf

> <i_m_source_file_index>
1

> <s_epik_input>
W2NIXTFbY0hdW2NIXVtjSF1bY0hdYzFbQ0gyXVtDSDJdUyg9TykoPU8pW05IXVtDQEhdKFtDSDJdW09IXSlDKD1PKVtOSF1bQ0BASF0oW0NIM10pQyg9TylbTkhdW0NASF0oW0NIMl1bT0hdKVtDSDJdW0NIMl1bQ0gyXVtOSF0vQyhbTkgyXSk9TlxbSF0=

> <s_epik_cmdline>
J2VwaWtfYXBwJywgJy1pbWFlJywgJ2xpZ2FuZF9wcm8ubWFlJywgJy1vbWFlJywgJ2xpZ2FuZF9wcmVwLm1hZScsICctbXMnLCAnMScsICctcGgnLCAnNycsICctcGh0JywgJzAuNScsICctbnQn

> <r_lp_tautomer_probability>
1

> <r_epik_Ionization_Penalty>
  0.0001

> <r_epik_Ionization_Penalty_Charging>
  0.0000

> <r_epik_Ionization_Penalty_Neutral>
  0.0001

> <r_epik_State_Penalty>
 -0.0000

> <r_epik_Charging_Adjusted_Penalty>
2.41654511826174e-06

> <i_epik_Tot_Q>
1

> <i_epik_Tot_abs_Q>
1

> <s_epik_Chemistry_Notes>
This compound has an imine and may undergo hydrolysis.

$$$$
