1w1p_ligand
                    3D
 Schrodinger Suite 2020-3.
 21 22  0  0  1  0            999 V2000
   15.9870   43.6500  101.1850 O   0  0  0  0  0  0
   16.9460   43.5230  101.9460 C   0  0  0  0  0  0
   17.3080   44.6340  102.9360 C   0  0  2  0  0  0
   17.0650   46.0150  102.3230 C   0  0  0  0  0  0
   17.8910   46.8710  103.2870 C   0  0  0  0  0  0
   19.2180   46.1080  103.3300 C   0  0  0  0  0  0
   18.7570   44.7080  103.1820 N   0  0  0  0  0  0
   19.5130   43.5290  103.1500 C   0  0  0  0  0  0
   20.7240   43.5790  103.3540 O   0  0  0  0  0  0
   18.8510   42.1780  102.8620 C   0  0  0  0  0  0
   17.7320   42.3640  101.9090 N   0  0  0  0  0  0
   16.7401   44.4025  103.8492 H   0  0  0  0  0  0
   17.4307   46.0252  101.2856 H   0  0  0  0  0  0
   15.9876   46.2367  102.3342 H   0  0  0  0  0  0
   17.9910   47.8882  102.8804 H   0  0  0  0  0  0
   17.3862   46.9144  104.2634 H   0  0  0  0  0  0
   19.8613   46.4444  102.5035 H   0  0  0  0  0  0
   19.7214   46.3017  104.2887 H   0  0  0  0  0  0
   19.5920   41.4923  102.4253 H   0  0  0  0  0  0
   18.4647   41.7517  103.7996 H   0  0  0  0  0  0
   17.5109   41.5874  101.1620 H   0  0  0  0  0  0
  1  2  2  0  0  0
  2  3  1  0  0  0
  2 11  1  0  0  0
  3  4  1  0  0  0
  3  7  1  0  0  0
  3 12  1  0  0  0
  4  5  1  0  0  0
  4 13  1  0  0  0
  4 14  1  0  0  0
  5  6  1  0  0  0
  5 15  1  0  0  0
  5 16  1  0  0  0
  6  7  1  0  0  0
  6 17  1  0  0  0
  6 18  1  0  0  0
  7  8  1  0  0  0
  8  9  2  0  0  0
  8 10  1  0  0  0
 10 11  1  0  0  0
 10 19  1  0  0  0
 10 20  1  0  0  0
 11 21  1  0  0  0
M  END
> <s_m_source_file>
../1w1p_ligand.sdf

> <i_m_source_file_index>
1

> <s_epik_input>
Tz1DMVtOSF1bQ0gyXUMoPU8pTihbQ0BIXTEyKVtDSDJdW0NIMl1bQ0gyXTI=

> <s_epik_cmdline>
J2VwaWtfYXBwJywgJy1pbWFlJywgJ2xpZ2FuZF9wcm8ubWFlJywgJy1vbWFlJywgJ2xpZ2FuZF9wcmVwLm1hZScsICctbXMnLCAnMScsICctcGgnLCAnNycsICctcGh0JywgJzAuNScsICctbnQn

> <r_lp_tautomer_probability>
1

> <r_epik_Ionization_Penalty>
  0.0000

> <r_epik_Ionization_Penalty_Charging>
  0.0000

> <r_epik_Ionization_Penalty_Neutral>
  0.0000

> <r_epik_State_Penalty>
 -0.0000

> <r_epik_Charging_Adjusted_Penalty>
0

> <i_epik_Tot_Q>
0

> <i_epik_Tot_abs_Q>
0

$$$$
