1w1t_ligand
                    3D
 Schrodinger Suite 2020-3.
 31 33  0  0  1  0            999 V2000
   17.5970   42.2780  101.9110 N   0  0  0  0  0  0
   18.9300   42.2000  102.5310 C   0  0  2  0  0  0
   19.4770   43.5730  102.9430 C   0  0  0  0  0  0
   20.6640   43.6740  103.2510 O   0  0  0  0  0  0
   19.8800   41.5830  101.5000 C   0  0  0  0  0  0
   21.2190   42.5810   99.5840 N   0  0  0  0  0  0
   20.9440   43.4340   98.6040 C   0  0  0  0  0  0
   19.6800   43.8410   98.6170 N   0  3  0  0  0  0
   19.1470   43.2070   99.6590 C   0  0  0  0  0  0
   20.0720   42.4480  100.2490 C   0  0  0  0  0  0
   18.6790   44.7210  103.0080 N   0  0  0  0  0  0
   17.2360   44.6550  102.7270 C   0  0  2  0  0  0
   16.8080   43.4350  101.9060 C   0  0  0  0  0  0
   15.7460   43.4430  101.2830 O   0  0  0  0  0  0
   17.0640   45.9700  101.9650 C   0  0  0  0  0  0
   17.8430   46.9080  102.8920 C   0  0  0  0  0  0
   19.1300   46.1230  103.1650 C   0  0  0  0  0  0
   17.1683   41.3944  101.4155 H   0  0  0  0  0  0
   18.8099   41.5894  103.4381 H   0  0  0  0  0  0
   20.8710   41.4384  101.9550 H   0  0  0  0  0  0
   19.4826   40.6117  101.1703 H   0  0  0  0  0  0
   21.7306   43.7273   97.8932 H   0  0  0  0  0  0
   18.1217   43.2332  100.0565 H   0  0  0  0  0  0
   16.6414   44.5414  103.6454 H   0  0  0  0  0  0
   17.4973   45.8701  100.9589 H   0  0  0  0  0  0
   15.9933   46.2078  101.8811 H   0  0  0  0  0  0
   18.0287   47.8618  102.3766 H   0  0  0  0  0  0
   17.2565   47.0923  103.8042 H   0  0  0  0  0  0
   19.5163   46.2719  104.1841 H   0  0  0  0  0  0
   19.9261   46.3359  102.4364 H   0  0  0  0  0  0
   19.3228   44.5504   97.8560 H   0  0  0  0  0  0
  1  2  1  0  0  0
  1 13  1  0  0  0
  1 18  1  0  0  0
  2  3  1  0  0  0
  2  5  1  0  0  0
  2 19  1  0  0  0
  3  4  2  0  0  0
  3 11  1  0  0  0
  5 10  1  0  0  0
  5 20  1  0  0  0
  5 21  1  0  0  0
  6  7  2  0  0  0
  6 10  1  0  0  0
  7  8  1  0  0  0
  7 22  1  0  0  0
  8  9  1  0  0  0
  8 31  1  0  0  0
  9 10  2  0  0  0
  9 23  1  0  0  0
 11 12  1  0  0  0
 11 17  1  0  0  0
 12 13  1  0  0  0
 12 15  1  0  0  0
 12 24  1  0  0  0
 13 14  2  0  0  0
 15 16  1  0  0  0
 15 25  1  0  0  0
 15 26  1  0  0  0
 16 17  1  0  0  0
 16 27  1  0  0  0
 16 28  1  0  0  0
 17 29  1  0  0  0
 17 30  1  0  0  0
M  CHG  1   8   1
M  END
> <s_m_source_file>
../1w1t_ligand.sdf

> <i_m_source_file_index>
1

> <s_epik_input>
W0NIMl0xW0NIMl1bQ0gyXVtDQEhdKE4xMilDKD1PKVtOSF1bQ0BIXShDMj1PKVtDSDJdYzNuW2NIXVtuSF1bY0hdMw==

> <s_epik_cmdline>
J2VwaWtfYXBwJywgJy1pbWFlJywgJ2xpZ2FuZF9wcm8ubWFlJywgJy1vbWFlJywgJ2xpZ2FuZF9wcmVwLm1hZScsICctbXMnLCAnMScsICctcGgnLCAnNycsICctcGh0JywgJzAuNScsICctbnQn

> <r_lp_tautomer_probability>
0.499999999999999

> <r_epik_Ionization_Penalty>
  0.0052

> <r_epik_Ionization_Penalty_Charging>
  0.0052

> <r_epik_Ionization_Penalty_Neutral>
  0.0000

> <r_epik_State_Penalty>
  0.0002

> <r_epik_Charging_Adjusted_Penalty>
0.00540582872190739

> <i_epik_Tot_Q>
1

> <i_epik_Tot_abs_Q>
1

> <s_epik_Chemistry_Notes>
This compound has an imine and may undergo hydrolysis.

$$$$
