1w1v_ligand
                    3D
 Schrodinger Suite 2020-3.
 38 39  0  0  1  0            999 V2000
   20.6420   43.3440  103.2610 O   0  0  0  0  0  0
   19.4840   43.3420  102.8460 C   0  0  0  0  0  0
   18.8080   44.5540  102.6470 N   0  0  0  0  0  0
   19.2500   45.9640  102.7540 C   0  0  0  0  0  0
   17.9660   46.7650  102.5220 C   0  0  0  0  0  0
   17.2690   45.9010  101.4720 C   0  0  0  0  0  0
   17.4170   44.5460  102.1640 C   0  0  1  0  0  0
   17.2000   43.3920  101.1860 C   0  0  0  0  0  0
   16.4410   43.5260  100.2240 O   0  0  0  0  0  0
   17.8660   42.1790  101.4100 N   0  0  0  0  0  0
   18.7590   42.0240  102.5690 C   0  0  1  0  0  0
   19.7510   40.8810  102.3340 C   0  0  0  0  0  0
   18.9880   39.5690  102.5280 C   0  0  0  0  0  0
   19.9020   38.3410  102.5180 C   0  0  0  0  0  0
   19.0000   37.1890  102.6760 N   0  0  0  0  0  0
   18.7420   36.3840  101.6480 C   0  0  0  0  0  0
   19.3650   36.5540  100.4850 N   0  3  0  0  0  0
   17.8990   35.3640  101.8000 N   0  0  0  0  0  0
   19.6764   46.1398  103.7526 H   0  0  0  0  0  0
   20.0130   46.1682  101.9884 H   0  0  0  0  0  0
   17.4076   46.8442  103.4664 H   0  0  0  0  0  0
   18.2222   47.7723  102.1620 H   0  0  0  0  0  0
   16.2307   46.2421  101.3470 H   0  0  0  0  0  0
   17.8014   45.9880  100.5134 H   0  0  0  0  0  0
   16.7040   44.4008  102.9889 H   0  0  0  0  0  0
   17.7180   41.3404  100.7136 H   0  0  0  0  0  0
   18.1237   41.7696  103.4302 H   0  0  0  0  0  0
   20.1512   40.9472  101.3115 H   0  0  0  0  0  0
   20.5768   40.9578  103.0566 H   0  0  0  0  0  0
   18.4644   39.5889  103.4952 H   0  0  0  0  0  0
   18.2551   39.4476  101.7167 H   0  0  0  0  0  0
   20.4491   38.2989  101.5646 H   0  0  0  0  0  0
   20.6189   38.4107  103.3494 H   0  0  0  0  0  0
   18.5319   36.9866  103.6506 H   0  0  0  0  0  0
   20.0625   37.3942  100.3524 H   0  0  0  0  0  0
   17.3804   35.2173  102.7589 H   0  0  0  0  0  0
   17.7215   34.6683  100.9666 H   0  0  0  0  0  0
   19.1826   35.8544   99.6560 H   0  0  0  0  0  0
  1  2  2  0  0  0
  2  3  1  0  0  0
  2 11  1  0  0  0
  3  4  1  0  0  0
  3  7  1  0  0  0
  4  5  1  0  0  0
  4 19  1  0  0  0
  4 20  1  0  0  0
  5  6  1  0  0  0
  5 21  1  0  0  0
  5 22  1  0  0  0
  6  7  1  0  0  0
  6 23  1  0  0  0
  6 24  1  0  0  0
  7  8  1  0  0  0
  7 25  1  0  0  0
  8  9  2  0  0  0
  8 10  1  0  0  0
 10 11  1  0  0  0
 10 26  1  0  0  0
 11 12  1  0  0  0
 11 27  1  0  0  0
 12 13  1  0  0  0
 12 28  1  0  0  0
 12 29  1  0  0  0
 13 14  1  0  0  0
 13 30  1  0  0  0
 13 31  1  0  0  0
 14 15  1  0  0  0
 14 32  1  0  0  0
 14 33  1  0  0  0
 15 16  1  0  0  0
 15 34  1  0  0  0
 16 17  2  0  0  0
 16 18  1  0  0  0
 17 35  1  0  0  0
 17 38  1  0  0  0
 18 36  1  0  0  0
 18 37  1  0  0  0
M  CHG  1  17   1
M  END
> <s_m_source_file>
../1w1v_ligand.sdf

> <i_m_source_file_index>
1

> <s_epik_input>
W0NIMl0xW0NIMl1bQ0gyXVtDQEhdKE4xMilDKD1PKVtOSF1bQ0BIXShDMj1PKVtDSDJdW0NIMl1bQ0gyXVtOSF0vQyg9TlxbSF0pW05IMl0=

> <s_epik_cmdline>
J2VwaWtfYXBwJywgJy1pbWFlJywgJ2xpZ2FuZF9wcm8ubWFlJywgJy1vbWFlJywgJ2xpZ2FuZF9wcmVwLm1hZScsICctbXMnLCAnMScsICctcGgnLCAnNycsICctcGh0JywgJzAuNScsICctbnQn

> <r_lp_tautomer_probability>
1

> <r_epik_Ionization_Penalty>
  0.0000

> <r_epik_Ionization_Penalty_Charging>
  0.0000

> <r_epik_Ionization_Penalty_Neutral>
  0.0000

> <r_epik_State_Penalty>
 -0.0000

> <r_epik_Charging_Adjusted_Penalty>
1.56454850489239e-05

> <i_epik_Tot_Q>
1

> <i_epik_Tot_abs_Q>
1

> <s_epik_Chemistry_Notes>
This compound has an imine and may undergo hydrolysis.

$$$$
