1w1y_ligand
                    3D
 Schrodinger Suite 2020-3.
 35 37  0  0  1  0            999 V2000
   17.9710   43.0160  100.4770 N   0  0  0  0  0  0
   18.8720   42.5860  101.5650 C   0  0  2  0  0  0
   19.4970   43.8150  102.2060 C   0  0  0  0  0  0
   20.6540   43.8030  102.5850 O   0  0  0  0  0  0
   19.9510   41.6650  100.9840 C   0  0  0  0  0  0
   19.3380   40.3010  100.6820 C   0  0  0  0  0  0
   18.6840   40.0680   99.4470 C   0  0  0  0  0  0
   18.1010   38.8100   99.1950 C   0  0  0  0  0  0
   18.8270   38.0250  101.3960 C   0  0  0  0  0  0
   19.4100   39.2790  101.6540 C   0  0  0  0  0  0
   18.1710   37.7900  100.1700 C   0  0  0  0  0  0
   17.5920   36.5780   99.9300 O   0  0  0  0  0  0
   18.7050   44.9510  102.3990 N   0  0  0  0  0  0
   17.2770   44.8930  101.9930 C   0  0  2  0  0  0
   17.1890   44.1680  100.6480 C   0  0  0  0  0  0
   16.4730   44.5830   99.7290 O   0  0  0  0  0  0
   16.8370   46.3580  101.9130 C   0  0  0  0  0  0
   18.1340   47.1680  101.9520 C   0  0  0  0  0  0
   19.1040   46.3240  102.7740 C   0  0  0  0  0  0
   17.9181   42.4348   99.5446 H   0  0  0  0  0  0
   18.2826   42.0443  102.3195 H   0  0  0  0  0  0
   20.3479   42.1045  100.0570 H   0  0  0  0  0  0
   20.7663   41.5497  101.7134 H   0  0  0  0  0  0
   18.6321   40.8568   98.6965 H   0  0  0  0  0  0
   17.5958   38.6238   98.2473 H   0  0  0  0  0  0
   18.8824   37.2344  102.1443 H   0  0  0  0  0  0
   19.9161   39.4614  102.6020 H   0  0  0  0  0  0
   17.0798   36.3927   98.9743 H   0  0  0  0  0  0
   16.6490   44.3362  102.7040 H   0  0  0  0  0  0
   16.2842   46.5242  100.9766 H   0  0  0  0  0  0
   16.1873   46.5930  102.7690 H   0  0  0  0  0  0
   18.5003   47.3233  100.9265 H   0  0  0  0  0  0
   17.9435   48.1427  102.4248 H   0  0  0  0  0  0
   18.9812   46.4581  103.8589 H   0  0  0  0  0  0
   20.1571   46.4872  102.5012 H   0  0  0  0  0  0
  1  2  1  0  0  0
  1 15  1  0  0  0
  1 20  1  0  0  0
  2  3  1  0  0  0
  2  5  1  0  0  0
  2 21  1  0  0  0
  3  4  2  0  0  0
  3 13  1  0  0  0
  5  6  1  0  0  0
  5 22  1  0  0  0
  5 23  1  0  0  0
  6  7  2  0  0  0
  6 10  1  0  0  0
  7  8  1  0  0  0
  7 24  1  0  0  0
  8 11  2  0  0  0
  8 25  1  0  0  0
  9 10  2  0  0  0
  9 11  1  0  0  0
  9 26  1  0  0  0
 10 27  1  0  0  0
 11 12  1  0  0  0
 12 28  1  0  0  0
 13 14  1  0  0  0
 13 19  1  0  0  0
 14 15  1  0  0  0
 14 17  1  0  0  0
 14 29  1  0  0  0
 15 16  2  0  0  0
 17 18  1  0  0  0
 17 30  1  0  0  0
 17 31  1  0  0  0
 18 19  1  0  0  0
 18 32  1  0  0  0
 18 33  1  0  0  0
 19 34  1  0  0  0
 19 35  1  0  0  0
M  END
> <s_m_source_file>
../1w1y_ligand.sdf

> <i_m_source_file_index>
1

> <s_epik_input>
W0NIMl0xW0NIMl1bQ0gyXVtDQEhdKE4xMilDKD1PKVtOSF1bQ0BIXShDMj1PKVtDSDJdYzNbY0hdW2NIXWMoW09IXSlbY0hdW2NIXTM=

> <s_epik_cmdline>
J2VwaWtfYXBwJywgJy1pbWFlJywgJ2xpZ2FuZF9wcm8ubWFlJywgJy1vbWFlJywgJ2xpZ2FuZF9wcmVwLm1hZScsICctbXMnLCAnMScsICctcGgnLCAnNycsICctcGh0JywgJzAuNScsICctbnQn

> <r_lp_tautomer_probability>
1

> <r_epik_Ionization_Penalty>
  0.0008

> <r_epik_Ionization_Penalty_Charging>
  0.0000

> <r_epik_Ionization_Penalty_Neutral>
  0.0008

> <r_epik_State_Penalty>
 -0.0000

> <r_epik_Charging_Adjusted_Penalty>
0

> <i_epik_Tot_Q>
0

> <i_epik_Tot_abs_Q>
0

$$$$
