1w22_ligand
                    3D
 Schrodinger Suite 2020-3.
 41 43  0  0  1  0            999 V2000
    0.0760   16.7330   26.0190 C   0  0  0  0  0  0
   -0.5380   17.4090   24.9680 C   0  0  0  0  0  0
    0.2230   17.6680   23.8330 C   0  0  0  0  0  0
    1.5680   17.2580   23.7770 C   0  0  0  0  0  0
    2.1420   16.6230   24.7980 N   0  0  0  0  0  0
    1.4250   16.3410   25.9190 C   0  0  0  0  0  0
    2.0230   15.6770   26.9930 C   0  0  0  0  0  0
    1.5490   15.9510   28.5730 S   0  0  0  0  0  0
    3.0260   14.7700   27.0280 C   0  0  0  0  0  0
    3.3760   14.3300   28.2650 C   0  0  0  0  0  0
    2.6550   14.8870   29.2430 C   0  0  0  0  0  0
    2.8020   14.5870   30.9670 S   0  0  0  0  0  0
    2.5870   15.8440   31.7380 O   0  0  0  0  0  0
    4.1650   14.0270   31.3020 O   0  0  0  0  0  0
    1.5790   13.5120   31.1630 N   0  0  0  0  0  0
    0.2250   14.0170   31.3970 C   0  0  0  0  0  0
    1.7900   12.1950   31.0620 C   0  0  0  0  0  0
    1.9010   11.4010   32.1890 C   0  0  0  0  0  0
    2.1070   10.0300   32.0740 C   0  0  0  0  0  0
    1.8930   11.5980   29.8170 C   0  0  0  0  0  0
    2.0970   10.2230   29.7070 C   0  0  0  0  0  0
    2.2150    9.4130   30.8330 C   0  0  0  0  0  0
    2.4840    7.8900   30.7090 C   0  0  0  0  0  0
    2.6220    7.3530   29.6230 O   0  0  0  0  0  0
    2.6130    7.2120   31.8290 N   0  0  0  0  0  0
    3.0030    5.9130   31.8090 O   0  0  0  0  0  0
   -0.4896   16.5063   26.9228 H   0  0  0  0  0  0
   -1.5794   17.7244   25.0325 H   0  0  0  0  0  0
   -0.2229   18.1892   22.9859 H   0  0  0  0  0  0
    2.1521   17.4641   22.8801 H   0  0  0  0  0  0
    3.5207   14.4156   26.1237 H   0  0  0  0  0  0
    4.1640   13.5979   28.4417 H   0  0  0  0  0  0
    0.2476   15.1155   31.4508 H   0  0  0  0  0  0
   -0.1590   13.6113   32.3446 H   0  0  0  0  0  0
   -0.4309   13.7037   30.5714 H   0  0  0  0  0  0
    1.8263   11.8541   33.1775 H   0  0  0  0  0  0
    2.1855    9.4257   32.9777 H   0  0  0  0  0  0
    1.8141   12.2071   28.9165 H   0  0  0  0  0  0
    2.1656    9.7722   28.7170 H   0  0  0  0  0  0
    2.4014    7.7080   32.7877 H   0  0  0  0  0  0
    3.1076    5.3556   32.7515 H   0  0  0  0  0  0
  1  2  2  0  0  0
  1  6  1  0  0  0
  1 27  1  0  0  0
  2  3  1  0  0  0
  2 28  1  0  0  0
  3  4  2  0  0  0
  3 29  1  0  0  0
  4  5  1  0  0  0
  4 30  1  0  0  0
  5  6  2  0  0  0
  6  7  1  0  0  0
  7  8  1  0  0  0
  7  9  2  0  0  0
  8 11  1  0  0  0
  9 10  1  0  0  0
  9 31  1  0  0  0
 10 11  2  0  0  0
 10 32  1  0  0  0
 11 12  1  0  0  0
 12 13  2  0  0  0
 12 14  2  0  0  0
 12 15  1  0  0  0
 15 16  1  0  0  0
 15 17  1  0  0  0
 16 33  1  0  0  0
 16 34  1  0  0  0
 16 35  1  0  0  0
 17 18  2  0  0  0
 17 20  1  0  0  0
 18 19  1  0  0  0
 18 36  1  0  0  0
 19 22  2  0  0  0
 19 37  1  0  0  0
 20 21  2  0  0  0
 20 38  1  0  0  0
 21 22  1  0  0  0
 21 39  1  0  0  0
 22 23  1  0  0  0
 23 24  2  0  0  0
 23 25  1  0  0  0
 25 26  1  0  0  0
 25 40  1  0  0  0
 26 41  1  0  0  0
M  END
> <s_m_source_file>
../1w22_ligand.sdf

> <i_m_source_file_index>
1

> <s_epik_input>
bjFbY0hdW2NIXVtjSF1bY0hdYzEtYzJzYyhbY0hdW2NIXTIpUyg9TykoPU8pTihbQ0gzXSljM1tjSF1bY0hdYyhbY0hdW2NIXTMpQyg9TylbTkhdW09IXQ==

> <s_epik_cmdline>
J2VwaWtfYXBwJywgJy1pbWFlJywgJ2xpZ2FuZF9wcm8ubWFlJywgJy1vbWFlJywgJ2xpZ2FuZF9wcmVwLm1hZScsICctbXMnLCAnMScsICctcGgnLCAnNycsICctcGh0JywgJzAuNScsICctbnQn

> <r_epik_Ionization_Penalty>
  0.0265

> <r_epik_Ionization_Penalty_Charging>
  0.0000

> <r_epik_Ionization_Penalty_Neutral>
  0.0265

> <r_epik_State_Penalty>
  0.0200

> <r_epik_Charging_Adjusted_Penalty>
0.0200252157797636

> <i_epik_Tot_Q>
0

> <i_epik_Tot_abs_Q>
0

> <s_epik_Chemistry_Notes>
This compound has a N-S or N-O group and may undergo hydrolysis at high or low pH.

$$$$
