1w25_ligand
                    3D
 Schrodinger Suite 2020-3.
 36 38  0  0  1  0            999 V2000
   90.1150   19.5760   83.7650 P   0  0  0  0  0  0
   90.7830   20.8090   83.1950 O   0  5  0  0  0  0
   89.7630   18.5830   82.6860 O   0  5  0  0  0  0
   91.0930   18.8160   84.7860 O   0  0  0  0  0  0
   90.7490   17.5250   85.2820 C   0  0  0  0  0  0
   91.7630   17.0720   86.3340 C   0  0  1  0  0  0
   92.9710   16.6570   85.6790 O   0  0  0  0  0  0
   92.1590   18.1340   87.3660 C   0  0  1  0  0  0
   91.3030   18.0940   88.5370 O   0  0  0  0  0  0
   93.5890   17.7380   87.6640 C   0  0  1  0  0  0
   93.5910   16.7280   88.6710 O   0  0  0  0  0  0
   94.1250   17.1180   86.3850 C   0  0  2  0  0  0
   94.9120   18.0840   85.5660 N   0  0  0  0  0  0
   94.4300   18.9710   84.6730 C   0  0  0  0  0  0
   95.4360   19.6870   84.1090 N   0  0  0  0  0  0
   96.5910   19.2580   84.6370 C   0  0  0  0  0  0
   98.0330   19.5830   84.4830 C   0  0  0  0  0  0
   98.4220   20.4680   83.6860 O   0  0  0  0  0  0
   98.9170   18.8980   85.2170 N   0  0  0  0  0  0
   98.5390   17.9380   86.0820 C   0  0  0  0  0  0
   99.4840   17.2860   86.7990 N   0  0  0  0  0  0
   97.2380   17.5890   86.2750 N   0  0  0  0  0  0
   96.2400   18.2010   85.5940 C   0  0  0  0  0  0
   88.8751   19.9939   84.4778 O   0  0  0  0  0  0
   89.7495   17.5625   85.7398 H   0  0  0  0  0  0
   90.7455   16.8025   84.4526 H   0  0  0  0  0  0
   91.3057   16.2193   86.8572 H   0  0  0  0  0  0
   92.0343   19.1832   87.0599 H   0  0  0  0  0  0
   90.2394   18.3609   88.4502 H   0  0  0  0  0  0
   94.1925   18.5729   88.0496 H   0  0  0  0  0  0
   93.2384   16.9628   89.6862 H   0  0  0  0  0  0
   94.8038   16.2724   86.5699 H   0  0  0  0  0  0
   93.3736   19.0966   84.4354 H   0  0  0  0  0  0
   99.9920   19.1120   85.1244 H   0  0  0  0  0  0
  100.5461   17.5412   86.6695 H   0  0  0  0  0  0
   99.1898   16.5009   87.5111 H   0  0  0  0  0  0
  1  2  1  0  0  0
  1  3  1  0  0  0
  1  4  1  0  0  0
  1 24  2  0  0  0
  4  5  1  0  0  0
  5  6  1  0  0  0
  5 25  1  0  0  0
  5 26  1  0  0  0
  6  7  1  0  0  0
  6  8  1  0  0  0
  6 27  1  0  0  0
  7 12  1  0  0  0
  8  9  1  0  0  0
  8 10  1  0  0  0
  8 28  1  0  0  0
  9 29  1  0  0  0
 10 11  1  0  0  0
 10 12  1  0  0  0
 10 30  1  0  0  0
 11 31  1  0  0  0
 12 13  1  0  0  0
 12 32  1  0  0  0
 13 14  1  0  0  0
 13 23  1  0  0  0
 14 15  2  0  0  0
 14 33  1  0  0  0
 15 16  1  0  0  0
 16 17  1  0  0  0
 16 23  2  0  0  0
 17 18  2  0  0  0
 17 19  1  0  0  0
 19 20  1  0  0  0
 19 34  1  0  0  0
 20 21  1  0  0  0
 20 22  2  0  0  0
 21 35  1  0  0  0
 21 36  1  0  0  0
 22 23  1  0  0  0
M  CHG  2   2  -1   3  -1
M  END
> <s_m_source_file>
../1w25_ligand.sdf

> <i_m_source_file_index>
1

> <s_epik_input>
W09IXVAoPU8pKFtPSF0pT1tDSDJdW0NASF0xT1tDQEhdKFtDQEhdKFtPSF0pW0NAQEhdMVtPSF0pbihbY0hdbjIpYyhjMjMpbmMoW05IMl0pW25IXWMzPU8=

> <s_epik_cmdline>
J2VwaWtfYXBwJywgJy1pbWFlJywgJ2xpZ2FuZF9wcm8ubWFlJywgJy1vbWFlJywgJ2xpZ2FuZF9wcmVwLm1hZScsICctbXMnLCAnMScsICctcGgnLCAnNycsICctcGh0JywgJzAuNScsICctbnQn

> <r_lp_tautomer_probability>
0.999940409345307

> <r_epik_Ionization_Penalty>
  0.1039

> <r_epik_Ionization_Penalty_Charging>
  0.1039

> <r_epik_Ionization_Penalty_Neutral>
  0.0001

> <r_epik_State_Penalty>
  0.0920

> <r_epik_Charging_Adjusted_Penalty>
0.19587073098791

> <i_epik_Tot_Q>
-2

> <i_epik_Tot_abs_Q>
2

> <s_epik_Chemistry_Notes>
This compound contains an acetal/aminal-like group ( X-CH(R)-Y where X, Y are N, S, or O) that may be acid/base labile, releasing an aldehyde.

$$$$
