1w2h_ligand
                    3D
 Schrodinger Suite 2020-3.
 36 37  0  0  1  0            999 V2000
   32.4040   24.4020   97.3340 P   0  0  0  0  0  0
   33.0500   23.2690   96.6620 O   0  0  0  0  0  0
   31.6150   25.3220   96.4780 O   0  5  0  0  0  0
   33.4460   25.2390   98.2180 O   0  5  0  0  0  0
   31.4140   23.8560   98.4900 O   0  0  0  0  0  0
   30.6690   24.8060   99.3240 C   0  0  0  0  0  0
   29.8010   23.9520  100.2930 C   0  0  1  0  0  0
   30.1900   23.7390  101.6480 O   0  0  0  0  0  0
   28.4260   24.5420  100.3200 C   0  0  1  0  0  0
   27.3620   23.4790  100.1810 N   0  3  0  0  0  0
   28.3740   25.2980  101.6720 C   0  0  0  0  0  0
   29.3820   24.4830  102.5290 C   0  0  2  0  0  0
   30.2990   25.1390  103.5280 N   0  0  0  0  0  0
   31.1750   24.2610  104.2860 C   0  0  0  0  0  0
   31.2010   23.0300  104.1340 O   0  0  0  0  0  0
   31.9790   24.9150  105.1940 N   0  0  0  0  0  0
   31.9460   26.3140  105.3690 C   0  0  0  0  0  0
   32.7760   26.8660  106.2900 O   0  0  0  0  0  0
   31.0210   27.1690  104.5570 C   0  0  0  0  0  0
   31.0080   28.6490  104.7610 C   0  0  0  0  0  0
   30.2080   26.5140  103.6380 C   0  0  0  0  0  0
   31.3763   25.4378   99.8813 H   0  0  0  0  0  0
   30.0376   25.4394   98.6836 H   0  0  0  0  0  0
   29.9006   22.9134   99.9446 H   0  0  0  0  0  0
   28.2372   25.1957   99.4557 H   0  0  0  0  0  0
   27.4605   22.9875   99.2018 H   0  0  0  0  0  0
   26.3677   23.9429  100.2601 H   0  0  0  0  0  0
   27.4830   22.7325  100.9798 H   0  0  0  0  0  0
   28.6810   26.3432  101.5196 H   0  0  0  0  0  0
   27.3481   25.2712  102.0679 H   0  0  0  0  0  0
   28.7563   23.8485  103.1739 H   0  0  0  0  0  0
   32.6820   24.3435  105.8178 H   0  0  0  0  0  0
   31.7376   28.9183  105.5390 H   0  0  0  0  0  0
   30.0029   28.9670  105.0750 H   0  0  0  0  0  0
   31.2740   29.1513  103.8192 H   0  0  0  0  0  0
   29.5112   27.0751  103.0153 H   0  0  0  0  0  0
  1  2  2  0  0  0
  1  3  1  0  0  0
  1  4  1  0  0  0
  1  5  1  0  0  0
  5  6  1  0  0  0
  6  7  1  0  0  0
  6 22  1  0  0  0
  6 23  1  0  0  0
  7  8  1  0  0  0
  7  9  1  0  0  0
  7 24  1  0  0  0
  8 12  1  0  0  0
  9 10  1  0  0  0
  9 11  1  0  0  0
  9 25  1  0  0  0
 10 26  1  0  0  0
 10 27  1  0  0  0
 10 28  1  0  0  0
 11 12  1  0  0  0
 11 29  1  0  0  0
 11 30  1  0  0  0
 12 13  1  0  0  0
 12 31  1  0  0  0
 13 14  1  0  0  0
 13 21  1  0  0  0
 14 15  2  0  0  0
 14 16  1  0  0  0
 16 17  1  0  0  0
 16 32  1  0  0  0
 17 18  2  0  0  0
 17 19  1  0  0  0
 19 20  1  0  0  0
 19 21  2  0  0  0
 20 33  1  0  0  0
 20 34  1  0  0  0
 20 35  1  0  0  0
 21 36  1  0  0  0
M  CHG  3   3  -1   4  -1  10   1
M  END
> <s_m_source_file>
../1w2h_ligand.sdf

> <i_m_source_file_index>
1

> <s_epik_input>
Tz1QKFtPSF0pKFtPSF0pT1tDSDJdW0NASF0xT1tDQEhdKFtDSDJdW0NAQEhdMVtOSDMrXSluMmMoPU8pW25IXWMoPU8pYyhbQ0gzXSlbY0hdMg==

> <s_epik_cmdline>
J2VwaWtfYXBwJywgJy1pbWFlJywgJ2xpZ2FuZF9wcm8ubWFlJywgJy1vbWFlJywgJ2xpZ2FuZF9wcmVwLm1hZScsICctbXMnLCAnMScsICctcGgnLCAnNycsICctcGh0JywgJzAuNScsICctbnQn

> <r_lp_tautomer_probability>
1

> <r_epik_Ionization_Penalty>
  0.1104

> <r_epik_Ionization_Penalty_Charging>
  0.1104

> <r_epik_Ionization_Penalty_Neutral>
  0.0000

> <r_epik_State_Penalty>
 -0.0000

> <r_epik_Charging_Adjusted_Penalty>
0.110392351321675

> <i_epik_Tot_Q>
-1

> <i_epik_Tot_abs_Q>
3

> <s_epik_Chemistry_Notes>
This compound contains an acetal/aminal-like group ( X-CH(R)-Y where X, Y are N, S, or O) that may be acid/base labile, releasing an aldehyde.

$$$$
