1w2k_ligand
                    3D
 Schrodinger Suite 2020-3.
 58 60  0  0  1  0            999 V2000
   30.3400    6.7100   15.0520 C   0  0  0  0  0  0
   29.3360    7.3050   15.7410 N   0  0  0  0  0  0
   31.0110    5.8030   15.7980 N   0  3  0  0  0  0
   30.5660    6.8970   13.6060 C   0  0  0  0  0  0
   29.7360    7.7560   12.8270 C   0  0  0  0  0  0
   29.7840    7.7520   11.4310 C   0  0  0  0  0  0
   30.6720    6.8820   10.7800 C   0  0  0  0  0  0
   30.9540    6.9830    9.3970 N   0  0  0  0  0  0
   32.1720    6.2720    8.8890 C   0  0  1  0  0  0
   32.0320    5.8400    7.4840 C   0  0  0  0  0  0
   31.6530    6.7080    6.5150 N   0  0  0  0  0  0
   31.8630    6.0460    5.1950 C   0  0  0  0  0  0
   33.0760    6.6070    4.5110 C   0  0  0  0  0  0
   32.8430    7.7450    3.7500 C   0  0  0  0  0  0
   33.8150    8.7260    3.6590 C   0  0  0  0  0  0
   35.0290    8.5640    4.3200 C   0  0  0  0  0  0
   35.2950    7.3990    5.0330 C   0  0  0  0  0  0
   34.3150    6.4170    5.1120 C   0  0  0  0  0  0
   32.3920    4.7420    7.0860 O   0  0  0  0  0  0
   33.5420    6.9460    9.1030 C   0  0  0  0  0  0
   33.8560    8.2680    8.7430 C   0  0  0  0  0  0
   35.1750    8.7390    8.8960 C   0  0  0  0  0  0
   35.5840    9.9840    8.4470 O   0  0  0  0  0  0
   34.6260   10.8800    7.8900 C   0  0  0  0  0  0
   36.1770    7.9160    9.4180 C   0  0  0  0  0  0
   37.3910    8.5160    9.7640 O   0  0  0  0  0  0
   38.3870    7.8460   10.5560 C   0  0  0  0  0  0
   34.5650    6.1410    9.6010 C   0  0  0  0  0  0
   35.8680    6.6030    9.7650 C   0  0  0  0  0  0
   31.5080    6.0460   11.5460 C   0  0  0  0  0  0
   31.4620    6.0530   12.9360 C   0  0  0  0  0  0
   29.2251    7.1214   16.8199 H   0  0  0  0  0  0
   28.6320    7.9715   15.2213 H   0  0  0  0  0  0
   30.7983    5.7099   16.8732 H   0  0  0  0  0  0
   29.0473    8.4323   13.3333 H   0  0  0  0  0  0
   29.1399    8.4162   10.8547 H   0  0  0  0  0  0
   30.3206    7.5540    8.7022 H   0  0  0  0  0  0
   32.1607    5.3780    9.5297 H   0  0  0  0  0  0
   31.2518    7.7313    6.5595 H   0  0  0  0  0  0
   32.0057    4.9657    5.3452 H   0  0  0  0  0  0
   30.9834    6.2143    4.5563 H   0  0  0  0  0  0
   31.8955    7.8655    3.2248 H   0  0  0  0  0  0
   33.6299    9.6245    3.0703 H   0  0  0  0  0  0
   35.7771    9.3557    4.2789 H   0  0  0  0  0  0
   36.2586    7.2587    5.5227 H   0  0  0  0  0  0
   34.5193    5.4908    5.6492 H   0  0  0  0  0  0
   33.0823    8.9259    8.3472 H   0  0  0  0  0  0
   35.1269   11.8123    7.5901 H   0  0  0  0  0  0
   33.8535   11.1038    8.6405 H   0  0  0  0  0  0
   34.1581   10.4155    7.0095 H   0  0  0  0  0  0
   39.2512    8.5116   10.6980 H   0  0  0  0  0  0
   38.7106    6.9300   10.0400 H   0  0  0  0  0  0
   37.9610    7.5840   11.5357 H   0  0  0  0  0  0
   34.3361    5.1104    9.8724 H   0  0  0  0  0  0
   36.6396    5.9430   10.1615 H   0  0  0  0  0  0
   32.2056    5.3796   11.0386 H   0  0  0  0  0  0
   32.1241    5.4008   13.5054 H   0  0  0  0  0  0
   31.7694    5.1585   15.3295 H   0  0  0  0  0  0
  1  2  1  0  0  0
  1  3  2  0  0  0
  1  4  1  0  0  0
  2 32  1  0  0  0
  2 33  1  0  0  0
  3 34  1  0  0  0
  3 58  1  0  0  0
  4  5  2  0  0  0
  4 31  1  0  0  0
  5  6  1  0  0  0
  5 35  1  0  0  0
  6  7  2  0  0  0
  6 36  1  0  0  0
  7  8  1  0  0  0
  7 30  1  0  0  0
  8  9  1  0  0  0
  8 37  1  0  0  0
  9 10  1  0  0  0
  9 20  1  0  0  0
  9 38  1  0  0  0
 10 11  1  0  0  0
 10 19  2  0  0  0
 11 12  1  0  0  0
 11 39  1  0  0  0
 12 13  1  0  0  0
 12 40  1  0  0  0
 12 41  1  0  0  0
 13 14  2  0  0  0
 13 18  1  0  0  0
 14 15  1  0  0  0
 14 42  1  0  0  0
 15 16  2  0  0  0
 15 43  1  0  0  0
 16 17  1  0  0  0
 16 44  1  0  0  0
 17 18  2  0  0  0
 17 45  1  0  0  0
 18 46  1  0  0  0
 20 21  2  0  0  0
 20 28  1  0  0  0
 21 22  1  0  0  0
 21 47  1  0  0  0
 22 23  1  0  0  0
 22 25  2  0  0  0
 23 24  1  0  0  0
 24 48  1  0  0  0
 24 49  1  0  0  0
 24 50  1  0  0  0
 25 26  1  0  0  0
 25 29  1  0  0  0
 26 27  1  0  0  0
 27 51  1  0  0  0
 27 52  1  0  0  0
 27 53  1  0  0  0
 28 29  2  0  0  0
 28 54  1  0  0  0
 29 55  1  0  0  0
 30 31  2  0  0  0
 30 56  1  0  0  0
 31 57  1  0  0  0
M  CHG  1   3   1
M  END
> <s_m_source_file>
../1w2k_ligand.sdf

> <i_m_source_file_index>
1

> <s_epik_input>
W0hdXE49QyhcW05IMl0pYzFbY0hdW2NIXWMoW2NIXVtjSF0xKVtOSF1bQ0BIXShjMltjSF1jKE9bQ0gzXSljKE9bQ0gzXSlbY0hdW2NIXTIpQyg9TylbTkhdW0NIMl1jM1tjSF1bY0hdW2NIXVtjSF1bY0hdMw==

> <s_epik_cmdline>
J2VwaWtfYXBwJywgJy1pbWFlJywgJ2xpZ2FuZF9wcm8ubWFlJywgJy1vbWFlJywgJ2xpZ2FuZF9wcmVwLm1hZScsICctbXMnLCAnMScsICctcGgnLCAnNycsICctcGh0JywgJzAuNScsICctbnQn

> <r_lp_tautomer_probability>
1

> <r_epik_Ionization_Penalty>
  0.0004

> <r_epik_Ionization_Penalty_Charging>
  0.0003

> <r_epik_Ionization_Penalty_Neutral>
  0.0001

> <r_epik_State_Penalty>
 -0.0000

> <r_epik_Charging_Adjusted_Penalty>
0.0003115973184836

> <i_epik_Tot_Q>
1

> <i_epik_Tot_abs_Q>
1

> <s_epik_Chemistry_Notes>
This compound has an imine and may undergo hydrolysis.

$$$$
