1w2x_ligand
                    3D
 Schrodinger Suite 2020-3.
 72 77  0  0  1  0            999 V2000
   -5.2130   34.1310  -16.7800 C   0  0  0  0  0  0
   -5.2190   35.6620  -16.7380 C   0  0  0  0  0  0
   -4.2710   36.1310  -15.7640 O   0  0  0  0  0  0
   -2.9260   35.8120  -16.1540 C   0  0  0  0  0  0
   -2.7390   34.2930  -16.1230 C   0  0  0  0  0  0
   -3.8270   33.6090  -16.8610 N   0  0  0  0  0  0
   -3.5420   32.5310  -17.5870 C   0  0  0  0  0  0
   -2.4030   32.0640  -17.5410 O   0  0  0  0  0  0
   -4.5960   31.8710  -18.4800 C   0  0  1  0  0  0
   -3.9090   31.3610  -19.7490 C   0  0  0  0  0  0
   -5.2420   30.7040  -17.7270 C   0  0  0  0  0  0
   -6.0850   29.8080  -18.6400 C   0  0  0  0  0  0
   -5.3100   29.4240  -19.9030 C   0  0  0  0  0  0
   -4.8760   30.6460  -20.5970 N   0  3  2  0  0  0
   -4.2590   30.3420  -21.8990 C   0  0  0  0  0  0
   -3.9080   31.6340  -22.6430 C   0  0  0  0  0  0
   -3.1960   31.3300  -23.9640 C   0  0  0  0  0  0
   -5.1840   29.4890  -22.7730 C   0  0  0  0  0  0
   -4.5010   29.1270  -24.0950 C   0  0  0  0  0  0
   -3.9980   30.3590  -24.7460 N   0  0  0  0  0  0
   -4.2740   30.5770  -26.0310 C   0  0  0  0  0  0
   -4.7880   29.6770  -26.6940 O   0  0  0  0  0  0
   -3.9670   31.9270  -26.6890 C   0  0  0  0  0  0
   -2.8060   32.0900  -27.4410 C   0  0  0  0  0  0
   -1.8750   31.0580  -27.5480 C   0  0  0  0  0  0
   -0.7190   31.2230  -28.3050 C   0  0  0  0  0  0
   -0.4850   32.4260  -28.9630 C   0  0  0  0  0  0
   -1.4090   33.4610  -28.8590 C   0  0  0  0  0  0
   -2.5650   33.2950  -28.0990 C   0  0  0  0  0  0
   -3.4780   34.3400  -28.0010 C   0  0  0  0  0  0
   -4.6340   34.1820  -27.2420 C   0  0  0  0  0  0
   -4.8790   32.9760  -26.5840 C   0  0  0  0  0  0
   -6.0300   32.8450  -25.8130 C   0  0  0  0  0  0
   -6.9290   33.9020  -25.6960 C   0  0  0  0  0  0
   -6.6800   35.1020  -26.3550 C   0  0  0  0  0  0
   -5.5300   35.2390  -27.1290 C   0  0  0  0  0  0
   -5.6863   33.7374  -15.8684 H   0  0  0  0  0  0
   -5.7727   33.7862  -17.6619 H   0  0  0  0  0  0
   -4.9463   36.0570  -17.7278 H   0  0  0  0  0  0
   -6.2237   36.0174  -16.4654 H   0  0  0  0  0  0
   -2.7410   36.1858  -17.1719 H   0  0  0  0  0  0
   -2.2198   36.2849  -15.4557 H   0  0  0  0  0  0
   -1.7778   34.0323  -16.5900 H   0  0  0  0  0  0
   -2.7465   33.9438  -15.0799 H   0  0  0  0  0  0
   -5.3775   32.5968  -18.7491 H   0  0  0  0  0  0
   -3.4977   32.2126  -20.3108 H   0  0  0  0  0  0
   -3.0942   30.6750  -19.4744 H   0  0  0  0  0  0
   -4.4571   30.0808  -17.2736 H   0  0  0  0  0  0
   -5.9002   31.0963  -16.9378 H   0  0  0  0  0  0
   -6.3576   28.8885  -18.1012 H   0  0  0  0  0  0
   -6.9988   30.3435  -18.9370 H   0  0  0  0  0  0
   -4.4297   28.8257  -19.6253 H   0  0  0  0  0  0
   -5.9595   28.8344  -20.5667 H   0  0  0  0  0  0
   -5.7622   31.2709  -20.7819 H   0  0  0  0  0  0
   -3.3485   29.7740  -21.6574 H   0  0  0  0  0  0
   -4.8295   32.1942  -22.8597 H   0  0  0  0  0  0
   -3.2438   32.2485  -22.0175 H   0  0  0  0  0  0
   -3.0812   32.2595  -24.5410 H   0  0  0  0  0  0
   -2.2040   30.9027  -23.7560 H   0  0  0  0  0  0
   -5.4394   28.5613  -22.2400 H   0  0  0  0  0  0
   -6.1038   30.0515  -22.9913 H   0  0  0  0  0  0
   -3.6592   28.4468  -23.8985 H   0  0  0  0  0  0
   -5.2254   28.6318  -24.7584 H   0  0  0  0  0  0
   -2.0541   30.1135  -27.0342 H   0  0  0  0  0  0
    0.0028   30.4099  -28.3823 H   0  0  0  0  0  0
    0.4189   32.5573  -29.5579 H   0  0  0  0  0  0
   -1.2280   34.4046  -29.3737 H   0  0  0  0  0  0
   -3.2884   35.2809  -28.5177 H   0  0  0  0  0  0
   -6.2297   31.9065  -25.2959 H   0  0  0  0  0  0
   -7.8271   33.7895  -25.0886 H   0  0  0  0  0  0
   -7.3818   35.9312  -26.2659 H   0  0  0  0  0  0
   -5.3321   36.1772  -27.6473 H   0  0  0  0  0  0
  1  2  1  0  0  0
  1  6  1  0  0  0
  1 37  1  0  0  0
  1 38  1  0  0  0
  2  3  1  0  0  0
  2 39  1  0  0  0
  2 40  1  0  0  0
  3  4  1  0  0  0
  4  5  1  0  0  0
  4 41  1  0  0  0
  4 42  1  0  0  0
  5  6  1  0  0  0
  5 43  1  0  0  0
  5 44  1  0  0  0
  6  7  1  0  0  0
  7  8  2  0  0  0
  7  9  1  0  0  0
  9 10  1  0  0  0
  9 11  1  0  0  0
  9 45  1  0  0  0
 10 14  1  0  0  0
 10 46  1  0  0  0
 10 47  1  0  0  0
 11 12  1  0  0  0
 11 48  1  0  0  0
 11 49  1  0  0  0
 12 13  1  0  0  0
 12 50  1  0  0  0
 12 51  1  0  0  0
 13 14  1  0  0  0
 13 52  1  0  0  0
 13 53  1  0  0  0
 14 15  1  0  0  0
 14 54  1  0  0  0
 15 16  1  0  0  0
 15 18  1  0  0  0
 15 55  1  0  0  0
 16 17  1  0  0  0
 16 56  1  0  0  0
 16 57  1  0  0  0
 17 20  1  0  0  0
 17 58  1  0  0  0
 17 59  1  0  0  0
 18 19  1  0  0  0
 18 60  1  0  0  0
 18 61  1  0  0  0
 19 20  1  0  0  0
 19 62  1  0  0  0
 19 63  1  0  0  0
 20 21  1  0  0  0
 21 22  2  0  0  0
 21 23  1  0  0  0
 23 24  2  0  0  0
 23 32  1  0  0  0
 24 25  1  0  0  0
 24 29  1  0  0  0
 25 26  2  0  0  0
 25 64  1  0  0  0
 26 27  1  0  0  0
 26 65  1  0  0  0
 27 28  2  0  0  0
 27 66  1  0  0  0
 28 29  1  0  0  0
 28 67  1  0  0  0
 29 30  2  0  0  0
 30 31  1  0  0  0
 30 68  1  0  0  0
 31 32  2  0  0  0
 31 36  1  0  0  0
 32 33  1  0  0  0
 33 34  2  0  0  0
 33 69  1  0  0  0
 34 35  1  0  0  0
 34 70  1  0  0  0
 35 36  2  0  0  0
 35 71  1  0  0  0
 36 72  1  0  0  0
M  CHG  1  14   1
M  END
> <s_m_source_file>
../1w2x_ligand.sdf

> <i_m_source_file_index>
1

> <s_epik_input>
W0NIMl0xW0NIMl1PW0NIMl1bQ0gyXU4xQyg9TylbQ0BIXTJbQ0gyXVtOQEgrXShbQ0gyXVtDSDJdW0NIMl0yKVtDSF0zW0NIMl1bQ0gyXU4oW0NIMl1bQ0gyXTMpQyg9TyljNGMoW2NIXVtjSF1bY0hdW2NIXTUpYzVbY0hdYyhjNDYpW2NIXVtjSF1bY0hdW2NIXTY=

> <s_epik_cmdline>
J2VwaWtfYXBwJywgJy1pbWFlJywgJ2xpZ2FuZF9wcm8ubWFlJywgJy1vbWFlJywgJ2xpZ2FuZF9wcmVwLm1hZScsICctbXMnLCAnMScsICctcGgnLCAnNycsICctcGh0JywgJzAuNScsICctbnQn

> <r_epik_Ionization_Penalty>
  0.0117

> <r_epik_Ionization_Penalty_Charging>
  0.0117

> <r_epik_Ionization_Penalty_Neutral>
  0.0000

> <r_epik_State_Penalty>
  0.0090

> <r_epik_Charging_Adjusted_Penalty>
0.0207478621571625

> <i_epik_Tot_Q>
1

> <i_epik_Tot_abs_Q>
1

$$$$
