1w4l_ligand
                    3D
 Schrodinger Suite 2020-3.
 76 81  0  0  1  0            999 V2000
    2.5360   67.5520   63.2280 C   0  0  0  0  0  0
    2.7100   68.0920   62.0010 C   0  0  0  0  0  0
    4.1320   68.3020   61.4100 C   0  0  1  0  0  0
    5.2970   68.3180   62.5910 C   0  0  0  0  0  0
    5.0440   67.0660   63.5100 C   0  0  1  0  0  0
    3.6920   67.1980   64.2430 C   0  0  1  0  0  0
    4.4880   63.6460   63.6910 C   0  0  0  0  0  0
    3.6700   62.9440   64.6380 C   0  0  0  0  0  0
    2.8550   63.6770   65.5220 C   0  0  0  0  0  0
    1.9870   65.7690   66.5040 C   0  0  0  0  0  0
    2.2390   68.2480   66.1490 C   0  0  0  0  0  0
    3.6250   68.2300   65.4320 C   0  0  0  0  0  0
    4.4060   65.0350   63.6680 C   0  0  0  0  0  0
    3.5790   65.7690   64.5550 C   0  0  0  0  0  0
    2.8100   65.1200   65.4940 C   0  0  0  0  0  0
    5.7100   61.6650   63.0940 C   0  0  0  0  0  0
    1.0430   67.1130   68.1070 C   0  0  0  0  0  0
    2.0370   67.4500   69.2870 C   0  0  0  0  0  0
    3.3170   66.5040   69.3880 C   0  0  0  0  0  0
    2.8790   65.0570   69.6490 C   0  0  0  0  0  0
    4.1040   64.1260   69.7210 C   0  0  0  0  0  0
    3.6160   62.6360   69.6090 C   0  0  0  0  0  0
    3.0940   62.1600   71.0020 C   0  0  0  0  0  0
    1.7820   61.6910   70.6310 C   0  0  0  0  0  0
   -0.1760   61.7490   72.0520 C   0  0  0  0  0  0
   -0.9030   60.8300   72.7950 C   0  0  0  0  0  0
   -2.1520   60.9480   73.4290 C   0  0  0  0  0  0
   -2.6640   59.7760   74.0900 C   0  0  0  0  0  0
   -1.9120   58.5710   74.0890 C   0  0  0  0  0  0
   -0.6410   58.4900   73.4420 C   0  0  0  0  0  0
   -0.1780   59.6540   72.7990 C   0  0  0  0  0  0
    0.9650   59.8740   72.0410 C   0  0  0  0  0  0
    5.1150   65.8430   62.7910 O   0  0  0  0  0  0
    5.4730   63.0580   62.8690 O   0  0  0  0  0  0
    4.1590   67.1110   60.5120 O   0  0  0  0  0  0
   -0.4610   62.9940   71.8990 O   0  0  0  0  0  0
    1.9030   59.0260   71.8380 O   0  0  0  0  0  0
    1.7570   66.9850   66.8270 N   0  3  0  0  0  0
    0.9000   61.1240   71.6040 N   0  0  0  0  0  0
    1.5226   67.3241   63.5899 H   0  0  0  0  0  0
    1.8367   68.3911   61.4028 H   0  0  0  0  0  0
    4.2850   69.2232   60.8287 H   0  0  0  0  0  0
    6.2920   68.2618   62.1253 H   0  0  0  0  0  0
    5.2165   69.2480   63.1729 H   0  0  0  0  0  0
    5.8640   66.9376   64.2319 H   0  0  0  0  0  0
    3.6793   61.8546   64.6728 H   0  0  0  0  0  0
    2.2419   63.1410   66.2465 H   0  0  0  0  0  0
    1.4991   64.9517   67.0554 H   0  0  0  0  0  0
    2.2481   69.0066   66.9455 H   0  0  0  0  0  0
    1.4521   68.4913   65.4199 H   0  0  0  0  0  0
    4.3859   67.9732   66.1837 H   0  0  0  0  0  0
    3.8154   69.2435   65.0491 H   0  0  0  0  0  0
    6.4906   61.3099   62.4051 H   0  0  0  0  0  0
    4.7816   61.1020   62.9177 H   0  0  0  0  0  0
    6.0400   61.5122   64.1322 H   0  0  0  0  0  0
    0.5312   66.1626   68.3188 H   0  0  0  0  0  0
    0.2986   67.9174   68.0136 H   0  0  0  0  0  0
    2.4148   68.4760   69.1664 H   0  0  0  0  0  0
    1.5081   67.3646   70.2477 H   0  0  0  0  0  0
    3.8804   66.5475   68.4442 H   0  0  0  0  0  0
    3.9592   66.8429   70.2143 H   0  0  0  0  0  0
    2.3348   65.0052   70.6035 H   0  0  0  0  0  0
    2.2221   64.7200   68.8336 H   0  0  0  0  0  0
    4.7892   64.3569   68.8920 H   0  0  0  0  0  0
    4.6234   64.2768   70.6788 H   0  0  0  0  0  0
    2.8048   62.5705   68.8689 H   0  0  0  0  0  0
    4.4543   61.9985   69.2915 H   0  0  0  0  0  0
    3.7561   61.3731   71.3923 H   0  0  0  0  0  0
    3.0839   63.0102   71.6999 H   0  0  0  0  0  0
    1.1992   62.5249   70.2128 H   0  0  0  0  0  0
    1.8765   60.8955   69.8772 H   0  0  0  0  0  0
   -2.7082   61.8853   73.4205 H   0  0  0  0  0  0
   -3.6307   59.8134   74.5922 H   0  0  0  0  0  0
   -2.3126   57.6908   74.5918 H   0  0  0  0  0  0
   -0.0567   57.5698   73.4459 H   0  0  0  0  0  0
    3.4224   67.0173   59.7004 H   0  0  0  0  0  0
  1  2  2  0  0  0
  1  6  1  0  0  0
  1 40  1  0  0  0
  2  3  1  0  0  0
  2 41  1  0  0  0
  3  4  1  0  0  0
  3 35  1  0  0  0
  3 42  1  0  0  0
  4  5  1  0  0  0
  4 43  1  0  0  0
  4 44  1  0  0  0
  5  6  1  0  0  0
  5 33  1  0  0  0
  5 45  1  0  0  0
  6 12  1  0  0  0
  6 14  1  0  0  0
  7  8  2  0  0  0
  7 13  1  0  0  0
  7 34  1  0  0  0
  8  9  1  0  0  0
  8 46  1  0  0  0
  9 15  2  0  0  0
  9 47  1  0  0  0
 10 15  1  0  0  0
 10 38  2  0  0  0
 10 48  1  0  0  0
 11 12  1  0  0  0
 11 38  1  0  0  0
 11 49  1  0  0  0
 11 50  1  0  0  0
 12 51  1  0  0  0
 12 52  1  0  0  0
 13 14  2  0  0  0
 13 33  1  0  0  0
 14 15  1  0  0  0
 16 34  1  0  0  0
 16 53  1  0  0  0
 16 54  1  0  0  0
 16 55  1  0  0  0
 17 18  1  0  0  0
 17 38  1  0  0  0
 17 56  1  0  0  0
 17 57  1  0  0  0
 18 19  1  0  0  0
 18 58  1  0  0  0
 18 59  1  0  0  0
 19 20  1  0  0  0
 19 60  1  0  0  0
 19 61  1  0  0  0
 20 21  1  0  0  0
 20 62  1  0  0  0
 20 63  1  0  0  0
 21 22  1  0  0  0
 21 64  1  0  0  0
 21 65  1  0  0  0
 22 23  1  0  0  0
 22 66  1  0  0  0
 22 67  1  0  0  0
 23 24  1  0  0  0
 23 68  1  0  0  0
 23 69  1  0  0  0
 24 39  1  0  0  0
 24 70  1  0  0  0
 24 71  1  0  0  0
 25 26  1  0  0  0
 25 36  2  0  0  0
 25 39  1  0  0  0
 26 27  2  0  0  0
 26 31  1  0  0  0
 27 28  1  0  0  0
 27 72  1  0  0  0
 28 29  2  0  0  0
 28 73  1  0  0  0
 29 30  1  0  0  0
 29 74  1  0  0  0
 30 31  2  0  0  0
 30 75  1  0  0  0
 31 32  1  0  0  0
 32 37  2  0  0  0
 32 39  1  0  0  0
 35 76  1  0  0  0
M  CHG  1  38   1
M  END
> <s_m_source_file>
../1w4l_ligand.sdf

> <i_m_source_file_index>
1

> <s_epik_input>
W0NIXTE9W0NIXVtDQEhdKFtPSF0pW0NIMl1bQ0BASF0oW0NAXTEyMylPYzRjM2MoW2NIXVtjSF1jNE9bQ0gzXSlbQ0hdPVtOK10oW0NIMl1bQ0gyXTIpW0NIMl1bQ0gyXVtDSDJdW0NIMl1bQ0gyXVtDSDJdW0NIMl1bQ0gyXU4oQzU9TylDKD1PKWMoYzU2KVtjSF1bY0hdW2NIXVtjSF02

> <s_epik_cmdline>
J2VwaWtfYXBwJywgJy1pbWFlJywgJ2xpZ2FuZF9wcm8ubWFlJywgJy1vbWFlJywgJ2xpZ2FuZF9wcmVwLm1hZScsICctbXMnLCAnMScsICctcGgnLCAnNycsICctcGh0JywgJzAuNScsICctbnQn

> <r_lp_tautomer_probability>
1

> <r_epik_Ionization_Penalty>
  0.0000

> <r_epik_Ionization_Penalty_Charging>
  0.0000

> <r_epik_Ionization_Penalty_Neutral>
  0.0000

> <r_epik_State_Penalty>
 -0.0000

> <r_epik_Charging_Adjusted_Penalty>
0

> <i_epik_Tot_Q>
1

> <i_epik_Tot_abs_Q>
1

> <s_epik_Chemistry_Notes>
This compound has an imine and may undergo hydrolysis.

$$$$
