1w5v_ligand
                    3D
 Schrodinger Suite 2020-3.
 88 93  0  0  1  0            999 V2000
    9.6410   24.0370    2.1640 C   0  0  0  0  0  0
    8.9980   25.2930    1.7340 C   0  0  0  0  0  0
    7.5680   25.5240    1.8590 C   0  0  0  0  0  0
    6.7000   24.4880    2.4330 C   0  0  0  0  0  0
    7.3050   23.2100    2.8790 C   0  0  0  0  0  0
    8.7460   22.9890    2.7480 C   0  0  0  0  0  0
   16.3970   22.0600    8.7660 C   0  0  0  0  0  0
   15.6750   20.9270    9.3790 C   0  0  0  0  0  0
   16.4360   19.7040    9.7740 C   0  0  0  0  0  0
   17.9150   19.6440    9.5470 C   0  0  0  0  0  0
   18.5990   20.8150    8.9250 C   0  0  0  0  0  0
   17.8410   21.9810    8.5500 C   0  0  0  0  0  0
   15.7020   23.3240    8.3220 C   0  0  0  0  0  0
   14.5970   23.0950    7.4000 O   0  0  0  0  0  0
   14.9230   22.5790    6.0040 C   0  0  2  0  0  0
   13.8560   22.8600    4.9680 C   0  0  1  0  0  0
   13.5060   24.2870    4.9800 C   0  0  2  0  0  0
   12.0990   24.4790    4.2820 C   0  0  2  0  0  0
   10.9190   24.4620    5.2400 C   0  0  0  0  0  0
   10.6740   23.4510    5.9320 O   0  0  0  0  0  0
   10.1210   25.5690    5.3190 N   0  0  0  0  0  0
   11.8690   23.4890    3.1800 O   0  0  0  0  0  0
   11.1650   23.9350    1.9790 C   0  0  0  0  0  0
   14.5780   25.0440    4.3620 O   0  0  0  0  0  0
   14.3140   22.5350    3.5900 O   0  0  0  0  0  0
   15.0660   21.1010    5.8610 C   0  0  0  0  0  0
   14.0820   20.3750    6.1310 O   0  0  0  0  0  0
   16.2700   20.6090    5.4590 N   0  0  0  0  0  0
   16.5430   19.1970    5.3010 C   0  0  1  0  0  0
   16.4980   18.8130    3.8620 C   0  0  0  0  0  0
   17.4770   17.7550    3.6020 C   0  0  0  0  0  0
   15.6520   19.3330    2.7750 C   0  0  0  0  0  0
   15.8120   18.7620    1.4010 C   0  0  0  0  0  0
   16.8040   17.7040    1.1730 C   0  0  0  0  0  0
   17.9720   18.7290    5.6820 C   0  0  2  0  0  0
   18.8880   19.7880    5.3420 O   0  0  0  0  0  0
   17.6470   17.1840    2.2590 C   0  0  0  0  0  0
   18.1790   17.4220    4.8580 C   0  0  0  0  0  0
    8.9630   25.6810    6.1800 C   0  0  1  0  0  0
    9.2650   26.4220    7.4800 C   0  0  0  0  0  0
    8.1160   27.2380    7.8440 C   0  0  0  0  0  0
   10.4690   26.4110    8.3240 C   0  0  0  0  0  0
   10.5040   27.2470    9.5630 C   0  0  0  0  0  0
    9.3320   28.0650    9.9100 C   0  0  0  0  0  0
    7.8460   26.5800    5.5770 C   0  0  2  0  0  0
    8.4930   27.6670    4.8690 O   0  0  0  0  0  0
    8.1300   28.0760    9.0680 C   0  0  0  0  0  0
    7.0520   27.0460    6.8070 C   0  0  0  0  0  0
   15.7350   18.5740   10.3740 F   0  0  0  0  0  0
    6.4580   22.1660    3.4550 F   0  0  0  0  0  0
    9.6196   26.0792    1.3055 H   0  0  0  0  0  0
    7.1390   26.4690    1.5257 H   0  0  0  0  0  0
    5.6274   24.6559    2.5297 H   0  0  0  0  0  0
    9.1751   22.0442    3.0817 H   0  0  0  0  0  0
   14.5986   20.9826    9.5414 H   0  0  0  0  0  0
   18.4831   18.7584    9.8318 H   0  0  0  0  0  0
   19.6752   20.7881    8.7539 H   0  0  0  0  0  0
   18.3569   22.8258    8.0937 H   0  0  0  0  0  0
   15.2920   23.8447    9.1999 H   0  0  0  0  0  0
   16.4231   23.9788    7.8110 H   0  0  0  0  0  0
   15.8779   23.0992    5.8382 H   0  0  0  0  0  0
   12.9773   22.2460    5.2148 H   0  0  0  0  0  0
   13.4943   24.6595    6.0149 H   0  0  0  0  0  0
   12.1015   25.4776    3.8206 H   0  0  0  0  0  0
   10.4082   26.4104    4.6713 H   0  0  0  0  0  0
   11.3898   23.2146    1.1787 H   0  0  0  0  0  0
   11.5683   24.9218    1.7080 H   0  0  0  0  0  0
   15.5987   24.9838    4.7677 H   0  0  0  0  0  0
   14.6308   21.5110    3.3429 H   0  0  0  0  0  0
   17.0575   21.3481    5.2506 H   0  0  0  0  0  0
   15.7471   18.7958    5.9457 H   0  0  0  0  0  0
   14.9224   20.1196    2.9675 H   0  0  0  0  0  0
   15.1983   19.1279    0.5779 H   0  0  0  0  0  0
   16.9186   17.2925    0.1702 H   0  0  0  0  0  0
   18.1837   18.5768    6.7507 H   0  0  0  0  0  0
   18.8293   20.7546    5.8637 H   0  0  0  0  0  0
   18.3777   16.3969    2.0732 H   0  0  0  0  0  0
   17.7107   16.5387    5.3167 H   0  0  0  0  0  0
   19.2356   17.2059    4.6413 H   0  0  0  0  0  0
    8.7234   24.6135    6.2946 H   0  0  0  0  0  0
   11.3280   25.7990    8.0489 H   0  0  0  0  0  0
   11.3875   27.2502   10.2014 H   0  0  0  0  0  0
    9.3567   28.6763   10.8121 H   0  0  0  0  0  0
    7.1886   26.1368    4.8145 H   0  0  0  0  0  0
    9.0918   27.4586    3.9701 H   0  0  0  0  0  0
    7.2673   28.6860    9.3359 H   0  0  0  0  0  0
    6.3321   26.2910    7.1558 H   0  0  0  0  0  0
    6.5300   27.9991    6.6364 H   0  0  0  0  0  0
  1  2  2  0  0  0
  1  6  1  0  0  0
  1 23  1  0  0  0
  2  3  1  0  0  0
  2 51  1  0  0  0
  3  4  2  0  0  0
  3 52  1  0  0  0
  4  5  1  0  0  0
  4 53  1  0  0  0
  5  6  2  0  0  0
  5 50  1  0  0  0
  6 54  1  0  0  0
  7  8  2  0  0  0
  7 12  1  0  0  0
  7 13  1  0  0  0
  8  9  1  0  0  0
  8 55  1  0  0  0
  9 10  2  0  0  0
  9 49  1  0  0  0
 10 11  1  0  0  0
 10 56  1  0  0  0
 11 12  2  0  0  0
 11 57  1  0  0  0
 12 58  1  0  0  0
 13 14  1  0  0  0
 13 59  1  0  0  0
 13 60  1  0  0  0
 14 15  1  0  0  0
 15 16  1  0  0  0
 15 26  1  0  0  0
 15 61  1  0  0  0
 16 17  1  0  0  0
 16 25  1  0  0  0
 16 62  1  0  0  0
 17 18  1  0  0  0
 17 24  1  0  0  0
 17 63  1  0  0  0
 18 19  1  0  0  0
 18 22  1  0  0  0
 18 64  1  0  0  0
 19 20  2  0  0  0
 19 21  1  0  0  0
 21 39  1  0  0  0
 21 65  1  0  0  0
 22 23  1  0  0  0
 23 66  1  0  0  0
 23 67  1  0  0  0
 24 68  1  0  0  0
 25 69  1  0  0  0
 26 27  2  0  0  0
 26 28  1  0  0  0
 28 29  1  0  0  0
 28 70  1  0  0  0
 29 30  1  0  0  0
 29 35  1  0  0  0
 29 71  1  0  0  0
 30 31  2  0  0  0
 30 32  1  0  0  0
 31 37  1  0  0  0
 31 38  1  0  0  0
 32 33  2  0  0  0
 32 72  1  0  0  0
 33 34  1  0  0  0
 33 73  1  0  0  0
 34 37  2  0  0  0
 34 74  1  0  0  0
 35 36  1  0  0  0
 35 38  1  0  0  0
 35 75  1  0  0  0
 36 76  1  0  0  0
 37 77  1  0  0  0
 38 78  1  0  0  0
 38 79  1  0  0  0
 39 40  1  0  0  0
 39 45  1  0  0  0
 39 80  1  0  0  0
 40 41  2  0  0  0
 40 42  1  0  0  0
 41 47  1  0  0  0
 41 48  1  0  0  0
 42 43  2  0  0  0
 42 81  1  0  0  0
 43 44  1  0  0  0
 43 82  1  0  0  0
 44 47  2  0  0  0
 44 83  1  0  0  0
 45 46  1  0  0  0
 45 48  1  0  0  0
 45 84  1  0  0  0
 46 85  1  0  0  0
 47 86  1  0  0  0
 48 87  1  0  0  0
 48 88  1  0  0  0
M  END
> <s_m_source_file>
../1w5v_ligand.sdf

> <i_m_source_file_index>
1

> <s_epik_input>
W2NIXTFbY0hdW2NIXVtjSF1jKGMxMilbQ0gyXVtDQEBIXShbT0hdKVtDQEhdMltOSF1DKD1PKVtDQEhdKE9bQ0gyXWMzW2NIXVtjSF1bY0hdYyhGKVtjSF0zKVtDQEhdKFtPSF0pW0NAQEhdKFtPSF0pW0NAQEhdKE9bQ0gyXWM0W2NIXWMoRilbY0hdW2NIXVtjSF00KUMoPU8pW05IXVtDQEBIXTVbQ0BIXShbT0hdKVtDSDJdYyhjNTYpW2NIXVtjSF1bY0hdW2NIXTY=

> <s_epik_cmdline>
J2VwaWtfYXBwJywgJy1pbWFlJywgJ2xpZ2FuZF9wcm8ubWFlJywgJy1vbWFlJywgJ2xpZ2FuZF9wcmVwLm1hZScsICctbXMnLCAnMScsICctcGgnLCAnNycsICctcGh0JywgJzAuNScsICctbnQn

> <r_lp_tautomer_probability>
1

> <r_epik_Ionization_Penalty>
  0.0000

> <r_epik_Ionization_Penalty_Charging>
  0.0000

> <r_epik_Ionization_Penalty_Neutral>
  0.0000

> <r_epik_State_Penalty>
 -0.0000

> <r_epik_Charging_Adjusted_Penalty>
0

> <i_epik_Tot_Q>
0

> <i_epik_Tot_abs_Q>
0

$$$$
