1w5y_ligand
                    3D
 Schrodinger Suite 2020-3.
 88 93  0  0  1  0            999 V2000
   16.7470   22.4150    8.8490 C   0  0  0  0  0  0
   18.1370   22.5070    8.4070 C   0  0  0  0  0  0
   19.0930   21.4520    8.6270 C   0  0  0  0  0  0
   18.6990   20.2310    9.3160 C   0  0  0  0  0  0
   17.3120   20.0960    9.7750 C   0  0  0  0  0  0
   16.3600   21.1650    9.5440 C   0  0  0  0  0  0
   10.0890   24.1140    2.2380 C   0  0  0  0  0  0
    8.9640   23.2690    2.6390 C   0  0  0  0  0  0
    7.5900   23.8330    2.6510 C   0  0  0  0  0  0
    7.3770   25.2480    2.2560 C   0  0  0  0  0  0
    8.5440   26.0650    1.8590 C   0  0  0  0  0  0
    9.8530   25.4940    1.8580 C   0  0  0  0  0  0
   11.5260   23.6260    2.2100 C   0  0  0  0  0  0
   12.0850   23.2880    3.5080 O   0  0  0  0  0  0
   12.1100   24.3590    4.5860 C   0  0  2  0  0  0
   13.1530   24.0940    5.6590 C   0  0  1  0  0  0
   14.4610   23.7650    5.0460 C   0  0  2  0  0  0
   15.3490   23.0370    6.1270 C   0  0  2  0  0  0
   15.4050   21.5370    5.9420 C   0  0  0  0  0  0
   14.3900   20.8530    6.1490 O   0  0  0  0  0  0
   16.5810   20.9340    5.5800 N   0  0  0  0  0  0
   14.8490   23.3370    7.4870 O   0  0  0  0  0  0
   15.8270   23.6130    8.5330 C   0  0  0  0  0  0
   15.0610   25.0140    4.6130 O   0  0  0  0  0  0
   13.3700   25.2610    6.5330 O   0  0  0  0  0  0
   10.8810   24.4500    5.4300 C   0  0  0  0  0  0
   10.4930   23.4220    6.0300 O   0  0  0  0  0  0
   10.2390   25.6640    5.5050 N   0  0  0  0  0  0
    9.0380   25.9040    6.2810 C   0  0  1  0  0  0
    9.3830   26.6970    7.5010 C   0  0  0  0  0  0
    8.3090   27.6230    7.8140 C   0  0  0  0  0  0
   10.5370   26.5730    8.3840 C   0  0  0  0  0  0
   10.5970   27.4050    9.6050 C   0  0  0  0  0  0
    9.5050   28.3250    9.8980 C   0  0  0  0  0  0
    7.9280   26.8150    5.6690 C   0  0  2  0  0  0
    8.5800   27.8700    4.9350 O   0  0  0  0  0  0
    8.3510   28.4480    9.0140 C   0  0  0  0  0  0
    7.1650   27.3230    6.9250 C   0  0  0  0  0  0
   16.7060   19.5050    5.4160 C   0  0  1  0  0  0
   16.5860   19.0370    3.9580 C   0  0  0  0  0  0
   17.5240   17.9720    3.7160 C   0  0  0  0  0  0
   15.7810   19.5570    2.8640 C   0  0  0  0  0  0
   15.9450   18.9790    1.5090 C   0  0  0  0  0  0
   16.9030   17.9050    1.3040 C   0  0  0  0  0  0
   18.1020   18.9560    5.7940 C   0  0  2  0  0  0
   19.0760   19.9400    5.3730 O   0  0  0  0  0  0
   17.7050   17.3800    2.3910 C   0  0  0  0  0  0
   18.1830   17.6340    5.0200 C   0  0  0  0  0  0
    8.4740   27.3950    1.4730 F   0  0  0  0  0  0
   20.2910   21.5760    8.2200 F   0  0  0  0  0  0
   14.9050   21.0540   10.0000 F   0  0  0  0  0  0
    9.1550   22.1270    2.9620 F   0  0  0  0  0  0
   18.4633   23.4096    7.8904 H   0  0  0  0  0  0
   19.4209   19.4325    9.4875 H   0  0  0  0  0  0
   16.9963   19.1894   10.2912 H   0  0  0  0  0  0
    6.7444   23.2125    2.9476 H   0  0  0  0  0  0
    6.3755   25.6783    2.2585 H   0  0  0  0  0  0
   10.6999   26.1135    1.5629 H   0  0  0  0  0  0
   11.5930   22.7184    1.5921 H   0  0  0  0  0  0
   12.1707   24.4085    1.7834 H   0  0  0  0  0  0
   12.2631   25.2623    3.9773 H   0  0  0  0  0  0
   12.7878   23.2584    6.2742 H   0  0  0  0  0  0
   14.3317   23.1544    4.1402 H   0  0  0  0  0  0
   16.3835   23.4036    6.0540 H   0  0  0  0  0  0
   17.4518   21.5850    5.4129 H   0  0  0  0  0  0
   15.2694   23.8958    9.4380 H   0  0  0  0  0  0
   16.4365   24.4647    8.1967 H   0  0  0  0  0  0
   14.5550   25.6350    3.8592 H   0  0  0  0  0  0
   12.5291   25.6880    7.0992 H   0  0  0  0  0  0
   10.6931   26.4824    4.9270 H   0  0  0  0  0  0
    8.7259   24.8561    6.4013 H   0  0  0  0  0  0
   11.3427   25.8779    8.1477 H   0  0  0  0  0  0
   11.4499   27.3310   10.2797 H   0  0  0  0  0  0
    9.5518   28.9359   10.7995 H   0  0  0  0  0  0
    7.2603   26.3793    4.9111 H   0  0  0  0  0  0
    9.1526   27.6348    4.0257 H   0  0  0  0  0  0
    7.5409   29.1395    9.2454 H   0  0  0  0  0  0
    6.5235   26.5640    7.3965 H   0  0  0  0  0  0
    6.5827   28.2405    6.7544 H   0  0  0  0  0  0
   15.8772   19.2083    6.0756 H   0  0  0  0  0  0
   15.0663   20.3614    3.0383 H   0  0  0  0  0  0
   15.3532   19.3555    0.6746 H   0  0  0  0  0  0
   17.0213   17.4832    0.3059 H   0  0  0  0  0  0
   18.3331   18.8130    6.8599 H   0  0  0  0  0  0
   19.1083   20.9255    5.8606 H   0  0  0  0  0  0
   18.4181   16.5722    2.2267 H   0  0  0  0  0  0
   17.6290   16.8201    5.5107 H   0  0  0  0  0  0
   19.2188   17.3131    4.8351 H   0  0  0  0  0  0
  1  2  2  0  0  0
  1  6  1  0  0  0
  1 23  1  0  0  0
  2  3  1  0  0  0
  2 53  1  0  0  0
  3  4  2  0  0  0
  3 50  1  0  0  0
  4  5  1  0  0  0
  4 54  1  0  0  0
  5  6  2  0  0  0
  5 55  1  0  0  0
  6 51  1  0  0  0
  7  8  2  0  0  0
  7 12  1  0  0  0
  7 13  1  0  0  0
  8  9  1  0  0  0
  8 52  1  0  0  0
  9 10  2  0  0  0
  9 56  1  0  0  0
 10 11  1  0  0  0
 10 57  1  0  0  0
 11 12  2  0  0  0
 11 49  1  0  0  0
 12 58  1  0  0  0
 13 14  1  0  0  0
 13 59  1  0  0  0
 13 60  1  0  0  0
 14 15  1  0  0  0
 15 16  1  0  0  0
 15 26  1  0  0  0
 15 61  1  0  0  0
 16 17  1  0  0  0
 16 25  1  0  0  0
 16 62  1  0  0  0
 17 18  1  0  0  0
 17 24  1  0  0  0
 17 63  1  0  0  0
 18 19  1  0  0  0
 18 22  1  0  0  0
 18 64  1  0  0  0
 19 20  2  0  0  0
 19 21  1  0  0  0
 21 39  1  0  0  0
 21 65  1  0  0  0
 22 23  1  0  0  0
 23 66  1  0  0  0
 23 67  1  0  0  0
 24 68  1  0  0  0
 25 69  1  0  0  0
 26 27  2  0  0  0
 26 28  1  0  0  0
 28 29  1  0  0  0
 28 70  1  0  0  0
 29 30  1  0  0  0
 29 35  1  0  0  0
 29 71  1  0  0  0
 30 31  2  0  0  0
 30 32  1  0  0  0
 31 37  1  0  0  0
 31 38  1  0  0  0
 32 33  2  0  0  0
 32 72  1  0  0  0
 33 34  1  0  0  0
 33 73  1  0  0  0
 34 37  2  0  0  0
 34 74  1  0  0  0
 35 36  1  0  0  0
 35 38  1  0  0  0
 35 75  1  0  0  0
 36 76  1  0  0  0
 37 77  1  0  0  0
 38 78  1  0  0  0
 38 79  1  0  0  0
 39 40  1  0  0  0
 39 45  1  0  0  0
 39 80  1  0  0  0
 40 41  2  0  0  0
 40 42  1  0  0  0
 41 47  1  0  0  0
 41 48  1  0  0  0
 42 43  2  0  0  0
 42 81  1  0  0  0
 43 44  1  0  0  0
 43 82  1  0  0  0
 44 47  2  0  0  0
 44 83  1  0  0  0
 45 46  1  0  0  0
 45 48  1  0  0  0
 45 84  1  0  0  0
 46 85  1  0  0  0
 47 86  1  0  0  0
 48 87  1  0  0  0
 48 88  1  0  0  0
M  END
> <s_m_source_file>
../1w5y_ligand.sdf

> <i_m_source_file_index>
1

> <s_epik_input>
W2NIXTFbY0hdW2NIXVtjSF1jKGMxMilbQ0gyXVtDQEBIXShbT0hdKVtDQEhdMltOSF1DKD1PKVtDQEhdKE9bQ0gyXWMzW2NIXWMoRilbY0hdW2NIXWMzRilbQ0BIXShbT0hdKVtDQEBIXShbT0hdKVtDQEBIXShPW0NIMl1jNGMoRilbY0hdW2NIXWMoRilbY0hdNClDKD1PKVtOSF1bQ0BASF01W0NASF0oW09IXSlbQ0gyXWMoYzU2KVtjSF1bY0hdW2NIXVtjSF02

> <s_epik_cmdline>
J2VwaWtfYXBwJywgJy1pbWFlJywgJ2xpZ2FuZF9wcm8ubWFlJywgJy1vbWFlJywgJ2xpZ2FuZF9wcmVwLm1hZScsICctbXMnLCAnMScsICctcGgnLCAnNycsICctcGh0JywgJzAuNScsICctbnQn

> <r_lp_tautomer_probability>
1

> <r_epik_Ionization_Penalty>
  0.0000

> <r_epik_Ionization_Penalty_Charging>
  0.0000

> <r_epik_Ionization_Penalty_Neutral>
  0.0000

> <r_epik_State_Penalty>
 -0.0000

> <r_epik_Charging_Adjusted_Penalty>
0

> <i_epik_Tot_Q>
0

> <i_epik_Tot_abs_Q>
0

$$$$
