1w6h_ligand
                    3D
 Schrodinger Suite 2020-3.
 91 92  0  0  1  0            999 V2000
   14.2640    6.8750   19.9020 C   0  0  0  0  0  0
   13.7890    8.2290   19.9480 C   0  0  0  0  0  0
   14.0280    9.1180   18.8510 C   0  0  0  0  0  0
   14.7430    8.6620   17.6970 C   0  0  0  0  0  0
   15.2170    7.3120   17.6370 C   0  0  0  0  0  0
   14.9730    6.4280   18.7380 C   0  0  0  0  0  0
   14.1040    5.9980   21.0050 C   0  0  0  0  0  0
   12.5740    5.4380   22.8140 C   0  0  0  0  0  0
   12.8720    6.1410   21.6480 O   0  0  0  0  0  0
   15.0000    9.6050   16.5400 Br  0  0  0  0  0  0
   12.2500    6.3350   23.8870 C   0  0  1  0  0  0
   11.4420    5.6770   24.8960 C   0  0  2  0  0  0
   10.9070    6.5970   25.8690 C   0  0  0  0  0  0
    9.7050    7.2010   25.4400 C   0  0  0  0  0  0
    9.7560    8.4300   24.8620 O   0  0  0  0  0  0
   12.2070    4.7630   25.5740 O   0  0  0  0  0  0
    3.7740   10.0710   28.1230 N   0  0  0  0  0  0
   13.3970    6.8510   24.4110 N   0  0  0  0  0  0
    6.0460    9.0780   25.7220 N   0  0  0  0  0  0
    5.5330   10.0410   26.5260 C   0  0  1  0  0  0
    5.4980   11.2590   25.8510 C   0  0  0  0  0  0
    6.4320   12.1360   26.4170 C   0  0  0  0  0  0
    7.2770   12.6290   25.4230 C   0  0  0  0  0  0
    5.7760   13.2050   27.0540 C   0  0  0  0  0  0
    4.2390    9.6740   26.9320 C   0  0  0  0  0  0
    3.4520    8.9040   26.1080 O   0  0  0  0  0  0
    8.5090    6.5850   25.6400 N   0  0  0  0  0  0
    7.3150    7.1340   25.2760 C   0  0  1  0  0  0
    6.3240    6.1300   25.1810 C   0  0  0  0  0  0
    6.8750    8.1260   26.1710 C   0  0  0  0  0  0
    7.2510    8.1040   27.4860 O   0  0  0  0  0  0
   15.7150    9.1100   23.7350 N   0  0  0  0  0  0
   14.9870    8.6100   24.7720 C   0  0  1  0  0  0
   14.7300    9.6360   25.7780 C   0  0  0  0  0  0
   14.1080    9.1060   26.9140 C   0  0  0  0  0  0
   15.9100   10.2630   26.2060 C   0  0  0  0  0  0
   13.7750    8.1310   24.2140 C   0  0  0  0  0  0
   13.0020    8.9670   23.4720 O   0  0  0  0  0  0
   17.4720    8.8050   22.0370 C   0  0  0  0  0  0
   17.5300   10.1250   20.0540 C   0  0  0  0  0  0
   18.5230    9.2800   19.4950 C   0  0  0  0  0  0
   18.4650    7.9480   21.4990 C   0  0  0  0  0  0
   18.9740    8.2150   20.2090 C   0  0  0  0  0  0
   16.8870    8.5860   23.2980 C   0  0  0  0  0  0
   17.4320    7.4850   23.9110 O   0  0  0  0  0  0
   17.0340    9.8710   21.3010 N   0  0  0  0  0  0
   13.2433    8.5824   20.8229 H   0  0  0  0  0  0
   13.6646   10.1447   18.8945 H   0  0  0  0  0  0
   15.7596    6.9594   16.7599 H   0  0  0  0  0  0
   15.3318    5.3998   18.6902 H   0  0  0  0  0  0
   14.1792    4.9565   20.6592 H   0  0  0  0  0  0
   14.8911    6.1955   21.7477 H   0  0  0  0  0  0
   11.7128    4.7777   22.6341 H   0  0  0  0  0  0
   13.4440    4.8335   23.1102 H   0  0  0  0  0  0
   11.6956    7.2038   23.5024 H   0  0  0  0  0  0
   10.6202    5.1513   24.3877 H   0  0  0  0  0  0
   10.6998    6.0599   26.8063 H   0  0  0  0  0  0
   11.6383    7.3965   26.0586 H   0  0  0  0  0  0
   12.7179    3.9582   25.0250 H   0  0  0  0  0  0
    4.4038   10.6869   28.7818 H   0  0  0  0  0  0
    2.7622    9.7813   28.4428 H   0  0  0  0  0  0
   14.0563    6.2171   25.0221 H   0  0  0  0  0  0
    5.7852    9.0570   24.6536 H   0  0  0  0  0  0
    6.1966   10.1321   27.3986 H   0  0  0  0  0  0
    5.7432   11.0978   24.7909 H   0  0  0  0  0  0
    4.4912   11.6945   25.9324 H   0  0  0  0  0  0
    7.0303   11.5859   27.1582 H   0  0  0  0  0  0
    7.7881   11.7906   24.9272 H   0  0  0  0  0  0
    8.0239   13.2979   25.8753 H   0  0  0  0  0  0
    6.6854   13.1873   24.6825 H   0  0  0  0  0  0
    5.1106   12.8125   27.8371 H   0  0  0  0  0  0
    5.1829   13.7638   26.3151 H   0  0  0  0  0  0
    6.5215   13.8745   27.5079 H   0  0  0  0  0  0
    8.5358    5.5961   26.1211 H   0  0  0  0  0  0
    7.5134    7.6037   24.3013 H   0  0  0  0  0  0
    6.6591    5.3489   24.4827 H   0  0  0  0  0  0
    5.3870    6.5734   24.8130 H   0  0  0  0  0  0
    6.1549    5.6866   26.1734 H   0  0  0  0  0  0
   15.3598    9.9978   23.1913 H   0  0  0  0  0  0
   15.5645    7.7940   25.2310 H   0  0  0  0  0  0
   14.0688   10.3896   25.3253 H   0  0  0  0  0  0
   13.1746    8.6035   26.6202 H   0  0  0  0  0  0
   13.8806    9.9182   27.6201 H   0  0  0  0  0  0
   14.7799    8.3797   27.3947 H   0  0  0  0  0  0
   16.4311   10.6947   25.3388 H   0  0  0  0  0  0
   16.5616    9.5236   26.6947 H   0  0  0  0  0  0
   15.6623   11.0622   26.9201 H   0  0  0  0  0  0
   17.1617   10.9797   19.4865 H   0  0  0  0  0  0
   18.9211    9.4832   18.5009 H   0  0  0  0  0  0
   18.8301    7.0959   22.0723 H   0  0  0  0  0  0
   19.7349    7.5615   19.7824 H   0  0  0  0  0  0
  1  2  2  0  0  0
  1  6  1  0  0  0
  1  7  1  0  0  0
  2  3  1  0  0  0
  2 47  1  0  0  0
  3  4  2  0  0  0
  3 48  1  0  0  0
  4  5  1  0  0  0
  4 10  1  0  0  0
  5  6  2  0  0  0
  5 49  1  0  0  0
  6 50  1  0  0  0
  7  9  1  0  0  0
  7 51  1  0  0  0
  7 52  1  0  0  0
  8  9  1  0  0  0
  8 11  1  0  0  0
  8 53  1  0  0  0
  8 54  1  0  0  0
 11 12  1  0  0  0
 11 18  1  0  0  0
 11 55  1  0  0  0
 12 13  1  0  0  0
 12 16  1  0  0  0
 12 56  1  0  0  0
 13 14  1  0  0  0
 13 57  1  0  0  0
 13 58  1  0  0  0
 14 15  2  0  0  0
 14 27  1  0  0  0
 16 59  1  0  0  0
 17 25  1  0  0  0
 17 60  1  0  0  0
 17 61  1  0  0  0
 18 37  1  0  0  0
 18 62  1  0  0  0
 19 20  1  0  0  0
 19 30  1  0  0  0
 19 63  1  0  0  0
 20 21  1  0  0  0
 20 25  1  0  0  0
 20 64  1  0  0  0
 21 22  1  0  0  0
 21 65  1  0  0  0
 21 66  1  0  0  0
 22 23  1  0  0  0
 22 24  1  0  0  0
 22 67  1  0  0  0
 23 68  1  0  0  0
 23 69  1  0  0  0
 23 70  1  0  0  0
 24 71  1  0  0  0
 24 72  1  0  0  0
 24 73  1  0  0  0
 25 26  2  0  0  0
 27 28  1  0  0  0
 27 74  1  0  0  0
 28 29  1  0  0  0
 28 30  1  0  0  0
 28 75  1  0  0  0
 29 76  1  0  0  0
 29 77  1  0  0  0
 29 78  1  0  0  0
 30 31  2  0  0  0
 32 33  1  0  0  0
 32 44  1  0  0  0
 32 79  1  0  0  0
 33 34  1  0  0  0
 33 37  1  0  0  0
 33 80  1  0  0  0
 34 35  1  0  0  0
 34 36  1  0  0  0
 34 81  1  0  0  0
 35 82  1  0  0  0
 35 83  1  0  0  0
 35 84  1  0  0  0
 36 85  1  0  0  0
 36 86  1  0  0  0
 36 87  1  0  0  0
 37 38  2  0  0  0
 39 42  2  0  0  0
 39 44  1  0  0  0
 39 46  1  0  0  0
 40 41  1  0  0  0
 40 46  2  0  0  0
 40 88  1  0  0  0
 41 43  2  0  0  0
 41 89  1  0  0  0
 42 43  1  0  0  0
 42 90  1  0  0  0
 43 91  1  0  0  0
 44 45  2  0  0  0
M  END
> <s_m_source_file>
../1w6h_ligand.sdf

> <i_m_source_file_index>
1

> <s_epik_input>
bjFbY0hdW2NIXVtjSF1bY0hdYzFDKD1PKVtOSF1bQ0BASF0oW0NIXShbQ0gzXSlbQ0gzXSlDKD1PKVtOSF1bQ0BASF0oW0NIMl1PW0NIMl1jMltjSF1bY0hdYyhCcilbY0hdW2NIXTIpW0NAQEhdKFtPSF0pW0NIMl1DKD1PKVtOSF1bQ0BASF0oW0NIM10pQyg9TylbTkhdW0NASF0oQyg9TylbTkgyXSlbQ0gyXVtDSF0oW0NIM10pW0NIM10=

> <s_epik_cmdline>
J2VwaWtfYXBwJywgJy1pbWFlJywgJ2xpZ2FuZF9wcm8ubWFlJywgJy1vbWFlJywgJ2xpZ2FuZF9wcmVwLm1hZScsICctbXMnLCAnMScsICctcGgnLCAnNycsICctcGh0JywgJzAuNScsICctbnQn

> <r_lp_tautomer_probability>
1

> <r_epik_Ionization_Penalty>
  0.0005

> <r_epik_Ionization_Penalty_Charging>
  0.0000

> <r_epik_Ionization_Penalty_Neutral>
  0.0005

> <r_epik_State_Penalty>
 -0.0000

> <r_epik_Charging_Adjusted_Penalty>
0

> <i_epik_Tot_Q>
0

> <i_epik_Tot_abs_Q>
0

$$$$
