1w6r_ligand
                    3D
 Schrodinger Suite 2020-3.
 41 44  0  0  1  0            999 V2000
    2.6500   67.6610   63.4320 C   0  0  0  0  0  0
    2.7990   68.1720   62.1980 C   0  0  0  0  0  0
    4.1930   68.4080   61.5850 C   0  0  1  0  0  0
    5.3690   68.4590   62.7340 C   0  0  0  0  0  0
    5.1530   67.2270   63.6640 C   0  0  1  0  0  0
    3.8460   67.3510   64.4300 C   0  0  1  0  0  0
    5.1900   65.9910   62.9580 O   0  0  0  0  0  0
    4.5890   63.7660   63.9110 C   0  0  0  0  0  0
    3.8270   63.1050   64.9120 C   0  0  0  0  0  0
    3.0760   63.8470   65.8210 C   0  0  0  0  0  0
    2.2290   65.9650   66.8100 C   0  0  0  0  0  0
    1.9940   67.2200   67.0670 N   0  3  0  0  0  0
    2.4530   68.4310   66.3370 C   0  0  0  0  0  0
    3.8090   68.4240   65.5990 C   0  0  0  0  0  0
    4.5190   65.1850   63.8760 C   0  0  0  0  0  0
    3.7520   65.9240   64.7850 C   0  0  0  0  0  0
    3.0290   65.2880   65.7800 C   0  0  0  0  0  0
    5.8240   61.7850   63.3060 C   0  0  0  0  0  0
    5.4870   63.1330   63.0060 O   0  0  0  0  0  0
    4.3180   67.2490   60.6900 O   0  0  0  0  0  0
    1.2120   67.4310   68.2710 C   0  0  0  0  0  0
    1.6448   67.4279   63.8131 H   0  0  0  0  0  0
    1.9133   68.4326   61.6000 H   0  0  0  0  0  0
    4.2569   69.3308   60.9897 H   0  0  0  0  0  0
    6.3560   68.4123   62.2507 H   0  0  0  0  0  0
    5.2840   69.3957   63.3044 H   0  0  0  0  0  0
    5.9981   67.1308   64.3616 H   0  0  0  0  0  0
    3.8301   62.0165   64.9686 H   0  0  0  0  0  0
    2.5059   63.3220   66.5874 H   0  0  0  0  0  0
    1.7801   65.1815   67.4382 H   0  0  0  0  0  0
    1.7257   68.6830   65.5512 H   0  0  0  0  0  0
    2.5392   69.2724   67.0403 H   0  0  0  0  0  0
    4.5969   68.1953   66.3317 H   0  0  0  0  0  0
    3.9771   69.4275   65.1811 H   0  0  0  0  0  0
    6.5189   61.4025   62.5439 H   0  0  0  0  0  0
    4.9111   61.1713   63.3110 H   0  0  0  0  0  0
    6.3027   61.7382   64.2953 H   0  0  0  0  0  0
    3.5913   67.1004   59.8777 H   0  0  0  0  0  0
    0.9406   66.4583   68.7071 H   0  0  0  0  0  0
    0.2974   67.9888   68.0211 H   0  0  0  0  0  0
    1.8052   68.0058   68.9974 H   0  0  0  0  0  0
  1  2  2  0  0  0
  1  6  1  0  0  0
  1 22  1  0  0  0
  2  3  1  0  0  0
  2 23  1  0  0  0
  3  4  1  0  0  0
  3 20  1  0  0  0
  3 24  1  0  0  0
  4  5  1  0  0  0
  4 25  1  0  0  0
  4 26  1  0  0  0
  5  6  1  0  0  0
  5  7  1  0  0  0
  5 27  1  0  0  0
  6 14  1  0  0  0
  6 16  1  0  0  0
  7 15  1  0  0  0
  8  9  2  0  0  0
  8 15  1  0  0  0
  8 19  1  0  0  0
  9 10  1  0  0  0
  9 28  1  0  0  0
 10 17  2  0  0  0
 10 29  1  0  0  0
 11 12  2  0  0  0
 11 17  1  0  0  0
 11 30  1  0  0  0
 12 13  1  0  0  0
 12 21  1  0  0  0
 13 14  1  0  0  0
 13 31  1  0  0  0
 13 32  1  0  0  0
 14 33  1  0  0  0
 14 34  1  0  0  0
 15 16  2  0  0  0
 16 17  1  0  0  0
 18 19  1  0  0  0
 18 35  1  0  0  0
 18 36  1  0  0  0
 18 37  1  0  0  0
 20 38  1  0  0  0
 21 39  1  0  0  0
 21 40  1  0  0  0
 21 41  1  0  0  0
M  CHG  1  12   1
M  END
> <s_m_source_file>
../1w6r_ligand.sdf

> <i_m_source_file_index>
1

> <s_epik_input>
W0NIXTE9W0NIXVtDQEhdKFtPSF0pW0NIMl1bQ0BASF0oW0NAXTEyMylPYzRjM2MoW0NIXT1bTitdKFtDSDNdKVtDSDJdW0NIMl0yKVtjSF1bY0hdYzRPW0NIM10=

> <s_epik_cmdline>
J2VwaWtfYXBwJywgJy1pbWFlJywgJ2xpZ2FuZF9wcm8ubWFlJywgJy1vbWFlJywgJ2xpZ2FuZF9wcmVwLm1hZScsICctbXMnLCAnMScsICctcGgnLCAnNycsICctcGh0JywgJzAuNScsICctbnQn

> <r_lp_tautomer_probability>
1

> <r_epik_Ionization_Penalty>
  0.0000

> <r_epik_Ionization_Penalty_Charging>
  0.0000

> <r_epik_Ionization_Penalty_Neutral>
  0.0000

> <r_epik_State_Penalty>
 -0.0000

> <r_epik_Charging_Adjusted_Penalty>
0

> <i_epik_Tot_Q>
1

> <i_epik_Tot_abs_Q>
1

> <s_epik_Chemistry_Notes>
This compound has an imine and may undergo hydrolysis.

$$$$
