1w6y_ligand
                    3D
 Schrodinger Suite 2020-3.
 38 41  0  0  1  0            999 V2000
   12.8050   59.4570    4.4450 C   0  0  0  0  0  0
   12.5540   58.5530    5.5280 C   0  0  0  0  0  0
   13.0970   58.8770    6.8430 C   0  0  0  0  0  0
   13.9220   60.1700    7.0510 C   0  0  0  0  0  0
   14.1290   61.0260    5.9010 C   0  0  0  0  0  0
   13.5860   60.6800    4.6340 C   0  0  0  0  0  0
   12.8370   57.9480    7.9530 C   0  0  0  0  0  0
   13.3700   58.2610    9.2750 C   0  0  0  0  0  0
   14.1650   59.4920    9.5120 C   0  0  0  0  0  0
   14.4510   60.4610    8.4010 C   0  0  0  0  0  0
   14.7090   59.7710   10.9210 C   0  0  1  0  0  0
   14.9410   61.3340   11.2420 C   0  0  2  0  0  0
   15.8250   61.9980   10.1200 C   0  0  0  0  0  0
   15.2860   61.7510    8.6470 C   0  0  0  0  0  0
   13.8450   59.3470   12.1570 C   0  0  0  0  0  0
   14.8060   59.8240   13.3080 C   0  0  0  0  0  0
   15.4820   61.1000   12.6590 C   0  0  0  0  0  0
   13.6500   62.2340   11.4270 C   0  0  0  0  0  0
   12.3050   59.1430    3.2840 O   0  0  0  0  0  0
   16.3100   61.7950   13.1970 O   0  0  0  0  0  0
   11.9713   57.6449    5.3732 H   0  0  0  0  0  0
   14.7066   61.9441    6.0083 H   0  0  0  0  0  0
   13.7551   61.3407    3.7837 H   0  0  0  0  0  0
   12.2556   57.0404    7.7909 H   0  0  0  0  0  0
   13.1809   57.5784   10.1035 H   0  0  0  0  0  0
   15.5924   59.1250   10.8098 H   0  0  0  0  0  0
   15.8591   63.0863   10.2762 H   0  0  0  0  0  0
   16.8450   61.5887   10.1666 H   0  0  0  0  0  0
   16.1799   61.7369    8.0062 H   0  0  0  0  0  0
   14.6761   62.6341    8.4060 H   0  0  0  0  0  0
   12.8785   59.8714   12.1260 H   0  0  0  0  0  0
   13.6738   58.2608   12.1295 H   0  0  0  0  0  0
   14.2150   60.0575   14.2059 H   0  0  0  0  0  0
   15.5252   59.0247   13.5401 H   0  0  0  0  0  0
   13.2052   62.4437   10.4430 H   0  0  0  0  0  0
   13.9295   63.1807   11.9124 H   0  0  0  0  0  0
   12.9191   61.7023   12.0540 H   0  0  0  0  0  0
   11.7215   58.2177    3.1685 H   0  0  0  0  0  0
  1  2  2  0  0  0
  1  6  1  0  0  0
  1 19  1  0  0  0
  2  3  1  0  0  0
  2 21  1  0  0  0
  3  4  2  0  0  0
  3  7  1  0  0  0
  4  5  1  0  0  0
  4 10  1  0  0  0
  5  6  2  0  0  0
  5 22  1  0  0  0
  6 23  1  0  0  0
  7  8  2  0  0  0
  7 24  1  0  0  0
  8  9  1  0  0  0
  8 25  1  0  0  0
  9 10  2  0  0  0
  9 11  1  0  0  0
 10 14  1  0  0  0
 11 12  1  0  0  0
 11 15  1  0  0  0
 11 26  1  0  0  0
 12 13  1  0  0  0
 12 17  1  0  0  0
 12 18  1  0  0  0
 13 14  1  0  0  0
 13 27  1  0  0  0
 13 28  1  0  0  0
 14 29  1  0  0  0
 14 30  1  0  0  0
 15 16  1  0  0  0
 15 31  1  0  0  0
 15 32  1  0  0  0
 16 17  1  0  0  0
 16 33  1  0  0  0
 16 34  1  0  0  0
 17 20  2  0  0  0
 18 35  1  0  0  0
 18 36  1  0  0  0
 18 37  1  0  0  0
 19 38  1  0  0  0
M  END
> <s_m_source_file>
../1w6y_ligand.sdf

> <i_m_source_file_index>
1

> <s_epik_input>
W2NIXTFbY0hdYyhbT0hdKVtjSF1jKFtjSF1bY0hdMiljMWMoW0NIMl1bQ0gyXTMpYzJbQ0BASF0oW0NAXTM0W0NIM10pW0NIMl1bQ0gyXUM0PU8=

> <s_epik_cmdline>
J2VwaWtfYXBwJywgJy1pbWFlJywgJ2xpZ2FuZF9wcm8ubWFlJywgJy1vbWFlJywgJ2xpZ2FuZF9wcmVwLm1hZScsICctbXMnLCAnMScsICctcGgnLCAnNycsICctcGh0JywgJzAuNScsICctbnQn

> <r_lp_tautomer_probability>
1

> <r_epik_Ionization_Penalty>
  0.0007

> <r_epik_Ionization_Penalty_Charging>
  0.0000

> <r_epik_Ionization_Penalty_Neutral>
  0.0007

> <r_epik_State_Penalty>
 -0.0000

> <r_epik_Charging_Adjusted_Penalty>
0

> <i_epik_Tot_Q>
0

> <i_epik_Tot_abs_Q>
0

$$$$
