1w70_ligand
                    3D
 Schrodinger Suite 2020-3.
  7  6  0  0  1  0            999 V2000
    8.1320   38.8100    3.3060 C   0  0  0  0  0  0
    8.4100   39.5350    4.6390 C   0  0  0  0  0  0
    7.0310   38.1840    3.1760 O   0  5  0  0  0  0
    9.4550   40.3200    4.6980 F   0  0  0  0  0  0
    7.3740   40.3210    4.9090 F   0  0  0  0  0  0
    8.5430   38.7650    5.8080 F   0  0  0  0  0  0
    9.0010   38.8700    2.4660 O   0  0  0  0  0  0
  1  2  1  0  0  0
  1  3  1  0  0  0
  1  7  2  0  0  0
  2  4  1  0  0  0
  2  5  1  0  0  0
  2  6  1  0  0  0
M  CHG  1   3  -1
M  END
> <s_m_source_file>
../1w70_ligand.sdf

> <i_m_source_file_index>
1

> <s_epik_input>
W09IXUMoPU8pQyhGKShGKUY=

> <s_epik_cmdline>
J2VwaWtfYXBwJywgJy1pbWFlJywgJ2xpZ2FuZF9wcm8ubWFlJywgJy1vbWFlJywgJ2xpZ2FuZF9wcmVwLm1hZScsICctbXMnLCAnMScsICctcGgnLCAnNycsICctcGh0JywgJzAuNScsICctbnQn

> <r_lp_tautomer_probability>
1

> <r_epik_Ionization_Penalty>
  0.0000

> <r_epik_Ionization_Penalty_Charging>
  0.0000

> <r_epik_Ionization_Penalty_Neutral>
  0.0000

> <r_epik_State_Penalty>
 -0.0000

> <r_epik_Charging_Adjusted_Penalty>
5.80600906024177e-07

> <i_epik_Tot_Q>
-1

> <i_epik_Tot_abs_Q>
1

$$$$
