1w76_ligand
                    3D
 Schrodinger Suite 2020-3.
 41 44  0  0  1  0            999 V2000
   93.0260   49.4920   19.8460 C   0  0  0  0  0  0
   91.8600   48.8880   19.4540 C   0  0  0  0  0  0
   91.0690   47.9260   20.3810 C   0  0  1  0  0  0
   91.9650   47.3780   21.5940 C   0  0  0  0  0  0
   92.6950   48.5840   22.2030 C   0  0  1  0  0  0
   93.7260   49.1760   21.2180 C   0  0  1  0  0  0
   91.8280   49.6980   22.6240 O   0  0  0  0  0  0
   92.6530   51.8990   23.4410 C   0  0  0  0  0  0
   93.7320   52.8190   23.3950 C   0  0  0  0  0  0
   94.8990   52.5340   22.6330 C   0  0  0  0  0  0
   96.3030   51.1460   21.1140 C   0  0  0  0  0  0
   96.7090   50.1650   20.3220 N   0  3  0  0  0  0
   95.9740   48.9230   19.9320 C   0  0  0  0  0  0
   94.9580   48.2770   20.9210 C   0  0  0  0  0  0
   92.7920   50.7300   22.6990 C   0  0  0  0  0  0
   93.9510   50.4520   21.9280 C   0  0  0  0  0  0
   95.0370   51.3480   21.8860 C   0  0  0  0  0  0
   91.6240   52.6470   25.5210 C   0  0  0  0  0  0
   91.4580   52.0820   24.2070 O   0  0  0  0  0  0
   89.9980   48.7290   20.8770 O   0  0  0  0  0  0
   98.0600   50.2920   19.7870 C   0  0  0  0  0  0
   93.5099   50.2311   19.1906 H   0  0  0  0  0  0
   91.4525   49.0782   18.4501 H   0  0  0  0  0  0
   90.6380   47.0746   19.8339 H   0  0  0  0  0  0
   91.3158   46.9009   22.3430 H   0  0  0  0  0  0
   92.6875   46.6414   21.2126 H   0  0  0  0  0  0
   93.1413   48.1898   23.1279 H   0  0  0  0  0  0
   93.6661   53.7549   23.9498 H   0  0  0  0  0  0
   95.7139   53.2579   22.6271 H   0  0  0  0  0  0
   96.9551   52.0135   21.2936 H   0  0  0  0  0  0
   95.3782   49.1181   19.0281 H   0  0  0  0  0  0
   96.6959   48.1183   19.7287 H   0  0  0  0  0  0
   95.4959   48.0709   21.8581 H   0  0  0  0  0  0
   94.6215   47.3293   20.4754 H   0  0  0  0  0  0
   90.6418   52.7380   26.0077 H   0  0  0  0  0  0
   92.0851   53.6421   25.4366 H   0  0  0  0  0  0
   92.2720   51.9924   26.1224 H   0  0  0  0  0  0
   89.2835   49.1863   20.1768 H   0  0  0  0  0  0
   98.5048   51.2360   20.1347 H   0  0  0  0  0  0
   98.0209   50.2881   18.6877 H   0  0  0  0  0  0
   98.6731   49.4476   20.1351 H   0  0  0  0  0  0
  1  2  2  0  0  0
  1  6  1  0  0  0
  1 22  1  0  0  0
  2  3  1  0  0  0
  2 23  1  0  0  0
  3  4  1  0  0  0
  3 20  1  0  0  0
  3 24  1  0  0  0
  4  5  1  0  0  0
  4 25  1  0  0  0
  4 26  1  0  0  0
  5  6  1  0  0  0
  5  7  1  0  0  0
  5 27  1  0  0  0
  6 14  1  0  0  0
  6 16  1  0  0  0
  7 15  1  0  0  0
  8  9  2  0  0  0
  8 15  1  0  0  0
  8 19  1  0  0  0
  9 10  1  0  0  0
  9 28  1  0  0  0
 10 17  2  0  0  0
 10 29  1  0  0  0
 11 12  2  0  0  0
 11 17  1  0  0  0
 11 30  1  0  0  0
 12 13  1  0  0  0
 12 21  1  0  0  0
 13 14  1  0  0  0
 13 31  1  0  0  0
 13 32  1  0  0  0
 14 33  1  0  0  0
 14 34  1  0  0  0
 15 16  2  0  0  0
 16 17  1  0  0  0
 18 19  1  0  0  0
 18 35  1  0  0  0
 18 36  1  0  0  0
 18 37  1  0  0  0
 20 38  1  0  0  0
 21 39  1  0  0  0
 21 40  1  0  0  0
 21 41  1  0  0  0
M  CHG  1  12   1
M  END
> <s_m_source_file>
../1w76_ligand.sdf

> <i_m_source_file_index>
1

> <s_epik_input>
W0NIXTE9W0NIXVtDQEhdKFtPSF0pW0NIMl1bQ0BASF0oW0NAXTEyMylPYzRjM2MoW0NIXT1bTitdKFtDSDNdKVtDSDJdW0NIMl0yKVtjSF1bY0hdYzRPW0NIM10=

> <s_epik_cmdline>
J2VwaWtfYXBwJywgJy1pbWFlJywgJ2xpZ2FuZF9wcm8ubWFlJywgJy1vbWFlJywgJ2xpZ2FuZF9wcmVwLm1hZScsICctbXMnLCAnMScsICctcGgnLCAnNycsICctcGh0JywgJzAuNScsICctbnQn

> <r_lp_tautomer_probability>
1

> <r_epik_Ionization_Penalty>
  0.0000

> <r_epik_Ionization_Penalty_Charging>
  0.0000

> <r_epik_Ionization_Penalty_Neutral>
  0.0000

> <r_epik_State_Penalty>
 -0.0000

> <r_epik_Charging_Adjusted_Penalty>
0

> <i_epik_Tot_Q>
1

> <i_epik_Tot_abs_Q>
1

> <s_epik_Chemistry_Notes>
This compound has an imine and may undergo hydrolysis.

$$$$
