1w7g_ligand
                    3D
 Schrodinger Suite 2020-3.
 68 69  0  0  1  0            999 V2000
   17.1550  -17.2920   21.9850 C   0  0  0  0  0  0
   15.4240  -17.5330   21.9250 S   0  0  0  0  0  0
   14.5230  -16.0470   21.9810 N   0  0  3  0  0  0
   14.7640  -15.0710   20.8850 C   0  0  2  0  0  0
   14.9270  -18.4420   23.1210 O   0  0  0  0  0  0
   15.0100  -18.2220   20.5560 O   0  0  0  0  0  0
   17.9760  -17.7160   20.9080 C   0  0  0  0  0  0
   19.3800  -17.5020   20.9810 C   0  0  0  0  0  0
   19.9490  -16.8740   22.1240 C   0  0  0  0  0  0
   19.1160  -16.4470   23.2130 C   0  0  0  0  0  0
   19.7500  -15.7570   24.4540 C   0  0  0  0  0  0
   20.6470  -16.5810   25.0600 F   0  0  0  0  0  0
   20.3990  -14.6160   24.0760 F   0  0  0  0  0  0
   18.7940  -15.4200   25.3640 F   0  0  0  0  0  0
   17.7110  -16.6690   23.1270 C   0  0  0  0  0  0
   15.9460  -14.0500   21.2480 C   0  0  0  0  0  0
   16.1420  -13.8000   22.4500 O   0  0  0  0  0  0
   16.7510  -13.4650   20.2720 N   0  0  0  0  0  0
   18.0170  -12.7810   20.5730 C   0  0  0  0  0  0
   19.1040  -13.4510   19.8090 C   0  0  0  0  0  0
   18.7460  -13.4100   18.3240 N   0  0  0  0  0  0
   17.4500  -14.1370   18.0010 C   0  0  0  0  0  0
   16.3150  -13.4990   18.8050 C   0  0  0  0  0  0
   19.5480  -14.4100   17.6120 C   0  0  0  0  0  0
   13.3380  -14.4880   20.6240 C   0  0  0  0  0  0
   12.6070  -13.7300   21.7600 C   0  0  0  0  0  0
   12.3000  -12.3150   21.2670 C   0  0  0  0  0  0
   11.5910  -11.4370   22.2280 N   0  0  0  0  0  0
   12.1740  -10.8070   23.2440 C   0  0  0  0  0  0
   13.1420   -9.9390   23.1310 N   0  0  0  0  0  0
   11.7590  -11.0560   24.4550 N   0  3  0  0  0  0
   20.4690  -14.0070   16.4240 C   0  0  0  0  0  0
   20.4480  -12.5070   16.0730 C   0  0  0  0  0  0
   19.0800  -12.1030   15.6960 N   0  3  0  0  0  0
   13.9320  -15.7516   22.8605 H   0  0  0  0  0  0
   15.1353  -15.5517   19.9679 H   0  0  0  0  0  0
   17.5361  -18.1996   20.0358 H   0  0  0  0  0  0
   20.0218  -17.8198   20.1593 H   0  0  0  0  0  0
   21.0263  -16.7157   22.1734 H   0  0  0  0  0  0
   17.0616  -16.3573   23.9450 H   0  0  0  0  0  0
   17.9428  -11.7247   20.2753 H   0  0  0  0  0  0
   18.2204  -12.8443   21.6522 H   0  0  0  0  0  0
   20.0532  -12.9226   19.9819 H   0  0  0  0  0  0
   19.1987  -14.4943   20.1445 H   0  0  0  0  0  0
   17.2395  -14.0506   16.9248 H   0  0  0  0  0  0
   17.5480  -15.1988   18.2713 H   0  0  0  0  0  0
   15.3951  -14.0946   18.7096 H   0  0  0  0  0  0
   16.1258  -12.4735   18.4548 H   0  0  0  0  0  0
   20.2400  -14.8944   18.3167 H   0  0  0  0  0  0
   18.8830  -15.1677   17.1719 H   0  0  0  0  0  0
   13.3840  -13.7623   19.7987 H   0  0  0  0  0  0
   12.6513  -15.3046   20.3563 H   0  0  0  0  0  0
   11.6732  -14.2551   22.0095 H   0  0  0  0  0  0
   13.2536  -13.6894   22.6490 H   0  0  0  0  0  0
   13.2403  -11.8016   21.0175 H   0  0  0  0  0  0
   11.6629  -12.3687   20.3719 H   0  0  0  0  0  0
   10.5084  -11.2711   22.1260 H   0  0  0  0  0  0
   13.5386   -9.6837   22.1373 H   0  0  0  0  0  0
   13.5613   -9.4627   24.0295 H   0  0  0  0  0  0
   10.9456  -11.7779   24.6201 H   0  0  0  0  0  0
   21.5114  -14.2624   16.6652 H   0  0  0  0  0  0
   20.1585  -14.5496   15.5189 H   0  0  0  0  0  0
   20.7734  -11.9217   16.9456 H   0  0  0  0  0  0
   21.1291  -12.3181   15.2301 H   0  0  0  0  0  0
   19.0697  -11.0318   15.4463 H   0  0  0  0  0  0
   18.3973  -12.2898   16.5381 H   0  0  0  0  0  0
   18.7530  -12.6862   14.8225 H   0  0  0  0  0  0
   12.2223  -10.5441   25.3113 H   0  0  0  0  0  0
  1  2  1  0  0  0
  1  7  2  0  0  0
  1 15  1  0  0  0
  2  3  1  0  0  0
  2  5  2  0  0  0
  2  6  2  0  0  0
  3  4  1  0  0  0
  3 35  1  0  0  0
  4 16  1  0  0  0
  4 25  1  0  0  0
  4 36  1  0  0  0
  7  8  1  0  0  0
  7 37  1  0  0  0
  8  9  2  0  0  0
  8 38  1  0  0  0
  9 10  1  0  0  0
  9 39  1  0  0  0
 10 11  1  0  0  0
 10 15  2  0  0  0
 11 12  1  0  0  0
 11 13  1  0  0  0
 11 14  1  0  0  0
 15 40  1  0  0  0
 16 17  2  0  0  0
 16 18  1  0  0  0
 18 19  1  0  0  0
 18 23  1  0  0  0
 19 20  1  0  0  0
 19 41  1  0  0  0
 19 42  1  0  0  0
 20 21  1  0  0  0
 20 43  1  0  0  0
 20 44  1  0  0  0
 21 22  1  0  0  0
 21 24  1  0  0  0
 22 23  1  0  0  0
 22 45  1  0  0  0
 22 46  1  0  0  0
 23 47  1  0  0  0
 23 48  1  0  0  0
 24 32  1  0  0  0
 24 49  1  0  0  0
 24 50  1  0  0  0
 25 26  1  0  0  0
 25 51  1  0  0  0
 25 52  1  0  0  0
 26 27  1  0  0  0
 26 53  1  0  0  0
 26 54  1  0  0  0
 27 28  1  0  0  0
 27 55  1  0  0  0
 27 56  1  0  0  0
 28 29  1  0  0  0
 28 57  1  0  0  0
 29 30  1  0  0  0
 29 31  2  0  0  0
 30 58  1  0  0  0
 30 59  1  0  0  0
 31 60  1  0  0  0
 31 68  1  0  0  0
 32 33  1  0  0  0
 32 61  1  0  0  0
 32 62  1  0  0  0
 33 34  1  0  0  0
 33 63  1  0  0  0
 33 64  1  0  0  0
 34 65  1  0  0  0
 34 66  1  0  0  0
 34 67  1  0  0  0
M  CHG  2  31   1  34   1
M  END
> <s_m_source_file>
../1w7g_ligand.sdf

> <i_m_source_file_index>
1

> <s_epik_input>
RkMoRikoRiljKFtjSF0xKVtjSF1bY0hdW2NIXWMxUyg9TykoPU8pW05IXVtDQEBIXShbQ0gyXVtDSDJdW0NIMl1bTkhdL0MoW05IMl0pPU5cW0hdKUMoPU8pTjJbQ0gyXVtDSDJdW05IK10oW0NIMl1bQ0gyXTIpW0NIMl1bQ0gyXVtDSDJdW05IMytd

> <s_epik_cmdline>
J2VwaWtfYXBwJywgJy1pbWFlJywgJ2xpZ2FuZF9wcm8ubWFlJywgJy1vbWFlJywgJ2xpZ2FuZF9wcmVwLm1hZScsICctbXMnLCAnMScsICctcGgnLCAnNycsICctcGh0JywgJzAuNScsICctbnQn

> <r_epik_Ionization_Penalty>
  0.1375

> <r_epik_Ionization_Penalty_Charging>
  0.0004

> <r_epik_Ionization_Penalty_Neutral>
  0.1371

> <r_epik_State_Penalty>
  0.1223

> <r_epik_Charging_Adjusted_Penalty>
0.122713650278648

> <i_epik_Tot_Q>
2

> <i_epik_Tot_abs_Q>
2

> <s_epik_Chemistry_Notes>
This compound has an imine and may undergo hydrolysis.

$$$$
