1w7x_ligand
                    3D
 Schrodinger Suite 2020-3.
 70 73  0  0  1  0            999 V2000
    9.6510   39.6130   34.6010 O   0  0  0  0  0  0
    9.1900   40.0340   33.5440 C   0  0  0  0  0  0
    7.9250   40.4530   33.4550 N   0  0  0  0  0  0
    7.0610   40.4800   34.6210 C   0  0  1  0  0  0
    7.5880   41.5320   35.5400 C   0  0  0  0  0  0
    8.2140   42.6780   35.0240 C   0  0  0  0  0  0
    8.7230   43.6650   35.8700 C   0  0  0  0  0  0
    8.5870   43.5100   37.2490 C   0  0  0  0  0  0
    7.9750   42.3680   37.7780 C   0  0  0  0  0  0
    7.4770   41.3760   36.9210 C   0  0  0  0  0  0
    5.6730   40.9080   34.2600 C   0  0  0  0  0  0
    5.4660   41.3040   33.0920 O   0  0  0  0  0  0
    4.7950   40.8510   35.1530 O   0  5  0  0  0  0
   10.0100   40.1250   32.2890 C   0  0  2  0  0  0
   11.2010   39.2870   32.3880 N   0  0  0  0  0  0
   11.9270   38.8260   31.3310 C   0  0  0  0  0  0
   11.5210   39.0270   30.0090 C   0  0  0  0  0  0
   12.2880   38.5500   28.9610 C   0  0  0  0  0  0
   13.1440   38.1660   31.5700 C   0  0  0  0  0  0
   13.9330   37.6840   30.5240 C   0  0  0  0  0  0
   13.5020   37.8900   29.2060 C   0  0  0  0  0  0
   14.2900   37.4000   28.0320 C   0  0  0  0  0  0
   15.4680   36.7800   28.1850 N   0  3  0  0  0  0
   13.7730   37.6040   26.8100 N   0  0  0  0  0  0
   10.3530   41.5620   32.0720 C   0  0  0  0  0  0
   11.2400   42.2450   32.9100 C   0  0  0  0  0  0
   11.5280   43.5900   32.7070 C   0  0  0  0  0  0
   12.4170   44.2590   33.5190 O   0  0  0  0  0  0
   12.9060   43.6620   34.7290 C   0  0  0  0  0  0
   10.9350   44.2740   31.6400 C   0  0  0  0  0  0
   10.0450   43.5980   30.8000 C   0  0  0  0  0  0
    9.7470   42.2550   31.0060 C   0  0  0  0  0  0
   11.2460   45.6070   31.4430 O   0  0  0  0  0  0
   10.4420   46.4910   30.6590 C   0  0  0  0  0  0
   10.7150   46.3240   29.1780 C   0  0  0  0  0  0
   11.7710   45.5420   28.7070 C   0  0  0  0  0  0
   11.9920   45.3980   27.3370 C   0  0  0  0  0  0
   11.1680   46.0450   26.4160 C   0  0  0  0  0  0
   10.1120   46.8290   26.8800 C   0  0  0  0  0  0
    9.8880   46.9780   28.2510 C   0  0  0  0  0  0
    7.5406   40.7810   32.4779 H   0  0  0  0  0  0
    7.0589   39.4653   35.0456 H   0  0  0  0  0  0
    8.3041   42.7991   33.9445 H   0  0  0  0  0  0
    9.2194   44.5439   35.4586 H   0  0  0  0  0  0
    8.9600   44.2839   37.9198 H   0  0  0  0  0  0
    7.8853   42.2494   38.8578 H   0  0  0  0  0  0
    7.0041   40.4848   37.3337 H   0  0  0  0  0  0
    9.4629   39.7357   31.4177 H   0  0  0  0  0  0
   11.5769   38.9799   33.3751 H   0  0  0  0  0  0
   10.5945   39.5628   29.8023 H   0  0  0  0  0  0
   11.9461   38.6881   27.9353 H   0  0  0  0  0  0
   13.4804   38.0269   32.5974 H   0  0  0  0  0  0
   14.8656   37.1580   30.7280 H   0  0  0  0  0  0
   15.8786   36.6202   29.1929 H   0  0  0  0  0  0
   12.8048   38.1145   26.7006 H   0  0  0  0  0  0
   14.3176   37.2606   25.9181 H   0  0  0  0  0  0
   11.7134   41.7142   33.7360 H   0  0  0  0  0  0
   13.5995   44.3562   35.2261 H   0  0  0  0  0  0
   13.4326   42.7264   34.4894 H   0  0  0  0  0  0
   12.0607   43.4458   35.3988 H   0  0  0  0  0  0
    9.5780   44.1310   29.9718 H   0  0  0  0  0  0
    9.0480   41.7415   30.3458 H   0  0  0  0  0  0
    9.3783   46.2794   30.8428 H   0  0  0  0  0  0
   10.6623   47.5319   30.9383 H   0  0  0  0  0  0
   12.4289   45.0393   29.4160 H   0  0  0  0  0  0
   12.8142   44.7756   26.9839 H   0  0  0  0  0  0
   11.3474   45.9391   25.3461 H   0  0  0  0  0  0
    9.4563   47.3294   26.1674 H   0  0  0  0  0  0
    9.0680   47.6044   28.6022 H   0  0  0  0  0  0
   16.0244   36.4308   27.3027 H   0  0  0  0  0  0
  1  2  2  0  0  0
  2  3  1  0  0  0
  2 14  1  0  0  0
  3  4  1  0  0  0
  3 41  1  0  0  0
  4  5  1  0  0  0
  4 11  1  0  0  0
  4 42  1  0  0  0
  5  6  2  0  0  0
  5 10  1  0  0  0
  6  7  1  0  0  0
  6 43  1  0  0  0
  7  8  2  0  0  0
  7 44  1  0  0  0
  8  9  1  0  0  0
  8 45  1  0  0  0
  9 10  2  0  0  0
  9 46  1  0  0  0
 10 47  1  0  0  0
 11 12  2  0  0  0
 11 13  1  0  0  0
 14 15  1  0  0  0
 14 25  1  0  0  0
 14 48  1  0  0  0
 15 16  1  0  0  0
 15 49  1  0  0  0
 16 17  2  0  0  0
 16 19  1  0  0  0
 17 18  1  0  0  0
 17 50  1  0  0  0
 18 21  2  0  0  0
 18 51  1  0  0  0
 19 20  2  0  0  0
 19 52  1  0  0  0
 20 21  1  0  0  0
 20 53  1  0  0  0
 21 22  1  0  0  0
 22 23  2  0  0  0
 22 24  1  0  0  0
 23 54  1  0  0  0
 23 70  1  0  0  0
 24 55  1  0  0  0
 24 56  1  0  0  0
 25 26  2  0  0  0
 25 32  1  0  0  0
 26 27  1  0  0  0
 26 57  1  0  0  0
 27 28  1  0  0  0
 27 30  2  0  0  0
 28 29  1  0  0  0
 29 58  1  0  0  0
 29 59  1  0  0  0
 29 60  1  0  0  0
 30 31  1  0  0  0
 30 33  1  0  0  0
 31 32  2  0  0  0
 31 61  1  0  0  0
 32 62  1  0  0  0
 33 34  1  0  0  0
 34 35  1  0  0  0
 34 63  1  0  0  0
 34 64  1  0  0  0
 35 36  2  0  0  0
 35 40  1  0  0  0
 36 37  1  0  0  0
 36 65  1  0  0  0
 37 38  2  0  0  0
 37 66  1  0  0  0
 38 39  1  0  0  0
 38 67  1  0  0  0
 39 40  2  0  0  0
 39 68  1  0  0  0
 40 69  1  0  0  0
M  CHG  2  13  -1  23   1
M  END
> <s_m_source_file>
../1w7x_ligand.sdf

> <i_m_source_file_index>
1

> <s_epik_input>
W2NIXTFbY0hdW2NIXVtjSF1bY0hdYzFbQ0BASF0oQyg9TylbT0hdKVtOSF1DKD1PKVtDQEhdKFtOSF1jMltjSF1bY0hdYyhbY0hdW2NIXTIpL0MoPU5cW0hdKVtOSDJdKWMzW2NIXWMoT1tDSDNdKWMoW2NIXVtjSF0zKU9bQ0gyXWM0W2NIXVtjSF1bY0hdW2NIXVtjSF00

> <s_epik_cmdline>
J2VwaWtfYXBwJywgJy1pbWFlJywgJ2xpZ2FuZF9wcm8ubWFlJywgJy1vbWFlJywgJ2xpZ2FuZF9wcmVwLm1hZScsICctbXMnLCAnMScsICctcGgnLCAnNycsICctcGh0JywgJzAuNScsICctbnQn

> <r_lp_tautomer_probability>
1

> <r_epik_Ionization_Penalty>
  0.0005

> <r_epik_Ionization_Penalty_Charging>
  0.0004

> <r_epik_Ionization_Penalty_Neutral>
  0.0001

> <r_epik_State_Penalty>
 -0.0000

> <r_epik_Charging_Adjusted_Penalty>
0.000412669040125939

> <i_epik_Tot_Q>
0

> <i_epik_Tot_abs_Q>
2

> <s_epik_Chemistry_Notes>
This compound has an imine and may undergo hydrolysis.

$$$$
