1w80_ligand
                    3D
 Schrodinger Suite 2020-3.
135138  0  0  1  0            999 V2000
   22.0180  -19.3770   -7.2980 N   0  3  0  0  0  0
   22.3770  -19.2690   -8.7150 C   0  0  2  0  0  0
   23.7860  -18.7080   -8.9120 C   0  0  0  0  0  0
   24.1310  -17.6500   -8.3700 O   0  0  0  0  0  0
   21.3030  -18.3330   -9.2720 C   0  0  0  0  0  0
   20.0850  -18.6810   -8.4420 C   0  0  0  0  0  0
   20.6140  -18.9790   -7.0550 C   0  0  0  0  0  0
   24.6120  -19.4210   -9.6700 N   0  0  0  0  0  0
   26.0360  -19.0650   -9.7580 C   0  0  2  0  0  0
   26.2990  -17.6850  -10.4230 C   0  0  0  0  0  0
   27.3650  -17.1130  -10.2210 O   0  0  0  0  0  0
   26.8090  -20.1760  -10.4850 C   0  0  0  0  0  0
   28.2970  -20.2960  -10.1260 C   0  0  0  0  0  0
   28.8240  -21.7100  -10.4770 C   0  0  0  0  0  0
   28.3460  -22.8460   -9.4880 C   0  0  0  0  0  0
   29.1860  -24.1340   -9.5980 N   0  3  0  0  0  0
   25.3710  -17.1380  -11.2050 N   0  0  0  0  0  0
   25.5960  -15.7820  -11.7370 C   0  0  0  0  0  0
   25.4550  -14.6560  -10.6720 C   0  0  0  0  0  0
   25.5410  -13.4710  -11.0250 O   0  0  0  0  0  0
   25.1520  -14.9820   -9.4070 N   0  0  0  0  0  0
   24.8260  -13.9050   -8.4260 C   0  0  2  0  0  0
   26.0400  -13.3510   -7.6930 C   0  0  0  0  0  0
   26.9190  -14.0840   -7.2340 O   0  0  0  0  0  0
   23.7820  -14.3410   -7.3540 C   0  0  0  0  0  0
   22.4390  -14.6500   -7.8780 C   0  0  0  0  0  0
   21.9840  -14.5310   -9.1650 C   0  0  0  0  0  0
   21.3020  -15.0100   -7.0710 C   0  0  0  0  0  0
   20.6130  -14.8450   -9.2050 N   0  3  0  0  0  0
   20.2030  -15.1690   -7.9310 C   0  0  0  0  0  0
   21.1510  -15.2620   -5.7130 C   0  0  0  0  0  0
   18.9140  -15.5640   -7.4530 C   0  0  0  0  0  0
   19.9150  -15.6170   -5.2310 C   0  0  0  0  0  0
   18.8120  -15.7660   -6.1150 C   0  0  0  0  0  0
   25.9700  -12.0400   -7.3940 N   0  0  0  0  0  0
   26.8490  -11.4930   -6.3350 C   0  0  2  0  0  0
   26.6000  -12.2390   -5.0490 C   0  0  0  0  0  0
   25.4530  -12.5290   -4.7220 O   0  0  0  0  0  0
   26.5600   -9.9440   -6.1590 C   0  0  0  0  0  0
   27.3910   -9.3940   -5.0750 C   0  0  0  0  0  0
   26.7990   -9.2630   -7.4690 C   0  0  0  0  0  0
   27.6500  -12.5230   -4.2820 N   0  0  0  0  0  0
   27.5830  -13.2230   -3.0310 C   0  0  2  0  0  0
   28.1360  -12.3710   -1.9710 C   0  0  0  0  0  0
   28.6800  -11.2810   -2.2470 O   0  0  0  0  0  0
   28.4500  -14.5150   -3.0990 C   0  0  2  0  0  0
   29.7500  -14.1390   -3.6430 O   0  0  0  0  0  0
   27.7380  -15.5230   -3.9450 C   0  0  0  0  0  0
   27.9410  -12.7900   -0.7430 N   0  0  0  0  0  0
   28.1150  -11.9120    0.4590 C   0  0  2  0  0  0
   28.9880  -12.5660    1.5340 C   0  0  0  0  0  0
   28.9310  -12.2340    2.7160 O   0  0  0  0  0  0
   26.7550  -11.3970    0.9760 C   0  0  0  0  0  0
   25.9410  -10.8040   -0.1160 C   0  0  0  0  0  0
   25.0470  -11.5660   -0.8110 C   0  0  0  0  0  0
   26.1750   -9.5060   -0.5130 C   0  0  0  0  0  0
   24.3710  -11.0270   -1.8970 C   0  0  0  0  0  0
   25.4950   -8.9900   -1.5660 C   0  0  0  0  0  0
   24.6030   -9.7800   -2.2700 C   0  0  0  0  0  0
   29.9000  -13.4370    1.0950 N   0  0  0  0  0  0
   30.7720  -14.1160    2.0880 C   0  0  2  0  0  0
   31.7190  -13.0390    2.6220 C   0  0  0  0  0  0
   32.3270  -12.3160    1.8040 O   0  5  0  0  0  0
   31.5340  -15.2930    1.4620 C   0  0  0  0  0  0
   30.6230  -16.2410    0.6780 C   0  0  0  0  0  0
   31.2100  -17.6580    0.3860 C   0  0  0  0  0  0
   31.1820  -18.0360   -0.8400 O   0  0  0  0  0  0
   31.6560  -18.4030    1.3540 O   0  5  0  0  0  0
   31.8530  -12.9180    3.8580 O   0  0  0  0  0  0
   22.1441  -20.4181   -6.9661 H   0  0  0  0  0  0
   22.6707  -18.7210   -6.7033 H   0  0  0  0  0  0
   22.3942  -20.2616   -9.1888 H   0  0  0  0  0  0
   21.6216  -17.2887   -9.1384 H   0  0  0  0  0  0
   21.1577  -18.5378  -10.3430 H   0  0  0  0  0  0
   19.3913  -17.8273   -8.4331 H   0  0  0  0  0  0
   19.5825  -19.5572   -8.8777 H   0  0  0  0  0  0
   20.0764  -19.8079   -6.5714 H   0  0  0  0  0  0
   20.5914  -18.0956   -6.3999 H   0  0  0  0  0  0
   24.2246  -20.2824  -10.2338 H   0  0  0  0  0  0
   26.3491  -18.9948   -8.7058 H   0  0  0  0  0  0
   26.3559  -21.1509  -10.2518 H   0  0  0  0  0  0
   26.7667  -20.0023  -11.5704 H   0  0  0  0  0  0
   28.8721  -19.5483  -10.6919 H   0  0  0  0  0  0
   28.4294  -20.1214   -9.0480 H   0  0  0  0  0  0
   28.4771  -21.9915  -11.4822 H   0  0  0  0  0  0
   29.9238  -21.7070  -10.4562 H   0  0  0  0  0  0
   28.4218  -22.4855   -8.4515 H   0  0  0  0  0  0
   27.3011  -23.1090   -9.7092 H   0  0  0  0  0  0
   28.8047  -24.8822   -8.8874 H   0  0  0  0  0  0
   30.2366  -23.9077   -9.3636 H   0  0  0  0  0  0
   29.1159  -24.5311  -10.6214 H   0  0  0  0  0  0
   24.4479  -17.6811  -11.4559 H   0  0  0  0  0  0
   26.6133  -15.7143  -12.1499 H   0  0  0  0  0  0
   24.8635  -15.5733  -12.5307 H   0  0  0  0  0  0
   25.1427  -16.0354   -9.0905 H   0  0  0  0  0  0
   24.4243  -13.1283   -9.0934 H   0  0  0  0  0  0
   24.1369  -15.2491   -6.8447 H   0  0  0  0  0  0
   23.6537  -13.5340   -6.6176 H   0  0  0  0  0  0
   22.6741  -14.2290   -9.9666 H   0  0  0  0  0  0
   22.0031  -15.1789   -5.0384 H   0  0  0  0  0  0
   18.0645  -15.6949   -8.1234 H   0  0  0  0  0  0
   19.7789  -15.7857   -4.1628 H   0  0  0  0  0  0
   17.8455  -16.0541   -5.7016 H   0  0  0  0  0  0
   25.2711  -11.3773   -7.9254 H   0  0  0  0  0  0
   27.8914  -11.6813   -6.6315 H   0  0  0  0  0  0
   25.5308   -9.7032   -5.8545 H   0  0  0  0  0  0
   27.1746   -9.9300   -4.1391 H   0  0  0  0  0  0
   27.1651   -8.3252   -4.9461 H   0  0  0  0  0  0
   28.4541   -9.5160   -5.3300 H   0  0  0  0  0  0
   26.1545   -9.7124   -8.2388 H   0  0  0  0  0  0
   27.8536   -9.3833   -7.7577 H   0  0  0  0  0  0
   26.5647   -8.1925   -7.3738 H   0  0  0  0  0  0
   28.6209  -12.1800   -4.6690 H   0  0  0  0  0  0
   26.5150  -13.4097   -2.8450 H   0  0  0  0  0  0
   28.6541  -14.9978   -2.1319 H   0  0  0  0  0  0
   30.3755  -13.4043   -3.1149 H   0  0  0  0  0  0
   26.7682  -15.7668   -3.4868 H   0  0  0  0  0  0
   28.3479  -16.4354   -4.0197 H   0  0  0  0  0  0
   27.5745  -15.1079   -4.9505 H   0  0  0  0  0  0
   27.6360  -13.8394   -0.6180 H   0  0  0  0  0  0
   28.6857  -11.0340    0.1223 H   0  0  0  0  0  0
   26.1895  -12.2322    1.4149 H   0  0  0  0  0  0
   26.9222  -10.6250    1.7415 H   0  0  0  0  0  0
   24.8638  -12.5984   -0.5131 H   0  0  0  0  0  0
   26.9051   -8.8953    0.0182 H   0  0  0  0  0  0
   23.6478  -11.6328   -2.4431 H   0  0  0  0  0  0
   25.6509   -7.9517   -1.8586 H   0  0  0  0  0  0
   24.0876   -9.3708   -3.1389 H   0  0  0  0  0  0
   30.0132  -13.6559    0.0230 H   0  0  0  0  0  0
   30.1531  -14.5441    2.8903 H   0  0  0  0  0  0
   32.2957  -14.9089    0.7676 H   0  0  0  0  0  0
   32.0227  -15.8771    2.2557 H   0  0  0  0  0  0
   29.6917  -16.4033    1.2405 H   0  0  0  0  0  0
   30.3876  -15.7975   -0.3007 H   0  0  0  0  0  0
   20.0666  -14.8023  -10.1587 H   0  0  0  0  0  0
  1  2  1  0  0  0
  1  7  1  0  0  0
  1 70  1  0  0  0
  1 71  1  0  0  0
  2  3  1  0  0  0
  2  5  1  0  0  0
  2 72  1  0  0  0
  3  4  2  0  0  0
  3  8  1  0  0  0
  5  6  1  0  0  0
  5 73  1  0  0  0
  5 74  1  0  0  0
  6  7  1  0  0  0
  6 75  1  0  0  0
  6 76  1  0  0  0
  7 77  1  0  0  0
  7 78  1  0  0  0
  8  9  1  0  0  0
  8 79  1  0  0  0
  9 10  1  0  0  0
  9 12  1  0  0  0
  9 80  1  0  0  0
 10 11  2  0  0  0
 10 17  1  0  0  0
 12 13  1  0  0  0
 12 81  1  0  0  0
 12 82  1  0  0  0
 13 14  1  0  0  0
 13 83  1  0  0  0
 13 84  1  0  0  0
 14 15  1  0  0  0
 14 85  1  0  0  0
 14 86  1  0  0  0
 15 16  1  0  0  0
 15 87  1  0  0  0
 15 88  1  0  0  0
 16 89  1  0  0  0
 16 90  1  0  0  0
 16 91  1  0  0  0
 17 18  1  0  0  0
 17 92  1  0  0  0
 18 19  1  0  0  0
 18 93  1  0  0  0
 18 94  1  0  0  0
 19 20  2  0  0  0
 19 21  1  0  0  0
 21 22  1  0  0  0
 21 95  1  0  0  0
 22 23  1  0  0  0
 22 25  1  0  0  0
 22 96  1  0  0  0
 23 24  2  0  0  0
 23 35  1  0  0  0
 25 26  1  0  0  0
 25 97  1  0  0  0
 25 98  1  0  0  0
 26 27  2  0  0  0
 26 28  1  0  0  0
 27 29  1  0  0  0
 27 99  1  0  0  0
 28 30  2  0  0  0
 28 31  1  0  0  0
 29 30  1  0  0  0
 29135  1  0  0  0
 30 32  1  0  0  0
 31 33  2  0  0  0
 31100  1  0  0  0
 32 34  2  0  0  0
 32101  1  0  0  0
 33 34  1  0  0  0
 33102  1  0  0  0
 34103  1  0  0  0
 35 36  1  0  0  0
 35104  1  0  0  0
 36 37  1  0  0  0
 36 39  1  0  0  0
 36105  1  0  0  0
 37 38  2  0  0  0
 37 42  1  0  0  0
 39 40  1  0  0  0
 39 41  1  0  0  0
 39106  1  0  0  0
 40107  1  0  0  0
 40108  1  0  0  0
 40109  1  0  0  0
 41110  1  0  0  0
 41111  1  0  0  0
 41112  1  0  0  0
 42 43  1  0  0  0
 42113  1  0  0  0
 43 44  1  0  0  0
 43 46  1  0  0  0
 43114  1  0  0  0
 44 45  2  0  0  0
 44 49  1  0  0  0
 46 47  1  0  0  0
 46 48  1  0  0  0
 46115  1  0  0  0
 47116  1  0  0  0
 48117  1  0  0  0
 48118  1  0  0  0
 48119  1  0  0  0
 49 50  1  0  0  0
 49120  1  0  0  0
 50 51  1  0  0  0
 50 53  1  0  0  0
 50121  1  0  0  0
 51 52  2  0  0  0
 51 60  1  0  0  0
 53 54  1  0  0  0
 53122  1  0  0  0
 53123  1  0  0  0
 54 55  2  0  0  0
 54 56  1  0  0  0
 55 57  1  0  0  0
 55124  1  0  0  0
 56 58  2  0  0  0
 56125  1  0  0  0
 57 59  2  0  0  0
 57126  1  0  0  0
 58 59  1  0  0  0
 58127  1  0  0  0
 59128  1  0  0  0
 60 61  1  0  0  0
 60129  1  0  0  0
 61 62  1  0  0  0
 61 64  1  0  0  0
 61130  1  0  0  0
 62 63  1  0  0  0
 62 69  2  0  0  0
 64 65  1  0  0  0
 64131  1  0  0  0
 64132  1  0  0  0
 65 66  1  0  0  0
 65133  1  0  0  0
 65134  1  0  0  0
 66 67  2  0  0  0
 66 68  1  0  0  0
M  CHG  5   1   1  16   1  29   1  63  -1  68  -1
M  END
> <s_m_source_file>
../1w80_ligand.sdf

> <i_m_source_file_index>
1

> <s_epik_input>
W0NIMl0xW0NIMl1bQ0gyXVtOSDIrXVtDQEBIXTFDKD1PKVtOSF1bQ0BASF0oW0NIMl1bQ0gyXVtDSDJdW0NIMl1bTkgzK10pQyg9TylbTkhdW0NIMl1DKD1PKVtOSF1bQ0BASF0oW0NIMl1jMltjSF1bbkhdYyhjMjMpW2NIXVtjSF1bY0hdW2NIXTMpQyg9TylbTkhdW0NAQEhdKFtDSF0oW0NIM10pW0NIM10pQyg9TylbTkhdW0NAQEhdKFtDQEhdKFtPSF0pW0NIM10pQyg9TylbTkhdW0NASF0oQyg9TylbTkhdW0NASF0oQyg9TylbT0hdKVtDSDJdW0NIMl1DKD1PKVtPSF0pW0NIMl1jNFtjSF1bY0hdW2NIXVtjSF1bY0hdNA==

> <s_epik_cmdline>
J2VwaWtfYXBwJywgJy1pbWFlJywgJ2xpZ2FuZF9wcm8ubWFlJywgJy1vbWFlJywgJ2xpZ2FuZF9wcmVwLm1hZScsICctbXMnLCAnMScsICctcGgnLCAnNycsICctcGh0JywgJzAuNScsICctbnQn

> <r_epik_Ionization_Penalty>
  0.0448

> <r_epik_Ionization_Penalty_Charging>
  0.0448

> <r_epik_Ionization_Penalty_Neutral>
  0.0000

> <r_epik_State_Penalty>
  0.0342

> <r_epik_Charging_Adjusted_Penalty>
0.0789549848135648

> <i_epik_Tot_Q>
1

> <i_epik_Tot_abs_Q>
5

$$$$
