1w84_ligand
                    3D
 Schrodinger Suite 2020-3.
 30 32  0  0  1  0            999 V2000
    4.2610   12.2020   29.5010 C   0  0  0  0  0  0
    2.9350   12.9270   29.3820 C   0  0  0  0  0  0
    1.9570   12.5880   30.5180 C   0  0  0  0  0  0
    1.5400   11.1380   30.4810 C   0  0  0  0  0  0
    2.0360   10.2480   31.4190 C   0  0  0  0  0  0
    1.6560    8.9190   31.3680 C   0  0  0  0  0  0
    0.8230    8.4650   30.4420 N   0  0  0  0  0  0
    0.3280    9.2890   29.5300 C   0  0  0  0  0  0
    0.6680   10.6400   29.5150 C   0  0  0  0  0  0
    4.6930   11.2060   28.7080 C   0  0  0  0  0  0
    5.5180   13.3360   31.5440 C   0  0  0  0  0  0
    5.3430   12.4500   30.4720 C   0  0  0  0  0  0
    6.3790   11.5270   30.1670 C   0  0  0  0  0  0
    7.5610   11.4980   30.9170 C   0  0  0  0  0  0
    7.7030   12.3920   31.9710 C   0  0  0  0  0  0
    5.9510   10.8040   29.0960 N   0  0  0  0  0  0
    6.6830   13.3030   32.2750 C   0  0  0  0  0  0
    3.1076   14.0131   29.4047 H   0  0  0  0  0  0
    2.4508   12.6525   28.4332 H   0  0  0  0  0  0
    2.4383   12.7853   31.4872 H   0  0  0  0  0  0
    1.0549   13.2103   30.4232 H   0  0  0  0  0  0
    2.7218   10.5928   32.1929 H   0  0  0  0  0  0
    2.0525    8.2257   32.1098 H   0  0  0  0  0  0
   -0.3586    8.9023   28.7769 H   0  0  0  0  0  0
    0.2552   11.3020   28.7538 H   0  0  0  0  0  0
    4.0547   10.8365   27.8919 H   0  0  0  0  0  0
    4.7252   14.0548   31.7985 H   0  0  0  0  0  0
    8.3535   10.7886   30.6788 H   0  0  0  0  0  0
    8.6262   12.3804   32.5689 H   0  0  0  0  0  0
    6.8062   14.0079   33.1104 H   0  0  0  0  0  0
  1  2  1  0  0  0
  1 10  2  0  0  0
  1 12  1  0  0  0
  2  3  1  0  0  0
  2 18  1  0  0  0
  2 19  1  0  0  0
  3  4  1  0  0  0
  3 20  1  0  0  0
  3 21  1  0  0  0
  4  5  2  0  0  0
  4  9  1  0  0  0
  5  6  1  0  0  0
  5 22  1  0  0  0
  6  7  2  0  0  0
  6 23  1  0  0  0
  7  8  1  0  0  0
  8  9  2  0  0  0
  8 24  1  0  0  0
  9 25  1  0  0  0
 10 16  1  0  0  0
 10 26  1  0  0  0
 11 12  2  0  0  0
 11 17  1  0  0  0
 11 27  1  0  0  0
 12 13  1  0  0  0
 13 14  1  0  0  0
 13 16  2  0  0  0
 14 15  1  0  0  0
 14 28  1  0  0  0
 15 17  2  0  0  0
 15 29  1  0  0  0
 17 30  1  0  0  0
M  END
> <s_m_source_file>
../1w84_ligand.sdf

> <i_m_source_file_index>
1

> <s_epik_input>
W0NIXT0xW0NIXT1bQ0hdW0NIMl1DKEMxMik9TltDSF09QzJbQ0gyXVtDSDJdYzNbY0hdW2NIXW5bY0hdW2NIXTM=

> <s_epik_cmdline>
J2VwaWtfYXBwJywgJy1pbWFlJywgJ2xpZ2FuZF9wcm8ubWFlJywgJy1vbWFlJywgJ2xpZ2FuZF9wcmVwLm1hZScsICctbXMnLCAnMScsICctcGgnLCAnNycsICctcGh0JywgJzAuNScsICctbnQn

> <r_epik_Ionization_Penalty>
  0.0378

> <r_epik_Ionization_Penalty_Charging>
  0.0000

> <r_epik_Ionization_Penalty_Neutral>
  0.0378

> <r_epik_State_Penalty>
  0.0317

> <r_epik_Charging_Adjusted_Penalty>
0.0316774442105082

> <i_epik_Tot_Q>
0

> <i_epik_Tot_abs_Q>
0

> <s_epik_Chemistry_Notes>
This compound has an imine and may undergo hydrolysis.

$$$$
