1w96_ligand
                    3D
 Schrodinger Suite 2020-3.
 81 83  0  0  1  0            999 V2000
   12.4590   27.2090  115.5470 C   0  0  0  0  0  0
   13.5850   27.6850  114.6350 C   0  0  2  0  0  0
   14.7140   26.6270  114.6790 C   0  0  1  0  0  0
   15.8690   27.0470  113.7130 C   0  0  1  0  0  0
   16.9020   25.8850  113.4930 C   0  0  2  0  0  0
   16.1840   24.5490  113.2420 C   0  0  1  0  0  0
   15.1240   24.3230  114.3330 C   0  0  2  0  0  0
   14.3960   22.9840  114.1090 C   0  0  2  0  0  0
   13.2960   22.8050  115.1880 C   0  0  0  0  0  0
   13.5110   21.9970  116.2990 C   0  0  0  0  0  0
   12.4390   21.9120  117.4080 C   0  0  2  0  0  0
   13.0680   22.2160  118.7790 C   0  0  2  0  0  0
   13.5800   23.6610  118.8340 C   0  0  0  0  0  0
   12.4860   24.7040  118.6590 C   0  0  0  0  0  0
   12.9670   26.0880  119.0190 C   0  0  0  0  0  0
   11.8250   27.0920  118.9590 C   0  0  0  0  0  0
   11.3310   27.4030  117.5440 C   0  0  1  0  0  0
   14.0950   29.0430  115.0940 C   0  0  0  0  0  0
   16.0770   28.5490  111.9000 C   0  0  0  0  0  0
   15.5460   24.5410  111.8500 C   0  0  0  0  0  0
   15.3650   21.8070  114.1170 C   0  0  0  0  0  0
   10.8780   20.4620  116.3770 C   0  0  0  0  0  0
   14.3920   21.1940  120.4480 C   0  0  0  0  0  0
   10.3240   28.5630  117.6260 C   0  0  0  0  0  0
   10.7930   29.8720  117.8420 C   0  0  0  0  0  0
    9.9010   30.8970  118.1430 C   0  0  0  0  0  0
    8.5380   30.6230  118.2310 C   0  0  0  0  0  0
    8.0690   29.3230  118.0180 C   0  0  0  0  0  0
    8.9630   28.2940  117.7180 C   0  0  0  0  0  0
   11.5750   26.3450  115.3440 O   0  0  0  0  0  0
   15.2160   26.5260  116.0160 O   0  0  0  0  0  0
   15.3150   27.4450  112.4540 O   0  0  0  0  0  0
   17.7640   25.7600  114.6300 O   0  0  0  0  0  0
   14.1570   25.3740  114.2690 O   0  0  0  0  0  0
   11.8630   20.6000  117.4350 O   0  0  0  0  0  0
   14.1420   21.3000  119.0250 O   0  0  0  0  0  0
   12.4480   27.7970  116.7310 O   0  0  0  0  0  0
   13.2126   27.8128  113.6079 H   0  0  0  0  0  0
   16.3795   27.9411  114.1004 H   0  0  0  0  0  0
   17.5763   26.1118  112.6541 H   0  0  0  0  0  0
   16.9146   23.7275  113.2793 H   0  0  0  0  0  0
   15.5837   24.3679  115.3313 H   0  0  0  0  0  0
   13.9402   22.9970  113.1080 H   0  0  0  0  0  0
   12.3358   23.3275  115.0655 H   0  0  0  0  0  0
   14.4432   21.4197  116.3871 H   0  0  0  0  0  0
   11.6049   22.5963  117.1937 H   0  0  0  0  0  0
   12.3435   22.0457  119.5890 H   0  0  0  0  0  0
   14.0550   23.8448  119.8090 H   0  0  0  0  0  0
   14.3157   23.8201  118.0319 H   0  0  0  0  0  0
   12.1552   24.7159  117.6100 H   0  0  0  0  0  0
   11.6344   24.4549  119.3092 H   0  0  0  0  0  0
   13.3774   26.0796  120.0395 H   0  0  0  0  0  0
   13.7496   26.3997  118.3117 H   0  0  0  0  0  0
   10.9638   26.7017  119.5212 H   0  0  0  0  0  0
   12.1507   28.0447  119.4020 H   0  0  0  0  0  0
   10.9001   26.5163  117.0561 H   0  0  0  0  0  0
   13.2752   29.7753  115.0535 H   0  0  0  0  0  0
   14.9119   29.3701  114.4339 H   0  0  0  0  0  0
   14.4666   28.9653  116.1264 H   0  0  0  0  0  0
   15.6428   28.8459  110.9339 H   0  0  0  0  0  0
   17.1211   28.2361  111.7520 H   0  0  0  0  0  0
   16.0446   29.4017  112.5942 H   0  0  0  0  0  0
   16.3236   24.7043  111.0893 H   0  0  0  0  0  0
   14.7960   25.3431  111.7858 H   0  0  0  0  0  0
   15.0601   23.5698  111.6750 H   0  0  0  0  0  0
   16.1329   21.9591  113.3443 H   0  0  0  0  0  0
   14.8146   20.8776  113.9091 H   0  0  0  0  0  0
   15.8465   21.7352  115.1034 H   0  0  0  0  0  0
   10.4444   19.4516  116.4093 H   0  0  0  0  0  0
   11.3620   20.6224  115.4023 H   0  0  0  0  0  0
   10.0815   21.2075  116.5180 H   0  0  0  0  0  0
   15.2177   20.4887  120.6237 H   0  0  0  0  0  0
   13.4853   20.8303  120.9535 H   0  0  0  0  0  0
   14.6629   22.1825  120.8473 H   0  0  0  0  0  0
   11.8599   30.0842  117.7732 H   0  0  0  0  0  0
   10.2674   31.9100  118.3092 H   0  0  0  0  0  0
    7.8361   31.4231  118.4662 H   0  0  0  0  0  0
    7.0017   29.1125  118.0865 H   0  0  0  0  0  0
    8.5947   27.2810  117.5561 H   0  0  0  0  0  0
   15.6818   27.3993  116.4960 H   0  0  0  0  0  0
   18.3634   26.6201  114.9629 H   0  0  0  0  0  0
  1  2  1  0  0  0
  1 30  2  0  0  0
  1 37  1  0  0  0
  2  3  1  0  0  0
  2 18  1  0  0  0
  2 38  1  0  0  0
  3  4  1  0  0  0
  3 31  1  0  0  0
  3 34  1  0  0  0
  4  5  1  0  0  0
  4 32  1  0  0  0
  4 39  1  0  0  0
  5  6  1  0  0  0
  5 33  1  0  0  0
  5 40  1  0  0  0
  6  7  1  0  0  0
  6 20  1  0  0  0
  6 41  1  0  0  0
  7  8  1  0  0  0
  7 34  1  0  0  0
  7 42  1  0  0  0
  8  9  1  0  0  0
  8 21  1  0  0  0
  8 43  1  0  0  0
  9 10  2  0  0  0
  9 44  1  0  0  0
 10 11  1  0  0  0
 10 45  1  0  0  0
 11 12  1  0  0  0
 11 35  1  0  0  0
 11 46  1  0  0  0
 12 13  1  0  0  0
 12 36  1  0  0  0
 12 47  1  0  0  0
 13 14  1  0  0  0
 13 48  1  0  0  0
 13 49  1  0  0  0
 14 15  1  0  0  0
 14 50  1  0  0  0
 14 51  1  0  0  0
 15 16  1  0  0  0
 15 52  1  0  0  0
 15 53  1  0  0  0
 16 17  1  0  0  0
 16 54  1  0  0  0
 16 55  1  0  0  0
 17 24  1  0  0  0
 17 37  1  0  0  0
 17 56  1  0  0  0
 18 57  1  0  0  0
 18 58  1  0  0  0
 18 59  1  0  0  0
 19 32  1  0  0  0
 19 60  1  0  0  0
 19 61  1  0  0  0
 19 62  1  0  0  0
 20 63  1  0  0  0
 20 64  1  0  0  0
 20 65  1  0  0  0
 21 66  1  0  0  0
 21 67  1  0  0  0
 21 68  1  0  0  0
 22 35  1  0  0  0
 22 69  1  0  0  0
 22 70  1  0  0  0
 22 71  1  0  0  0
 23 36  1  0  0  0
 23 72  1  0  0  0
 23 73  1  0  0  0
 23 74  1  0  0  0
 24 25  2  0  0  0
 24 29  1  0  0  0
 25 26  1  0  0  0
 25 75  1  0  0  0
 26 27  2  0  0  0
 26 76  1  0  0  0
 27 28  1  0  0  0
 27 77  1  0  0  0
 28 29  2  0  0  0
 28 78  1  0  0  0
 29 79  1  0  0  0
 31 80  1  0  0  0
 33 81  1  0  0  0
M  END
> <s_m_source_file>
../1w96_ligand.sdf

> <i_m_source_file_index>
1

> <s_epik_input>
W2NIXTFbY0hdW2NIXVtjSF1bY0hdYzFbQ0BASF0oT0MoPU8pW0NAQEhdKFtDSDNdKVtDQF0yM1tPSF0pW0NIMl1bQ0gyXVtDSDJdW0NIMl1bQ0BIXShPW0NIM10pW0NASF0oT1tDSDNdKVxbQ0hdPVtDSF1cW0NASF0oW0NIM10pW0NASF0oTzMpW0NAQEhdKFtDSDNdKVtDQEhdKFtPSF0pW0NASF0yT1tDSDNd

> <s_epik_cmdline>
J2VwaWtfYXBwJywgJy1pbWFlJywgJ2xpZ2FuZF9wcm8ubWFlJywgJy1vbWFlJywgJ2xpZ2FuZF9wcmVwLm1hZScsICctbXMnLCAnMScsICctcGgnLCAnNycsICctcGh0JywgJzAuNScsICctbnQn

> <r_lp_tautomer_probability>
1

> <r_epik_Ionization_Penalty>
  0.0000

> <r_epik_Ionization_Penalty_Charging>
  0.0000

> <r_epik_Ionization_Penalty_Neutral>
  0.0000

> <r_epik_State_Penalty>
 -0.0000

> <r_epik_Charging_Adjusted_Penalty>
0

> <i_epik_Tot_Q>
0

> <i_epik_Tot_abs_Q>
0

> <s_epik_Chemistry_Notes>
This compound has an ester and may undergo hydrolysis at high or low pH.

$$$$
