1waw_ligand
                    3D
 Schrodinger Suite 2020-3.
 89 92  0  0  1  0            999 V2000
   14.0440  -10.7180   23.0850 C   0  0  0  0  0  0
   13.7000  -11.5630   21.8570 C   0  0  0  0  0  0
   14.3330  -12.5890   21.6080 O   0  0  0  0  0  0
   12.7120  -11.1500   21.0510 N   0  3  0  0  0  0
   12.3250  -11.7960   19.9540 C   0  0  0  0  0  0
   12.8780  -12.9550   19.6010 N   0  0  0  0  0  0
   11.3400  -11.2680   19.2330 N   0  0  0  0  0  0
   10.8560  -11.8930   17.9940 C   0  0  0  0  0  0
    9.8100  -10.9720   17.3610 C   0  0  0  0  0  0
    8.5650  -10.8950   18.2480 C   0  0  0  0  0  0
    7.5480   -9.8630   17.7540 C   0  0  2  0  0  0
    7.9460   -8.5170   18.1970 N   0  0  0  0  0  0
    7.2230   -7.4540   17.8510 C   0  0  0  0  0  0
    6.2030   -7.5400   17.1700 O   0  0  0  0  0  0
    6.2010  -10.1980   18.4010 C   0  0  0  0  0  0
    6.0820  -10.1100   19.6220 O   0  0  0  0  0  0
    5.1600  -10.5640   17.6540 N   0  0  0  0  0  0
    5.0250  -10.7430   16.1980 C   0  0  0  0  0  0
    3.5200  -10.9040   15.9800 C   0  0  0  0  0  0
    3.1930  -11.7490   17.2110 C   0  0  0  0  0  0
    3.8800  -10.9160   18.2960 C   0  0  2  0  0  0
    2.9900   -9.7120   18.6280 C   0  0  0  0  0  0
    1.8110   -9.9000   18.9260 O   0  0  0  0  0  0
    3.5390   -8.5000   18.6280 N   0  0  0  0  0  0
    2.7030   -7.3270   18.9330 C   0  0  2  0  0  0
    3.3330   -6.0530   18.3720 C   0  0  0  0  0  0
    3.3810   -5.7970   17.1700 O   0  0  0  0  0  0
    2.6120   -7.0030   20.4250 C   0  0  0  0  0  0
    3.7060   -5.9520   20.6270 C   0  0  1  0  0  0
    4.9380   -6.5460   21.0450 O   0  0  0  0  0  0
    3.8770   -5.2930   19.3230 N   0  0  0  0  0  0
    4.5100   -4.0210   18.9420 C   0  0  1  0  0  0
    4.6740   -3.1100   20.1620 C   0  0  0  0  0  0
    4.7580   -1.6260   19.7880 C   0  0  0  0  0  0
    5.1780   -1.1070   18.6380 C   0  0  0  0  0  0
    5.0700    0.2180   18.7160 N   0  3  0  0  0  0
    4.5830    0.5180   19.9160 C   0  0  0  0  0  0
    4.3930   -0.6200   20.5780 N   0  0  0  0  0  0
    5.8680   -4.3920   18.3400 C   0  0  0  0  0  0
    6.3780   -3.7150   17.4470 O   0  0  0  0  0  0
    6.4170   -5.4830   18.8690 N   0  0  0  0  0  0
    7.6640   -6.0810   18.3660 C   0  0  1  0  0  0
    8.7810   -6.1550   19.4120 C   0  0  0  0  0  0
    8.3710   -6.8420   20.7180 C   0  0  0  0  0  0
    9.5840   -7.1290   21.6080 C   0  0  0  0  0  0
   10.4430   -8.2780   21.0730 C   0  0  0  0  0  0
   11.4890   -8.5920   21.6380 O   0  0  0  0  0  0
   10.0920   -8.9110   20.0770 O   0  5  0  0  0  0
   14.8700  -11.1914   23.6361 H   0  0  0  0  0  0
   13.1620  -10.6444   23.7382 H   0  0  0  0  0  0
   14.3474   -9.7107   22.7636 H   0  0  0  0  0  0
   13.6921  -13.3825   20.2048 H   0  0  0  0  0  0
   10.8850  -10.3328   19.5914 H   0  0  0  0  0  0
   11.6988  -12.0352   17.3016 H   0  0  0  0  0  0
   10.4047  -12.8686   18.2275 H   0  0  0  0  0  0
   10.2320   -9.9627   17.2455 H   0  0  0  0  0  0
    9.5244  -11.3651   16.3741 H   0  0  0  0  0  0
    8.0668  -11.8756   18.2666 H   0  0  0  0  0  0
    8.8596  -10.6140   19.2699 H   0  0  0  0  0  0
    7.5008   -9.8484   16.6551 H   0  0  0  0  0  0
    8.8449   -8.3855   18.8172 H   0  0  0  0  0  0
    5.4254   -9.8584   15.6812 H   0  0  0  0  0  0
    5.5860  -11.6358   15.8847 H   0  0  0  0  0  0
    3.0432   -9.9128   15.9676 H   0  0  0  0  0  0
    3.3406  -11.4092   15.0195 H   0  0  0  0  0  0
    2.1015  -11.8209   17.3269 H   0  0  0  0  0  0
    3.6157  -12.7569   17.0867 H   0  0  0  0  0  0
    4.0843  -11.4134   19.2556 H   0  0  0  0  0  0
    4.6078   -8.3700   18.4027 H   0  0  0  0  0  0
    1.7393   -7.6249   18.4942 H   0  0  0  0  0  0
    1.6091   -6.6142   20.6552 H   0  0  0  0  0  0
    2.7945   -7.9163   21.0104 H   0  0  0  0  0  0
    3.4795   -5.2292   21.4246 H   0  0  0  0  0  0
    4.9922   -7.0837   22.0031 H   0  0  0  0  0  0
    3.8685   -3.4928   18.2212 H   0  0  0  0  0  0
    3.8129   -3.2389   20.8342 H   0  0  0  0  0  0
    5.5986   -3.3748   20.6958 H   0  0  0  0  0  0
    5.5319   -1.7679   17.8330 H   0  0  0  0  0  0
    4.3388    1.4789   20.3925 H   0  0  0  0  0  0
    5.8931   -5.9393   19.7218 H   0  0  0  0  0  0
    8.0958   -5.4390   17.5841 H   0  0  0  0  0  0
    9.6305   -6.7207   19.0018 H   0  0  0  0  0  0
    9.1089   -5.1374   19.6709 H   0  0  0  0  0  0
    7.6790   -6.1915   21.2729 H   0  0  0  0  0  0
    7.8738   -7.7963   20.4899 H   0  0  0  0  0  0
   10.2167   -6.2311   21.6662 H   0  0  0  0  0  0
    9.2419   -7.4025   22.6170 H   0  0  0  0  0  0
   12.1658  -10.2233   21.2809 H   0  0  0  0  0  0
    5.3672    0.8452   17.8626 H   0  0  0  0  0  0
  1  2  1  0  0  0
  1 49  1  0  0  0
  1 50  1  0  0  0
  1 51  1  0  0  0
  2  3  2  0  0  0
  2  4  1  0  0  0
  4  5  1  0  0  0
  4 88  1  0  0  0
  5  6  2  0  0  0
  5  7  1  0  0  0
  6 52  1  0  0  0
  7  8  1  0  0  0
  7 53  1  0  0  0
  8  9  1  0  0  0
  8 54  1  0  0  0
  8 55  1  0  0  0
  9 10  1  0  0  0
  9 56  1  0  0  0
  9 57  1  0  0  0
 10 11  1  0  0  0
 10 58  1  0  0  0
 10 59  1  0  0  0
 11 12  1  0  0  0
 11 15  1  0  0  0
 11 60  1  0  0  0
 12 13  1  0  0  0
 12 61  1  0  0  0
 13 14  2  0  0  0
 13 42  1  0  0  0
 15 16  2  0  0  0
 15 17  1  0  0  0
 17 18  1  0  0  0
 17 21  1  0  0  0
 18 19  1  0  0  0
 18 62  1  0  0  0
 18 63  1  0  0  0
 19 20  1  0  0  0
 19 64  1  0  0  0
 19 65  1  0  0  0
 20 21  1  0  0  0
 20 66  1  0  0  0
 20 67  1  0  0  0
 21 22  1  0  0  0
 21 68  1  0  0  0
 22 23  2  0  0  0
 22 24  1  0  0  0
 24 25  1  0  0  0
 24 69  1  0  0  0
 25 26  1  0  0  0
 25 28  1  0  0  0
 25 70  1  0  0  0
 26 27  2  0  0  0
 26 31  1  0  0  0
 28 29  1  0  0  0
 28 71  1  0  0  0
 28 72  1  0  0  0
 29 30  1  0  0  0
 29 31  1  0  0  0
 29 73  1  0  0  0
 30 74  1  0  0  0
 31 32  1  0  0  0
 32 33  1  0  0  0
 32 39  1  0  0  0
 32 75  1  0  0  0
 33 34  1  0  0  0
 33 76  1  0  0  0
 33 77  1  0  0  0
 34 35  2  0  0  0
 34 38  1  0  0  0
 35 36  1  0  0  0
 35 78  1  0  0  0
 36 37  1  0  0  0
 36 89  1  0  0  0
 37 38  2  0  0  0
 37 79  1  0  0  0
 39 40  2  0  0  0
 39 41  1  0  0  0
 41 42  1  0  0  0
 41 80  1  0  0  0
 42 43  1  0  0  0
 42 81  1  0  0  0
 43 44  1  0  0  0
 43 82  1  0  0  0
 43 83  1  0  0  0
 44 45  1  0  0  0
 44 84  1  0  0  0
 44 85  1  0  0  0
 45 46  1  0  0  0
 45 86  1  0  0  0
 45 87  1  0  0  0
 46 47  2  0  0  0
 46 48  1  0  0  0
M  CHG  3   4   1  36   1  48  -1
M  END
> <s_m_source_file>
../1waw_ligand.sdf

> <i_m_source_file_index>
1

> <s_epik_input>
W0NIM11DKD1PKVtOSF0vQyg9TlxbSF0pW05IXVtDSDJdW0NIMl1bQ0gyXVtDQEBIXShDMT1PKVtOSF1DKD1PKVtDQEhdKFtDSDJdW0NIMl1bQ0gyXUMoPU8pW09IXSlbTkhdQyg9TylbQ0BIXShbQ0gyXWMyW2NIXVtuSF1bY0hdbjIpTihbQ0BASF0oW0NIMl0zKVtPSF0pQyg9TylbQ0BIXTNbTkhdQyg9TylbQ0BIXShOMTQpW0NIMl1bQ0gyXVtDSDJdNA==

> <s_epik_cmdline>
J2VwaWtfYXBwJywgJy1pbWFlJywgJ2xpZ2FuZF9wcm8ubWFlJywgJy1vbWFlJywgJ2xpZ2FuZF9wcmVwLm1hZScsICctbXMnLCAnMScsICctcGgnLCAnNycsICctcGh0JywgJzAuNScsICctbnQn

> <r_epik_Ionization_Penalty>
  0.0079

> <r_epik_Ionization_Penalty_Charging>
  0.0075

> <r_epik_Ionization_Penalty_Neutral>
  0.0004

> <r_epik_State_Penalty>
  0.0002

> <r_epik_Charging_Adjusted_Penalty>
0.00770727752432446

> <i_epik_Tot_Q>
1

> <i_epik_Tot_abs_Q>
3

> <s_epik_Chemistry_Notes>
This compound has an imine and may undergo hydrolysis. This compound contains an acetal/aminal-like group ( X-CH(R)-Y where X, Y are N, S, or O) that may be acid/base labile, releasing an aldehyde.

$$$$
