1wax_ligand
                    3D
 Schrodinger Suite 2020-3.
 24 24  0  0  1  0            999 V2000
   42.4890   16.7100   64.1080 C   0  0  0  0  0  0
   43.6980   17.1380   64.1070 O   0  0  0  0  0  0
   41.4680   17.3540   63.6650 O   0  5  0  0  0  0
   42.2500   15.3770   64.6800 C   0  0  0  0  0  0
   41.7020   14.5610   63.9600 O   0  0  0  0  0  0
   42.6030   14.0600   66.7720 C   0  0  0  0  0  0
   43.5000   13.9710   67.8270 C   0  0  0  0  0  0
   43.4860   12.8690   68.6610 C   0  0  0  0  0  0
   42.5770   11.8590   68.4510 C   0  0  0  0  0  0
   41.6690   11.9400   67.4130 C   0  0  0  0  0  0
   41.6730   13.0350   66.5680 C   0  0  0  0  0  0
   42.5730   10.6750   69.3680 C   0  0  0  0  0  0
   41.5260   10.9510   70.3490 N   0  3  0  0  0  0
   42.6730   15.2070   65.9650 N   0  0  0  0  0  0
   44.2181   14.7729   67.9985 H   0  0  0  0  0  0
   44.1957   12.8006   69.4854 H   0  0  0  0  0  0
   40.9469   11.1381   67.2594 H   0  0  0  0  0  0
   40.9566   13.0989   65.7490 H   0  0  0  0  0  0
   42.3549    9.7646   68.7904 H   0  0  0  0  0  0
   43.5588   10.5783   69.8463 H   0  0  0  0  0  0
   41.4636   10.1167   71.0632 H   0  0  0  0  0  0
   40.5612   11.0652   69.8332 H   0  0  0  0  0  0
   41.7651   11.8789   70.8892 H   0  0  0  0  0  0
   43.1432   16.0425   66.5044 H   0  0  0  0  0  0
  1  2  2  0  0  0
  1  3  1  0  0  0
  1  4  1  0  0  0
  4  5  2  0  0  0
  4 14  1  0  0  0
  6  7  2  0  0  0
  6 11  1  0  0  0
  6 14  1  0  0  0
  7  8  1  0  0  0
  7 15  1  0  0  0
  8  9  2  0  0  0
  8 16  1  0  0  0
  9 10  1  0  0  0
  9 12  1  0  0  0
 10 11  2  0  0  0
 10 17  1  0  0  0
 11 18  1  0  0  0
 12 13  1  0  0  0
 12 19  1  0  0  0
 12 20  1  0  0  0
 13 21  1  0  0  0
 13 22  1  0  0  0
 13 23  1  0  0  0
 14 24  1  0  0  0
M  CHG  2   3  -1  13   1
M  END
> <s_m_source_file>
../1wax_ligand.sdf

> <i_m_source_file_index>
1

> <s_epik_input>
Tz1DKFtPSF0pQyg9TylbTkhdYzFbY0hdW2NIXWMoW2NIXVtjSF0xKVtDSDJdW05IMytd

> <s_epik_cmdline>
J2VwaWtfYXBwJywgJy1pbWFlJywgJ2xpZ2FuZF9wcm8ubWFlJywgJy1vbWFlJywgJ2xpZ2FuZF9wcmVwLm1hZScsICctbXMnLCAnMScsICctcGgnLCAnNycsICctcGh0JywgJzAuNScsICctbnQn

> <r_epik_Ionization_Penalty>
  0.0277

> <r_epik_Ionization_Penalty_Charging>
  0.0276

> <r_epik_Ionization_Penalty_Neutral>
  0.0001

> <r_epik_State_Penalty>
  0.0226

> <r_epik_Charging_Adjusted_Penalty>
0.0501448341585428

> <i_epik_Tot_Q>
0

> <i_epik_Tot_abs_Q>
2

$$$$
