1way_ligand
                    3D
 Schrodinger Suite 2020-3.
 34 36  0  0  1  0            999 V2000
    9.4380   19.8340   51.9440 N   0  0  0  0  0  0
    9.4610   21.0800   51.3350 N   0  0  0  0  0  0
    9.8790   20.9360   50.0980 C   0  0  3  0  0  0
   10.1470   19.5610   49.8810 C   0  0  0  0  0  0
    9.8620   18.9330   51.0430 C   0  0  0  0  0  0
    9.9790   17.4840   51.3890 C   0  0  0  0  0  0
   10.6700   16.6400   50.3270 C   0  0  0  0  0  0
   10.7680   15.2030   50.8610 C   0  0  0  0  0  0
    9.4150   14.6860   51.1170 N   0  3  0  0  0  0
    8.8100   15.4700   52.2180 C   0  0  0  0  0  0
    8.6070   16.9220   51.7550 C   0  0  0  0  0  0
   10.9360   22.0640   48.0980 C   0  0  0  0  0  0
    9.9980   22.0590   49.1420 C   0  0  0  0  0  0
    9.1070   23.1330   49.3190 C   0  0  0  0  0  0
    9.1440   24.2110   48.4660 C   0  0  0  0  0  0
   10.0640   24.2360   47.4190 C   0  0  0  0  0  0
   10.9560   23.1630   47.2360 C   0  0  0  0  0  0
   10.0900   25.6240   46.3620 Cl  0  0  0  0  0  0
   10.5090   18.9831   49.0179 H   0  0  0  0  0  0
   10.6475   17.4480   52.2618 H   0  0  0  0  0  0
   10.0799   16.6632   49.3990 H   0  0  0  0  0  0
   11.6743   17.0448   50.1331 H   0  0  0  0  0  0
   11.2697   14.5683   50.1157 H   0  0  0  0  0  0
   11.3471   15.1980   51.7962 H   0  0  0  0  0  0
    8.8057   14.7868   50.2068 H   0  0  0  0  0  0
    9.4756   13.6253   51.4020 H   0  0  0  0  0  0
    7.8389   15.0309   52.4902 H   0  0  0  0  0  0
    9.4784   15.4518   53.0915 H   0  0  0  0  0  0
    8.1675   17.5250   52.5632 H   0  0  0  0  0  0
    7.9499   16.9558   50.8735 H   0  0  0  0  0  0
   11.6293   21.2337   47.9636 H   0  0  0  0  0  0
    8.3848   23.1107   50.1351 H   0  0  0  0  0  0
    8.4555   25.0440   48.6082 H   0  0  0  0  0  0
   11.6701   23.1898   46.4129 H   0  0  0  0  0  0
  1  2  2  0  0  0
  1  5  1  0  0  0
  2  3  1  0  0  0
  3  4  1  0  0  0
  3 13  1  0  0  0
  4  5  2  0  0  0
  4 19  1  0  0  0
  5  6  1  0  0  0
  6  7  1  0  0  0
  6 11  1  0  0  0
  6 20  1  0  0  0
  7  8  1  0  0  0
  7 21  1  0  0  0
  7 22  1  0  0  0
  8  9  1  0  0  0
  8 23  1  0  0  0
  8 24  1  0  0  0
  9 10  1  0  0  0
  9 25  1  0  0  0
  9 26  1  0  0  0
 10 11  1  0  0  0
 10 27  1  0  0  0
 10 28  1  0  0  0
 11 29  1  0  0  0
 11 30  1  0  0  0
 12 13  2  0  0  0
 12 17  1  0  0  0
 12 31  1  0  0  0
 13 14  1  0  0  0
 14 15  2  0  0  0
 14 32  1  0  0  0
 15 16  1  0  0  0
 15 33  1  0  0  0
 16 17  2  0  0  0
 16 18  1  0  0  0
 17 34  1  0  0  0
M  CHG  1   9   1
M  END
> <s_m_source_file>
../1way_ligand.sdf

> <i_m_source_file_index>
1

> <s_epik_input>
W0NIMl0xW0NIMl1bTkgyK11bQ0gyXVtDSDJdW0NIXTFDKD1bQ0hdMilOPU5bQ0hdMmMzW2NIXVtjSF1jKENsKVtjSF1bY0hdMw==

> <s_epik_cmdline>
J2VwaWtfYXBwJywgJy1pbWFlJywgJ2xpZ2FuZF9wcm8ubWFlJywgJy1vbWFlJywgJ2xpZ2FuZF9wcmVwLm1hZScsICctbXMnLCAnMScsICctcGgnLCAnNycsICctcGh0JywgJzAuNScsICctbnQn

> <r_lp_tautomer_probability>
1

> <r_epik_Ionization_Penalty>
  0.0016

> <r_epik_Ionization_Penalty_Charging>
  0.0016

> <r_epik_Ionization_Penalty_Neutral>
  0.0000

> <r_epik_State_Penalty>
 -0.0000

> <r_epik_Charging_Adjusted_Penalty>
0.00159864069924862

> <i_epik_Tot_Q>
1

> <i_epik_Tot_abs_Q>
1

$$$$
