1wb0_ligand
                    3D
 Schrodinger Suite 2020-3.
 87 88  0  0  1  0            999 V2000
   11.4070    1.5140   11.5580 C   0  0  0  0  0  0
   12.5590    1.9800   10.7560 N   0  0  0  0  0  0
   13.6660    2.3480   11.3970 C   0  0  0  0  0  0
   13.7400    2.3340   12.6280 O   0  0  0  0  0  0
   14.6680    2.7910   10.6250 N   0  3  0  0  0  0
   15.8410    3.2080   11.1210 C   0  0  0  0  0  0
   16.1240    3.0640   12.4230 N   0  0  0  0  0  0
   16.7530    3.6880   10.2830 N   0  0  0  0  0  0
   18.0480    4.1900   10.7770 C   0  0  0  0  0  0
   19.1640    3.7710    9.8300 C   0  0  0  0  0  0
   20.5050    4.3610   10.2870 C   0  0  0  0  0  0
   21.6620    3.7740    9.4700 C   0  0  1  0  0  0
   22.9990    4.3010   10.0260 C   0  0  0  0  0  0
   23.4180    3.8540   11.1000 O   0  0  0  0  0  0
   23.6870    5.2010    9.2700 N   0  0  0  0  0  0
   24.9310    5.7090    9.8990 C   0  0  0  0  0  0
   21.6290    2.3160    9.6500 N   0  0  0  0  0  0
   22.3260    1.4890    8.8840 C   0  0  0  0  0  0
   23.0670    1.8610    7.9770 O   0  0  0  0  0  0
   22.1770   -0.0010    9.2250 C   0  0  1  0  0  0
   21.0920   -0.6330    8.3400 C   0  0  0  0  0  0
   23.4680   -0.6700    8.9750 N   0  0  0  0  0  0
   24.5590   -0.4120    9.7030 C   0  0  0  0  0  0
   24.6000    0.3960   10.6390 O   0  0  0  0  0  0
   25.8030   -1.1850    9.2800 C   0  0  0  0  0  0
   26.7980   -0.2370    8.6050 C   0  0  1  0  0  0
   28.0710   -1.0020    8.2140 C   0  0  0  0  0  0
   27.9650   -1.8730    7.3240 O   0  0  0  0  0  0
   29.1240   -0.6900    8.8140 O   0  5  0  0  0  0
   26.1820    0.3590    7.3990 N   0  0  0  0  0  0
   26.3870    1.6290    7.0400 C   0  0  0  0  0  0
   27.1100    2.4200    7.6550 O   0  0  0  0  0  0
   25.6650    2.0540    5.7570 C   0  0  0  0  0  0
   25.5340    3.5750    5.6580 C   0  0  1  0  0  0
   25.1090    3.9470    4.2310 C   0  0  0  0  0  0
   23.8850    4.0030    3.9940 O   0  0  0  0  0  0
   26.0300    4.1620    3.4020 O   0  5  0  0  0  0
   24.5480    4.0620    6.6690 N   0  0  0  0  0  0
   24.2640    5.3580    6.8420 C   0  0  0  0  0  0
   24.7760    6.2650    6.1800 O   0  0  0  0  0  0
   23.2100    5.6730    7.9380 C   0  0  2  0  0  0
   22.9580    7.1920    7.9710 C   0  0  0  0  0  0
   21.8380    7.5730    8.9380 C   0  0  0  0  0  0
   22.1400    7.9420   10.2690 C   0  0  0  0  0  0
   21.1050    8.3120   11.1430 C   0  0  0  0  0  0
   19.7670    8.3120   10.6980 C   0  0  0  0  0  0
   19.4660    7.9430    9.3740 C   0  0  0  0  0  0
   20.5040    7.5740    8.4940 C   0  0  0  0  0  0
   10.5766    1.2487   10.8872 H   0  0  0  0  0  0
   11.0862    2.3159   12.2393 H   0  0  0  0  0  0
   11.7015    0.6309   12.1440 H   0  0  0  0  0  0
   12.4869    2.0157    9.6589 H   0  0  0  0  0  0
   15.3632    2.6658   13.1104 H   0  0  0  0  0  0
   16.5302    3.7074    9.2060 H   0  0  0  0  0  0
   18.0170    5.2879   10.8367 H   0  0  0  0  0  0
   18.2456    3.7740   11.7759 H   0  0  0  0  0  0
   19.2416    2.6738    9.8175 H   0  0  0  0  0  0
   18.9403    4.1343    8.8161 H   0  0  0  0  0  0
   20.4911    5.4524   10.1502 H   0  0  0  0  0  0
   20.6656    4.1267   11.3497 H   0  0  0  0  0  0
   21.5608    4.0109    8.4006 H   0  0  0  0  0  0
   25.0764    5.2182   10.8726 H   0  0  0  0  0  0
   24.8505    6.7963   10.0449 H   0  0  0  0  0  0
   25.7883    5.4891    9.2458 H   0  0  0  0  0  0
   21.0094    1.8737   10.4440 H   0  0  0  0  0  0
   21.9217   -0.1369   10.2863 H   0  0  0  0  0  0
   20.1297   -0.1338    8.5268 H   0  0  0  0  0  0
   21.0022   -1.7032    8.5779 H   0  0  0  0  0  0
   21.3672   -0.5145    7.2816 H   0  0  0  0  0  0
   23.5564   -1.4100    8.1659 H   0  0  0  0  0  0
   26.2737   -1.6355   10.1663 H   0  0  0  0  0  0
   25.5190   -1.9781    8.5726 H   0  0  0  0  0  0
   27.0480    0.5891    9.2869 H   0  0  0  0  0  0
   25.5262   -0.2492    6.7586 H   0  0  0  0  0  0
   26.2302    1.6979    4.8831 H   0  0  0  0  0  0
   24.6551    1.6182    5.7430 H   0  0  0  0  0  0
   26.4882    4.0685    5.8943 H   0  0  0  0  0  0
   24.0188    3.3432    7.3118 H   0  0  0  0  0  0
   22.2708    5.1355    7.7405 H   0  0  0  0  0  0
   23.8748    7.7089    8.2909 H   0  0  0  0  0  0
   22.6733    7.5384    6.9665 H   0  0  0  0  0  0
   23.1734    7.9393   10.6158 H   0  0  0  0  0  0
   21.3366    8.6000   12.1684 H   0  0  0  0  0  0
   18.9659    8.5978   11.3797 H   0  0  0  0  0  0
   18.4320    7.9424    9.0292 H   0  0  0  0  0  0
   20.2719    7.2891    7.4678 H   0  0  0  0  0  0
   14.5472    2.8237    9.5321 H   0  0  0  0  0  0
  1  2  1  0  0  0
  1 49  1  0  0  0
  1 50  1  0  0  0
  1 51  1  0  0  0
  2  3  1  0  0  0
  2 52  1  0  0  0
  3  4  2  0  0  0
  3  5  1  0  0  0
  5  6  1  0  0  0
  5 87  1  0  0  0
  6  7  2  0  0  0
  6  8  1  0  0  0
  7 53  1  0  0  0
  8  9  1  0  0  0
  8 54  1  0  0  0
  9 10  1  0  0  0
  9 55  1  0  0  0
  9 56  1  0  0  0
 10 11  1  0  0  0
 10 57  1  0  0  0
 10 58  1  0  0  0
 11 12  1  0  0  0
 11 59  1  0  0  0
 11 60  1  0  0  0
 12 13  1  0  0  0
 12 17  1  0  0  0
 12 61  1  0  0  0
 13 14  2  0  0  0
 13 15  1  0  0  0
 15 16  1  0  0  0
 15 41  1  0  0  0
 16 62  1  0  0  0
 16 63  1  0  0  0
 16 64  1  0  0  0
 17 18  1  0  0  0
 17 65  1  0  0  0
 18 19  2  0  0  0
 18 20  1  0  0  0
 20 21  1  0  0  0
 20 22  1  0  0  0
 20 66  1  0  0  0
 21 67  1  0  0  0
 21 68  1  0  0  0
 21 69  1  0  0  0
 22 23  1  0  0  0
 22 70  1  0  0  0
 23 24  2  0  0  0
 23 25  1  0  0  0
 25 26  1  0  0  0
 25 71  1  0  0  0
 25 72  1  0  0  0
 26 27  1  0  0  0
 26 30  1  0  0  0
 26 73  1  0  0  0
 27 28  2  0  0  0
 27 29  1  0  0  0
 30 31  1  0  0  0
 30 74  1  0  0  0
 31 32  2  0  0  0
 31 33  1  0  0  0
 33 34  1  0  0  0
 33 75  1  0  0  0
 33 76  1  0  0  0
 34 35  1  0  0  0
 34 38  1  0  0  0
 34 77  1  0  0  0
 35 36  2  0  0  0
 35 37  1  0  0  0
 38 39  1  0  0  0
 38 78  1  0  0  0
 39 40  2  0  0  0
 39 41  1  0  0  0
 41 42  1  0  0  0
 41 79  1  0  0  0
 42 43  1  0  0  0
 42 80  1  0  0  0
 42 81  1  0  0  0
 43 44  2  0  0  0
 43 48  1  0  0  0
 44 45  1  0  0  0
 44 82  1  0  0  0
 45 46  2  0  0  0
 45 83  1  0  0  0
 46 47  1  0  0  0
 46 84  1  0  0  0
 47 48  2  0  0  0
 47 85  1  0  0  0
 48 86  1  0  0  0
M  CHG  3   5   1  29  -1  37  -1
M  END
> <s_m_source_file>
../1wb0_ligand.sdf

> <i_m_source_file_index>
1

> <s_epik_input>
W0NIM11bTkhdQyg9TylbTkhdL0MoPU5cW0hdKVtOSF1bQ0gyXVtDSDJdW0NIMl1bQ0BIXTFDKD1PKU4oW0NIM10pW0NAQEhdKFtDSDJdYzJbY0hdW2NIXVtjSF1bY0hdW2NIXTIpQyg9TylbTkhdW0NASF0oQyg9TylbT0hdKVtDSDJdQyg9TylbTkhdW0NASF0oQyg9TylbT0hdKVtDSDJdQyg9TylbTkhdW0NASF0oW0NIM10pQyg9TylbTkhdMQ==

> <s_epik_cmdline>
J2VwaWtfYXBwJywgJy1pbWFlJywgJ2xpZ2FuZF9wcm8ubWFlJywgJy1vbWFlJywgJ2xpZ2FuZF9wcmVwLm1hZScsICctbXMnLCAnMScsICctcGgnLCAnNycsICctcGh0JywgJzAuNScsICctbnQn

> <r_epik_Ionization_Penalty>
  0.0007

> <r_epik_Ionization_Penalty_Charging>
  0.0007

> <r_epik_Ionization_Penalty_Neutral>
  0.0000

> <r_epik_State_Penalty>
  0.0356

> <r_epik_Charging_Adjusted_Penalty>
0.0362343883276191

> <i_epik_Tot_Q>
-1

> <i_epik_Tot_abs_Q>
3

> <s_epik_Chemistry_Notes>
This compound has an imine and may undergo hydrolysis.

$$$$
