1wbn_ligand
                    3D
 Schrodinger Suite 2020-3.
 50 52  0  0  1  0            999 V2000
    4.6140   14.2610   41.5920 C   0  0  0  0  0  0
    5.8450   15.1930   41.5340 C   0  0  0  0  0  0
    5.6740   16.3200   42.5570 C   0  0  0  0  0  0
    7.1040   14.3520   41.9250 C   0  0  0  0  0  0
    6.0560   15.7640   40.1200 C   0  0  0  0  0  0
    6.0610   15.0720   38.9340 C   0  0  0  0  0  0
    6.3100   15.9840   37.9150 C   0  0  3  0  0  0
    6.3900   15.7740   36.5020 N   0  0  0  0  0  0
    6.1000   14.6060   35.8160 C   0  0  0  0  0  0
    5.5610   13.6520   36.3430 O   0  0  0  0  0  0
    6.4220   14.5830   34.4770 N   0  0  0  0  0  0
    6.2570   13.5100   33.5470 C   0  0  0  0  0  0
    7.3000   13.3640   32.5670 C   0  0  0  0  0  0
    7.2450   12.3610   31.5820 C   0  0  0  0  0  0
    6.1150   11.4670   31.5390 C   0  0  0  0  0  0
    6.1290   10.2730   30.2850 Cl  0  0  0  0  0  0
    5.0540   11.5830   32.5100 C   0  0  0  0  0  0
    3.8350   10.6570   32.4930 C   0  0  0  0  0  0
    3.0610   10.9960   31.3230 O   0  0  0  0  0  0
    2.0590   10.0990   30.9970 C   0  0  0  0  0  0
    1.1460   10.4820   29.9550 C   0  0  0  0  0  0
    0.0820    9.6050   29.5550 C   0  0  0  0  0  0
   -0.0400    8.3630   30.2040 C   0  0  0  0  0  0
    0.8350    8.0040   31.1960 N   0  0  0  0  0  0
    1.8600    8.7960   31.6140 C   0  0  0  0  0  0
    5.1170   12.6090   33.5070 C   0  0  0  0  0  0
    6.4480   17.1660   38.4640 N   0  3  0  0  0  0
    6.2940   17.0560   39.8300 N   0  0  0  0  0  0
    4.4955   13.8734   42.6146 H   0  0  0  0  0  0
    4.7567   13.4214   40.8958 H   0  0  0  0  0  0
    3.7135   14.8248   41.3069 H   0  0  0  0  0  0
    5.5251   15.8876   43.5574 H   0  0  0  0  0  0
    4.7994   16.9303   42.2874 H   0  0  0  0  0  0
    6.5747   16.9515   42.5608 H   0  0  0  0  0  0
    6.9684   13.9366   42.9345 H   0  0  0  0  0  0
    7.9948   14.9972   41.9106 H   0  0  0  0  0  0
    7.2344   13.5307   41.2050 H   0  0  0  0  0  0
    5.8850   13.9862   38.9300 H   0  0  0  0  0  0
    6.7104   16.5932   35.8415 H   0  0  0  0  0  0
    6.8655   15.4709   34.0026 H   0  0  0  0  0  0
    8.1509   14.0449   32.5881 H   0  0  0  0  0  0
    8.0517   12.2605   30.8559 H   0  0  0  0  0  0
    4.1702    9.6104   32.4464 H   0  0  0  0  0  0
    3.2438   10.8123   33.4075 H   0  0  0  0  0  0
    1.2626   11.4479   29.4636 H   0  0  0  0  0  0
   -0.6141    9.8945   28.7678 H   0  0  0  0  0  0
   -0.8383    7.6793   29.9151 H   0  0  0  0  0  0
    2.5276    8.4565   32.4059 H   0  0  0  0  0  0
    4.3119   12.7141   34.2343 H   0  0  0  0  0  0
    6.6531   18.1471   38.0109 H   0  0  0  0  0  0
  1  2  1  0  0  0
  1 29  1  0  0  0
  1 30  1  0  0  0
  1 31  1  0  0  0
  2  3  1  0  0  0
  2  4  1  0  0  0
  2  5  1  0  0  0
  3 32  1  0  0  0
  3 33  1  0  0  0
  3 34  1  0  0  0
  4 35  1  0  0  0
  4 36  1  0  0  0
  4 37  1  0  0  0
  5  6  2  0  0  0
  5 28  1  0  0  0
  6  7  1  0  0  0
  6 38  1  0  0  0
  7  8  1  0  0  0
  7 27  1  0  0  0
  8  9  1  0  0  0
  8 39  1  0  0  0
  9 10  2  0  0  0
  9 11  1  0  0  0
 11 12  1  0  0  0
 11 40  1  0  0  0
 12 13  2  0  0  0
 12 26  1  0  0  0
 13 14  1  0  0  0
 13 41  1  0  0  0
 14 15  2  0  0  0
 14 42  1  0  0  0
 15 16  1  0  0  0
 15 17  1  0  0  0
 17 18  1  0  0  0
 17 26  2  0  0  0
 18 19  1  0  0  0
 18 43  1  0  0  0
 18 44  1  0  0  0
 19 20  1  0  0  0
 20 21  2  0  0  0
 20 25  1  0  0  0
 21 22  1  0  0  0
 21 45  1  0  0  0
 22 23  2  0  0  0
 22 46  1  0  0  0
 23 24  1  0  0  0
 23 47  1  0  0  0
 24 25  2  0  0  0
 25 48  1  0  0  0
 26 49  1  0  0  0
 27 28  2  0  0  0
 27 50  1  0  0  0
M  CHG  1  27   1
M  END
> <s_m_source_file>
../1wbn_ligand.sdf

> <i_m_source_file_index>
1

> <s_epik_input>
W0NIM11DKFtDSDNdKShbQ0gzXSlDMT1bQ0hdW0NIXShOPU4xKVtOSF1DKD1PKVtOSF1jMltjSF1bY0hdYyhDbCljKFtjSF0yKVtDSDJdT2MzW2NIXVtjSF1bY0hdbltjSF0z

> <s_epik_cmdline>
J2VwaWtfYXBwJywgJy1pbWFlJywgJ2xpZ2FuZF9wcm8ubWFlJywgJy1vbWFlJywgJ2xpZ2FuZF9wcmVwLm1hZScsICctbXMnLCAnMScsICctcGgnLCAnNycsICctcGh0JywgJzAuNScsICctbnQn

> <r_epik_Ionization_Penalty>
  0.0154

> <r_epik_Ionization_Penalty_Charging>
  0.0000

> <r_epik_Ionization_Penalty_Neutral>
  0.0154

> <r_epik_State_Penalty>
  0.0121

> <r_epik_Charging_Adjusted_Penalty>
0.0120562959184704

> <i_epik_Tot_Q>
1

> <i_epik_Tot_abs_Q>
1

$$$$
