1wbt_ligand
                    3D
 Schrodinger Suite 2020-3.
 58 62  0  0  1  0            999 V2000
    8.5170   17.8710   37.3420 F   0  0  0  0  0  0
    7.7780   16.7860   37.6800 C   0  0  0  0  0  0
    7.3960   16.5710   39.0150 C   0  0  0  0  0  0
    6.6340   15.4460   39.4040 C   0  0  0  0  0  0
    6.2390   14.5840   38.3830 C   0  0  0  0  0  0
    6.6010   14.7970   37.0300 C   0  0  0  0  0  0
    7.3770   15.9070   36.6910 C   0  0  0  0  0  0
    6.1690   13.8200   35.9850 C   0  0  0  0  0  0
    5.1920   13.1170   36.2150 O   0  0  0  0  0  0
    6.8640   13.7400   34.8010 N   0  0  0  0  0  0
    6.6040   12.8000   33.7920 C   0  0  0  0  0  0
    7.6230   11.9270   33.3830 C   0  0  0  0  0  0
    7.4470   10.9740   32.4070 C   0  0  0  0  0  0
    6.2130   10.9130   31.7570 C   0  0  0  0  0  0
    5.6640   10.0750   30.6820 C   0  0  0  0  0  0
    4.3930   10.5140   30.5030 C   0  0  0  0  0  0
    4.0860   11.5530   31.3690 N   0  0  0  0  0  0
    2.8020   12.2720   31.4770 C   0  0  0  0  0  0
    2.0160   11.7110   32.6740 C   0  0  0  0  0  0
    1.6870   10.2690   32.4170 C   0  0  0  0  0  0
    0.6300    9.9180   31.5660 C   0  0  0  0  0  0
    0.3780    8.5670   31.3380 C   0  0  0  0  0  0
    1.1140    7.6290   31.9090 N   0  0  0  0  0  0
    2.1390    7.9340   32.7000 C   0  0  0  0  0  0
    2.4560    9.2530   32.9810 C   0  0  0  0  0  0
    5.1780   11.8210   32.1440 C   0  0  0  0  0  0
    5.3800   12.7690   33.1510 C   0  0  0  0  0  0
    6.1980   15.2360   40.7580 N   0  0  0  0  0  0
    6.1570   13.8640   41.2690 C   0  0  0  0  0  0
    5.3990   13.8950   42.5930 C   0  0  0  0  0  0
    6.0730   14.6950   43.5610 O   0  0  0  0  0  0
    6.2140   16.0430   43.1350 C   0  0  0  0  0  0
    6.7520   16.1990   41.7220 C   0  0  0  0  0  0
    7.6964   17.2937   39.7736 H   0  0  0  0  0  0
    5.6302   13.7154   38.6341 H   0  0  0  0  0  0
    7.6647   16.0794   35.6539 H   0  0  0  0  0  0
    7.6849   14.4431   34.5965 H   0  0  0  0  0  0
    8.5994   12.0076   33.8607 H   0  0  0  0  0  0
    8.2502   10.2842   32.1477 H   0  0  0  0  0  0
    6.1694    9.2730   30.1440 H   0  0  0  0  0  0
    3.6995   10.1017   29.7701 H   0  0  0  0  0  0
    2.9939   13.3445   31.6280 H   0  0  0  0  0  0
    2.2232   12.1297   30.5525 H   0  0  0  0  0  0
    2.6271   11.7934   33.5849 H   0  0  0  0  0  0
    1.0861   12.2843   32.8032 H   0  0  0  0  0  0
    0.0181   10.6859   31.0926 H   0  0  0  0  0  0
   -0.4398    8.2785   30.6777 H   0  0  0  0  0  0
    2.7387    7.1338   33.1338 H   0  0  0  0  0  0
    3.2951    9.4927   33.6341 H   0  0  0  0  0  0
    4.5899   13.4682   33.4246 H   0  0  0  0  0  0
    5.6407   13.2179   40.5437 H   0  0  0  0  0  0
    7.1833   13.4982   41.4203 H   0  0  0  0  0  0
    4.3955   14.3154   42.4312 H   0  0  0  0  0  0
    5.3088   12.8723   42.9879 H   0  0  0  0  0  0
    5.2335   16.5408   43.1629 H   0  0  0  0  0  0
    6.9110   16.5682   43.8046 H   0  0  0  0  0  0
    7.8438   16.0765   41.7763 H   0  0  0  0  0  0
    6.5136   17.2223   41.3963 H   0  0  0  0  0  0
  1  2  1  0  0  0
  2  3  2  0  0  0
  2  7  1  0  0  0
  3  4  1  0  0  0
  3 34  1  0  0  0
  4  5  2  0  0  0
  4 28  1  0  0  0
  5  6  1  0  0  0
  5 35  1  0  0  0
  6  7  2  0  0  0
  6  8  1  0  0  0
  7 36  1  0  0  0
  8  9  2  0  0  0
  8 10  1  0  0  0
 10 11  1  0  0  0
 10 37  1  0  0  0
 11 12  2  0  0  0
 11 27  1  0  0  0
 12 13  1  0  0  0
 12 38  1  0  0  0
 13 14  2  0  0  0
 13 39  1  0  0  0
 14 15  1  0  0  0
 14 26  1  0  0  0
 15 16  2  0  0  0
 15 40  1  0  0  0
 16 17  1  0  0  0
 16 41  1  0  0  0
 17 18  1  0  0  0
 17 26  1  0  0  0
 18 19  1  0  0  0
 18 42  1  0  0  0
 18 43  1  0  0  0
 19 20  1  0  0  0
 19 44  1  0  0  0
 19 45  1  0  0  0
 20 21  2  0  0  0
 20 25  1  0  0  0
 21 22  1  0  0  0
 21 46  1  0  0  0
 22 23  2  0  0  0
 22 47  1  0  0  0
 23 24  1  0  0  0
 24 25  2  0  0  0
 24 48  1  0  0  0
 25 49  1  0  0  0
 26 27  2  0  0  0
 27 50  1  0  0  0
 28 29  1  0  0  0
 28 33  1  0  0  0
 29 30  1  0  0  0
 29 51  1  0  0  0
 29 52  1  0  0  0
 30 31  1  0  0  0
 30 53  1  0  0  0
 30 54  1  0  0  0
 31 32  1  0  0  0
 32 33  1  0  0  0
 32 55  1  0  0  0
 32 56  1  0  0  0
 33 57  1  0  0  0
 33 58  1  0  0  0
M  END
> <s_m_source_file>
../1wbt_ligand.sdf

> <i_m_source_file_index>
1

> <s_epik_input>
W0NIMl0xW0NIMl1PW0NIMl1bQ0gyXU4xYyhbY0hdYzJGKVtjSF1jKFtjSF0yKUMoPU8pW05IXWMoW2NIXVtjSF0zKVtjSF1jKGMzNCluKFtjSF1bY0hdNClbQ0gyXVtDSDJdYzVbY0hdW2NIXW5bY0hdW2NIXTU=

> <s_epik_cmdline>
J2VwaWtfYXBwJywgJy1pbWFlJywgJ2xpZ2FuZF9wcm8ubWFlJywgJy1vbWFlJywgJ2xpZ2FuZF9wcmVwLm1hZScsICctbXMnLCAnMScsICctcGgnLCAnNycsICctcGh0JywgJzAuNScsICctbnQn

> <r_epik_Ionization_Penalty>
  0.0186

> <r_epik_Ionization_Penalty_Charging>
  0.0000

> <r_epik_Ionization_Penalty_Neutral>
  0.0186

> <r_epik_State_Penalty>
  0.0148

> <r_epik_Charging_Adjusted_Penalty>
0.0147735585642652

> <i_epik_Tot_Q>
0

> <i_epik_Tot_abs_Q>
0

$$$$
