1wbv_ligand
                    3D
 Schrodinger Suite 2020-3.
 42 45  0  0  1  0            999 V2000
    8.4050   18.4910   36.4830 F   0  0  0  0  0  0
    7.6350   17.4410   36.8400 C   0  0  0  0  0  0
    7.4030   17.1950   38.1810 C   0  0  0  0  0  0
    6.5850   16.1280   38.5840 C   0  0  0  0  0  0
    6.0370   15.2960   37.6020 C   0  0  0  0  0  0
    6.2710   15.5390   36.2440 C   0  0  0  0  0  0
    7.0810   16.6180   35.8690 C   0  0  0  0  0  0
    5.6700   14.6100   35.2400 C   0  0  0  0  0  0
    4.7170   13.9150   35.5760 O   0  0  0  0  0  0
    6.2310   14.5220   34.0000 N   0  0  0  0  0  0
    5.7770   13.6530   32.9750 C   0  0  0  0  0  0
    4.4250   13.5690   32.6220 C   0  0  0  0  0  0
    3.9950   12.7190   31.6210 C   0  0  0  0  0  0
    4.9240   11.9350   30.9260 C   0  0  0  0  0  0
    4.8220   11.0180   29.8940 N   0  0  0  0  0  0
    6.0630   10.5350   29.5840 C   0  0  0  0  0  0
    6.9810   11.1110   30.3670 C   0  0  0  0  0  0
    6.2880   12.0290   31.2620 C   0  0  0  0  0  0
    6.7100   12.8890   32.2890 C   0  0  0  0  0  0
    6.3750   15.8820   39.9590 N   0  0  0  0  0  0
    5.4610   14.7780   40.3130 C   0  0  0  0  0  0
    5.5990   14.4920   41.8040 C   0  0  0  0  0  0
    5.3600   15.6820   42.5740 O   0  0  0  0  0  0
    6.3440   16.6720   42.2460 C   0  0  0  0  0  0
    6.1450   17.0800   40.7890 C   0  0  0  0  0  0
    7.8606   17.8371   38.9336 H   0  0  0  0  0  0
    5.4200   14.4478   37.8984 H   0  0  0  0  0  0
    7.2766   16.8117   34.8143 H   0  0  0  0  0  0
    7.0950   15.1517   33.7413 H   0  0  0  0  0  0
    3.6966   14.1867   33.1474 H   0  0  0  0  0  0
    2.9353   12.6589   31.3730 H   0  0  0  0  0  0
    6.1779    9.7837   28.7888 H   0  0  0  0  0  0
    8.0550   10.9270   30.3407 H   0  0  0  0  0  0
    7.7671   12.9560   32.5463 H   0  0  0  0  0  0
    4.4261   15.0704   40.0819 H   0  0  0  0  0  0
    5.7269   13.8817   39.7334 H   0  0  0  0  0  0
    4.8681   13.7248   42.0993 H   0  0  0  0  0  0
    6.6161   14.1302   42.0154 H   0  0  0  0  0  0
    6.2187   17.5453   42.9030 H   0  0  0  0  0  0
    7.3500   16.2495   42.3856 H   0  0  0  0  0  0
    6.8629   17.8644   40.5075 H   0  0  0  0  0  0
    5.1202   17.4461   40.6284 H   0  0  0  0  0  0
  1  2  1  0  0  0
  2  3  2  0  0  0
  2  7  1  0  0  0
  3  4  1  0  0  0
  3 26  1  0  0  0
  4  5  2  0  0  0
  4 20  1  0  0  0
  5  6  1  0  0  0
  5 27  1  0  0  0
  6  7  2  0  0  0
  6  8  1  0  0  0
  7 28  1  0  0  0
  8  9  2  0  0  0
  8 10  1  0  0  0
 10 11  1  0  0  0
 10 29  1  0  0  0
 11 12  2  0  0  0
 11 19  1  0  0  0
 12 13  1  0  0  0
 12 30  1  0  0  0
 13 14  2  0  0  0
 13 31  1  0  0  0
 14 15  1  0  0  0
 14 18  1  0  0  0
 15 16  2  0  0  0
 16 17  1  0  0  0
 16 32  1  0  0  0
 17 18  1  0  0  0
 17 33  1  0  0  0
 18 19  2  0  0  0
 19 34  1  0  0  0
 20 21  1  0  0  0
 20 25  1  0  0  0
 21 22  1  0  0  0
 21 35  1  0  0  0
 21 36  1  0  0  0
 22 23  1  0  0  0
 22 37  1  0  0  0
 22 38  1  0  0  0
 23 24  1  0  0  0
 24 25  1  0  0  0
 24 39  1  0  0  0
 24 40  1  0  0  0
 25 41  1  0  0  0
 25 42  1  0  0  0
M  END
> <s_m_source_file>
../1wbv_ligand.sdf

> <i_m_source_file_index>
1

> <s_epik_input>
W0NIMl0xW0NIMl1PW0NIMl1bQ0gyXU4xYyhbY0hdYzJGKVtjSF1jKFtjSF0yKUMoPU8pW05IXWMoW2NIXVtjSF0zKVtjSF1jKGMzNClbQ0gyXVtDSF09TjQ=

> <s_epik_cmdline>
J2VwaWtfYXBwJywgJy1pbWFlJywgJ2xpZ2FuZF9wcm8ubWFlJywgJy1vbWFlJywgJ2xpZ2FuZF9wcmVwLm1hZScsICctbXMnLCAnMScsICctcGgnLCAnNycsICctcGh0JywgJzAuNScsICctbnQn

> <r_epik_Ionization_Penalty>
  0.0220

> <r_epik_Ionization_Penalty_Charging>
  0.0000

> <r_epik_Ionization_Penalty_Neutral>
  0.0220

> <r_epik_State_Penalty>
  0.0177

> <r_epik_Charging_Adjusted_Penalty>
0.0177487026147984

> <i_epik_Tot_Q>
0

> <i_epik_Tot_abs_Q>
0

> <s_epik_Chemistry_Notes>
This compound has an imine and may undergo hydrolysis.

$$$$
