1wc1_ligand
                    3D
 Schrodinger Suite 2020-3.
 43 45  0  0  1  0            999 V2000
   40.5190   47.8320  147.9490 P   0  0  0  0  0  0
   41.6640   47.8270  146.9750 O   0  5  0  0  0  0
   39.3960   48.7200  147.4920 O   0  0  0  0  0  0
   41.0350   48.2910  149.2890 O   0  5  0  0  0  0
   39.1140   45.4850  147.1780 P   0  0  1  0  0  0
   38.4190   46.3790  146.1660 O   0  0  0  0  0  0
   39.9460   44.4050  146.4510 O   0  5  0  0  0  0
   40.0710   46.3350  148.1050 O   0  0  0  0  0  0
   36.7350   44.1400  147.8650 P   0  0  1  0  0  0
   35.3260   45.0220  148.9590 S   0  0  0  0  0  0
   36.4220   44.2340  146.3540 O   0  0  0  0  0  0
   38.1040   44.8250  148.2230 O   0  0  0  0  0  0
   36.9100   42.6540  148.2900 O   0  0  0  0  0  0
   38.0320   41.8880  147.7770 C   0  0  0  0  0  0
   37.5420   40.7210  146.9720 C   0  0  1  0  0  0
   36.6960   39.8850  147.8570 O   0  0  0  0  0  0
   36.6170   41.1570  145.8390 C   0  0  1  0  0  0
   37.3390   41.4990  144.6490 O   0  0  0  0  0  0
   35.7580   39.9830  145.6720 C   0  0  1  0  0  0
   36.4480   39.0200  144.8700 O   0  0  0  0  0  0
   35.5110   39.4850  147.0970 C   0  0  2  0  0  0
   34.2760   40.1110  147.7010 N   0  0  0  0  0  0
   34.1800   40.9640  148.7480 C   0  0  0  0  0  0
   32.9070   41.3290  149.0440 N   0  0  0  0  0  0
   32.1850   40.6780  148.1440 C   0  0  0  0  0  0
   30.7970   40.6240  147.9190 C   0  0  0  0  0  0
   29.9170   41.2860  148.6600 N   0  0  0  0  0  0
   30.3290   39.8270  146.8520 N   0  0  0  0  0  0
   31.2690   39.1200  146.0780 C   0  0  0  0  0  0
   32.5910   39.0990  146.2240 N   0  0  0  0  0  0
   32.9980   39.8980  147.2740 C   0  0  0  0  0  0
   38.6523   42.5312  147.1355 H   0  0  0  0  0  0
   38.6366   41.5157  148.6172 H   0  0  0  0  0  0
   38.4262   40.1916  146.5875 H   0  0  0  0  0  0
   36.0428   42.0809  146.0022 H   0  0  0  0  0  0
   38.0190   42.3636  144.6476 H   0  0  0  0  0  0
   34.8338   40.1867  145.1113 H   0  0  0  0  0  0
   36.6903   39.2495  143.8218 H   0  0  0  0  0  0
   35.3701   38.3949  147.1406 H   0  0  0  0  0  0
   35.0463   41.3247  149.3026 H   0  0  0  0  0  0
   30.2623   41.9122  149.4958 H   0  0  0  0  0  0
   28.8424   41.2084  148.4383 H   0  0  0  0  0  0
   30.8658   38.5189  145.2630 H   0  0  0  0  0  0
  1  2  1  0  0  0
  1  3  2  0  0  0
  1  4  1  0  0  0
  1  8  1  0  0  0
  5  6  2  0  0  0
  5  7  1  0  0  0
  5  8  1  0  0  0
  5 12  1  0  0  0
  9 10  2  0  0  0
  9 11  2  0  0  0
  9 12  1  0  0  0
  9 13  1  0  0  0
 13 14  1  0  0  0
 14 15  1  0  0  0
 14 32  1  0  0  0
 14 33  1  0  0  0
 15 16  1  0  0  0
 15 17  1  0  0  0
 15 34  1  0  0  0
 16 21  1  0  0  0
 17 18  1  0  0  0
 17 19  1  0  0  0
 17 35  1  0  0  0
 18 36  1  0  0  0
 19 20  1  0  0  0
 19 21  1  0  0  0
 19 37  1  0  0  0
 20 38  1  0  0  0
 21 22  1  0  0  0
 21 39  1  0  0  0
 22 23  1  0  0  0
 22 31  1  0  0  0
 23 24  2  0  0  0
 23 40  1  0  0  0
 24 25  1  0  0  0
 25 26  2  0  0  0
 25 31  1  0  0  0
 26 27  1  0  0  0
 26 28  1  0  0  0
 27 41  1  0  0  0
 27 42  1  0  0  0
 28 29  2  0  0  0
 29 30  1  0  0  0
 29 43  1  0  0  0
 30 31  2  0  0  0
M  CHG  3   2  -1   4  -1   7  -1
M  END
> <s_m_source_file>
../1wc1_ligand.sdf

> <i_m_source_file_index>
1

> <s_epik_input>
W09IXVAoPU8pKFtPSF0pT1tQQEBdKD1PKShbT0hdKU9bUEBAXSg9UykoPU8pT1tDSDJdW0NASF0xT1tDQEhdKFtDQEhdKFtPSF0pW0NAQEhdMVtPSF0pbihbY0hdbjIpYyhjMjMpbltjSF1uYzNbTkgyXQ==

> <s_epik_cmdline>
J2VwaWtfYXBwJywgJy1pbWFlJywgJ2xpZ2FuZF9wcm8ubWFlJywgJy1vbWFlJywgJ2xpZ2FuZF9wcmVwLm1hZScsICctbXMnLCAnMScsICctcGgnLCAnNycsICctcGh0JywgJzAuNScsICctbnQn

> <r_lp_tautomer_probability>
0.999997216410988

> <r_epik_Ionization_Penalty>
  0.0687

> <r_epik_Ionization_Penalty_Charging>
  0.0682

> <r_epik_Ionization_Penalty_Neutral>
  0.0004

> <r_epik_State_Penalty>
  0.0594

> <r_epik_Charging_Adjusted_Penalty>
0.127595763037811

> <i_epik_Tot_Q>
-3

> <i_epik_Tot_abs_Q>
3

> <s_epik_Chemistry_Notes>
This compound contains an acetal/aminal-like group ( X-CH(R)-Y where X, Y are N, S, or O) that may be acid/base labile, releasing an aldehyde.

$$$$
