1wc6_ligand
                    3D
 Schrodinger Suite 2020-3.
 43 45  0  0  1  0            999 V2000
    5.4520   28.2450   48.3670 P   0  0  0  0  0  0
    6.2800   27.0610   48.7580 O   0  5  0  0  0  0
    4.5670   27.8840   47.2100 O   0  5  0  0  0  0
    6.3630   29.3600   47.9770 O   0  0  0  0  0  0
    4.9440   29.7720   50.6530 P   0  0  1  0  0  0
    5.1850   29.0370   51.9700 O   0  0  0  0  0  0
    6.2500   30.5050   50.2610 O   0  5  0  0  0  0
    4.5120   28.6910   49.5680 O   0  0  0  0  0  0
    3.5440   32.2320   50.0240 P   0  0  1  0  0  0
    4.6250   33.6560   50.9120 S   0  5  0  0  0  0
    3.9790   32.0600   48.5510 O   0  0  0  0  0  0
    3.7230   30.8380   50.8600 O   0  0  0  0  0  0
    2.0320   32.6510   50.1070 O   0  0  0  0  0  0
    1.0940   32.2090   49.1230 C   0  0  0  0  0  0
    0.4640   33.3960   48.4800 C   0  0  1  0  0  0
    0.1750   34.4420   49.4890 O   0  0  0  0  0  0
    1.3810   34.0930   47.4880 C   0  0  1  0  0  0
    1.4650   33.3800   46.2630 O   0  0  0  0  0  0
    0.7230   35.4200   47.3750 C   0  0  1  0  0  0
   -0.3890   35.3770   46.4500 O   0  0  0  0  0  0
    0.2600   35.7250   48.7980 C   0  0  2  0  0  0
    1.2170   36.6100   49.4920 N   0  0  0  0  0  0
    2.0390   36.3390   50.5380 C   0  0  0  0  0  0
    2.7760   37.3960   50.9370 N   0  0  0  0  0  0
    2.3920   38.3690   50.0980 C   0  0  0  0  0  0
    2.7700   39.7240   49.9780 C   0  0  0  0  0  0
    3.6560   40.2900   50.7790 N   0  0  0  0  0  0
    2.1630   40.4960   48.9590 N   0  0  0  0  0  0
    1.2220   39.8790   48.1220 C   0  0  0  0  0  0
    0.8100   38.6170   48.1740 N   0  0  0  0  0  0
    1.4230   37.9120   49.1720 C   0  0  0  0  0  0
    1.6157   31.6100   48.3621 H   0  0  0  0  0  0
    0.3189   31.5950   49.6049 H   0  0  0  0  0  0
   -0.4431   32.9951   48.0041 H   0  0  0  0  0  0
    2.4510   34.1526   47.7363 H   0  0  0  0  0  0
    1.9347   32.3857   46.2364 H   0  0  0  0  0  0
    1.3812   36.1845   46.9364 H   0  0  0  0  0  0
   -0.2107   35.1672   45.3850 H   0  0  0  0  0  0
   -0.7130   36.2374   48.8257 H   0  0  0  0  0  0
    2.0979   35.3588   51.0112 H   0  0  0  0  0  0
    4.1343   39.6998   51.5746 H   0  0  0  0  0  0
    3.9151   41.3512   50.6501 H   0  0  0  0  0  0
    0.7808   40.5025   47.3444 H   0  0  0  0  0  0
  1  2  1  0  0  0
  1  3  1  0  0  0
  1  4  2  0  0  0
  1  8  1  0  0  0
  5  6  2  0  0  0
  5  7  1  0  0  0
  5  8  1  0  0  0
  5 12  1  0  0  0
  9 10  1  0  0  0
  9 11  2  0  0  0
  9 12  1  0  0  0
  9 13  1  0  0  0
 13 14  1  0  0  0
 14 15  1  0  0  0
 14 32  1  0  0  0
 14 33  1  0  0  0
 15 16  1  0  0  0
 15 17  1  0  0  0
 15 34  1  0  0  0
 16 21  1  0  0  0
 17 18  1  0  0  0
 17 19  1  0  0  0
 17 35  1  0  0  0
 18 36  1  0  0  0
 19 20  1  0  0  0
 19 21  1  0  0  0
 19 37  1  0  0  0
 20 38  1  0  0  0
 21 22  1  0  0  0
 21 39  1  0  0  0
 22 23  1  0  0  0
 22 31  1  0  0  0
 23 24  2  0  0  0
 23 40  1  0  0  0
 24 25  1  0  0  0
 25 26  2  0  0  0
 25 31  1  0  0  0
 26 27  1  0  0  0
 26 28  1  0  0  0
 27 41  1  0  0  0
 27 42  1  0  0  0
 28 29  2  0  0  0
 29 30  1  0  0  0
 29 43  1  0  0  0
 30 31  2  0  0  0
M  CHG  4   2  -1   3  -1   7  -1  10  -1
M  END
> <s_m_source_file>
../1wc6_ligand.sdf

> <i_m_source_file_index>
1

> <s_epik_input>
W09IXVAoPU8pKFtPSF0pT1tQQEBdKD1PKShbT0hdKU9bUEBdKD1PKShbU0hdKU9bQ0gyXVtDQEhdMU9bQ0BIXShbQ0BIXShbT0hdKVtDQEBIXTFbT0hdKW4oW2NIXW4yKWMoYzIzKW5bY0hdbmMzW05IMl0=

> <s_epik_cmdline>
J2VwaWtfYXBwJywgJy1pbWFlJywgJ2xpZ2FuZF9wcm8ubWFlJywgJy1vbWFlJywgJ2xpZ2FuZF9wcmVwLm1hZScsICctbXMnLCAnMScsICctcGgnLCAnNycsICctcGh0JywgJzAuNScsICctbnQn

> <r_lp_tautomer_probability>
0.999997216410988

> <r_epik_Ionization_Penalty>
  0.0767

> <r_epik_Ionization_Penalty_Charging>
  0.0763

> <r_epik_Ionization_Penalty_Neutral>
  0.0004

> <r_epik_State_Penalty>
  0.0665

> <r_epik_Charging_Adjusted_Penalty>
0.142755607786462

> <i_epik_Tot_Q>
-4

> <i_epik_Tot_abs_Q>
4

> <s_epik_Chemistry_Notes>
This compound contains an acetal/aminal-like group ( X-CH(R)-Y where X, Y are N, S, or O) that may be acid/base labile, releasing an aldehyde.

$$$$
