1wcc_ligand
                    3D
 Schrodinger Suite 2020-3.
 12 12  0  0  1  0            999 V2000
   28.0900    7.6280   64.7210 N   0  0  0  0  0  0
   27.7870    6.2770   64.7620 C   0  0  0  0  0  0
   28.5100    5.3820   65.6350 C   0  0  0  0  0  0
   28.1010    4.0890   65.5550 N   0  0  0  0  0  0
   27.1280    3.5790   64.7730 C   0  0  0  0  0  0
   26.4680    4.4930   63.9600 C   0  0  0  0  0  0
   25.2350    3.8990   62.9430 Cl  0  0  0  0  0  0
   26.7980    5.8090   63.9530 N   0  0  0  0  0  0
   28.8850    8.0331   65.3643 H   0  0  0  0  0  0
   27.5357    8.2957   64.0451 H   0  0  0  0  0  0
   29.3100    5.7134   66.2970 H   0  0  0  0  0  0
   26.8754    2.5187   64.7781 H   0  0  0  0  0  0
  1  2  1  0  0  0
  1  9  1  0  0  0
  1 10  1  0  0  0
  2  3  2  0  0  0
  2  8  1  0  0  0
  3  4  1  0  0  0
  3 11  1  0  0  0
  4  5  2  0  0  0
  5  6  1  0  0  0
  5 12  1  0  0  0
  6  7  1  0  0  0
  6  8  2  0  0  0
M  END
> <s_m_source_file>
../1wcc_ligand.sdf

> <i_m_source_file_index>
1

> <s_epik_input>
W05IMl1jMVtjSF1uW2NIXWMoQ2wpbjE=

> <s_epik_cmdline>
J2VwaWtfYXBwJywgJy1pbWFlJywgJ2xpZ2FuZF9wcm8ubWFlJywgJy1vbWFlJywgJ2xpZ2FuZF9wcmVwLm1hZScsICctbXMnLCAnMScsICctcGgnLCAnNycsICctcGh0JywgJzAuNScsICctbnQn

> <r_lp_tautomer_probability>
1

> <r_epik_Ionization_Penalty>
  0.0000

> <r_epik_Ionization_Penalty_Charging>
  0.0000

> <r_epik_Ionization_Penalty_Neutral>
  0.0000

> <r_epik_State_Penalty>
 -0.0000

> <r_epik_Charging_Adjusted_Penalty>
0

> <i_epik_Tot_Q>
0

> <i_epik_Tot_abs_Q>
0

$$$$
