1wcq_ligand
                    3D
 Schrodinger Suite 2020-3.
 39 39  0  0  1  0            999 V2000
  -30.6010   54.0230   74.9030 C   0  0  0  0  0  0
  -31.3280   55.1730   75.6770 C   0  0  0  0  0  0
  -31.8500   54.9810   76.9490 C   0  0  0  0  0  0
  -32.4740   56.1990   77.6530 C   0  0  1  0  0  0
  -32.9930   57.2210   76.7160 C   0  0  2  0  0  0
  -31.8610   57.6120   75.7990 C   0  0  2  0  0  0
  -32.2880   58.6000   74.7180 C   0  0  1  0  0  0
  -31.2290   58.7420   73.6870 C   0  0  1  0  0  0
  -31.5760   59.8940   72.7610 C   0  0  0  0  0  0
  -34.6070   58.9970   77.3860 C   0  0  2  0  0  0
  -34.6830   60.3830   78.0660 C   0  0  0  0  0  0
  -33.3070   58.3900   77.5400 N   0  3  0  0  0  0
  -30.4860   52.8850   75.4450 O   0  5  0  0  0  0
  -30.1630   54.2910   73.7670 O   0  0  0  0  0  0
  -33.3870   55.8950   78.7170 O   0  0  0  0  0  0
  -31.4050   56.4270   75.0950 O   0  0  0  0  0  0
  -33.5140   58.2550   74.0030 O   0  0  0  0  0  0
  -29.9620   58.9650   74.3120 O   0  0  0  0  0  0
  -30.4770   59.8680   71.8800 O   0  0  0  0  0  0
  -34.8870   59.0710   76.0200 O   0  0  0  0  0  0
  -31.8079   53.9861   77.4164 H   0  0  0  0  0  0
  -31.6745   56.6938   78.2239 H   0  0  0  0  0  0
  -33.8736   56.8667   76.1601 H   0  0  0  0  0  0
  -31.0637   58.0370   76.4264 H   0  0  0  0  0  0
  -32.4940   59.5434   75.2448 H   0  0  0  0  0  0
  -31.1228   57.7999   73.1292 H   0  0  0  0  0  0
  -32.5389   59.6918   72.2691 H   0  0  0  0  0  0
  -31.6503   60.8237   73.3442 H   0  0  0  0  0  0
  -35.3600   58.3166   77.8104 H   0  0  0  0  0  0
  -34.4564   60.2787   79.1373 H   0  0  0  0  0  0
  -35.6950   60.7963   77.9438 H   0  0  0  0  0  0
  -33.9517   61.0603   77.6007 H   0  0  0  0  0  0
  -33.2431   58.1167   78.6036 H   0  0  0  0  0  0
  -32.5884   59.1944   77.3243 H   0  0  0  0  0  0
  -33.1151   55.1496   79.4789 H   0  0  0  0  0  0
  -34.4493   58.0961   74.5598 H   0  0  0  0  0  0
  -29.5583   58.2233   75.0169 H   0  0  0  0  0  0
  -30.4128   60.5974   71.0591 H   0  0  0  0  0  0
  -35.8375   59.5050   75.6761 H   0  0  0  0  0  0
  1  2  1  0  0  0
  1 13  1  0  0  0
  1 14  2  0  0  0
  2  3  2  0  0  0
  2 16  1  0  0  0
  3  4  1  0  0  0
  3 21  1  0  0  0
  4  5  1  0  0  0
  4 15  1  0  0  0
  4 22  1  0  0  0
  5  6  1  0  0  0
  5 12  1  0  0  0
  5 23  1  0  0  0
  6  7  1  0  0  0
  6 16  1  0  0  0
  6 24  1  0  0  0
  7  8  1  0  0  0
  7 17  1  0  0  0
  7 25  1  0  0  0
  8  9  1  0  0  0
  8 18  1  0  0  0
  8 26  1  0  0  0
  9 19  1  0  0  0
  9 27  1  0  0  0
  9 28  1  0  0  0
 10 11  1  0  0  0
 10 12  1  0  0  0
 10 20  1  0  0  0
 10 29  1  0  0  0
 11 30  1  0  0  0
 11 31  1  0  0  0
 11 32  1  0  0  0
 12 33  1  0  0  0
 12 34  1  0  0  0
 15 35  1  0  0  0
 17 36  1  0  0  0
 18 37  1  0  0  0
 19 38  1  0  0  0
 20 39  1  0  0  0
M  CHG  2  12   1  13  -1
M  END
> <s_m_source_file>
../1wcq_ligand.sdf

> <i_m_source_file_index>
1

> <s_epik_input>
W09IXUMoPU8pQzE9W0NIXVtDQEhdKFtPSF0pW0NAQEhdKFtOSDIrXVtDQEBIXShbQ0gzXSlbT0hdKVtDQEBIXShPMSlbQ0BIXShbT0hdKVtDQEhdKFtPSF0pW0NIMl1bT0hd

> <s_epik_cmdline>
J2VwaWtfYXBwJywgJy1pbWFlJywgJ2xpZ2FuZF9wcm8ubWFlJywgJy1vbWFlJywgJ2xpZ2FuZF9wcmVwLm1hZScsICctbXMnLCAnMScsICctcGgnLCAnNycsICctcGh0JywgJzAuNScsICctbnQn

> <r_epik_Ionization_Penalty>
  0.3202

> <r_epik_Ionization_Penalty_Charging>
  0.2318

> <r_epik_Ionization_Penalty_Neutral>
  0.0884

> <r_epik_State_Penalty>
  0.2776

> <r_epik_Charging_Adjusted_Penalty>
0.509451112730269

> <i_epik_Tot_Q>
0

> <i_epik_Tot_abs_Q>
2

> <s_epik_Chemistry_Notes>
This compound contains an acetal/aminal-like group ( X-CH(R)-Y where X, Y are N, S, or O) that may be acid/base labile, releasing an aldehyde.

$$$$
