1wdq_ligand
                    3D
 Schrodinger Suite 2020-3.
 43 44  0  0  1  0            999 V2000
    0.9230   28.6920   21.9830 C   0  0  1  0  0  0
    1.7170   27.4070   21.6590 C   0  0  1  0  0  0
    3.1030   27.8610   21.1930 C   0  0  2  0  0  0
    2.9420   28.6640   19.9090 C   0  0  1  0  0  0
    2.0870   29.9040   20.1930 C   0  0  1  0  0  0
    1.7200   30.7580   18.9850 C   0  0  0  0  0  0
    1.5100   29.4120   23.0670 O   0  0  0  0  0  0
    1.8620   26.6610   22.8710 O   0  0  0  0  0  0
    3.8820   26.6820   20.9530 O   0  0  0  0  0  0
    4.2560   29.1080   19.5140 O   0  0  0  0  0  0
    0.8360   29.4530   20.7540 O   0  0  0  0  0  0
    0.9830   30.0210   17.9800 O   0  0  0  0  0  0
   -0.2160   32.8410   24.5710 C   0  0  0  0  0  0
   -0.6380   31.5880   25.1980 C   0  0  1  0  0  0
    0.0570   30.3000   24.8200 C   0  0  2  0  0  0
    0.8690   30.5740   23.5570 C   0  0  1  0  0  0
    1.8850   31.6670   23.9480 C   0  0  1  0  0  0
    2.8230   32.2800   22.9300 C   0  0  0  0  0  0
   -0.8270   34.1190   24.3720 O   0  0  0  0  0  0
   -1.0670   31.4000   26.5250 O   0  0  0  0  0  0
   -0.8750   29.2780   24.5270 O   0  0  0  0  0  0
    1.1980   32.8420   24.4530 O   0  0  0  0  0  0
    2.0480   32.8510   21.7950 O   0  0  0  0  0  0
   -0.1008   28.5369   22.3541 H   0  0  0  0  0  0
    1.2212   26.7390   20.9392 H   0  0  0  0  0  0
    3.6485   28.4506   21.9445 H   0  0  0  0  0  0
    2.5138   28.0555   19.0988 H   0  0  0  0  0  0
    2.6595   30.5320   20.8915 H   0  0  0  0  0  0
    1.0936   31.6021   19.3094 H   0  0  0  0  0  0
    2.6375   31.1417   18.5148 H   0  0  0  0  0  0
    0.9746   26.2442   23.3698 H   0  0  0  0  0  0
    4.0950   25.9862   21.7779 H   0  0  0  0  0  0
    5.0331   28.3711   19.2628 H   0  0  0  0  0  0
    0.6580   30.5238   17.0572 H   0  0  0  0  0  0
   -1.5939   31.8978   24.7506 H   0  0  0  0  0  0
    0.6426   29.9120   25.6665 H   0  0  0  0  0  0
    0.2404   30.8292   22.6911 H   0  0  0  0  0  0
    2.4978   31.1102   24.6722 H   0  0  0  0  0  0
    3.4076   33.0812   23.4058 H   0  0  0  0  0  0
    3.5049   31.5064   22.5472 H   0  0  0  0  0  0
   -1.6097   32.2022   27.0465 H   0  0  0  0  0  0
   -1.5664   28.9243   25.3060 H   0  0  0  0  0  0
    2.5732   33.3385   20.9604 H   0  0  0  0  0  0
  1  2  1  0  0  0
  1  7  1  0  0  0
  1 11  1  0  0  0
  1 24  1  0  0  0
  2  3  1  0  0  0
  2  8  1  0  0  0
  2 25  1  0  0  0
  3  4  1  0  0  0
  3  9  1  0  0  0
  3 26  1  0  0  0
  4  5  1  0  0  0
  4 10  1  0  0  0
  4 27  1  0  0  0
  5  6  1  0  0  0
  5 11  1  0  0  0
  5 28  1  0  0  0
  6 12  1  0  0  0
  6 29  1  0  0  0
  6 30  1  0  0  0
  7 16  1  0  0  0
  8 31  1  0  0  0
  9 32  1  0  0  0
 10 33  1  0  0  0
 12 34  1  0  0  0
 13 14  1  0  0  0
 13 19  2  0  0  0
 13 22  1  0  0  0
 14 15  1  0  0  0
 14 20  1  0  0  0
 14 35  1  0  0  0
 15 16  1  0  0  0
 15 21  1  0  0  0
 15 36  1  0  0  0
 16 17  1  0  0  0
 16 37  1  0  0  0
 17 18  1  0  0  0
 17 22  1  0  0  0
 17 38  1  0  0  0
 18 23  1  0  0  0
 18 39  1  0  0  0
 18 40  1  0  0  0
 20 41  1  0  0  0
 21 42  1  0  0  0
 23 43  1  0  0  0
M  END
> <s_m_source_file>
../1wdq_ligand.sdf

> <i_m_source_file_index>
1

> <s_epik_input>
Tz1DMVtDQEhdKFtPSF0pW0NAQEhdKFtPSF0pW0NAQEhdKFtDQEhdKE8xKVtDSDJdW09IXSlPW0NAQEhdMltDQEhdKFtPSF0pW0NAQEhdKFtPSF0pW0NASF0oW09IXSlbQ0BIXShPMilbQ0gyXVtPSF0=

> <s_epik_cmdline>
J2VwaWtfYXBwJywgJy1pbWFlJywgJ2xpZ2FuZF9wcm8ubWFlJywgJy1vbWFlJywgJ2xpZ2FuZF9wcmVwLm1hZScsICctbXMnLCAnMScsICctcGgnLCAnNycsICctcGh0JywgJzAuNScsICctbnQn

> <r_lp_tautomer_probability>
1

> <r_epik_Ionization_Penalty>
  0.0006

> <r_epik_Ionization_Penalty_Charging>
  0.0000

> <r_epik_Ionization_Penalty_Neutral>
  0.0006

> <r_epik_State_Penalty>
 -0.0000

> <r_epik_Charging_Adjusted_Penalty>
0

> <i_epik_Tot_Q>
0

> <i_epik_Tot_abs_Q>
0

> <s_epik_Chemistry_Notes>
This compound has an ester and may undergo hydrolysis at high or low pH. This compound contains an acetal/aminal-like group ( X-CH(R)-Y where X, Y are N, S, or O) that may be acid/base labile, releasing an aldehyde.

$$$$
