1wdr_ligand
                    3D
 Schrodinger Suite 2020-3.
 45 46  0  0  1  0            999 V2000
    1.0040   29.0760   22.0650 C   0  0  1  0  0  0
    1.7940   27.7970   21.7070 C   0  0  1  0  0  0
    3.2030   28.1500   21.2210 C   0  0  2  0  0  0
    3.0080   28.9350   19.9050 C   0  0  1  0  0  0
    2.1880   30.2240   20.2430 C   0  0  1  0  0  0
    1.8470   31.0510   18.9930 C   0  0  0  0  0  0
    1.7330   29.8190   23.0650 O   0  0  0  0  0  0
    1.9070   26.9510   22.8950 O   0  0  0  0  0  0
    3.8700   26.9030   20.8850 O   0  0  0  0  0  0
    4.3310   29.3240   19.4950 O   0  0  0  0  0  0
    0.9210   29.8420   20.8390 O   0  0  0  0  0  0
    1.0810   30.2610   18.0500 O   0  0  0  0  0  0
    0.6910   32.7760   25.8260 C   0  0  2  0  0  0
   -0.4190   31.7790   25.4540 C   0  0  1  0  0  0
    0.2690   30.5490   24.9090 C   0  0  2  0  0  0
    1.0510   30.9620   23.6390 C   0  0  1  0  0  0
    2.1840   31.8730   24.0970 C   0  0  1  0  0  0
    3.0410   32.4590   22.9990 C   0  0  0  0  0  0
    0.1300   34.0410   26.0500 O   0  0  0  0  0  0
   -0.9520   31.4040   26.7710 O   0  0  0  0  0  0
   -0.7720   29.6300   24.5420 O   0  0  0  0  0  0
    1.5270   33.0380   24.6550 O   0  0  0  0  0  0
    2.2560   33.0900   21.9490 O   0  0  0  0  0  0
   -0.0039   28.9146   22.4749 H   0  0  0  0  0  0
    1.2604   27.2241   20.9343 H   0  0  0  0  0  0
    3.8081   28.6763   21.9739 H   0  0  0  0  0  0
    2.5518   28.3513   19.0919 H   0  0  0  0  0  0
    2.7574   30.8339   20.9598 H   0  0  0  0  0  0
    1.2535   31.9298   19.2854 H   0  0  0  0  0  0
    2.7769   31.3817   18.5072 H   0  0  0  0  0  0
    0.9997   26.5872   23.3995 H   0  0  0  0  0  0
    4.1124   26.1783   21.6763 H   0  0  0  0  0  0
    5.0672   28.5569   19.2129 H   0  0  0  0  0  0
    0.7545   30.7050   17.0980 H   0  0  0  0  0  0
    1.2481   32.4224   26.7061 H   0  0  0  0  0  0
   -1.1875   32.1484   24.7590 H   0  0  0  0  0  0
    0.9134   30.0564   25.6520 H   0  0  0  0  0  0
    0.3737   31.3849   22.8824 H   0  0  0  0  0  0
    2.8239   31.2969   24.7815 H   0  0  0  0  0  0
    3.7099   33.2220   23.4237 H   0  0  0  0  0  0
    3.6413   31.6613   22.5371 H   0  0  0  0  0  0
   -0.5695   34.1924   26.8853 H   0  0  0  0  0  0
   -1.5024   32.1427   27.3722 H   0  0  0  0  0  0
   -1.4409   29.2202   25.3131 H   0  0  0  0  0  0
    2.7605   33.5559   21.0897 H   0  0  0  0  0  0
  1  2  1  0  0  0
  1  7  1  0  0  0
  1 11  1  0  0  0
  1 24  1  0  0  0
  2  3  1  0  0  0
  2  8  1  0  0  0
  2 25  1  0  0  0
  3  4  1  0  0  0
  3  9  1  0  0  0
  3 26  1  0  0  0
  4  5  1  0  0  0
  4 10  1  0  0  0
  4 27  1  0  0  0
  5  6  1  0  0  0
  5 11  1  0  0  0
  5 28  1  0  0  0
  6 12  1  0  0  0
  6 29  1  0  0  0
  6 30  1  0  0  0
  7 16  1  0  0  0
  8 31  1  0  0  0
  9 32  1  0  0  0
 10 33  1  0  0  0
 12 34  1  0  0  0
 13 14  1  0  0  0
 13 19  1  0  0  0
 13 22  1  0  0  0
 13 35  1  0  0  0
 14 15  1  0  0  0
 14 20  1  0  0  0
 14 36  1  0  0  0
 15 16  1  0  0  0
 15 21  1  0  0  0
 15 37  1  0  0  0
 16 17  1  0  0  0
 16 38  1  0  0  0
 17 18  1  0  0  0
 17 22  1  0  0  0
 17 39  1  0  0  0
 18 23  1  0  0  0
 18 40  1  0  0  0
 18 41  1  0  0  0
 19 42  1  0  0  0
 20 43  1  0  0  0
 21 44  1  0  0  0
 23 45  1  0  0  0
M  END
> <s_m_source_file>
../1wdr_ligand.sdf

> <i_m_source_file_index>
1

> <s_epik_input>
W09IXVtDQEhdMVtDQEhdKFtPSF0pW0NAQEhdKFtPSF0pW0NAQEhdKFtDQEhdKE8xKVtDSDJdW09IXSlPW0NAQEhdMltDQEhdKFtPSF0pW0NAQEhdKFtPSF0pW0NASF0oW09IXSlbQ0BIXShPMilbQ0gyXVtPSF0=

> <s_epik_cmdline>
J2VwaWtfYXBwJywgJy1pbWFlJywgJ2xpZ2FuZF9wcm8ubWFlJywgJy1vbWFlJywgJ2xpZ2FuZF9wcmVwLm1hZScsICctbXMnLCAnMScsICctcGgnLCAnNycsICctcGh0JywgJzAuNScsICctbnQn

> <r_lp_tautomer_probability>
1

> <r_epik_Ionization_Penalty>
  0.0000

> <r_epik_Ionization_Penalty_Charging>
  0.0000

> <r_epik_Ionization_Penalty_Neutral>
  0.0000

> <r_epik_State_Penalty>
 -0.0000

> <r_epik_Charging_Adjusted_Penalty>
0

> <i_epik_Tot_Q>
0

> <i_epik_Tot_abs_Q>
0

> <s_epik_Chemistry_Notes>
This compound contains an acetal/aminal-like group ( X-CH(R)-Y where X, Y are N, S, or O) that may be acid/base labile, releasing an aldehyde.

$$$$
