1wdy_ligand
                    3D
 Schrodinger Suite 2020-3.
100108  0  0  1  0            999 V2000
   27.7480   -2.7590   16.3710 O   0  0  0  0  0  0
   27.2050   -1.7830   15.3850 P   0  0  0  0  0  0
   27.9110   -0.4270   15.5720 O   0  5  0  0  0  0
   27.3470   -2.3470   13.9550 O   0  5  0  0  0  0
   25.6430   -1.6660   15.6990 O   0  0  0  0  0  0
   25.1960   -1.0900   16.8920 C   0  0  0  0  0  0
   23.7320   -1.4260   17.1130 C   0  0  1  0  0  0
   22.8350   -0.6710   16.2960 O   0  0  0  0  0  0
   21.7470   -1.4800   15.8720 C   0  0  2  0  0  0
   21.9430   -2.7840   16.6090 C   0  0  2  0  0  0
   21.3360   -2.6780   17.8680 O   0  0  0  0  0  0
   23.4200   -2.8850   16.8410 C   0  0  2  0  0  0
   23.7300   -3.7410   17.9250 O   0  0  0  0  0  0
   21.9050   -1.5970   14.4140 N   0  0  0  0  0  0
   22.4850   -2.5990   13.6790 C   0  0  0  0  0  0
   22.4480   -2.2410   12.3770 N   0  0  0  0  0  0
   21.8750   -1.0180   12.2680 C   0  0  0  0  0  0
   21.6140   -0.1810   11.1850 C   0  0  0  0  0  0
   21.9080   -0.5160    9.9310 N   0  0  0  0  0  0
   21.5390   -0.6050   13.5510 C   0  0  0  0  0  0
   20.9370    0.5800   13.7930 N   0  0  0  0  0  0
   20.6780    1.4120   12.7180 C   0  0  0  0  0  0
   20.9930    1.0270   11.4350 N   0  0  0  0  0  0
   19.9510   -3.3500   18.3660 P   0  0  1  0  0  0
   19.7390   -4.6330   17.6700 O   0  0  0  0  0  0
   19.9260   -3.1500   19.8350 O   0  5  0  0  0  0
   18.8590   -2.3490   17.7350 O   0  0  0  0  0  0
   18.5990   -1.0450   18.2450 C   0  0  0  0  0  0
   17.6010   -0.4060   17.2980 C   0  0  1  0  0  0
   18.2410   -0.1390   16.0200 O   0  0  0  0  0  0
   17.3090   -0.3360   14.9790 C   0  0  1  0  0  0
   17.8920   -1.2990   14.0610 N   0  0  0  0  0  0
   18.3720   -2.5530   14.3310 C   0  0  0  0  0  0
   18.8470   -3.1690   13.2700 N   0  0  0  0  0  0
   18.6570   -2.2590   12.2420 C   0  0  0  0  0  0
   18.0630   -1.1090   12.7130 C   0  0  0  0  0  0
   17.7430   -0.0160   12.0130 N   0  0  0  0  0  0
   18.0610   -0.1650   10.7210 C   0  0  0  0  0  0
   18.6310   -1.2150   10.1240 N   0  0  0  0  0  0
   18.9470   -2.3000   10.8650 C   0  0  0  0  0  0
   19.5200   -3.3530   10.2740 N   0  0  0  0  0  0
   16.0030   -0.7720   15.6210 C   0  0  2  0  0  0
   15.1860    0.3710   15.8020 O   0  0  0  0  0  0
   16.4110   -1.3050   16.9680 C   0  0  2  0  0  0
   15.3720   -1.1410   17.9340 O   0  0  0  0  0  0
   13.8440    0.5350   14.7870 P   0  0  0  0  0  0
   14.2400    0.1040   13.4350 O   0  0  0  0  0  0
   12.8500   -0.6070   15.3240 O   0  0  0  0  0  0
   12.4250   -0.6240   16.6810 C   0  0  0  0  0  0
   11.0120   -1.1560   16.8260 C   0  0  1  0  0  0
   10.0690   -0.2550   16.2010 O   0  0  0  0  0  0
    8.8820   -0.9830   15.9230 C   0  0  1  0  0  0
    8.3080   -0.4140   14.7120 N   0  0  0  0  0  0
    7.2140    0.4010   14.6650 C   0  0  0  0  0  0
    6.9160    0.7930   13.4550 N   0  0  0  0  0  0
    7.8610    0.2000   12.6620 C   0  0  0  0  0  0
    8.7380   -0.5530   13.4140 C   0  0  0  0  0  0
    9.7820   -1.2610   12.9520 N   0  0  0  0  0  0
    9.8900   -1.1470   11.6310 C   0  0  0  0  0  0
    9.1150   -0.4630   10.7860 N   0  0  0  0  0  0
    8.0730    0.2360   11.2720 C   0  0  0  0  0  0
    7.2970    0.9340   10.4340 N   0  0  0  0  0  0
    9.2470   -2.4700   15.8350 C   0  0  2  0  0  0
    8.4670   -3.1980   16.7570 O   0  0  0  0  0  0
   10.7440   -2.4940   16.1460 C   0  0  2  0  0  0
   11.0990   -3.5460   17.0150 O   0  0  0  0  0  0
   25.7883   -1.4810   17.7324 H   0  0  0  0  0  0
   25.3128    0.0024   16.8381 H   0  0  0  0  0  0
   23.5294   -1.1336   18.1539 H   0  0  0  0  0  0
   20.7521   -1.0578   16.0769 H   0  0  0  0  0  0
   21.4948   -3.6545   16.1076 H   0  0  0  0  0  0
   24.0160   -3.3758   16.0575 H   0  0  0  0  0  0
   24.7789   -3.9097   18.2100 H   0  0  0  0  0  0
   22.9033   -3.5238   14.0764 H   0  0  0  0  0  0
   22.4026   -1.4755    9.7196 H   0  0  0  0  0  0
   21.6564    0.1666    9.1059 H   0  0  0  0  0  0
   20.2183    2.3853   12.8898 H   0  0  0  0  0  0
   18.1834   -1.1246   19.2604 H   0  0  0  0  0  0
   19.5362   -0.4700   18.2764 H   0  0  0  0  0  0
   17.2727    0.5254   17.7824 H   0  0  0  0  0  0
   17.1494    0.5822   14.3946 H   0  0  0  0  0  0
   18.3615   -2.9968   15.3265 H   0  0  0  0  0  0
   17.8243    0.6790   10.0732 H   0  0  0  0  0  0
   19.7816   -4.2417   10.8672 H   0  0  0  0  0  0
   19.7300   -3.3310    9.1944 H   0  0  0  0  0  0
   15.4007   -1.4744   15.0261 H   0  0  0  0  0  0
   16.5858   -2.3905   17.0027 H   0  0  0  0  0  0
   15.5234   -1.4838   18.9682 H   0  0  0  0  0  0
   13.0968   -1.2679   17.2676 H   0  0  0  0  0  0
   12.4508    0.3983   17.0862 H   0  0  0  0  0  0
   10.8605   -1.2272   17.9132 H   0  0  0  0  0  0
    8.1279   -0.8365   16.7103 H   0  0  0  0  0  0
    6.6464    0.6950   15.5479 H   0  0  0  0  0  0
   10.7231   -1.6841   11.1776 H   0  0  0  0  0  0
    6.4434    1.5078   10.8239 H   0  0  0  0  0  0
    7.5129    0.9338    9.3554 H   0  0  0  0  0  0
    8.9975   -2.9909   14.8988 H   0  0  0  0  0  0
    7.3753   -3.2507   16.6330 H   0  0  0  0  0  0
   11.3655   -2.7145   15.2656 H   0  0  0  0  0  0
   12.1477   -3.6774   17.3199 H   0  0  0  0  0  0
  1  2  2  0  0  0
  2  3  1  0  0  0
  2  4  1  0  0  0
  2  5  1  0  0  0
  5  6  1  0  0  0
  6  7  1  0  0  0
  6 67  1  0  0  0
  6 68  1  0  0  0
  7  8  1  0  0  0
  7 12  1  0  0  0
  7 69  1  0  0  0
  8  9  1  0  0  0
  9 10  1  0  0  0
  9 14  1  0  0  0
  9 70  1  0  0  0
 10 11  1  0  0  0
 10 12  1  0  0  0
 10 71  1  0  0  0
 11 24  1  0  0  0
 12 13  1  0  0  0
 12 72  1  0  0  0
 13 73  1  0  0  0
 14 15  1  0  0  0
 14 20  1  0  0  0
 15 16  2  0  0  0
 15 74  1  0  0  0
 16 17  1  0  0  0
 17 18  2  0  0  0
 17 20  1  0  0  0
 18 19  1  0  0  0
 18 23  1  0  0  0
 19 75  1  0  0  0
 19 76  1  0  0  0
 20 21  2  0  0  0
 21 22  1  0  0  0
 22 23  2  0  0  0
 22 77  1  0  0  0
 24 25  2  0  0  0
 24 26  1  0  0  0
 24 27  1  0  0  0
 27 28  1  0  0  0
 28 29  1  0  0  0
 28 78  1  0  0  0
 28 79  1  0  0  0
 29 30  1  0  0  0
 29 44  1  0  0  0
 29 80  1  0  0  0
 30 31  1  0  0  0
 31 32  1  0  0  0
 31 42  1  0  0  0
 31 81  1  0  0  0
 32 33  1  0  0  0
 32 36  1  0  0  0
 33 34  2  0  0  0
 33 82  1  0  0  0
 34 35  1  0  0  0
 35 36  2  0  0  0
 35 40  1  0  0  0
 36 37  1  0  0  0
 37 38  2  0  0  0
 38 39  1  0  0  0
 38 83  1  0  0  0
 39 40  2  0  0  0
 40 41  1  0  0  0
 41 84  1  0  0  0
 41 85  1  0  0  0
 42 43  1  0  0  0
 42 44  1  0  0  0
 42 86  1  0  0  0
 43 46  1  0  0  0
 44 45  1  0  0  0
 44 87  1  0  0  0
 45 88  1  0  0  0
 46 47  2  0  0  0
 46 48  1  0  0  0
 48 49  1  0  0  0
 49 50  1  0  0  0
 49 89  1  0  0  0
 49 90  1  0  0  0
 50 51  1  0  0  0
 50 65  1  0  0  0
 50 91  1  0  0  0
 51 52  1  0  0  0
 52 53  1  0  0  0
 52 63  1  0  0  0
 52 92  1  0  0  0
 53 54  1  0  0  0
 53 57  1  0  0  0
 54 55  2  0  0  0
 54 93  1  0  0  0
 55 56  1  0  0  0
 56 57  2  0  0  0
 56 61  1  0  0  0
 57 58  1  0  0  0
 58 59  2  0  0  0
 59 60  1  0  0  0
 59 94  1  0  0  0
 60 61  2  0  0  0
 61 62  1  0  0  0
 62 95  1  0  0  0
 62 96  1  0  0  0
 63 64  1  0  0  0
 63 65  1  0  0  0
 63 97  1  0  0  0
 64 98  1  0  0  0
 65 66  1  0  0  0
 65 99  1  0  0  0
 66100  1  0  0  0
M  CHG  3   3  -1   4  -1  26  -1
M  END
> <s_m_source_file>
../1wdy_ligand.sdf

> <i_m_source_file_index>
1

> <s_epik_input>
W05IMl1jMW5bY0hdbmMoYzEyKW4oW2NIXW4yKVtDQEhdKE9bQ0BASF0zW0NIMl1PUCg9TykoW09IXSlbT0hdKVtDQEBIXShbQ0BASF0zW09IXSlPW1BAQF0oPU8pKFtPSF0pT1tDSDJdW0NASF00T1tDQEBIXShuKFtjSF1uNSljKGM1NiluW2NIXW5jNltOSDJdKVtDQEBIXShbQ0BASF00W09IXSlPW1BIXSg9TylPW0NIMl1bQ0BIXTdPW0NASF0oW0NASF0oW09IXSlbQ0BASF03W09IXSluKFtjSF1uOCljKGM4OSluW2NIXW5jOVtOSDJd

> <s_epik_cmdline>
J2VwaWtfYXBwJywgJy1pbWFlJywgJ2xpZ2FuZF9wcm8ubWFlJywgJy1vbWFlJywgJ2xpZ2FuZF9wcmVwLm1hZScsICctbXMnLCAnMScsICctcGgnLCAnNycsICctcGh0JywgJzAuNScsICctbnQn

> <r_lp_tautomer_probability>
0.999991649267889

> <r_epik_Ionization_Penalty>
  0.1005

> <r_epik_Ionization_Penalty_Charging>
  0.0988

> <r_epik_Ionization_Penalty_Neutral>
  0.0017

> <r_epik_State_Penalty>
  0.0887

> <r_epik_Charging_Adjusted_Penalty>
0.187414722361368

> <i_epik_Tot_Q>
-3

> <i_epik_Tot_abs_Q>
3

> <s_epik_Chemistry_Notes>
This compound contains an acetal/aminal-like group ( X-CH(R)-Y where X, Y are N, S, or O) that may be acid/base labile, releasing an aldehyde.

$$$$
