1we2_ligand
                    3D
 Schrodinger Suite 2020-3.
 21 21  0  0  1  0            999 V2000
   26.4290   33.2040   30.5960 C   0  0  0  0  0  0
   26.8270   34.4880   29.8570 C   0  0  1  0  0  0
   26.4230   34.3770   28.4570 O   0  0  0  0  0  0
   26.1820   35.7480   30.3530 C   0  0  1  0  0  0
   26.2460   36.6930   29.2460 O   0  0  0  0  0  0
   24.7490   35.4660   30.6760 C   0  0  1  0  0  0
   25.4110   33.2580   31.5350 C   0  0  0  0  0  0
   24.7510   34.4860   31.8360 C   0  0  0  0  0  0
   24.9920   32.0690   32.2090 C   0  0  0  0  0  0
   25.8670   31.1210   32.4560 O   0  5  0  0  0  0
   23.7350   32.0920   32.5010 O   0  0  0  0  0  0
   24.0790   36.7190   31.1310 O   0  0  0  0  0  0
   26.9378   32.2506   30.3906 H   0  0  0  0  0  0
   27.9153   34.5895   29.9811 H   0  0  0  0  0  0
   26.7668   33.5257   27.8512 H   0  0  0  0  0  0
   26.6838   36.1618   31.2401 H   0  0  0  0  0  0
   27.2219   37.0250   28.8620 H   0  0  0  0  0  0
   24.2233   35.0846   29.7882 H   0  0  0  0  0  0
   25.2667   34.9374   32.6964 H   0  0  0  0  0  0
   23.7144   34.2456   32.1147 H   0  0  0  0  0  0
   23.9700   37.5669   30.4388 H   0  0  0  0  0  0
  1  2  1  0  0  0
  1  7  2  0  0  0
  1 13  1  0  0  0
  2  3  1  0  0  0
  2  4  1  0  0  0
  2 14  1  0  0  0
  3 15  1  0  0  0
  4  5  1  0  0  0
  4  6  1  0  0  0
  4 16  1  0  0  0
  5 17  1  0  0  0
  6  8  1  0  0  0
  6 12  1  0  0  0
  6 18  1  0  0  0
  7  8  1  0  0  0
  7  9  1  0  0  0
  8 19  1  0  0  0
  8 20  1  0  0  0
  9 10  1  0  0  0
  9 11  2  0  0  0
 12 21  1  0  0  0
M  CHG  1  10  -1
M  END
> <s_m_source_file>
../1we2_ligand.sdf

> <i_m_source_file_index>
1

> <s_epik_input>
W09IXVtDQEBIXTFbQ0hdPUMoQyg9TylbT0hdKVtDSDJdW0NAQEhdKFtPSF0pW0NAQEhdMVtPSF0=

> <s_epik_cmdline>
J2VwaWtfYXBwJywgJy1pbWFlJywgJ2xpZ2FuZF9wcm8ubWFlJywgJy1vbWFlJywgJ2xpZ2FuZF9wcmVwLm1hZScsICctbXMnLCAnMScsICctcGgnLCAnNycsICctcGh0JywgJzAuNScsICctbnQn

> <r_lp_tautomer_probability>
1

> <r_epik_Ionization_Penalty>
  0.0015

> <r_epik_Ionization_Penalty_Charging>
  0.0015

> <r_epik_Ionization_Penalty_Neutral>
  0.0000

> <r_epik_State_Penalty>
 -0.0000

> <r_epik_Charging_Adjusted_Penalty>
0.00145913088719701

> <i_epik_Tot_Q>
-1

> <i_epik_Tot_abs_Q>
1

$$$$
