1wqv_ligand
                    3D
 Schrodinger Suite 2020-3.
 66 66  0  0  1  0            999 V2000
   35.7210    6.8580   10.2520 C   0  0  0  0  0  0
   34.8600    7.1780   11.0710 O   0  0  0  0  0  0
   35.6850    7.1580    8.9410 N   0  0  0  0  0  0
   34.6010    7.9960    8.5170 C   0  0  1  0  0  0
   34.8210    8.5880    7.1290 C   0  0  0  0  0  0
   36.1320    9.4050    7.0500 C   0  0  0  0  0  0
   33.2660    7.2910    8.7430 C   0  0  0  0  0  0
   33.1530    6.0740    8.5970 O   0  0  0  0  0  0
   32.2980    8.1570    9.1280 N   0  0  0  0  0  0
   31.0040    7.6190    9.4260 C   0  0  0  0  0  0
   31.5870    6.4110   11.5780 C   0  0  0  0  0  0
   31.3830    6.1550   12.9350 C   0  0  0  0  0  0
   30.3810    6.8510   13.6590 C   0  0  0  0  0  0
   29.5340    7.7550   12.9600 C   0  0  0  0  0  0
   29.7170    7.9760   11.5790 C   0  0  0  0  0  0
   30.7600    7.3300   10.8880 C   0  0  0  0  0  0
   30.2370    6.6420   15.1310 C   0  0  0  0  0  0
   30.8140    5.6160   15.7290 N   0  3  0  0  0  0
   36.4010   10.5630    8.4490 S   0  0  0  0  0  0
   38.0640    6.9970   11.2430 C   0  0  2  0  0  0
   39.1720    6.2450   11.7560 O   0  0  0  0  0  0
   36.6300    5.0550   11.6950 N   0  0  3  0  0  0
   36.9700    6.0480   10.6700 C   0  0  1  0  0  0
   38.4400    8.2660   10.4070 C   0  0  0  0  0  0
   36.3490    3.4150   11.2040 S   0  0  0  0  0  0
   36.2250    2.6990   12.4130 O   0  0  0  0  0  0
   37.4440    3.1100   10.3350 O   0  0  0  0  0  0
   34.8370    3.3420   10.3280 C   0  0  0  0  0  0
   33.7030    3.3120   11.3070 C   0  0  0  0  0  0
   29.5190    7.4510   15.9080 N   0  0  0  0  0  0
   34.9610   11.6560    8.2330 C   0  0  0  0  0  0
   32.3880    3.1950   10.5600 C   0  0  0  0  0  0
   36.4237    6.8014    8.2081 H   0  0  0  0  0  0
   34.6293    8.8647    9.1912 H   0  0  0  0  0  0
   34.8765    7.7762    6.3888 H   0  0  0  0  0  0
   33.9838    9.2561    6.8784 H   0  0  0  0  0  0
   36.9915    8.7186    7.0361 H   0  0  0  0  0  0
   36.1318   10.0108    6.1319 H   0  0  0  0  0  0
   32.4773    9.2388    9.2154 H   0  0  0  0  0  0
   30.2287    8.3325    9.1101 H   0  0  0  0  0  0
   30.8691    6.6690    8.8881 H   0  0  0  0  0  0
   32.3890    5.8996   11.0456 H   0  0  0  0  0  0
   31.9994    5.4134   13.4431 H   0  0  0  0  0  0
   28.7408    8.2788   13.4934 H   0  0  0  0  0  0
   29.0479    8.6500   11.0442 H   0  0  0  0  0  0
   31.4214    4.9092   15.1446 H   0  0  0  0  0  0
   37.6625    7.4418   12.1655 H   0  0  0  0  0  0
   38.9923    5.3393   12.3538 H   0  0  0  0  0  0
   36.7175    5.3126   12.7608 H   0  0  0  0  0  0
   37.3351    5.4830    9.7997 H   0  0  0  0  0  0
   39.2202    8.8345   10.9343 H   0  0  0  0  0  0
   37.5489    8.8981   10.2791 H   0  0  0  0  0  0
   38.8151    7.9570    9.4202 H   0  0  0  0  0  0
   34.7444    4.2275    9.6820 H   0  0  0  0  0  0
   34.8153    2.4329    9.7092 H   0  0  0  0  0  0
   33.8203    2.4480   11.9776 H   0  0  0  0  0  0
   33.7054    4.2389   11.8994 H   0  0  0  0  0  0
   29.0121    8.3247   15.4726 H   0  0  0  0  0  0
   29.4329    7.2454   16.9852 H   0  0  0  0  0  0
   34.9688   12.4313    9.0133 H   0  0  0  0  0  0
   34.0368   11.0648    8.3127 H   0  0  0  0  0  0
   35.0075   12.1322    7.2425 H   0  0  0  0  0  0
   31.5575    3.1732   11.2809 H   0  0  0  0  0  0
   32.3839    2.2680    9.9678 H   0  0  0  0  0  0
   32.2690    4.0589    9.8896 H   0  0  0  0  0  0
   30.6873    5.4680   16.8116 H   0  0  0  0  0  0
  1  2  2  0  0  0
  1  3  1  0  0  0
  1 23  1  0  0  0
  3  4  1  0  0  0
  3 33  1  0  0  0
  4  5  1  0  0  0
  4  7  1  0  0  0
  4 34  1  0  0  0
  5  6  1  0  0  0
  5 35  1  0  0  0
  5 36  1  0  0  0
  6 19  1  0  0  0
  6 37  1  0  0  0
  6 38  1  0  0  0
  7  8  2  0  0  0
  7  9  1  0  0  0
  9 10  1  0  0  0
  9 39  1  0  0  0
 10 16  1  0  0  0
 10 40  1  0  0  0
 10 41  1  0  0  0
 11 12  2  0  0  0
 11 16  1  0  0  0
 11 42  1  0  0  0
 12 13  1  0  0  0
 12 43  1  0  0  0
 13 14  2  0  0  0
 13 17  1  0  0  0
 14 15  1  0  0  0
 14 44  1  0  0  0
 15 16  2  0  0  0
 15 45  1  0  0  0
 17 18  2  0  0  0
 17 30  1  0  0  0
 18 46  1  0  0  0
 18 66  1  0  0  0
 19 31  1  0  0  0
 20 21  1  0  0  0
 20 23  1  0  0  0
 20 24  1  0  0  0
 20 47  1  0  0  0
 21 48  1  0  0  0
 22 23  1  0  0  0
 22 25  1  0  0  0
 22 49  1  0  0  0
 23 50  1  0  0  0
 24 51  1  0  0  0
 24 52  1  0  0  0
 24 53  1  0  0  0
 25 26  2  0  0  0
 25 27  2  0  0  0
 25 28  1  0  0  0
 28 29  1  0  0  0
 28 54  1  0  0  0
 28 55  1  0  0  0
 29 32  1  0  0  0
 29 56  1  0  0  0
 29 57  1  0  0  0
 30 58  1  0  0  0
 30 59  1  0  0  0
 31 60  1  0  0  0
 31 61  1  0  0  0
 31 62  1  0  0  0
 32 63  1  0  0  0
 32 64  1  0  0  0
 32 65  1  0  0  0
M  CHG  1  18   1
M  END
> <s_m_source_file>
../1wqv_ligand.sdf

> <i_m_source_file_index>
1

> <s_epik_input>
W0NIM11bQ0gyXVtDSDJdUyg9TykoPU8pW05IXVtDQEhdKFtDQEBIXShbT0hdKVtDSDNdKUMoPU8pW05IXVtDQEBIXShbQ0gyXVtDSDJdU1tDSDNdKUMoPU8pW05IXVtDSDJdYyhbY0hdW2NIXTEpW2NIXVtjSF1jMS9DKD1OXFtIXSlbTkgyXQ==

> <s_epik_cmdline>
J2VwaWtfYXBwJywgJy1pbWFlJywgJ2xpZ2FuZF9wcm8ubWFlJywgJy1vbWFlJywgJ2xpZ2FuZF9wcmVwLm1hZScsICctbXMnLCAnMScsICctcGgnLCAnNycsICctcGh0JywgJzAuNScsICctbnQn

> <r_lp_tautomer_probability>
1

> <r_epik_Ionization_Penalty>
  0.0002

> <r_epik_Ionization_Penalty_Charging>
  0.0002

> <r_epik_Ionization_Penalty_Neutral>
  0.0000

> <r_epik_State_Penalty>
 -0.0000

> <r_epik_Charging_Adjusted_Penalty>
0.000162947685306239

> <i_epik_Tot_Q>
1

> <i_epik_Tot_abs_Q>
1

> <s_epik_Chemistry_Notes>
This compound has an imine and may undergo hydrolysis.

$$$$
