1ws4_ligand
                    3D
 Schrodinger Suite 2020-3.
 27 27  0  0  1  0            999 V2000
   51.0840   54.1280   66.3810 C   0  0  1  0  0  0
   51.6640   55.4150   65.7840 C   0  0  1  0  0  0
   51.6710   56.5720   66.7820 C   0  0  2  0  0  0
   50.2330   56.8080   67.2470 C   0  0  1  0  0  0
   49.7010   55.5160   67.9130 C   0  0  1  0  0  0
   48.2610   55.6660   68.4270 C   0  0  0  0  0  0
   51.4270   52.3010   67.9180 C   0  0  0  0  0  0
   51.9540   53.5340   67.3700 O   0  0  0  0  0  0
   52.9930   55.1490   65.3030 O   0  0  0  0  0  0
   52.2070   57.7500   66.1450 O   0  0  0  0  0  0
   50.2100   57.8880   68.1810 O   0  0  0  0  0  0
   49.7480   54.4140   66.9400 O   0  0  0  0  0  0
   47.3570   55.9400   67.3600 O   0  0  0  0  0  0
   50.9924   53.3417   65.6172 H   0  0  0  0  0  0
   51.0714   55.7254   64.9108 H   0  0  0  0  0  0
   52.3359   56.3840   67.6379 H   0  0  0  0  0  0
   49.5881   57.1352   66.4181 H   0  0  0  0  0  0
   50.3511   55.2593   68.7624 H   0  0  0  0  0  0
   47.9486   54.7335   68.9199 H   0  0  0  0  0  0
   48.2135   56.4955   69.1479 H   0  0  0  0  0  0
   52.1314   51.8996   68.6615 H   0  0  0  0  0  0
   51.2913   51.5686   67.1086 H   0  0  0  0  0  0
   50.4582   52.4986   68.4000 H   0  0  0  0  0  0
   53.1631   54.3427   64.5744 H   0  0  0  0  0  0
   53.2348   57.7439   65.7531 H   0  0  0  0  0  0
   50.5555   58.8867   67.8756 H   0  0  0  0  0  0
   46.2852   56.0742   67.5680 H   0  0  0  0  0  0
  1  2  1  0  0  0
  1  8  1  0  0  0
  1 12  1  0  0  0
  1 14  1  0  0  0
  2  3  1  0  0  0
  2  9  1  0  0  0
  2 15  1  0  0  0
  3  4  1  0  0  0
  3 10  1  0  0  0
  3 16  1  0  0  0
  4  5  1  0  0  0
  4 11  1  0  0  0
  4 17  1  0  0  0
  5  6  1  0  0  0
  5 12  1  0  0  0
  5 18  1  0  0  0
  6 13  1  0  0  0
  6 19  1  0  0  0
  6 20  1  0  0  0
  7  8  1  0  0  0
  7 21  1  0  0  0
  7 22  1  0  0  0
  7 23  1  0  0  0
  9 24  1  0  0  0
 10 25  1  0  0  0
 11 26  1  0  0  0
 13 27  1  0  0  0
M  END
> <s_m_source_file>
../1ws4_ligand.sdf

> <i_m_source_file_index>
1

> <s_epik_input>
W0NIM11PW0NAQEhdMVtDQEhdKFtPSF0pW0NAQEhdKFtPSF0pW0NASF0oW09IXSlbQ0BIXShPMSlbQ0gyXVtPSF0=

> <s_epik_cmdline>
J2VwaWtfYXBwJywgJy1pbWFlJywgJ2xpZ2FuZF9wcm8ubWFlJywgJy1vbWFlJywgJ2xpZ2FuZF9wcmVwLm1hZScsICctbXMnLCAnMScsICctcGgnLCAnNycsICctcGh0JywgJzAuNScsICctbnQn

> <r_lp_tautomer_probability>
1

> <r_epik_Ionization_Penalty>
  0.0000

> <r_epik_Ionization_Penalty_Charging>
  0.0000

> <r_epik_Ionization_Penalty_Neutral>
  0.0000

> <r_epik_State_Penalty>
 -0.0000

> <r_epik_Charging_Adjusted_Penalty>
0

> <i_epik_Tot_Q>
0

> <i_epik_Tot_abs_Q>
0

> <s_epik_Chemistry_Notes>
This compound contains an acetal/aminal-like group ( X-CH(R)-Y where X, Y are N, S, or O) that may be acid/base labile, releasing an aldehyde.

$$$$
