1ws5_ligand
                    3D
 Schrodinger Suite 2020-3.
 27 27  0  0  1  0            999 V2000
   51.3820   54.2590   66.5040 C   0  0  1  0  0  0
   51.9890   55.6140   66.0330 C   0  0  2  0  0  0
   51.8740   56.6800   67.1330 C   0  0  2  0  0  0
   50.3980   56.8450   67.5380 C   0  0  1  0  0  0
   49.8640   55.4890   68.0340 C   0  0  1  0  0  0
   48.3930   55.5780   68.4330 C   0  0  0  0  0  0
   52.5500   52.3250   67.9740 C   0  0  0  0  0  0
   52.2880   53.6050   67.3030 O   0  0  0  0  0  0
   51.3600   56.0890   64.8480 O   0  0  0  0  0  0
   52.4190   57.9070   66.6670 O   0  0  0  0  0  0
   50.2800   57.8230   68.5520 O   0  0  0  0  0  0
   49.9950   54.5000   66.9670 O   0  0  0  0  0  0
   47.5410   55.8960   67.3390 O   0  0  0  0  0  0
   51.2699   53.4210   65.8003 H   0  0  0  0  0  0
   53.0375   55.4696   65.7334 H   0  0  0  0  0  0
   52.4905   56.4337   68.0101 H   0  0  0  0  0  0
   49.7862   57.2482   66.7175 H   0  0  0  0  0  0
   50.4601   55.1518   68.8948 H   0  0  0  0  0  0
   48.0652   54.6113   68.8430 H   0  0  0  0  0  0
   48.2665   56.3613   69.1949 H   0  0  0  0  0  0
   53.5059   52.3836   68.5151 H   0  0  0  0  0  0
   52.6017   51.5218   67.2242 H   0  0  0  0  0  0
   51.7386   52.1110   68.6852 H   0  0  0  0  0  0
   51.3405   55.4601   63.9457 H   0  0  0  0  0  0
   53.4679   57.9535   66.3389 H   0  0  0  0  0  0
   50.6164   58.8533   68.3642 H   0  0  0  0  0  0
   46.4562   55.9893   67.4957 H   0  0  0  0  0  0
  1  2  1  0  0  0
  1  8  1  0  0  0
  1 12  1  0  0  0
  1 14  1  0  0  0
  2  3  1  0  0  0
  2  9  1  0  0  0
  2 15  1  0  0  0
  3  4  1  0  0  0
  3 10  1  0  0  0
  3 16  1  0  0  0
  4  5  1  0  0  0
  4 11  1  0  0  0
  4 17  1  0  0  0
  5  6  1  0  0  0
  5 12  1  0  0  0
  5 18  1  0  0  0
  6 13  1  0  0  0
  6 19  1  0  0  0
  6 20  1  0  0  0
  7  8  1  0  0  0
  7 21  1  0  0  0
  7 22  1  0  0  0
  7 23  1  0  0  0
  9 24  1  0  0  0
 10 25  1  0  0  0
 11 26  1  0  0  0
 13 27  1  0  0  0
M  END
> <s_m_source_file>
../1ws5_ligand.sdf

> <i_m_source_file_index>
1

> <s_epik_input>
W0NIM11PW0NAQEhdMVtDQEBIXShbT0hdKVtDQEBIXShbT0hdKVtDQEhdKFtPSF0pW0NASF0oTzEpW0NIMl1bT0hd

> <s_epik_cmdline>
J2VwaWtfYXBwJywgJy1pbWFlJywgJ2xpZ2FuZF9wcm8ubWFlJywgJy1vbWFlJywgJ2xpZ2FuZF9wcmVwLm1hZScsICctbXMnLCAnMScsICctcGgnLCAnNycsICctcGh0JywgJzAuNScsICctbnQn

> <r_lp_tautomer_probability>
1

> <r_epik_Ionization_Penalty>
  0.0000

> <r_epik_Ionization_Penalty_Charging>
  0.0000

> <r_epik_Ionization_Penalty_Neutral>
  0.0000

> <r_epik_State_Penalty>
 -0.0000

> <r_epik_Charging_Adjusted_Penalty>
0

> <i_epik_Tot_Q>
0

> <i_epik_Tot_abs_Q>
0

> <s_epik_Chemistry_Notes>
This compound contains an acetal/aminal-like group ( X-CH(R)-Y where X, Y are N, S, or O) that may be acid/base labile, releasing an aldehyde.

$$$$
