1wss_ligand
                    3D
 Schrodinger Suite 2020-3.
 79 80  0  0  1  0            999 V2000
   35.6350    6.9440    9.8530 C   0  0  0  0  0  0
   34.8950    7.3560   10.7500 O   0  0  0  0  0  0
   35.4600    7.2150    8.5260 N   0  0  0  0  0  0
   34.3770    8.1620    8.2570 C   0  0  1  0  0  0
   34.3420    8.7070    6.8330 C   0  0  0  0  0  0
   35.7170    9.1260    6.3340 C   0  0  0  0  0  0
   33.0670    7.4660    8.6220 C   0  0  0  0  0  0
   32.9150    6.2610    8.4110 O   0  0  0  0  0  0
   32.1530    8.2830    9.1740 N   0  0  0  0  0  0
   30.7850    7.8120    9.3680 C   0  0  0  0  0  0
   31.2230    6.5300   11.4540 C   0  0  0  0  0  0
   31.0710    6.3040   12.8190 C   0  0  0  0  0  0
   30.1680    7.0620   13.5950 C   0  0  0  0  0  0
   29.3760    8.0410   12.9440 C   0  0  0  0  0  0
   29.5480    8.2900   11.5610 C   0  0  0  0  0  0
   30.4880    7.5400   10.8150 C   0  0  0  0  0  0
   30.0880    6.8150   15.0720 C   0  0  0  0  0  0
   30.7370    5.7890   15.6480 N   0  0  0  0  0  0
   35.7020    9.6530    4.9350 C   0  0  0  0  0  0
   35.5980    8.8570    3.8740 N   0  3  0  0  0  0
   35.8490   10.9690    4.7870 N   0  0  0  0  0  0
   37.9540    7.0460   10.7650 C   0  0  2  0  0  0
   39.1810    6.3040   11.2910 C   0  0  0  0  0  0
   36.5420    5.0920   11.2670 N   0  0  3  0  0  0
   36.8590    6.0720   10.2120 C   0  0  1  0  0  0
   38.3460    8.1880    9.7960 C   0  0  0  0  0  0
   35.6830    3.6380   10.8750 S   0  0  0  0  0  0
   35.8400    2.8040   12.0080 O   0  0  0  0  0  0
   36.2380    3.2460    9.6320 O   0  0  0  0  0  0
   33.9860    4.0530   10.6240 C   0  0  0  0  0  0
   39.8250    5.4620   10.1910 C   0  0  0  0  0  0
   33.1190    2.9000   10.2910 C   0  0  0  0  0  0
   33.1420    2.3650    8.9960 C   0  0  0  0  0  0
   32.3720    1.2360    8.6800 C   0  0  0  0  0  0
   31.5960    0.6220    9.6860 C   0  0  0  0  0  0
   31.5630    1.1520   10.9870 C   0  0  0  0  0  0
   32.3150    2.3060   11.2810 C   0  0  0  0  0  0
   29.3430    7.5940   15.8580 N   0  3  0  0  0  0
   32.3730    0.7070    7.3180 C   0  0  0  0  0  0
   31.7120   -0.3020    7.0750 O   0  5  0  0  0  0
   33.0290    1.2970    6.4610 O   0  0  0  0  0  0
   36.0430    6.7951    7.6931 H   0  0  0  0  0  0
   34.5862    9.0386    8.8877 H   0  0  0  0  0  0
   33.9573    7.9324    6.1533 H   0  0  0  0  0  0
   33.6851    9.5884    6.7938 H   0  0  0  0  0  0
   36.1165    9.9193    6.9829 H   0  0  0  0  0  0
   36.3943    8.2595    6.3547 H   0  0  0  0  0  0
   32.4322    9.3023    9.4790 H   0  0  0  0  0  0
   30.0798    8.5759    9.0087 H   0  0  0  0  0  0
   30.6346    6.8798    8.8037 H   0  0  0  0  0  0
   31.9174    5.9185   10.8778 H   0  0  0  0  0  0
   31.6624    5.5244   13.2993 H   0  0  0  0  0  0
   28.6329    8.6033   13.5095 H   0  0  0  0  0  0
   28.9549    9.0613   11.0696 H   0  0  0  0  0  0
   31.3625    5.1214   15.0372 H   0  0  0  0  0  0
   30.6428    5.6167   16.7303 H   0  0  0  0  0  0
   35.4770    7.7722    4.0100 H   0  0  0  0  0  0
   35.9338   11.6160    5.6726 H   0  0  0  0  0  0
   35.8855   11.4085    3.7793 H   0  0  0  0  0  0
   37.4978    7.5458   11.6322 H   0  0  0  0  0  0
   39.9205    7.0315   11.6568 H   0  0  0  0  0  0
   38.8822    5.6391   12.1148 H   0  0  0  0  0  0
   36.9877    5.1971   12.2672 H   0  0  0  0  0  0
   37.1687    5.4706    9.3446 H   0  0  0  0  0  0
   39.1159    8.8185   10.2647 H   0  0  0  0  0  0
   37.4591    8.7985    9.5710 H   0  0  0  0  0  0
   38.7415    7.7583    8.8638 H   0  0  0  0  0  0
   33.5800    4.5064   11.5403 H   0  0  0  0  0  0
   33.9026    4.7686    9.7928 H   0  0  0  0  0  0
   40.7042    4.9397   10.5963 H   0  0  0  0  0  0
   40.1364    6.1162    9.3634 H   0  0  0  0  0  0
   39.0981    4.7238    9.8213 H   0  0  0  0  0  0
   33.7623    2.8292    8.2293 H   0  0  0  0  0  0
   31.0170   -0.2713    9.4518 H   0  0  0  0  0  0
   30.9615    0.6749   11.7608 H   0  0  0  0  0  0
   32.2739    2.7407   12.2797 H   0  0  0  0  0  0
   28.7947    8.4452   15.4281 H   0  0  0  0  0  0
   35.6330    9.2837    2.8607 H   0  0  0  0  0  0
   29.2770    7.3851   16.9360 H   0  0  0  0  0  0
  1  2  2  0  0  0
  1  3  1  0  0  0
  1 25  1  0  0  0
  3  4  1  0  0  0
  3 42  1  0  0  0
  4  5  1  0  0  0
  4  7  1  0  0  0
  4 43  1  0  0  0
  5  6  1  0  0  0
  5 44  1  0  0  0
  5 45  1  0  0  0
  6 19  1  0  0  0
  6 46  1  0  0  0
  6 47  1  0  0  0
  7  8  2  0  0  0
  7  9  1  0  0  0
  9 10  1  0  0  0
  9 48  1  0  0  0
 10 16  1  0  0  0
 10 49  1  0  0  0
 10 50  1  0  0  0
 11 12  2  0  0  0
 11 16  1  0  0  0
 11 51  1  0  0  0
 12 13  1  0  0  0
 12 52  1  0  0  0
 13 14  2  0  0  0
 13 17  1  0  0  0
 14 15  1  0  0  0
 14 53  1  0  0  0
 15 16  2  0  0  0
 15 54  1  0  0  0
 17 18  1  0  0  0
 17 38  2  0  0  0
 18 55  1  0  0  0
 18 56  1  0  0  0
 19 20  2  0  0  0
 19 21  1  0  0  0
 20 57  1  0  0  0
 20 78  1  0  0  0
 21 58  1  0  0  0
 21 59  1  0  0  0
 22 23  1  0  0  0
 22 25  1  0  0  0
 22 26  1  0  0  0
 22 60  1  0  0  0
 23 31  1  0  0  0
 23 61  1  0  0  0
 23 62  1  0  0  0
 24 25  1  0  0  0
 24 27  1  0  0  0
 24 63  1  0  0  0
 25 64  1  0  0  0
 26 65  1  0  0  0
 26 66  1  0  0  0
 26 67  1  0  0  0
 27 28  2  0  0  0
 27 29  2  0  0  0
 27 30  1  0  0  0
 30 32  1  0  0  0
 30 68  1  0  0  0
 30 69  1  0  0  0
 31 70  1  0  0  0
 31 71  1  0  0  0
 31 72  1  0  0  0
 32 33  2  0  0  0
 32 37  1  0  0  0
 33 34  1  0  0  0
 33 73  1  0  0  0
 34 35  2  0  0  0
 34 39  1  0  0  0
 35 36  1  0  0  0
 35 74  1  0  0  0
 36 37  2  0  0  0
 36 75  1  0  0  0
 37 76  1  0  0  0
 38 77  1  0  0  0
 38 79  1  0  0  0
 39 40  1  0  0  0
 39 41  2  0  0  0
M  CHG  3  20   1  38   1  40  -1
M  END
> <s_m_source_file>
../1wss_ligand.sdf

> <i_m_source_file_index>
1

> <s_epik_input>
W2NIXTFbY0hdW2NIXWMoQyg9TylbT0hdKVtjSF1jMVtDSDJdUyg9TykoPU8pW05IXVtDQEhdKFtDQEhdKFtDSDNdKVtDSDJdW0NIM10pQyg9TylbTkhdW0NAQEhdKFtDSDJdW0NIMl0vQyg9Ti9bSF0pW05IMl0pQyg9TylbTkhdW0NIMl1jKFtjSF1bY0hdMilbY0hdW2NIXWMyL0MoW05IMl0pPU5cW0hd

> <s_epik_cmdline>
J2VwaWtfYXBwJywgJy1pbWFlJywgJ2xpZ2FuZF9wcm8ubWFlJywgJy1vbWFlJywgJ2xpZ2FuZF9wcmVwLm1hZScsICctbXMnLCAnMScsICctcGgnLCAnNycsICctcGh0JywgJzAuNScsICctbnQn

> <r_lp_tautomer_probability>
1

> <r_epik_Ionization_Penalty>
  0.0009

> <r_epik_Ionization_Penalty_Charging>
  0.0008

> <r_epik_Ionization_Penalty_Neutral>
  0.0001

> <r_epik_State_Penalty>
 -0.0000

> <r_epik_Charging_Adjusted_Penalty>
0.000807028077453211

> <i_epik_Tot_Q>
1

> <i_epik_Tot_abs_Q>
3

> <s_epik_Chemistry_Notes>
This compound has an imine and may undergo hydrolysis.

$$$$
