1wu1_ligand
                    3D
 Schrodinger Suite 2020-3.
 51 55  0  0  1  0            999 V2000
    4.2870    6.3310   22.7660 C   0  0  0  0  0  0
    5.4740    6.7940   23.6290 C   0  0  0  0  0  0
    5.0490    5.8160   21.6370 N   0  0  0  0  0  0
    5.6100    6.7900   20.7140 C   0  0  0  0  0  0
    6.7370    7.4030   21.5510 C   0  0  0  0  0  0
    6.2340    7.8050   22.8650 N   0  0  0  0  0  0
    6.8090    9.2130   23.7050 S   0  0  0  0  0  0
    7.1860   10.2270   22.7540 O   0  0  0  0  0  0
    5.8700    9.4610   24.7800 O   0  0  0  0  0  0
    8.2440    8.6070   24.5580 C   0  0  0  0  0  0
    9.5430    8.9630   23.9620 C   0  0  0  0  0  0
   10.4300    8.3590   25.0230 C   0  0  0  0  0  0
   11.7470    8.2340   25.2050 C   0  0  0  0  0  0
   12.2040    7.5620   26.3340 C   0  0  0  0  0  0
   13.9270    7.4680   26.4230 Cl  0  0  0  0  0  0
    9.5710    7.7540   25.9980 C   0  0  0  0  0  0
    8.3100    7.9340   25.6910 N   0  0  0  0  0  0
   10.0170    7.1340   27.1320 C   0  0  0  0  0  0
   11.3760    7.0110   27.3310 C   0  0  0  0  0  0
    5.3100    4.4360   21.6090 C   0  0  0  0  0  0
    4.8860    3.7950   22.5670 O   0  0  0  0  0  0
    6.1090    3.7070   20.6210 C   0  0  0  0  0  0
    7.3930    4.0880   20.4430 N   0  0  0  0  0  0
    8.1550    3.3920   19.5980 C   0  0  0  0  0  0
    7.6620    2.3130   18.8900 C   0  0  0  0  0  0
    6.3410    1.9550   19.1430 C   0  0  0  0  0  0
    5.5600    2.6370   19.9980 N   0  0  0  0  0  0
    8.5410    1.5370   17.9810 C   0  0  0  0  0  0
    9.7940    1.1750   18.4580 C   0  0  0  0  0  0
   10.6720    0.4170   17.6740 C   0  0  0  0  0  0
   10.3290   -0.0100   16.4610 N   0  0  0  0  0  0
    9.1020    0.3210   16.0090 C   0  0  0  0  0  0
    8.1730    1.0810   16.7320 C   0  0  0  0  0  0
    3.7064    5.5758   23.3160 H   0  0  0  0  0  0
    3.6430    7.1925   22.5358 H   0  0  0  0  0  0
    5.0978    7.2320   24.5653 H   0  0  0  0  0  0
    6.1176    5.9323   23.8599 H   0  0  0  0  0  0
    5.9724    6.2744   19.8124 H   0  0  0  0  0  0
    4.8347    7.5181   20.4333 H   0  0  0  0  0  0
    7.5388    6.6619   21.6852 H   0  0  0  0  0  0
    7.1380    8.2875   21.0344 H   0  0  0  0  0  0
    9.5791    9.5127   23.0099 H   0  0  0  0  0  0
   12.4466    8.6583   24.4697 H   0  0  0  0  0  0
    9.3112    6.7440   27.8654 H   0  0  0  0  0  0
   11.8232    6.5172   28.2063 H   0  0  0  0  0  0
    9.1966    3.6829   19.4622 H   0  0  0  0  0  0
    5.9243    1.0891   18.6284 H   0  0  0  0  0  0
   10.0984    1.4856   19.4575 H   0  0  0  0  0  0
   11.6589    0.1710   18.0659 H   0  0  0  0  0  0
    8.8143   -0.0254   15.0164 H   0  0  0  0  0  0
    7.1891    1.3052   16.3200 H   0  0  0  0  0  0
  1  2  1  0  0  0
  1  3  1  0  0  0
  1 34  1  0  0  0
  1 35  1  0  0  0
  2  6  1  0  0  0
  2 36  1  0  0  0
  2 37  1  0  0  0
  3  4  1  0  0  0
  3 20  1  0  0  0
  4  5  1  0  0  0
  4 38  1  0  0  0
  4 39  1  0  0  0
  5  6  1  0  0  0
  5 40  1  0  0  0
  5 41  1  0  0  0
  6  7  1  0  0  0
  7  8  2  0  0  0
  7  9  2  0  0  0
  7 10  1  0  0  0
 10 11  2  0  0  0
 10 17  1  0  0  0
 11 12  1  0  0  0
 11 42  1  0  0  0
 12 13  2  0  0  0
 12 16  1  0  0  0
 13 14  1  0  0  0
 13 43  1  0  0  0
 14 15  1  0  0  0
 14 19  2  0  0  0
 16 17  2  0  0  0
 16 18  1  0  0  0
 18 19  1  0  0  0
 18 44  1  0  0  0
 19 45  1  0  0  0
 20 21  2  0  0  0
 20 22  1  0  0  0
 22 23  2  0  0  0
 22 27  1  0  0  0
 23 24  1  0  0  0
 24 25  2  0  0  0
 24 46  1  0  0  0
 25 26  1  0  0  0
 25 28  1  0  0  0
 26 27  2  0  0  0
 26 47  1  0  0  0
 28 29  2  0  0  0
 28 33  1  0  0  0
 29 30  1  0  0  0
 29 48  1  0  0  0
 30 31  2  0  0  0
 30 49  1  0  0  0
 31 32  1  0  0  0
 32 33  2  0  0  0
 32 50  1  0  0  0
 33 51  1  0  0  0
M  END
> <s_m_source_file>
../1wu1_ligand.sdf

> <i_m_source_file_index>
1

> <s_epik_input>
W0NIXTFDKENsKT1bQ0hdW0NIMl1DKEM9MTIpPU5DKD1bQ0hdMilTKD1PKSg9TylOKFtDSDJdW0NIMl0zKVtDSDJdW0NIMl1OM0MoPU8pYzRuW2NIXWMoW2NIXW40KS1jNVtjSF1bY0hdbltjSF1bY0hdNQ==

> <s_epik_cmdline>
J2VwaWtfYXBwJywgJy1pbWFlJywgJ2xpZ2FuZF9wcm8ubWFlJywgJy1vbWFlJywgJ2xpZ2FuZF9wcmVwLm1hZScsICctbXMnLCAnMScsICctcGgnLCAnNycsICctcGh0JywgJzAuNScsICctbnQn

> <r_lp_tautomer_probability>
1

> <r_epik_Ionization_Penalty>
  0.0006

> <r_epik_Ionization_Penalty_Charging>
  0.0000

> <r_epik_Ionization_Penalty_Neutral>
  0.0006

> <r_epik_State_Penalty>
 -0.0000

> <r_epik_Charging_Adjusted_Penalty>
0

> <i_epik_Tot_Q>
0

> <i_epik_Tot_abs_Q>
0

> <s_epik_Chemistry_Notes>
This compound has an imine and may undergo hydrolysis.

$$$$
