1wug_ligand
                    3D
 Schrodinger Suite 2020-3.
 31 31  0  0  1  0            999 V2000
   -3.6380   10.3050  -11.7450 N   0  3  0  0  0  0
   -3.8220   10.2210  -10.2630 C   0  0  0  0  0  0
   -5.3160   10.4630  -10.0230 C   0  0  0  0  0  0
   -6.1360    9.4400  -10.8170 C   0  0  0  0  0  0
   -7.4370   10.1180  -11.1070 N   0  0  0  0  0  0
   -8.2210   10.5360  -10.1120 C   0  0  0  0  0  0
   -7.9790   11.7940   -9.5060 C   0  0  0  0  0  0
   -9.3250    9.7510   -9.6870 C   0  0  0  0  0  0
   -9.5770    8.5730  -10.2490 N   0  3  0  0  0  0
   -8.7470    8.0840  -11.2930 O   0  0  0  0  0  0
  -10.6830    7.8020   -9.7970 O   0  5  0  0  0  0
   -8.8190   12.2520   -8.4650 C   0  0  0  0  0  0
  -10.1630   10.2150   -8.6480 C   0  0  0  0  0  0
   -9.9100   11.4630   -8.0380 C   0  0  0  0  0  0
  -10.8110   11.9540   -6.9360 C   0  0  0  0  0  0
   -2.5792   10.1396  -11.9930 H   0  0  0  0  0  0
   -3.9458   11.3007  -12.0968 H   0  0  0  0  0  0
   -4.2538    9.5364  -12.2351 H   0  0  0  0  0  0
   -3.5142    9.2253   -9.9112 H   0  0  0  0  0  0
   -3.2062   10.9895   -9.7729 H   0  0  0  0  0  0
   -5.5371   10.3560   -8.9508 H   0  0  0  0  0  0
   -5.5805   11.4786  -10.3524 H   0  0  0  0  0  0
   -5.6011    9.1801  -11.7424 H   0  0  0  0  0  0
   -6.2794    8.5341  -10.2097 H   0  0  0  0  0  0
   -7.7549   10.2758  -12.1482 H   0  0  0  0  0  0
   -7.1445   12.4091   -9.8428 H   0  0  0  0  0  0
   -8.6246   13.2144   -7.9917 H   0  0  0  0  0  0
  -11.0060    9.6085   -8.3170 H   0  0  0  0  0  0
  -10.4606   12.9363   -6.5862 H   0  0  0  0  0  0
  -10.7915   11.2388   -6.1004 H   0  0  0  0  0  0
  -11.8391   12.0455   -7.3164 H   0  0  0  0  0  0
  1  2  1  0  0  0
  1 16  1  0  0  0
  1 17  1  0  0  0
  1 18  1  0  0  0
  2  3  1  0  0  0
  2 19  1  0  0  0
  2 20  1  0  0  0
  3  4  1  0  0  0
  3 21  1  0  0  0
  3 22  1  0  0  0
  4  5  1  0  0  0
  4 23  1  0  0  0
  4 24  1  0  0  0
  5  6  1  0  0  0
  5 25  1  0  0  0
  6  7  2  0  0  0
  6  8  1  0  0  0
  7 12  1  0  0  0
  7 26  1  0  0  0
  8  9  1  0  0  0
  8 13  2  0  0  0
  9 10  2  0  0  0
  9 11  1  0  0  0
 12 14  2  0  0  0
 12 27  1  0  0  0
 13 14  1  0  0  0
 13 28  1  0  0  0
 14 15  1  0  0  0
 15 29  1  0  0  0
 15 30  1  0  0  0
 15 31  1  0  0  0
M  CHG  3   1   1   9   1  11  -1
M  END
> <s_m_source_file>
../1wug_ligand.sdf

> <i_m_source_file_index>
1

> <s_epik_input>
W05IMytdW0NIMl1bQ0gyXVtDSDJdW05IXWMxW2NIXVtjSF1jKFtDSDNdKVtjSF1jMVtOK10oPU8pW08tXQ==

> <s_epik_cmdline>
J2VwaWtfYXBwJywgJy1pbWFlJywgJ2xpZ2FuZF9wcm8ubWFlJywgJy1vbWFlJywgJ2xpZ2FuZF9wcmVwLm1hZScsICctbXMnLCAnMScsICctcGgnLCAnNycsICctcGh0JywgJzAuNScsICctbnQn

> <r_lp_tautomer_probability>
1

> <r_epik_Ionization_Penalty>
  0.0003

> <r_epik_Ionization_Penalty_Charging>
  0.0003

> <r_epik_Ionization_Penalty_Neutral>
  0.0000

> <r_epik_State_Penalty>
 -0.0000

> <r_epik_Charging_Adjusted_Penalty>
0.000326678417352243

> <i_epik_Tot_Q>
1

> <i_epik_Tot_abs_Q>
3

$$$$
