1wum_ligand
                    3D
 Schrodinger Suite 2020-3.
 28 28  0  0  1  0            999 V2000
  -14.7480   -3.9980    7.0370 N   0  3  0  0  0  0
  -14.7000   -4.5690    5.6620 C   0  0  0  0  0  0
  -13.6160   -3.7600    4.9410 C   0  0  0  0  0  0
  -13.9040   -2.2520    5.0530 C   0  0  0  0  0  0
  -15.3610   -2.0670    4.7570 N   0  0  0  0  0  0
  -15.7280   -1.4380    3.6440 C   0  0  0  0  0  0
  -16.2620   -2.1840    2.5700 C   0  0  0  0  0  0
  -15.5740   -0.0300    3.5200 C   0  0  0  0  0  0
  -15.0710    0.6940    4.5210 N   0  3  0  0  0  0
  -14.6830    0.0730    5.7370 O   0  0  0  0  0  0
  -14.9290    2.1000    4.3710 O   0  5  0  0  0  0
  -16.6480   -1.5370    1.3770 C   0  0  0  0  0  0
  -15.9590    0.6160    2.3200 C   0  0  0  0  0  0
  -16.4930   -0.1360    1.2500 C   0  0  0  0  0  0
  -15.5095   -4.5282    7.6278 H   0  0  0  0  0  0
  -15.0049   -2.9299    6.9817 H   0  0  0  0  0  0
  -13.7650   -4.1143    7.5168 H   0  0  0  0  0  0
  -14.4431   -5.6371    5.7173 H   0  0  0  0  0  0
  -15.6830   -4.4527    5.1821 H   0  0  0  0  0  0
  -12.6371   -3.9714    5.3961 H   0  0  0  0  0  0
  -13.5946   -4.0415    3.8778 H   0  0  0  0  0  0
  -13.6651   -1.9077    6.0700 H   0  0  0  0  0  0
  -13.2852   -1.7055    4.3261 H   0  0  0  0  0  0
  -16.1175   -2.4501    5.4576 H   0  0  0  0  0  0
  -16.3764   -3.2640    2.6632 H   0  0  0  0  0  0
  -17.0655   -2.1161    0.5533 H   0  0  0  0  0  0
  -15.8431    1.6954    2.2218 H   0  0  0  0  0  0
  -16.7858    0.3630    0.3262 H   0  0  0  0  0  0
  1  2  1  0  0  0
  1 15  1  0  0  0
  1 16  1  0  0  0
  1 17  1  0  0  0
  2  3  1  0  0  0
  2 18  1  0  0  0
  2 19  1  0  0  0
  3  4  1  0  0  0
  3 20  1  0  0  0
  3 21  1  0  0  0
  4  5  1  0  0  0
  4 22  1  0  0  0
  4 23  1  0  0  0
  5  6  1  0  0  0
  5 24  1  0  0  0
  6  7  2  0  0  0
  6  8  1  0  0  0
  7 12  1  0  0  0
  7 25  1  0  0  0
  8  9  1  0  0  0
  8 13  2  0  0  0
  9 10  2  0  0  0
  9 11  1  0  0  0
 12 14  2  0  0  0
 12 26  1  0  0  0
 13 14  1  0  0  0
 13 27  1  0  0  0
 14 28  1  0  0  0
M  CHG  3   1   1   9   1  11  -1
M  END
> <s_m_source_file>
../1wum_ligand.sdf

> <i_m_source_file_index>
1

> <s_epik_input>
W05IMytdW0NIMl1bQ0gyXVtDSDJdW05IXWMxW2NIXVtjSF1bY0hdW2NIXWMxW04rXSg9TylbTy1d

> <s_epik_cmdline>
J2VwaWtfYXBwJywgJy1pbWFlJywgJ2xpZ2FuZF9wcm8ubWFlJywgJy1vbWFlJywgJ2xpZ2FuZF9wcmVwLm1hZScsICctbXMnLCAnMScsICctcGgnLCAnNycsICctcGh0JywgJzAuNScsICctbnQn

> <r_lp_tautomer_probability>
1

> <r_epik_Ionization_Penalty>
  0.0003

> <r_epik_Ionization_Penalty_Charging>
  0.0003

> <r_epik_Ionization_Penalty_Neutral>
  0.0000

> <r_epik_State_Penalty>
 -0.0000

> <r_epik_Charging_Adjusted_Penalty>
0.000326678417352243

> <i_epik_Tot_Q>
1

> <i_epik_Tot_abs_Q>
3

$$$$
