1wun_ligand
                    3D
 Schrodinger Suite 2020-3.
 72 74  0  0  1  0            999 V2000
   35.7730    7.0680   10.1130 C   0  0  0  0  0  0
   34.8520    7.2770   10.8820 O   0  0  0  0  0  0
   35.7950    7.5510    8.8350 N   0  0  0  0  0  0
   34.6750    8.3580    8.3860 C   0  0  1  0  0  0
   34.7970    8.6720    6.9000 C   0  0  0  0  0  0
   36.0620    9.4510    6.5140 C   0  0  0  0  0  0
   33.3730    7.5940    8.7050 C   0  0  0  0  0  0
   33.3080    6.3730    8.5780 O   0  0  0  0  0  0
   32.3690    8.3840    9.1360 N   0  0  0  0  0  0
   31.1260    7.7340    9.4310 C   0  0  0  0  0  0
   31.7550    6.6250   11.5950 C   0  0  0  0  0  0
   31.5200    6.3720   12.9460 C   0  0  0  0  0  0
   30.4610    6.9910   13.6330 C   0  0  0  0  0  0
   29.5880    7.8300   12.9270 C   0  0  0  0  0  0
   29.7950    8.0710   11.5580 C   0  0  0  0  0  0
   30.8830    7.4740   10.8900 C   0  0  0  0  0  0
   30.2960    6.7540   15.0730 C   0  0  0  0  0  0
   30.9440    5.7520   15.6580 N   0  3  0  0  0  0
   35.9090    9.8440    5.0660 C   0  0  0  0  0  0
   35.6410    9.0300    4.2120 O   0  0  0  0  0  0
   35.9960   11.1390    4.8280 N   0  0  0  0  0  0
   37.9740    7.1250   11.2960 C   0  0  0  0  0  0
   36.5520    5.1740   11.4790 N   0  0  3  0  0  0
   36.9920    6.2180   10.5740 C   0  0  1  0  0  0
   36.3910    3.5860   10.8490 S   0  0  0  0  0  0
   35.7540    3.7920    9.5960 O   0  0  0  0  0  0
   35.7240    2.8650   11.8770 O   0  0  0  0  0  0
   37.9750    2.9600   10.5980 C   0  0  0  0  0  0
   38.4440    2.6500   12.0240 C   0  0  0  0  0  0
   29.4830    7.4900   15.8250 N   0  0  0  0  0  0
   41.4320    4.5880   14.6690 C   0  0  0  0  0  0
   41.8850    4.7290   13.3120 C   0  0  0  0  0  0
   41.1220    5.3680   12.3400 C   0  0  0  0  0  0
   39.8230    5.8900   12.6930 C   0  0  0  0  0  0
   39.3820    5.7780   14.0210 C   0  0  0  0  0  0
   40.1640    5.1270   15.0380 C   0  0  0  0  0  0
   41.3380    5.6430   11.0040 N   0  0  0  0  0  0
   40.2610    6.2730   10.4920 C   0  0  0  0  0  0
   39.2880    6.4510   11.4890 C   0  0  3  0  0  0
   36.6318    7.3429    8.1520 H   0  0  0  0  0  0
   34.7206    9.3123    8.9311 H   0  0  0  0  0  0
   34.8131    7.7332    6.3270 H   0  0  0  0  0  0
   33.9378    9.2809    6.5821 H   0  0  0  0  0  0
   36.1529   10.3422    7.1524 H   0  0  0  0  0  0
   36.9445    8.8092    6.6526 H   0  0  0  0  0  0
   32.4649    9.4721    9.2654 H   0  0  0  0  0  0
   30.2926    8.3585    9.0768 H   0  0  0  0  0  0
   31.0935    6.7578    8.9250 H   0  0  0  0  0  0
   32.6066    6.1690   11.0900 H   0  0  0  0  0  0
   32.1708    5.6800   13.4805 H   0  0  0  0  0  0
   28.7472    8.2963   13.4406 H   0  0  0  0  0  0
   29.1122    8.7214   11.0113 H   0  0  0  0  0  0
   31.6257    5.1200   15.0699 H   0  0  0  0  0  0
   36.2434   11.8329    5.6449 H   0  0  0  0  0  0
   35.8212   11.5246    3.8127 H   0  0  0  0  0  0
   38.1320    8.0389   10.7046 H   0  0  0  0  0  0
   37.5686    7.3925   12.2830 H   0  0  0  0  0  0
   36.4922    5.3719   12.5594 H   0  0  0  0  0  0
   37.4803    5.7038    9.7331 H   0  0  0  0  0  0
   37.9185    2.0627    9.9642 H   0  0  0  0  0  0
   38.5956    3.7208   10.1019 H   0  0  0  0  0  0
   39.4629    2.2365   11.9931 H   0  0  0  0  0  0
   37.7643    1.9165   12.4822 H   0  0  0  0  0  0
   38.4414    3.5746   12.6200 H   0  0  0  0  0  0
   28.9288    8.3284   15.3778 H   0  0  0  0  0  0
   29.3647    7.2605   16.8943 H   0  0  0  0  0  0
   42.0497    4.0757   15.4066 H   0  0  0  0  0  0
   42.8577    4.3221   13.0357 H   0  0  0  0  0  0
   38.4135    6.1989   14.2910 H   0  0  0  0  0  0
   39.7979    5.0479   16.0616 H   0  0  0  0  0  0
   40.2467    6.5638    9.4312 H   0  0  0  0  0  0
   30.7987    5.5546   16.7303 H   0  0  0  0  0  0
  1  2  2  0  0  0
  1  3  1  0  0  0
  1 24  1  0  0  0
  3  4  1  0  0  0
  3 40  1  0  0  0
  4  5  1  0  0  0
  4  7  1  0  0  0
  4 41  1  0  0  0
  5  6  1  0  0  0
  5 42  1  0  0  0
  5 43  1  0  0  0
  6 19  1  0  0  0
  6 44  1  0  0  0
  6 45  1  0  0  0
  7  8  2  0  0  0
  7  9  1  0  0  0
  9 10  1  0  0  0
  9 46  1  0  0  0
 10 16  1  0  0  0
 10 47  1  0  0  0
 10 48  1  0  0  0
 11 12  2  0  0  0
 11 16  1  0  0  0
 11 49  1  0  0  0
 12 13  1  0  0  0
 12 50  1  0  0  0
 13 14  2  0  0  0
 13 17  1  0  0  0
 14 15  1  0  0  0
 14 51  1  0  0  0
 15 16  2  0  0  0
 15 52  1  0  0  0
 17 18  2  0  0  0
 17 30  1  0  0  0
 18 53  1  0  0  0
 18 72  1  0  0  0
 19 20  2  0  0  0
 19 21  1  0  0  0
 21 54  1  0  0  0
 21 55  1  0  0  0
 22 24  1  0  0  0
 22 39  1  0  0  0
 22 56  1  0  0  0
 22 57  1  0  0  0
 23 24  1  0  0  0
 23 25  1  0  0  0
 23 58  1  0  0  0
 24 59  1  0  0  0
 25 26  2  0  0  0
 25 27  2  0  0  0
 25 28  1  0  0  0
 28 29  1  0  0  0
 28 60  1  0  0  0
 28 61  1  0  0  0
 29 62  1  0  0  0
 29 63  1  0  0  0
 29 64  1  0  0  0
 30 65  1  0  0  0
 30 66  1  0  0  0
 31 32  2  0  0  0
 31 36  1  0  0  0
 31 67  1  0  0  0
 32 33  1  0  0  0
 32 68  1  0  0  0
 33 34  2  0  0  0
 33 37  1  0  0  0
 34 35  1  0  0  0
 34 39  1  0  0  0
 35 36  2  0  0  0
 35 69  1  0  0  0
 36 70  1  0  0  0
 37 38  2  0  0  0
 38 39  1  0  0  0
 38 71  1  0  0  0
M  CHG  1  18   1
M  END
> <s_m_source_file>
../1wun_ligand.sdf

> <i_m_source_file_index>
1

> <s_epik_input>
W2NIXTFbY0hdW2NIXVtjSF1jKGMxMilbQ0hdKFtDSF09TjIpW0NIMl1bQ0BASF0oW05IXVMoPU8pKD1PKVtDSDJdW0NIM10pQyg9TylbTkhdW0NAQEhdKFtDSDJdW0NIMl1DKD1PKVtOSDJdKUMoPU8pW05IXVtDSDJdYyhbY0hdW2NIXTMpW2NIXVtjSF1jMy9DKD1OXFtIXSlbTkgyXQ==

> <s_epik_cmdline>
J2VwaWtfYXBwJywgJy1pbWFlJywgJ2xpZ2FuZF9wcm8ubWFlJywgJy1vbWFlJywgJ2xpZ2FuZF9wcmVwLm1hZScsICctbXMnLCAnMScsICctcGgnLCAnNycsICctcGh0JywgJzAuNScsICctbnQn

> <r_epik_Ionization_Penalty>
  0.0185

> <r_epik_Ionization_Penalty_Charging>
  0.0002

> <r_epik_Ionization_Penalty_Neutral>
  0.0183

> <r_epik_State_Penalty>
  0.0145

> <r_epik_Charging_Adjusted_Penalty>
0.0147105827144594

> <i_epik_Tot_Q>
1

> <i_epik_Tot_abs_Q>
1

> <s_epik_Chemistry_Notes>
This compound has an imine and may undergo hydrolysis.

$$$$
