1wuq_ligand
                    3D
 Schrodinger Suite 2020-3.
 43 45  0  0  1  0            999 V2000
  -29.3670  -16.5930    1.3870 P   0  0  0  0  0  0
  -29.9320  -16.5280   -0.0030 O   0  0  0  0  0  0
  -29.6650  -15.3580    2.1910 O   0  5  0  0  0  0
  -27.8610  -16.8070    1.3080 O   0  5  0  0  0  0
  -30.0460  -17.8300    2.1590 O   0  0  0  0  0  0
  -30.7920  -19.1420    1.5700 P   0  0  2  0  0  0
  -29.9290  -19.8200    0.5830 O   0  5  0  0  0  0
  -32.1090  -18.7760    1.0180 O   0  0  0  0  0  0
  -30.9650  -20.0790    2.8380 O   0  0  0  0  0  0
  -31.5070  -19.8760    4.3520 P   0  0  2  0  0  0
  -31.8460  -21.2250    4.8950 O   0  0  0  0  0  0
  -32.6320  -18.8910    4.3110 O   0  5  0  0  0  0
  -24.5370  -19.2800    6.6830 N   0  0  0  0  0  0
  -23.7640  -19.9790    5.7810 C   0  0  0  0  0  0
  -22.5720  -20.2770    6.2500 N   0  0  0  0  0  0
  -22.5750  -19.7390    7.5370 C   0  0  0  0  0  0
  -21.5700  -19.7220    8.5460 C   0  0  0  0  0  0
  -20.4290  -20.1840    8.5230 O   0  0  0  0  0  0
  -22.0110  -19.0650    9.7090 N   0  0  0  0  0  0
  -23.2690  -18.5000    9.8520 C   0  0  0  0  0  0
  -23.5220  -17.9170   11.0290 N   0  3  0  0  0  0
  -24.1900  -18.5070    8.9200 N   0  0  0  0  0  0
  -23.7840  -19.1380    7.7960 C   0  0  0  0  0  0
  -24.2060  -20.2540    4.6700 O   0  0  0  0  0  0
  -30.2230  -19.2560    5.0610 O   0  0  0  0  0  0
  -29.0590  -20.0250    5.3960 C   0  0  0  0  0  0
  -28.0950  -19.1190    6.1150 C   0  0  1  0  0  0
  -26.8490  -19.7980    6.5070 O   0  0  0  0  0  0
  -27.6400  -17.8860    5.2870 C   0  0  1  0  0  0
  -28.0620  -16.6830    5.9370 O   0  0  0  0  0  0
  -26.1510  -18.0740    5.2390 C   0  0  1  0  0  0
  -25.4680  -16.8210    5.1850 O   0  0  0  0  0  0
  -25.8950  -18.7610    6.5100 C   0  0  2  0  0  0
  -22.7526  -17.9081   11.8151 H   0  0  0  0  0  0
  -29.3485  -20.8643    6.0455 H   0  0  0  0  0  0
  -28.5998  -20.4150    4.4757 H   0  0  0  0  0  0
  -28.6681  -18.8453    7.0131 H   0  0  0  0  0  0
  -28.0686  -17.7333    4.2855 H   0  0  0  0  0  0
  -29.1339  -16.4520    6.0245 H   0  0  0  0  0  0
  -25.7661  -18.6016    4.3538 H   0  0  0  0  0  0
  -25.5590  -16.1830    4.2936 H   0  0  0  0  0  0
  -26.0104  -18.0833    7.3687 H   0  0  0  0  0  0
  -24.4995  -17.4464   11.2109 H   0  0  0  0  0  0
  1  2  2  0  0  0
  1  3  1  0  0  0
  1  4  1  0  0  0
  1  5  1  0  0  0
  5  6  1  0  0  0
  6  7  1  0  0  0
  6  8  2  0  0  0
  6  9  1  0  0  0
  9 10  1  0  0  0
 10 11  2  0  0  0
 10 12  1  0  0  0
 10 25  1  0  0  0
 13 14  1  0  0  0
 13 23  1  0  0  0
 13 33  1  0  0  0
 14 15  1  0  0  0
 14 24  2  0  0  0
 15 16  2  0  0  0
 16 17  1  0  0  0
 16 23  1  0  0  0
 17 18  2  0  0  0
 17 19  1  0  0  0
 19 20  1  0  0  0
 20 21  2  0  0  0
 20 22  1  0  0  0
 21 34  1  0  0  0
 21 43  1  0  0  0
 22 23  2  0  0  0
 25 26  1  0  0  0
 26 27  1  0  0  0
 26 35  1  0  0  0
 26 36  1  0  0  0
 27 28  1  0  0  0
 27 29  1  0  0  0
 27 37  1  0  0  0
 28 33  1  0  0  0
 29 30  1  0  0  0
 29 31  1  0  0  0
 29 38  1  0  0  0
 30 39  1  0  0  0
 31 32  1  0  0  0
 31 33  1  0  0  0
 31 40  1  0  0  0
 32 41  1  0  0  0
 33 42  1  0  0  0
M  CHG  5   3  -1   4  -1   7  -1  12  -1  21   1
M  END
> <s_m_source_file>
../1wuq_ligand.sdf

> <i_m_source_file_index>
1

> <s_epik_input>
Tz1QKFtPSF0pKFtPSF0pT1tQQEBdKD1PKShbT0hdKU9bUEBdKD1PKShbT0hdKU9bQ0gyXVtDQEhdMU9bQ0BIXShbQ0BIXShbT0hdKVtDQEBIXTFbT0hdKVtOK10oQyhOPTIpPU8pPWMoYzIzKVtuSF1jKD1OXFtIXSlcW25IXWMzPU8=

> <s_epik_cmdline>
J2VwaWtfYXBwJywgJy1pbWFlJywgJ2xpZ2FuZF9wcm8ubWFlJywgJy1vbWFlJywgJ2xpZ2FuZF9wcmVwLm1hZScsICctbXMnLCAnMScsICctcGgnLCAnNycsICctcGh0JywgJzAuNScsICctbnQn

> <r_epik_Ionization_Penalty>
  0.0815

> <r_epik_Ionization_Penalty_Charging>
  0.0814

> <r_epik_Ionization_Penalty_Neutral>
  0.0001

> <r_epik_State_Penalty>
  0.0708

> <r_epik_Charging_Adjusted_Penalty>
0.152173429391571

> <i_epik_Tot_Q>
-3

> <i_epik_Tot_abs_Q>
5

> <s_epik_Chemistry_Notes>
This compound has an imine and may undergo hydrolysis. This compound contains an acetal/aminal-like group ( X-CH(R)-Y where X, Y are N, S, or O) that may be acid/base labile, releasing an aldehyde.

$$$$
