1wv7_ligand
                    3D
 Schrodinger Suite 2020-3.
 82 84  0  0  1  0            999 V2000
   35.7740    6.9790   10.1450 C   0  0  0  0  0  0
   34.9010    7.2020   10.9750 O   0  0  0  0  0  0
   35.6940    7.3980    8.8290 N   0  0  0  0  0  0
   34.5660    8.2960    8.4030 C   0  0  1  0  0  0
   34.5740    8.6430    6.9450 C   0  0  0  0  0  0
   35.8950    9.2320    6.5120 C   0  0  0  0  0  0
   33.1820    7.6680    8.6590 C   0  0  0  0  0  0
   32.9490    6.4990    8.4180 O   0  0  0  0  0  0
   32.2920    8.4820    9.1540 N   0  0  0  0  0  0
   30.9790    7.9410    9.3810 C   0  0  0  0  0  0
   31.5000    6.5260   11.4320 C   0  0  0  0  0  0
   31.2590    6.2100   12.7690 C   0  0  0  0  0  0
   30.2530    6.8840   13.4990 C   0  0  0  0  0  0
   29.4200    7.7840   12.8200 C   0  0  0  0  0  0
   29.6320    8.0750   11.4820 C   0  0  0  0  0  0
   30.6960    7.4900   10.7870 C   0  0  0  0  0  0
   30.1390    6.7110   14.9680 C   0  0  0  0  0  0
   30.8910    5.8260   15.6130 N   0  3  0  0  0  0
   35.8570    9.6840    5.0940 C   0  0  0  0  0  0
   35.8560    8.9050    4.1830 O   0  0  0  0  0  0
   35.8520   10.9840    4.9390 N   0  0  0  0  0  0
   38.1050    7.0270   11.3580 C   0  0  0  0  0  0
   36.4140    5.1670   11.4510 N   0  0  3  0  0  0
   37.0170    6.1760   10.6080 C   0  0  1  0  0  0
   36.5060    3.5670   10.9480 S   0  0  0  0  0  0
   36.2900    3.7220    9.5530 O   0  0  0  0  0  0
   35.6000    2.9280   11.8390 O   0  0  0  0  0  0
   38.1460    2.9610   11.1240 C   0  0  0  0  0  0
   38.4220    2.5360   12.5240 C   0  0  0  0  0  0
   29.3480    7.5000   15.7080 N   0  0  0  0  0  0
   43.1090    4.8000   10.8560 C   0  0  0  0  0  0
   42.5070    4.6640   12.1520 C   0  0  0  0  0  0
   41.2310    5.1690   12.4430 C   0  0  0  0  0  0
   40.4820    5.8250   11.4020 C   0  0  0  0  0  0
   41.0740    5.9800   10.1360 C   0  0  0  0  0  0
   42.3970    5.4860    9.8220 C   0  0  0  0  0  0
   40.4810    5.2520   13.6020 N   0  0  0  0  0  0
   39.3170    5.8940   13.3500 C   0  0  0  0  0  0
   39.2480    6.2620   11.9990 C   0  0  3  0  0  0
   43.0580    5.6440    8.5930 O   0  0  0  0  0  0
   42.2790    5.3630    7.4420 C   0  0  0  0  0  0
   43.1820    5.5340    6.2220 C   0  0  0  0  0  0
   42.4650    5.1750    4.9230 C   0  0  0  0  0  0
   36.4492    7.0781    8.0960 H   0  0  0  0  0  0
   34.7564    9.2010    8.9986 H   0  0  0  0  0  0
   34.3911    7.7354    6.3511 H   0  0  0  0  0  0
   33.7846    9.3810    6.7394 H   0  0  0  0  0  0
   36.1354   10.0985    7.1456 H   0  0  0  0  0  0
   36.6853    8.4736    6.6129 H   0  0  0  0  0  0
   32.5028    9.5340    9.3964 H   0  0  0  0  0  0
   30.2223    8.7029    9.1426 H   0  0  0  0  0  0
   30.8287    7.0612    8.7381 H   0  0  0  0  0  0
   32.3048    6.0312   10.8884 H   0  0  0  0  0  0
   31.8520    5.4358   13.2559 H   0  0  0  0  0  0
   28.5958    8.2605   13.3508 H   0  0  0  0  0  0
   28.9643    8.7654   10.9666 H   0  0  0  0  0  0
   31.5570    5.1558   15.0497 H   0  0  0  0  0  0
   35.8533   11.6429    5.8198 H   0  0  0  0  0  0
   35.8465   11.4173    3.9280 H   0  0  0  0  0  0
   38.5743    7.7271   10.6512 H   0  0  0  0  0  0
   37.6303    7.5924   12.1735 H   0  0  0  0  0  0
   36.0629    5.4309   12.4595 H   0  0  0  0  0  0
   37.5707    5.7048    9.7825 H   0  0  0  0  0  0
   38.2897    2.0944   10.4619 H   0  0  0  0  0  0
   38.8604    3.7522   10.8526 H   0  0  0  0  0  0
   39.4544    2.1634   12.5973 H   0  0  0  0  0  0
   37.7224    1.7364   12.8091 H   0  0  0  0  0  0
   38.2931    3.3942   13.1999 H   0  0  0  0  0  0
   28.7066    8.2487   15.2201 H   0  0  0  0  0  0
   29.3402    7.3990   16.8033 H   0  0  0  0  0  0
   44.0980    4.3850   10.6618 H   0  0  0  0  0  0
   43.0609    4.1502   12.9377 H   0  0  0  0  0  0
   40.5115    6.4949    9.3571 H   0  0  0  0  0  0
   38.5912    6.0553   14.1607 H   0  0  0  0  0  0
   41.9007    4.3316    7.4981 H   0  0  0  0  0  0
   41.4313    6.0623    7.3933 H   0  0  0  0  0  0
   43.5115    6.5813    6.1536 H   0  0  0  0  0  0
   44.0602    4.8791    6.3211 H   0  0  0  0  0  0
   43.1518    5.3129    4.0749 H   0  0  0  0  0  0
   41.5889    5.8278    4.7953 H   0  0  0  0  0  0
   42.1376    4.1256    4.9628 H   0  0  0  0  0  0
   30.8477    5.7634   16.7104 H   0  0  0  0  0  0
  1  2  2  0  0  0
  1  3  1  0  0  0
  1 24  1  0  0  0
  3  4  1  0  0  0
  3 44  1  0  0  0
  4  5  1  0  0  0
  4  7  1  0  0  0
  4 45  1  0  0  0
  5  6  1  0  0  0
  5 46  1  0  0  0
  5 47  1  0  0  0
  6 19  1  0  0  0
  6 48  1  0  0  0
  6 49  1  0  0  0
  7  8  2  0  0  0
  7  9  1  0  0  0
  9 10  1  0  0  0
  9 50  1  0  0  0
 10 16  1  0  0  0
 10 51  1  0  0  0
 10 52  1  0  0  0
 11 12  2  0  0  0
 11 16  1  0  0  0
 11 53  1  0  0  0
 12 13  1  0  0  0
 12 54  1  0  0  0
 13 14  2  0  0  0
 13 17  1  0  0  0
 14 15  1  0  0  0
 14 55  1  0  0  0
 15 16  2  0  0  0
 15 56  1  0  0  0
 17 18  2  0  0  0
 17 30  1  0  0  0
 18 57  1  0  0  0
 18 82  1  0  0  0
 19 20  2  0  0  0
 19 21  1  0  0  0
 21 58  1  0  0  0
 21 59  1  0  0  0
 22 24  1  0  0  0
 22 39  1  0  0  0
 22 60  1  0  0  0
 22 61  1  0  0  0
 23 24  1  0  0  0
 23 25  1  0  0  0
 23 62  1  0  0  0
 24 63  1  0  0  0
 25 26  2  0  0  0
 25 27  2  0  0  0
 25 28  1  0  0  0
 28 29  1  0  0  0
 28 64  1  0  0  0
 28 65  1  0  0  0
 29 66  1  0  0  0
 29 67  1  0  0  0
 29 68  1  0  0  0
 30 69  1  0  0  0
 30 70  1  0  0  0
 31 32  2  0  0  0
 31 36  1  0  0  0
 31 71  1  0  0  0
 32 33  1  0  0  0
 32 72  1  0  0  0
 33 34  2  0  0  0
 33 37  1  0  0  0
 34 35  1  0  0  0
 34 39  1  0  0  0
 35 36  2  0  0  0
 35 73  1  0  0  0
 36 40  1  0  0  0
 37 38  2  0  0  0
 38 39  1  0  0  0
 38 74  1  0  0  0
 40 41  1  0  0  0
 41 42  1  0  0  0
 41 75  1  0  0  0
 41 76  1  0  0  0
 42 43  1  0  0  0
 42 77  1  0  0  0
 42 78  1  0  0  0
 43 79  1  0  0  0
 43 80  1  0  0  0
 43 81  1  0  0  0
M  CHG  1  18   1
M  END
> <s_m_source_file>
../1wv7_ligand.sdf

> <i_m_source_file_index>
1

> <s_epik_input>
W0NIM11bQ0gyXVtDSDJdT2MoW2NIXVtjSF0xKVtjSF1jKGMxMilbQ0hdKFtDSF09TjIpW0NIMl1bQ0BASF0oW05IXVMoPU8pKD1PKVtDSDJdW0NIM10pQyg9TylbTkhdW0NAQEhdKFtDSDJdW0NIMl1DKD1PKVtOSDJdKUMoPU8pW05IXVtDSDJdYyhbY0hdW2NIXTMpW2NIXVtjSF1jMy9DKD1OXFtIXSlbTkgyXQ==

> <s_epik_cmdline>
J2VwaWtfYXBwJywgJy1pbWFlJywgJ2xpZ2FuZF9wcm8ubWFlJywgJy1vbWFlJywgJ2xpZ2FuZF9wcmVwLm1hZScsICctbXMnLCAnMScsICctcGgnLCAnNycsICctcGh0JywgJzAuNScsICctbnQn

> <r_epik_Ionization_Penalty>
  0.0346

> <r_epik_Ionization_Penalty_Charging>
  0.0002

> <r_epik_Ionization_Penalty_Neutral>
  0.0344

> <r_epik_State_Penalty>
  0.0286

> <r_epik_Charging_Adjusted_Penalty>
0.0287647080421307

> <i_epik_Tot_Q>
1

> <i_epik_Tot_abs_Q>
1

> <s_epik_Chemistry_Notes>
This compound has an imine and may undergo hydrolysis.

$$$$
