1wvj_ligand
                    3D
 Schrodinger Suite 2020-3.
 30 31  0  0  1  0            999 V2000
   14.5280    6.1050   25.6950 O   0  0  0  0  0  0
   13.3860    6.5150   25.3340 C   0  0  0  0  0  0
   12.3640    6.6420   26.1070 O   0  5  0  0  0  0
   13.1520    6.8720   23.8240 C   0  0  1  0  0  0
   11.6850    7.1740   23.5420 N   0  3  0  0  0  0
   14.0900    8.0690   23.4630 C   0  0  0  0  0  0
   13.8860    8.6340   22.0520 C   0  0  0  0  0  0
   14.1520    7.7710   20.8880 C   0  0  0  0  0  0
   13.3980    9.9060   21.9650 C   0  0  0  0  0  0
   13.0580   10.7310   20.7270 C   0  0  0  0  0  0
   12.1430   10.0280   19.7130 C   0  0  0  0  0  0
   12.7920    8.8900   18.8830 C   0  0  0  0  0  0
   13.6830    7.9160   19.5900 C   0  0  0  0  0  0
   14.1260    6.9320   18.7880 O   0  0  0  0  0  0
   14.9690    6.0530   19.5750 N   0  0  0  0  0  0
   14.9910    6.5390   20.8350 C   0  0  0  0  0  0
   15.6350    6.0080   21.7880 O   0  5  0  0  0  0
   13.3737    6.0139   23.1725 H   0  0  0  0  0  0
   11.0724    6.3015   23.8131 H   0  0  0  0  0  0
   11.5552    7.3951   22.4723 H   0  0  0  0  0  0
   11.3687    8.0434   24.1371 H   0  0  0  0  0  0
   13.9162    8.8962   24.1669 H   0  0  0  0  0  0
   15.1393    7.7456   23.5293 H   0  0  0  0  0  0
   13.1962   10.4815   22.8805 H   0  0  0  0  0  0
   12.5423   11.6537   21.0315 H   0  0  0  0  0  0
   13.9841   10.9881   20.1920 H   0  0  0  0  0  0
   11.2922    9.5726   20.2410 H   0  0  0  0  0  0
   11.7711   10.7627   18.9837 H   0  0  0  0  0  0
   12.0035    8.2731   18.4272 H   0  0  0  0  0  0
   13.4201    9.3255   18.0919 H   0  0  0  0  0  0
  1  2  2  0  0  0
  2  3  1  0  0  0
  2  4  1  0  0  0
  4  5  1  0  0  0
  4  6  1  0  0  0
  4 18  1  0  0  0
  5 19  1  0  0  0
  5 20  1  0  0  0
  5 21  1  0  0  0
  6  7  1  0  0  0
  6 22  1  0  0  0
  6 23  1  0  0  0
  7  8  1  0  0  0
  7  9  2  0  0  0
  8 13  2  0  0  0
  8 16  1  0  0  0
  9 10  1  0  0  0
  9 24  1  0  0  0
 10 11  1  0  0  0
 10 25  1  0  0  0
 10 26  1  0  0  0
 11 12  1  0  0  0
 11 27  1  0  0  0
 11 28  1  0  0  0
 12 13  1  0  0  0
 12 29  1  0  0  0
 12 30  1  0  0  0
 13 14  1  0  0  0
 14 15  1  0  0  0
 15 16  2  0  0  0
 16 17  1  0  0  0
M  CHG  3   3  -1   5   1  17  -1
M  END
> <s_m_source_file>
../1wvj_ligand.sdf

> <i_m_source_file_index>
1

> <s_epik_input>
Tz1DKFtPSF0pW0NAQEhdKFtOSDMrXSlbQ0gyXUMxPVtDSF1bQ0gyXVtDSDJdW0NIMl1jKGMxMilvW25IXWMyPU8=

> <s_epik_cmdline>
J2VwaWtfYXBwJywgJy1pbWFlJywgJ2xpZ2FuZF9wcm8ubWFlJywgJy1vbWFlJywgJ2xpZ2FuZF9wcmVwLm1hZScsICctbXMnLCAnMScsICctcGgnLCAnNycsICctcGh0JywgJzAuNScsICctbnQn

> <r_lp_tautomer_probability>
1

> <r_epik_Ionization_Penalty>
  0.0257

> <r_epik_Ionization_Penalty_Charging>
  0.0257

> <r_epik_Ionization_Penalty_Neutral>
  0.0000

> <r_epik_State_Penalty>
 -0.0000

> <r_epik_Charging_Adjusted_Penalty>
0.0256807391098214

> <i_epik_Tot_Q>
-1

> <i_epik_Tot_abs_Q>
3

$$$$
