1wxz_ligand
                    3D
 Schrodinger Suite 2020-3.
 51 54  0  0  1  0            999 V2000
   47.3620   52.3190   15.2830 C   0  0  0  0  0  0
   47.2750   53.5770   15.9120 C   0  0  0  0  0  0
   48.1510   53.9590   16.9310 C   0  0  0  0  0  0
   49.1070   53.0510   17.3860 C   0  0  0  0  0  0
   49.2230   51.7780   16.7580 C   0  0  0  0  0  0
   48.3670   51.4350   15.6790 C   0  0  0  0  0  0
   48.5900   50.0410   14.7520 Cl  0  0  0  0  0  0
   48.0240   55.2940   17.4850 C   0  0  0  0  0  0
   47.4860   56.3100   16.7930 N   0  0  0  0  0  0
   47.4740   57.4220   17.6190 C   0  0  0  0  0  0
   48.0670   56.9890   18.8620 C   0  0  0  0  0  0
   48.3890   55.6670   18.7500 O   0  0  0  0  0  0
   47.0500   58.7340   17.4680 C   0  0  0  0  0  0
   47.1950   59.6890   18.5080 C   0  0  0  0  0  0
   47.7880   59.2780   19.7390 C   0  0  0  0  0  0
   48.2200   57.9140   19.8920 C   0  0  0  0  0  0
   48.8770   57.4510   21.1530 C   0  0  0  0  0  0
   50.2810   58.0670   21.2890 C   0  0  0  0  0  0
   51.4610   57.1710   21.6880 C   0  0  3  0  0  0
   52.8040   57.8520   21.7660 C   0  0  1  0  0  0
   53.4100   57.5480   23.0170 O   0  0  0  0  0  0
   51.3530   55.7490   22.0510 N   0  0  0  0  0  0
   53.6540   57.5830   20.4980 C   0  0  0  0  0  0
   51.4060   55.1960   23.2850 C   0  0  0  0  0  0
   51.2790   53.8350   23.2370 N   0  0  0  0  0  0
   51.1430   53.4740   21.9280 C   0  0  0  0  0  0
   51.1800   54.6810   21.1850 C   0  0  0  0  0  0
   51.1010   52.1900   21.4230 C   0  0  0  0  0  0
   51.0150   52.0010   20.2160 O   0  0  0  0  0  0
   51.1790   51.1750   22.2410 N   0  0  0  0  0  0
   46.6562   52.0409   14.5003 H   0  0  0  0  0  0
   46.4998   54.2739   15.5935 H   0  0  0  0  0  0
   49.7613   53.3141   18.2171 H   0  0  0  0  0  0
   49.9707   51.0656   17.1067 H   0  0  0  0  0  0
   46.5937   59.0395   16.5264 H   0  0  0  0  0  0
   46.8597   60.7168   18.3689 H   0  0  0  0  0  0
   47.9125   59.9899   20.5550 H   0  0  0  0  0  0
   48.2684   57.7562   22.0170 H   0  0  0  0  0  0
   48.9684   56.3549   21.1378 H   0  0  0  0  0  0
   50.5846   58.5037   20.3261 H   0  0  0  0  0  0
   50.2637   58.8526   22.0587 H   0  0  0  0  0  0
   51.1046   56.1666   21.4158 H   0  0  0  0  0  0
   52.7056   58.9445   21.8488 H   0  0  0  0  0  0
   52.8561   57.7176   23.9521 H   0  0  0  0  0  0
   53.0754   57.8576   19.6037 H   0  0  0  0  0  0
   53.9159   56.5156   20.4518 H   0  0  0  0  0  0
   54.5738   58.1849   20.5387 H   0  0  0  0  0  0
   51.5343   55.7659   24.2053 H   0  0  0  0  0  0
   51.0869   54.7570   20.1016 H   0  0  0  0  0  0
   51.2562   51.3467   23.3248 H   0  0  0  0  0  0
   51.1675   50.1483   21.8462 H   0  0  0  0  0  0
  1  2  2  0  0  0
  1  6  1  0  0  0
  1 31  1  0  0  0
  2  3  1  0  0  0
  2 32  1  0  0  0
  3  4  2  0  0  0
  3  8  1  0  0  0
  4  5  1  0  0  0
  4 33  1  0  0  0
  5  6  2  0  0  0
  5 34  1  0  0  0
  6  7  1  0  0  0
  8  9  2  0  0  0
  8 12  1  0  0  0
  9 10  1  0  0  0
 10 11  2  0  0  0
 10 13  1  0  0  0
 11 12  1  0  0  0
 11 16  1  0  0  0
 13 14  2  0  0  0
 13 35  1  0  0  0
 14 15  1  0  0  0
 14 36  1  0  0  0
 15 16  2  0  0  0
 15 37  1  0  0  0
 16 17  1  0  0  0
 17 18  1  0  0  0
 17 38  1  0  0  0
 17 39  1  0  0  0
 18 19  1  0  0  0
 18 40  1  0  0  0
 18 41  1  0  0  0
 19 20  1  0  0  0
 19 22  1  0  0  0
 19 42  1  0  0  0
 20 21  1  0  0  0
 20 23  1  0  0  0
 20 43  1  0  0  0
 21 44  1  0  0  0
 22 24  1  0  0  0
 22 27  1  0  0  0
 23 45  1  0  0  0
 23 46  1  0  0  0
 23 47  1  0  0  0
 24 25  2  0  0  0
 24 48  1  0  0  0
 25 26  1  0  0  0
 26 27  2  0  0  0
 26 28  1  0  0  0
 27 49  1  0  0  0
 28 29  2  0  0  0
 28 30  1  0  0  0
 30 50  1  0  0  0
 30 51  1  0  0  0
M  END
> <s_m_source_file>
../1wxz_ligand.sdf

> <i_m_source_file_index>
1

> <s_epik_input>
W2NIXTFbY0hdYyhDbClbY0hdW2NIXWMxLWMobjIpb2MoYzIzKWMoW2NIXVtjSF1bY0hdMylbQ0gyXVtDSDJdW0NIXShbQ0BASF0oW09IXSlbQ0gzXSluNFtjSF1uYyhbY0hdNClDKD1PKVtOSDJd

> <s_epik_cmdline>
J2VwaWtfYXBwJywgJy1pbWFlJywgJ2xpZ2FuZF9wcm8ubWFlJywgJy1vbWFlJywgJ2xpZ2FuZF9wcmVwLm1hZScsICctbXMnLCAnMScsICctcGgnLCAnNycsICctcGh0JywgJzAuNScsICctbnQn

> <r_lp_tautomer_probability>
1

> <r_epik_Ionization_Penalty>
  0.0016

> <r_epik_Ionization_Penalty_Charging>
  0.0016

> <r_epik_Ionization_Penalty_Neutral>
  0.0000

> <r_epik_State_Penalty>
 -0.0000

> <r_epik_Charging_Adjusted_Penalty>
0.0015604652204379

> <i_epik_Tot_Q>
0

> <i_epik_Tot_abs_Q>
0

$$$$
