1wzy_ligand
                    3D
 Schrodinger Suite 2020-3.
 47 51  0  0  1  0            999 V2000
    2.0450    9.4760   41.2540 C   0  0  0  0  0  0
    2.2660    9.0370   42.6210 C   0  0  0  0  0  0
    3.5810    8.8170   43.0880 C   0  0  0  0  0  0
    4.7630    9.0150   42.3420 C   0  0  0  0  0  0
    4.5680    9.4050   40.9410 C   0  0  0  0  0  0
    3.2260    9.6450   40.4130 C   0  0  0  0  0  0
    3.9230    8.3070   44.4180 N   0  0  0  0  0  0
    5.3350    8.2570   44.4640 C   0  0  0  0  0  0
    5.9080    8.7200   43.2030 C   0  0  3  0  0  0
    7.3170    8.9150   42.8500 C   0  0  0  0  0  0
    5.9070    7.7740   45.7160 C   0  0  0  0  0  0
    5.1730    6.7990   46.5250 C   0  0  0  0  0  0
    5.6820    6.2580   47.7760 C   0  0  0  0  0  0
    6.9880    6.6520   48.2680 C   0  0  0  0  0  0
    7.7450    7.6220   47.5000 C   0  0  0  0  0  0
    7.2010    8.1750   46.2730 C   0  0  0  0  0  0
    8.3290    7.8690   43.0010 C   0  0  0  0  0  0
    9.7430    8.0310   42.6790 C   0  0  0  0  0  0
   10.3300    9.2460   42.1470 C   0  0  0  0  0  0
    9.4080   10.3150   42.0010 N   0  0  0  0  0  0
    7.8580   10.1350   42.3520 N   0  0  0  0  0  0
   10.7430    6.9950   42.6320 C   0  0  0  0  0  0
   11.8930    7.5550   42.0390 N   0  0  0  0  0  0
   11.6460    8.9790   41.6930 N   0  0  0  0  0  0
   10.5930    5.6300   42.9600 N   0  0  0  0  0  0
   12.5110    9.6130   40.7630 C   0  0  0  0  0  0
   12.2240    9.3830   39.3590 C   0  0  0  0  0  0
   11.2810    8.4130   38.8260 C   0  0  0  0  0  0
    1.0423    9.6705   40.8734 H   0  0  0  0  0  0
    1.4174    8.8774   43.2862 H   0  0  0  0  0  0
    5.4328    9.5170   40.2870 H   0  0  0  0  0  0
    3.1055    9.9550   39.3750 H   0  0  0  0  0  0
    4.1980    6.4621   46.1729 H   0  0  0  0  0  0
    5.0782    5.5525   48.3467 H   0  0  0  0  0  0
    7.3897    6.2308   49.1896 H   0  0  0  0  0  0
    8.7290    7.9379   47.8465 H   0  0  0  0  0  0
    7.7843    8.9257   45.7398 H   0  0  0  0  0  0
    8.0037    6.9005   43.3808 H   0  0  0  0  0  0
    9.6601    5.2746   43.4219 H   0  0  0  0  0  0
   11.4091    4.9219   42.7537 H   0  0  0  0  0  0
   12.4680   10.7028   40.9063 H   0  0  0  0  0  0
   13.5414    9.2626   40.9228 H   0  0  0  0  0  0
   11.8404   10.3094   38.9066 H   0  0  0  0  0  0
   13.1452    9.0765   38.8418 H   0  0  0  0  0  0
   11.2792    8.4688   37.7274 H   0  0  0  0  0  0
   10.2728    8.6347   39.2061 H   0  0  0  0  0  0
   11.5776    7.4018   39.1413 H   0  0  0  0  0  0
  1  2  2  0  0  0
  1  6  1  0  0  0
  1 29  1  0  0  0
  2  3  1  0  0  0
  2 30  1  0  0  0
  3  4  2  0  0  0
  3  7  1  0  0  0
  4  5  1  0  0  0
  4  9  1  0  0  0
  5  6  2  0  0  0
  5 31  1  0  0  0
  6 32  1  0  0  0
  7  8  2  0  0  0
  8  9  1  0  0  0
  8 11  1  0  0  0
  9 10  1  0  0  0
 10 17  2  0  0  0
 10 21  1  0  0  0
 11 12  2  0  0  0
 11 16  1  0  0  0
 12 13  1  0  0  0
 12 33  1  0  0  0
 13 14  2  0  0  0
 13 34  1  0  0  0
 14 15  1  0  0  0
 14 35  1  0  0  0
 15 16  2  0  0  0
 15 36  1  0  0  0
 16 37  1  0  0  0
 17 18  1  0  0  0
 17 38  1  0  0  0
 18 19  2  0  0  0
 18 22  1  0  0  0
 19 20  1  0  0  0
 19 24  1  0  0  0
 20 21  2  0  0  0
 22 23  2  0  0  0
 22 25  1  0  0  0
 23 24  1  0  0  0
 24 26  1  0  0  0
 25 39  1  0  0  0
 25 40  1  0  0  0
 26 27  1  0  0  0
 26 41  1  0  0  0
 26 42  1  0  0  0
 27 28  1  0  0  0
 27 43  1  0  0  0
 27 44  1  0  0  0
 28 45  1  0  0  0
 28 46  1  0  0  0
 28 47  1  0  0  0
M  END
> <s_m_source_file>
../1wzy_ligand.sdf

> <i_m_source_file_index>
1

> <s_epik_input>
W2NIXTFbY0hdW2NIXVtjSF1bY0hdYzFDKD1OMilbQ0hdKGMoYzIzKVtjSF1bY0hdW2NIXVtjSF0zKWMoW2NIXTQpbm5jKGM0NSluKG5jNVtOSDJdKVtDSDJdW0NIMl1bQ0gzXQ==

> <s_epik_cmdline>
J2VwaWtfYXBwJywgJy1pbWFlJywgJ2xpZ2FuZF9wcm8ubWFlJywgJy1vbWFlJywgJ2xpZ2FuZF9wcmVwLm1hZScsICctbXMnLCAnMScsICctcGgnLCAnNycsICctcGh0JywgJzAuNScsICctbnQn

> <r_lp_tautomer_probability>
1

> <r_epik_Ionization_Penalty>
  0.0003

> <r_epik_Ionization_Penalty_Charging>
  0.0000

> <r_epik_Ionization_Penalty_Neutral>
  0.0003

> <r_epik_State_Penalty>
 -0.0000

> <r_epik_Charging_Adjusted_Penalty>
0

> <i_epik_Tot_Q>
0

> <i_epik_Tot_abs_Q>
0

> <s_epik_Chemistry_Notes>
This compound has an imine and may undergo hydrolysis.

$$$$
