1x07_ligand
                    3D
 Schrodinger Suite 2020-3.
 23 22  0  0  1  0            999 V2000
   20.6880   17.3210   23.3160 C   0  0  0  0  0  0
   19.5310   17.8080   22.6130 O   0  0  0  0  0  0
   21.9970   18.0750   23.1000 C   0  0  0  0  0  0
   23.1760   17.7630   23.6860 C   0  0  0  0  0  0
   23.2950   16.5720   24.6630 C   0  0  0  0  0  0
   24.3900   18.6180   23.3590 C   0  0  0  0  0  0
   19.5880   18.5250   21.1330 P   0  0  1  0  0  0
   20.1960   19.9180   21.3310 O   0  0  0  0  0  0
   20.3300   17.4550   20.2550 O   0  5  0  0  0  0
   18.2980   18.9790   20.4150 O   0  0  0  0  0  0
   17.5070   18.1420   19.3580 P   0  0  0  0  0  0
   16.0910   18.0120   19.4960 O   0  0  0  0  0  0
   18.1620   16.7900   19.0610 O   0  5  0  0  0  0
   17.5090   18.8730   17.9850 O   0  5  0  0  0  0
   20.5009   17.3572   24.3994 H   0  0  0  0  0  0
   20.8909   16.2831   23.0135 H   0  0  0  0  0  0
   21.9350   18.9290   22.4095 H   0  0  0  0  0  0
   22.3148   16.0838   24.7670 H   0  0  0  0  0  0
   23.6296   16.9359   25.6457 H   0  0  0  0  0  0
   24.0254   15.8484   24.2718 H   0  0  0  0  0  0
   24.1017   19.4084   22.6503 H   0  0  0  0  0  0
   25.1712   17.9884   22.9081 H   0  0  0  0  0  0
   24.7754   19.0758   24.2820 H   0  0  0  0  0  0
  1  2  1  0  0  0
  1  3  1  0  0  0
  1 15  1  0  0  0
  1 16  1  0  0  0
  2  7  1  0  0  0
  3  4  2  0  0  0
  3 17  1  0  0  0
  4  5  1  0  0  0
  4  6  1  0  0  0
  5 18  1  0  0  0
  5 19  1  0  0  0
  5 20  1  0  0  0
  6 21  1  0  0  0
  6 22  1  0  0  0
  6 23  1  0  0  0
  7  8  2  0  0  0
  7  9  1  0  0  0
  7 10  1  0  0  0
 10 11  1  0  0  0
 11 12  2  0  0  0
 11 13  1  0  0  0
 11 14  1  0  0  0
M  CHG  3   9  -1  13  -1  14  -1
M  END
> <s_m_source_file>
../1x07_ligand.sdf

> <i_m_source_file_index>
1

> <s_epik_input>
W0NIM11DKFtDSDNdKT1bQ0hdW0NIMl1PW1BAQF0oPU8pKFtPSF0pT1AoPU8pKFtPSF0pW09IXQ==

> <s_epik_cmdline>
J2VwaWtfYXBwJywgJy1pbWFlJywgJ2xpZ2FuZF9wcm8ubWFlJywgJy1vbWFlJywgJ2xpZ2FuZF9wcmVwLm1hZScsICctbXMnLCAnMScsICctcGgnLCAnNycsICctcGh0JywgJzAuNScsICctbnQn

> <r_epik_Ionization_Penalty>
  0.0892

> <r_epik_Ionization_Penalty_Charging>
  0.0892

> <r_epik_Ionization_Penalty_Neutral>
  0.0000

> <r_epik_State_Penalty>
  0.0783

> <r_epik_Charging_Adjusted_Penalty>
0.167440865651361

> <i_epik_Tot_Q>
-3

> <i_epik_Tot_abs_Q>
3

$$$$
