1x0n_ligand
                    3D
 Schrodinger Suite 2020-3.
 93 97  0  0  1  0            999 V2000
   20.3270  -10.7830   -8.4540 C   0  0  0  0  0  0
   21.1480   -9.6480   -8.3740 C   0  0  0  0  0  0
   21.8310   -9.3390   -7.2050 C   0  0  0  0  0  0
   21.7360  -10.1730   -6.0990 C   0  0  0  0  0  0
   20.9400  -11.3100   -6.1350 C   0  0  0  0  0  0
   20.2170  -11.6260   -7.2890 C   0  0  0  0  0  0
   19.3920  -12.7460   -7.3230 C   0  0  0  0  0  0
   18.6920  -13.0680   -8.4770 C   0  0  0  0  0  0
   18.8020  -12.2770   -9.6130 C   0  0  0  0  0  0
   19.6040  -11.1300   -9.6230 C   0  0  0  0  0  0
   19.6930  -10.3540  -10.9680 C   0  0  0  0  0  0
   19.0930   -8.9040  -10.9630 C   0  0  2  0  0  0
   17.5830   -8.9700  -11.3410 C   0  0  0  0  0  0
   16.8340   -7.6620  -11.5150 C   0  0  0  0  0  0
   15.8970   -7.4800  -12.4530 C   0  0  0  0  0  0
   20.0230   -7.9340  -11.7690 C   0  0  0  0  0  0
   19.7950   -6.4800  -11.5650 N   0  0  0  0  0  0
   19.9520   -5.8460  -10.3810 C   0  0  0  0  0  0
   20.4060   -6.4330   -9.3950 O   0  0  0  0  0  0
   19.5830   -4.3150  -10.2710 C   0  0  2  0  0  0
   19.1510   -3.8090   -8.8630 C   0  0  0  0  0  0
   17.9990   -4.5400   -8.1590 C   0  0  0  0  0  0
   16.8240   -4.3060   -8.4130 O   0  0  0  0  0  0
   18.2950   -5.4240   -7.2440 N   0  0  0  0  0  0
   18.5380   -3.8080  -11.2130 N   0  0  0  0  0  0
   18.7720   -2.8870  -12.1670 C   0  0  0  0  0  0
   19.9060   -2.4130  -12.2970 O   0  0  0  0  0  0
   17.5550   -2.3690  -13.0720 C   0  0  0  0  0  0
   18.0840   -1.7780  -14.4330 C   0  0  0  0  0  0
   17.1090   -0.8940  -15.2600 C   0  0  0  0  0  0
   16.3750    0.1660  -14.4040 C   0  0  0  0  0  0
   15.7830   -0.3890  -13.0900 C   0  0  0  0  0  0
   16.8380   -1.2070  -12.2890 C   0  0  0  0  0  0
   16.4490   -3.3570  -13.3220 N   0  0  0  0  0  0
   16.6020   -4.5860  -13.8140 C   0  0  0  0  0  0
   17.6800   -5.0500  -14.1780 O   0  0  0  0  0  0
   15.3160   -5.4140  -13.8580 C   0  0  0  0  0  0
   15.0110   -6.2400  -12.5710 C   0  0  1  0  0  0
   13.5180   -6.6650  -12.4720 C   0  0  0  0  0  0
   12.7800   -6.3450  -11.3230 C   0  0  0  0  0  0
   11.4570   -6.7620  -11.1920 C   0  0  0  0  0  0
   12.8850   -7.3810  -13.5020 C   0  0  0  0  0  0
   11.5660   -7.7970  -13.3700 C   0  0  0  0  0  0
   10.8520   -7.5050  -12.2070 C   0  0  0  0  0  0
    9.4310   -8.0440  -12.0290 C   0  0  0  0  0  0
    8.4080   -7.8840  -13.4290 P   0  0  0  0  0  0
    8.9080   -8.8090  -14.5570 O   0  0  0  0  0  0
    8.3710   -6.4360  -13.9700 O   0  5  0  0  0  0
    6.9240   -8.3120  -13.0460 O   0  0  0  0  0  0
   21.2514   -8.9985   -9.2432 H   0  0  0  0  0  0
   22.4436   -8.4388   -7.1556 H   0  0  0  0  0  0
   22.2922   -9.9326   -5.1929 H   0  0  0  0  0  0
   20.8786  -11.9582   -5.2608 H   0  0  0  0  0  0
   19.2950  -13.3743   -6.4376 H   0  0  0  0  0  0
   18.0505  -13.9491   -8.4919 H   0  0  0  0  0  0
   18.2538  -12.5544  -10.5133 H   0  0  0  0  0  0
   20.7479  -10.2483  -11.2612 H   0  0  0  0  0  0
   19.1496  -10.9080  -11.7476 H   0  0  0  0  0  0
   19.0762   -8.4450   -9.9635 H   0  0  0  0  0  0
   17.4679   -9.4948  -12.3009 H   0  0  0  0  0  0
   17.0324   -9.5124  -10.5583 H   0  0  0  0  0  0
   17.0906   -6.8425  -10.8276 H   0  0  0  0  0  0
   15.7211   -8.2560  -13.2125 H   0  0  0  0  0  0
   21.0717   -8.1169  -11.4918 H   0  0  0  0  0  0
   19.8922   -8.1117  -12.8466 H   0  0  0  0  0  0
   19.4778   -5.8493  -12.4086 H   0  0  0  0  0  0
   20.5398   -3.8677  -10.5784 H   0  0  0  0  0  0
   20.0024   -3.8815   -8.1702 H   0  0  0  0  0  0
   18.8245   -2.7610   -8.9342 H   0  0  0  0  0  0
   19.3475   -5.6410   -7.0089 H   0  0  0  0  0  0
   17.4918   -5.9515   -6.7086 H   0  0  0  0  0  0
   17.5082   -4.1895  -11.1491 H   0  0  0  0  0  0
   18.9603   -1.1416  -14.2404 H   0  0  0  0  0  0
   18.3693   -2.6015  -15.1041 H   0  0  0  0  0  0
   17.6706   -0.3604  -16.0409 H   0  0  0  0  0  0
   16.3444   -1.5310  -15.7287 H   0  0  0  0  0  0
   17.0775    0.9672  -14.1309 H   0  0  0  0  0  0
   15.5411    0.5908  -14.9821 H   0  0  0  0  0  0
   15.4394    0.4457  -12.4613 H   0  0  0  0  0  0
   14.9332   -1.0484  -13.3204 H   0  0  0  0  0  0
   16.3049   -1.6237  -11.4217 H   0  0  0  0  0  0
   17.5880   -0.4801  -11.9438 H   0  0  0  0  0  0
   15.4075   -3.0860  -13.0942 H   0  0  0  0  0  0
   14.4553   -4.7466  -14.0118 H   0  0  0  0  0  0
   15.3728   -6.1359  -14.6861 H   0  0  0  0  0  0
   15.2495   -5.5774  -11.7260 H   0  0  0  0  0  0
   13.2454   -5.7652  -10.5259 H   0  0  0  0  0  0
   10.8931   -6.5074  -10.2947 H   0  0  0  0  0  0
   13.4346   -7.6125  -14.4143 H   0  0  0  0  0  0
   11.0878   -8.3527  -14.1766 H   0  0  0  0  0  0
    9.4732   -9.1165  -11.7883 H   0  0  0  0  0  0
    8.9338   -7.5037  -11.2099 H   0  0  0  0  0  0
    6.7287   -9.3148  -12.6384 H   0  0  0  0  0  0
  1  2  2  0  0  0
  1  6  1  0  0  0
  1 10  1  0  0  0
  2  3  1  0  0  0
  2 50  1  0  0  0
  3  4  2  0  0  0
  3 51  1  0  0  0
  4  5  1  0  0  0
  4 52  1  0  0  0
  5  6  2  0  0  0
  5 53  1  0  0  0
  6  7  1  0  0  0
  7  8  2  0  0  0
  7 54  1  0  0  0
  8  9  1  0  0  0
  8 55  1  0  0  0
  9 10  2  0  0  0
  9 56  1  0  0  0
 10 11  1  0  0  0
 11 12  1  0  0  0
 11 57  1  0  0  0
 11 58  1  0  0  0
 12 13  1  0  0  0
 12 16  1  0  0  0
 12 59  1  0  0  0
 13 14  1  0  0  0
 13 60  1  0  0  0
 13 61  1  0  0  0
 14 15  2  0  0  0
 14 62  1  0  0  0
 15 38  1  0  0  0
 15 63  1  0  0  0
 16 17  1  0  0  0
 16 64  1  0  0  0
 16 65  1  0  0  0
 17 18  1  0  0  0
 17 66  1  0  0  0
 18 19  2  0  0  0
 18 20  1  0  0  0
 20 21  1  0  0  0
 20 25  1  0  0  0
 20 67  1  0  0  0
 21 22  1  0  0  0
 21 68  1  0  0  0
 21 69  1  0  0  0
 22 23  2  0  0  0
 22 24  1  0  0  0
 24 70  1  0  0  0
 24 71  1  0  0  0
 25 26  1  0  0  0
 25 72  1  0  0  0
 26 27  2  0  0  0
 26 28  1  0  0  0
 28 29  1  0  0  0
 28 33  1  0  0  0
 28 34  1  0  0  0
 29 30  1  0  0  0
 29 73  1  0  0  0
 29 74  1  0  0  0
 30 31  1  0  0  0
 30 75  1  0  0  0
 30 76  1  0  0  0
 31 32  1  0  0  0
 31 77  1  0  0  0
 31 78  1  0  0  0
 32 33  1  0  0  0
 32 79  1  0  0  0
 32 80  1  0  0  0
 33 81  1  0  0  0
 33 82  1  0  0  0
 34 35  1  0  0  0
 34 83  1  0  0  0
 35 36  2  0  0  0
 35 37  1  0  0  0
 37 38  1  0  0  0
 37 84  1  0  0  0
 37 85  1  0  0  0
 38 39  1  0  0  0
 38 86  1  0  0  0
 39 40  2  0  0  0
 39 42  1  0  0  0
 40 41  1  0  0  0
 40 87  1  0  0  0
 41 44  2  0  0  0
 41 88  1  0  0  0
 42 43  2  0  0  0
 42 89  1  0  0  0
 43 44  1  0  0  0
 43 90  1  0  0  0
 44 45  1  0  0  0
 45 46  1  0  0  0
 45 91  1  0  0  0
 45 92  1  0  0  0
 46 47  2  0  0  0
 46 48  1  0  0  0
 46 49  1  0  0  0
 49 93  1  0  0  0
M  CHG  1  48  -1
M  END
> <s_m_source_file>
../1x0n_ligand.sdf

> <i_m_source_file_index>
1

> <s_epik_input>
Tz1QKFtPSF0pKFtPSF0pW0NIMl1jKFtjSF1bY0hdMSlbY0hdW2NIXWMxW0NASF0oW0NIMl1DKD1PKVtOSF0yKVxbQ0hdPVtDSF1cW0NIMl1bQ0BASF0oW0NIMl1jM1tjSF1bY0hdW2NIXWMoYzM0KVtjSF1bY0hdW2NIXVtjSF00KVtDSDJdW05IXUMoPU8pW0NASF0oW0NIMl1DKD1PKVtOSDJdKVtOSF1DKD1PKUMyNVtDSDJdW0NIMl1bQ0gyXVtDSDJdW0NIMl01

> <s_epik_cmdline>
J2VwaWtfYXBwJywgJy1pbWFlJywgJ2xpZ2FuZF9wcm8ubWFlJywgJy1vbWFlJywgJ2xpZ2FuZF9wcmVwLm1hZScsICctbXMnLCAnMScsICctcGgnLCAnNycsICctcGh0JywgJzAuNScsICctbnQn

> <r_epik_Ionization_Penalty>
  0.1722

> <r_epik_Ionization_Penalty_Charging>
  0.0000

> <r_epik_Ionization_Penalty_Neutral>
  0.1722

> <r_epik_State_Penalty>
  0.1616

> <r_epik_Charging_Adjusted_Penalty>
0.161647721330304

> <i_epik_Tot_Q>
-1

> <i_epik_Tot_abs_Q>
1

$$$$
