1x11_ligand
                    3D
 Schrodinger Suite 2020-3.
203207  0  0  1  0            999 V2000
   53.9220   13.7040   59.9180 N   0  3  0  0  0  0
   52.9330   12.5940   59.9950 C   0  0  2  0  0  0
   53.6620   11.2420   60.0090 C   0  0  0  0  0  0
   53.8530   10.6140   58.9670 O   0  0  0  0  0  0
   51.9810   12.6560   58.7980 C   0  0  0  0  0  0
   50.8140   11.6950   58.8840 C   0  0  0  0  0  0
   50.2930   11.3050   57.5140 C   0  0  0  0  0  0
   51.0770   11.0290   56.5930 O   0  0  0  0  0  0
   48.9670   11.2680   57.3670 N   0  0  0  0  0  0
   54.0600   10.8050   61.1970 N   0  0  0  0  0  0
   54.7720    9.5420   61.3590 C   0  0  2  0  0  0
   54.2090    8.7450   62.5240 C   0  0  0  0  0  0
   53.6880    9.3050   63.4900 O   0  0  0  0  0  0
   56.2540    9.7840   61.6350 C   0  0  0  0  0  0
   56.9360   10.5010   60.5140 C   0  0  0  0  0  0
   56.7950   10.1240   59.3450 O   0  0  0  0  0  0
   57.6460   11.5730   60.8410 N   0  0  0  0  0  0
   54.3270    7.4280   62.4360 N   0  0  0  0  0  0
   53.8390    6.5790   63.5000 C   0  0  0  0  0  0
   54.7920    5.4330   63.7440 C   0  0  0  0  0  0
   55.4790    4.9760   62.8240 O   0  0  0  0  0  0
   54.8120    4.9590   64.9830 N   0  0  0  0  0  0
   55.6710    3.8510   65.3680 C   0  0  2  0  0  0
   54.8440    2.8280   66.1350 C   0  0  0  0  0  0
   54.1130    3.1750   67.0640 O   0  0  0  0  0  0
   56.8440    4.3460   66.2220 C   0  0  0  0  0  0
   57.6270    5.4510   65.5720 C   0  0  0  0  0  0
   57.2610    6.7810   65.7550 C   0  0  0  0  0  0
   58.7130    5.1690   64.7500 C   0  0  0  0  0  0
   57.9570    7.8120   65.1260 C   0  0  0  0  0  0
   59.4260    6.1910   64.1130 C   0  0  0  0  0  0
   59.0410    7.5160   64.3050 C   0  0  0  0  0  0
   59.7180    8.5450   63.6750 O   0  0  0  0  0  0
   54.8920    1.5850   65.6720 N   0  0  0  0  0  0
   54.1720    0.4970   66.2990 C   0  0  2  0  0  0
   55.1360   -0.2110   67.2530 C   0  0  0  0  0  0
   56.3090   -0.4190   66.9230 O   0  0  0  0  0  0
   53.6940   -0.4680   65.2250 C   0  0  0  0  0  0
   53.1860   -1.8140   65.7410 C   0  0  0  0  0  0
   51.8750   -1.7430   66.5100 C   0  0  0  0  0  0
   50.9620   -0.9770   66.1170 O   0  0  0  0  0  0
   51.7460   -2.4890   67.5100 O   0  0  0  0  0  0
   54.6640   -0.5290   68.4500 N   0  0  0  0  0  0
   55.4810   -1.2300   69.4280 C   0  0  2  0  0  0
   55.3470   -2.7180   69.1020 C   0  0  0  0  0  0
   54.3000   -3.3160   69.3450 O   0  0  0  0  0  0
   54.9640   -0.9530   70.8320 C   0  0  0  0  0  0
   55.8010   -1.6300   71.8850 C   0  0  0  0  0  0
   56.8180   -2.2670   71.5670 O   0  0  0  0  0  0
   55.3890   -1.5120   73.1400 N   0  0  0  0  0  0
   56.4280   -3.3570   68.6110 N   0  0  0  0  0  0
   56.4070   -4.7900   68.2480 C   0  0  2  0  0  0
   56.2180   -5.7690   69.3990 C   0  0  0  0  0  0
   55.5250   -6.7780   69.2920 O   0  0  0  0  0  0
   57.7730   -4.9880   67.5990 C   0  0  0  0  0  0
   58.2350   -3.5830   67.2670 C   0  0  0  0  0  0
   57.7720   -2.8040   68.4330 C   0  0  0  0  0  0
   56.9040   -5.4850   70.4890 N   0  0  0  0  0  0
   56.8460   -6.3070   71.6770 C   0  0  2  0  0  0
   55.4080   -6.4060   72.1650 C   0  0  0  0  0  0
   54.9760   -7.4670   72.6290 O   0  0  0  0  0  0
   57.7490   -5.6930   72.7790 C   0  0  2  0  0  0
   59.1020   -5.6170   72.2900 O   0  0  0  0  0  0
   57.6760   -6.5060   74.0730 C   0  0  0  0  0  0
   54.6730   -5.3010   72.0250 N   0  0  0  0  0  0
   53.2790   -5.2040   72.4530 C   0  0  2  0  0  0
   52.4700   -6.3730   71.9010 C   0  0  0  0  0  0
   51.7150   -7.0260   72.6300 O   0  0  0  0  0  0
   52.6790   -3.8710   71.9940 C   0  0  0  0  0  0
   51.2060   -3.7670   72.2470 C   0  0  0  0  0  0
   50.2900   -4.2350   71.3070 C   0  0  0  0  0  0
   50.7260   -3.2900   73.4640 C   0  0  0  0  0  0
   48.9360   -4.2470   71.5770 C   0  0  0  0  0  0
   49.3670   -3.2940   73.7460 C   0  0  0  0  0  0
   48.4760   -3.7820   72.7990 C   0  0  0  0  0  0
   47.1380   -3.8620   73.0930 O   0  0  0  0  0  0
   52.6510   -6.6150   70.6060 N   0  0  0  0  0  0
   52.0250   -7.7040   69.8630 C   0  0  2  0  0  0
   51.9330   -9.0150   70.6510 C   0  0  0  0  0  0
   50.9570   -9.7570   70.5230 O   0  0  0  0  0  0
   52.8800   -7.9720   68.6210 C   0  0  0  0  0  0
   52.3410   -8.9690   67.6350 C   0  0  0  0  0  0
   53.3970   -9.2910   66.5960 C   0  0  0  0  0  0
   54.1230   -8.0500   66.0980 C   0  0  0  0  0  0
   53.2510   -7.1410   65.3040 N   0  3  0  0  0  0
   52.9780   -9.3180   71.4170 N   0  0  0  0  0  0
   53.0520  -10.5570   72.1920 C   0  0  2  0  0  0
   52.5180  -10.4420   73.6250 C   0  0  0  0  0  0
   52.8490  -11.2640   74.4770 O   0  0  0  0  0  0
   54.5030  -11.0650   72.2330 C   0  0  0  0  0  0
   55.1570  -11.2090   70.8700 C   0  0  0  0  0  0
   55.0780  -12.4090   70.1630 C   0  0  0  0  0  0
   55.9290  -10.1780   70.3390 C   0  0  0  0  0  0
   55.7650  -12.5840   68.9450 C   0  0  0  0  0  0
   56.6150  -10.3450   69.1260 C   0  0  0  0  0  0
   56.5360  -11.5550   68.4310 C   0  0  0  0  0  0
   51.7020   -9.4330   73.8950 N   0  0  0  0  0  0
   51.1430   -9.2500   75.2290 C   0  0  2  0  0  0
   49.6500   -8.8980   75.2080 C   0  0  0  0  0  0
   48.9080   -9.4030   74.3310 O   0  0  0  0  0  0
   51.9000   -8.1550   75.9830 C   0  0  0  0  0  0
   53.1920   -8.6110   76.6090 C   0  0  0  0  0  0
   54.3140   -8.8650   75.8260 C   0  0  0  0  0  0
   53.2890   -8.7560   77.9910 C   0  0  0  0  0  0
   55.5180   -9.2590   76.4120 C   0  0  0  0  0  0
   54.4890   -9.1490   78.5880 C   0  0  0  0  0  0
   55.6050   -9.4020   77.7980 C   0  0  0  0  0  0
   53.3916   14.6676   59.9085 H   0  0  0  0  0  0
   54.5156   13.6030   58.9974 H   0  0  0  0  0  0
   54.5896   13.6615   60.7912 H   0  0  0  0  0  0
   52.3658   12.7273   60.9280 H   0  0  0  0  0  0
   51.5600   13.6690   58.7164 H   0  0  0  0  0  0
   52.5326   12.4130   57.8778 H   0  0  0  0  0  0
   51.1312   10.7786   59.4032 H   0  0  0  0  0  0
   49.9912   12.1663   59.4417 H   0  0  0  0  0  0
   48.3125   11.5215   58.2139 H   0  0  0  0  0  0
   48.5287   10.9840   56.3989 H   0  0  0  0  0  0
   53.8375   11.4276   62.0761 H   0  0  0  0  0  0
   54.6178    9.0145   60.4061 H   0  0  0  0  0  0
   56.3628   10.3948   62.5433 H   0  0  0  0  0  0
   56.7625    8.8193   61.7788 H   0  0  0  0  0  0
   57.7420   11.8682   61.8963 H   0  0  0  0  0  0
   58.1387   12.1666   60.0568 H   0  0  0  0  0  0
   54.7987    6.9812   61.5484 H   0  0  0  0  0  0
   53.7447    7.1674   64.4246 H   0  0  0  0  0  0
   52.8555    6.1720   63.2225 H   0  0  0  0  0  0
   54.1536    5.4292   65.7283 H   0  0  0  0  0  0
   56.0579    3.4136   64.4358 H   0  0  0  0  0  0
   56.4638    4.7288   67.1806 H   0  0  0  0  0  0
   57.5383    3.5136   66.4091 H   0  0  0  0  0  0
   56.4162    7.0205   66.4008 H   0  0  0  0  0  0
   59.0144    4.1324   64.5991 H   0  0  0  0  0  0
   57.6529    8.8478   65.2769 H   0  0  0  0  0  0
   60.2750    5.9524   63.4724 H   0  0  0  0  0  0
   59.4052    9.5876   63.8339 H   0  0  0  0  0  0
   55.5063    1.3958   64.7793 H   0  0  0  0  0  0
   53.3075    0.9164   66.8345 H   0  0  0  0  0  0
   52.8632   -0.0125   64.6662 H   0  0  0  0  0  0
   54.5221   -0.6887   64.5355 H   0  0  0  0  0  0
   53.0215   -2.4937   64.8919 H   0  0  0  0  0  0
   53.9317   -2.2510   66.4214 H   0  0  0  0  0  0
   50.0129   -0.9232   66.6705 H   0  0  0  0  0  0
   53.6288   -0.2504   68.6965 H   0  0  0  0  0  0
   56.5179   -0.8698   69.3574 H   0  0  0  0  0  0
   54.9825    0.1302   71.0225 H   0  0  0  0  0  0
   53.9323   -1.3236   70.9226 H   0  0  0  0  0  0
   54.4803   -0.9359   73.3687 H   0  0  0  0  0  0
   55.9560   -1.9902   73.9523 H   0  0  0  0  0  0
   55.5283   -4.9778   67.6135 H   0  0  0  0  0  0
   58.4479   -5.4869   68.3100 H   0  0  0  0  0  0
   57.6644   -5.6101   66.6984 H   0  0  0  0  0  0
   59.3294   -3.5733   67.1569 H   0  0  0  0  0  0
   57.7689   -3.2566   66.3256 H   0  0  0  0  0  0
   57.7014   -1.7229   68.2425 H   0  0  0  0  0  0
   58.3637   -2.9779   69.3439 H   0  0  0  0  0  0
   57.5372   -4.5857   70.4728 H   0  0  0  0  0  0
   57.2016   -7.3038   71.3773 H   0  0  0  0  0  0
   57.4598   -4.6565   73.0069 H   0  0  0  0  0  0
   59.3221   -5.0648   71.3645 H   0  0  0  0  0  0
   56.6336   -6.5469   74.4220 H   0  0  0  0  0  0
   58.3016   -6.0287   74.8416 H   0  0  0  0  0  0
   58.0403   -7.5269   73.8856 H   0  0  0  0  0  0
   55.1673   -4.4349   71.5608 H   0  0  0  0  0  0
   53.2905   -5.2552   73.5517 H   0  0  0  0  0  0
   53.1670   -3.0447   72.5317 H   0  0  0  0  0  0
   52.8391   -3.7499   70.9125 H   0  0  0  0  0  0
   50.6480   -4.5973   70.3433 H   0  0  0  0  0  0
   51.4275   -2.9081   74.2057 H   0  0  0  0  0  0
   48.2324   -4.6203   70.8329 H   0  0  0  0  0  0
   49.0024   -2.9176   74.7018 H   0  0  0  0  0  0
   46.4322   -4.2485   72.3430 H   0  0  0  0  0  0
   53.3310   -5.9189   70.0931 H   0  0  0  0  0  0
   51.0071   -7.3449   69.6512 H   0  0  0  0  0  0
   53.0126   -7.0362   68.0582 H   0  0  0  0  0  0
   53.8633   -8.3571   68.9289 H   0  0  0  0  0  0
   52.0591   -9.8917   68.1634 H   0  0  0  0  0  0
   51.4564   -8.5483   67.1345 H   0  0  0  0  0  0
   54.1456   -9.9688   67.0320 H   0  0  0  0  0  0
   52.9233   -9.7763   65.7299 H   0  0  0  0  0  0
   54.5043   -7.4787   66.9572 H   0  0  0  0  0  0
   54.9636   -8.3502   65.4551 H   0  0  0  0  0  0
   53.8340   -6.2679   64.9757 H   0  0  0  0  0  0
   52.4078   -6.8061   65.9259 H   0  0  0  0  0  0
   52.8671   -7.6775   64.4238 H   0  0  0  0  0  0
   53.8066   -8.5955   71.4545 H   0  0  0  0  0  0
   52.3819  -11.2295   71.6364 H   0  0  0  0  0  0
   55.1209  -10.3632   72.8123 H   0  0  0  0  0  0
   54.5310  -12.0567   72.7082 H   0  0  0  0  0  0
   54.4744  -13.2254   70.5595 H   0  0  0  0  0  0
   56.0011   -9.2300   70.8721 H   0  0  0  0  0  0
   55.6895  -13.5293   68.4076 H   0  0  0  0  0  0
   57.2125   -9.5268   68.7239 H   0  0  0  0  0  0
   57.0760  -11.6874   67.4935 H   0  0  0  0  0  0
   51.4484   -8.7267   73.0908 H   0  0  0  0  0  0
   51.2810  -10.2356   75.6976 H   0  0  0  0  0  0
   49.2287   -8.2084   75.9543 H   0  0  0  0  0  0
   52.1497   -7.3381   75.2899 H   0  0  0  0  0  0
   51.2690   -7.7662   76.7958 H   0  0  0  0  0  0
   54.2519   -8.7551   74.7433 H   0  0  0  0  0  0
   52.4169   -8.5602   78.6148 H   0  0  0  0  0  0
   56.3898   -9.4549   75.7878 H   0  0  0  0  0  0
   54.5505   -9.2571   79.6709 H   0  0  0  0  0  0
   56.5434   -9.7105   78.2588 H   0  0  0  0  0  0
  1  2  1  0  0  0
  1108  1  0  0  0
  1109  1  0  0  0
  1110  1  0  0  0
  2  5  1  0  0  0
  2  3  1  0  0  0
  2111  1  0  0  0
  3  4  2  0  0  0
  3 10  1  0  0  0
  5  6  1  0  0  0
  5112  1  0  0  0
  5113  1  0  0  0
  6  7  1  0  0  0
  6114  1  0  0  0
  6115  1  0  0  0
  7  9  1  0  0  0
  7  8  2  0  0  0
  9116  1  0  0  0
  9117  1  0  0  0
 10 11  1  0  0  0
 10118  1  0  0  0
 11 14  1  0  0  0
 11 12  1  0  0  0
 11119  1  0  0  0
 12 13  2  0  0  0
 12 18  1  0  0  0
 14 15  1  0  0  0
 14120  1  0  0  0
 14121  1  0  0  0
 15 17  1  0  0  0
 15 16  2  0  0  0
 17122  1  0  0  0
 17123  1  0  0  0
 18 19  1  0  0  0
 18124  1  0  0  0
 19 20  1  0  0  0
 19125  1  0  0  0
 19126  1  0  0  0
 20 21  2  0  0  0
 20 22  1  0  0  0
 22 23  1  0  0  0
 22127  1  0  0  0
 23 26  1  0  0  0
 23 24  1  0  0  0
 23128  1  0  0  0
 24 25  2  0  0  0
 24 34  1  0  0  0
 26 27  1  0  0  0
 26129  1  0  0  0
 26130  1  0  0  0
 27 28  2  0  0  0
 27 29  1  0  0  0
 28 30  1  0  0  0
 28131  1  0  0  0
 29 31  2  0  0  0
 29132  1  0  0  0
 30 32  2  0  0  0
 30133  1  0  0  0
 31 32  1  0  0  0
 31134  1  0  0  0
 32 33  1  0  0  0
 33135  1  0  0  0
 34 35  1  0  0  0
 34136  1  0  0  0
 35 38  1  0  0  0
 35 36  1  0  0  0
 35137  1  0  0  0
 36 37  2  0  0  0
 36 43  1  0  0  0
 38 39  1  0  0  0
 38138  1  0  0  0
 38139  1  0  0  0
 39 40  1  0  0  0
 39140  1  0  0  0
 39141  1  0  0  0
 40 42  2  0  0  0
 40 41  1  0  0  0
 41142  1  0  0  0
 43 44  1  0  0  0
 43143  1  0  0  0
 44 47  1  0  0  0
 44 45  1  0  0  0
 44144  1  0  0  0
 45 46  2  0  0  0
 45 51  1  0  0  0
 47 48  1  0  0  0
 47145  1  0  0  0
 47146  1  0  0  0
 48 50  1  0  0  0
 48 49  2  0  0  0
 50147  1  0  0  0
 50148  1  0  0  0
 51 52  1  0  0  0
 51 57  1  0  0  0
 52 53  1  0  0  0
 52 55  1  0  0  0
 52149  1  0  0  0
 53 54  2  0  0  0
 53 58  1  0  0  0
 55 56  1  0  0  0
 55150  1  0  0  0
 55151  1  0  0  0
 56 57  1  0  0  0
 56152  1  0  0  0
 56153  1  0  0  0
 57154  1  0  0  0
 57155  1  0  0  0
 58 59  1  0  0  0
 58156  1  0  0  0
 59 62  1  0  0  0
 59 60  1  0  0  0
 59157  1  0  0  0
 60 61  2  0  0  0
 60 65  1  0  0  0
 62 64  1  0  0  0
 62 63  1  0  0  0
 62158  1  0  0  0
 63159  1  0  0  0
 64160  1  0  0  0
 64161  1  0  0  0
 64162  1  0  0  0
 65 66  1  0  0  0
 65163  1  0  0  0
 66 69  1  0  0  0
 66 67  1  0  0  0
 66164  1  0  0  0
 67 68  2  0  0  0
 67 77  1  0  0  0
 69 70  1  0  0  0
 69165  1  0  0  0
 69166  1  0  0  0
 70 71  2  0  0  0
 70 72  1  0  0  0
 71 73  1  0  0  0
 71167  1  0  0  0
 72 74  2  0  0  0
 72168  1  0  0  0
 73 75  2  0  0  0
 73169  1  0  0  0
 74 75  1  0  0  0
 74170  1  0  0  0
 75 76  1  0  0  0
 76171  1  0  0  0
 77 78  1  0  0  0
 77172  1  0  0  0
 78 81  1  0  0  0
 78 79  1  0  0  0
 78173  1  0  0  0
 79 80  2  0  0  0
 79 86  1  0  0  0
 81 82  1  0  0  0
 81174  1  0  0  0
 81175  1  0  0  0
 82 83  1  0  0  0
 82176  1  0  0  0
 82177  1  0  0  0
 83 84  1  0  0  0
 83178  1  0  0  0
 83179  1  0  0  0
 84 85  1  0  0  0
 84180  1  0  0  0
 84181  1  0  0  0
 85182  1  0  0  0
 85183  1  0  0  0
 85184  1  0  0  0
 86 87  1  0  0  0
 86185  1  0  0  0
 87 90  1  0  0  0
 87 88  1  0  0  0
 87186  1  0  0  0
 88 89  2  0  0  0
 88 97  1  0  0  0
 90 91  1  0  0  0
 90187  1  0  0  0
 90188  1  0  0  0
 91 92  2  0  0  0
 91 93  1  0  0  0
 92 94  1  0  0  0
 92189  1  0  0  0
 93 95  2  0  0  0
 93190  1  0  0  0
 94 96  2  0  0  0
 94191  1  0  0  0
 95 96  1  0  0  0
 95192  1  0  0  0
 96193  1  0  0  0
 97 98  1  0  0  0
 97194  1  0  0  0
 98101  1  0  0  0
 98 99  1  0  0  0
 98195  1  0  0  0
 99100  2  0  0  0
 99196  1  0  0  0
101102  1  0  0  0
101197  1  0  0  0
101198  1  0  0  0
102103  2  0  0  0
102104  1  0  0  0
103105  1  0  0  0
103199  1  0  0  0
104106  2  0  0  0
104200  1  0  0  0
105107  2  0  0  0
105201  1  0  0  0
106107  1  0  0  0
106202  1  0  0  0
107203  1  0  0  0
M  CHG  2   1   1  85   1
M  END
> <s_m_source_file>
../1x11_ligand.sdf

> <i_m_source_file_index>
1

> <s_epik_input>
Tz1DKFtOSDJdKVtDSDJdW0NIMl1bQ0BIXShbTkgzK10pQyg9TylbTkhdW0NAQEhdKFtDSDJdQyg9TylbTkgyXSlDKD1PKVtOSF1bQ0gyXUMoPU8pW05IXVtDQEBIXShbQ0gyXWMxW2NIXVtjSF1jKFtPSF0pW2NIXVtjSF0xKUMoPU8pW05IXVtDQEBIXShbQ0gyXVtDSDJdQyg9TylbT0hdKUMoPU8pW05IXVtDQEBIXShbQ0gyXUMoPU8pW05IMl0pQyg9TylOMltDQEBIXShbQ0gyXVtDSDJdW0NIMl0yKUMoPU8pW05IXVtDQEBIXShbQ0BIXShbT0hdKVtDSDNdKUMoPU8pW05IXVtDQEBIXShbQ0gyXWMzW2NIXVtjSF1jKFtPSF0pW2NIXVtjSF0zKUMoPU8pW05IXVtDQEBIXShbQ0gyXVtDSDJdW0NIMl1bQ0gyXVtOSDMrXSlDKD1PKVtOSF1bQ0BASF0oW0NIMl1jNFtjSF1bY0hdW2NIXVtjSF1bY0hdNClDKD1PKVtOSF1bQ0BIXShbQ0hdPU8pW0NIMl1jNVtjSF1bY0hdW2NIXVtjSF1bY0hdNQ==

> <s_epik_cmdline>
J2VwaWtfYXBwJywgJy1pbWFlJywgJ2xpZ2FuZF9wcm8ubWFlJywgJy1vbWFlJywgJ2xpZ2FuZF9wcmVwLm1hZScsICctbXMnLCAnMScsICctcGgnLCAnNycsICctcGh0JywgJzAuNScsICctbnQn

> <s_epik_pKa_notes>
Molecule size exceeds maximum supported for generating protonation states

$$$$
