1x1z_ligand
                    3D
 Schrodinger Suite 2020-3.
 32 33  0  0  1  0            999 V2000
   24.5890  -15.9930    8.7310 P   0  0  0  0  0  0
   25.8850  -15.2300    8.8790 O   0  5  0  0  0  0
   23.4250  -15.0490    8.5920 O   0  0  0  0  0  0
   24.6850  -16.9770    7.5900 O   0  5  0  0  0  0
   24.2760  -16.8040   10.0820 O   0  0  0  0  0  0
   25.3360  -17.3930   10.8650 C   0  0  0  0  0  0
   24.5700  -18.0980   11.9540 C   0  0  1  0  0  0
   25.4970  -18.9710   12.6590 O   0  0  0  0  0  0
   24.0090  -17.2220   13.0130 C   0  0  1  0  0  0
   22.8550  -17.8020   13.6440 O   0  0  0  0  0  0
   25.1330  -17.1190   14.0520 C   0  0  1  0  0  0
   24.6400  -16.7680   15.3100 O   0  0  0  0  0  0
   25.7490  -18.4970   13.9880 C   0  0  2  0  0  0
   27.2100  -18.6080   14.2190 N   0  0  0  0  0  0
   28.1140  -17.8160   13.5290 C   0  0  0  0  0  0
   27.7620  -17.0320   12.6790 O   0  0  0  0  0  0
   29.4100  -17.9790   13.8380 N   0  0  0  0  0  0
   29.9410  -18.8820   14.7960 C   0  0  0  0  0  0
   31.1580  -18.8920   14.9280 O   0  5  0  0  0  0
   28.9890  -19.6960   15.4790 C   0  0  0  0  0  0
   27.6490  -19.5780   15.1830 C   0  0  0  0  0  0
   26.7510  -20.2950   15.7020 O   0  0  0  0  0  0
   25.9188  -18.0807   10.2346 H   0  0  0  0  0  0
   25.9944  -16.5989   11.2471 H   0  0  0  0  0  0
   23.7377  -18.6186   11.4577 H   0  0  0  0  0  0
   23.6385  -16.2780   12.5867 H   0  0  0  0  0  0
   21.9338  -17.9625   13.0647 H   0  0  0  0  0  0
   25.8586  -16.2999   13.9396 H   0  0  0  0  0  0
   24.1715  -15.7845   15.4623 H   0  0  0  0  0  0
   25.2934  -19.1063   14.7825 H   0  0  0  0  0  0
   30.1769  -17.3780   13.3275 H   0  0  0  0  0  0
   29.3212  -20.4095   16.2331 H   0  0  0  0  0  0
  1  2  1  0  0  0
  1  3  2  0  0  0
  1  4  1  0  0  0
  1  5  1  0  0  0
  5  6  1  0  0  0
  6  7  1  0  0  0
  6 23  1  0  0  0
  6 24  1  0  0  0
  7  8  1  0  0  0
  7  9  1  0  0  0
  7 25  1  0  0  0
  8 13  1  0  0  0
  9 10  1  0  0  0
  9 11  1  0  0  0
  9 26  1  0  0  0
 10 27  1  0  0  0
 11 12  1  0  0  0
 11 13  1  0  0  0
 11 28  1  0  0  0
 12 29  1  0  0  0
 13 14  1  0  0  0
 13 30  1  0  0  0
 14 15  1  0  0  0
 14 21  1  0  0  0
 15 16  2  0  0  0
 15 17  1  0  0  0
 17 18  1  0  0  0
 17 31  1  0  0  0
 18 19  1  0  0  0
 18 20  2  0  0  0
 20 21  1  0  0  0
 20 32  1  0  0  0
 21 22  2  0  0  0
M  CHG  3   2  -1   4  -1  19  -1
M  END
> <s_m_source_file>
../1x1z_ligand.sdf

> <i_m_source_file_index>
1

> <s_epik_input>
W09IXVAoPU8pKFtPSF0pT1tDSDJdW0NASF0xT1tDQEhdKFtDQEhdKFtPSF0pW0NAQEhdMVtPSF0pbjJjKD1PKVtuSF1jKD1PKVtjSF1jMltPSF0=

> <s_epik_cmdline>
J2VwaWtfYXBwJywgJy1pbWFlJywgJ2xpZ2FuZF9wcm8ubWFlJywgJy1vbWFlJywgJ2xpZ2FuZF9wcmVwLm1hZScsICctbXMnLCAnMScsICctcGgnLCAnNycsICctcGh0JywgJzAuNScsICctbnQn

> <r_lp_tautomer_probability>
0.9999999990364

> <r_epik_Ionization_Penalty>
  0.1062

> <r_epik_Ionization_Penalty_Charging>
  0.1057

> <r_epik_Ionization_Penalty_Neutral>
  0.0005

> <r_epik_State_Penalty>
  0.0955

> <r_epik_Charging_Adjusted_Penalty>
0.201178237609322

> <i_epik_Tot_Q>
-3

> <i_epik_Tot_abs_Q>
3

> <s_epik_Chemistry_Notes>
This compound contains an acetal/aminal-like group ( X-CH(R)-Y where X, Y are N, S, or O) that may be acid/base labile, releasing an aldehyde.

$$$$
