1x6u_ligand
                    3D
 Schrodinger Suite 2020-3.
 32 32  0  0  1  0            999 V2000
    7.1600  -12.3990   42.0860 C   0  0  0  0  0  0
    6.2080  -12.8690   42.7410 O   0  0  0  0  0  0
    8.2210  -12.0410   42.7120 O   0  5  0  0  0  0
    7.0020  -12.2480   40.5790 C   0  0  1  0  0  0
    5.9940  -13.3600   40.0880 C   0  0  0  0  0  0
    5.5880  -13.0450   38.6500 C   0  0  1  0  0  0
    4.6350  -14.0970   38.3050 O   0  0  0  0  0  0
    4.9280  -11.6690   38.5650 C   0  0  1  0  0  0
    3.7310  -11.6210   39.3890 O   0  0  0  0  0  0
    6.0020  -10.5650   38.9960 C   0  0  2  0  0  0
    6.5500  -10.8280   40.3720 O   0  0  0  0  0  0
    5.4810   -9.0040   39.1090 C   0  0  2  0  0  0
    5.0100   -7.9130   39.9760 O   0  0  0  0  0  0
    4.9200   -8.8600   37.6280 C   0  0  0  0  0  0
    5.0230   -6.0150   38.1070 P   0  0  0  0  0  0
    3.6990   -6.2530   39.1620 O   0  5  0  0  0  0
    6.4510   -5.7360   38.9410 O   0  0  0  0  0  0
    5.2480   -7.4650   37.1590 O   0  0  0  0  0  0
    4.6130   -4.6690   37.1830 O   0  5  0  0  0  0
    8.3360  -12.4810   39.8950 O   0  0  0  0  0  0
    6.4834  -14.3441   40.1330 H   0  0  0  0  0  0
    5.1058  -13.3622   40.7370 H   0  0  0  0  0  0
    6.4323  -13.0513   37.9449 H   0  0  0  0  0  0
    4.9508  -15.1506   38.3168 H   0  0  0  0  0  0
    4.5237  -11.5003   37.5560 H   0  0  0  0  0  0
    2.9070  -12.3257   39.2035 H   0  0  0  0  0  0
    6.7693  -10.7072   38.2207 H   0  0  0  0  0  0
    6.0749   -8.6251   39.9539 H   0  0  0  0  0  0
    5.3165   -7.8782   41.0319 H   0  0  0  0  0  0
    5.3996   -9.6083   36.9799 H   0  0  0  0  0  0
    3.8318   -9.0209   37.6308 H   0  0  0  0  0  0
    8.8148  -13.4700   39.9457 H   0  0  0  0  0  0
  1  2  2  0  0  0
  1  3  1  0  0  0
  1  4  1  0  0  0
  4  5  1  0  0  0
  4 11  1  0  0  0
  4 20  1  0  0  0
  5  6  1  0  0  0
  5 21  1  0  0  0
  5 22  1  0  0  0
  6  7  1  0  0  0
  6  8  1  0  0  0
  6 23  1  0  0  0
  7 24  1  0  0  0
  8  9  1  0  0  0
  8 10  1  0  0  0
  8 25  1  0  0  0
  9 26  1  0  0  0
 10 11  1  0  0  0
 10 12  1  0  0  0
 10 27  1  0  0  0
 12 13  1  0  0  0
 12 14  1  0  0  0
 12 28  1  0  0  0
 13 29  1  0  0  0
 14 18  1  0  0  0
 14 30  1  0  0  0
 14 31  1  0  0  0
 15 16  1  0  0  0
 15 17  2  0  0  0
 15 18  1  0  0  0
 15 19  1  0  0  0
 20 32  1  0  0  0
M  CHG  3   3  -1  16  -1  19  -1
M  END
> <s_m_source_file>
../1x6u_ligand.sdf

> <i_m_source_file_index>
1

> <s_epik_input>
Tz1DKFtPSF0pW0NAQF0xKFtPSF0pW0NIMl1bQ0BASF0oW09IXSlbQ0BASF0oW09IXSlbQ0BIXShPMSlbQ0BIXShbT0hdKVtDSDJdT1AoPU8pKFtPSF0pW09IXQ==

> <s_epik_cmdline>
J2VwaWtfYXBwJywgJy1pbWFlJywgJ2xpZ2FuZF9wcm8ubWFlJywgJy1vbWFlJywgJ2xpZ2FuZF9wcmVwLm1hZScsICctbXMnLCAnMScsICctcGgnLCAnNycsICctcGh0JywgJzAuNScsICctbnQn

> <r_epik_Ionization_Penalty>
  0.1125

> <r_epik_Ionization_Penalty_Charging>
  0.1125

> <r_epik_Ionization_Penalty_Neutral>
  0.0000

> <r_epik_State_Penalty>
  0.1022

> <r_epik_Charging_Adjusted_Penalty>
0.214636865224461

> <i_epik_Tot_Q>
-3

> <i_epik_Tot_abs_Q>
3

$$$$
