1x7b_ligand
                    3D
 Schrodinger Suite 2020-3.
 30 32  0  0  1  0            999 V2000
   32.6400   37.6170   35.8010 C   0  0  0  0  0  0
   31.3210   37.9160   36.2740 C   0  0  0  0  0  0
   30.8000   37.1700   37.3600 C   0  0  0  0  0  0
   31.5580   36.1150   38.0040 C   0  0  0  0  0  0
   32.8680   35.8300   37.5210 C   0  0  0  0  0  0
   33.4090   36.5770   36.4230 C   0  0  0  0  0  0
   29.6100   37.2450   37.9950 O   0  0  0  0  0  0
   29.5810   36.3170   38.9840 C   0  0  0  0  0  0
   30.7540   35.6090   39.0150 N   0  0  0  0  0  0
   28.4060   36.1630   39.8870 C   0  0  0  0  0  0
   28.5480   35.5620   41.1890 C   0  0  0  0  0  0
   27.4280   35.4370   42.0620 C   0  0  0  0  0  0
   26.1530   35.9250   41.6190 C   0  0  0  0  0  0
   26.0230   36.5210   40.3230 C   0  0  0  0  0  0
   27.1300   36.6450   39.4540 C   0  0  0  0  0  0
   34.6790   36.3130   35.9550 O   0  0  0  0  0  0
   24.8090   36.9640   39.9610 F   0  0  0  0  0  0
   25.0730   35.8110   42.4620 O   0  0  0  0  0  0
   30.5070   38.9990   35.6340 C   0  0  0  0  0  0
   29.6480   39.8330   36.2750 C   0  0  0  0  0  0
   33.0600   38.1802   34.9676 H   0  0  0  0  0  0
   33.4601   35.0425   37.9872 H   0  0  0  0  0  0
   29.5240   35.1984   41.5104 H   0  0  0  0  0  0
   27.5376   34.9803   43.0456 H   0  0  0  0  0  0
   27.0141   37.1001   38.4704 H   0  0  0  0  0  0
   35.0858   36.8911   35.1122 H   0  0  0  0  0  0
   25.1952   35.3498   43.4532 H   0  0  0  0  0  0
   30.6519   39.0879   34.5472 H   0  0  0  0  0  0
   29.5031   39.7441   37.3618 H   0  0  0  0  0  0
   29.0971   40.5975   35.7074 H   0  0  0  0  0  0
  1  2  2  0  0  0
  1  6  1  0  0  0
  1 21  1  0  0  0
  2  3  1  0  0  0
  2 19  1  0  0  0
  3  4  2  0  0  0
  3  7  1  0  0  0
  4  5  1  0  0  0
  4  9  1  0  0  0
  5  6  2  0  0  0
  5 22  1  0  0  0
  6 16  1  0  0  0
  7  8  1  0  0  0
  8  9  2  0  0  0
  8 10  1  0  0  0
 10 11  2  0  0  0
 10 15  1  0  0  0
 11 12  1  0  0  0
 11 23  1  0  0  0
 12 13  2  0  0  0
 12 24  1  0  0  0
 13 14  1  0  0  0
 13 18  1  0  0  0
 14 15  2  0  0  0
 14 17  1  0  0  0
 15 25  1  0  0  0
 16 26  1  0  0  0
 18 27  1  0  0  0
 19 20  2  0  0  0
 19 28  1  0  0  0
 20 29  1  0  0  0
 20 30  1  0  0  0
M  END
> <s_m_source_file>
../1x7b_ligand.sdf

> <i_m_source_file_index>
1

> <s_epik_input>
W0NIMl09W0NIXWMxW2NIXWMoW09IXSlbY0hdYyhjMTIpbmMobzIpLWMzW2NIXVtjSF1jKFtPSF0pYyhGKVtjSF0z

> <s_epik_cmdline>
J2VwaWtfYXBwJywgJy1pbWFlJywgJ2xpZ2FuZF9wcm8ubWFlJywgJy1vbWFlJywgJ2xpZ2FuZF9wcmVwLm1hZScsICctbXMnLCAnMScsICctcGgnLCAnNycsICctcGh0JywgJzAuNScsICctbnQn

> <r_lp_tautomer_probability>
0.999999999997365

> <r_epik_Ionization_Penalty>
  0.3816

> <r_epik_Ionization_Penalty_Charging>
  0.0000

> <r_epik_Ionization_Penalty_Neutral>
  0.3816

> <r_epik_State_Penalty>
  0.3505

> <r_epik_Charging_Adjusted_Penalty>
0.350471805449059

> <i_epik_Tot_Q>
0

> <i_epik_Tot_abs_Q>
0

$$$$
