1x7q_ligand
                    3D
 Schrodinger Suite 2020-3.
154157  0  0  1  0            999 V2000
    1.4240   41.2080   34.7880 N   0  3  0  0  0  0
    0.8730   42.5350   34.6040 C   0  0  2  0  0  0
    1.4520   43.5340   35.6050 C   0  0  0  0  0  0
    1.6160   43.2000   36.7800 O   0  0  0  0  0  0
   -0.6330   42.5150   34.8100 C   0  0  0  0  0  0
   -1.3770   42.0720   33.5660 C   0  0  0  0  0  0
   -2.8380   42.4430   33.6090 C   0  0  0  0  0  0
   -3.5330   41.9530   32.3390 C   0  0  0  0  0  0
   -4.9540   42.4580   32.3280 N   0  3  0  0  0  0
    1.7130   44.7370   35.1000 N   0  0  0  0  0  0
    2.3220   45.8140   35.8730 C   0  0  2  0  0  0
    1.3670   46.4080   36.9040 C   0  0  0  0  0  0
    0.1370   46.2840   36.8150 O   0  0  0  0  0  0
    2.8000   46.9420   34.9660 C   0  0  2  0  0  0
    1.7340   47.3360   34.0730 O   0  0  0  0  0  0
    4.0160   46.5440   34.1570 C   0  0  0  0  0  0
    1.9590   47.0350   37.9070 N   0  0  0  0  0  0
    1.2480   47.8810   38.8650 C   0  0  2  0  0  0
    1.1820   49.2970   38.3230 C   0  0  0  0  0  0
    2.1900   49.7970   37.8010 O   0  0  0  0  0  0
    2.0330   47.8170   40.1630 C   0  0  0  0  0  0
    1.5160   48.6170   41.3460 C   0  0  0  0  0  0
    0.2370   48.4080   41.8260 C   0  0  0  0  0  0
    2.3060   49.5760   41.9810 C   0  0  0  0  0  0
   -0.2690   49.1220   42.9100 C   0  0  0  0  0  0
    1.8270   50.2850   43.0570 C   0  0  0  0  0  0
    0.5440   50.0520   43.5330 C   0  0  0  0  0  0
    0.0800   50.0510   38.3490 N   0  0  0  0  0  0
    0.0990   51.4280   37.8520 C   0  0  2  0  0  0
    1.0460   52.3070   38.6670 C   0  0  0  0  0  0
    1.4750   51.9330   39.7380 O   0  0  0  0  0  0
   -1.3000   51.9330   38.0410 C   0  0  0  0  0  0
   -2.1480   50.7770   38.4200 C   0  0  0  0  0  0
   -1.2680   49.6390   38.7930 C   0  0  0  0  0  0
    1.4490   53.4440   38.1180 N   0  0  0  0  0  0
    2.4530   54.2710   38.8030 C   0  0  2  0  0  0
    2.0790   54.6200   40.2310 C   0  0  0  0  0  0
    0.9510   54.9620   40.5560 O   0  0  0  0  0  0
    2.5390   55.5060   37.9090 C   0  0  0  0  0  0
    1.9050   55.1470   36.6310 C   0  0  0  0  0  0
    1.0070   53.9490   36.8070 C   0  0  0  0  0  0
    3.0080   54.5170   41.1970 N   0  0  0  0  0  0
    2.6180   54.9240   42.5430 C   0  0  2  0  0  0
    2.8380   56.4300   42.7210 C   0  0  0  0  0  0
    3.1550   57.1830   41.7810 O   0  0  0  0  0  0
    3.4100   54.1420   43.6030 C   0  0  2  0  0  0
    2.7130   54.1190   44.8480 O   0  0  0  0  0  0
    4.7620   54.8290   43.7510 C   0  0  0  0  0  0
    2.5980   56.8900   43.9530 N   0  0  0  0  0  0
    2.5440   58.2790   44.3310 C   0  0  2  0  0  0
    3.9100   58.8980   43.9930 C   0  0  0  0  0  0
    4.9520   58.2530   44.1530 O   0  0  0  0  0  0
    2.1770   58.5310   45.8130 C   0  0  0  0  0  0
    0.7710   59.1340   45.9410 C   0  0  0  0  0  0
    0.8140   60.6260   46.1960 C   0  0  0  0  0  0
    1.4070   61.0700   47.2110 O   0  0  0  0  0  0
    0.2690   61.4200   45.3990 O   0  0  0  0  0  0
    3.9210   60.1260   43.5350 N   0  0  0  0  0  0
    5.1980   60.8150   43.3490 C   0  0  2  0  0  0
    6.0110   60.8710   44.6370 C   0  0  0  0  0  0
    5.4960   60.9030   45.7540 O   0  0  0  0  0  0
    4.7720   62.2190   42.8880 C   0  0  0  0  0  0
    3.4980   61.9150   42.1310 C   0  0  0  0  0  0
    2.8060   60.9970   43.1020 C   0  0  0  0  0  0
    7.3280   60.9100   44.4540 N   0  0  0  0  0  0
    8.3010   60.9930   45.5320 C   0  0  2  0  0  0
    8.4050   62.3830   46.1540 C   0  0  0  0  0  0
    9.0340   62.4900   47.2620 O   0  0  0  0  0  0
    9.6650   60.5160   44.9930 C   0  0  0  0  0  0
    9.6300   58.9880   44.7510 C   0  0  0  0  0  0
   10.9180   58.4740   44.1450 C   0  0  0  0  0  0
   11.0360   56.9810   44.3300 C   0  0  0  0  0  0
   10.8310   56.2510   43.1180 N   0  3  0  0  0  0
    7.8600   63.3260   45.5330 O   0  0  0  0  0  0
    2.5130   41.2388   34.6359 H   0  0  0  0  0  0
    0.9714   40.5189   34.0598 H   0  0  0  0  0  0
    1.2060   40.8587   35.8080 H   0  0  0  0  0  0
    1.1520   42.7932   33.5718 H   0  0  0  0  0  0
   -0.8826   41.8175   35.6231 H   0  0  0  0  0  0
   -0.9805   43.5248   35.0736 H   0  0  0  0  0  0
   -0.9304   42.5504   32.6818 H   0  0  0  0  0  0
   -1.3064   40.9788   33.4663 H   0  0  0  0  0  0
   -3.3095   41.9750   34.4858 H   0  0  0  0  0  0
   -2.9368   43.5363   33.6794 H   0  0  0  0  0  0
   -2.9976   42.3351   31.4573 H   0  0  0  0  0  0
   -3.5310   40.8531   32.3210 H   0  0  0  0  0  0
   -5.4602   42.1087   31.4160 H   0  0  0  0  0  0
   -4.9524   43.5578   32.3482 H   0  0  0  0  0  0
   -5.4858   42.0758   33.2118 H   0  0  0  0  0  0
    1.4462   44.8998   34.0454 H   0  0  0  0  0  0
    3.1632   45.3144   36.3757 H   0  0  0  0  0  0
    3.0538   47.8179   35.5811 H   0  0  0  0  0  0
    0.7654   47.6596   34.4818 H   0  0  0  0  0  0
    4.8269   46.2443   34.8372 H   0  0  0  0  0  0
    4.3459   47.3977   33.5469 H   0  0  0  0  0  0
    3.7588   45.7008   33.4991 H   0  0  0  0  0  0
    3.0459   46.8929   37.9994 H   0  0  0  0  0  0
    0.2201   47.5173   39.0102 H   0  0  0  0  0  0
    2.0732   46.7760   40.5162 H   0  0  0  0  0  0
    3.0551   48.1859   39.9920 H   0  0  0  0  0  0
   -0.3944   47.6627   41.3423 H   0  0  0  0  0  0
    3.3165   49.7655   41.6190 H   0  0  0  0  0  0
   -1.2867   48.9510   43.2608 H   0  0  0  0  0  0
    2.4571   51.0330   43.5382 H   0  0  0  0  0  0
    0.1765   50.6026   44.3990 H   0  0  0  0  0  0
    0.4283   51.4231   36.8025 H   0  0  0  0  0  0
   -1.3111   52.6931   38.8361 H   0  0  0  0  0  0
   -1.6587   52.3795   37.1019 H   0  0  0  0  0  0
   -2.7830   51.0527   39.2748 H   0  0  0  0  0  0
   -2.7831   50.4932   37.5679 H   0  0  0  0  0  0
   -1.5565   48.7115   38.2767 H   0  0  0  0  0  0
   -1.2595   49.4665   39.8794 H   0  0  0  0  0  0
    3.3973   53.7177   38.9134 H   0  0  0  0  0  0
    2.0090   56.3427   38.3876 H   0  0  0  0  0  0
    3.5944   55.7779   37.7598 H   0  0  0  0  0  0
    1.3043   55.9944   36.2689 H   0  0  0  0  0  0
    2.6824   54.9059   35.8910 H   0  0  0  0  0  0
    1.1619   53.1723   36.0437 H   0  0  0  0  0  0
   -0.0610   54.2081   36.8549 H   0  0  0  0  0  0
    4.0258   54.1451   41.0081 H   0  0  0  0  0  0
    1.5481   54.6821   42.6254 H   0  0  0  0  0  0
    3.5111   53.0746   43.3572 H   0  0  0  0  0  0
    1.7171   53.6564   44.9123 H   0  0  0  0  0  0
    5.2789   54.8341   42.7800 H   0  0  0  0  0  0
    5.3711   54.2848   44.4878 H   0  0  0  0  0  0
    4.6120   55.8640   44.0920 H   0  0  0  0  0  0
    2.4341   56.1076   44.7086 H   0  0  0  0  0  0
    1.7175   58.6856   43.7297 H   0  0  0  0  0  0
    2.2025   57.5793   46.3640 H   0  0  0  0  0  0
    2.9009   59.2307   46.2562 H   0  0  0  0  0  0
    0.2117   58.9610   45.0098 H   0  0  0  0  0  0
    0.2426   58.6575   46.7799 H   0  0  0  0  0  0
    1.4399   62.1534   47.3988 H   0  0  0  0  0  0
    5.8283   60.2690   42.6316 H   0  0  0  0  0  0
    4.6129   62.8609   43.7670 H   0  0  0  0  0  0
    5.5608   62.6523   42.2555 H   0  0  0  0  0  0
    2.9512   62.8507   41.9428 H   0  0  0  0  0  0
    3.7465   61.4363   41.1723 H   0  0  0  0  0  0
    2.0213   60.3834   42.6354 H   0  0  0  0  0  0
    2.3905   61.5219   43.9748 H   0  0  0  0  0  0
    7.6674   60.8754   43.4082 H   0  0  0  0  0  0
    7.9084   60.3348   46.3211 H   0  0  0  0  0  0
    9.1331   63.4731   47.7455 H   0  0  0  0  0  0
    9.8842   61.0287   44.0448 H   0  0  0  0  0  0
   10.4510   60.7494   45.7263 H   0  0  0  0  0  0
    9.4722   58.4688   45.7078 H   0  0  0  0  0  0
    8.8079   58.7446   44.0619 H   0  0  0  0  0  0
   10.9331   58.7011   43.0688 H   0  0  0  0  0  0
   11.7738   58.9616   44.6347 H   0  0  0  0  0  0
   12.0418   56.7360   44.7020 H   0  0  0  0  0  0
   10.2834   56.6409   45.0566 H   0  0  0  0  0  0
   10.9295   55.1738   43.3177 H   0  0  0  0  0  0
   11.5821   56.5563   42.3746 H   0  0  0  0  0  0
    9.8237   56.4613   42.7292 H   0  0  0  0  0  0
  1  2  1  0  0  0
  1 75  1  0  0  0
  1 76  1  0  0  0
  1 77  1  0  0  0
  2  3  1  0  0  0
  2  5  1  0  0  0
  2 78  1  0  0  0
  3  4  2  0  0  0
  3 10  1  0  0  0
  5  6  1  0  0  0
  5 79  1  0  0  0
  5 80  1  0  0  0
  6  7  1  0  0  0
  6 81  1  0  0  0
  6 82  1  0  0  0
  7  8  1  0  0  0
  7 83  1  0  0  0
  7 84  1  0  0  0
  8  9  1  0  0  0
  8 85  1  0  0  0
  8 86  1  0  0  0
  9 87  1  0  0  0
  9 88  1  0  0  0
  9 89  1  0  0  0
 10 11  1  0  0  0
 10 90  1  0  0  0
 11 12  1  0  0  0
 11 14  1  0  0  0
 11 91  1  0  0  0
 12 13  2  0  0  0
 12 17  1  0  0  0
 14 15  1  0  0  0
 14 16  1  0  0  0
 14 92  1  0  0  0
 15 93  1  0  0  0
 16 94  1  0  0  0
 16 95  1  0  0  0
 16 96  1  0  0  0
 17 18  1  0  0  0
 17 97  1  0  0  0
 18 19  1  0  0  0
 18 21  1  0  0  0
 18 98  1  0  0  0
 19 20  2  0  0  0
 19 28  1  0  0  0
 21 22  1  0  0  0
 21 99  1  0  0  0
 21100  1  0  0  0
 22 23  2  0  0  0
 22 24  1  0  0  0
 23 25  1  0  0  0
 23101  1  0  0  0
 24 26  2  0  0  0
 24102  1  0  0  0
 25 27  2  0  0  0
 25103  1  0  0  0
 26 27  1  0  0  0
 26104  1  0  0  0
 27105  1  0  0  0
 28 29  1  0  0  0
 28 34  1  0  0  0
 29 30  1  0  0  0
 29 32  1  0  0  0
 29106  1  0  0  0
 30 31  2  0  0  0
 30 35  1  0  0  0
 32 33  1  0  0  0
 32107  1  0  0  0
 32108  1  0  0  0
 33 34  1  0  0  0
 33109  1  0  0  0
 33110  1  0  0  0
 34111  1  0  0  0
 34112  1  0  0  0
 35 36  1  0  0  0
 35 41  1  0  0  0
 36 37  1  0  0  0
 36 39  1  0  0  0
 36113  1  0  0  0
 37 38  2  0  0  0
 37 42  1  0  0  0
 39 40  1  0  0  0
 39114  1  0  0  0
 39115  1  0  0  0
 40 41  1  0  0  0
 40116  1  0  0  0
 40117  1  0  0  0
 41118  1  0  0  0
 41119  1  0  0  0
 42 43  1  0  0  0
 42120  1  0  0  0
 43 44  1  0  0  0
 43 46  1  0  0  0
 43121  1  0  0  0
 44 45  2  0  0  0
 44 49  1  0  0  0
 46 47  1  0  0  0
 46 48  1  0  0  0
 46122  1  0  0  0
 47123  1  0  0  0
 48124  1  0  0  0
 48125  1  0  0  0
 48126  1  0  0  0
 49 50  1  0  0  0
 49127  1  0  0  0
 50 51  1  0  0  0
 50 53  1  0  0  0
 50128  1  0  0  0
 51 52  2  0  0  0
 51 58  1  0  0  0
 53 54  1  0  0  0
 53129  1  0  0  0
 53130  1  0  0  0
 54 55  1  0  0  0
 54131  1  0  0  0
 54132  1  0  0  0
 55 56  1  0  0  0
 55 57  2  0  0  0
 56133  1  0  0  0
 58 59  1  0  0  0
 58 64  1  0  0  0
 59 60  1  0  0  0
 59 62  1  0  0  0
 59134  1  0  0  0
 60 61  2  0  0  0
 60 65  1  0  0  0
 62 63  1  0  0  0
 62135  1  0  0  0
 62136  1  0  0  0
 63 64  1  0  0  0
 63137  1  0  0  0
 63138  1  0  0  0
 64139  1  0  0  0
 64140  1  0  0  0
 65 66  1  0  0  0
 65141  1  0  0  0
 66 67  1  0  0  0
 66 69  1  0  0  0
 66142  1  0  0  0
 67 68  1  0  0  0
 67 74  2  0  0  0
 68143  1  0  0  0
 69 70  1  0  0  0
 69144  1  0  0  0
 69145  1  0  0  0
 70 71  1  0  0  0
 70146  1  0  0  0
 70147  1  0  0  0
 71 72  1  0  0  0
 71148  1  0  0  0
 71149  1  0  0  0
 72 73  1  0  0  0
 72150  1  0  0  0
 72151  1  0  0  0
 73152  1  0  0  0
 73153  1  0  0  0
 73154  1  0  0  0
M  CHG  3   1   1   9   1  73   1
M  END
> <s_m_source_file>
../1x7q_ligand.sdf

> <i_m_source_file_index>
1

> <s_epik_input>
W05IMytdW0NIMl1bQ0gyXVtDSDJdW0NIMl1bQ0BIXShbTkgzK10pQyg9TylbTkhdW0NAQEhdKFtDQEhdKFtPSF0pW0NIM10pQyg9TylbTkhdW0NAQEhdKFtDSDJdYzFbY0hdW2NIXVtjSF1bY0hdW2NIXTEpQyg9TylOMltDQEBIXShbQ0gyXVtDSDJdW0NIMl0yKUMoPU8pTjNbQ0BASF0oW0NIMl1bQ0gyXVtDSDJdMylDKD1PKVtOSF1bQ0BASF0oW0NASF0oW09IXSlbQ0gzXSlDKD1PKVtOSF1bQ0BASF0oW0NIMl1bQ0gyXUMoPU8pW09IXSlDKD1PKU40W0NAQEhdKFtDSDJdW0NIMl1bQ0gyXTQpQyg9TylbTkhdW0NASF0oQyg9TylbT0hdKVtDSDJdW0NIMl1bQ0gyXVtDSDJdW05IMytd

> <s_epik_cmdline>
J2VwaWtfYXBwJywgJy1pbWFlJywgJ2xpZ2FuZF9wcm8ubWFlJywgJy1vbWFlJywgJ2xpZ2FuZF9wcmVwLm1hZScsICctbXMnLCAnMScsICctcGgnLCAnNycsICctcGh0JywgJzAuNScsICctbnQn

> <s_epik_pKa_notes>
Molecule size exceeds maximum supported for generating protonation states

$$$$
