1x8b_ligand
                    3D
 Schrodinger Suite 2020-3.
 35 39  0  0  1  0            999 V2000
    8.1890   55.6520   21.9340 O   0  0  0  0  0  0
    7.0210   55.2620   22.4050 C   0  0  0  0  0  0
    6.0450   54.8660   21.4330 C   0  0  0  0  0  0
    4.7660   54.3890   21.7500 C   0  0  0  0  0  0
    4.4030   54.3550   23.1030 C   0  0  0  0  0  0
    5.3970   54.7470   24.0960 C   0  0  0  0  0  0
    6.7120   55.1830   23.7850 C   0  0  0  0  0  0
    4.6770   54.5540   25.3490 C   0  0  0  0  0  0
    3.3430   54.0300   25.0930 C   0  0  0  0  0  0
    3.2710   53.9340   23.7350 N   0  0  0  0  0  0
    5.0330   54.7570   26.7210 C   0  0  0  0  0  0
    6.2490   55.1870   27.3920 C   0  0  0  0  0  0
    7.2990   55.6250   26.8410 O   0  5  0  0  0  0
    4.0930   54.4410   27.7600 C   0  0  3  0  0  0
    4.8590   54.7810   28.9710 C   0  0  0  0  0  0
    4.3970   54.6230   30.1430 O   0  0  0  0  0  0
    6.1320   55.1840   28.7310 N   0  0  0  0  0  0
    2.7320   53.9900   27.4820 C   0  0  0  0  0  0
    2.3990   53.7790   26.1090 C   0  0  0  0  0  0
    1.7480   53.6900   28.5320 C   0  0  0  0  0  0
    1.4460   54.6840   29.4920 C   0  0  0  0  0  0
    0.4900   54.4330   30.5090 C   0  0  0  0  0  0
   -0.2190   53.2380   30.4250 C   0  0  0  0  0  0
    0.0330   52.3000   29.4530 C   0  0  0  0  0  0
    1.0200   52.5030   28.4650 C   0  0  0  0  0  0
    6.3536   54.9554   20.3809 H   0  0  0  0  0  0
    4.0882   54.0584   20.9492 H   0  0  0  0  0  0
    7.3963   54.4740   24.2739 H   0  0  0  0  0  0
    6.8245   56.1766   24.2434 H   0  0  0  0  0  0
    1.3970   53.4169   25.8354 H   0  0  0  0  0  0
    1.9512   55.6489   29.4498 H   0  0  0  0  0  0
    0.3184   55.1425   31.3185 H   0  0  0  0  0  0
   -1.0022   53.0392   31.1566 H   0  0  0  0  0  0
   -0.5442   51.3754   29.4449 H   0  0  0  0  0  0
    1.2048   51.7649   27.6846 H   0  0  0  0  0  0
  1  2  2  0  0  0
  2  3  1  0  0  0
  2  7  1  0  0  0
  3  4  2  0  0  0
  3 26  1  0  0  0
  4  5  1  0  0  0
  4 27  1  0  0  0
  5  6  2  0  0  0
  5 10  1  0  0  0
  6  7  1  0  0  0
  6  8  1  0  0  0
  7 28  1  0  0  0
  7 29  1  0  0  0
  8  9  1  0  0  0
  8 11  2  0  0  0
  9 10  2  0  0  0
  9 19  1  0  0  0
 11 12  1  0  0  0
 11 14  1  0  0  0
 12 13  1  0  0  0
 12 17  2  0  0  0
 14 15  1  0  0  0
 14 18  1  0  0  0
 15 16  2  0  0  0
 15 17  1  0  0  0
 18 19  2  0  0  0
 18 20  1  0  0  0
 19 30  1  0  0  0
 20 21  2  0  0  0
 20 25  1  0  0  0
 21 22  1  0  0  0
 21 31  1  0  0  0
 22 23  2  0  0  0
 22 32  1  0  0  0
 23 24  1  0  0  0
 23 33  1  0  0  0
 24 25  2  0  0  0
 24 34  1  0  0  0
 25 35  1  0  0  0
M  CHG  1  13  -1
M  END
> <s_m_source_file>
../1x8b_ligand.sdf

> <i_m_source_file_index>
1

> <s_epik_input>
W0NIXTE9W0NIXUMoPU8pW0NIMl1DKD1DMTIpQzM9QzRbQ0hdKEMoPU8pW05IXUM0PU8pQyg9W0NIXUMzPU4yKWM1W2NIXVtjSF1bY0hdW2NIXVtjSF01

> <s_epik_cmdline>
J2VwaWtfYXBwJywgJy1pbWFlJywgJ2xpZ2FuZF9wcm8ubWFlJywgJy1vbWFlJywgJ2xpZ2FuZF9wcmVwLm1hZScsICctbXMnLCAnMScsICctcGgnLCAnNycsICctcGh0JywgJzAuNScsICctbnQn

> <r_lp_tautomer_probability>
1

> <r_epik_Ionization_Penalty>
  0.0000

> <r_epik_Ionization_Penalty_Charging>
  0.0000

> <r_epik_Ionization_Penalty_Neutral>
  0.0000

> <r_epik_State_Penalty>
 -0.0000

> <r_epik_Charging_Adjusted_Penalty>
1.13694242820041e-05

> <i_epik_Tot_Q>
-1

> <i_epik_Tot_abs_Q>
1

> <s_epik_Chemistry_Notes>
This compound has an imine and may undergo hydrolysis.

$$$$
