1x8d_ligand
                    3D
 Schrodinger Suite 2020-3.
 21 21  0  0  1  0            999 V2000
   11.2370   31.7770   10.2980 C   0  0  0  0  0  0
   12.1450   31.8480    9.0710 C   0  0  1  0  0  0
   11.3990   31.2440    7.8730 C   0  0  1  0  0  0
   10.0740   31.9830    7.6650 C   0  0  2  0  0  0
    9.2610   31.9360    8.9670 C   0  0  2  0  0  0
    7.9470   32.6880    8.8920 C   0  0  0  0  0  0
   11.8730   32.3340   11.3890 O   0  0  0  0  0  0
   12.4920   33.2080    8.8100 O   0  0  0  0  0  0
   12.1910   31.3340    6.6960 O   0  0  0  0  0  0
    9.3550   31.3560    6.6090 O   0  0  0  0  0  0
   10.0260   32.5060   10.0530 O   0  0  0  0  0  0
   13.1075   31.3436    9.2418 H   0  0  0  0  0  0
   11.2386   30.1649    8.0138 H   0  0  0  0  0  0
   10.2260   33.0202    7.3317 H   0  0  0  0  0  0
    9.0571   30.8787    9.1917 H   0  0  0  0  0  0
    7.3368   32.2792    8.0732 H   0  0  0  0  0  0
    8.1447   33.7538    8.7051 H   0  0  0  0  0  0
    7.4060   32.5767    9.8433 H   0  0  0  0  0  0
   13.0333   33.7928    9.5683 H   0  0  0  0  0  0
   13.1823   30.8584    6.6624 H   0  0  0  0  0  0
    9.7939   31.3007    5.6019 H   0  0  0  0  0  0
  1  2  1  0  0  0
  1  7  2  0  0  0
  1 11  1  0  0  0
  2  3  1  0  0  0
  2  8  1  0  0  0
  2 12  1  0  0  0
  3  4  1  0  0  0
  3  9  1  0  0  0
  3 13  1  0  0  0
  4  5  1  0  0  0
  4 10  1  0  0  0
  4 14  1  0  0  0
  5  6  1  0  0  0
  5 11  1  0  0  0
  5 15  1  0  0  0
  6 16  1  0  0  0
  6 17  1  0  0  0
  6 18  1  0  0  0
  8 19  1  0  0  0
  9 20  1  0  0  0
 10 21  1  0  0  0
M  END
> <s_m_source_file>
../1x8d_ligand.sdf

> <i_m_source_file_index>
1

> <s_epik_input>
Tz1DMVtDQEhdKFtPSF0pW0NASF0oW09IXSlbQ0BASF0oW09IXSlbQ0BASF0oTzEpW0NIM10=

> <s_epik_cmdline>
J2VwaWtfYXBwJywgJy1pbWFlJywgJ2xpZ2FuZF9wcm8ubWFlJywgJy1vbWFlJywgJ2xpZ2FuZF9wcmVwLm1hZScsICctbXMnLCAnMScsICctcGgnLCAnNycsICctcGh0JywgJzAuNScsICctbnQn

> <r_lp_tautomer_probability>
1

> <r_epik_Ionization_Penalty>
  0.0003

> <r_epik_Ionization_Penalty_Charging>
  0.0000

> <r_epik_Ionization_Penalty_Neutral>
  0.0003

> <r_epik_State_Penalty>
 -0.0000

> <r_epik_Charging_Adjusted_Penalty>
0

> <i_epik_Tot_Q>
0

> <i_epik_Tot_abs_Q>
0

> <s_epik_Chemistry_Notes>
This compound has an ester and may undergo hydrolysis at high or low pH.

$$$$
