1x8j_ligand
                    3D
 Schrodinger Suite 2020-3.
 51 54  0  0  1  0            999 V2000
   22.9800   -7.5390   41.0900 C   0  0  0  0  0  0
   24.3850   -8.1060   40.7770 C   0  0  0  0  0  0
   25.0090   -8.7760   42.0230 C   0  0  1  0  0  0
   25.3520   -7.7130   42.9430 O   0  0  0  0  0  0
   24.0890   -9.7800   42.6710 C   0  0  0  0  0  0
   22.6790   -9.2060   42.9830 C   0  0  2  0  0  0
   21.7460  -10.2660   43.6460 C   0  0  0  0  0  0
   20.3830   -9.6810   43.9470 C   0  0  0  0  0  0
   19.6740   -9.0990   42.6990 C   0  0  2  0  0  0
   20.5900   -8.0130   42.0410 C   0  0  1  0  0  0
   22.0060   -8.6220   41.6670 C   0  0  1  0  0  0
   19.8580   -7.4110   40.7930 C   0  0  0  0  0  0
   18.4480   -6.8110   41.1350 C   0  0  0  0  0  0
   17.5610   -7.8710   41.8020 C   0  0  1  0  0  0
   18.3140   -8.4700   43.0420 C   0  0  1  0  0  0
   17.1990   -9.3050   43.7140 C   0  0  0  0  0  0
   16.0410   -8.3040   43.7020 C   0  0  0  0  0  0
   16.2940   -7.3780   42.5030 C   0  0  0  0  0  0
   15.6040   -6.4500   42.2020 O   0  0  0  0  0  0
   17.0970   -8.9470   40.7530 C   0  0  0  0  0  0
   21.8310   -9.7350   40.5690 C   0  0  0  0  0  0
   23.0671   -6.7335   41.8340 H   0  0  0  0  0  0
   22.5320   -7.1398   40.1681 H   0  0  0  0  0  0
   24.3074   -8.8570   39.9770 H   0  0  0  0  0  0
   25.0456   -7.2893   40.4504 H   0  0  0  0  0  0
   25.9256   -9.3323   41.7773 H   0  0  0  0  0  0
   26.0181   -6.8995   42.6198 H   0  0  0  0  0  0
   23.9560  -10.6417   42.0003 H   0  0  0  0  0  0
   24.5273  -10.1192   43.6212 H   0  0  0  0  0  0
   22.8288   -8.4036   43.7204 H   0  0  0  0  0  0
   21.6192  -11.1202   42.9646 H   0  0  0  0  0  0
   22.1958  -10.6122   44.5882 H   0  0  0  0  0  0
   19.7314  -10.4641   44.3618 H   0  0  0  0  0  0
   20.4872   -8.8656   44.6779 H   0  0  0  0  0  0
   19.4786   -9.9346   42.0109 H   0  0  0  0  0  0
   20.7629   -7.1983   42.7596 H   0  0  0  0  0  0
   20.4686   -6.6027   40.3644 H   0  0  0  0  0  0
   19.7107   -8.1984   40.0391 H   0  0  0  0  0  0
   18.5682   -5.9611   41.8229 H   0  0  0  0  0  0
   17.9613   -6.4681   40.2101 H   0  0  0  0  0  0
   18.7264   -7.7678   43.7815 H   0  0  0  0  0  0
   17.0062  -10.2079   43.1160 H   0  0  0  0  0  0
   17.5182   -9.5964   44.7255 H   0  0  0  0  0  0
   15.0897   -8.8452   43.5923 H   0  0  0  0  0  0
   16.0347   -7.7392   44.6459 H   0  0  0  0  0  0
   17.9740   -9.3378   40.2163 H   0  0  0  0  0  0
   16.4040   -8.4841   40.0351 H   0  0  0  0  0  0
   16.5885   -9.7716   41.2740 H   0  0  0  0  0  0
   22.8148  -10.1548   40.3124 H   0  0  0  0  0  0
   21.3744   -9.2948   39.6702 H   0  0  0  0  0  0
   21.1814  -10.5336   40.9567 H   0  0  0  0  0  0
  1  2  1  0  0  0
  1 11  1  0  0  0
  1 22  1  0  0  0
  1 23  1  0  0  0
  2  3  1  0  0  0
  2 24  1  0  0  0
  2 25  1  0  0  0
  3  4  1  0  0  0
  3  5  1  0  0  0
  3 26  1  0  0  0
  4 27  1  0  0  0
  5  6  1  0  0  0
  5 28  1  0  0  0
  5 29  1  0  0  0
  6  7  1  0  0  0
  6 11  1  0  0  0
  6 30  1  0  0  0
  7  8  1  0  0  0
  7 31  1  0  0  0
  7 32  1  0  0  0
  8  9  1  0  0  0
  8 33  1  0  0  0
  8 34  1  0  0  0
  9 10  1  0  0  0
  9 15  1  0  0  0
  9 35  1  0  0  0
 10 11  1  0  0  0
 10 12  1  0  0  0
 10 36  1  0  0  0
 11 21  1  0  0  0
 12 13  1  0  0  0
 12 37  1  0  0  0
 12 38  1  0  0  0
 13 14  1  0  0  0
 13 39  1  0  0  0
 13 40  1  0  0  0
 14 15  1  0  0  0
 14 18  1  0  0  0
 14 20  1  0  0  0
 15 16  1  0  0  0
 15 41  1  0  0  0
 16 17  1  0  0  0
 16 42  1  0  0  0
 16 43  1  0  0  0
 17 18  1  0  0  0
 17 44  1  0  0  0
 17 45  1  0  0  0
 18 19  2  0  0  0
 20 46  1  0  0  0
 20 47  1  0  0  0
 20 48  1  0  0  0
 21 49  1  0  0  0
 21 50  1  0  0  0
 21 51  1  0  0  0
M  END
> <s_m_source_file>
../1x8j_ligand.sdf

> <i_m_source_file_index>
1

> <s_epik_input>
W0NIMl0xW0NIMl1bQ0BASF0oW09IXSlbQ0gyXVtDQEBIXShbQ0BdMTJbQ0gzXSlbQ0gyXVtDSDJdW0NAQEhdM1tDQEBIXTJbQ0gyXVtDSDJdW0NAQF00KFtDSDNdKVtDQEhdM1tDSDJdW0NIMl1DND1P

> <s_epik_cmdline>
J2VwaWtfYXBwJywgJy1pbWFlJywgJ2xpZ2FuZF9wcm8ubWFlJywgJy1vbWFlJywgJ2xpZ2FuZF9wcmVwLm1hZScsICctbXMnLCAnMScsICctcGgnLCAnNycsICctcGh0JywgJzAuNScsICctbnQn

> <r_lp_tautomer_probability>
1

> <r_epik_Ionization_Penalty>
  0.0000

> <r_epik_Ionization_Penalty_Charging>
  0.0000

> <r_epik_Ionization_Penalty_Neutral>
  0.0000

> <r_epik_State_Penalty>
 -0.0000

> <r_epik_Charging_Adjusted_Penalty>
0

> <i_epik_Tot_Q>
0

> <i_epik_Tot_abs_Q>
0

$$$$
