1x8r_ligand
                    3D
 Schrodinger Suite 2020-3.
 36 36  0  0  1  0            999 V2000
   56.2860   12.1770   27.9070 C   0  0  0  0  0  0
   55.1440   11.3880   28.2520 C   0  0  0  0  0  0
   55.3160   10.1140   29.0520 C   0  0  2  0  0  0
   56.7150   10.0620   29.8670 C   0  0  2  0  0  0
   57.8740   10.2840   28.8460 C   0  0  1  0  0  0
   57.6980   11.7780   28.3270 C   0  0  0  0  0  0
   56.1070   13.4350   27.1360 C   0  0  0  0  0  0
   55.1400    8.8710   28.0560 O   0  0  0  0  0  0
   56.7200    8.7810   30.5050 O   0  0  0  0  0  0
   59.1440   10.1660   29.4990 O   0  0  0  0  0  0
   55.2130   13.4830   26.3050 O   0  5  0  0  0  0
   56.8630   14.3300   27.3980 O   0  0  0  0  0  0
   53.7310    7.9660   27.8310 P   0  0  0  0  0  0
   52.7100    8.9450   27.2190 O   0  5  0  0  0  0
   53.3550    7.4670   29.2770 O   0  5  0  0  0  0
   54.2470    6.9310   26.8210 O   0  0  0  0  0  0
   60.0980    9.0840   29.1230 C   0  0  2  0  0  0
   59.5270    7.5800   29.0190 C   0  0  0  0  0  0
   61.3260    9.1880   30.0280 C   0  0  0  0  0  0
   61.7740   10.3270   30.3930 O   0  5  0  0  0  0
   61.7160    8.0690   30.4590 O   0  0  0  0  0  0
   60.5300    9.3660   27.2920 P   0  0  0  0  0  0
   61.8580    8.6100   27.0230 O   0  5  0  0  0  0
   60.7630   10.8400   27.0870 O   0  0  0  0  0  0
   59.4030    8.7680   26.3880 O   0  0  0  0  0  0
   54.1396   11.7066   27.9361 H   0  0  0  0  0  0
   54.5119   10.1301   29.8025 H   0  0  0  0  0  0
   56.8783   10.7619   30.6997 H   0  0  0  0  0  0
   57.9178    9.5071   28.0685 H   0  0  0  0  0  0
   58.3797   11.8866   27.4706 H   0  0  0  0  0  0
   58.0340   12.4286   29.1479 H   0  0  0  0  0  0
   55.9422    8.5302   31.2412 H   0  0  0  0  0  0
   59.2169    7.2357   30.0167 H   0  0  0  0  0  0
   60.3125    6.9157   28.6296 H   0  0  0  0  0  0
   58.6619    7.5624   28.3398 H   0  0  0  0  0  0
   59.1512    7.6994   26.4574 H   0  0  0  0  0  0
  1  2  2  0  0  0
  1  6  1  0  0  0
  1  7  1  0  0  0
  2  3  1  0  0  0
  2 26  1  0  0  0
  3  4  1  0  0  0
  3  8  1  0  0  0
  3 27  1  0  0  0
  4  5  1  0  0  0
  4  9  1  0  0  0
  4 28  1  0  0  0
  5  6  1  0  0  0
  5 10  1  0  0  0
  5 29  1  0  0  0
  6 30  1  0  0  0
  6 31  1  0  0  0
  7 11  1  0  0  0
  7 12  2  0  0  0
  8 13  1  0  0  0
  9 32  1  0  0  0
 10 17  1  0  0  0
 13 14  1  0  0  0
 13 15  1  0  0  0
 13 16  2  0  0  0
 17 18  1  0  0  0
 17 19  1  0  0  0
 17 22  1  0  0  0
 18 33  1  0  0  0
 18 34  1  0  0  0
 18 35  1  0  0  0
 19 20  1  0  0  0
 19 21  2  0  0  0
 22 23  1  0  0  0
 22 24  2  0  0  0
 22 25  1  0  0  0
 25 36  1  0  0  0
M  CHG  5  11  -1  14  -1  15  -1  20  -1  23  -1
M  END
> <s_m_source_file>
../1x8r_ligand.sdf

> <i_m_source_file_index>
1

> <s_epik_input>
W09IXUMoPU8pQzE9W0NIXVtDQEBIXShPUCg9TykoW09IXSlbT0hdKVtDQEBIXShbT0hdKVtDQEBIXShbQ0gyXTEpT1tDQF0oW0NIM10pKEMoPU8pW09IXSlQKD1PKShbT0hdKVtPSF0=

> <s_epik_cmdline>
J2VwaWtfYXBwJywgJy1pbWFlJywgJ2xpZ2FuZF9wcm8ubWFlJywgJy1vbWFlJywgJ2xpZ2FuZF9wcmVwLm1hZScsICctbXMnLCAnMScsICctcGgnLCAnNycsICctcGh0JywgJzAuNScsICctbnQn

> <r_epik_Ionization_Penalty>
  0.5168

> <r_epik_Ionization_Penalty_Charging>
  0.1327

> <r_epik_Ionization_Penalty_Neutral>
  0.3841

> <r_epik_State_Penalty>
  0.4490

> <r_epik_Charging_Adjusted_Penalty>
0.581706100092077

> <i_epik_Tot_Q>
-5

> <i_epik_Tot_abs_Q>
5

$$$$
