1x8s_ligand
                    3D
 Schrodinger Suite 2020-3.
138139  0  0  1  0            999 V2000
  -10.5610   11.8060    2.4030 N   0  3  0  0  0  0
   -9.8460   13.0400    1.9580 C   0  0  2  0  0  0
  -10.4970   13.6230    0.7020 C   0  0  0  0  0  0
  -10.5680   12.9560   -0.3340 O   0  0  0  0  0  0
   -8.3690   12.7410    1.6610 C   0  0  0  0  0  0
   -7.6040   12.1960    2.8290 C   0  0  0  0  0  0
   -7.3580   12.9310    3.9690 N   0  0  0  0  0  0
   -7.0090   10.9950    3.0210 C   0  0  0  0  0  0
   -6.6540   12.2020    4.8170 C   0  0  0  0  0  0
   -6.4290   11.0220    4.2670 N   0  0  0  0  0  0
  -10.9710   14.8630    0.7990 N   0  0  0  0  0  0
  -11.5310   15.5680   -0.3600 C   0  0  2  0  0  0
  -10.4290   16.2750   -1.1320 C   0  0  0  0  0  0
   -9.4650   16.7500   -0.5370 O   0  0  0  0  0  0
  -12.5980   16.5800    0.0620 C   0  0  0  0  0  0
  -12.1300   17.6620    1.0290 C   0  0  0  0  0  0
  -13.2410   18.6570    1.3250 C   0  0  0  0  0  0
  -12.8930   20.0250    0.9360 N   0  0  0  0  0  0
  -12.9520   20.5240   -0.2990 C   0  0  0  0  0  0
  -13.3410   19.7810   -1.3350 N   0  0  0  0  0  0
  -12.6070   21.7920   -0.4950 N   0  3  0  0  0  0
  -10.5820   16.3510   -2.4510 N   0  0  0  0  0  0
   -9.5440   16.9160   -3.3100 C   0  0  2  0  0  0
  -10.0640   18.0260   -4.2070 C   0  0  0  0  0  0
  -11.2680   18.1690   -4.4160 O   0  0  0  0  0  0
   -8.8930   15.8260   -4.1680 C   0  0  0  0  0  0
   -9.7390   15.3440   -5.3420 C   0  0  0  0  0  0
   -9.2250   14.0450   -5.9380 C   0  0  0  0  0  0
   -7.9920   13.8510   -5.9810 O   0  0  0  0  0  0
  -10.0580   13.2200   -6.3690 O   0  5  0  0  0  0
   -9.1250   18.8030   -4.7360 N   0  0  0  0  0  0
   -9.4300   19.9050   -5.6340 C   0  0  2  0  0  0
   -8.3360   20.0610   -6.6800 C   0  0  0  0  0  0
   -7.1660   19.7770   -6.4230 O   0  0  0  0  0  0
   -9.6030   21.1980   -4.8450 C   0  0  0  0  0  0
  -10.9790   21.3370   -4.2260 C   0  0  0  0  0  0
  -11.3470   23.0360   -3.7690 S   0  0  0  0  0  0
  -13.1410   22.9930   -3.7810 C   0  0  0  0  0  0
   -8.7390   20.5220   -7.8590 N   0  0  0  0  0  0
   -7.8780   20.5290   -9.0350 C   0  0  2  0  0  0
   -7.2470   21.8920   -9.2630 C   0  0  0  0  0  0
   -7.9380   22.9150   -9.2700 O   0  0  0  0  0  0
   -8.6750   20.1160  -10.2680 C   0  0  0  0  0  0
   -5.9310   21.8890   -9.4580 N   0  0  0  0  0  0
   -5.2030   23.0850   -9.8490 C   0  0  2  0  0  0
   -4.9460   23.0320  -11.3560 C   0  0  0  0  0  0
   -4.1330   22.2340  -11.8240 O   0  0  0  0  0  0
   -3.8720   23.1990   -9.0900 C   0  0  0  0  0  0
   -3.1140   24.4530   -9.5240 C   0  0  0  0  0  0
   -4.1270   23.2040   -7.5870 C   0  0  0  0  0  0
   -5.6560   23.8760  -12.1030 N   0  0  0  0  0  0
   -5.5020   23.9720  -13.5540 C   0  0  2  0  0  0
   -5.4880   22.5940  -14.2160 C   0  0  0  0  0  0
   -4.4250   22.0320  -14.4930 O   0  0  0  0  0  0
   -4.2320   24.7580  -13.9080 C   0  0  0  0  0  0
   -4.1730   25.1630  -15.3770 C   0  0  0  0  0  0
   -5.1030   24.8310  -16.1440 O   0  5  0  0  0  0
   -3.1900   25.8240  -15.7710 O   0  0  0  0  0  0
   -6.6840   22.0600  -14.4570 N   0  0  0  0  0  0
   -6.8450   20.7640  -15.1140 C   0  0  2  0  0  0
   -7.8380   20.8770  -16.2750 C   0  0  0  0  0  0
   -8.8870   21.4990  -16.1260 O   0  0  0  0  0  0
   -7.3150   19.7150  -14.1020 C   0  0  0  0  0  0
   -6.1150   19.3870  -12.7660 S   0  0  0  0  0  0
   -7.5100   20.2740  -17.4350 N   0  0  0  0  0  0
   -8.3490   20.3810  -18.6330 C   0  0  2  0  0  0
   -9.5790   19.4670  -18.6060 C   0  0  0  0  0  0
   -9.9010   18.8570  -17.5840 O   0  0  0  0  0  0
   -7.3970   19.9520  -19.7510 C   0  0  0  0  0  0
   -6.5020   18.9640  -19.0990 C   0  0  0  0  0  0
   -6.3200   19.4380  -17.6800 C   0  0  0  0  0  0
  -10.2840   19.3130  -19.6080 O   0  5  0  0  0  0
  -11.6144   12.0467    2.6088 H   0  0  0  0  0  0
  -10.0882   11.4178    3.3172 H   0  0  0  0  0  0
  -10.5068   11.0450    1.6106 H   0  0  0  0  0  0
   -9.9294   13.7539    2.7907 H   0  0  0  0  0  0
   -7.8641   12.8937    0.6957 H   0  0  0  0  0  0
   -6.9275   10.0936    2.3958 H   0  0  0  0  0  0
   -6.3161   12.5203    5.8032 H   0  0  0  0  0  0
  -10.9353   15.3593    1.7800 H   0  0  0  0  0  0
  -11.9896   14.7864   -0.9836 H   0  0  0  0  0  0
  -12.9798   17.1027   -0.8274 H   0  0  0  0  0  0
  -13.4251   16.0541    0.5614 H   0  0  0  0  0  0
  -11.8156   17.1972    1.9751 H   0  0  0  0  0  0
  -11.2817   18.2059    0.5880 H   0  0  0  0  0  0
  -14.1474   18.3698    0.7719 H   0  0  0  0  0  0
  -13.4547   18.6577    2.4040 H   0  0  0  0  0  0
  -12.5469   20.7416    1.6954 H   0  0  0  0  0  0
  -13.6283   18.7304   -1.1813 H   0  0  0  0  0  0
  -13.3748   20.2185   -2.3437 H   0  0  0  0  0  0
  -12.2848   22.4120    0.3546 H   0  0  0  0  0  0
  -11.5172   15.9759   -2.8923 H   0  0  0  0  0  0
   -8.8244   17.3484   -2.5992 H   0  0  0  0  0  0
   -7.9515   16.2060   -4.5913 H   0  0  0  0  0  0
   -8.6850   14.9439   -3.5445 H   0  0  0  0  0  0
  -10.7722   15.1751   -5.0044 H   0  0  0  0  0  0
   -9.7325   16.1055   -6.1357 H   0  0  0  0  0  0
   -8.0806   18.5841   -4.4688 H   0  0  0  0  0  0
  -10.3755   19.6374   -6.1284 H   0  0  0  0  0  0
   -8.8658   21.2312   -4.0292 H   0  0  0  0  0  0
   -9.4497   22.0584   -5.5129 H   0  0  0  0  0  0
  -11.7405   21.0037   -4.9464 H   0  0  0  0  0  0
  -11.0370   20.7181   -3.3185 H   0  0  0  0  0  0
  -13.5333   23.9854   -3.5141 H   0  0  0  0  0  0
  -13.4948   22.2503   -3.0508 H   0  0  0  0  0  0
  -13.4944   22.7170   -4.7854 H   0  0  0  0  0  0
   -9.7665   20.9087   -7.9273 H   0  0  0  0  0  0
   -7.0842   19.8001   -8.8147 H   0  0  0  0  0  0
   -9.1293   19.1289  -10.0972 H   0  0  0  0  0  0
   -8.0041   20.0652  -11.1382 H   0  0  0  0  0  0
   -9.4664   20.8560  -10.4578 H   0  0  0  0  0  0
   -5.3932   20.9403   -9.3137 H   0  0  0  0  0  0
   -5.8474   23.9354   -9.5815 H   0  0  0  0  0  0
   -3.2424   22.3284   -9.3257 H   0  0  0  0  0  0
   -2.9448   24.4216  -10.6105 H   0  0  0  0  0  0
   -2.1460   24.4949   -9.0032 H   0  0  0  0  0  0
   -3.7056   25.3451   -9.2707 H   0  0  0  0  0  0
   -4.6728   22.2916   -7.3047 H   0  0  0  0  0  0
   -4.7259   24.0871   -7.3197 H   0  0  0  0  0  0
   -3.1663   23.2369   -7.0522 H   0  0  0  0  0  0
   -6.3828   24.5177  -11.5834 H   0  0  0  0  0  0
   -6.3945   24.5154  -13.8976 H   0  0  0  0  0  0
   -4.1901   25.6775  -13.3057 H   0  0  0  0  0  0
   -3.3471   24.1400  -13.6957 H   0  0  0  0  0  0
   -7.5700   22.6310  -14.1424 H   0  0  0  0  0  0
   -5.8526   20.4896  -15.5012 H   0  0  0  0  0  0
   -8.2466   20.0558  -13.6266 H   0  0  0  0  0  0
   -7.4951   18.7611  -14.6194 H   0  0  0  0  0  0
   -6.3505   18.6503  -11.9838 H   0  0  0  0  0  0
   -8.7450   21.4045  -18.7085 H   0  0  0  0  0  0
   -7.9752   19.5079  -20.5747 H   0  0  0  0  0  0
   -6.8467   20.8297  -20.1209 H   0  0  0  0  0  0
   -6.9710   17.9694  -19.1279 H   0  0  0  0  0  0
   -5.5407   18.9317  -19.6328 H   0  0  0  0  0  0
   -5.4124   20.0472  -17.5573 H   0  0  0  0  0  0
   -6.3026   18.6053  -16.9614 H   0  0  0  0  0  0
  -12.6435   22.2218   -1.5069 H   0  0  0  0  0  0
   -7.7381   13.9599    4.0528 H   0  0  0  0  0  0
  1  2  1  0  0  0
  1 73  1  0  0  0
  1 74  1  0  0  0
  1 75  1  0  0  0
  2  3  1  0  0  0
  2  5  1  0  0  0
  2 76  1  0  0  0
  3  4  2  0  0  0
  3 11  1  0  0  0
  5  6  2  0  0  0
  5 77  1  0  0  0
  6  7  1  0  0  0
  6  8  1  0  0  0
  7  9  1  0  0  0
  7138  1  0  0  0
  8 10  2  0  0  0
  8 78  1  0  0  0
  9 10  1  0  0  0
  9 79  1  0  0  0
 11 12  1  0  0  0
 11 80  1  0  0  0
 12 13  1  0  0  0
 12 15  1  0  0  0
 12 81  1  0  0  0
 13 14  2  0  0  0
 13 22  1  0  0  0
 15 16  1  0  0  0
 15 82  1  0  0  0
 15 83  1  0  0  0
 16 17  1  0  0  0
 16 84  1  0  0  0
 16 85  1  0  0  0
 17 18  1  0  0  0
 17 86  1  0  0  0
 17 87  1  0  0  0
 18 19  1  0  0  0
 18 88  1  0  0  0
 19 20  1  0  0  0
 19 21  2  0  0  0
 20 89  1  0  0  0
 20 90  1  0  0  0
 21 91  1  0  0  0
 21137  1  0  0  0
 22 23  1  0  0  0
 22 92  1  0  0  0
 23 24  1  0  0  0
 23 26  1  0  0  0
 23 93  1  0  0  0
 24 25  2  0  0  0
 24 31  1  0  0  0
 26 27  1  0  0  0
 26 94  1  0  0  0
 26 95  1  0  0  0
 27 28  1  0  0  0
 27 96  1  0  0  0
 27 97  1  0  0  0
 28 29  2  0  0  0
 28 30  1  0  0  0
 31 32  1  0  0  0
 31 98  1  0  0  0
 32 33  1  0  0  0
 32 35  1  0  0  0
 32 99  1  0  0  0
 33 34  2  0  0  0
 33 39  1  0  0  0
 35 36  1  0  0  0
 35100  1  0  0  0
 35101  1  0  0  0
 36 37  1  0  0  0
 36102  1  0  0  0
 36103  1  0  0  0
 37 38  1  0  0  0
 38104  1  0  0  0
 38105  1  0  0  0
 38106  1  0  0  0
 39 40  1  0  0  0
 39107  1  0  0  0
 40 41  1  0  0  0
 40 43  1  0  0  0
 40108  1  0  0  0
 41 42  2  0  0  0
 41 44  1  0  0  0
 43109  1  0  0  0
 43110  1  0  0  0
 43111  1  0  0  0
 44 45  1  0  0  0
 44112  1  0  0  0
 45 46  1  0  0  0
 45 48  1  0  0  0
 45113  1  0  0  0
 46 47  2  0  0  0
 46 51  1  0  0  0
 48 49  1  0  0  0
 48 50  1  0  0  0
 48114  1  0  0  0
 49115  1  0  0  0
 49116  1  0  0  0
 49117  1  0  0  0
 50118  1  0  0  0
 50119  1  0  0  0
 50120  1  0  0  0
 51 52  1  0  0  0
 51121  1  0  0  0
 52 53  1  0  0  0
 52 55  1  0  0  0
 52122  1  0  0  0
 53 54  2  0  0  0
 53 59  1  0  0  0
 55 56  1  0  0  0
 55123  1  0  0  0
 55124  1  0  0  0
 56 57  1  0  0  0
 56 58  2  0  0  0
 59 60  1  0  0  0
 59125  1  0  0  0
 60 61  1  0  0  0
 60 63  1  0  0  0
 60126  1  0  0  0
 61 62  2  0  0  0
 61 65  1  0  0  0
 63 64  1  0  0  0
 63127  1  0  0  0
 63128  1  0  0  0
 64129  1  0  0  0
 65 66  1  0  0  0
 65 71  1  0  0  0
 66 67  1  0  0  0
 66 69  1  0  0  0
 66130  1  0  0  0
 67 68  2  0  0  0
 67 72  1  0  0  0
 69 70  1  0  0  0
 69131  1  0  0  0
 69132  1  0  0  0
 70 71  1  0  0  0
 70133  1  0  0  0
 70134  1  0  0  0
 71135  1  0  0  0
 71136  1  0  0  0
M  CHG  5   1   1  21   1  30  -1  57  -1  72  -1
M  END
> <s_m_source_file>
../1x8s_ligand.sdf

> <i_m_source_file_index>
1

> <s_epik_input>
W0NIXTE9TltDSDJdTj1DMVtDSDJdW0NASF0oW05IMytdKUMoPU8pW05IXVtDQEBIXShbQ0gyXVtDSDJdW0NIMl1bTkhdL0MoW05IMl0pPU5cW0hdKUMoPU8pW05IXVtDQEBIXShbQ0gyXVtDSDJdQyg9TylbT0hdKUMoPU8pW05IXVtDQEBIXShbQ0gyXVtDSDJdU1tDSDNdKUMoPU8pW05IXVtDQEBIXShbQ0gzXSlDKD1PKVtOSF1bQ0BASF0oW0NIXShbQ0gzXSlbQ0gzXSlDKD1PKVtOSF1bQ0BASF0oW0NIMl1DKD1PKVtPSF0pQyg9TylbTkhdW0NAQEhdKFtDSDJdW1NIXSlDKD1PKU4yW0NASF0oQyg9TylbT0hdKVtDSDJdW0NIMl1bQ0gyXTI=

> <s_epik_cmdline>
J2VwaWtfYXBwJywgJy1pbWFlJywgJ2xpZ2FuZF9wcm8ubWFlJywgJy1vbWFlJywgJ2xpZ2FuZF9wcmVwLm1hZScsICctbXMnLCAnMScsICctcGgnLCAnNycsICctcGh0JywgJzAuNScsICctbnQn

> <r_lp_tautomer_probability>
1

> <r_epik_Ionization_Penalty>
  1.1107

> <r_epik_Ionization_Penalty_Charging>
  1.1017

> <r_epik_Ionization_Penalty_Neutral>
  0.0090

> <r_epik_State_Penalty>
 -0.0000

> <r_epik_Charging_Adjusted_Penalty>
1.10171732158439

> <i_epik_Tot_Q>
-1

> <i_epik_Tot_abs_Q>
5

> <s_epik_Chemistry_Notes>
This compound has an imine and may undergo hydrolysis.

$$$$
