1x9d_ligand
                    3D
 Schrodinger Suite 2020-3.
 48 49  0  0  1  0            999 V2000
   -0.0040   -3.4490   -0.6700 O   0  0  0  0  0  0
    1.4250   -3.4720   -0.7620 C   0  0  1  0  0  0
    1.9150   -2.0550   -0.6930 C   0  0  1  0  0  0
    1.2670   -1.3420    0.3980 O   0  0  0  0  0  0
    3.4070   -1.9860   -0.4680 C   0  0  2  0  0  0
    4.0930   -2.5180   -1.6270 O   0  0  0  0  0  0
    3.7570   -2.6860    0.8380 C   0  0  1  0  0  0
    3.8430   -1.6440    1.9530 C   0  0  0  0  0  0
    4.0940   -2.2420    3.2060 O   0  0  0  0  0  0
    2.7790   -3.6500    1.2770 O   0  0  0  0  0  0
    1.9670   -4.3660    0.3140 C   0  0  2  0  0  0
    2.7590   -5.8030   -0.4960 S   0  0  0  0  0  0
    2.9180   -7.0770    0.7840 C   0  0  2  0  0  0
    3.9930   -8.0690    0.4110 C   0  0  1  0  0  0
    4.2090   -8.8930    1.5570 O   0  0  0  0  0  0
    5.3770   -9.7280    1.4660 C   0  0  0  0  0  0
    3.5920   -8.8310   -0.7200 O   0  0  0  0  0  0
    1.6110   -7.8440    1.0500 C   0  0  1  0  0  0
    0.5890   -6.8980    1.3390 O   0  0  0  0  0  0
    1.2250   -8.7560   -0.1260 C   0  0  2  0  0  0
    0.1580   -9.6460    0.2780 O   0  0  0  0  0  0
    2.3930   -9.6210   -0.5540 C   0  0  1  0  0  0
    2.0710  -10.2620   -1.8850 C   0  0  0  0  0  0
    3.0330  -11.2850   -2.1610 O   0  0  0  0  0  0
   -0.5911   -2.8454   -1.3778 H   0  0  0  0  0  0
    1.7349   -3.8982   -1.7276 H   0  0  0  0  0  0
    1.6452   -1.5711   -1.6433 H   0  0  0  0  0  0
    0.1700   -1.2681    0.4319 H   0  0  0  0  0  0
    3.7703   -0.9496   -0.4059 H   0  0  0  0  0  0
    3.9115   -2.0834   -2.6211 H   0  0  0  0  0  0
    4.6761   -3.2618    0.6545 H   0  0  0  0  0  0
    4.6597   -0.9402    1.7349 H   0  0  0  0  0  0
    2.8922   -1.0944    2.0154 H   0  0  0  0  0  0
    4.1822   -1.6162    4.1063 H   0  0  0  0  0  0
    1.1430   -4.5002    1.0302 H   0  0  0  0  0  0
    3.2009   -6.7261    1.7874 H   0  0  0  0  0  0
    4.9515   -7.6171    0.1158 H   0  0  0  0  0  0
    5.4713  -10.3278    2.3833 H   0  0  0  0  0  0
    6.2703   -9.0972    1.3469 H   0  0  0  0  0  0
    5.2825  -10.3974    0.5983 H   0  0  0  0  0  0
    1.6899   -8.4700    1.9511 H   0  0  0  0  0  0
    0.7234   -6.1760    2.1580 H   0  0  0  0  0  0
    0.8698   -8.1412   -0.9662 H   0  0  0  0  0  0
   -0.7986   -9.2332    0.6308 H   0  0  0  0  0  0
    2.6061  -10.3637    0.2290 H   0  0  0  0  0  0
    1.0643  -10.7036   -1.8453 H   0  0  0  0  0  0
    2.1060   -9.4996   -2.6772 H   0  0  0  0  0  0
    2.9642  -11.8681   -3.0912 H   0  0  0  0  0  0
  1  2  1  0  0  0
  1 25  1  0  0  0
  2  3  1  0  0  0
  2 11  1  0  0  0
  2 26  1  0  0  0
  3  4  1  0  0  0
  3  5  1  0  0  0
  3 27  1  0  0  0
  4 28  1  0  0  0
  5  6  1  0  0  0
  5  7  1  0  0  0
  5 29  1  0  0  0
  6 30  1  0  0  0
  7  8  1  0  0  0
  7 10  1  0  0  0
  7 31  1  0  0  0
  8  9  1  0  0  0
  8 32  1  0  0  0
  8 33  1  0  0  0
  9 34  1  0  0  0
 10 11  1  0  0  0
 11 12  1  0  0  0
 11 35  1  0  0  0
 12 13  1  0  0  0
 13 14  1  0  0  0
 13 18  1  0  0  0
 13 36  1  0  0  0
 14 15  1  0  0  0
 14 17  1  0  0  0
 14 37  1  0  0  0
 15 16  1  0  0  0
 16 38  1  0  0  0
 16 39  1  0  0  0
 16 40  1  0  0  0
 17 22  1  0  0  0
 18 19  1  0  0  0
 18 20  1  0  0  0
 18 41  1  0  0  0
 19 42  1  0  0  0
 20 21  1  0  0  0
 20 22  1  0  0  0
 20 43  1  0  0  0
 21 44  1  0  0  0
 22 23  1  0  0  0
 22 45  1  0  0  0
 23 24  1  0  0  0
 23 46  1  0  0  0
 23 47  1  0  0  0
 24 48  1  0  0  0
M  END
> <s_m_source_file>
../1x9d_ligand.sdf

> <i_m_source_file_index>
1

> <s_epik_input>
W09IXVtDQEhdMVtDQEBIXShbT0hdKVtDQEhdKFtPSF0pW0NAQEhdKFtDSDJdW09IXSlPW0NAQEhdMVNbQ0BASF0yW0NAQEhdKE9bQ0gzXSlPW0NASF0oW0NIMl1bT0hdKVtDQEBIXShbT0hdKVtDQEBIXTJbT0hd

> <s_epik_cmdline>
J2VwaWtfYXBwJywgJy1pbWFlJywgJ2xpZ2FuZF9wcm8ubWFlJywgJy1vbWFlJywgJ2xpZ2FuZF9wcmVwLm1hZScsICctbXMnLCAnMScsICctcGgnLCAnNycsICctcGh0JywgJzAuNScsICctbnQn

> <r_lp_tautomer_probability>
1

> <r_epik_Ionization_Penalty>
  0.0000

> <r_epik_Ionization_Penalty_Charging>
  0.0000

> <r_epik_Ionization_Penalty_Neutral>
  0.0000

> <r_epik_State_Penalty>
 -0.0000

> <r_epik_Charging_Adjusted_Penalty>
0

> <i_epik_Tot_Q>
0

> <i_epik_Tot_abs_Q>
0

> <s_epik_Chemistry_Notes>
This compound contains an acetal/aminal-like group ( X-CH(R)-Y where X, Y are N, S, or O) that may be acid/base labile, releasing an aldehyde.

$$$$
