1xa5_ligand
                    3D
 Schrodinger Suite 2020-3.
115124  0  0  1  0            999 V2000
   15.8330   20.1650  134.2160 O   0  0  0  0  0  0
   15.8480   21.2100  133.5760 C   0  0  0  0  0  0
   16.9700   21.9090  133.4280 O   0  0  0  0  0  0
   18.1020   21.0330  133.4940 C   0  0  0  0  0  0
   14.5620   21.7710  132.8940 C   0  0  2  0  0  0
   14.3860   23.2930  133.2240 C   0  0  0  0  0  0
   14.0320   24.1620  132.1870 C   0  0  0  0  0  0
   13.8370   25.5170  132.4480 C   0  0  0  0  0  0
   14.5460   23.8590  134.5140 C   0  0  0  0  0  0
   14.8950   23.0430  135.5930 O   0  0  0  0  0  0
   16.2500   23.1000  136.0700 C   0  0  0  0  0  0
   14.3650   25.2390  134.7530 C   0  0  0  0  0  0
   14.0180   26.0710  133.6900 C   0  0  0  0  0  0
   13.7950   27.4100  133.6410 N   0  0  0  0  0  0
   13.9130   28.2930  134.8000 C   0  0  0  0  0  0
   13.7450   27.8950  132.2520 C   0  0  2  0  0  0
   13.5200   26.5800  131.4840 C   0  0  2  0  0  0
   12.0040   26.3710  131.7410 C   0  0  0  0  0  0
   13.5200   26.4960  129.9550 C   0  0  1  0  0  0
   12.2540   27.2020  129.6250 N   0  3  1  0  0  0
   11.6990   27.0220  128.2890 C   0  0  0  0  0  0
   11.2760   27.2390  130.7210 C   0  0  0  0  0  0
   14.6540   27.2720  129.2570 C   0  0  2  0  0  0
   14.1040   27.6550  127.8770 C   0  0  0  0  0  0
   12.8160   27.5450  127.4500 C   0  0  0  0  0  0
   15.7850   26.2120  128.9430 C   0  0  0  0  0  0
   17.2780   26.5710  129.2090 C   0  0  0  0  0  0
   15.0670   28.5360  131.7100 C   0  0  1  0  0  0
   16.2930   27.8740  132.1490 C   0  0  0  0  0  0
   16.6610   26.7170  132.0110 O   0  0  0  0  0  0
   15.1070   28.5310  130.1220 C   0  0  0  0  0  0
   15.1620   29.9000  132.1630 O   0  0  0  0  0  0
   16.3400   30.0760  132.8210 C   0  0  0  0  0  0
   16.7020   31.1230  133.3150 O   0  0  0  0  0  0
   17.0330   28.9170  132.8420 N   0  0  0  0  0  0
   18.3310   28.7540  133.4660 C   0  0  0  0  0  0
   18.1960   28.9630  134.9870 C   0  0  0  0  0  0
   17.6660   27.4450  135.7160 Cl  0  0  0  0  0  0
   13.3440   21.1630  133.6630 C   0  0  0  0  0  0
   11.9410   21.8480  133.5680 C   0  0  1  0  0  0
   11.4450   22.1080  132.1120 C   0  0  0  0  0  0
   10.8290   21.1220  134.4030 C   0  0  0  0  0  0
   10.1560   19.9100  133.6990 C   0  0  1  0  0  0
   11.0880   18.8230  133.5220 O   0  0  0  0  0  0
    9.0720   19.2190  134.5980 C   0  0  0  0  0  0
    7.7270   19.9780  134.7960 C   0  0  0  0  0  0
    9.5860   20.4140  132.3500 C   0  0  0  0  0  0
   10.6530   21.0010  131.5090 N   0  0  2  0  0  0
   11.2290   20.0990  130.4890 C   0  0  0  0  0  0
   12.7240   19.7280  130.6810 C   0  0  0  0  0  0
   13.9240   20.6730  130.5910 C   0  0  0  0  0  0
   14.5070   20.8130  129.2100 C   0  0  0  0  0  0
   15.5500   21.6990  129.3810 C   0  0  0  0  0  0
   16.3640   22.0930  128.3130 C   0  0  0  0  0  0
   15.6010   22.0650  130.6740 N   0  0  0  0  0  0
   14.6530   21.4860  131.3930 C   0  0  0  0  0  0
   14.2150   20.2580  127.9600 C   0  0  0  0  0  0
   15.0210   20.6370  126.8780 C   0  0  0  0  0  0
   16.0800   21.5400  127.0550 C   0  0  0  0  0  0
   19.0256   21.6176  133.3709 H   0  0  0  0  0  0
   18.0328   20.2834  132.6919 H   0  0  0  0  0  0
   18.1165   20.5255  134.4698 H   0  0  0  0  0  0
   13.9085   23.7792  131.1739 H   0  0  0  0  0  0
   16.3704   22.4071  136.9158 H   0  0  0  0  0  0
   16.4800   24.1240  136.3993 H   0  0  0  0  0  0
   16.9363   22.8125  135.2599 H   0  0  0  0  0  0
   14.4949   25.6479  135.7550 H   0  0  0  0  0  0
   13.9294   27.6902  135.7200 H   0  0  0  0  0  0
   13.0540   28.9796  134.8268 H   0  0  0  0  0  0
   14.8443   28.8736  134.7253 H   0  0  0  0  0  0
   12.9721   28.6759  132.1988 H   0  0  0  0  0  0
   11.7526   25.3085  131.6076 H   0  0  0  0  0  0
   11.7604   26.6792  132.7685 H   0  0  0  0  0  0
   13.6080   25.4517  129.6209 H   0  0  0  0  0  0
   12.5823   28.2460  129.5143 H   0  0  0  0  0  0
   11.4838   25.9563  128.1219 H   0  0  0  0  0  0
   10.7693   27.6026  128.1969 H   0  0  0  0  0  0
   10.3067   26.7808  130.4750 H   0  0  0  0  0  0
   11.1111   28.2412  131.1435 H   0  0  0  0  0  0
   14.8750   28.0549  127.2020 H   0  0  0  0  0  0
   12.5471   27.8517  126.4284 H   0  0  0  0  0  0
   15.6160   25.3065  129.5443 H   0  0  0  0  0  0
   15.7581   25.9528  127.8743 H   0  0  0  0  0  0
   17.9150   25.7178  128.9330 H   0  0  0  0  0  0
   17.4153   26.8011  130.2759 H   0  0  0  0  0  0
   17.5574   27.4475  128.6059 H   0  0  0  0  0  0
   16.1607   28.7629  129.9079 H   0  0  0  0  0  0
   14.4810   29.3978  129.8636 H   0  0  0  0  0  0
   18.7093   27.7406  133.2661 H   0  0  0  0  0  0
   19.0317   29.4949  133.0536 H   0  0  0  0  0  0
   19.1695   29.2601  135.4041 H   0  0  0  0  0  0
   17.4562   29.7528  135.1844 H   0  0  0  0  0  0
   13.1639   20.1364  133.3115 H   0  0  0  0  0  0
   13.5613   21.1485  134.7412 H   0  0  0  0  0  0
   12.1169   22.8356  134.0193 H   0  0  0  0  0  0
   10.8010   22.9996  132.0978 H   0  0  0  0  0  0
   12.3108   22.2705  131.4532 H   0  0  0  0  0  0
   11.2640   20.7385  135.3377 H   0  0  0  0  0  0
   10.0238   21.8335  134.6382 H   0  0  0  0  0  0
   11.5719   18.3654  134.3974 H   0  0  0  0  0  0
    8.8003   18.2462  134.1624 H   0  0  0  0  0  0
    9.4768   19.0675  135.6095 H   0  0  0  0  0  0
    7.0633   19.3853  135.4427 H   0  0  0  0  0  0
    7.2455   20.1317  133.8190 H   0  0  0  0  0  0
    7.9221   20.9531  135.2662 H   0  0  0  0  0  0
    9.1317   19.5724  131.8066 H   0  0  0  0  0  0
    8.8227   21.1832  132.5389 H   0  0  0  0  0  0
   10.6749   19.1487  130.4850 H   0  0  0  0  0  0
   11.1546   20.5709  129.4982 H   0  0  0  0  0  0
   12.8735   19.3194  131.6913 H   0  0  0  0  0  0
   13.0136   18.9742  129.9341 H   0  0  0  0  0  0
   17.1840   22.8068  128.4806 H   0  0  0  0  0  0
   13.3884   19.5484  127.8080 H   0  0  0  0  0  0
   14.8264   20.2256  125.8766 H   0  0  0  0  0  0
   16.6943   21.8175  126.1984 H   0  0  0  0  0  0
  1  2  2  0  0  0
  2  3  1  0  0  0
  2  5  1  0  0  0
  3  4  1  0  0  0
  4 60  1  0  0  0
  4 61  1  0  0  0
  4 62  1  0  0  0
  5  6  1  0  0  0
  5 39  1  0  0  0
  5 56  1  0  0  0
  6  7  2  0  0  0
  6  9  1  0  0  0
  7  8  1  0  0  0
  7 63  1  0  0  0
  8 13  2  0  0  0
  8 17  1  0  0  0
  9 10  1  0  0  0
  9 12  2  0  0  0
 10 11  1  0  0  0
 11 64  1  0  0  0
 11 65  1  0  0  0
 11 66  1  0  0  0
 12 13  1  0  0  0
 12 67  1  0  0  0
 13 14  1  0  0  0
 14 15  1  0  0  0
 14 16  1  0  0  0
 15 68  1  0  0  0
 15 69  1  0  0  0
 15 70  1  0  0  0
 16 17  1  0  0  0
 16 28  1  0  0  0
 16 71  1  0  0  0
 17 18  1  0  0  0
 17 19  1  0  0  0
 18 22  1  0  0  0
 18 72  1  0  0  0
 18 73  1  0  0  0
 19 20  1  0  0  0
 19 23  1  0  0  0
 19 74  1  0  0  0
 20 21  1  0  0  0
 20 22  1  0  0  0
 20 75  1  0  0  0
 21 25  1  0  0  0
 21 76  1  0  0  0
 21 77  1  0  0  0
 22 78  1  0  0  0
 22 79  1  0  0  0
 23 24  1  0  0  0
 23 26  1  0  0  0
 23 31  1  0  0  0
 24 25  2  0  0  0
 24 80  1  0  0  0
 25 81  1  0  0  0
 26 27  1  0  0  0
 26 82  1  0  0  0
 26 83  1  0  0  0
 27 84  1  0  0  0
 27 85  1  0  0  0
 27 86  1  0  0  0
 28 29  1  0  0  0
 28 31  1  0  0  0
 28 32  1  0  0  0
 29 30  2  0  0  0
 29 35  1  0  0  0
 31 87  1  0  0  0
 31 88  1  0  0  0
 32 33  1  0  0  0
 33 34  2  0  0  0
 33 35  1  0  0  0
 35 36  1  0  0  0
 36 37  1  0  0  0
 36 89  1  0  0  0
 36 90  1  0  0  0
 37 38  1  0  0  0
 37 91  1  0  0  0
 37 92  1  0  0  0
 39 40  1  0  0  0
 39 93  1  0  0  0
 39 94  1  0  0  0
 40 41  1  0  0  0
 40 42  1  0  0  0
 40 95  1  0  0  0
 41 48  1  0  0  0
 41 96  1  0  0  0
 41 97  1  0  0  0
 42 43  1  0  0  0
 42 98  1  0  0  0
 42 99  1  0  0  0
 43 44  1  0  0  0
 43 45  1  0  0  0
 43 47  1  0  0  0
 44100  1  0  0  0
 45 46  1  0  0  0
 45101  1  0  0  0
 45102  1  0  0  0
 46103  1  0  0  0
 46104  1  0  0  0
 46105  1  0  0  0
 47 48  1  0  0  0
 47106  1  0  0  0
 47107  1  0  0  0
 48 49  1  0  0  0
 49 50  1  0  0  0
 49108  1  0  0  0
 49109  1  0  0  0
 50 51  1  0  0  0
 50110  1  0  0  0
 50111  1  0  0  0
 51 52  2  0  0  0
 51 56  1  0  0  0
 52 53  1  0  0  0
 52 57  1  0  0  0
 53 54  2  0  0  0
 53 55  1  0  0  0
 54 59  1  0  0  0
 54112  1  0  0  0
 55 56  2  0  0  0
 57 58  2  0  0  0
 57113  1  0  0  0
 58 59  1  0  0  0
 58114  1  0  0  0
 59115  1  0  0  0
M  CHG  1  20   1
M  END
> <s_m_source_file>
../1xa5_ligand.sdf

> <i_m_source_file_index>
1

> <s_epik_input>
W0NIM11bQ0gyXVtDQEBdKFtDSDJdMSkoW09IXSlbQ0gyXVtOQEBIK10oW0NIMl0yKVtDSDJdW0NIMl1DKD1DM0MoTj00KT1bQ0hdW0NIMl1bQ0hdPVtDSF0zKUM0W0NAQF0oW0NIMl1bQ0BIXTEyKShDKD1PKU9bQ0gzXSljKFtjSF01KWMoT1tDSDNdKVtjSF1jKGM1W0NAXTY3OClOKFtDSDNdKVtDQEhdNltDQEBdOShDKD1PKU4oQyhPOSk9TylbQ0gyXVtDSDJdQ2wpW0NIMl1bQ0BAXTEoW0NIMl1bQ0gzXSlbQ0BASF04W05ASCtdKFtDSDJdW0NIMl03KVtDSDJdW0NIXT1bQ0hdMQ==

> <s_epik_cmdline>
J2VwaWtfYXBwJywgJy1pbWFlJywgJ2xpZ2FuZF9wcm8ubWFlJywgJy1vbWFlJywgJ2xpZ2FuZF9wcmVwLm1hZScsICctbXMnLCAnMScsICctcGgnLCAnNycsICctcGh0JywgJzAuNScsICctbnQn

> <r_lp_tautomer_probability>
1

> <r_epik_Ionization_Penalty>
  0.0623

> <r_epik_Ionization_Penalty_Charging>
  0.0194

> <r_epik_Ionization_Penalty_Neutral>
  0.0428

> <r_epik_State_Penalty>
 -0.0000

> <r_epik_Charging_Adjusted_Penalty>
0.0194202864696825

> <i_epik_Tot_Q>
1

> <i_epik_Tot_abs_Q>
1

> <s_epik_Chemistry_Notes>
This compound has an ester and may undergo hydrolysis at high or low pH. This compound has an imine and may undergo hydrolysis.

$$$$
