1xap_ligand
                    3D
 Schrodinger Suite 2020-3.
 53 55  0  0  1  0            999 V2000
   41.9000   20.3100  101.3100 C   0  0  0  0  0  0
   42.5580   21.6170  100.8350 C   0  0  0  0  0  0
   42.0980   22.9050  101.0410 C   0  0  0  0  0  0
   40.8980   23.4660  101.7400 C   0  0  0  0  0  0
   40.4810   24.7890  101.3780 C   0  0  0  0  0  0
   39.3570   25.4000  101.9780 C   0  0  0  0  0  0
   38.5920   24.7080  102.9640 C   0  0  0  0  0  0
   37.3890   25.3380  103.5950 C   0  0  0  0  0  0
   37.0460   26.4750  103.2510 O   0  0  0  0  0  0
   36.7500   24.7070  104.4460 O   0  5  0  0  0  0
   39.0060   23.3980  103.3350 C   0  0  0  0  0  0
   40.1360   22.7910  102.7300 C   0  0  0  0  0  0
   43.8370   21.4640  100.0480 C   0  0  0  0  0  0
   44.8810   22.4150  100.1500 C   0  0  0  0  0  0
   46.0590   22.2660   99.4060 C   0  0  0  0  0  0
   46.2720   21.1570   98.5230 C   0  0  0  0  0  0
   45.2180   20.1710   98.4020 C   0  0  0  0  0  0
   44.0310   20.3570   99.1750 C   0  0  0  0  0  0
   45.3510   18.9280   97.4770 C   0  0  0  0  0  0
   44.7910   17.6850   98.2070 C   0  0  0  0  0  0
   44.5550   19.0970   96.1590 C   0  0  0  0  0  0
   46.8350   18.6340   97.1030 C   0  0  0  0  0  0
   47.6340   19.8930   96.6890 C   0  0  0  0  0  0
   47.6100   21.0590   97.7340 C   0  0  0  0  0  0
   47.8830   22.3810   96.9760 C   0  0  0  0  0  0
   48.7720   20.8130   98.7170 C   0  0  0  0  0  0
   40.9818   20.5438  101.8687 H   0  0  0  0  0  0
   42.5975   19.7645  101.9626 H   0  0  0  0  0  0
   41.6503   19.6873  100.4383 H   0  0  0  0  0  0
   42.6647   23.7611  100.6462 H   0  0  0  0  0  0
   41.0442   25.3364  100.6222 H   0  0  0  0  0  0
   39.0714   26.4102  101.6847 H   0  0  0  0  0  0
   38.4464   22.8531  104.0953 H   0  0  0  0  0  0
   40.4259   21.7844  103.0315 H   0  0  0  0  0  0
   44.7672   23.2718  100.8141 H   0  0  0  0  0  0
   46.8406   23.0196   99.5020 H   0  0  0  0  0  0
   43.2362   19.6157   99.0922 H   0  0  0  0  0  0
   43.7416   17.8642   98.4839 H   0  0  0  0  0  0
   45.3826   17.4955   99.1148 H   0  0  0  0  0  0
   44.8505   16.8112   97.5415 H   0  0  0  0  0  0
   43.5005   19.3062   96.3918 H   0  0  0  0  0  0
   44.6235   18.1717   95.5681 H   0  0  0  0  0  0
   44.9758   19.9331   95.5812 H   0  0  0  0  0  0
   47.3498   18.1894   97.9675 H   0  0  0  0  0  0
   46.8677   17.9326   96.2562 H   0  0  0  0  0  0
   48.6899   19.6240   96.5383 H   0  0  0  0  0  0
   47.2216   20.2977   95.7530 H   0  0  0  0  0  0
   47.0631   22.5740   96.2685 H   0  0  0  0  0  0
   48.8313   22.2984   96.4247 H   0  0  0  0  0  0
   47.9485   23.2098   97.6963 H   0  0  0  0  0  0
   48.5957   19.8762   99.2660 H   0  0  0  0  0  0
   48.8333   21.6493   99.4289 H   0  0  0  0  0  0
   49.7160   20.7379   98.1574 H   0  0  0  0  0  0
  1  2  1  0  0  0
  1 27  1  0  0  0
  1 28  1  0  0  0
  1 29  1  0  0  0
  2  3  2  0  0  0
  2 13  1  0  0  0
  3  4  1  0  0  0
  3 30  1  0  0  0
  4  5  2  0  0  0
  4 12  1  0  0  0
  5  6  1  0  0  0
  5 31  1  0  0  0
  6  7  2  0  0  0
  6 32  1  0  0  0
  7  8  1  0  0  0
  7 11  1  0  0  0
  8  9  2  0  0  0
  8 10  1  0  0  0
 11 12  2  0  0  0
 11 33  1  0  0  0
 12 34  1  0  0  0
 13 14  2  0  0  0
 13 18  1  0  0  0
 14 15  1  0  0  0
 14 35  1  0  0  0
 15 16  2  0  0  0
 15 36  1  0  0  0
 16 17  1  0  0  0
 16 24  1  0  0  0
 17 18  2  0  0  0
 17 19  1  0  0  0
 18 37  1  0  0  0
 19 20  1  0  0  0
 19 21  1  0  0  0
 19 22  1  0  0  0
 20 38  1  0  0  0
 20 39  1  0  0  0
 20 40  1  0  0  0
 21 41  1  0  0  0
 21 42  1  0  0  0
 21 43  1  0  0  0
 22 23  1  0  0  0
 22 44  1  0  0  0
 22 45  1  0  0  0
 23 24  1  0  0  0
 23 46  1  0  0  0
 23 47  1  0  0  0
 24 25  1  0  0  0
 24 26  1  0  0  0
 25 48  1  0  0  0
 25 49  1  0  0  0
 25 50  1  0  0  0
 26 51  1  0  0  0
 26 52  1  0  0  0
 26 53  1  0  0  0
M  CHG  1  10  -1
M  END
> <s_m_source_file>
../1xap_ligand.sdf

> <i_m_source_file_index>
1

> <s_epik_input>
Tz1DKFtPSF0pYyhbY0hdW2NIXTEpW2NIXVtjSF1jMS9bQ0hdPUMoXFtDSDNdKWMoW2NIXVtjSF0yKVtjSF1jKGMyMylDKFtDSDNdKShbQ0gzXSlbQ0gyXVtDSDJdQzMoW0NIM10pW0NIM10=

> <s_epik_cmdline>
J2VwaWtfYXBwJywgJy1pbWFlJywgJ2xpZ2FuZF9wcm8ubWFlJywgJy1vbWFlJywgJ2xpZ2FuZF9wcmVwLm1hZScsICctbXMnLCAnMScsICctcGgnLCAnNycsICctcGh0JywgJzAuNScsICctbnQn

> <r_lp_tautomer_probability>
1

> <r_epik_Ionization_Penalty>
  0.0012

> <r_epik_Ionization_Penalty_Charging>
  0.0012

> <r_epik_Ionization_Penalty_Neutral>
  0.0000

> <r_epik_State_Penalty>
 -0.0000

> <r_epik_Charging_Adjusted_Penalty>
0.00115565526730511

> <i_epik_Tot_Q>
-1

> <i_epik_Tot_abs_Q>
1

$$$$
