1xb7_ligand
                    3D
 Schrodinger Suite 2020-3.
159159  0  0  1  0            999 V2000
  -13.3380   71.0180   12.7420 N   0  3  0  0  0  0
  -12.4910   72.2520   12.8970 C   0  0  2  0  0  0
  -11.8790   72.4070   14.2920 C   0  0  0  0  0  0
  -10.6640   72.3470   14.4080 O   0  0  0  0  0  0
  -13.2520   73.5260   12.5130 C   0  0  0  0  0  0
  -12.3870   74.6720   12.5670 O   0  0  0  0  0  0
  -12.6650   72.6110   15.3480 N   0  0  0  0  0  0
  -12.1050   72.3910   16.7040 C   0  0  2  0  0  0
  -11.6570   70.9230   16.8050 C   0  0  0  0  0  0
  -10.5930   70.6010   17.3000 O   0  0  0  0  0  0
  -13.1110   72.6770   17.8290 C   0  0  0  0  0  0
  -13.2290   74.1310   18.2840 C   0  0  0  0  0  0
  -11.8900   74.8160   18.5440 C   0  0  0  0  0  0
  -11.1340   74.3890   19.4660 O   0  0  0  0  0  0
  -11.5910   75.7910   17.8090 O   0  0  0  0  0  0
  -12.5140   70.0530   16.3150 N   0  0  0  0  0  0
  -12.2330   68.6450   16.1820 C   0  0  2  0  0  0
  -10.9830   68.3990   15.3380 C   0  0  0  0  0  0
  -10.1580   67.5580   15.6850 O   0  0  0  0  0  0
  -13.4580   67.9650   15.5700 C   0  0  0  0  0  0
  -13.4020   66.4780   15.2880 C   0  0  0  0  0  0
  -12.8200   65.6970   16.4580 C   0  0  0  0  0  0
  -14.7910   65.9880   14.9340 C   0  0  0  0  0  0
  -10.8140   69.1250   14.2390 N   0  0  0  0  0  0
   -9.5840   68.9400   13.4560 C   0  0  2  0  0  0
   -8.3610   69.3040   14.2860 C   0  0  0  0  0  0
   -7.3530   68.6050   14.2240 O   0  0  0  0  0  0
   -9.5910   69.7170   12.1390 C   0  0  0  0  0  0
   -8.3190   69.5270   11.3090 C   0  0  0  0  0  0
   -8.2260   68.1260   10.7440 C   0  0  0  0  0  0
   -8.2290   70.5620   10.1830 C   0  0  0  0  0  0
   -8.4530   70.3680   15.0800 N   0  0  0  0  0  0
   -7.3250   70.7950   15.9070 C   0  0  2  0  0  0
   -6.9330   69.7530   16.9480 C   0  0  0  0  0  0
   -5.7490   69.4960   17.1320 O   0  0  0  0  0  0
   -7.6080   72.1370   16.5790 C   0  0  0  0  0  0
   -7.5850   73.3320   15.6280 C   0  0  0  0  0  0
   -8.1660   74.5940   16.3010 C   0  0  0  0  0  0
   -8.9590   75.4770   15.3140 C   0  0  0  0  0  0
   -9.8690   76.4480   16.0110 N   0  3  0  0  0  0
   -7.8950   69.1230   17.6220 N   0  0  0  0  0  0
   -7.5020   68.0710   18.5890 C   0  0  2  0  0  0
   -7.0490   66.7720   17.9290 C   0  0  0  0  0  0
   -6.2600   66.0340   18.5240 O   0  0  0  0  0  0
   -8.6060   67.7470   19.5810 C   0  0  0  0  0  0
   -8.9400   68.8390   20.5700 C   0  0  0  0  0  0
  -10.0030   69.7070   20.3260 C   0  0  0  0  0  0
   -8.2340   68.9760   21.7650 C   0  0  0  0  0  0
  -10.3450   70.7000   21.2290 C   0  0  0  0  0  0
   -8.5760   69.9720   22.6980 C   0  0  0  0  0  0
   -9.6400   70.8270   22.4150 C   0  0  0  0  0  0
  -10.0100   71.8060   23.3000 O   0  0  0  0  0  0
   -7.5290   66.4870   16.7200 N   0  0  0  0  0  0
   -7.1540   65.2490   16.0340 C   0  0  2  0  0  0
   -5.7090   65.2560   15.5290 C   0  0  0  0  0  0
   -5.0450   64.2200   15.4650 O   0  0  0  0  0  0
   -8.0720   64.9850   14.8490 C   0  0  0  0  0  0
   -9.1420   63.9260   15.0690 C   0  0  0  0  0  0
  -10.0680   63.9080   13.8710 C   0  0  0  0  0  0
   -8.5080   62.5560   15.3020 C   0  0  0  0  0  0
   -5.2620   66.4410   15.1410 N   0  0  0  0  0  0
   -3.9750   66.6610   14.4810 C   0  0  2  0  0  0
   -2.9540   67.2070   15.4620 C   0  0  0  0  0  0
   -1.8220   67.4740   15.0790 O   0  0  0  0  0  0
   -4.1320   67.6390   13.3170 C   0  0  2  0  0  0
   -4.6380   68.8970   13.8000 O   0  0  0  0  0  0
   -5.1680   67.1310   12.3390 C   0  0  0  0  0  0
   -3.3640   67.3850   16.7200 N   0  0  0  0  0  0
   -2.4140   67.5460   17.8220 C   0  0  2  0  0  0
   -1.6120   66.2370   17.9400 C   0  0  0  0  0  0
   -0.4710   66.2210   18.4180 O   0  0  0  0  0  0
   -3.1530   67.8200   19.1560 C   0  0  2  0  0  0
   -3.6580   69.1620   19.1670 O   0  0  0  0  0  0
   -2.2200   67.7810   20.3350 C   0  0  0  0  0  0
   -2.1574   65.0993   17.5191 O   0  0  0  0  0  0
  -13.7409   70.9759   11.7193 H   0  0  0  0  0  0
  -14.1687   71.0506   13.4623 H   0  0  0  0  0  0
  -12.7236   70.1254   12.9311 H   0  0  0  0  0  0
  -11.6658   72.0904   12.1878 H   0  0  0  0  0  0
  -13.6436   73.4249   11.4900 H   0  0  0  0  0  0
  -14.0875   73.6788   13.2120 H   0  0  0  0  0  0
  -12.7792   75.6693   12.3189 H   0  0  0  0  0  0
  -13.7093   72.9359   15.2303 H   0  0  0  0  0  0
  -11.2744   73.1057   16.8006 H   0  0  0  0  0  0
  -14.1191   72.3811   17.5033 H   0  0  0  0  0  0
  -12.8320   72.1032   18.7251 H   0  0  0  0  0  0
  -13.7460   74.7167   17.5096 H   0  0  0  0  0  0
  -13.8021   74.1764   19.2218 H   0  0  0  0  0  0
  -10.1682   74.8797   19.6568 H   0  0  0  0  0  0
  -13.4891   70.4516   15.9983 H   0  0  0  0  0  0
  -12.0362   68.2745   17.1989 H   0  0  0  0  0  0
  -14.3198   68.0881   16.2424 H   0  0  0  0  0  0
  -13.6841   68.4242   14.5963 H   0  0  0  0  0  0
  -12.7302   66.3099   14.4333 H   0  0  0  0  0  0
  -11.8138   66.0772   16.6883 H   0  0  0  0  0  0
  -12.7575   64.6313   16.1926 H   0  0  0  0  0  0
  -13.4682   65.8182   17.3384 H   0  0  0  0  0  0
  -15.1810   66.5719   14.0873 H   0  0  0  0  0  0
  -15.4556   66.1116   15.8018 H   0  0  0  0  0  0
  -14.7449   64.9247   14.6559 H   0  0  0  0  0  0
  -11.5707   69.8527   13.9107 H   0  0  0  0  0  0
   -9.5727   67.8665   13.2164 H   0  0  0  0  0  0
  -10.4387   69.3847   11.5218 H   0  0  0  0  0  0
   -9.6891   70.7924   12.3483 H   0  0  0  0  0  0
   -7.4630   69.6653   11.9858 H   0  0  0  0  0  0
   -8.2920   67.3951   11.5634 H   0  0  0  0  0  0
   -7.2660   68.0046   10.2208 H   0  0  0  0  0  0
   -9.0524   67.9601   10.0372 H   0  0  0  0  0  0
   -8.2980   71.5739   10.6088 H   0  0  0  0  0  0
   -9.0554   70.4053    9.4741 H   0  0  0  0  0  0
   -7.2690   70.4498    9.6578 H   0  0  0  0  0  0
   -9.3986   70.9293   15.1074 H   0  0  0  0  0  0
   -6.4985   70.8980   15.1884 H   0  0  0  0  0  0
   -8.6058   72.1123   17.0414 H   0  0  0  0  0  0
   -6.8498   72.3266   17.3531 H   0  0  0  0  0  0
   -6.5478   73.5413   15.3272 H   0  0  0  0  0  0
   -8.1862   73.1023   14.7359 H   0  0  0  0  0  0
   -8.8469   74.2965   17.1121 H   0  0  0  0  0  0
   -7.3460   75.1997   16.7143 H   0  0  0  0  0  0
   -8.2577   76.0559   14.6950 H   0  0  0  0  0  0
   -9.5783   74.8385   14.6668 H   0  0  0  0  0  0
  -10.4067   77.0486   15.2625 H   0  0  0  0  0  0
   -9.2730   77.1119   16.6545 H   0  0  0  0  0  0
  -10.5936   75.8945   16.6263 H   0  0  0  0  0  0
   -8.9577   69.3661   17.4755 H   0  0  0  0  0  0
   -6.6506   68.5367   19.1069 H   0  0  0  0  0  0
   -9.5365   67.5298   19.0360 H   0  0  0  0  0  0
   -8.3170   66.8691   20.1774 H   0  0  0  0  0  0
  -10.5771   69.6021   19.4054 H   0  0  0  0  0  0
   -7.4050   68.3015   21.9793 H   0  0  0  0  0  0
  -11.1672   71.3803   21.0070 H   0  0  0  0  0  0
   -8.0172   70.0736   23.6284 H   0  0  0  0  0  0
  -10.8519   72.4728   23.0621 H   0  0  0  0  0  0
   -8.2164   67.1970   16.2369 H   0  0  0  0  0  0
   -7.2724   64.4847   16.8162 H   0  0  0  0  0  0
   -8.6034   65.9108   14.5835 H   0  0  0  0  0  0
   -7.4739   64.6463   13.9901 H   0  0  0  0  0  0
   -9.7301   64.1747   15.9647 H   0  0  0  0  0  0
  -10.5066   64.9071   13.7316 H   0  0  0  0  0  0
  -10.8710   63.1752   14.0392 H   0  0  0  0  0  0
   -9.4990   63.6286   12.9720 H   0  0  0  0  0  0
   -7.8431   62.6037   16.1770 H   0  0  0  0  0  0
   -7.9262   62.2656   14.4148 H   0  0  0  0  0  0
   -9.2981   61.8122   15.4820 H   0  0  0  0  0  0
   -5.9284   67.2922   15.3445 H   0  0  0  0  0  0
   -3.6544   65.6728   14.1195 H   0  0  0  0  0  0
   -3.1522   67.8003   12.8437 H   0  0  0  0  0  0
   -4.0599   69.4767   14.5347 H   0  0  0  0  0  0
   -4.8416   66.1641   11.9284 H   0  0  0  0  0  0
   -5.2859   67.8561   11.5203 H   0  0  0  0  0  0
   -6.1299   67.0033   12.8572 H   0  0  0  0  0  0
   -4.4457   67.4091   16.9184 H   0  0  0  0  0  0
   -1.7761   68.4061   17.5703 H   0  0  0  0  0  0
   -3.9746   67.0956   19.2574 H   0  0  0  0  0  0
   -4.3782   69.4849   18.4008 H   0  0  0  0  0  0
   -1.7734   66.7790   20.4161 H   0  0  0  0  0  0
   -2.7805   68.0081   21.2538 H   0  0  0  0  0  0
   -1.4237   68.5273   20.1973 H   0  0  0  0  0  0
   -1.5947   64.1574   17.5979 H   0  0  0  0  0  0
  1  2  1  0  0  0
  1 76  1  0  0  0
  1 77  1  0  0  0
  1 78  1  0  0  0
  2  5  1  0  0  0
  2  3  1  0  0  0
  2 79  1  0  0  0
  3  4  2  0  0  0
  3  7  1  0  0  0
  5  6  1  0  0  0
  5 80  1  0  0  0
  5 81  1  0  0  0
  6 82  1  0  0  0
  7  8  1  0  0  0
  7 83  1  0  0  0
  8 11  1  0  0  0
  8  9  1  0  0  0
  8 84  1  0  0  0
  9 10  2  0  0  0
  9 16  1  0  0  0
 11 12  1  0  0  0
 11 85  1  0  0  0
 11 86  1  0  0  0
 12 13  1  0  0  0
 12 87  1  0  0  0
 12 88  1  0  0  0
 13 15  2  0  0  0
 13 14  1  0  0  0
 14 89  1  0  0  0
 16 17  1  0  0  0
 16 90  1  0  0  0
 17 20  1  0  0  0
 17 18  1  0  0  0
 17 91  1  0  0  0
 18 19  2  0  0  0
 18 24  1  0  0  0
 20 21  1  0  0  0
 20 92  1  0  0  0
 20 93  1  0  0  0
 21 22  1  0  0  0
 21 23  1  0  0  0
 21 94  1  0  0  0
 22 95  1  0  0  0
 22 96  1  0  0  0
 22 97  1  0  0  0
 23 98  1  0  0  0
 23 99  1  0  0  0
 23100  1  0  0  0
 24 25  1  0  0  0
 24101  1  0  0  0
 25 28  1  0  0  0
 25 26  1  0  0  0
 25102  1  0  0  0
 26 27  2  0  0  0
 26 32  1  0  0  0
 28 29  1  0  0  0
 28103  1  0  0  0
 28104  1  0  0  0
 29 30  1  0  0  0
 29 31  1  0  0  0
 29105  1  0  0  0
 30106  1  0  0  0
 30107  1  0  0  0
 30108  1  0  0  0
 31109  1  0  0  0
 31110  1  0  0  0
 31111  1  0  0  0
 32 33  1  0  0  0
 32112  1  0  0  0
 33 36  1  0  0  0
 33 34  1  0  0  0
 33113  1  0  0  0
 34 35  2  0  0  0
 34 41  1  0  0  0
 36 37  1  0  0  0
 36114  1  0  0  0
 36115  1  0  0  0
 37 38  1  0  0  0
 37116  1  0  0  0
 37117  1  0  0  0
 38 39  1  0  0  0
 38118  1  0  0  0
 38119  1  0  0  0
 39 40  1  0  0  0
 39120  1  0  0  0
 39121  1  0  0  0
 40122  1  0  0  0
 40123  1  0  0  0
 40124  1  0  0  0
 41 42  1  0  0  0
 41125  1  0  0  0
 42 45  1  0  0  0
 42 43  1  0  0  0
 42126  1  0  0  0
 43 44  2  0  0  0
 43 53  1  0  0  0
 45 46  1  0  0  0
 45127  1  0  0  0
 45128  1  0  0  0
 46 47  2  0  0  0
 46 48  1  0  0  0
 47 49  1  0  0  0
 47129  1  0  0  0
 48 50  2  0  0  0
 48130  1  0  0  0
 49 51  2  0  0  0
 49131  1  0  0  0
 50 51  1  0  0  0
 50132  1  0  0  0
 51 52  1  0  0  0
 52133  1  0  0  0
 53 54  1  0  0  0
 53134  1  0  0  0
 54 57  1  0  0  0
 54 55  1  0  0  0
 54135  1  0  0  0
 55 56  2  0  0  0
 55 61  1  0  0  0
 57 58  1  0  0  0
 57136  1  0  0  0
 57137  1  0  0  0
 58 59  1  0  0  0
 58 60  1  0  0  0
 58138  1  0  0  0
 59139  1  0  0  0
 59140  1  0  0  0
 59141  1  0  0  0
 60142  1  0  0  0
 60143  1  0  0  0
 60144  1  0  0  0
 61 62  1  0  0  0
 61145  1  0  0  0
 62 65  1  0  0  0
 62 63  1  0  0  0
 62146  1  0  0  0
 63 64  2  0  0  0
 63 68  1  0  0  0
 65 67  1  0  0  0
 65 66  1  0  0  0
 65147  1  0  0  0
 66148  1  0  0  0
 67149  1  0  0  0
 67150  1  0  0  0
 67151  1  0  0  0
 68 69  1  0  0  0
 68152  1  0  0  0
 69 72  1  0  0  0
 69 70  1  0  0  0
 69153  1  0  0  0
 70 71  2  0  0  0
 70 75  1  0  0  0
 72 74  1  0  0  0
 72 73  1  0  0  0
 72154  1  0  0  0
 73155  1  0  0  0
 74156  1  0  0  0
 74157  1  0  0  0
 74158  1  0  0  0
 75159  1  0  0  0
M  CHG  2   1   1  40   1
M  END
> <s_m_source_file>
../1xb7_ligand.sdf

> <i_m_source_file_index>
1

> <s_epik_input>
W09IXVtDSDJdW0NASF0oW05IMytdKUMoPU8pW05IXVtDQEBIXShbQ0gyXVtDSDJdQyg9TylbT0hdKUMoPU8pW05IXVtDQEBIXShbQ0gyXVtDSF0oW0NIM10pW0NIM10pQyg9TylbTkhdW0NAQEhdKFtDSDJdW0NIXShbQ0gzXSlbQ0gzXSlDKD1PKVtOSF1bQ0BASF0oW0NIMl1bQ0gyXVtDSDJdW0NIMl1bTkgzK10pQyg9TylbTkhdW0NAQEhdKFtDSDJdYzFbY0hdW2NIXWMoW09IXSlbY0hdW2NIXTEpQyg9TylbTkhdW0NAQEhdKFtDSDJdW0NIXShbQ0gzXSlbQ0gzXSlDKD1PKVtOSF1bQ0BASF0oW0NASF0oW09IXSlbQ0gzXSlDKD1PKVtOSF1bQ0BIXShDKD1PKVtPSF0pW0NASF0oW09IXSlbQ0gzXQ==

> <s_epik_cmdline>
J2VwaWtfYXBwJywgJy1pbWFlJywgJ2xpZ2FuZF9wcm8ubWFlJywgJy1vbWFlJywgJ2xpZ2FuZF9wcmVwLm1hZScsICctbXMnLCAnMScsICctcGgnLCAnNycsICctcGh0JywgJzAuNScsICctbnQn

> <s_epik_pKa_notes>
Molecule size exceeds maximum supported for generating protonation states

$$$$
