1xbb_ligand
                    3D
 Schrodinger Suite 2020-3.
 69 73  0  0  1  0            999 V2000
    3.9380    3.4650   11.7780 C   0  0  0  0  0  0
    3.6290    2.3700   12.6010 C   0  0  0  0  0  0
    4.6170    1.8690   13.4470 C   0  0  0  0  0  0
    5.8700    2.4920   13.4700 C   0  0  0  0  0  0
    6.1530    3.5280   12.6580 N   0  0  0  0  0  0
    5.2200    4.0130   11.8200 C   0  0  0  0  0  0
    4.3560    0.7770   14.2950 C   0  0  0  0  0  0
    5.3540    0.2660   15.1580 C   0  0  0  0  0  0
    5.0000   -0.7930   15.9910 C   0  0  0  0  0  0
    3.7150   -1.2770   15.9520 N   0  0  0  0  0  0
    2.7860   -0.8100   15.0840 C   0  0  0  0  0  0
    3.0970    0.2260   14.2690 N   0  0  0  0  0  0
    1.5510   -1.3980   15.1430 N   0  0  0  0  0  0
    0.4250   -1.0900   14.4150 C   0  0  0  0  0  0
   -0.6890   -1.8950   14.6570 C   0  0  0  0  0  0
   -1.8910   -1.6720   13.9850 C   0  0  0  0  0  0
   -1.9570   -0.6360   13.0540 C   0  0  0  0  0  0
   -0.8630    0.1810   12.7910 C   0  0  0  0  0  0
    0.3500   -0.0450   13.4700 C   0  0  0  0  0  0
   -1.1130    1.1520   11.8590 N   0  0  0  0  0  0
   -0.2990    2.0520   11.3120 C   0  0  0  0  0  0
   -0.8540    3.2160   10.5210 C   0  0  0  0  0  0
   -0.1590    3.6410    9.3840 C   0  0  0  0  0  0
   -0.6230    4.7160    8.6260 C   0  0  0  0  0  0
   -1.7950    5.3740    9.0020 C   0  0  0  0  0  0
   -2.4920    4.9560   10.1450 C   0  0  0  0  0  0
   -2.0220    3.8790   10.9050 C   0  0  0  0  0  0
   -2.2480    6.5420    8.1440 C   0  0  0  0  0  0
   -3.6840    6.7940    8.1130 N   0  3  1  0  0  0
   -4.2520    7.7800    9.0360 C   0  0  0  0  0  0
   -5.4660    7.1450    9.7170 C   0  0  0  0  0  0
   -6.2730    6.6010    8.6310 N   0  0  3  0  0  0
   -7.6040    7.1290    8.3640 C   0  0  0  0  0  0
   -5.7380    5.5230    7.8110 C   0  0  0  0  0  0
   -4.5020    6.0990    7.1150 C   0  0  0  0  0  0
    0.9160    1.9340   11.3550 O   0  0  0  0  0  0
   -0.6400   -3.0270   15.6600 C   0  0  0  0  0  0
    3.1828    3.8830   11.1123 H   0  0  0  0  0  0
    2.6362    1.9207   12.5787 H   0  0  0  0  0  0
    6.6328    2.1309   14.1598 H   0  0  0  0  0  0
    5.4692    4.8468   11.1637 H   0  0  0  0  0  0
    6.3604    0.6845   15.1706 H   0  0  0  0  0  0
    5.7343   -1.2326   16.6660 H   0  0  0  0  0  0
    1.3701   -2.2286   15.8411 H   0  0  0  0  0  0
   -2.7623   -2.2959   14.1840 H   0  0  0  0  0  0
   -2.8904   -0.4621   12.5185 H   0  0  0  0  0  0
    1.2201    0.5797   13.2680 H   0  0  0  0  0  0
   -2.1259    1.2712   11.4470 H   0  0  0  0  0  0
    0.7550    3.1266    9.0871 H   0  0  0  0  0  0
   -0.0723    5.0410    7.7433 H   0  0  0  0  0  0
   -3.4044    5.4726   10.4429 H   0  0  0  0  0  0
   -2.5656    3.5585   11.7938 H   0  0  0  0  0  0
   -1.7834    7.4688    8.5116 H   0  0  0  0  0  0
   -1.9459    6.3693    7.1005 H   0  0  0  0  0  0
   -4.3966    6.2382    8.7401 H   0  0  0  0  0  0
   -3.4971    8.0572    9.7865 H   0  0  0  0  0  0
   -4.5565    8.6754    8.4742 H   0  0  0  0  0  0
   -5.1292    6.3555   10.4049 H   0  0  0  0  0  0
   -6.0137    7.9140   10.2815 H   0  0  0  0  0  0
   -7.8309    7.9313    9.0815 H   0  0  0  0  0  0
   -8.3457    6.3234    8.4682 H   0  0  0  0  0  0
   -7.6405    7.5310    7.3407 H   0  0  0  0  0  0
   -5.4722    4.6708    8.4537 H   0  0  0  0  0  0
   -6.4964    5.2079    7.0792 H   0  0  0  0  0  0
   -4.8095    6.8097    6.3337 H   0  0  0  0  0  0
   -3.9153    5.2866    6.6613 H   0  0  0  0  0  0
    0.3646   -3.0793   16.1051 H   0  0  0  0  0  0
   -0.8661   -3.9764   15.1526 H   0  0  0  0  0  0
   -1.3828   -2.8481   16.4513 H   0  0  0  0  0  0
  1  2  2  0  0  0
  1  6  1  0  0  0
  1 38  1  0  0  0
  2  3  1  0  0  0
  2 39  1  0  0  0
  3  4  2  0  0  0
  3  7  1  0  0  0
  4  5  1  0  0  0
  4 40  1  0  0  0
  5  6  2  0  0  0
  6 41  1  0  0  0
  7  8  2  0  0  0
  7 12  1  0  0  0
  8  9  1  0  0  0
  8 42  1  0  0  0
  9 10  2  0  0  0
  9 43  1  0  0  0
 10 11  1  0  0  0
 11 12  2  0  0  0
 11 13  1  0  0  0
 13 14  1  0  0  0
 13 44  1  0  0  0
 14 15  2  0  0  0
 14 19  1  0  0  0
 15 16  1  0  0  0
 15 37  1  0  0  0
 16 17  2  0  0  0
 16 45  1  0  0  0
 17 18  1  0  0  0
 17 46  1  0  0  0
 18 19  2  0  0  0
 18 20  1  0  0  0
 19 47  1  0  0  0
 20 21  1  0  0  0
 20 48  1  0  0  0
 21 22  1  0  0  0
 21 36  2  0  0  0
 22 23  2  0  0  0
 22 27  1  0  0  0
 23 24  1  0  0  0
 23 49  1  0  0  0
 24 25  2  0  0  0
 24 50  1  0  0  0
 25 26  1  0  0  0
 25 28  1  0  0  0
 26 27  2  0  0  0
 26 51  1  0  0  0
 27 52  1  0  0  0
 28 29  1  0  0  0
 28 53  1  0  0  0
 28 54  1  0  0  0
 29 30  1  0  0  0
 29 35  1  0  0  0
 29 55  1  0  0  0
 30 31  1  0  0  0
 30 56  1  0  0  0
 30 57  1  0  0  0
 31 32  1  0  0  0
 31 58  1  0  0  0
 31 59  1  0  0  0
 32 33  1  0  0  0
 32 34  1  0  0  0
 33 60  1  0  0  0
 33 61  1  0  0  0
 33 62  1  0  0  0
 34 35  1  0  0  0
 34 63  1  0  0  0
 34 64  1  0  0  0
 35 65  1  0  0  0
 35 66  1  0  0  0
 37 67  1  0  0  0
 37 68  1  0  0  0
 37 69  1  0  0  0
M  CHG  1  29   1
M  END
> <s_m_source_file>
../1xbb_ligand.sdf

> <i_m_source_file_index>
1

> <s_epik_input>
W2NIXTFuW2NIXVtjSF1bY0hdYzEtYzJbY0hdW2NIXW5jKG4yKVtOSF1jM2MoW0NIM10pW2NIXVtjSF1jKFtjSF0zKVtOSF1DKD1PKWM0W2NIXVtjSF1jKFtjSF1bY0hdNClbQ0gyXVtOQEgrXTVbQ0gyXVtDSDJdW05IK10oW0NIM10pW0NIMl1bQ0gyXTU=

> <s_epik_cmdline>
J2VwaWtfYXBwJywgJy1pbWFlJywgJ2xpZ2FuZF9wcm8ubWFlJywgJy1vbWFlJywgJ2xpZ2FuZF9wcmVwLm1hZScsICctbXMnLCAnMScsICctcGgnLCAnNycsICctcGh0JywgJzAuNScsICctbnQn

> <r_lp_tautomer_probability>
1

> <r_epik_Ionization_Penalty>
  0.0173

> <r_epik_Ionization_Penalty_Charging>
  0.0155

> <r_epik_Ionization_Penalty_Neutral>
  0.0019

> <r_epik_State_Penalty>
 -0.0000

> <r_epik_Charging_Adjusted_Penalty>
0.0154526225118262

> <i_epik_Tot_Q>
1

> <i_epik_Tot_abs_Q>
1

$$$$
