1xbo_ligand
                    3D
 Schrodinger Suite 2020-3.
 49 51  0  0  1  0            999 V2000
   32.8960   31.7900   18.5570 C   0  0  0  0  0  0
   32.4280   30.9070   19.5840 C   0  0  0  0  0  0
   31.0240   30.6640   19.6750 C   0  0  0  0  0  0
   30.1000   31.2720   18.7780 C   0  0  0  0  0  0
   30.5890   32.1510   17.7550 C   0  0  0  0  0  0
   31.9820   32.4040   17.6500 C   0  0  0  0  0  0
   33.3160   30.2190   20.5890 C   0  0  0  0  0  0
   32.6950   29.5150   21.6090 O   0  0  0  0  0  0
   33.7090   28.9820   22.4160 N   0  0  0  0  0  0
   34.9120   29.3410   21.9140 C   0  0  0  0  0  0
   34.6780   30.1580   20.6990 C   0  0  0  0  0  0
   36.2570   28.9450   22.5420 C   0  0  0  0  0  0
   37.2090   29.9170   22.5840 O   0  5  0  0  0  0
   36.4310   27.8340   22.9870 O   0  0  0  0  0  0
   28.6530   30.9850   18.9290 C   0  0  0  0  0  0
   24.8110   29.9690   21.4260 C   0  0  0  0  0  0
   23.9450   31.1220   21.6180 C   0  0  0  0  0  0
   22.6210   31.0010   22.1190 C   0  0  0  0  0  0
   22.1150   29.7320   22.4470 C   0  0  0  0  0  0
   22.9150   28.5720   22.2810 C   0  0  0  0  0  0
   24.2620   28.6600   21.7740 C   0  0  0  0  0  0
   25.0340   27.3800   21.6320 C   0  0  0  0  0  0
   25.1260   26.6010   22.5580 O   0  0  0  0  0  0
   25.6070   27.1460   20.4280 O   0  0  0  0  0  0
   26.3620   25.9160   20.2230 C   0  0  0  0  0  0
   22.3080   27.3820   22.6360 O   0  0  0  0  0  0
   26.1650   30.0910   20.9130 O   0  0  0  0  0  0
   26.6490   31.4130   20.5830 C   0  0  0  0  0  0
   28.0620   31.4810   20.0510 C   0  0  0  0  0  0
   35.8380   30.7220   19.8930 C   0  0  0  0  0  0
   35.8160   30.2930   18.5400 O   0  0  0  0  0  0
   33.9628   31.9949   18.4678 H   0  0  0  0  0  0
   30.6498   29.9961   20.4509 H   0  0  0  0  0  0
   29.8935   32.6229   17.0609 H   0  0  0  0  0  0
   32.3550   33.0707   16.8725 H   0  0  0  0  0  0
   28.0591   30.4111   18.2024 H   0  0  0  0  0  0
   24.3249   32.1128   21.3689 H   0  0  0  0  0  0
   22.0010   31.8881   22.2482 H   0  0  0  0  0  0
   21.0997   29.6379   22.8321 H   0  0  0  0  0  0
   26.7535   25.8930   19.1953 H   0  0  0  0  0  0
   25.7029   25.0501   20.3838 H   0  0  0  0  0  0
   27.1993   25.8767   20.9353 H   0  0  0  0  0  0
   21.2760   27.3832   23.0169 H   0  0  0  0  0  0
   26.0065   31.8557   19.8076 H   0  0  0  0  0  0
   26.6279   32.0463   21.4822 H   0  0  0  0  0  0
   28.6543   32.0611   20.7740 H   0  0  0  0  0  0
   35.7904   31.8209   19.9017 H   0  0  0  0  0  0
   36.7884   30.3926   20.3383 H   0  0  0  0  0  0
   36.5994   30.6276   17.8441 H   0  0  0  0  0  0
  1  2  2  0  0  0
  1  6  1  0  0  0
  1 32  1  0  0  0
  2  3  1  0  0  0
  2  7  1  0  0  0
  3  4  2  0  0  0
  3 33  1  0  0  0
  4  5  1  0  0  0
  4 15  1  0  0  0
  5  6  2  0  0  0
  5 34  1  0  0  0
  6 35  1  0  0  0
  7  8  1  0  0  0
  7 11  2  0  0  0
  8  9  1  0  0  0
  9 10  2  0  0  0
 10 11  1  0  0  0
 10 12  1  0  0  0
 11 30  1  0  0  0
 12 13  1  0  0  0
 12 14  2  0  0  0
 15 29  2  0  0  0
 15 36  1  0  0  0
 16 17  2  0  0  0
 16 21  1  0  0  0
 16 27  1  0  0  0
 17 18  1  0  0  0
 17 37  1  0  0  0
 18 19  2  0  0  0
 18 38  1  0  0  0
 19 20  1  0  0  0
 19 39  1  0  0  0
 20 21  2  0  0  0
 20 26  1  0  0  0
 21 22  1  0  0  0
 22 23  2  0  0  0
 22 24  1  0  0  0
 24 25  1  0  0  0
 25 40  1  0  0  0
 25 41  1  0  0  0
 25 42  1  0  0  0
 26 43  1  0  0  0
 27 28  1  0  0  0
 28 29  1  0  0  0
 28 44  1  0  0  0
 28 45  1  0  0  0
 29 46  1  0  0  0
 30 31  1  0  0  0
 30 47  1  0  0  0
 30 48  1  0  0  0
 31 49  1  0  0  0
M  CHG  1  13  -1
M  END
> <s_m_source_file>
../1xbo_ligand.sdf

> <i_m_source_file_index>
1

> <s_epik_input>
W09IXVtDSDJdYzFjKEMoPU8pW09IXSlub2MxLWMyW2NIXVtjSF1bY0hdYyhbY0hdMikvW0NIXT1bQ0hdL1tDSDJdT2MzW2NIXVtjSF1bY0hdYyhbT0hdKWMzQyg9TylPW0NIM10=

> <s_epik_cmdline>
J2VwaWtfYXBwJywgJy1pbWFlJywgJ2xpZ2FuZF9wcm8ubWFlJywgJy1vbWFlJywgJ2xpZ2FuZF9wcmVwLm1hZScsICctbXMnLCAnMScsICctcGgnLCAnNycsICctcGh0JywgJzAuNScsICctbnQn

> <r_epik_Ionization_Penalty>
  0.1314

> <r_epik_Ionization_Penalty_Charging>
  0.0000

> <r_epik_Ionization_Penalty_Neutral>
  0.1314

> <r_epik_State_Penalty>
  0.1207

> <r_epik_Charging_Adjusted_Penalty>
0.120768798157849

> <i_epik_Tot_Q>
-1

> <i_epik_Tot_abs_Q>
1

> <s_epik_Chemistry_Notes>
This compound has an ester and may undergo hydrolysis at high or low pH.

$$$$
