1xdd_ligand
                    3D
 Schrodinger Suite 2020-3.
 93 97  0  0  1  0            999 V2000
   29.1670   85.3540   38.8860 O   0  0  0  0  0  0
   29.7230   86.2550   38.2960 C   0  0  0  0  0  0
   29.1350   86.9140   37.0540 C   0  0  1  0  0  0
   28.7540   85.8550   36.0080 C   0  0  0  0  0  0
   27.8940   87.7040   37.4450 C   0  0  0  0  0  0
   28.2410   88.7810   38.4910 C   0  0  0  0  0  0
   30.8820   86.8020   38.6570 O   0  0  0  0  0  0
   31.6430   86.1280   39.6900 C   0  0  1  0  0  0
   32.2890   84.8370   39.1730 C   0  0  0  0  0  0
   33.3240   85.1000   38.0670 C   0  0  1  0  0  0
   32.7270   84.9580   36.6380 C   0  0  0  0  0  0
   33.9480   86.4520   38.0870 C   0  0  0  0  0  0
   33.7310   87.3600   39.0360 C   0  0  0  0  0  0
   32.7210   87.1360   40.1510 C   0  0  1  0  0  0
   34.4430   88.5050   38.9530 C   0  0  0  0  0  0
   34.3460   89.4710   39.8620 C   0  0  0  0  0  0
   33.2230   89.5060   40.8810 C   0  0  2  0  0  0
   33.8410   89.2000   42.2700 C   0  0  0  0  0  0
   32.1100   88.5150   40.5100 C   0  0  2  0  0  0
   30.9840   88.3680   41.6010 C   0  0  0  0  0  0
   30.4750   89.7330   42.1220 C   0  0  0  0  0  0
   29.3430   89.6190   43.1780 C   0  0  2  0  0  0
   29.7070   88.9010   44.4010 N   0  0  0  0  0  0
   28.8580   88.0190   44.9870 C   0  0  0  0  0  0
   29.1390   87.4550   46.0250 O   0  0  0  0  0  0
   27.5150   87.6950   44.4260 C   0  0  0  0  0  0
   26.9890   88.8510   43.5730 C   0  0  2  0  0  0
   25.7750   88.4650   42.9330 O   0  0  0  0  0  0
   28.0770   89.0560   42.5080 C   0  0  0  0  0  0
   30.9690   89.1450   45.0580 C   0  0  0  0  0  0
   30.8210   90.4090   45.8560 C   0  0  0  0  0  0
   31.2340   91.6260   45.3320 C   0  0  0  0  0  0
   31.0940   92.8040   46.0580 C   0  0  0  0  0  0
   30.5330   92.7450   47.3400 C   0  0  0  0  0  0
   30.3700   93.9040   48.1170 C   0  0  0  0  0  0
   30.8120   95.2890   47.6190 C   0  0  0  0  0  0
   30.0640   95.6950   46.4720 O   0  0  0  0  0  0
   29.7900   93.7890   49.3850 C   0  0  0  0  0  0
   29.6220   94.9180   50.1740 O   0  0  0  0  0  0
   28.2370   95.3000   50.3360 C   0  0  0  0  0  0
   29.3730   92.5510   49.8860 C   0  0  0  0  0  0
   29.5440   91.4070   49.1180 C   0  0  0  0  0  0
   30.1190   91.5080   47.8540 C   0  0  0  0  0  0
   30.2530   90.3390   47.1130 C   0  0  0  0  0  0
   29.8891   87.5908   36.6259 H   0  0  0  0  0  0
   29.6489   85.2823   35.7233 H   0  0  0  0  0  0
   28.3379   86.3511   35.1188 H   0  0  0  0  0  0
   28.0024   85.1735   36.4331 H   0  0  0  0  0  0
   27.4764   88.1954   36.5539 H   0  0  0  0  0  0
   27.1446   87.0217   37.8725 H   0  0  0  0  0  0
   27.3314   89.3387   38.7586 H   0  0  0  0  0  0
   28.9855   89.4734   38.0712 H   0  0  0  0  0  0
   28.6538   88.2996   39.3898 H   0  0  0  0  0  0
   30.9393   85.8423   40.4857 H   0  0  0  0  0  0
   32.8008   84.3257   40.0017 H   0  0  0  0  0  0
   31.5113   84.1778   38.7599 H   0  0  0  0  0  0
   34.1071   84.3643   38.3024 H   0  0  0  0  0  0
   32.2422   83.9756   36.5392 H   0  0  0  0  0  0
   33.5323   85.0461   35.8938 H   0  0  0  0  0  0
   31.9843   85.7519   36.4703 H   0  0  0  0  0  0
   34.6248   86.6814   37.2507 H   0  0  0  0  0  0
   33.2139   86.7041   41.0345 H   0  0  0  0  0  0
   35.1215   88.6230   38.0953 H   0  0  0  0  0  0
   35.0941   90.2769   39.8901 H   0  0  0  0  0  0
   32.7539   90.5010   40.8817 H   0  0  0  0  0  0
   34.6302   89.9340   42.4899 H   0  0  0  0  0  0
   34.2725   88.1882   42.2645 H   0  0  0  0  0  0
   33.0586   89.2608   43.0408 H   0  0  0  0  0  0
   31.6277   88.9465   39.6205 H   0  0  0  0  0  0
   30.1258   87.8301   41.1720 H   0  0  0  0  0  0
   31.3773   87.8050   42.4603 H   0  0  0  0  0  0
   31.3061   90.2789   42.5924 H   0  0  0  0  0  0
   30.0788   90.3217   41.2815 H   0  0  0  0  0  0
   29.1471   90.6130   43.6064 H   0  0  0  0  0  0
   27.5875   86.7951   43.7975 H   0  0  0  0  0  0
   26.8084   87.5115   45.2488 H   0  0  0  0  0  0
   26.7199   89.7505   44.1462 H   0  0  0  0  0  0
   24.8741   88.2711   43.5337 H   0  0  0  0  0  0
   27.7190   89.7648   41.7468 H   0  0  0  0  0  0
   28.3120   88.0931   42.0308 H   0  0  0  0  0  0
   31.2087   88.2981   45.7177 H   0  0  0  0  0  0
   31.7604   89.2564   44.3022 H   0  0  0  0  0  0
   31.6750   91.6591   44.3358 H   0  0  0  0  0  0
   31.4153   93.7565   45.6366 H   0  0  0  0  0  0
   30.6583   96.0314   48.4160 H   0  0  0  0  0  0
   31.8774   95.2581   47.3472 H   0  0  0  0  0  0
   30.2664   96.6674   45.9993 H   0  0  0  0  0  0
   28.1758   96.1976   50.9690 H   0  0  0  0  0  0
   27.6830   94.4774   50.8117 H   0  0  0  0  0  0
   27.7985   95.5157   49.3505 H   0  0  0  0  0  0
   28.9165   92.4850   50.8736 H   0  0  0  0  0  0
   29.2302   90.4364   49.5021 H   0  0  0  0  0  0
   29.9158   89.3844   47.5170 H   0  0  0  0  0  0
  1  2  2  0  0  0
  2  3  1  0  0  0
  2  7  1  0  0  0
  3  4  1  0  0  0
  3  5  1  0  0  0
  3 45  1  0  0  0
  4 46  1  0  0  0
  4 47  1  0  0  0
  4 48  1  0  0  0
  5  6  1  0  0  0
  5 49  1  0  0  0
  5 50  1  0  0  0
  6 51  1  0  0  0
  6 52  1  0  0  0
  6 53  1  0  0  0
  7  8  1  0  0  0
  8  9  1  0  0  0
  8 14  1  0  0  0
  8 54  1  0  0  0
  9 10  1  0  0  0
  9 55  1  0  0  0
  9 56  1  0  0  0
 10 11  1  0  0  0
 10 12  1  0  0  0
 10 57  1  0  0  0
 11 58  1  0  0  0
 11 59  1  0  0  0
 11 60  1  0  0  0
 12 13  2  0  0  0
 12 61  1  0  0  0
 13 14  1  0  0  0
 13 15  1  0  0  0
 14 19  1  0  0  0
 14 62  1  0  0  0
 15 16  2  0  0  0
 15 63  1  0  0  0
 16 17  1  0  0  0
 16 64  1  0  0  0
 17 18  1  0  0  0
 17 19  1  0  0  0
 17 65  1  0  0  0
 18 66  1  0  0  0
 18 67  1  0  0  0
 18 68  1  0  0  0
 19 20  1  0  0  0
 19 69  1  0  0  0
 20 21  1  0  0  0
 20 70  1  0  0  0
 20 71  1  0  0  0
 21 22  1  0  0  0
 21 72  1  0  0  0
 21 73  1  0  0  0
 22 23  1  0  0  0
 22 29  1  0  0  0
 22 74  1  0  0  0
 23 24  1  0  0  0
 23 30  1  0  0  0
 24 25  2  0  0  0
 24 26  1  0  0  0
 26 27  1  0  0  0
 26 75  1  0  0  0
 26 76  1  0  0  0
 27 28  1  0  0  0
 27 29  1  0  0  0
 27 77  1  0  0  0
 28 78  1  0  0  0
 29 79  1  0  0  0
 29 80  1  0  0  0
 30 31  1  0  0  0
 30 81  1  0  0  0
 30 82  1  0  0  0
 31 32  2  0  0  0
 31 44  1  0  0  0
 32 33  1  0  0  0
 32 83  1  0  0  0
 33 34  2  0  0  0
 33 84  1  0  0  0
 34 35  1  0  0  0
 34 43  1  0  0  0
 35 36  1  0  0  0
 35 38  2  0  0  0
 36 37  1  0  0  0
 36 85  1  0  0  0
 36 86  1  0  0  0
 37 87  1  0  0  0
 38 39  1  0  0  0
 38 41  1  0  0  0
 39 40  1  0  0  0
 40 88  1  0  0  0
 40 89  1  0  0  0
 40 90  1  0  0  0
 41 42  2  0  0  0
 41 91  1  0  0  0
 42 43  1  0  0  0
 42 92  1  0  0  0
 43 44  2  0  0  0
 44 93  1  0  0  0
M  END
> <s_m_source_file>
../1xdd_ligand.sdf

> <i_m_source_file_index>
1

> <s_epik_input>
W0NIM11bQ0gyXVtDQEhdKFtDSDNdKUMoPU8pT1tDQEBIXShbQ0gyXVtDQEBIXShbQ0gzXSlbQ0hdPTEpW0NAQEhdKEMxMilbQ0BIXShbQ0BASF0oW0NIM10pW0NIXT1bQ0hdMilbQ0gyXVtDSDJdW0NAQEhdM04oQyg9TylbQ0gyXVtDQEhdKFtPSF0pW0NIMl0zKVtDSDJdYyhbY0hdW2NIXTQpW2NIXWMoYzQ1KVtjSF1bY0hdYyhPW0NIM10pYzVbQ0gyXVtPSF0=

> <s_epik_cmdline>
J2VwaWtfYXBwJywgJy1pbWFlJywgJ2xpZ2FuZF9wcm8ubWFlJywgJy1vbWFlJywgJ2xpZ2FuZF9wcmVwLm1hZScsICctbXMnLCAnMScsICctcGgnLCAnNycsICctcGh0JywgJzAuNScsICctbnQn

> <r_lp_tautomer_probability>
1

> <r_epik_Ionization_Penalty>
  0.0000

> <r_epik_Ionization_Penalty_Charging>
  0.0000

> <r_epik_Ionization_Penalty_Neutral>
  0.0000

> <r_epik_State_Penalty>
 -0.0000

> <r_epik_Charging_Adjusted_Penalty>
0

> <i_epik_Tot_Q>
0

> <i_epik_Tot_abs_Q>
0

> <s_epik_Chemistry_Notes>
This compound has an ester and may undergo hydrolysis at high or low pH.

$$$$
