1xdg_ligand
                    3D
 Schrodinger Suite 2020-3.
 91 94  0  0  1  0            999 V2000
   52.3630   28.6250   15.9210 C   0  0  0  0  0  0
   52.5730   27.3410   15.3170 O   0  0  0  0  0  0
   51.8920   26.2280   15.8440 C   0  0  0  0  0  0
   52.4520   24.9700   15.6120 C   0  0  0  0  0  0
   53.6390   24.8870   14.8940 O   0  0  0  0  0  0
   51.8460   23.8140   16.0970 C   0  0  0  0  0  0
   50.6520   23.9320   16.8020 C   0  0  0  0  0  0
   50.6960   26.3310   16.5530 C   0  0  0  0  0  0
   50.0780   25.1760   17.0270 C   0  0  0  0  0  0
   48.7890   25.2370   17.8210 C   0  0  0  0  0  0
   49.1770   24.9150   19.1820 N   0  0  0  0  0  0
   50.0450   25.8080   19.9570 C   0  0  1  0  0  0
   49.4100   27.2390   20.0940 C   0  0  0  0  0  0
   50.2460   28.2340   20.8980 C   0  0  0  0  0  0
   49.6660   28.8840   21.9410 N   0  0  0  0  0  0
   50.2230   30.1400   22.4440 C   0  0  0  0  0  0
   51.4270   28.3480   20.6040 O   0  0  0  0  0  0
   50.3930   25.2780   21.3610 C   0  0  0  0  0  0
   50.2810   23.7130   21.3480 C   0  0  2  0  0  0
   48.9460   23.4010   20.9540 O   0  0  0  0  0  0
   48.6170   23.8250   19.7410 C   0  0  0  0  0  0
   47.7690   23.1620   19.1460 O   0  0  0  0  0  0
   50.4940   23.1640   22.7740 C   0  0  0  0  0  0
   50.4640   21.6040   22.8590 C   0  0  0  0  0  0
   50.5260   21.1490   24.3320 C   0  0  2  0  0  0
   50.4130   19.6130   24.2710 C   0  0  2  0  0  0
   50.3750   19.0710   25.6630 C   0  0  0  0  0  0
   49.7220   19.8650   26.7270 C   0  0  0  0  0  0
   49.2360   21.0690   26.4890 C   0  0  0  0  0  0
   49.3550   21.7450   25.1440 C   0  0  2  0  0  0
   48.0080   21.5930   24.3960 C   0  0  0  0  0  0
   50.9060   17.8810   25.9450 C   0  0  0  0  0  0
   51.5800   16.9720   24.9510 C   0  0  2  0  0  0
   53.0570   16.7870   25.3610 C   0  0  0  0  0  0
   51.4730   17.4780   23.4940 C   0  0  0  0  0  0
   51.5830   19.0300   23.4400 C   0  0  2  0  0  0
   52.8050   19.4970   24.0220 O   0  0  0  0  0  0
   53.8870   19.4220   23.2590 C   0  0  0  0  0  0
   53.8590   19.0910   22.0770 O   0  0  0  0  0  0
   55.1550   19.7600   24.0160 C   0  0  1  0  0  0
   56.1400   18.5710   23.9800 C   0  0  0  0  0  0
   55.8090   20.9630   23.3690 C   0  0  0  0  0  0
   54.8630   22.1630   23.5780 C   0  0  0  0  0  0
   52.9642   29.3807   15.3942 H   0  0  0  0  0  0
   52.6658   28.5870   16.9778 H   0  0  0  0  0  0
   51.2980   28.8919   15.8541 H   0  0  0  0  0  0
   54.1158   25.8017   14.5119 H   0  0  0  0  0  0
   52.2977   22.8365   15.9279 H   0  0  0  0  0  0
   50.1611   23.0363   17.1825 H   0  0  0  0  0  0
   50.2479   27.3078   16.7350 H   0  0  0  0  0  0
   48.3604   26.2474   17.7472 H   0  0  0  0  0  0
   48.0743   24.5051   17.4166 H   0  0  0  0  0  0
   50.9617   25.8017   19.3490 H   0  0  0  0  0  0
   49.2708   27.6756   19.0940 H   0  0  0  0  0  0
   48.4358   27.1611   20.5989 H   0  0  0  0  0  0
   48.7672   28.4549   22.4079 H   0  0  0  0  0  0
   49.6120   30.5016   23.2842 H   0  0  0  0  0  0
   50.2209   30.8902   21.6395 H   0  0  0  0  0  0
   51.2548   29.9724   22.7864 H   0  0  0  0  0  0
   51.4187   25.5776   21.6222 H   0  0  0  0  0  0
   49.6901   25.6974   22.0959 H   0  0  0  0  0  0
   50.9690   23.2335   20.6362 H   0  0  0  0  0  0
   51.4735   23.4931   23.1511 H   0  0  0  0  0  0
   49.7005   23.5427   23.4350 H   0  0  0  0  0  0
   49.5342   21.2299   22.4056 H   0  0  0  0  0  0
   51.3279   21.1906   22.3180 H   0  0  0  0  0  0
   51.4499   21.4819   24.8276 H   0  0  0  0  0  0
   49.4693   19.3015   23.7995 H   0  0  0  0  0  0
   49.6463   19.4306   27.7348 H   0  0  0  0  0  0
   48.7193   21.6213   27.2877 H   0  0  0  0  0  0
   49.5757   22.8105   25.3049 H   0  0  0  0  0  0
   48.0777   22.0808   23.4125 H   0  0  0  0  0  0
   47.2070   22.0653   24.9836 H   0  0  0  0  0  0
   47.7824   20.5250   24.2604 H   0  0  0  0  0  0
   50.8712   17.4931   26.9737 H   0  0  0  0  0  0
   51.0387   16.0153   24.9922 H   0  0  0  0  0  0
   53.1070   16.4272   26.3993 H   0  0  0  0  0  0
   53.5831   17.7497   25.2808 H   0  0  0  0  0  0
   53.5331   16.0523   24.6950 H   0  0  0  0  0  0
   52.2862   17.0432   22.8942 H   0  0  0  0  0  0
   50.5036   17.1758   23.0711 H   0  0  0  0  0  0
   51.6241   19.3859   22.4000 H   0  0  0  0  0  0
   54.8869   19.9942   25.0568 H   0  0  0  0  0  0
   55.6718   17.6927   24.4485 H   0  0  0  0  0  0
   57.0549   18.8360   24.5302 H   0  0  0  0  0  0
   56.3947   18.3374   22.9357 H   0  0  0  0  0  0
   56.7831   21.1506   23.8443 H   0  0  0  0  0  0
   55.9558   20.7680   22.2964 H   0  0  0  0  0  0
   55.3035   23.0611   23.1205 H   0  0  0  0  0  0
   54.7191   22.3332   24.6552 H   0  0  0  0  0  0
   53.8917   21.9505   23.1074 H   0  0  0  0  0  0
  1  2  1  0  0  0
  1 44  1  0  0  0
  1 45  1  0  0  0
  1 46  1  0  0  0
  2  3  1  0  0  0
  3  4  2  0  0  0
  3  8  1  0  0  0
  4  5  1  0  0  0
  4  6  1  0  0  0
  5 47  1  0  0  0
  6  7  2  0  0  0
  6 48  1  0  0  0
  7  9  1  0  0  0
  7 49  1  0  0  0
  8  9  2  0  0  0
  8 50  1  0  0  0
  9 10  1  0  0  0
 10 11  1  0  0  0
 10 51  1  0  0  0
 10 52  1  0  0  0
 11 12  1  0  0  0
 11 21  1  0  0  0
 12 13  1  0  0  0
 12 18  1  0  0  0
 12 53  1  0  0  0
 13 14  1  0  0  0
 13 54  1  0  0  0
 13 55  1  0  0  0
 14 15  1  0  0  0
 14 17  2  0  0  0
 15 16  1  0  0  0
 15 56  1  0  0  0
 16 57  1  0  0  0
 16 58  1  0  0  0
 16 59  1  0  0  0
 18 19  1  0  0  0
 18 60  1  0  0  0
 18 61  1  0  0  0
 19 20  1  0  0  0
 19 23  1  0  0  0
 19 62  1  0  0  0
 20 21  1  0  0  0
 21 22  2  0  0  0
 23 24  1  0  0  0
 23 63  1  0  0  0
 23 64  1  0  0  0
 24 25  1  0  0  0
 24 65  1  0  0  0
 24 66  1  0  0  0
 25 26  1  0  0  0
 25 30  1  0  0  0
 25 67  1  0  0  0
 26 27  1  0  0  0
 26 36  1  0  0  0
 26 68  1  0  0  0
 27 28  1  0  0  0
 27 32  2  0  0  0
 28 29  2  0  0  0
 28 69  1  0  0  0
 29 30  1  0  0  0
 29 70  1  0  0  0
 30 31  1  0  0  0
 30 71  1  0  0  0
 31 72  1  0  0  0
 31 73  1  0  0  0
 31 74  1  0  0  0
 32 33  1  0  0  0
 32 75  1  0  0  0
 33 34  1  0  0  0
 33 35  1  0  0  0
 33 76  1  0  0  0
 34 77  1  0  0  0
 34 78  1  0  0  0
 34 79  1  0  0  0
 35 36  1  0  0  0
 35 80  1  0  0  0
 35 81  1  0  0  0
 36 37  1  0  0  0
 36 82  1  0  0  0
 37 38  1  0  0  0
 38 39  2  0  0  0
 38 40  1  0  0  0
 40 41  1  0  0  0
 40 42  1  0  0  0
 40 83  1  0  0  0
 41 84  1  0  0  0
 41 85  1  0  0  0
 41 86  1  0  0  0
 42 43  1  0  0  0
 42 87  1  0  0  0
 42 88  1  0  0  0
 43 89  1  0  0  0
 43 90  1  0  0  0
 43 91  1  0  0  0
M  END
> <s_m_source_file>
../1xdg_ligand.sdf

> <i_m_source_file_index>
1

> <s_epik_input>
W0NIM11PYzFjKFtPSF0pW2NIXVtjSF1jKFtjSF0xKVtDSDJdTjJbQ0BASF0oW0NIMl1DKD1PKVtOSF1bQ0gzXSlbQ0gyXVtDQEhdKE9DMj1PKVtDSDJdW0NIMl1bQ0BIXTNbQ0BASF0oW0NIM10pW0NIXT1bQ0hdQyhbQ0BASF0zNCk9W0NIXVtDQEhdKFtDSDNdKVtDSDJdW0NAQEhdNE9DKD1PKVtDQEBIXShbQ0gzXSlbQ0gyXVtDSDNd

> <s_epik_cmdline>
J2VwaWtfYXBwJywgJy1pbWFlJywgJ2xpZ2FuZF9wcm8ubWFlJywgJy1vbWFlJywgJ2xpZ2FuZF9wcmVwLm1hZScsICctbXMnLCAnMScsICctcGgnLCAnNycsICctcGh0JywgJzAuNScsICctbnQn

> <r_lp_tautomer_probability>
1

> <r_epik_Ionization_Penalty>
  0.0007

> <r_epik_Ionization_Penalty_Charging>
  0.0000

> <r_epik_Ionization_Penalty_Neutral>
  0.0007

> <r_epik_State_Penalty>
 -0.0000

> <r_epik_Charging_Adjusted_Penalty>
0

> <i_epik_Tot_Q>
0

> <i_epik_Tot_abs_Q>
0

> <s_epik_Chemistry_Notes>
This compound has an ester and may undergo hydrolysis at high or low pH.

$$$$
