1xff_ligand
                    3D
 Schrodinger Suite 2020-3.
 18 17  0  0  1  0            999 V2000
    6.4050   30.7060   29.8130 N   0  3  0  0  0  0
    5.5520   30.4970   28.5940 C   0  0  2  0  0  0
    4.9540   29.1030   28.5460 C   0  0  0  0  0  0
    4.0110   28.8530   27.7710 O   0  0  0  0  0  0
    6.3450   30.7490   27.3220 C   0  0  0  0  0  0
    7.5250   29.8070   27.0560 C   0  0  0  0  0  0
    8.1800   30.1280   25.7280 C   0  0  0  0  0  0
    8.8920   31.1610   25.6620 O   0  5  0  0  0  0
    8.0170   29.3580   24.7530 O   0  0  0  0  0  0
    5.4220   28.2370   29.3110 O   0  5  0  0  0  0
    5.8063   30.5171   30.7162 H   0  0  0  0  0  0
    6.7751   31.7418   29.8283 H   0  0  0  0  0  0
    7.2582   30.0121   29.7869 H   0  0  0  0  0  0
    4.7325   31.2265   28.6730 H   0  0  0  0  0  0
    5.6805   30.6531   26.4506 H   0  0  0  0  0  0
    6.7695   31.7634   27.3495 H   0  0  0  0  0  0
    8.2714   29.9193   27.8561 H   0  0  0  0  0  0
    7.1662   28.7674   27.0326 H   0  0  0  0  0  0
  1  2  1  0  0  0
  1 11  1  0  0  0
  1 12  1  0  0  0
  1 13  1  0  0  0
  2  3  1  0  0  0
  2  5  1  0  0  0
  2 14  1  0  0  0
  3  4  2  0  0  0
  3 10  1  0  0  0
  5  6  1  0  0  0
  5 15  1  0  0  0
  5 16  1  0  0  0
  6  7  1  0  0  0
  6 17  1  0  0  0
  6 18  1  0  0  0
  7  8  1  0  0  0
  7  9  2  0  0  0
M  CHG  3   1   1   8  -1  10  -1
M  END
> <s_m_source_file>
../1xff_ligand.sdf

> <i_m_source_file_index>
1

> <s_epik_input>
Tz1DKFtPSF0pW0NAQEhdKFtOSDMrXSlbQ0gyXVtDSDJdQyg9TylbT0hd

> <s_epik_cmdline>
J2VwaWtfYXBwJywgJy1pbWFlJywgJ2xpZ2FuZF9wcm8ubWFlJywgJy1vbWFlJywgJ2xpZ2FuZF9wcmVwLm1hZScsICctbXMnLCAnMScsICctcGgnLCAnNycsICctcGh0JywgJzAuNScsICctbnQn

> <r_lp_tautomer_probability>
1

> <r_epik_Ionization_Penalty>
  0.0027

> <r_epik_Ionization_Penalty_Charging>
  0.0027

> <r_epik_Ionization_Penalty_Neutral>
  0.0000

> <r_epik_State_Penalty>
 -0.0000

> <r_epik_Charging_Adjusted_Penalty>
0.00270099915882496

> <i_epik_Tot_Q>
-1

> <i_epik_Tot_abs_Q>
3

$$$$
