1xge_ligand
                    3D
 Schrodinger Suite 2020-3.
 16 16  0  0  1  0            999 V2000
   24.9080   37.3920   72.7780 O   0  0  0  0  0  0
   25.6880   38.3340   72.6590 C   0  0  0  0  0  0
   25.2210   39.5770   72.5990 N   0  0  0  0  0  0
   27.0050   38.1320   72.5030 N   0  0  0  0  0  0
   27.8820   39.1010   72.1160 C   0  0  0  0  0  0
   29.0800   38.8910   71.8900 O   0  0  0  0  0  0
   27.3820   40.5310   71.9870 C   0  0  0  0  0  0
   26.1050   40.7070   72.7980 C   0  0  1  0  0  0
   25.4200   41.9610   72.3630 C   0  0  0  0  0  0
   26.0130   43.0460   72.4880 O   0  0  0  0  0  0
   24.2740   41.8500   71.8910 O   0  5  0  0  0  0
   24.1528   39.7434   72.3961 H   0  0  0  0  0  0
   27.4348   37.1370   72.6905 H   0  0  0  0  0  0
   28.1497   41.2232   72.3632 H   0  0  0  0  0  0
   27.1746   40.7530   70.9298 H   0  0  0  0  0  0
   26.3227   40.7458   73.8755 H   0  0  0  0  0  0
  1  2  2  0  0  0
  2  3  1  0  0  0
  2  4  1  0  0  0
  3  8  1  0  0  0
  3 12  1  0  0  0
  4  5  1  0  0  0
  4 13  1  0  0  0
  5  6  2  0  0  0
  5  7  1  0  0  0
  7  8  1  0  0  0
  7 14  1  0  0  0
  7 15  1  0  0  0
  8  9  1  0  0  0
  8 16  1  0  0  0
  9 10  2  0  0  0
  9 11  1  0  0  0
M  CHG  1  11  -1
M  END
> <s_m_source_file>
../1xge_ligand.sdf

> <i_m_source_file_index>
1

> <s_epik_input>
Tz1DMVtOSF1bQ0BIXShDKD1PKVtPSF0pW0NIMl1DKD1PKVtOSF0x

> <s_epik_cmdline>
J2VwaWtfYXBwJywgJy1pbWFlJywgJ2xpZ2FuZF9wcm8ubWFlJywgJy1vbWFlJywgJ2xpZ2FuZF9wcmVwLm1hZScsICctbXMnLCAnMScsICctcGgnLCAnNycsICctcGh0JywgJzAuNScsICctbnQn

> <r_lp_tautomer_probability>
1

> <r_epik_Ionization_Penalty>
  0.0005

> <r_epik_Ionization_Penalty_Charging>
  0.0004

> <r_epik_Ionization_Penalty_Neutral>
  0.0000

> <r_epik_State_Penalty>
 -0.0000

> <r_epik_Charging_Adjusted_Penalty>
0.000410797087013842

> <i_epik_Tot_Q>
-1

> <i_epik_Tot_abs_Q>
1

$$$$
