1xh3_ligand
                    3D
 Schrodinger Suite 2020-3.
207209  0  0  1  0            999 V2000
   13.0620   26.3560   18.3940 N   0  3  0  0  0  0
   11.9780   26.8800   17.5090 C   0  0  2  0  0  0
   10.6180   26.5790   18.1040 C   0  0  0  0  0  0
   10.4030   25.4380   18.4880 O   0  0  0  0  0  0
   12.0450   26.1990   16.1350 C   0  0  0  0  0  0
   11.0340   26.6590   15.1020 C   0  0  0  0  0  0
   11.5480   27.9540   14.4920 C   0  0  0  0  0  0
   10.7620   25.5910   14.0150 C   0  0  0  0  0  0
    9.6870   27.5640   18.1450 N   0  0  0  0  0  0
    8.3980   27.3240   18.7810 C   0  0  2  0  0  0
    7.4430   26.4770   17.9530 C   0  0  0  0  0  0
    7.7040   26.1980   16.7740 O   0  0  0  0  0  0
    7.8260   28.7420   18.9670 C   0  0  0  0  0  0
    8.3820   29.4820   17.7970 C   0  0  0  0  0  0
    9.7850   28.9440   17.6440 C   0  0  0  0  0  0
    6.3070   26.1190   18.5450 N   0  0  0  0  0  0
    5.3070   25.2580   17.9130 C   0  0  2  0  0  0
    4.3670   26.0470   17.0180 C   0  0  0  0  0  0
    4.0230   27.1830   17.3350 O   0  0  0  0  0  0
    4.4810   24.5830   18.9910 C   0  0  0  0  0  0
    3.8850   25.4190   15.9480 N   0  0  0  0  0  0
    2.7300   25.9310   15.1980 C   0  0  2  0  0  0
    1.7110   24.8040   15.0160 C   0  0  0  0  0  0
    2.0130   23.7770   14.4100 O   0  0  0  0  0  0
    3.1350   26.4800   13.8280 C   0  0  0  0  0  0
    1.9480   27.1410   13.1250 C   0  0  0  0  0  0
    4.2510   27.4570   13.9800 C   0  0  0  0  0  0
    0.5090   25.0430   15.5330 N   0  0  0  0  0  0
   -0.5830   24.0790   15.5750 C   0  0  2  0  0  0
   -1.7530   24.6350   14.7660 C   0  0  0  0  0  0
   -1.6990   25.7650   14.2760 O   0  0  0  0  0  0
   -1.0650   23.8980   17.0430 C   0  0  0  0  0  0
   -2.1780   22.8550   17.1590 C   0  0  0  0  0  0
    0.1010   23.5340   17.9400 C   0  0  0  0  0  0
   -2.7960   23.8310   14.6040 N   0  0  0  0  0  0
   -4.1190   24.3450   14.3040 C   0  0  0  0  0  0
   -4.4450   24.3450   12.8340 C   0  0  0  0  0  0
   -3.5900   24.6490   11.9960 O   0  0  0  0  0  0
   -5.6950   23.9880   12.5450 N   0  0  0  0  0  0
   -6.2810   24.0980   11.2130 C   0  0  2  0  0  0
   -6.1130   25.5210   10.6880 C   0  0  0  0  0  0
   -5.7750   25.7420    9.5100 O   0  0  0  0  0  0
   -7.7820   23.7740   11.2670 C   0  0  0  0  0  0
   -8.2260   22.3470   11.6160 C   0  0  0  0  0  0
   -9.7510   22.2520   11.6590 C   0  0  0  0  0  0
   -7.6620   21.3350   10.6210 C   0  0  0  0  0  0
   -6.3720   26.4710   11.5820 N   0  0  0  0  0  0
   -6.2640   27.8910   11.3030 C   0  0  2  0  0  0
   -5.8590   28.5860   12.6100 C   0  0  0  0  0  0
   -5.7870   27.9330   13.6640 O   0  0  0  0  0  0
   -7.6150   28.4010   10.7920 C   0  0  0  0  0  0
   -7.7280   29.8160   10.8540 O   0  0  0  0  0  0
   -5.5310   29.8910   12.5430 N   0  0  0  0  0  0
   -5.5520   30.7100   13.7620 C   0  0  2  0  0  0
   -6.7020   30.3450   14.7180 C   0  0  0  0  0  0
   -6.4760   30.1960   15.9180 O   0  0  0  0  0  0
   -5.7260   32.1370   13.2260 C   0  0  0  0  0  0
   -5.3240   32.0820   11.7400 C   0  0  0  0  0  0
   -5.0180   30.6470   11.3860 C   0  0  0  0  0  0
   -7.9100   30.1760   14.1750 N   0  0  0  0  0  0
   -9.0860   29.8050   14.9650 C   0  0  0  0  0  0
   -8.9380   28.5310   15.7770 C   0  0  0  0  0  0
   -9.3350   28.4830   16.9440 O   0  0  0  0  0  0
   -8.3610   27.4920   15.1670 N   0  0  0  0  0  0
   -8.2180   26.1950   15.8490 C   0  0  2  0  0  0
   -7.2020   26.1710   16.9830 C   0  0  0  0  0  0
   -7.1650   25.2070   17.7620 O   0  0  0  0  0  0
   -7.9060   25.0680   14.8520 C   0  0  0  0  0  0
   -9.0930   24.1790   14.6410 C   0  0  0  0  0  0
  -10.3430   24.9670   14.3260 C   0  0  0  0  0  0
  -10.2350   25.9600   13.5660 O   0  0  0  0  0  0
  -11.4270   24.6070   14.8500 O   0  0  0  0  0  0
   -6.3820   27.2170   17.0630 N   0  0  0  0  0  0
   -5.4400   27.3720   18.1640 C   0  0  2  0  0  0
   -6.1260   27.9120   19.4270 C   0  0  0  0  0  0
   -5.5370   27.8800   20.5120 O   0  0  0  0  0  0
   -4.2920   28.2860   17.7310 C   0  0  0  0  0  0
   -3.3920   27.6740   16.6340 C   0  0  0  0  0  0
   -2.5200   28.7080   15.8940 C   0  0  0  0  0  0
   -2.3660   29.8550   16.3330 O   0  0  0  0  0  0
   -1.9230   28.2830   14.7760 N   0  0  0  0  0  0
   -7.3460   28.4300   19.3030 N   0  0  0  0  0  0
   -8.0260   29.0160   20.4640 C   0  0  2  0  0  0
   -8.3590   28.0180   21.5450 C   0  0  0  0  0  0
   -8.7070   26.8690   21.2750 O   0  0  0  0  0  0
   -9.3160   29.7450   20.0600 C   0  0  0  0  0  0
   -9.0560   31.0110   19.2470 C   0  0  0  0  0  0
  -10.3240   31.7330   18.8490 C   0  0  0  0  0  0
  -11.4090   31.4930   19.4320 O   0  0  0  0  0  0
  -10.2120   32.5590   17.9230 O   0  0  0  0  0  0
   -8.2770   28.4810   22.7850 N   0  0  0  0  0  0
   -8.7850   27.7290   23.9210 C   0  0  2  0  0  0
  -10.3100   27.7240   23.8930 C   0  0  0  0  0  0
  -10.8890   28.5570   23.1670 O   0  0  0  0  0  0
   -8.2760   28.3450   25.2320 C   0  0  0  0  0  0
   -6.8040   28.1550   25.5370 C   0  0  0  0  0  0
   -5.7900   28.6770   24.7070 C   0  0  0  0  0  0
   -6.4200   27.4730   26.6710 C   0  0  0  0  0  0
   -4.4600   28.5320   25.0070 C   0  0  0  0  0  0
   -5.0710   27.3040   26.9740 C   0  0  0  0  0  0
   -4.1040   27.8230   26.1480 C   0  0  0  0  0  0
   -2.7650   27.6950   26.4530 O   0  0  0  0  0  0
  -10.9410   26.9690   24.6260 O   0  0  0  0  0  0
   13.0051   26.8500   19.3752 H   0  0  0  0  0  0
   14.0407   26.5617   17.9360 H   0  0  0  0  0  0
   12.9380   25.2706   18.5222 H   0  0  0  0  0  0
   12.1288   27.9669   17.4325 H   0  0  0  0  0  0
   13.0340   26.3745   15.6866 H   0  0  0  0  0  0
   11.8829   25.1175   16.2535 H   0  0  0  0  0  0
   10.0749   26.8373   15.6103 H   0  0  0  0  0  0
   11.7302   28.6884   15.2904 H   0  0  0  0  0  0
   10.7990   28.3520   13.7916 H   0  0  0  0  0  0
   12.4866   27.7581   13.9528 H   0  0  0  0  0  0
   10.3926   24.6702   14.4900 H   0  0  0  0  0  0
   11.6939   25.3750   13.4719 H   0  0  0  0  0  0
   10.0063   25.9689   13.3107 H   0  0  0  0  0  0
    8.5689   26.7418   19.6985 H   0  0  0  0  0  0
    6.7269   28.6982   18.9570 H   0  0  0  0  0  0
    8.1678   29.1521   19.9288 H   0  0  0  0  0  0
    7.7653   29.2801   16.9088 H   0  0  0  0  0  0
    8.3766   30.5613   18.0095 H   0  0  0  0  0  0
   10.5138   29.5030   18.2494 H   0  0  0  0  0  0
   10.1138   28.9306   16.5944 H   0  0  0  0  0  0
    6.1374   26.5047   19.5611 H   0  0  0  0  0  0
    5.8749   24.5352   17.3088 H   0  0  0  0  0  0
    5.1432   24.0047   19.6521 H   0  0  0  0  0  0
    3.7492   23.9079   18.5234 H   0  0  0  0  0  0
    3.9515   25.3468   19.5794 H   0  0  0  0  0  0
    4.3792   24.4892   15.6297 H   0  0  0  0  0  0
    2.3217   26.7537   15.8033 H   0  0  0  0  0  0
    3.4978   25.6501   13.2038 H   0  0  0  0  0  0
    1.1319   26.4111   13.0188 H   0  0  0  0  0  0
    2.2595   27.4902   12.1295 H   0  0  0  0  0  0
    1.5990   27.9970   13.7212 H   0  0  0  0  0  0
    5.0978   26.9705   14.4863 H   0  0  0  0  0  0
    3.9090   28.3140   14.5788 H   0  0  0  0  0  0
    4.5695   27.8072   12.9871 H   0  0  0  0  0  0
    0.3685   26.0517   15.9486 H   0  0  0  0  0  0
   -0.1924   23.1451   15.1447 H   0  0  0  0  0  0
   -1.4815   24.8525   17.3972 H   0  0  0  0  0  0
   -3.0140   23.1362   16.5017 H   0  0  0  0  0  0
   -2.5298   22.8085   18.2002 H   0  0  0  0  0  0
   -1.7905   21.8703   16.8585 H   0  0  0  0  0  0
    0.8897   24.2946   17.8428 H   0  0  0  0  0  0
    0.4994   22.5526   17.6433 H   0  0  0  0  0  0
   -0.2399   23.4907   18.9850 H   0  0  0  0  0  0
   -2.6365   22.7472   14.7031 H   0  0  0  0  0  0
   -4.8758   23.7266   14.8088 H   0  0  0  0  0  0
   -4.1981   25.3833   14.6585 H   0  0  0  0  0  0
   -6.2938   23.5917   13.3783 H   0  0  0  0  0  0
   -5.7365   23.3771   10.5854 H   0  0  0  0  0  0
   -8.2664   24.4057   12.0262 H   0  0  0  0  0  0
   -8.2350   23.9698   10.2839 H   0  0  0  0  0  0
   -7.8300   22.1019   12.6125 H   0  0  0  0  0  0
  -10.1439   22.9853   12.3786 H   0  0  0  0  0  0
  -10.0466   21.2390   11.9694 H   0  0  0  0  0  0
  -10.1598   22.4634   10.6599 H   0  0  0  0  0  0
   -6.5650   21.4138   10.5999 H   0  0  0  0  0  0
   -8.0640   21.5433    9.6185 H   0  0  0  0  0  0
   -7.9508   20.3189   10.9280 H   0  0  0  0  0  0
   -6.6833   26.1287   12.5799 H   0  0  0  0  0  0
   -5.5016   28.0465   10.5254 H   0  0  0  0  0  0
   -7.7479   28.0988    9.7427 H   0  0  0  0  0  0
   -8.4235   27.9721   11.4023 H   0  0  0  0  0  0
   -8.6512   30.3094   10.5159 H   0  0  0  0  0  0
   -4.6259   30.5373   14.3299 H   0  0  0  0  0  0
   -6.7747   32.4475   13.3435 H   0  0  0  0  0  0
   -5.0755   32.8222   13.7893 H   0  0  0  0  0  0
   -6.1538   32.4548   11.1216 H   0  0  0  0  0  0
   -4.4350   32.7090   11.5772 H   0  0  0  0  0  0
   -3.9389   30.4633   11.2773 H   0  0  0  0  0  0
   -5.5392   30.3202   10.4741 H   0  0  0  0  0  0
   -8.0020   30.3267   13.0893 H   0  0  0  0  0  0
   -9.3161   30.6089   15.6797 H   0  0  0  0  0  0
   -9.9450   29.6532   14.2948 H   0  0  0  0  0  0
   -7.9899   27.6167   14.1390 H   0  0  0  0  0  0
   -9.2112   26.0726   16.3058 H   0  0  0  0  0  0
   -7.6206   25.5040   13.8833 H   0  0  0  0  0  0
   -7.0768   24.4566   15.2374 H   0  0  0  0  0  0
   -8.8960   23.4978   13.8001 H   0  0  0  0  0  0
   -9.2782   23.5921   15.5527 H   0  0  0  0  0  0
  -12.3520   25.1631   14.6375 H   0  0  0  0  0  0
   -6.4291   27.9763   16.2684 H   0  0  0  0  0  0
   -5.0658   26.3594   18.3753 H   0  0  0  0  0  0
   -4.7019   29.2257   17.3323 H   0  0  0  0  0  0
   -3.6504   28.5043   18.5974 H   0  0  0  0  0  0
   -2.7113   26.9379   17.0866 H   0  0  0  0  0  0
   -4.0198   27.1774   15.8795 H   0  0  0  0  0  0
   -2.0876   27.2548   14.4213 H   0  0  0  0  0  0
   -1.2671   28.9614   14.2107 H   0  0  0  0  0  0
   -7.8444   28.4169   18.3225 H   0  0  0  0  0  0
   -7.2643   29.7066   20.8549 H   0  0  0  0  0  0
   -9.9385   29.0764   19.4473 H   0  0  0  0  0  0
   -9.8709   30.0365   20.9639 H   0  0  0  0  0  0
   -8.4478   31.7095   19.8405 H   0  0  0  0  0  0
   -8.5181   30.7499   18.3237 H   0  0  0  0  0  0
  -12.3238   32.0254   19.1325 H   0  0  0  0  0  0
   -7.8083   29.4638   22.9412 H   0  0  0  0  0  0
   -8.4028   26.7035   23.8104 H   0  0  0  0  0  0
  -11.9879   28.5796   23.1243 H   0  0  0  0  0  0
   -8.4432   29.4321   25.2155 H   0  0  0  0  0  0
   -8.8197   27.9032   26.0801 H   0  0  0  0  0  0
   -6.0722   29.2116   23.8000 H   0  0  0  0  0  0
   -7.1787   27.0620   27.3370 H   0  0  0  0  0  0
   -3.6955   28.9651   24.3620 H   0  0  0  0  0  0
   -4.7812   26.7571   27.8712 H   0  0  0  0  0  0
   -2.0047   28.1172   25.7794 H   0  0  0  0  0  0
  1  2  1  0  0  0
  1104  1  0  0  0
  1105  1  0  0  0
  1106  1  0  0  0
  2  3  1  0  0  0
  2  5  1  0  0  0
  2107  1  0  0  0
  3  4  2  0  0  0
  3  9  1  0  0  0
  5  6  1  0  0  0
  5108  1  0  0  0
  5109  1  0  0  0
  6  7  1  0  0  0
  6  8  1  0  0  0
  6110  1  0  0  0
  7111  1  0  0  0
  7112  1  0  0  0
  7113  1  0  0  0
  8114  1  0  0  0
  8115  1  0  0  0
  8116  1  0  0  0
  9 10  1  0  0  0
  9 15  1  0  0  0
 10 11  1  0  0  0
 10 13  1  0  0  0
 10117  1  0  0  0
 11 12  2  0  0  0
 11 16  1  0  0  0
 13 14  1  0  0  0
 13118  1  0  0  0
 13119  1  0  0  0
 14 15  1  0  0  0
 14120  1  0  0  0
 14121  1  0  0  0
 15122  1  0  0  0
 15123  1  0  0  0
 16 17  1  0  0  0
 16124  1  0  0  0
 17 18  1  0  0  0
 17 20  1  0  0  0
 17125  1  0  0  0
 18 19  2  0  0  0
 18 21  1  0  0  0
 20126  1  0  0  0
 20127  1  0  0  0
 20128  1  0  0  0
 21 22  1  0  0  0
 21129  1  0  0  0
 22 23  1  0  0  0
 22 25  1  0  0  0
 22130  1  0  0  0
 23 24  2  0  0  0
 23 28  1  0  0  0
 25 26  1  0  0  0
 25 27  1  0  0  0
 25131  1  0  0  0
 26132  1  0  0  0
 26133  1  0  0  0
 26134  1  0  0  0
 27135  1  0  0  0
 27136  1  0  0  0
 27137  1  0  0  0
 28 29  1  0  0  0
 28138  1  0  0  0
 29 30  1  0  0  0
 29 32  1  0  0  0
 29139  1  0  0  0
 30 31  2  0  0  0
 30 35  1  0  0  0
 32 33  1  0  0  0
 32 34  1  0  0  0
 32140  1  0  0  0
 33141  1  0  0  0
 33142  1  0  0  0
 33143  1  0  0  0
 34144  1  0  0  0
 34145  1  0  0  0
 34146  1  0  0  0
 35 36  1  0  0  0
 35147  1  0  0  0
 36 37  1  0  0  0
 36148  1  0  0  0
 36149  1  0  0  0
 37 38  2  0  0  0
 37 39  1  0  0  0
 39 40  1  0  0  0
 39150  1  0  0  0
 40 41  1  0  0  0
 40 43  1  0  0  0
 40151  1  0  0  0
 41 42  2  0  0  0
 41 47  1  0  0  0
 43 44  1  0  0  0
 43152  1  0  0  0
 43153  1  0  0  0
 44 45  1  0  0  0
 44 46  1  0  0  0
 44154  1  0  0  0
 45155  1  0  0  0
 45156  1  0  0  0
 45157  1  0  0  0
 46158  1  0  0  0
 46159  1  0  0  0
 46160  1  0  0  0
 47 48  1  0  0  0
 47161  1  0  0  0
 48 49  1  0  0  0
 48 51  1  0  0  0
 48162  1  0  0  0
 49 50  2  0  0  0
 49 53  1  0  0  0
 51 52  1  0  0  0
 51163  1  0  0  0
 51164  1  0  0  0
 52165  1  0  0  0
 53 54  1  0  0  0
 53 59  1  0  0  0
 54 55  1  0  0  0
 54 57  1  0  0  0
 54166  1  0  0  0
 55 56  2  0  0  0
 55 60  1  0  0  0
 57 58  1  0  0  0
 57167  1  0  0  0
 57168  1  0  0  0
 58 59  1  0  0  0
 58169  1  0  0  0
 58170  1  0  0  0
 59171  1  0  0  0
 59172  1  0  0  0
 60 61  1  0  0  0
 60173  1  0  0  0
 61 62  1  0  0  0
 61174  1  0  0  0
 61175  1  0  0  0
 62 63  2  0  0  0
 62 64  1  0  0  0
 64 65  1  0  0  0
 64176  1  0  0  0
 65 66  1  0  0  0
 65 68  1  0  0  0
 65177  1  0  0  0
 66 67  2  0  0  0
 66 73  1  0  0  0
 68 69  1  0  0  0
 68178  1  0  0  0
 68179  1  0  0  0
 69 70  1  0  0  0
 69180  1  0  0  0
 69181  1  0  0  0
 70 71  2  0  0  0
 70 72  1  0  0  0
 72182  1  0  0  0
 73 74  1  0  0  0
 73183  1  0  0  0
 74 75  1  0  0  0
 74 77  1  0  0  0
 74184  1  0  0  0
 75 76  2  0  0  0
 75 82  1  0  0  0
 77 78  1  0  0  0
 77185  1  0  0  0
 77186  1  0  0  0
 78 79  1  0  0  0
 78187  1  0  0  0
 78188  1  0  0  0
 79 80  2  0  0  0
 79 81  1  0  0  0
 81189  1  0  0  0
 81190  1  0  0  0
 82 83  1  0  0  0
 82191  1  0  0  0
 83 84  1  0  0  0
 83 86  1  0  0  0
 83192  1  0  0  0
 84 85  2  0  0  0
 84 91  1  0  0  0
 86 87  1  0  0  0
 86193  1  0  0  0
 86194  1  0  0  0
 87 88  1  0  0  0
 87195  1  0  0  0
 87196  1  0  0  0
 88 89  1  0  0  0
 88 90  2  0  0  0
 89197  1  0  0  0
 91 92  1  0  0  0
 91198  1  0  0  0
 92 93  1  0  0  0
 92 95  1  0  0  0
 92199  1  0  0  0
 93 94  1  0  0  0
 93103  2  0  0  0
 94200  1  0  0  0
 95 96  1  0  0  0
 95201  1  0  0  0
 95202  1  0  0  0
 96 97  2  0  0  0
 96 98  1  0  0  0
 97 99  1  0  0  0
 97203  1  0  0  0
 98100  2  0  0  0
 98204  1  0  0  0
 99101  2  0  0  0
 99205  1  0  0  0
100101  1  0  0  0
100206  1  0  0  0
101102  1  0  0  0
102207  1  0  0  0
M  CHG  1   1   1
M  END
> <s_m_source_file>
../1xh3_ligand.sdf

> <i_m_source_file_index>
1

> <s_epik_input>
W0NIM11bQ0hdKFtDSDNdKVtDSDJdW0NASF0oW05IMytdKUMoPU8pTjFbQ0BASF0oW0NIMl1bQ0gyXVtDSDJdMSlDKD1PKVtOSF1bQ0BASF0oW0NIM10pQyg9TylbTkhdW0NAQEhdKFtDSF0oW0NIM10pW0NIM10pQyg9TylbTkhdW0NAQEhdKFtDSF0oW0NIM10pW0NIM10pQyg9TylbTkhdW0NIMl1DKD1PKVtOSF1bQ0BASF0oW0NIMl1bQ0hdKFtDSDNdKVtDSDNdKUMoPU8pW05IXVtDQEBIXShbQ0gyXVtPSF0pQyg9TylOMltDQEBIXShbQ0gyXVtDSDJdW0NIMl0yKUMoPU8pW05IXVtDSDJdQyg9TylbTkhdW0NAQEhdKFtDSDJdW0NIMl1DKD1PKVtPSF0pQyg9TylbTkhdW0NAQEhdKFtDSDJdW0NIMl1DKD1PKVtOSDJdKUMoPU8pW05IXVtDQEBIXShbQ0gyXVtDSDJdQyg9TylbT0hdKUMoPU8pW05IXVtDQEhdKEMoPU8pW09IXSlbQ0gyXWMzW2NIXVtjSF1jKFtPSF0pW2NIXVtjSF0z

> <s_epik_cmdline>
J2VwaWtfYXBwJywgJy1pbWFlJywgJ2xpZ2FuZF9wcm8ubWFlJywgJy1vbWFlJywgJ2xpZ2FuZF9wcmVwLm1hZScsICctbXMnLCAnMScsICctcGgnLCAnNycsICctcGh0JywgJzAuNScsICctbnQn

> <s_epik_pKa_notes>
Molecule size exceeds maximum supported for generating protonation states

$$$$
