1xh6_ligand
                    3D
 Schrodinger Suite 2020-3.
 76 80  0  0  1  0            999 V2000
    1.0590   37.0850   17.1780 O   0  0  0  0  0  0
    2.0490   36.3820   16.9600 C   0  0  0  0  0  0
    2.9150   36.7430   15.8230 C   0  0  0  0  0  0
    3.2520   35.8760   14.7710 C   0  0  0  0  0  0
    4.0700   36.3320   13.7130 C   0  0  0  0  0  0
    4.5570   37.6370   13.7220 C   0  0  0  0  0  0
    4.2340   38.5370   14.7620 C   0  0  0  0  0  0
    4.7240   39.8280   14.7530 N   0  0  0  0  0  0
    5.0870   40.4190   13.4470 C   0  0  0  0  0  0
    6.1200   41.5400   13.6260 C   0  0  0  0  0  0
    5.6070   42.5680   14.6420 C   0  0  0  0  0  0
    5.3080   41.8820   15.9840 C   0  0  0  0  0  0
    4.2700   40.7680   15.7990 C   0  0  0  0  0  0
    3.4220   38.0680   15.8090 C   0  0  0  0  0  0
    2.7830   34.5790   14.7380 O   0  0  0  0  0  0
    2.3290   35.3920   17.9960 C   0  0  0  0  0  0
    3.6400   34.9000   18.1880 C   0  0  0  0  0  0
    3.8910   34.0040   19.2250 C   0  0  0  0  0  0
    1.2890   34.9850   18.8480 C   0  0  0  0  0  0
    1.5430   34.0910   19.8780 C   0  0  0  0  0  0
    2.8420   33.5940   20.0710 C   0  0  0  0  0  0
    3.1180   32.6760   21.1680 C   0  0  0  0  0  0
    2.3840   32.5910   22.1620 O   0  0  0  0  0  0
    4.3020   31.9500   21.1250 N   0  0  0  0  0  0
    4.8260   31.2720   22.3510 C   0  0  2  0  0  0
    5.3170   32.3850   23.3020 C   0  0  0  0  0  0
    6.3600   33.3590   22.7450 C   0  0  0  0  0  0
    7.7540   32.7450   22.7840 C   0  0  0  0  0  0
    7.8310   31.5730   21.8140 N   0  3  0  0  0  0
    7.2760   30.2750   22.3610 C   0  0  0  0  0  0
    5.7950   30.1130   21.9840 C   0  0  1  0  0  0
    5.3390   28.8370   22.5820 N   0  0  0  0  0  0
    5.1350   27.7290   21.7710 C   0  0  0  0  0  0
    5.0420   27.9100   20.5470 O   0  0  0  0  0  0
    4.9520   26.3930   22.3360 C   0  0  0  0  0  0
    4.7250   25.3160   21.4600 C   0  0  0  0  0  0
    4.5500   24.0400   21.9890 C   0  0  0  0  0  0
    4.5340   23.8190   23.3090 N   0  0  0  0  0  0
    4.7440   24.8330   24.1500 C   0  0  0  0  0  0
    4.9400   26.1380   23.7050 C   0  0  0  0  0  0
    4.3199   35.6626   12.8898 H   0  0  0  0  0  0
    5.2014   37.9711   12.9088 H   0  0  0  0  0  0
    5.5163   39.6407   12.7990 H   0  0  0  0  0  0
    4.1878   40.8374   12.9712 H   0  0  0  0  0  0
    7.0659   41.1123   13.9898 H   0  0  0  0  0  0
    6.2906   42.0390   12.6607 H   0  0  0  0  0  0
    6.3712   43.3440   14.7961 H   0  0  0  0  0  0
    4.6852   43.0318   14.2609 H   0  0  0  0  0  0
    6.2336   41.4444   16.3863 H   0  0  0  0  0  0
    4.9136   42.6231   16.6948 H   0  0  0  0  0  0
    3.3092   41.2126   15.5004 H   0  0  0  0  0  0
    4.1444   40.2271   16.7486 H   0  0  0  0  0  0
    3.1755   38.7396   16.6314 H   0  0  0  0  0  0
    2.1448   34.2041   15.5517 H   0  0  0  0  0  0
    4.4483   35.2190   17.5300 H   0  0  0  0  0  0
    4.8991   33.6203   19.3816 H   0  0  0  0  0  0
    0.2809   35.3722   18.6996 H   0  0  0  0  0  0
    0.7346   33.7746   20.5371 H   0  0  0  0  0  0
    4.8551   31.8767   20.1770 H   0  0  0  0  0  0
    4.0335   30.7369   22.8946 H   0  0  0  0  0  0
    4.4636   33.0070   23.6100 H   0  0  0  0  0  0
    5.7791   31.9305   24.1908 H   0  0  0  0  0  0
    6.1115   33.6054   21.7021 H   0  0  0  0  0  0
    6.3620   34.2787   23.3485 H   0  0  0  0  0  0
    8.4969   33.5036   22.4965 H   0  0  0  0  0  0
    7.9692   32.3884   23.8021 H   0  0  0  0  0  0
    7.2581   31.8107   20.9055 H   0  0  0  0  0  0
    8.8816   31.3867   21.5467 H   0  0  0  0  0  0
    7.8426   29.4294   21.9440 H   0  0  0  0  0  0
    7.3653   30.2712   23.4574 H   0  0  0  0  0  0
    5.7492   30.0762   20.8856 H   0  0  0  0  0  0
    5.1630   28.7694   23.6657 H   0  0  0  0  0  0
    4.6867   25.4780   20.3828 H   0  0  0  0  0  0
    4.4225   23.1976   21.3092 H   0  0  0  0  0  0
    4.7628   24.6334   25.2214 H   0  0  0  0  0  0
    5.0822   26.9493   24.4190 H   0  0  0  0  0  0
  1  2  2  0  0  0
  2  3  1  0  0  0
  2 16  1  0  0  0
  3  4  2  0  0  0
  3 14  1  0  0  0
  4  5  1  0  0  0
  4 15  1  0  0  0
  5  6  2  0  0  0
  5 41  1  0  0  0
  6  7  1  0  0  0
  6 42  1  0  0  0
  7  8  1  0  0  0
  7 14  2  0  0  0
  8  9  1  0  0  0
  8 13  1  0  0  0
  9 10  1  0  0  0
  9 43  1  0  0  0
  9 44  1  0  0  0
 10 11  1  0  0  0
 10 45  1  0  0  0
 10 46  1  0  0  0
 11 12  1  0  0  0
 11 47  1  0  0  0
 11 48  1  0  0  0
 12 13  1  0  0  0
 12 49  1  0  0  0
 12 50  1  0  0  0
 13 51  1  0  0  0
 13 52  1  0  0  0
 14 53  1  0  0  0
 15 54  1  0  0  0
 16 17  2  0  0  0
 16 19  1  0  0  0
 17 18  1  0  0  0
 17 55  1  0  0  0
 18 21  2  0  0  0
 18 56  1  0  0  0
 19 20  2  0  0  0
 19 57  1  0  0  0
 20 21  1  0  0  0
 20 58  1  0  0  0
 21 22  1  0  0  0
 22 23  2  0  0  0
 22 24  1  0  0  0
 24 25  1  0  0  0
 24 59  1  0  0  0
 25 26  1  0  0  0
 25 31  1  0  0  0
 25 60  1  0  0  0
 26 27  1  0  0  0
 26 61  1  0  0  0
 26 62  1  0  0  0
 27 28  1  0  0  0
 27 63  1  0  0  0
 27 64  1  0  0  0
 28 29  1  0  0  0
 28 65  1  0  0  0
 28 66  1  0  0  0
 29 30  1  0  0  0
 29 67  1  0  0  0
 29 68  1  0  0  0
 30 31  1  0  0  0
 30 69  1  0  0  0
 30 70  1  0  0  0
 31 32  1  0  0  0
 31 71  1  0  0  0
 32 33  1  0  0  0
 32 72  1  0  0  0
 33 34  2  0  0  0
 33 35  1  0  0  0
 35 36  2  0  0  0
 35 40  1  0  0  0
 36 37  1  0  0  0
 36 73  1  0  0  0
 37 38  2  0  0  0
 37 74  1  0  0  0
 38 39  1  0  0  0
 39 40  2  0  0  0
 39 75  1  0  0  0
 40 76  1  0  0  0
M  CHG  1  29   1
M  END
> <s_m_source_file>
../1xh6_ligand.sdf

> <i_m_source_file_index>
1

> <s_epik_input>
W0NIMl0xW0NIMl1bQ0gyXVtDSDJdW0NIMl1OMWMoW2NIXTIpW2NIXVtjSF1jKFtPSF0pYzJDKD1PKWMzW2NIXVtjSF1jKFtjSF1bY0hdMylDKD1PKVtOSF1bQ0BASF00W0NIMl1bQ0gyXVtDSDJdW05IMitdW0NIMl1bQ0BIXTRbTkhdQyg9TyljNVtjSF1bY0hdbltjSF1bY0hdNQ==

> <s_epik_cmdline>
J2VwaWtfYXBwJywgJy1pbWFlJywgJ2xpZ2FuZF9wcm8ubWFlJywgJy1vbWFlJywgJ2xpZ2FuZF9wcmVwLm1hZScsICctbXMnLCAnMScsICctcGgnLCAnNycsICctcGh0JywgJzAuNScsICctbnQn

> <r_lp_tautomer_probability>
1

> <r_epik_Ionization_Penalty>
  0.0371

> <r_epik_Ionization_Penalty_Charging>
  0.0037

> <r_epik_Ionization_Penalty_Neutral>
  0.0334

> <r_epik_State_Penalty>
 -0.0000

> <r_epik_Charging_Adjusted_Penalty>
0.00371124088890547

> <i_epik_Tot_Q>
1

> <i_epik_Tot_abs_Q>
1

$$$$
