1xh7_ligand
                    3D
 Schrodinger Suite 2020-3.
 82 86  0  0  1  0            999 V2000
    7.2550    9.2200    1.5990 O   0  0  0  0  0  0
    7.1140    9.2490    2.8150 C   0  0  0  0  0  0
    5.8160    9.4150    3.4710 C   0  0  0  0  0  0
    4.6640    9.6220    2.7130 C   0  0  0  0  0  0
    3.4280    9.7470    3.3420 C   0  0  0  0  0  0
    3.3400    9.7130    4.6700 N   0  0  0  0  0  0
    4.4130    9.5140    5.4430 C   0  0  0  0  0  0
    5.6650    9.3590    4.8640 C   0  0  0  0  0  0
    8.2530    9.1150    3.5910 N   0  0  0  0  0  0
    9.5620    8.7770    2.9980 C   0  0  2  0  0  0
    9.8560    7.3430    3.4360 C   0  0  0  0  0  0
   11.1320    6.8610    2.8810 N   0  3  0  0  0  0
   12.2370    7.0400    3.8210 C   0  0  0  0  0  0
   12.8030    8.4720    3.7340 C   0  0  0  0  0  0
   11.7990    9.4990    4.2980 C   0  0  0  0  0  0
   10.6270    9.8850    3.3410 C   0  0  1  0  0  0
   11.1130   10.5010    2.0760 N   0  0  0  0  0  0
   11.8290   11.6940    2.0960 C   0  0  0  0  0  0
   11.7920   12.4130    3.0990 O   0  0  0  0  0  0
   12.6450   12.0500    0.9570 C   0  0  0  0  0  0
   12.9490   13.4010    0.7040 C   0  0  0  0  0  0
   13.7650   13.7430   -0.3730 C   0  0  0  0  0  0
   13.1450   11.0400    0.1400 C   0  0  0  0  0  0
   13.9490   11.3800   -0.9360 C   0  0  0  0  0  0
   14.2490   12.7180   -1.2040 C   0  0  0  0  0  0
   15.1220   13.0330   -2.3330 C   0  0  0  0  0  0
   15.8390   14.0520   -2.2330 O   0  0  0  0  0  0
   15.3260   12.1950   -3.5210 C   0  0  0  0  0  0
   14.4090   11.8770   -4.5530 C   0  0  0  0  0  0
   13.1080   12.2590   -4.5980 O   0  0  0  0  0  0
   14.8050   11.0920   -5.6290 C   0  0  0  0  0  0
   16.1040   10.5870   -5.7060 C   0  0  0  0  0  0
   16.6270   11.6820   -3.6080 C   0  0  0  0  0  0
   17.0360   10.8890   -4.6980 C   0  0  0  0  0  0
   18.3840   10.3860   -4.7750 N   0  0  0  0  0  0
   18.8920    9.9130   -6.0970 C   0  0  0  0  0  0
   20.4130    9.6220   -6.2180 C   0  0  0  0  0  0
   21.2940   10.3330   -5.1880 C   0  0  0  0  0  0
   20.7660   10.0420   -3.7800 C   0  0  0  0  0  0
   21.7940   10.6660   -2.8030 C   0  0  0  0  0  0
   20.6980    8.5480   -3.4320 C   0  0  0  0  0  0
   19.3430   10.6340   -3.6400 C   0  0  0  0  0  0
    4.7311    9.6860    1.6270 H   0  0  0  0  0  0
    2.5262    9.8736    2.7429 H   0  0  0  0  0  0
    4.3045    9.4736    6.5268 H   0  0  0  0  0  0
    6.5369    9.1926    5.4966 H   0  0  0  0  0  0
    8.1640    9.2675    4.6767 H   0  0  0  0  0  0
    9.5220    8.7674    1.8988 H   0  0  0  0  0  0
    9.9149    7.2996    4.5336 H   0  0  0  0  0  0
    9.0511    6.6802    3.0855 H   0  0  0  0  0  0
   11.0486    5.7894    2.6472 H   0  0  0  0  0  0
   11.3668    7.4194    1.9628 H   0  0  0  0  0  0
   11.8791    6.8617    4.8458 H   0  0  0  0  0  0
   13.0397    6.3263    3.5836 H   0  0  0  0  0  0
   13.7348    8.5339    4.3153 H   0  0  0  0  0  0
   13.0095    8.7214    2.6827 H   0  0  0  0  0  0
   11.3357    9.0958    5.2105 H   0  0  0  0  0  0
   12.3264   10.4342    4.5371 H   0  0  0  0  0  0
   10.1024   10.6617    3.9169 H   0  0  0  0  0  0
   10.9072   10.0128    1.1120 H   0  0  0  0  0  0
   12.5459   14.1803    1.3508 H   0  0  0  0  0  0
   14.0226   14.7842   -0.5668 H   0  0  0  0  0  0
   12.9073    9.9960    0.3439 H   0  0  0  0  0  0
   14.3509   10.5969   -1.5789 H   0  0  0  0  0  0
   12.6901   12.8835   -3.7947 H   0  0  0  0  0  0
   14.0924   10.8678   -6.4228 H   0  0  0  0  0  0
   16.3956    9.9586   -6.5476 H   0  0  0  0  0  0
   17.3397   11.9018   -2.8131 H   0  0  0  0  0  0
   18.3932    8.9700   -6.3654 H   0  0  0  0  0  0
   18.6791   10.6717   -6.8644 H   0  0  0  0  0  0
   20.5911    8.5438   -6.0927 H   0  0  0  0  0  0
   20.7694    9.9398   -7.2089 H   0  0  0  0  0  0
   22.3279    9.9678   -5.2755 H   0  0  0  0  0  0
   21.2713   11.4172   -5.3721 H   0  0  0  0  0  0
   22.7778   10.1993   -2.9587 H   0  0  0  0  0  0
   21.4664   10.4942   -1.7671 H   0  0  0  0  0  0
   21.8675   11.7475   -2.9897 H   0  0  0  0  0  0
   21.7002    8.1040   -3.5245 H   0  0  0  0  0  0
   20.0075    8.0417   -4.1226 H   0  0  0  0  0  0
   20.3377    8.4280   -2.3996 H   0  0  0  0  0  0
   19.4850   11.7170   -3.5100 H   0  0  0  0  0  0
   18.9340   10.2041   -2.7138 H   0  0  0  0  0  0
  1  2  2  0  0  0
  2  3  1  0  0  0
  2  9  1  0  0  0
  3  4  2  0  0  0
  3  8  1  0  0  0
  4  5  1  0  0  0
  4 43  1  0  0  0
  5  6  2  0  0  0
  5 44  1  0  0  0
  6  7  1  0  0  0
  7  8  2  0  0  0
  7 45  1  0  0  0
  8 46  1  0  0  0
  9 10  1  0  0  0
  9 47  1  0  0  0
 10 11  1  0  0  0
 10 16  1  0  0  0
 10 48  1  0  0  0
 11 12  1  0  0  0
 11 49  1  0  0  0
 11 50  1  0  0  0
 12 13  1  0  0  0
 12 51  1  0  0  0
 12 52  1  0  0  0
 13 14  1  0  0  0
 13 53  1  0  0  0
 13 54  1  0  0  0
 14 15  1  0  0  0
 14 55  1  0  0  0
 14 56  1  0  0  0
 15 16  1  0  0  0
 15 57  1  0  0  0
 15 58  1  0  0  0
 16 17  1  0  0  0
 16 59  1  0  0  0
 17 18  1  0  0  0
 17 60  1  0  0  0
 18 19  2  0  0  0
 18 20  1  0  0  0
 20 21  2  0  0  0
 20 23  1  0  0  0
 21 22  1  0  0  0
 21 61  1  0  0  0
 22 25  2  0  0  0
 22 62  1  0  0  0
 23 24  2  0  0  0
 23 63  1  0  0  0
 24 25  1  0  0  0
 24 64  1  0  0  0
 25 26  1  0  0  0
 26 27  2  0  0  0
 26 28  1  0  0  0
 28 29  2  0  0  0
 28 33  1  0  0  0
 29 30  1  0  0  0
 29 31  1  0  0  0
 30 65  1  0  0  0
 31 32  2  0  0  0
 31 66  1  0  0  0
 32 34  1  0  0  0
 32 67  1  0  0  0
 33 34  2  0  0  0
 33 68  1  0  0  0
 34 35  1  0  0  0
 35 36  1  0  0  0
 35 42  1  0  0  0
 36 37  1  0  0  0
 36 69  1  0  0  0
 36 70  1  0  0  0
 37 38  1  0  0  0
 37 71  1  0  0  0
 37 72  1  0  0  0
 38 39  1  0  0  0
 38 73  1  0  0  0
 38 74  1  0  0  0
 39 40  1  0  0  0
 39 41  1  0  0  0
 39 42  1  0  0  0
 40 75  1  0  0  0
 40 76  1  0  0  0
 40 77  1  0  0  0
 41 78  1  0  0  0
 41 79  1  0  0  0
 41 80  1  0  0  0
 42 81  1  0  0  0
 42 82  1  0  0  0
M  CHG  1  12   1
M  END
> <s_m_source_file>
../1xh7_ligand.sdf

> <i_m_source_file_index>
1

> <s_epik_input>
W2NIXTFbY0hdbltjSF1bY0hdYzFDKD1PKVtOSF1bQ0BASF0yW0NIMl1bTkgyK11bQ0gyXVtDSDJdW0NIMl1bQ0BIXTJbTkhdQyg9TyljM1tjSF1bY0hdYyhbY0hdW2NIXTMpQyg9TyljNGMoW09IXSlbY0hdW2NIXWMoW2NIXTQpTihbQ0gyXTUpW0NIMl1bQ0gyXVtDSDJdQzUoW0NIM10pW0NIM10=

> <s_epik_cmdline>
J2VwaWtfYXBwJywgJy1pbWFlJywgJ2xpZ2FuZF9wcm8ubWFlJywgJy1vbWFlJywgJ2xpZ2FuZF9wcmVwLm1hZScsICctbXMnLCAnMScsICctcGgnLCAnNycsICctcGh0JywgJzAuNScsICctbnQn

> <r_lp_tautomer_probability>
1

> <r_epik_Ionization_Penalty>
  0.0384

> <r_epik_Ionization_Penalty_Charging>
  0.0037

> <r_epik_Ionization_Penalty_Neutral>
  0.0347

> <r_epik_State_Penalty>
 -0.0000

> <r_epik_Charging_Adjusted_Penalty>
0.00371124088890547

> <i_epik_Tot_Q>
1

> <i_epik_Tot_abs_Q>
1

$$$$
