1xh8_ligand
                    3D
 Schrodinger Suite 2020-3.
 82 86  0  0  1  0            999 V2000
    9.5910   23.3280   30.4020 O   0  0  0  0  0  0
    9.4400   24.5770   30.3900 C   0  0  0  0  0  0
   10.5630   25.4860   30.6780 C   0  0  0  0  0  0
   11.8060   24.8970   31.0070 C   0  0  0  0  0  0
   12.9150   25.6600   31.2670 C   0  0  0  0  0  0
   12.8290   27.0560   31.2310 N   0  0  0  0  0  0
   11.6220   27.6480   30.9480 C   0  0  0  0  0  0
   10.4850   26.8940   30.6870 C   0  0  0  0  0  0
    8.2020   25.1480   30.0800 N   0  0  0  0  0  0
    7.1180   24.3660   29.4670 C   0  0  2  0  0  0
    6.9340   24.7440   27.9890 C   0  0  0  0  0  0
    5.9500   23.8690   27.3210 N   0  3  0  0  0  0
    4.5980   24.4440   27.2800 C   0  0  0  0  0  0
    3.9510   24.3730   28.6650 C   0  0  0  0  0  0
    4.6330   25.2320   29.7280 C   0  0  0  0  0  0
    5.8580   24.5450   30.3480 C   0  0  1  0  0  0
    5.4100   23.2430   30.8730 N   0  0  0  0  0  0
    4.6510   23.0960   32.0210 C   0  0  0  0  0  0
    4.3750   24.0660   32.7350 O   0  0  0  0  0  0
    4.0490   21.8080   32.3040 C   0  0  0  0  0  0
    3.6170   21.4870   33.5960 C   0  0  0  0  0  0
    2.9930   20.2800   33.8300 C   0  0  0  0  0  0
    3.8750   20.8860   31.2590 C   0  0  0  0  0  0
    3.2270   19.6700   31.4940 C   0  0  0  0  0  0
    2.8260   19.3450   32.7950 C   0  0  0  0  0  0
    2.0950   18.1080   33.0630 C   0  0  0  0  0  0
    1.3050   18.1350   33.9870 O   0  0  0  0  0  0
    2.1590   16.8570   32.2890 C   0  0  0  0  0  0
    3.3190   16.1040   32.2800 C   0  0  0  0  0  0
    4.4000   16.5690   32.9660 O   0  0  0  0  0  0
    3.3990   14.9280   31.5560 C   0  0  0  0  0  0
    2.3110   14.5170   30.8310 C   0  0  0  0  0  0
    1.1180   15.2630   30.7970 C   0  0  0  0  0  0
    1.0600   16.4430   31.5400 C   0  0  0  0  0  0
    0.0010   14.8070   30.0360 N   0  0  0  0  0  0
   -1.3000   15.5180   30.1670 C   0  0  0  0  0  0
   -2.5120   14.7300   29.6380 C   0  0  0  0  0  0
   -2.2610   13.7830   28.4420 C   0  0  0  0  0  0
   -2.5650   14.5180   27.1180 C   0  0  0  0  0  0
   -3.2550   12.6340   28.5440 C   0  0  0  0  0  0
   -0.8780   13.0860   28.5170 C   0  0  0  0  0  0
    0.2510   14.0720   28.7760 C   0  0  0  0  0  0
   11.8841   23.8109   31.0550 H   0  0  0  0  0  0
   13.8644   25.1787   31.5019 H   0  0  0  0  0  0
   11.5550   28.7357   30.9278 H   0  0  0  0  0  0
    9.5345   27.3896   30.4896 H   0  0  0  0  0  0
    8.0508   26.2136   30.3075 H   0  0  0  0  0  0
    7.4036   23.3038   29.4543 H   0  0  0  0  0  0
    6.5789   25.7826   27.9177 H   0  0  0  0  0  0
    7.8957   24.6484   27.4636 H   0  0  0  0  0  0
    6.2656   23.6878   26.2829 H   0  0  0  0  0  0
    5.8874   22.9109   27.8577 H   0  0  0  0  0  0
    4.6564   25.4959   26.9635 H   0  0  0  0  0  0
    3.9811   23.8797   26.5652 H   0  0  0  0  0  0
    2.9072   24.7139   28.6000 H   0  0  0  0  0  0
    3.9758   23.3351   29.0285 H   0  0  0  0  0  0
    4.9693   26.1766   29.2757 H   0  0  0  0  0  0
    3.9208   25.4466   30.5384 H   0  0  0  0  0  0
    6.2011   25.2046   31.1587 H   0  0  0  0  0  0
    5.6776   22.3157   30.3453 H   0  0  0  0  0  0
    3.7734   22.1892   34.4149 H   0  0  0  0  0  0
    2.6250   20.0486   34.8296 H   0  0  0  0  0  0
    4.2466   21.1195   30.2612 H   0  0  0  0  0  0
    3.0357   18.9810   30.6714 H   0  0  0  0  0  0
    4.3268   17.5052   33.5389 H   0  0  0  0  0  0
    4.3145   14.3365   31.5620 H   0  0  0  0  0  0
    2.3712   13.5872   30.2654 H   0  0  0  0  0  0
    0.1503   17.0435   31.5341 H   0  0  0  0  0  0
   -1.4954   15.7325   31.2280 H   0  0  0  0  0  0
   -1.2605   16.4618   29.6034 H   0  0  0  0  0  0
   -2.9149   14.0947   30.4405 H   0  0  0  0  0  0
   -3.2884   15.4332   29.3023 H   0  0  0  0  0  0
   -3.5648   14.9734   27.1727 H   0  0  0  0  0  0
   -2.5340   13.8005   26.2848 H   0  0  0  0  0  0
   -1.8127   15.3035   26.9536 H   0  0  0  0  0  0
   -4.2800   13.0309   28.4997 H   0  0  0  0  0  0
   -3.1074   12.1051   29.4971 H   0  0  0  0  0  0
   -3.0956   11.9361   27.7088 H   0  0  0  0  0  0
   -0.8822   12.3500   29.3345 H   0  0  0  0  0  0
   -0.6727   12.5751   27.5647 H   0  0  0  0  0  0
    0.3077   14.7853   27.9405 H   0  0  0  0  0  0
    1.2008   13.5227   28.8542 H   0  0  0  0  0  0
  1  2  2  0  0  0
  2  3  1  0  0  0
  2  9  1  0  0  0
  3  4  2  0  0  0
  3  8  1  0  0  0
  4  5  1  0  0  0
  4 43  1  0  0  0
  5  6  2  0  0  0
  5 44  1  0  0  0
  6  7  1  0  0  0
  7  8  2  0  0  0
  7 45  1  0  0  0
  8 46  1  0  0  0
  9 10  1  0  0  0
  9 47  1  0  0  0
 10 11  1  0  0  0
 10 16  1  0  0  0
 10 48  1  0  0  0
 11 12  1  0  0  0
 11 49  1  0  0  0
 11 50  1  0  0  0
 12 13  1  0  0  0
 12 51  1  0  0  0
 12 52  1  0  0  0
 13 14  1  0  0  0
 13 53  1  0  0  0
 13 54  1  0  0  0
 14 15  1  0  0  0
 14 55  1  0  0  0
 14 56  1  0  0  0
 15 16  1  0  0  0
 15 57  1  0  0  0
 15 58  1  0  0  0
 16 17  1  0  0  0
 16 59  1  0  0  0
 17 18  1  0  0  0
 17 60  1  0  0  0
 18 19  2  0  0  0
 18 20  1  0  0  0
 20 21  2  0  0  0
 20 23  1  0  0  0
 21 22  1  0  0  0
 21 61  1  0  0  0
 22 25  2  0  0  0
 22 62  1  0  0  0
 23 24  2  0  0  0
 23 63  1  0  0  0
 24 25  1  0  0  0
 24 64  1  0  0  0
 25 26  1  0  0  0
 26 27  2  0  0  0
 26 28  1  0  0  0
 28 29  2  0  0  0
 28 34  1  0  0  0
 29 30  1  0  0  0
 29 31  1  0  0  0
 30 65  1  0  0  0
 31 32  2  0  0  0
 31 66  1  0  0  0
 32 33  1  0  0  0
 32 67  1  0  0  0
 33 34  2  0  0  0
 33 35  1  0  0  0
 34 68  1  0  0  0
 35 36  1  0  0  0
 35 42  1  0  0  0
 36 37  1  0  0  0
 36 69  1  0  0  0
 36 70  1  0  0  0
 37 38  1  0  0  0
 37 71  1  0  0  0
 37 72  1  0  0  0
 38 39  1  0  0  0
 38 40  1  0  0  0
 38 41  1  0  0  0
 39 73  1  0  0  0
 39 74  1  0  0  0
 39 75  1  0  0  0
 40 76  1  0  0  0
 40 77  1  0  0  0
 40 78  1  0  0  0
 41 42  1  0  0  0
 41 79  1  0  0  0
 41 80  1  0  0  0
 42 81  1  0  0  0
 42 82  1  0  0  0
M  CHG  1  12   1
M  END
> <s_m_source_file>
../1xh8_ligand.sdf

> <i_m_source_file_index>
1

> <s_epik_input>
W2NIXTFbY0hdbltjSF1bY0hdYzFDKD1PKVtOSF1bQ0BASF0yW0NIMl1bTkgyK11bQ0gyXVtDSDJdW0NIMl1bQ0BIXTJbTkhdQyg9TyljM1tjSF1bY0hdYyhbY0hdW2NIXTMpQyg9TyljNGMoW09IXSlbY0hdW2NIXWMoW2NIXTQpTihbQ0gyXVtDSDJdNSlbQ0gyXVtDSDJdQzUoW0NIM10pW0NIM10=

> <s_epik_cmdline>
J2VwaWtfYXBwJywgJy1pbWFlJywgJ2xpZ2FuZF9wcm8ubWFlJywgJy1vbWFlJywgJ2xpZ2FuZF9wcmVwLm1hZScsICctbXMnLCAnMScsICctcGgnLCAnNycsICctcGh0JywgJzAuNScsICctbnQn

> <r_lp_tautomer_probability>
1

> <r_epik_Ionization_Penalty>
  0.0885

> <r_epik_Ionization_Penalty_Charging>
  0.0037

> <r_epik_Ionization_Penalty_Neutral>
  0.0848

> <r_epik_State_Penalty>
 -0.0000

> <r_epik_Charging_Adjusted_Penalty>
0.00371124088890547

> <i_epik_Tot_Q>
1

> <i_epik_Tot_abs_Q>
1

$$$$
