1xh9_ligand
                    3D
 Schrodinger Suite 2020-3.
 69 72  0  0  1  0            999 V2000
   10.0720   39.6130    9.4250 O   0  0  0  0  0  0
   10.1020   40.8510    9.2840 C   0  0  0  0  0  0
   10.2490   41.4880    7.9680 C   0  0  0  0  0  0
   10.0960   40.7380    6.8000 C   0  0  0  0  0  0
   10.2090   41.3170    5.5390 C   0  0  0  0  0  0
   10.4740   42.6110    5.4030 N   0  0  0  0  0  0
   10.6380   43.3550    6.5060 C   0  0  0  0  0  0
   10.5300   42.8480    7.7990 C   0  0  0  0  0  0
    9.9370   41.6510   10.4070 N   0  0  0  0  0  0
    9.3990   41.1270   11.6700 C   0  0  2  0  0  0
    7.9570   41.6440   11.8140 C   0  0  0  0  0  0
    7.3140   41.0610   13.0440 N   0  3  0  0  0  0
    7.5170   41.9130   14.2990 C   0  0  0  0  0  0
    8.9340   41.8200   14.8670 C   0  0  0  0  0  0
    9.9800   42.4120   13.9090 C   0  0  0  0  0  0
   10.4410   41.4570   12.7840 C   0  0  1  0  0  0
   10.9590   40.1770   13.3160 N   0  0  0  0  0  0
   12.1220   40.1060   14.0600 C   0  0  0  0  0  0
   12.8560   41.0850   14.1060 O   0  0  0  0  0  0
   12.4330   38.8970   14.8490 C   0  0  0  0  0  0
   13.7470   38.6670   15.3180 C   0  0  0  0  0  0
   14.0360   37.5560   16.0970 C   0  0  0  0  0  0
   11.4330   37.9930   15.1920 C   0  0  0  0  0  0
   11.7310   36.8840   15.9670 C   0  0  0  0  0  0
   13.0190   36.6430   16.4290 C   0  0  0  0  0  0
   13.3100   35.5040   17.2950 C   0  0  0  0  0  0
   14.2690   35.6380   18.0900 O   0  0  0  0  0  0
   12.5680   34.2790   17.3660 C   0  0  0  0  0  0
   12.4150   33.4450   16.2240 C   0  0  0  0  0  0
   12.9030   33.7670   15.0670 O   0  0  0  0  0  0
   11.6880   32.2340   16.3820 C   0  0  0  0  0  0
   11.1520   31.8950   17.6050 C   0  0  0  0  0  0
   12.0210   33.9220   18.6160 C   0  0  0  0  0  0
   11.3170   32.7300   18.7380 C   0  0  0  0  0  0
   10.7360   32.3640   19.9810 N   0  0  0  0  0  0
   10.6010   30.9260   20.2820 C   0  0  0  0  0  0
    9.5650   33.1730   20.3690 C   0  0  0  0  0  0
    9.8826   39.6719    6.8776 H   0  0  0  0  0  0
   10.0781   40.6992    4.6506 H   0  0  0  0  0  0
   10.8682   44.4135    6.3846 H   0  0  0  0  0  0
   10.6620   43.4990    8.6632 H   0  0  0  0  0  0
   10.2244   42.7099   10.3289 H   0  0  0  0  0  0
    9.2888   40.0325   11.6740 H   0  0  0  0  0  0
    7.9675   42.7406   11.8995 H   0  0  0  0  0  0
    7.3723   41.3508   10.9296 H   0  0  0  0  0  0
    6.2302   40.9663   12.8813 H   0  0  0  0  0  0
    7.7425   40.0683   13.2463 H   0  0  0  0  0  0
    7.3232   42.9692   14.0604 H   0  0  0  0  0  0
    6.8218   41.5809   15.0841 H   0  0  0  0  0  0
    8.9857   42.3740   15.8159 H   0  0  0  0  0  0
    9.1896   40.7649   15.0441 H   0  0  0  0  0  0
    9.5640   43.3039   13.4177 H   0  0  0  0  0  0
   10.8799   42.6921   14.4763 H   0  0  0  0  0  0
   11.2735   42.0106   12.3251 H   0  0  0  0  0  0
   10.4145   39.2408   13.1235 H   0  0  0  0  0  0
   14.5409   39.3697   15.0649 H   0  0  0  0  0  0
   15.0530   37.3904   16.4524 H   0  0  0  0  0  0
   10.4113   38.1577   14.8498 H   0  0  0  0  0  0
   10.9355   36.1833   16.2205 H   0  0  0  0  0  0
   13.4651   34.7052   14.9489 H   0  0  0  0  0  0
   11.5535   31.5686   15.5292 H   0  0  0  0  0  0
   10.5899   30.9662   17.7031 H   0  0  0  0  0  0
   12.1493   34.5754   19.4790 H   0  0  0  0  0  0
   11.5117   30.3976   19.9634 H   0  0  0  0  0  0
    9.7330   30.5185   19.7429 H   0  0  0  0  0  0
   10.4576   30.7898   21.3641 H   0  0  0  0  0  0
    9.7460   34.2270   20.1117 H   0  0  0  0  0  0
    9.4002   33.0832   21.4529 H   0  0  0  0  0  0
    8.6756   32.8119   19.8317 H   0  0  0  0  0  0
  1  2  2  0  0  0
  2  3  1  0  0  0
  2  9  1  0  0  0
  3  4  2  0  0  0
  3  8  1  0  0  0
  4  5  1  0  0  0
  4 38  1  0  0  0
  5  6  2  0  0  0
  5 39  1  0  0  0
  6  7  1  0  0  0
  7  8  2  0  0  0
  7 40  1  0  0  0
  8 41  1  0  0  0
  9 10  1  0  0  0
  9 42  1  0  0  0
 10 11  1  0  0  0
 10 16  1  0  0  0
 10 43  1  0  0  0
 11 12  1  0  0  0
 11 44  1  0  0  0
 11 45  1  0  0  0
 12 13  1  0  0  0
 12 46  1  0  0  0
 12 47  1  0  0  0
 13 14  1  0  0  0
 13 48  1  0  0  0
 13 49  1  0  0  0
 14 15  1  0  0  0
 14 50  1  0  0  0
 14 51  1  0  0  0
 15 16  1  0  0  0
 15 52  1  0  0  0
 15 53  1  0  0  0
 16 17  1  0  0  0
 16 54  1  0  0  0
 17 18  1  0  0  0
 17 55  1  0  0  0
 18 19  2  0  0  0
 18 20  1  0  0  0
 20 21  2  0  0  0
 20 23  1  0  0  0
 21 22  1  0  0  0
 21 56  1  0  0  0
 22 25  2  0  0  0
 22 57  1  0  0  0
 23 24  2  0  0  0
 23 58  1  0  0  0
 24 25  1  0  0  0
 24 59  1  0  0  0
 25 26  1  0  0  0
 26 27  2  0  0  0
 26 28  1  0  0  0
 28 29  2  0  0  0
 28 33  1  0  0  0
 29 30  1  0  0  0
 29 31  1  0  0  0
 30 60  1  0  0  0
 31 32  2  0  0  0
 31 61  1  0  0  0
 32 34  1  0  0  0
 32 62  1  0  0  0
 33 34  2  0  0  0
 33 63  1  0  0  0
 34 35  1  0  0  0
 35 36  1  0  0  0
 35 37  1  0  0  0
 36 64  1  0  0  0
 36 65  1  0  0  0
 36 66  1  0  0  0
 37 67  1  0  0  0
 37 68  1  0  0  0
 37 69  1  0  0  0
M  CHG  1  12   1
M  END
> <s_m_source_file>
../1xh9_ligand.sdf

> <i_m_source_file_index>
1

> <s_epik_input>
W2NIXTFbY0hdbltjSF1bY0hdYzFDKD1PKVtOSF1bQ0BASF0yW0NIMl1bTkgyK11bQ0gyXVtDSDJdW0NIMl1bQ0BIXTJbTkhdQyg9TyljM1tjSF1bY0hdYyhbY0hdW2NIXTMpQyg9TyljNGMoW09IXSlbY0hdW2NIXWMoW2NIXTQpTihbQ0gzXSlbQ0gzXQ==

> <s_epik_cmdline>
J2VwaWtfYXBwJywgJy1pbWFlJywgJ2xpZ2FuZF9wcm8ubWFlJywgJy1vbWFlJywgJ2xpZ2FuZF9wcmVwLm1hZScsICctbXMnLCAnMScsICctcGgnLCAnNycsICctcGh0JywgJzAuNScsICctbnQn

> <r_lp_tautomer_probability>
1

> <r_epik_Ionization_Penalty>
  0.0245

> <r_epik_Ionization_Penalty_Charging>
  0.0037

> <r_epik_Ionization_Penalty_Neutral>
  0.0208

> <r_epik_State_Penalty>
 -0.0000

> <r_epik_Charging_Adjusted_Penalty>
0.00371124088890547

> <i_epik_Tot_Q>
1

> <i_epik_Tot_abs_Q>
1

$$$$
