1xhm_ligand
                    3D
 Schrodinger Suite 2020-3.
208210  0  0  1  0            999 V2000
  -22.4280  -18.7060   21.4910 N   0  3  0  0  0  0
  -21.2050  -18.0160   21.9930 C   0  0  2  0  0  0
  -20.0120  -18.5770   21.2300 C   0  0  0  0  0  0
  -19.4020  -17.8970   20.4020 O   0  0  0  0  0  0
  -21.0210  -18.2860   23.4920 C   0  0  0  0  0  0
  -22.2160  -18.0600   24.2260 O   0  0  0  0  0  0
  -19.6990  -19.8340   21.5220 N   0  0  0  0  0  0
  -18.5970  -20.5400   20.8870 C   0  0  2  0  0  0
  -18.9110  -20.7390   19.4060 C   0  0  0  0  0  0
  -18.0090  -20.8830   18.5780 O   0  0  0  0  0  0
  -18.3840  -21.9080   21.5680 C   0  0  2  0  0  0
  -18.3370  -21.7050   23.0880 C   0  0  0  0  0  0
  -17.0850  -22.5500   21.0840 C   0  0  0  0  0  0
  -18.2950  -22.9810   23.8990 C   0  0  0  0  0  0
  -20.2010  -20.7330   19.0830 N   0  0  0  0  0  0
  -20.6290  -20.9030   17.7090 C   0  0  0  0  0  0
  -20.1440  -19.7630   16.8400 C   0  0  0  0  0  0
  -19.7810  -19.9670   15.6830 O   0  0  0  0  0  0
  -20.1450  -18.5560   17.3970 N   0  0  0  0  0  0
  -19.6850  -17.3750   16.6790 C   0  0  2  0  0  0
  -18.2580  -17.6300   16.2140 C   0  0  0  0  0  0
  -17.9040  -17.3510   15.0700 O   0  0  0  0  0  0
  -19.7180  -16.1510   17.6070 C   0  0  0  0  0  0
  -19.0820  -14.8850   17.0410 C   0  0  0  0  0  0
  -19.8630  -14.3380   15.8690 C   0  0  0  0  0  0
  -19.2070  -13.0930   15.3050 C   0  0  0  0  0  0
  -20.0170  -12.5250   14.2040 N   0  3  0  0  0  0
  -17.4440  -18.1670   17.1130 N   0  0  0  0  0  0
  -16.0600  -18.4620   16.7960 C   0  0  2  0  0  0
  -15.9790  -19.5740   15.7530 C   0  0  0  0  0  0
  -15.1190  -19.5320   14.8720 O   0  0  0  0  0  0
  -15.3060  -18.8620   18.0600 C   0  0  0  0  0  0
  -16.8630  -20.5680   15.8440 N   0  0  0  0  0  0
  -16.8390  -21.6620   14.8720 C   0  0  2  0  0  0
  -17.1790  -21.1060   13.4990 C   0  0  0  0  0  0
  -16.6620  -21.5670   12.4810 O   0  0  0  0  0  0
  -17.8410  -22.7770   15.2370 C   0  0  0  0  0  0
  -17.4380  -23.6130   16.4280 C   0  0  0  0  0  0
  -16.1400  -24.0980   16.5610 C   0  0  0  0  0  0
  -18.3620  -23.9220   17.4230 C   0  0  0  0  0  0
  -15.7700  -24.8760   17.6710 C   0  0  0  0  0  0
  -18.0020  -24.6980   18.5340 C   0  0  0  0  0  0
  -16.7050  -25.1730   18.6580 C   0  0  0  0  0  0
  -18.0590  -20.1140   13.4830 N   0  0  0  0  0  0
  -18.4750  -19.4740   12.2480 C   0  0  2  0  0  0
  -17.2120  -18.8830   11.6240 C   0  0  0  0  0  0
  -16.9380  -19.0780   10.4370 O   0  0  0  0  0  0
  -19.4720  -18.3550   12.5560 C   0  0  0  0  0  0
  -20.5180  -18.1040   11.4800 C   0  0  0  0  0  0
  -21.6160  -19.1610   11.5250 C   0  0  0  0  0  0
  -22.6880  -18.9030   10.4740 C   0  0  0  0  0  0
  -23.7960  -19.8950   10.5640 N   0  3  0  0  0  0
  -16.4410  -18.1760   12.4460 N   0  0  0  0  0  0
  -15.2030  -17.5350   12.0080 C   0  0  2  0  0  0
  -14.1350  -18.5270   11.5580 C   0  0  0  0  0  0
  -13.4300  -18.2860   10.5780 O   0  0  0  0  0  0
  -14.6020  -16.6690   13.1350 C   0  0  2  0  0  0
  -15.6330  -15.6430   13.6010 C   0  0  0  0  0  0
  -13.3370  -15.9600   12.6430 C   0  0  0  0  0  0
  -15.2180  -14.9060   14.8430 C   0  0  0  0  0  0
  -14.0140  -19.6330   12.2850 N   0  0  0  0  0  0
  -13.0260  -20.6580   11.9690 C   0  0  2  0  0  0
  -13.3430  -21.3980   10.6820 C   0  0  0  0  0  0
  -12.5050  -22.1290   10.1500 O   0  0  0  0  0  0
  -12.9230  -21.6520   13.1190 C   0  0  0  0  0  0
  -12.3080  -21.0830   14.3960 C   0  0  0  0  0  0
  -12.3030  -22.1600   15.4620 C   0  0  0  0  0  0
  -10.8880  -20.5900   14.1190 C   0  0  0  0  0  0
  -14.5590  -21.2010   10.1830 N   0  0  0  0  0  0
  -14.9680  -21.8550    8.9540 C   0  0  0  0  0  0
  -15.6320  -23.1880    9.2200 C   0  0  0  0  0  0
  -15.0310  -24.2420    9.0190 O   0  0  0  0  0  0
  -16.8730  -23.1390    9.6880 N   0  0  0  0  0  0
  -17.6410  -24.3410    9.9780 C   0  0  2  0  0  0
  -19.0920  -24.1190    9.5620 C   0  0  0  0  0  0
  -19.6770  -23.0740    9.8510 O   0  0  0  0  0  0
  -17.5510  -24.6850   11.4720 C   0  0  0  0  0  0
  -16.2600  -25.3900   11.8760 C   0  0  0  0  0  0
  -15.9670  -26.6730   11.4140 C   0  0  0  0  0  0
  -15.3290  -24.7770   12.7160 C   0  0  0  0  0  0
  -14.7840  -27.3270   11.7780 C   0  0  0  0  0  0
  -14.1410  -25.4240   13.0840 C   0  0  0  0  0  0
  -13.8710  -26.6990   12.6120 C   0  0  0  0  0  0
  -12.6970  -27.3370   12.9600 O   0  0  0  0  0  0
  -19.6890  -25.1000    8.8640 N   0  0  0  0  0  0
  -21.0790  -24.9860    8.4130 C   0  0  2  0  0  0
  -22.0970  -24.9190    9.5510 C   0  0  0  0  0  0
  -21.8840  -25.4850   10.6240 O   0  0  0  0  0  0
  -21.2550  -26.2290    7.5430 C   0  0  0  0  0  0
  -20.3650  -27.2210    8.2100 C   0  0  0  0  0  0
  -19.1220  -26.4010    8.4660 C   0  0  0  0  0  0
  -23.2020  -24.2200    9.2990 N   0  0  0  0  0  0
  -24.2760  -24.0570   10.2740 C   0  0  2  0  0  0
  -23.7820  -23.4930   11.6080 C   0  0  0  0  0  0
  -24.0740  -24.1040   12.6610 O   0  0  0  0  0  0
  -24.9810  -25.3990   10.5030 C   0  0  0  0  0  0
  -25.5550  -25.9830    9.2230 C   0  0  0  0  0  0
  -26.3280  -25.2740    8.5390 O   0  0  0  0  0  0
  -25.2380  -27.1510    8.9040 O   0  0  0  0  0  0
  -23.1040  -22.4410   11.5980 O   0  0  0  0  0  0
  -22.5478  -18.5043   20.4163 H   0  0  0  0  0  0
  -23.3086  -18.3330   22.0345 H   0  0  0  0  0  0
  -22.3297  -19.7897   21.6519 H   0  0  0  0  0  0
  -21.3145  -16.9342   21.8266 H   0  0  0  0  0  0
  -20.7198  -19.3333   23.6416 H   0  0  0  0  0  0
  -20.2422  -17.6199   23.8917 H   0  0  0  0  0  0
  -22.2302  -18.2149   25.3149 H   0  0  0  0  0  0
  -20.3139  -20.3419   22.2796 H   0  0  0  0  0  0
  -17.7080  -19.9037   21.0089 H   0  0  0  0  0  0
  -19.2107  -22.5858   21.3090 H   0  0  0  0  0  0
  -17.4367  -21.1316   23.3536 H   0  0  0  0  0  0
  -19.2319  -21.1535   23.4121 H   0  0  0  0  0  0
  -17.1295  -22.6908   19.9940 H   0  0  0  0  0  0
  -16.9532  -23.5256   21.5747 H   0  0  0  0  0  0
  -16.2370  -21.8958   21.3349 H   0  0  0  0  0  0
  -18.2631  -22.7336   24.9703 H   0  0  0  0  0  0
  -17.3980  -23.5577   23.6290 H   0  0  0  0  0  0
  -19.1933  -23.5796   23.6874 H   0  0  0  0  0  0
  -20.9480  -20.5961   19.8788 H   0  0  0  0  0  0
  -20.2220  -21.8447   17.3120 H   0  0  0  0  0  0
  -21.7278  -20.9325   17.6682 H   0  0  0  0  0  0
  -20.5072  -18.4643   18.4316 H   0  0  0  0  0  0
  -20.3607  -17.2216   15.8246 H   0  0  0  0  0  0
  -20.7622  -15.8970   17.8419 H   0  0  0  0  0  0
  -19.1785  -16.3816   18.5375 H   0  0  0  0  0  0
  -19.0465  -14.1116   17.8224 H   0  0  0  0  0  0
  -18.0604  -15.1088   16.6999 H   0  0  0  0  0  0
  -19.9134  -15.0979   15.0753 H   0  0  0  0  0  0
  -20.8815  -14.0804   16.1952 H   0  0  0  0  0  0
  -19.1093  -12.3382   16.0992 H   0  0  0  0  0  0
  -18.2099  -13.3478   14.9167 H   0  0  0  0  0  0
  -19.5221  -11.6244   13.8116 H   0  0  0  0  0  0
  -21.0151  -12.2594   14.5824 H   0  0  0  0  0  0
  -20.1157  -13.2691   13.3999 H   0  0  0  0  0  0
  -17.8378  -18.3887   18.1159 H   0  0  0  0  0  0
  -15.6405  -17.5320   16.3849 H   0  0  0  0  0  0
  -15.3743  -18.0509   18.7999 H   0  0  0  0  0  0
  -14.2497  -19.0460   17.8141 H   0  0  0  0  0  0
  -15.7501  -19.7776   18.4776 H   0  0  0  0  0  0
  -17.6109  -20.5653   16.6507 H   0  0  0  0  0  0
  -15.8151  -22.0630   14.8990 H   0  0  0  0  0  0
  -18.8171  -22.3292   15.4752 H   0  0  0  0  0  0
  -17.9510  -23.4644   14.3853 H   0  0  0  0  0  0
  -15.4003  -23.8711   15.7933 H   0  0  0  0  0  0
  -19.3842  -23.5537   17.3365 H   0  0  0  0  0  0
  -14.7491  -25.2475   17.7591 H   0  0  0  0  0  0
  -18.7420  -24.9280   19.3006 H   0  0  0  0  0  0
  -16.4202  -25.7741   19.5215 H   0  0  0  0  0  0
  -18.4763  -19.7786   14.4439 H   0  0  0  0  0  0
  -18.9538  -20.2253   11.6028 H   0  0  0  0  0  0
  -20.0225  -18.5977   13.4769 H   0  0  0  0  0  0
  -18.9296  -17.4077   12.6919 H   0  0  0  0  0  0
  -20.9746  -17.1155   11.6360 H   0  0  0  0  0  0
  -20.0401  -18.1350   10.4897 H   0  0  0  0  0  0
  -21.1783  -20.1526   11.3375 H   0  0  0  0  0  0
  -22.0930  -19.1522   12.5161 H   0  0  0  0  0  0
  -23.1100  -17.8977   10.6198 H   0  0  0  0  0  0
  -22.2420  -18.9714    9.4708 H   0  0  0  0  0  0
  -24.5478  -19.6761    9.7914 H   0  0  0  0  0  0
  -24.2631  -19.8337   11.5580 H   0  0  0  0  0  0
  -23.3951  -20.9075   10.4090 H   0  0  0  0  0  0
  -16.7679  -18.0836   13.4922 H   0  0  0  0  0  0
  -15.5368  -16.9410   11.1445 H   0  0  0  0  0  0
  -14.3310  -17.3107   13.9864 H   0  0  0  0  0  0
  -15.7904  -14.8958   12.8092 H   0  0  0  0  0  0
  -16.5836  -16.1516   13.8194 H   0  0  0  0  0  0
  -12.6029  -16.7087   12.3105 H   0  0  0  0  0  0
  -12.9081  -15.3647   13.4625 H   0  0  0  0  0  0
  -13.5914  -15.2974   11.8026 H   0  0  0  0  0  0
  -16.0021  -14.1866   15.1217 H   0  0  0  0  0  0
  -14.2775  -14.3680   14.6531 H   0  0  0  0  0  0
  -15.0706  -15.6239   15.6633 H   0  0  0  0  0  0
  -14.6858  -19.7636   13.1462 H   0  0  0  0  0  0
  -12.0862  -20.1037   11.8291 H   0  0  0  0  0  0
  -13.9280  -22.0137   13.3821 H   0  0  0  0  0  0
  -12.2955  -22.5023   12.8136 H   0  0  0  0  0  0
  -12.9055  -20.2325   14.7560 H   0  0  0  0  0  0
  -13.3332  -22.4995   15.6450 H   0  0  0  0  0  0
  -11.8803  -21.7530   16.3924 H   0  0  0  0  0  0
  -11.6919  -23.0092   15.1223 H   0  0  0  0  0  0
  -10.9153  -19.8102   13.3437 H   0  0  0  0  0  0
  -10.2692  -21.4306   13.7720 H   0  0  0  0  0  0
  -10.4576  -20.1744   15.0420 H   0  0  0  0  0  0
  -15.2578  -20.5351   10.7105 H   0  0  0  0  0  0
  -15.6835  -21.2140    8.4181 H   0  0  0  0  0  0
  -14.0859  -22.0293    8.3203 H   0  0  0  0  0  0
  -17.3189  -22.1475    9.8559 H   0  0  0  0  0  0
  -17.1950  -25.1533    9.3853 H   0  0  0  0  0  0
  -17.6127  -23.7608   12.0654 H   0  0  0  0  0  0
  -18.3816  -25.3523   11.7453 H   0  0  0  0  0  0
  -16.6743  -27.1772   10.7555 H   0  0  0  0  0  0
  -15.5298  -23.7744   13.0937 H   0  0  0  0  0  0
  -14.5802  -28.3309   11.4055 H   0  0  0  0  0  0
  -13.4295  -24.9243   13.7414 H   0  0  0  0  0  0
  -12.4881  -28.3488   12.5824 H   0  0  0  0  0  0
  -21.2237  -24.0335    7.8821 H   0  0  0  0  0  0
  -22.3120  -26.5335    7.5482 H   0  0  0  0  0  0
  -20.9438  -26.0024    6.5125 H   0  0  0  0  0  0
  -20.8433  -27.5802    9.1332 H   0  0  0  0  0  0
  -20.1904  -28.0703    7.5331 H   0  0  0  0  0  0
  -18.4996  -26.2705    7.5685 H   0  0  0  0  0  0
  -18.5050  -26.7982    9.2855 H   0  0  0  0  0  0
  -23.2856  -23.7548    8.3057 H   0  0  0  0  0  0
  -24.9513  -23.3206    9.8139 H   0  0  0  0  0  0
  -23.7312  -23.7196   13.6330 H   0  0  0  0  0  0
  -24.2635  -26.1248   10.9134 H   0  0  0  0  0  0
  -25.8099  -25.2613   11.2129 H   0  0  0  0  0  0
  -26.7586  -25.6705    7.6077 H   0  0  0  0  0  0
  1  2  1  0  0  0
  1101  1  0  0  0
  1102  1  0  0  0
  1103  1  0  0  0
  2  3  1  0  0  0
  2  5  1  0  0  0
  2104  1  0  0  0
  3  4  2  0  0  0
  3  7  1  0  0  0
  5  6  1  0  0  0
  5105  1  0  0  0
  5106  1  0  0  0
  6107  1  0  0  0
  7  8  1  0  0  0
  7108  1  0  0  0
  8  9  1  0  0  0
  8 11  1  0  0  0
  8109  1  0  0  0
  9 10  2  0  0  0
  9 15  1  0  0  0
 11 12  1  0  0  0
 11 13  1  0  0  0
 11110  1  0  0  0
 12 14  1  0  0  0
 12111  1  0  0  0
 12112  1  0  0  0
 13113  1  0  0  0
 13114  1  0  0  0
 13115  1  0  0  0
 14116  1  0  0  0
 14117  1  0  0  0
 14118  1  0  0  0
 15 16  1  0  0  0
 15119  1  0  0  0
 16 17  1  0  0  0
 16120  1  0  0  0
 16121  1  0  0  0
 17 18  2  0  0  0
 17 19  1  0  0  0
 19 20  1  0  0  0
 19122  1  0  0  0
 20 21  1  0  0  0
 20 23  1  0  0  0
 20123  1  0  0  0
 21 22  2  0  0  0
 21 28  1  0  0  0
 23 24  1  0  0  0
 23124  1  0  0  0
 23125  1  0  0  0
 24 25  1  0  0  0
 24126  1  0  0  0
 24127  1  0  0  0
 25 26  1  0  0  0
 25128  1  0  0  0
 25129  1  0  0  0
 26 27  1  0  0  0
 26130  1  0  0  0
 26131  1  0  0  0
 27132  1  0  0  0
 27133  1  0  0  0
 27134  1  0  0  0
 28 29  1  0  0  0
 28135  1  0  0  0
 29 30  1  0  0  0
 29 32  1  0  0  0
 29136  1  0  0  0
 30 31  2  0  0  0
 30 33  1  0  0  0
 32137  1  0  0  0
 32138  1  0  0  0
 32139  1  0  0  0
 33 34  1  0  0  0
 33140  1  0  0  0
 34 35  1  0  0  0
 34 37  1  0  0  0
 34141  1  0  0  0
 35 36  2  0  0  0
 35 44  1  0  0  0
 37 38  1  0  0  0
 37142  1  0  0  0
 37143  1  0  0  0
 38 39  2  0  0  0
 38 40  1  0  0  0
 39 41  1  0  0  0
 39144  1  0  0  0
 40 42  2  0  0  0
 40145  1  0  0  0
 41 43  2  0  0  0
 41146  1  0  0  0
 42 43  1  0  0  0
 42147  1  0  0  0
 43148  1  0  0  0
 44 45  1  0  0  0
 44149  1  0  0  0
 45 46  1  0  0  0
 45 48  1  0  0  0
 45150  1  0  0  0
 46 47  2  0  0  0
 46 53  1  0  0  0
 48 49  1  0  0  0
 48151  1  0  0  0
 48152  1  0  0  0
 49 50  1  0  0  0
 49153  1  0  0  0
 49154  1  0  0  0
 50 51  1  0  0  0
 50155  1  0  0  0
 50156  1  0  0  0
 51 52  1  0  0  0
 51157  1  0  0  0
 51158  1  0  0  0
 52159  1  0  0  0
 52160  1  0  0  0
 52161  1  0  0  0
 53 54  1  0  0  0
 53162  1  0  0  0
 54 55  1  0  0  0
 54 57  1  0  0  0
 54163  1  0  0  0
 55 56  2  0  0  0
 55 61  1  0  0  0
 57 58  1  0  0  0
 57 59  1  0  0  0
 57164  1  0  0  0
 58 60  1  0  0  0
 58165  1  0  0  0
 58166  1  0  0  0
 59167  1  0  0  0
 59168  1  0  0  0
 59169  1  0  0  0
 60170  1  0  0  0
 60171  1  0  0  0
 60172  1  0  0  0
 61 62  1  0  0  0
 61173  1  0  0  0
 62 63  1  0  0  0
 62 65  1  0  0  0
 62174  1  0  0  0
 63 64  2  0  0  0
 63 69  1  0  0  0
 65 66  1  0  0  0
 65175  1  0  0  0
 65176  1  0  0  0
 66 67  1  0  0  0
 66 68  1  0  0  0
 66177  1  0  0  0
 67178  1  0  0  0
 67179  1  0  0  0
 67180  1  0  0  0
 68181  1  0  0  0
 68182  1  0  0  0
 68183  1  0  0  0
 69 70  1  0  0  0
 69184  1  0  0  0
 70 71  1  0  0  0
 70185  1  0  0  0
 70186  1  0  0  0
 71 72  2  0  0  0
 71 73  1  0  0  0
 73 74  1  0  0  0
 73187  1  0  0  0
 74 75  1  0  0  0
 74 77  1  0  0  0
 74188  1  0  0  0
 75 76  2  0  0  0
 75 85  1  0  0  0
 77 78  1  0  0  0
 77189  1  0  0  0
 77190  1  0  0  0
 78 79  2  0  0  0
 78 80  1  0  0  0
 79 81  1  0  0  0
 79191  1  0  0  0
 80 82  2  0  0  0
 80192  1  0  0  0
 81 83  2  0  0  0
 81193  1  0  0  0
 82 83  1  0  0  0
 82194  1  0  0  0
 83 84  1  0  0  0
 84195  1  0  0  0
 85 86  1  0  0  0
 85 91  1  0  0  0
 86 87  1  0  0  0
 86 89  1  0  0  0
 86196  1  0  0  0
 87 88  2  0  0  0
 87 92  1  0  0  0
 89 90  1  0  0  0
 89197  1  0  0  0
 89198  1  0  0  0
 90 91  1  0  0  0
 90199  1  0  0  0
 90200  1  0  0  0
 91201  1  0  0  0
 91202  1  0  0  0
 92 93  1  0  0  0
 92203  1  0  0  0
 93 94  1  0  0  0
 93 96  1  0  0  0
 93204  1  0  0  0
 94 95  1  0  0  0
 94100  2  0  0  0
 95205  1  0  0  0
 96 97  1  0  0  0
 96206  1  0  0  0
 96207  1  0  0  0
 97 98  1  0  0  0
 97 99  2  0  0  0
 98208  1  0  0  0
M  CHG  3   1   1  27   1  52   1
M  END
> <s_m_source_file>
../1xhm_ligand.sdf

> <i_m_source_file_index>
1

> <s_epik_input>
W09IXVtDSDJdW0NASF0oW05IMytdKUMoPU8pW05IXVtDQEBIXShbQ0BASF0oW0NIM10pW0NIMl1bQ0gzXSlDKD1PKVtOSF1bQ0gyXUMoPU8pW05IXVtDQEBIXShbQ0gyXVtDSDJdW0NIMl1bQ0gyXVtOSDMrXSlDKD1PKVtOSF1bQ0BASF0oW0NIM10pQyg9TylbTkhdW0NAQEhdKFtDSDJdYzFbY0hdW2NIXVtjSF1bY0hdW2NIXTEpQyg9TylbTkhdW0NAQEhdKFtDSDJdW0NIMl1bQ0gyXVtDSDJdW05IMytdKUMoPU8pW05IXVtDQEBIXShbQ0BASF0oW0NIM10pW0NIMl1bQ0gzXSlDKD1PKVtOSF1bQ0BASF0oW0NIMl1bQ0hdKFtDSDNdKVtDSDNdKUMoPU8pW05IXVtDSDJdQyg9TylbTkhdW0NAQEhdKFtDSDJdYzJbY0hdW2NIXWMoW09IXSlbY0hdW2NIXTIpQyg9TylOM1tDQEBIXShbQ0gyXVtDSDJdW0NIMl0zKUMoPU8pW05IXVtDQEhdKEMoPU8pW09IXSlbQ0gyXUMoPU8pW09IXQ==

> <s_epik_cmdline>
J2VwaWtfYXBwJywgJy1pbWFlJywgJ2xpZ2FuZF9wcm8ubWFlJywgJy1vbWFlJywgJ2xpZ2FuZF9wcmVwLm1hZScsICctbXMnLCAnMScsICctcGgnLCAnNycsICctcGh0JywgJzAuNScsICctbnQn

> <s_epik_pKa_notes>
Molecule size exceeds maximum supported for generating protonation states

$$$$
