1xhy_ligand
                    3D
 Schrodinger Suite 2020-3.
 31 31  0  0  1  0            999 V2000
   12.5840    7.2410   24.6640 N   0  3  0  0  0  0
   13.0020    8.6420   24.3830 C   0  0  0  0  0  0
   15.0920   10.3470   22.8180 C   0  0  0  0  0  0
   16.9690    9.3740   24.2830 C   0  0  0  0  0  0
   13.7070    6.3650   24.8550 C   0  0  1  0  0  0
   14.9130    7.1570   24.4620 C   0  0  1  0  0  0
   15.0390    6.9700   22.9400 C   0  0  0  0  0  0
   14.5200    8.5810   24.5590 C   0  0  1  0  0  0
   15.7450    5.7410   22.4050 C   0  0  0  0  0  0
   15.4890    9.6650   24.0820 C   0  0  0  0  0  0
   13.8130    6.1160   26.3680 C   0  0  0  0  0  0
   12.9650    6.4240   27.2290 O   0  0  0  0  0  0
   15.7330    5.5370   21.0590 O   0  5  0  0  0  0
   16.3310    4.9990   23.1790 O   0  0  0  0  0  0
   14.9050    5.5720   26.8230 O   0  5  0  0  0  0
   11.9737    7.2170   25.5788 H   0  0  0  0  0  0
   11.9931    6.8581   23.8189 H   0  0  0  0  0  0
   12.7029    8.9158   23.3605 H   0  0  0  0  0  0
   12.5174    9.3202   25.1007 H   0  0  0  0  0  0
   15.8458   11.1047   22.5578 H   0  0  0  0  0  0
   14.1151   10.8336   22.9552 H   0  0  0  0  0  0
   15.0221    9.6061   22.0080 H   0  0  0  0  0  0
   17.5634   10.2187   23.9046 H   0  0  0  0  0  0
   17.2406    8.4598   23.7349 H   0  0  0  0  0  0
   17.1727    9.2332   25.3548 H   0  0  0  0  0  0
   13.5852    5.4503   24.2562 H   0  0  0  0  0  0
   15.7875    6.8928   25.0747 H   0  0  0  0  0  0
   14.0355    6.9277   22.4915 H   0  0  0  0  0  0
   15.5967    7.8158   22.5116 H   0  0  0  0  0  0
   14.7305    8.9574   25.5709 H   0  0  0  0  0  0
   15.3519   10.4984   24.7867 H   0  0  0  0  0  0
  1  2  1  0  0  0
  1  5  1  0  0  0
  1 16  1  0  0  0
  1 17  1  0  0  0
  2  8  1  0  0  0
  2 18  1  0  0  0
  2 19  1  0  0  0
  3 10  1  0  0  0
  3 20  1  0  0  0
  3 21  1  0  0  0
  3 22  1  0  0  0
  4 10  1  0  0  0
  4 23  1  0  0  0
  4 24  1  0  0  0
  4 25  1  0  0  0
  5  6  1  0  0  0
  5 11  1  0  0  0
  5 26  1  0  0  0
  6  7  1  0  0  0
  6  8  1  0  0  0
  6 27  1  0  0  0
  7  9  1  0  0  0
  7 28  1  0  0  0
  7 29  1  0  0  0
  8 10  1  0  0  0
  8 30  1  0  0  0
  9 13  1  0  0  0
  9 14  2  0  0  0
 10 31  1  0  0  0
 11 12  2  0  0  0
 11 15  1  0  0  0
M  CHG  3   1   1  13  -1  15  -1
M  END
> <s_m_source_file>
../1xhy_ligand.sdf

> <i_m_source_file_index>
1

> <s_epik_input>
Tz1DKFtPSF0pW0NASF0xW05IMitdW0NIMl1bQ0BIXShbQ0hdKFtDSDNdKVtDSDNdKVtDQEBIXTFbQ0gyXUMoPU8pW09IXQ==

> <s_epik_cmdline>
J2VwaWtfYXBwJywgJy1pbWFlJywgJ2xpZ2FuZF9wcm8ubWFlJywgJy1vbWFlJywgJ2xpZ2FuZF9wcmVwLm1hZScsICctbXMnLCAnMScsICctcGgnLCAnNycsICctcGh0JywgJzAuNScsICctbnQn

> <r_lp_tautomer_probability>
1

> <r_epik_Ionization_Penalty>
  0.0033

> <r_epik_Ionization_Penalty_Charging>
  0.0033

> <r_epik_Ionization_Penalty_Neutral>
  0.0000

> <r_epik_State_Penalty>
 -0.0000

> <r_epik_Charging_Adjusted_Penalty>
0.00333179081107451

> <i_epik_Tot_Q>
-1

> <i_epik_Tot_abs_Q>
3

$$$$
