1xk9_ligand
                    3D
 Schrodinger Suite 2020-3.
 40 42  0  0  1  0            999 V2000
   31.8880    7.6030   18.1380 C   0  0  0  0  0  0
   32.8510    8.7170   18.0680 N   0  3  0  0  0  0
   32.8860    9.4620   19.3360 C   0  0  0  0  0  0
   32.5250    9.6490   16.9080 C   0  0  0  0  0  0
   31.0220   10.0210   16.6150 C   0  0  0  0  0  0
   30.8090   10.7810   15.6490 O   0  0  0  0  0  0
   29.8710    9.5620   17.3270 N   0  0  0  0  0  0
   29.3510    9.3770   18.6130 C   0  0  0  0  0  0
   28.1420    8.5170   18.6140 C   0  0  0  0  0  0
   27.4000    8.1560   19.8490 C   0  0  0  0  0  0
   26.1680    7.3120   19.9000 C   0  0  0  0  0  0
   25.5700    6.7070   18.7210 C   0  0  0  0  0  0
   24.3690    5.8760   18.8090 C   0  0  0  0  0  0
   23.7700    5.6120   20.0600 C   0  0  0  0  0  0
   24.3270    6.1790   21.2490 C   0  0  0  0  0  0
   25.5330    7.0050   21.1970 C   0  0  0  0  0  0
   26.0740    7.5700   22.3840 C   0  0  0  0  0  0
   25.5960    7.3700   23.5060 O   0  0  0  0  0  0
   27.2650    8.3890   22.3100 N   0  0  0  0  0  0
   27.9220    8.6930   21.0770 C   0  0  0  0  0  0
   29.1120    9.5360   21.1150 C   0  0  0  0  0  0
   29.8160    9.8620   19.8810 C   0  0  0  0  0  0
   32.1466    6.9473   18.9825 H   0  0  0  0  0  0
   31.9252    7.0268   17.2017 H   0  0  0  0  0  0
   30.8737    8.0036   18.2820 H   0  0  0  0  0  0
   33.8462    8.2702   17.9267 H   0  0  0  0  0  0
   33.1225    8.7726   20.1599 H   0  0  0  0  0  0
   31.9049    9.9256   19.5161 H   0  0  0  0  0  0
   33.6568   10.2448   19.2802 H   0  0  0  0  0  0
   33.0196   10.6187   17.0666 H   0  0  0  0  0  0
   32.8835    9.2039   15.9681 H   0  0  0  0  0  0
   28.9961    9.1877   16.7753 H   0  0  0  0  0  0
   27.7803    8.1309   17.6610 H   0  0  0  0  0  0
   26.0281    6.8768   17.7466 H   0  0  0  0  0  0
   23.9333    5.4575   17.9017 H   0  0  0  0  0  0
   22.8855    4.9778   20.1194 H   0  0  0  0  0  0
   23.8453    5.9927   22.2089 H   0  0  0  0  0  0
   27.7028    8.8073   23.2284 H   0  0  0  0  0  0
   29.4751    9.9225   22.0673 H   0  0  0  0  0  0
   30.7100   10.4842   19.9220 H   0  0  0  0  0  0
  1  2  1  0  0  0
  1 23  1  0  0  0
  1 24  1  0  0  0
  1 25  1  0  0  0
  2  3  1  0  0  0
  2  4  1  0  0  0
  2 26  1  0  0  0
  3 27  1  0  0  0
  3 28  1  0  0  0
  3 29  1  0  0  0
  4  5  1  0  0  0
  4 30  1  0  0  0
  4 31  1  0  0  0
  5  6  2  0  0  0
  5  7  1  0  0  0
  7  8  1  0  0  0
  7 32  1  0  0  0
  8  9  2  0  0  0
  8 22  1  0  0  0
  9 10  1  0  0  0
  9 33  1  0  0  0
 10 11  1  0  0  0
 10 20  2  0  0  0
 11 12  2  0  0  0
 11 16  1  0  0  0
 12 13  1  0  0  0
 12 34  1  0  0  0
 13 14  2  0  0  0
 13 35  1  0  0  0
 14 15  1  0  0  0
 14 36  1  0  0  0
 15 16  2  0  0  0
 15 37  1  0  0  0
 16 17  1  0  0  0
 17 18  2  0  0  0
 17 19  1  0  0  0
 19 20  1  0  0  0
 19 38  1  0  0  0
 20 21  1  0  0  0
 21 22  2  0  0  0
 21 39  1  0  0  0
 22 40  1  0  0  0
M  CHG  1   2   1
M  END
> <s_m_source_file>
../1xk9_ligand.sdf

> <i_m_source_file_index>
1

> <s_epik_input>
W0NIM11bTkgrXShbQ0gzXSlbQ0gyXUMoPU8pW05IXWMoW2NIXTEpW2NIXVtjSF1jMltuSF1jKD1PKWMoYzNjMTIpW2NIXVtjSF1bY0hdW2NIXTM=

> <s_epik_cmdline>
J2VwaWtfYXBwJywgJy1pbWFlJywgJ2xpZ2FuZF9wcm8ubWFlJywgJy1vbWFlJywgJ2xpZ2FuZF9wcmVwLm1hZScsICctbXMnLCAnMScsICctcGgnLCAnNycsICctcGh0JywgJzAuNScsICctbnQn

> <r_epik_Ionization_Penalty>
  0.0619

> <r_epik_Ionization_Penalty_Charging>
  0.0619

> <r_epik_Ionization_Penalty_Neutral>
  0.0000

> <r_epik_State_Penalty>
  0.0535

> <r_epik_Charging_Adjusted_Penalty>
0.115449930297389

> <i_epik_Tot_Q>
1

> <i_epik_Tot_abs_Q>
1

$$$$
