1xka_ligand
                    3D
 Schrodinger Suite 2020-3.
 54 56  0  0  1  0            999 V2000
    0.5200   16.4390   19.1710 C   0  0  0  0  0  0
    0.0480   15.3010   19.3010 O   0  0  0  0  0  0
    1.6960   16.7720   19.7870 O   0  5  0  0  0  0
   -1.6370   26.0050   17.8390 N   0  3  0  0  0  0
   -2.5080   25.3040   16.9820 C   0  0  0  0  0  0
   -2.5830   23.8980   17.0620 C   0  0  0  0  0  0
   -1.7900   23.1960   17.9930 C   0  0  0  0  0  0
   -0.9130   23.9090   18.8580 C   0  0  0  0  0  0
   -0.8420   25.3070   18.7760 C   0  0  0  0  0  0
   -1.9020   21.7140   18.0390 N   0  0  0  0  0  0
   -0.2300   17.4660   18.2990 C   0  0  1  0  0  0
    0.0960   18.8970   18.7340 C   0  0  0  0  0  0
   -1.2270   19.5940   19.0360 C   0  0  0  0  0  0
   -1.0180   21.1040   19.0560 C   0  0  0  0  0  0
    4.9330   20.3120   10.3410 N   0  0  0  0  0  0
    3.1740   18.8870   10.0250 N   0  3  0  0  0  0
    4.0810   19.4230   10.8170 C   0  0  0  0  0  0
    0.7180   16.7840   14.0710 C   0  0  0  0  0  0
   -0.4850   16.2740   14.6320 C   0  0  0  0  0  0
   -0.7800   16.5030   16.0010 C   0  0  0  0  0  0
    0.1240   17.2410   16.8200 C   0  0  0  0  0  0
    1.3390   17.7560   16.2610 C   0  0  0  0  0  0
    1.6390   17.5290   14.8830 C   0  0  0  0  0  0
    5.3300   18.7330   14.4360 C   0  0  0  0  0  0
    4.1470   18.2120   15.0370 C   0  0  0  0  0  0
    2.9490   18.0890   14.2630 C   0  0  0  0  0  0
    2.9520   18.4890   12.9010 C   0  0  0  0  0  0
    4.1260   19.0050   12.2990 C   0  0  0  0  0  0
    5.3190   19.1300   13.0650 C   0  0  0  0  0  0
   -3.1206   25.8453   16.2610 H   0  0  0  0  0  0
   -3.2566   23.3518   16.4016 H   0  0  0  0  0  0
   -0.2995   23.3709   19.5807 H   0  0  0  0  0  0
   -0.1718   25.8569   19.4368 H   0  0  0  0  0  0
   -2.5477   21.0760   17.4177 H   0  0  0  0  0  0
   -1.3138   17.3303   18.4294 H   0  0  0  0  0  0
    0.7318   18.8716   19.6313 H   0  0  0  0  0  0
    0.6279   19.4148   17.9223 H   0  0  0  0  0  0
   -1.9623   19.3375   18.2591 H   0  0  0  0  0  0
   -1.5998   19.2640   20.0169 H   0  0  0  0  0  0
    0.0300   21.3410   18.8204 H   0  0  0  0  0  0
   -1.2702   21.5047   20.0489 H   0  0  0  0  0  0
    4.8903   20.6019    9.2808 H   0  0  0  0  0  0
    5.6856   20.7628   11.0046 H   0  0  0  0  0  0
    3.1300   19.1760    8.9645 H   0  0  0  0  0  0
    0.9424   16.6085   13.0189 H   0  0  0  0  0  0
   -1.1796   15.7080   14.0113 H   0  0  0  0  0  0
   -1.7032   16.1124   16.4290 H   0  0  0  0  0  0
    2.0322   18.3193   16.8856 H   0  0  0  0  0  0
    6.2431   18.8282   15.0235 H   0  0  0  0  0  0
    4.1546   17.9079   16.0837 H   0  0  0  0  0  0
    2.0399   18.3980   12.3112 H   0  0  0  0  0  0
    6.2233   19.5285   12.6052 H   0  0  0  0  0  0
    2.4610   18.1507   10.4245 H   0  0  0  0  0  0
   -1.5730   27.1016   17.7811 H   0  0  0  0  0  0
  1 11  1  0  0  0
  1  3  1  0  0  0
  1  2  2  0  0  0
  4  5  1  0  0  0
  4  9  2  0  0  0
  4 54  1  0  0  0
  5  6  2  0  0  0
  5 30  1  0  0  0
  6  7  1  0  0  0
  6 31  1  0  0  0
  7 10  1  0  0  0
  7  8  2  0  0  0
  8  9  1  0  0  0
  8 32  1  0  0  0
  9 33  1  0  0  0
 10 14  1  0  0  0
 10 34  1  0  0  0
 11 21  1  0  0  0
 11 12  1  0  0  0
 11 35  1  0  0  0
 12 13  1  0  0  0
 12 36  1  0  0  0
 12 37  1  0  0  0
 13 14  1  0  0  0
 13 38  1  0  0  0
 13 39  1  0  0  0
 14 40  1  0  0  0
 14 41  1  0  0  0
 15 17  1  0  0  0
 15 42  1  0  0  0
 15 43  1  0  0  0
 16 17  2  0  0  0
 16 44  1  0  0  0
 16 53  1  0  0  0
 17 28  1  0  0  0
 18 19  1  0  0  0
 18 23  2  0  0  0
 18 45  1  0  0  0
 19 20  2  0  0  0
 19 46  1  0  0  0
 20 21  1  0  0  0
 20 47  1  0  0  0
 21 22  2  0  0  0
 22 23  1  0  0  0
 22 48  1  0  0  0
 23 26  1  0  0  0
 24 25  2  0  0  0
 24 29  1  0  0  0
 24 49  1  0  0  0
 25 26  1  0  0  0
 25 50  1  0  0  0
 26 27  2  0  0  0
 27 28  1  0  0  0
 27 51  1  0  0  0
 28 29  2  0  0  0
 29 52  1  0  0  0
M  CHG  3   3  -1   4   1  16   1
M  END
> <s_m_source_file>
../1xka_ligand.sdf

> <i_m_source_file_index>
1

> <s_epik_input>
W2NIXTFbY0hdbltjSF1bY0hdYzFbTkhdW0NIMl1bQ0gyXVtDSDJdW0NASF0oQyg9TylbT0hdKWMyW2NIXVtjSF1bY0hdYyhbY0hdMiktYzNbY0hdW2NIXVtjSF1jKFtjSF0zKUMoL1tOSDJdKT1OXFtIXQ==

> <s_epik_cmdline>
J2VwaWtfYXBwJywgJy1pbWFlJywgJ2xpZ2FuZF9wcm8ubWFlJywgJy1vbWFlJywgJ2xpZ2FuZF9wcmVwLm1hZScsICctbXMnLCAnMScsICctcGgnLCAnNycsICctcGh0JywgJzAuNScsICctbnQn

> <r_lp_tautomer_probability>
1

> <r_epik_Ionization_Penalty>
  0.0042

> <r_epik_Ionization_Penalty_Charging>
  0.0042

> <r_epik_Ionization_Penalty_Neutral>
  0.0000

> <r_epik_State_Penalty>
 -0.0000

> <r_epik_Charging_Adjusted_Penalty>
0.00415285878597695

> <i_epik_Tot_Q>
1

> <i_epik_Tot_abs_Q>
3

> <s_epik_Chemistry_Notes>
This compound has an imine and may undergo hydrolysis.

$$$$
