1xlx_ligand
                    3D
 Schrodinger Suite 2020-3.
 49 51  0  0  1  0            999 V2000
    7.9420    4.6870   -6.5890 O   0  5  0  0  0  0
    7.5860    3.4940   -6.9050 C   0  0  0  0  0  0
    8.3870    2.5060   -6.9390 O   0  0  0  0  0  0
    6.1320    3.2870   -7.3190 C   0  0  1  0  0  0
    6.0640    2.7220   -8.7220 C   0  0  0  0  0  0
    4.6350    2.7440   -9.2690 C   0  0  0  0  0  0
    5.3430    2.3310   -6.4460 C   0  0  0  0  0  0
    3.8900    2.3100   -6.9890 C   0  0  0  0  0  0
    3.7010    1.8680   -8.4480 C   0  0  2  0  0  0
    4.1120    0.4820   -8.6500 C   0  0  0  0  0  0
    4.4000   -0.6190   -8.8760 N   0  0  0  0  0  0
    2.2530    1.8440   -8.9660 C   0  0  0  0  0  0
    1.1400    2.1900   -8.1900 C   0  0  0  0  0  0
   -0.1550    2.1250   -8.7190 C   0  0  0  0  0  0
   -0.4000    1.7080  -10.0480 C   0  0  0  0  0  0
   -1.6840    1.6250  -10.6010 O   0  0  0  0  0  0
   -2.8660    1.8650   -9.8090 C   0  0  0  0  0  0
    0.6990    1.3670  -10.8250 C   0  0  0  0  0  0
    2.0010    1.4220  -10.2850 C   0  0  0  0  0  0
    0.4640    0.9490  -12.1020 O   0  0  0  0  0  0
    1.6130    0.8440  -12.9960 C   0  0  0  0  0  0
    1.5100   -0.4340  -13.7600 C   0  0  0  0  0  0
    0.4070   -0.1240  -14.7200 C   0  0  0  0  0  0
    0.4930    1.3530  -14.9750 C   0  0  0  0  0  0
    1.6120    1.8690  -14.1020 C   0  0  0  0  0  0
    5.6785    4.2853   -7.2309 H   0  0  0  0  0  0
    6.7008    3.3209   -9.3897 H   0  0  0  0  0  0
    6.4174    1.6803   -8.7153 H   0  0  0  0  0  0
    4.2498    3.7741   -9.2470 H   0  0  0  0  0  0
    4.6331    2.3739  -10.3049 H   0  0  0  0  0  0
    5.7920    1.3284   -6.5014 H   0  0  0  0  0  0
    5.3625    2.6844   -5.4045 H   0  0  0  0  0  0
    3.2838    1.6166   -6.3876 H   0  0  0  0  0  0
    3.4607    3.3208   -6.9268 H   0  0  0  0  0  0
    1.2836    2.5146   -7.1594 H   0  0  0  0  0  0
   -0.9989    2.4040   -8.0880 H   0  0  0  0  0  0
   -3.7598    1.7475  -10.4393 H   0  0  0  0  0  0
   -2.8347    2.8873   -9.4040 H   0  0  0  0  0  0
   -2.9046    1.1431   -8.9799 H   0  0  0  0  0  0
    2.8425    1.1270  -10.9119 H   0  0  0  0  0  0
    2.4771    0.9461  -12.3230 H   0  0  0  0  0  0
    2.4697   -0.6436  -14.2550 H   0  0  0  0  0  0
    1.2664   -1.2552  -13.0699 H   0  0  0  0  0  0
    0.5546   -0.6989  -15.6461 H   0  0  0  0  0  0
   -0.5587   -0.3964  -14.2693 H   0  0  0  0  0  0
    0.7088    1.5294  -16.0391 H   0  0  0  0  0  0
   -0.4641    1.8269  -14.7115 H   0  0  0  0  0  0
    1.4142    2.8649  -13.6788 H   0  0  0  0  0  0
    2.5922    1.8708  -14.6012 H   0  0  0  0  0  0
  1  2  1  0  0  0
  2  3  2  0  0  0
  2  4  1  0  0  0
  4  5  1  0  0  0
  4  7  1  0  0  0
  4 26  1  0  0  0
  5  6  1  0  0  0
  5 27  1  0  0  0
  5 28  1  0  0  0
  6  9  1  0  0  0
  6 29  1  0  0  0
  6 30  1  0  0  0
  7  8  1  0  0  0
  7 31  1  0  0  0
  7 32  1  0  0  0
  8  9  1  0  0  0
  8 33  1  0  0  0
  8 34  1  0  0  0
  9 10  1  0  0  0
  9 12  1  0  0  0
 10 11  3  0  0  0
 12 13  2  0  0  0
 12 19  1  0  0  0
 13 14  1  0  0  0
 13 35  1  0  0  0
 14 15  2  0  0  0
 14 36  1  0  0  0
 15 16  1  0  0  0
 15 18  1  0  0  0
 16 17  1  0  0  0
 17 37  1  0  0  0
 17 38  1  0  0  0
 17 39  1  0  0  0
 18 19  2  0  0  0
 18 20  1  0  0  0
 19 40  1  0  0  0
 20 21  1  0  0  0
 21 22  1  0  0  0
 21 25  1  0  0  0
 21 41  1  0  0  0
 22 23  1  0  0  0
 22 42  1  0  0  0
 22 43  1  0  0  0
 23 24  1  0  0  0
 23 44  1  0  0  0
 23 45  1  0  0  0
 24 25  1  0  0  0
 24 46  1  0  0  0
 24 47  1  0  0  0
 25 48  1  0  0  0
 25 49  1  0  0  0
M  CHG  1   1  -1
M  END
> <s_m_source_file>
../1xlx_ligand.sdf

> <i_m_source_file_index>
1

> <s_epik_input>
W09IXUMoPU8pW0NASF0oW0NIMl1bQ0gyXTEpW0NIMl1bQ0gyXVtDQF0xKEMjTiljMltjSF1bY0hdYyhPW0NIM10pYyhbY0hdMilPW0NIXTNbQ0gyXVtDSDJdW0NIMl1bQ0gyXTM=

> <s_epik_cmdline>
J2VwaWtfYXBwJywgJy1pbWFlJywgJ2xpZ2FuZF9wcm8ubWFlJywgJy1vbWFlJywgJ2xpZ2FuZF9wcmVwLm1hZScsICctbXMnLCAnMScsICctcGgnLCAnNycsICctcGh0JywgJzAuNScsICctbnQn

> <r_lp_tautomer_probability>
1

> <r_epik_Ionization_Penalty>
  0.0014

> <r_epik_Ionization_Penalty_Charging>
  0.0014

> <r_epik_Ionization_Penalty_Neutral>
  0.0000

> <r_epik_State_Penalty>
 -0.0000

> <r_epik_Charging_Adjusted_Penalty>
0.00140104886150697

> <i_epik_Tot_Q>
-1

> <i_epik_Tot_abs_Q>
1

$$$$
