1xlz_ligand
                    3D
 Schrodinger Suite 2020-3.
 43 44  0  0  1  0            999 V2000
    6.5760    3.1870   -7.0220 O   0  0  0  0  0  0
    6.5170    2.8530   -8.2060 C   0  0  0  0  0  0
    7.4940    2.1760   -8.8220 N   0  0  0  0  0  0
    5.3120    3.2080   -8.9550 O   0  0  0  0  0  0
    4.0190    3.1740   -8.3150 N   0  0  1  0  0  0
    3.3610    1.9280   -7.9340 C   0  0  2  0  0  0
    4.2130    0.7060   -8.2580 C   0  0  0  0  0  0
    2.0380    1.8280   -8.6130 C   0  0  0  0  0  0
    0.8720    2.0680   -7.8950 C   0  0  0  0  0  0
   -0.3680    1.9920   -8.5070 C   0  0  0  0  0  0
   -0.4670    1.6670   -9.8500 C   0  0  0  0  0  0
   -1.6970    1.5790  -10.4530 O   0  0  0  0  0  0
   -2.9020    2.1440   -9.9420 C   0  0  0  0  0  0
    0.7060    1.4250  -10.5830 C   0  0  0  0  0  0
    1.9510    1.5090   -9.9600 C   0  0  0  0  0  0
    0.6080    1.1050  -11.9060 O   0  0  0  0  0  0
    1.7240    1.0960  -12.7980 C   0  0  0  0  0  0
    1.9170   -0.2950  -13.3580 C   0  0  0  0  0  0
    1.0070   -0.3610  -14.5680 C   0  0  0  0  0  0
    0.8700    1.0630  -15.0700 C   0  0  0  0  0  0
    1.3770    1.9720  -13.9680 C   0  0  0  0  0  0
    8.4057    1.9025   -8.2707 H   0  0  0  0  0  0
    7.3850    1.8933   -9.8794 H   0  0  0  0  0  0
    4.1879    3.6334   -7.4201 H   0  0  0  0  0  0
    3.2139    1.9878   -6.8455 H   0  0  0  0  0  0
    5.1855    0.7923   -7.7513 H   0  0  0  0  0  0
    4.3699    0.6462   -9.3451 H   0  0  0  0  0  0
    3.6982   -0.2022   -7.9114 H   0  0  0  0  0  0
    0.9346    2.3193   -6.8362 H   0  0  0  0  0  0
   -1.2708    2.1889   -7.9289 H   0  0  0  0  0  0
   -3.7320    1.9196  -10.6281 H   0  0  0  0  0  0
   -2.7860    3.2341   -9.8510 H   0  0  0  0  0  0
   -3.1177    1.7143   -8.9526 H   0  0  0  0  0  0
    2.8590    1.3233  -10.5338 H   0  0  0  0  0  0
    2.5952    1.4431  -12.2231 H   0  0  0  0  0  0
    2.9721   -0.4353  -13.6356 H   0  0  0  0  0  0
    1.6359   -1.0386  -12.5977 H   0  0  0  0  0  0
    1.4602   -1.0089  -15.3327 H   0  0  0  0  0  0
    0.0309   -0.7721  -14.2708 H   0  0  0  0  0  0
    1.4690    1.1888  -15.9840 H   0  0  0  0  0  0
   -0.1866    1.2734  -15.2922 H   0  0  0  0  0  0
    0.5998    2.6910  -13.6699 H   0  0  0  0  0  0
    2.2741    2.5171  -14.2967 H   0  0  0  0  0  0
  1  2  2  0  0  0
  2  3  1  0  0  0
  2  4  1  0  0  0
  3 22  1  0  0  0
  3 23  1  0  0  0
  4  5  1  0  0  0
  5  6  1  0  0  0
  5 24  1  0  0  0
  6  7  1  0  0  0
  6  8  1  0  0  0
  6 25  1  0  0  0
  7 26  1  0  0  0
  7 27  1  0  0  0
  7 28  1  0  0  0
  8  9  2  0  0  0
  8 15  1  0  0  0
  9 10  1  0  0  0
  9 29  1  0  0  0
 10 11  2  0  0  0
 10 30  1  0  0  0
 11 12  1  0  0  0
 11 14  1  0  0  0
 12 13  1  0  0  0
 13 31  1  0  0  0
 13 32  1  0  0  0
 13 33  1  0  0  0
 14 15  2  0  0  0
 14 16  1  0  0  0
 15 34  1  0  0  0
 16 17  1  0  0  0
 17 18  1  0  0  0
 17 21  1  0  0  0
 17 35  1  0  0  0
 18 19  1  0  0  0
 18 36  1  0  0  0
 18 37  1  0  0  0
 19 20  1  0  0  0
 19 38  1  0  0  0
 19 39  1  0  0  0
 20 21  1  0  0  0
 20 40  1  0  0  0
 20 41  1  0  0  0
 21 42  1  0  0  0
 21 43  1  0  0  0
M  END
> <s_m_source_file>
../1xlz_ligand.sdf

> <i_m_source_file_index>
1

> <s_epik_input>
Tz1DKFtOSDJdKU9bTkgyK11bQ0BIXShbQ0gzXSljMVtjSF1bY0hdYyhPW0NIM10pYyhbY0hdMSlPW0NIXTJbQ0gyXVtDSDJdW0NIMl1bQ0gyXTI=

> <s_epik_cmdline>
J2VwaWtfYXBwJywgJy1pbWFlJywgJ2xpZ2FuZF9wcm8ubWFlJywgJy1vbWFlJywgJ2xpZ2FuZF9wcmVwLm1hZScsICctbXMnLCAnMScsICctcGgnLCAnNycsICctcGh0JywgJzAuNScsICctbnQn

> <r_lp_tautomer_probability>
1

> <r_epik_Ionization_Penalty>
  0.0000

> <r_epik_Ionization_Penalty_Charging>
  0.0000

> <r_epik_Ionization_Penalty_Neutral>
  0.0000

> <r_epik_State_Penalty>
 -0.0000

> <r_epik_Charging_Adjusted_Penalty>
0

> <i_epik_Tot_Q>
0

> <i_epik_Tot_abs_Q>
0

> <s_epik_Chemistry_Notes>
This compound has a N-S or N-O group and may undergo hydrolysis at high or low pH.

$$$$
