1xm4_ligand
                    3D
 Schrodinger Suite 2020-3.
 43 45  0  0  1  0            999 V2000
   84.2230    4.1420   62.1940 Cl  0  0  0  0  0  0
   83.7590    3.1500   60.8640 C   0  0  0  0  0  0
   82.4610    3.2340   60.4140 C   0  0  0  0  0  0
   82.1200    2.4890   59.3530 N   0  0  0  0  0  0
   83.0170    1.6920   58.7430 C   0  0  0  0  0  0
   84.3220    1.6080   59.2090 C   0  0  0  0  0  0
   85.4620    0.5040   58.4430 Cl  0  0  0  0  0  0
   84.7170    2.3150   60.3070 C   0  0  0  0  0  0
   86.0210    2.2750   60.8080 N   0  0  0  0  0  0
   86.2890    1.8620   62.0590 C   0  0  0  0  0  0
   85.4190    1.5040   62.8300 O   0  0  0  0  0  0
   87.6950    1.9120   62.5860 C   0  0  0  0  0  0
   88.7810    2.2920   61.7990 C   0  0  0  0  0  0
   90.0540    2.3500   62.3450 C   0  0  0  0  0  0
   90.2810    2.0350   63.6840 C   0  0  0  0  0  0
   91.5310    2.0800   64.3100 O   0  0  0  0  0  0
   92.7290    2.3910   63.5910 C   0  0  0  0  0  0
   89.2070    1.6580   64.4510 C   0  0  0  0  0  0
   87.9190    1.5910   63.9060 C   0  0  0  0  0  0
   89.4720    1.3550   65.7500 O   0  0  0  0  0  0
   88.4730    0.7980   66.6020 C   0  0  0  0  0  0
   87.4590    1.8730   66.9680 C   0  0  0  0  0  0
   87.9550    2.4290   68.2830 C   0  0  0  0  0  0
   88.6440    1.2750   68.9620 C   0  0  0  0  0  0
   89.1190    0.3490   67.8870 C   0  0  0  0  0  0
   81.7355    3.8838   60.9034 H   0  0  0  0  0  0
   82.7157    1.1066   57.8743 H   0  0  0  0  0  0
   86.8637    2.5870   60.1736 H   0  0  0  0  0  0
   88.6286    2.5447   60.7497 H   0  0  0  0  0  0
   90.8929    2.6474   61.7158 H   0  0  0  0  0  0
   93.5862    2.3691   64.2800 H   0  0  0  0  0  0
   92.6406    3.3937   63.1474 H   0  0  0  0  0  0
   92.8808    1.6492   62.7931 H   0  0  0  0  0  0
   87.0838    1.2811   64.5341 H   0  0  0  0  0  0
   88.0283   -0.0357   66.0389 H   0  0  0  0  0  0
   87.4376    2.6403   66.1801 H   0  0  0  0  0  0
   86.4618    1.4188   67.0646 H   0  0  0  0  0  0
   88.6501    3.2597   68.0910 H   0  0  0  0  0  0
   87.1009    2.7943   68.8721 H   0  0  0  0  0  0
   89.4929    1.6506   69.5522 H   0  0  0  0  0  0
   87.9329    0.7633   69.6272 H   0  0  0  0  0  0
   88.8195   -0.6866   68.1056 H   0  0  0  0  0  0
   90.2130    0.4005   67.7849 H   0  0  0  0  0  0
  1  2  1  0  0  0
  2  3  2  0  0  0
  2  8  1  0  0  0
  3  4  1  0  0  0
  3 26  1  0  0  0
  4  5  2  0  0  0
  5  6  1  0  0  0
  5 27  1  0  0  0
  6  7  1  0  0  0
  6  8  2  0  0  0
  8  9  1  0  0  0
  9 10  1  0  0  0
  9 28  1  0  0  0
 10 11  2  0  0  0
 10 12  1  0  0  0
 12 13  2  0  0  0
 12 19  1  0  0  0
 13 14  1  0  0  0
 13 29  1  0  0  0
 14 15  2  0  0  0
 14 30  1  0  0  0
 15 16  1  0  0  0
 15 18  1  0  0  0
 16 17  1  0  0  0
 17 31  1  0  0  0
 17 32  1  0  0  0
 17 33  1  0  0  0
 18 19  2  0  0  0
 18 20  1  0  0  0
 19 34  1  0  0  0
 20 21  1  0  0  0
 21 22  1  0  0  0
 21 25  1  0  0  0
 21 35  1  0  0  0
 22 23  1  0  0  0
 22 36  1  0  0  0
 22 37  1  0  0  0
 23 24  1  0  0  0
 23 38  1  0  0  0
 23 39  1  0  0  0
 24 25  1  0  0  0
 24 40  1  0  0  0
 24 41  1  0  0  0
 25 42  1  0  0  0
 25 43  1  0  0  0
M  END
> <s_m_source_file>
../1xm4_ligand.sdf

> <i_m_source_file_index>
1

> <s_epik_input>
Q2xjMVtjSF1uW2NIXWMoQ2wpYzFbTkhdQyg9TyljMltjSF1bY0hdYyhPW0NIM10pYyhbY0hdMilPW0NIXTNbQ0gyXVtDSDJdW0NIMl1bQ0gyXTM=

> <s_epik_cmdline>
J2VwaWtfYXBwJywgJy1pbWFlJywgJ2xpZ2FuZF9wcm8ubWFlJywgJy1vbWFlJywgJ2xpZ2FuZF9wcmVwLm1hZScsICctbXMnLCAnMScsICctcGgnLCAnNycsICctcGh0JywgJzAuNScsICctbnQn

> <r_lp_tautomer_probability>
1

> <r_epik_Ionization_Penalty>
  0.0008

> <r_epik_Ionization_Penalty_Charging>
  0.0000

> <r_epik_Ionization_Penalty_Neutral>
  0.0008

> <r_epik_State_Penalty>
 -0.0000

> <r_epik_Charging_Adjusted_Penalty>
0

> <i_epik_Tot_Q>
0

> <i_epik_Tot_abs_Q>
0

$$$$
