1xm6_ligand
                    3D
 Schrodinger Suite 2020-3.
 38 39  0  0  1  0            999 V2000
   50.7850    2.2010  -10.0540 O   0  0  0  0  0  0
   49.7650    2.4050   -9.3980 C   0  0  0  0  0  0
   48.9710    1.2920   -8.9670 O   0  0  0  0  0  0
   49.5030    3.4380   -8.5800 N   0  0  0  0  0  0
   48.4580    3.1390   -7.6190 C   0  0  0  0  0  0
   47.9970    1.7310   -8.0280 C   0  0  2  0  0  0
   48.0490    0.7240   -6.8730 C   0  0  0  0  0  0
   46.6100    1.7270   -8.6360 C   0  0  0  0  0  0
   45.5100    2.1740   -7.8950 C   0  0  0  0  0  0
   44.2280    2.1600   -8.4410 C   0  0  0  0  0  0
   44.0260    1.6590   -9.7300 C   0  0  0  0  0  0
   42.7850    1.6190  -10.3080 O   0  0  0  0  0  0
   41.5840    2.1170   -9.7040 C   0  0  0  0  0  0
   45.1160    1.2070  -10.4870 C   0  0  0  0  0  0
   46.3930    1.2410   -9.9260 C   0  0  0  0  0  0
   44.8880    0.7470  -11.7810 O   0  0  0  0  0  0
   45.9050    0.1950  -12.6180 C   0  0  0  0  0  0
   45.3630    0.0630  -14.0400 C   0  0  0  0  0  0
   45.1150    1.4450  -14.5960 C   0  0  0  0  0  0
   49.9843    4.4271   -8.5792 H   0  0  0  0  0  0
   48.8764    3.1662   -6.6020 H   0  0  0  0  0  0
   47.6556    3.8864   -7.7054 H   0  0  0  0  0  0
   49.0559    0.7256   -6.4302 H   0  0  0  0  0  0
   47.8171   -0.2819   -7.2529 H   0  0  0  0  0  0
   47.3112    1.0059   -6.1073 H   0  0  0  0  0  0
   45.6580    2.5376   -6.8781 H   0  0  0  0  0  0
   43.3845    2.5390   -7.8640 H   0  0  0  0  0  0
   40.7365    1.9568  -10.3868 H   0  0  0  0  0  0
   41.6939    3.1927   -9.5021 H   0  0  0  0  0  0
   41.4000    1.5836   -8.7597 H   0  0  0  0  0  0
   47.2404    0.8797  -10.5086 H   0  0  0  0  0  0
   46.7820    0.8590  -12.6159 H   0  0  0  0  0  0
   46.1945   -0.7960  -12.2383 H   0  0  0  0  0  0
   46.0987   -0.4641  -14.6653 H   0  0  0  0  0  0
   44.4219   -0.5063  -14.0224 H   0  0  0  0  0  0
   44.7240    1.3631  -15.6209 H   0  0  0  0  0  0
   46.0585    2.0103  -14.6075 H   0  0  0  0  0  0
   44.3818    1.9681  -13.9645 H   0  0  0  0  0  0
  1  2  2  0  0  0
  2  3  1  0  0  0
  2  4  1  0  0  0
  3  6  1  0  0  0
  4  5  1  0  0  0
  4 20  1  0  0  0
  5  6  1  0  0  0
  5 21  1  0  0  0
  5 22  1  0  0  0
  6  7  1  0  0  0
  6  8  1  0  0  0
  7 23  1  0  0  0
  7 24  1  0  0  0
  7 25  1  0  0  0
  8  9  2  0  0  0
  8 15  1  0  0  0
  9 10  1  0  0  0
  9 26  1  0  0  0
 10 11  2  0  0  0
 10 27  1  0  0  0
 11 12  1  0  0  0
 11 14  1  0  0  0
 12 13  1  0  0  0
 13 28  1  0  0  0
 13 29  1  0  0  0
 13 30  1  0  0  0
 14 15  2  0  0  0
 14 16  1  0  0  0
 15 31  1  0  0  0
 16 17  1  0  0  0
 17 18  1  0  0  0
 17 32  1  0  0  0
 17 33  1  0  0  0
 18 19  1  0  0  0
 18 34  1  0  0  0
 18 35  1  0  0  0
 19 36  1  0  0  0
 19 37  1  0  0  0
 19 38  1  0  0  0
M  END
> <s_m_source_file>
../1xm6_ligand.sdf

> <i_m_source_file_index>
1

> <s_epik_input>
W0NIMl0xW05IXUMoPU8pT1tDQF0xKFtDSDNdKWMyW2NIXVtjSF1jKE9bQ0gzXSljKFtjSF0yKU9bQ0gyXVtDSDJdW0NIM10=

> <s_epik_cmdline>
J2VwaWtfYXBwJywgJy1pbWFlJywgJ2xpZ2FuZF9wcm8ubWFlJywgJy1vbWFlJywgJ2xpZ2FuZF9wcmVwLm1hZScsICctbXMnLCAnMScsICctcGgnLCAnNycsICctcGh0JywgJzAuNScsICctbnQn

> <r_lp_tautomer_probability>
1

> <r_epik_Ionization_Penalty>
  0.0000

> <r_epik_Ionization_Penalty_Charging>
  0.0000

> <r_epik_Ionization_Penalty_Neutral>
  0.0000

> <r_epik_State_Penalty>
 -0.0000

> <r_epik_Charging_Adjusted_Penalty>
0

> <i_epik_Tot_Q>
0

> <i_epik_Tot_abs_Q>
0

> <s_epik_Chemistry_Notes>
This compound has an ester and may undergo hydrolysis at high or low pH.

$$$$
