1xmu_ligand
                    3D
 Schrodinger Suite 2020-3.
 40 42  0  0  1  0            999 V2000
    4.4280    0.3650   41.8850 O   0  0  0  0  0  0
    2.3910   -0.5140   35.5470 C   0  0  0  0  0  0
    1.0160    0.1900   35.6830 C   0  0  0  0  0  0
    1.4290   -0.8940   36.6280 C   0  0  0  0  0  0
    3.5200    0.7620   42.5870 C   0  0  0  0  0  0
    2.1230    0.7120   42.0010 C   0  0  0  0  0  0
    0.9830    1.0520   42.7430 C   0  0  0  0  0  0
   -0.2920    1.0000   42.1920 C   0  0  0  0  0  0
   -0.4750    0.5980   40.8680 C   0  0  0  0  0  0
   -1.7080    0.5380   40.2430 O   0  0  0  0  0  0
   -2.9620    0.7270   40.8870 C   0  0  0  0  0  0
   -3.0240   -0.1500   41.9380 F   0  0  0  0  0  0
   -3.0500    2.0240   41.3060 F   0  0  0  0  0  0
    0.7300    0.2320   40.0710 C   0  0  0  0  0  0
    0.5840   -0.1420   38.7530 O   0  0  0  0  0  0
    1.4790   -1.0570   38.1150 C   0  0  0  0  0  0
    1.9840    0.3080   40.6860 C   0  0  0  0  0  0
    3.7290    1.2440   43.8220 N   0  0  0  0  0  0
    4.9740    1.3930   44.3390 C   0  0  0  0  0  0
    6.0470    2.2670   43.7880 C   0  0  0  0  0  0
    5.7890    3.2470   42.4060 Cl  0  0  0  0  0  0
    7.2800    2.3210   44.4270 C   0  0  0  0  0  0
    7.5270    1.6060   45.5450 N   0  0  0  0  0  0
    6.6240    0.7910   46.1170 C   0  0  0  0  0  0
    5.3540    0.6450   45.5710 C   0  0  0  0  0  0
    4.2390   -0.4060   46.3360 Cl  0  0  0  0  0  0
    2.4595   -0.9974   34.5613 H   0  0  0  0  0  0
    3.1953    0.2297   35.6473 H   0  0  0  0  0  0
    1.1700    1.2666   35.8477 H   0  0  0  0  0  0
    0.4343    0.0396   34.7616 H   0  0  0  0  0  0
    0.9984   -1.8292   37.0154 H   0  0  0  0  0  0
    1.0998    1.3657   43.7803 H   0  0  0  0  0  0
   -1.1551    1.2751   42.7982 H   0  0  0  0  0  0
   -3.8307    0.5452   40.2371 H   0  0  0  0  0  0
    1.1879   -2.0838   38.3813 H   0  0  0  0  0  0
    2.5013   -0.8617   38.4711 H   0  0  0  0  0  0
    2.8734    0.0422   40.1146 H   0  0  0  0  0  0
    2.8745    1.5334   44.4513 H   0  0  0  0  0  0
    8.0655    2.9552   44.0160 H   0  0  0  0  0  0
    6.8903    0.2389   47.0183 H   0  0  0  0  0  0
  1  5  2  0  0  0
  2  3  1  0  0  0
  2  4  1  0  0  0
  2 27  1  0  0  0
  2 28  1  0  0  0
  3  4  1  0  0  0
  3 29  1  0  0  0
  3 30  1  0  0  0
  4 16  1  0  0  0
  4 31  1  0  0  0
  5  6  1  0  0  0
  5 18  1  0  0  0
  6  7  2  0  0  0
  6 17  1  0  0  0
  7  8  1  0  0  0
  7 32  1  0  0  0
  8  9  2  0  0  0
  8 33  1  0  0  0
  9 10  1  0  0  0
  9 14  1  0  0  0
 10 11  1  0  0  0
 11 12  1  0  0  0
 11 13  1  0  0  0
 11 34  1  0  0  0
 14 15  1  0  0  0
 14 17  2  0  0  0
 15 16  1  0  0  0
 16 35  1  0  0  0
 16 36  1  0  0  0
 17 37  1  0  0  0
 18 19  1  0  0  0
 18 38  1  0  0  0
 19 20  2  0  0  0
 19 25  1  0  0  0
 20 21  1  0  0  0
 20 22  1  0  0  0
 22 23  2  0  0  0
 22 39  1  0  0  0
 23 24  1  0  0  0
 24 25  2  0  0  0
 24 40  1  0  0  0
 25 26  1  0  0  0
M  END
> <s_m_source_file>
../1xmu_ligand.sdf

> <i_m_source_file_index>
1

> <s_epik_input>
Q2xjMVtjSF1uW2NIXWMoQ2wpYzFbTkhdQyg9TyljMltjSF1bY0hdYyhPW0NIXShGKUYpYyhbY0hdMilPW0NIMl1bQ0hdM1tDSDJdW0NIMl0z

> <s_epik_cmdline>
J2VwaWtfYXBwJywgJy1pbWFlJywgJ2xpZ2FuZF9wcm8ubWFlJywgJy1vbWFlJywgJ2xpZ2FuZF9wcmVwLm1hZScsICctbXMnLCAnMScsICctcGgnLCAnNycsICctcGh0JywgJzAuNScsICctbnQn

> <r_lp_tautomer_probability>
1

> <r_epik_Ionization_Penalty>
  0.0014

> <r_epik_Ionization_Penalty_Charging>
  0.0000

> <r_epik_Ionization_Penalty_Neutral>
  0.0014

> <r_epik_State_Penalty>
 -0.0000

> <r_epik_Charging_Adjusted_Penalty>
0

> <i_epik_Tot_Q>
0

> <i_epik_Tot_abs_Q>
0

$$$$
