1xmy_ligand
                    3D
 Schrodinger Suite 2020-3.
 41 43  0  0  1  0            999 V2000
   42.7690    1.9210   61.6930 C   0  0  0  0  0  0
   42.8690    1.6580   63.0710 C   0  0  0  0  0  0
   44.1190    1.4740   63.7140 C   0  0  0  0  0  0
   45.2880    1.5110   62.9460 C   0  0  0  0  0  0
   45.1830    1.7440   61.5780 C   0  0  0  0  0  0
   43.9520    1.9370   60.9670 C   0  0  0  0  0  0
   41.4730    2.1000   60.8260 C   0  0  1  0  0  0
   40.4790    1.0970   61.4040 C   0  0  0  0  0  0
   39.7570    2.0300   62.2930 C   0  0  0  0  0  0
   38.9610    1.6460   63.1230 O   0  0  0  0  0  0
   40.1640    3.2950   62.0950 N   0  0  0  0  0  0
   40.9230    3.5040   60.8930 C   0  0  0  0  0  0
   44.2790    1.2380   65.1040 O   0  0  0  0  0  0
   43.1130    1.3130   65.9190 C   0  0  0  0  0  0
   42.5890   -0.0590   66.3550 C   0  0  0  0  0  0
   42.6170    0.0890   67.9000 C   0  0  0  0  0  0
   43.9760    0.7200   68.1660 C   0  0  0  0  0  0
   43.9160    1.8620   67.1350 C   0  0  0  0  0  0
   46.5620    1.3250   63.5180 O   0  0  0  0  0  0
   47.7590    1.9950   63.0260 C   0  0  0  0  0  0
   41.9563    1.5936   63.6635 H   0  0  0  0  0  0
   46.0887    1.7756   60.9723 H   0  0  0  0  0  0
   43.9131    2.1053   59.8908 H   0  0  0  0  0  0
   41.6492    1.9423   59.7517 H   0  0  0  0  0  0
   39.8759    0.6680   60.5902 H   0  0  0  0  0  0
   41.0262    0.2930   61.9179 H   0  0  0  0  0  0
   39.9584    4.1393   62.7695 H   0  0  0  0  0  0
   41.7545    4.2204   60.9668 H   0  0  0  0  0  0
   40.3388    3.7127   59.9846 H   0  0  0  0  0  0
   42.2747    1.8340   65.4334 H   0  0  0  0  0  0
   41.5789   -0.2122   65.9473 H   0  0  0  0  0  0
   43.2599   -0.8447   65.9774 H   0  0  0  0  0  0
   41.7846    0.7320   68.2219 H   0  0  0  0  0  0
   42.5155   -0.9026   68.3653 H   0  0  0  0  0  0
   44.0265    1.0541   69.2128 H   0  0  0  0  0  0
   44.7672   -0.0209   67.9790 H   0  0  0  0  0  0
   44.9255    2.1510   66.8074 H   0  0  0  0  0  0
   43.3994    2.7404   67.5491 H   0  0  0  0  0  0
   48.6250    1.6903   63.6320 H   0  0  0  0  0  0
   47.6255    3.0844   63.0988 H   0  0  0  0  0  0
   47.9299    1.7159   61.9758 H   0  0  0  0  0  0
  1  2  2  0  0  0
  1  6  1  0  0  0
  1  7  1  0  0  0
  2  3  1  0  0  0
  2 21  1  0  0  0
  3  4  2  0  0  0
  3 13  1  0  0  0
  4  5  1  0  0  0
  4 19  1  0  0  0
  5  6  2  0  0  0
  5 22  1  0  0  0
  6 23  1  0  0  0
  7  8  1  0  0  0
  7 12  1  0  0  0
  7 24  1  0  0  0
  8  9  1  0  0  0
  8 25  1  0  0  0
  8 26  1  0  0  0
  9 10  2  0  0  0
  9 11  1  0  0  0
 11 12  1  0  0  0
 11 27  1  0  0  0
 12 28  1  0  0  0
 12 29  1  0  0  0
 13 14  1  0  0  0
 14 15  1  0  0  0
 14 18  1  0  0  0
 14 30  1  0  0  0
 15 16  1  0  0  0
 15 31  1  0  0  0
 15 32  1  0  0  0
 16 17  1  0  0  0
 16 33  1  0  0  0
 16 34  1  0  0  0
 17 18  1  0  0  0
 17 35  1  0  0  0
 17 36  1  0  0  0
 18 37  1  0  0  0
 18 38  1  0  0  0
 19 20  1  0  0  0
 20 39  1  0  0  0
 20 40  1  0  0  0
 20 41  1  0  0  0
M  END
> <s_m_source_file>
../1xmy_ligand.sdf

> <i_m_source_file_index>
1

> <s_epik_input>
W0NIMl0xW05IXUMoPU8pW0NIMl1bQ0BASF0xYzJbY0hdYyhjKFtjSF1bY0hdMilPW0NIM10pT1tDSF0zW0NIMl1bQ0gyXVtDSDJdW0NIMl0z

> <s_epik_cmdline>
J2VwaWtfYXBwJywgJy1pbWFlJywgJ2xpZ2FuZF9wcm8ubWFlJywgJy1vbWFlJywgJ2xpZ2FuZF9wcmVwLm1hZScsICctbXMnLCAnMScsICctcGgnLCAnNycsICctcGh0JywgJzAuNScsICctbnQn

> <r_lp_tautomer_probability>
1

> <r_epik_Ionization_Penalty>
  0.0000

> <r_epik_Ionization_Penalty_Charging>
  0.0000

> <r_epik_Ionization_Penalty_Neutral>
  0.0000

> <r_epik_State_Penalty>
 -0.0000

> <r_epik_Charging_Adjusted_Penalty>
0

> <i_epik_Tot_Q>
0

> <i_epik_Tot_abs_Q>
0

$$$$
