1xn0_ligand
                    3D
 Schrodinger Suite 2020-3.
 41 43  0  0  1  0            999 V2000
    5.4350    4.4550   -9.1140 O   0  0  0  0  0  0
    4.7820    3.4790   -8.8130 C   0  0  0  0  0  0
    3.8900    3.4670   -7.6060 C   0  0  0  0  0  0
    5.0870    2.2080   -9.1200 N   0  0  0  0  0  0
    4.5170    1.2500   -8.1990 C   0  0  0  0  0  0
    3.3570    2.0860   -7.6230 C   0  0  2  0  0  0
    2.0360    2.0080   -8.4080 C   0  0  0  0  0  0
    1.9810    1.7080   -9.7740 C   0  0  0  0  0  0
    0.7420    1.6530  -10.4530 C   0  0  0  0  0  0
   -0.4540    1.9000   -9.7610 C   0  0  0  0  0  0
   -0.3980    2.1990   -8.4010 C   0  0  0  0  0  0
    0.8330    2.2510   -7.7370 C   0  0  0  0  0  0
   -1.6640    1.8410  -10.4500 O   0  0  0  0  0  0
   -2.9050    2.4230   -9.9950 C   0  0  0  0  0  0
    0.6660    1.3550  -11.8140 O   0  0  0  0  0  0
    1.9460    1.3530  -12.5160 C   0  0  0  0  0  0
    1.3500    1.9260  -13.6350 C   0  0  0  0  0  0
    0.9090    0.8220  -14.6110 C   0  0  0  0  0  0
    1.2550   -0.4810  -13.8590 C   0  0  0  0  0  0
    2.3830   -0.0700  -12.8790 C   0  0  0  0  0  0
    4.4858    3.6858   -6.7076 H   0  0  0  0  0  0
    3.1066    4.2306   -7.7214 H   0  0  0  0  0  0
    5.6990    1.8611   -9.9656 H   0  0  0  0  0  0
    4.1915    0.3574   -8.7533 H   0  0  0  0  0  0
    5.2734    0.9631   -7.4536 H   0  0  0  0  0  0
    3.0788    1.7367   -6.6177 H   0  0  0  0  0  0
    2.9039    1.5145  -10.3207 H   0  0  0  0  0  0
   -1.3187    2.3936   -7.8509 H   0  0  0  0  0  0
    0.8547    2.4862   -6.6729 H   0  0  0  0  0  0
   -3.6955    2.2248  -10.7338 H   0  0  0  0  0  0
   -2.7786    3.5092   -9.8757 H   0  0  0  0  0  0
   -3.1861    1.9783   -9.0290 H   0  0  0  0  0  0
    2.8047    1.8590  -12.0506 H   0  0  0  0  0  0
    0.4711    2.5097  -13.3239 H   0  0  0  0  0  0
    2.0713    2.5883  -14.1360 H   0  0  0  0  0  0
   -0.1686    0.9175  -14.8100 H   0  0  0  0  0  0
    1.4663    0.9222  -15.5541 H   0  0  0  0  0  0
    0.3628   -0.8468  -13.3297 H   0  0  0  0  0  0
    1.5918   -1.2415  -14.5789 H   0  0  0  0  0  0
    3.3799   -0.0403  -13.3429 H   0  0  0  0  0  0
    2.4207   -0.6856  -11.9682 H   0  0  0  0  0  0
  1  2  2  0  0  0
  2  3  1  0  0  0
  2  4  1  0  0  0
  3  6  1  0  0  0
  3 21  1  0  0  0
  3 22  1  0  0  0
  4  5  1  0  0  0
  4 23  1  0  0  0
  5  6  1  0  0  0
  5 24  1  0  0  0
  5 25  1  0  0  0
  6  7  1  0  0  0
  6 26  1  0  0  0
  7  8  2  0  0  0
  7 12  1  0  0  0
  8  9  1  0  0  0
  8 27  1  0  0  0
  9 10  2  0  0  0
  9 15  1  0  0  0
 10 11  1  0  0  0
 10 13  1  0  0  0
 11 12  2  0  0  0
 11 28  1  0  0  0
 12 29  1  0  0  0
 13 14  1  0  0  0
 14 30  1  0  0  0
 14 31  1  0  0  0
 14 32  1  0  0  0
 15 16  1  0  0  0
 16 17  1  0  0  0
 16 20  1  0  0  0
 16 33  1  0  0  0
 17 18  1  0  0  0
 17 34  1  0  0  0
 17 35  1  0  0  0
 18 19  1  0  0  0
 18 36  1  0  0  0
 18 37  1  0  0  0
 19 20  1  0  0  0
 19 38  1  0  0  0
 19 39  1  0  0  0
 20 40  1  0  0  0
 20 41  1  0  0  0
M  END
> <s_m_source_file>
../1xn0_ligand.sdf

> <i_m_source_file_index>
1

> <s_epik_input>
Tz1DMVtDSDJdW0NASF0oW0NIMl1bTkhdMSljMltjSF1jKGMoW2NIXVtjSF0yKU9bQ0gzXSlPW0NIXTNbQ0gyXVtDSDJdW0NIMl1bQ0gyXTM=

> <s_epik_cmdline>
J2VwaWtfYXBwJywgJy1pbWFlJywgJ2xpZ2FuZF9wcm8ubWFlJywgJy1vbWFlJywgJ2xpZ2FuZF9wcmVwLm1hZScsICctbXMnLCAnMScsICctcGgnLCAnNycsICctcGh0JywgJzAuNScsICctbnQn

> <r_lp_tautomer_probability>
1

> <r_epik_Ionization_Penalty>
  0.0000

> <r_epik_Ionization_Penalty_Charging>
  0.0000

> <r_epik_Ionization_Penalty_Neutral>
  0.0000

> <r_epik_State_Penalty>
 -0.0000

> <r_epik_Charging_Adjusted_Penalty>
0

> <i_epik_Tot_Q>
0

> <i_epik_Tot_abs_Q>
0

$$$$
