1xn3_ligand
                    3D
 Schrodinger Suite 2020-3.
236236  0  0  1  0            999 V2000
   13.9050   70.0070   19.5250 N   0  3  0  0  0  0
   14.3590   70.9760   20.5730 C   0  0  2  0  0  0
   13.3170   71.0870   21.6970 C   0  0  0  0  0  0
   12.4160   70.2450   21.7990 O   0  0  0  0  0  0
   14.6000   72.3580   19.9450 C   0  0  0  0  0  0
   15.6940   72.4030   18.8710 C   0  0  0  0  0  0
   15.3250   71.5780   17.6490 C   0  0  0  0  0  0
   16.3910   71.6630   16.5780 C   0  0  0  0  0  0
   16.0490   70.7890   15.4220 N   0  3  0  0  0  0
   13.4490   72.1180   22.5380 N   0  0  0  0  0  0
   12.5200   72.3480   23.6560 C   0  0  2  0  0  0
   12.5700   73.8030   24.1780 C   0  0  0  0  0  0
   11.7500   74.1980   25.0200 O   0  0  0  0  0  0
   12.8150   71.3830   24.8570 C   0  0  2  0  0  0
   12.8620   70.0240   24.3970 O   0  0  0  0  0  0
   11.7210   71.4960   25.9140 C   0  0  0  0  0  0
   13.5260   74.5890   23.6720 N   0  0  0  0  0  0
   13.7160   75.9950   24.0760 C   0  0  2  0  0  0
   12.6180   76.9400   23.5650 C   0  0  0  0  0  0
   12.4250   77.0780   22.3510 O   0  0  0  0  0  0
   15.0760   76.5100   23.5760 C   0  0  0  0  0  0
   16.2770   75.6390   23.9510 C   0  0  0  0  0  0
   17.6080   76.2080   23.4510 C   0  0  0  0  0  0
   17.9270   77.3710   23.7980 O   0  0  0  0  0  0
   18.3350   75.4940   22.7180 O   0  0  0  0  0  0
   11.9130   77.6010   24.4860 N   0  0  0  0  0  0
   10.8440   78.5270   24.1040 C   0  0  2  0  0  0
   10.4490   79.5570   25.1670 C   0  0  0  0  0  0
   10.4280   79.2660   26.3680 O   0  0  0  0  0  0
    9.5960   77.7480   23.6550 C   0  0  0  0  0  0
    9.3770   76.3910   24.3340 C   0  0  0  0  0  0
    9.2730   76.4770   25.8450 C   0  0  0  0  0  0
    8.4740   77.3030   26.3350 O   0  0  0  0  0  0
    9.9800   75.7080   26.5390 O   0  0  0  0  0  0
   10.1260   80.7590   24.6920 N   0  0  0  0  0  0
    9.7230   81.8910   25.5240 C   0  0  2  0  0  0
    8.2030   81.8810   25.7270 C   0  0  0  0  0  0
    7.4420   81.6760   24.7720 O   0  0  0  0  0  0
   10.1420   83.2020   24.8370 C   0  0  2  0  0  0
   11.6620   83.2020   24.6600 C   0  0  0  0  0  0
    9.6580   84.3970   25.6390 C   0  0  0  0  0  0
   12.1690   84.1250   23.5780 C   0  0  0  0  0  0
    7.7620   82.1260   26.9600 N   0  0  0  0  0  0
    6.3360   82.1000   27.2750 C   0  0  2  0  0  0
    5.7390   83.4600   27.6720 C   0  0  0  0  0  0
    6.4520   84.4410   27.8180 O   0  0  0  0  0  0
    6.0930   81.0760   28.3920 C   0  0  0  0  0  0
    4.7130   80.7980   28.5410 O   0  0  0  0  0  0
    4.4180   83.5000   27.8400 N   0  0  0  0  0  0
    3.7180   84.7250   28.2270 C   0  0  2  0  0  0
    2.3290   84.3890   28.7910 C   0  0  0  0  0  0
    1.6600   83.4740   28.3090 O   0  0  0  0  0  0
    3.5760   85.6510   27.0170 C   0  0  0  0  0  0
    3.1840   87.0730   27.3610 C   0  0  0  0  0  0
    2.9800   87.9410   26.1280 C   0  0  0  0  0  0
    3.8380   87.8900   25.2140 O   0  0  0  0  0  0
    1.9700   88.6790   26.0780 O   0  0  0  0  0  0
    1.9160   85.1100   29.8280 N   0  0  0  0  0  0
    0.6020   84.9010   30.4410 C   0  0  2  0  0  0
   -0.2350   86.1910   30.3700 C   0  0  0  0  0  0
    0.3140   87.3000   30.3910 O   0  0  0  0  0  0
    0.7220   84.4400   31.9370 C   0  0  0  0  0  0
    1.1880   82.9770   32.0070 C   0  0  0  0  0  0
    1.6740   85.3430   32.6980 C   0  0  0  0  0  0
   -1.5560   86.0270   30.2610 N   0  0  0  0  0  0
   -2.5060   87.1400   30.1870 C   0  0  2  0  0  0
   -3.8160   86.6320   30.7800 C   0  0  0  0  0  0
   -4.7890   86.3630   30.0600 O   0  0  0  0  0  0
   -2.7110   87.5750   28.7330 C   0  0  0  0  0  0
   -1.4920   88.2560   28.1600 C   0  0  0  0  0  0
   -1.2590   89.4540   28.3950 O   0  0  0  0  0  0
   -0.6910   87.5010   27.4190 N   0  0  0  0  0  0
   -3.8310   86.5170   32.1040 N   0  0  0  0  0  0
   -4.9690   85.9780   32.8340 C   0  0  1  0  0  0
   -4.5030   84.6980   33.5530 C   0  0  0  0  0  0
   -3.6900   83.7100   32.6940 C   0  0  0  0  0  0
   -2.6830   82.9080   33.5190 C   0  0  0  0  0  0
   -4.5810   82.7840   31.8900 C   0  0  0  0  0  0
   -5.5300   86.9930   33.8650 C   0  0  1  0  0  0
   -4.4570   87.5840   34.5830 O   0  0  0  0  0  0
   -6.3300   88.0950   33.1770 C   0  0  0  0  0  0
   -7.6190   87.5800   32.5620 C   0  0  0  0  0  0
   -7.6460   87.2410   31.3780 O   0  0  0  0  0  0
   -8.6850   87.5190   33.3570 N   0  0  0  0  0  0
   -9.9790   87.0740   32.8390 C   0  0  2  0  0  0
  -10.5930   88.1690   31.9520 C   0  0  0  0  0  0
  -10.4000   89.3630   32.1990 O   0  0  0  0  0  0
  -10.9350   86.7220   33.9950 C   0  0  0  0  0  0
  -11.3780   87.9840   34.7010 C   0  0  0  0  0  0
  -12.1190   85.9030   33.4760 C   0  0  0  0  0  0
  -11.3190   87.7610   30.9120 N   0  0  0  0  0  0
  -11.9420   88.7150   29.9850 C   0  0  2  0  0  0
  -13.2380   89.3080   30.5290 C   0  0  0  0  0  0
  -14.0420   88.5860   31.1140 O   0  0  0  0  0  0
  -12.2100   88.0330   28.6450 C   0  0  0  0  0  0
  -13.4280   90.6200   30.3360 N   0  0  0  0  0  0
  -14.6360   91.3350   30.7890 C   0  0  2  0  0  0
  -14.4820   92.8650   30.9390 C   0  0  0  0  0  0
  -13.3730   93.4100   30.9480 O   0  0  0  0  0  0
  -15.1400   90.7540   32.1300 C   0  0  0  0  0  0
  -16.6320   91.0110   32.4290 C   0  0  0  0  0  0
  -16.8700   92.0960   33.4800 C   0  0  0  0  0  0
  -16.1690   93.1260   33.4410 O   0  0  0  0  0  0
  -17.7680   91.9290   34.3400 O   0  0  0  0  0  0
  -15.6280   93.5400   31.0360 N   0  0  0  0  0  0
  -15.7340   94.9920   31.2370 C   0  0  2  0  0  0
  -17.2180   95.3220   31.4350 C   0  0  0  0  0  0
  -18.0430   94.3950   31.2660 O   0  0  0  0  0  0
  -15.1910   95.7920   30.0440 C   0  0  0  0  0  0
  -15.3930   97.2970   30.1780 C   0  0  0  0  0  0
  -14.6930   98.0310   31.1470 C   0  0  0  0  0  0
  -16.3240   97.9700   29.3720 C   0  0  0  0  0  0
  -14.9180   99.4130   31.3170 C   0  0  0  0  0  0
  -16.5580   99.3530   29.5320 C   0  0  0  0  0  0
  -15.8530  100.0730   30.5080 C   0  0  0  0  0  0
  -17.5480   96.4860   31.7570 O   0  0  0  0  0  0
   13.7356   69.0222   19.9849 H   0  0  0  0  0  0
   14.6774   69.9202   18.7466 H   0  0  0  0  0  0
   12.9686   70.3669   19.0739 H   0  0  0  0  0  0
   15.2996   70.5833   20.9867 H   0  0  0  0  0  0
   13.6745   72.7092   19.4653 H   0  0  0  0  0  0
   14.8997   73.0696   20.7285 H   0  0  0  0  0  0
   15.8494   73.4434   18.5493 H   0  0  0  0  0  0
   16.6313   72.0034   19.2854 H   0  0  0  0  0  0
   15.2081   70.5237   17.9401 H   0  0  0  0  0  0
   14.3790   71.9492   17.2280 H   0  0  0  0  0  0
   16.4743   72.7016   16.2252 H   0  0  0  0  0  0
   17.3560   71.3388   16.9946 H   0  0  0  0  0  0
   16.8364   70.8670   14.6578 H   0  0  0  0  0  0
   15.0881   71.1086   14.9924 H   0  0  0  0  0  0
   15.9699   69.7458   15.7619 H   0  0  0  0  0  0
   14.2894   72.8077   22.3705 H   0  0  0  0  0  0
   11.5428   72.1486   23.1920 H   0  0  0  0  0  0
   13.8003   71.5893   25.3005 H   0  0  0  0  0  0
   13.5897   69.7290   23.6266 H   0  0  0  0  0  0
   11.6697   72.5323   26.2792 H   0  0  0  0  0  0
   11.9507   70.8225   26.7528 H   0  0  0  0  0  0
   10.7538   71.2146   25.4721 H   0  0  0  0  0  0
   14.1894   74.1387   22.9189 H   0  0  0  0  0  0
   13.6601   75.9531   25.1738 H   0  0  0  0  0  0
   15.0634   76.5720   22.4778 H   0  0  0  0  0  0
   15.2677   77.5079   23.9973 H   0  0  0  0  0  0
   16.3404   75.5536   25.0458 H   0  0  0  0  0  0
   16.1554   74.6379   23.5116 H   0  0  0  0  0  0
   19.2948   75.8839   22.3483 H   0  0  0  0  0  0
   12.1475   77.4399   25.5486 H   0  0  0  0  0  0
   11.3176   79.0840   23.2821 H   0  0  0  0  0  0
    8.6962   78.3452   23.8640 H   0  0  0  0  0  0
    9.6590   77.5452   22.5757 H   0  0  0  0  0  0
    8.4422   75.9433   23.9657 H   0  0  0  0  0  0
   10.2199   75.7239   24.1005 H   0  0  0  0  0  0
    9.9236   75.7499   27.6368 H   0  0  0  0  0  0
   10.1771   80.8705   23.5989 H   0  0  0  0  0  0
   10.2351   81.7670   26.4896 H   0  0  0  0  0  0
    9.6754   83.2897   23.8448 H   0  0  0  0  0  0
   12.1404   83.5182   25.5987 H   0  0  0  0  0  0
   12.0008   82.1885   24.3990 H   0  0  0  0  0  0
    8.5634   84.3526   25.7388 H   0  0  0  0  0  0
    9.9417   85.3252   25.1213 H   0  0  0  0  0  0
   10.1183   84.3789   26.6379 H   0  0  0  0  0  0
   13.2657   84.0587   23.5237 H   0  0  0  0  0  0
   11.8752   85.1591   23.8109 H   0  0  0  0  0  0
   11.7355   83.8295   22.6112 H   0  0  0  0  0  0
    8.4954   82.3511   27.7483 H   0  0  0  0  0  0
    5.8698   81.8120   26.3212 H   0  0  0  0  0  0
    6.6154   80.1387   28.1501 H   0  0  0  0  0  0
    6.4753   81.4738   29.3436 H   0  0  0  0  0  0
    4.3757   80.0808   29.3037 H   0  0  0  0  0  0
    3.8519   82.5709   27.6778 H   0  0  0  0  0  0
    4.3398   85.2002   29.0000 H   0  0  0  0  0  0
    4.5350   85.7031   26.4806 H   0  0  0  0  0  0
    2.8001   85.2580   26.3436 H   0  0  0  0  0  0
    2.2414   87.0665   27.9279 H   0  0  0  0  0  0
    3.9752   87.5343   27.9703 H   0  0  0  0  0  0
    3.7169   88.5063   24.3109 H   0  0  0  0  0  0
    2.5919   85.8815   30.2254 H   0  0  0  0  0  0
    0.1481   84.1118   29.8236 H   0  0  0  0  0  0
   -0.2547   84.5145   32.4374 H   0  0  0  0  0  0
    0.4845   82.3411   31.4496 H   0  0  0  0  0  0
    1.2220   82.6529   33.0576 H   0  0  0  0  0  0
    2.1910   82.8901   31.5639 H   0  0  0  0  0  0
    1.3220   86.3832   32.6348 H   0  0  0  0  0  0
    2.6797   85.2689   32.2586 H   0  0  0  0  0  0
    1.7106   85.0317   33.7524 H   0  0  0  0  0  0
   -1.9204   84.9897   30.2274 H   0  0  0  0  0  0
   -2.1002   87.9919   30.7523 H   0  0  0  0  0  0
   -2.9302   86.6927   28.1138 H   0  0  0  0  0  0
   -3.5528   88.2808   28.6766 H   0  0  0  0  0  0
   -0.9411   86.4449   27.2398 H   0  0  0  0  0  0
    0.2231   87.9312   26.9839 H   0  0  0  0  0  0
   -2.9353   86.8493   32.6492 H   0  0  0  0  0  0
   -5.7419   85.7750   32.0781 H   0  0  0  0  0  0
   -3.8609   84.9687   34.4041 H   0  0  0  0  0  0
   -5.3796   84.1422   33.9173 H   0  0  0  0  0  0
   -3.1198   84.3154   31.9741 H   0  0  0  0  0  0
   -2.0476   83.5979   34.0937 H   0  0  0  0  0  0
   -2.0550   82.3054   32.8463 H   0  0  0  0  0  0
   -3.2219   82.2437   34.2105 H   0  0  0  0  0  0
   -5.2966   83.3803   31.3049 H   0  0  0  0  0  0
   -5.1299   82.1190   32.5730 H   0  0  0  0  0  0
   -3.9630   82.1807   31.2087 H   0  0  0  0  0  0
   -6.1546   86.4852   34.6147 H   0  0  0  0  0  0
   -3.7597   86.9501   35.1504 H   0  0  0  0  0  0
   -6.5915   88.8712   33.9113 H   0  0  0  0  0  0
   -5.7252   88.5398   32.3730 H   0  0  0  0  0  0
   -8.5854   87.8076   34.4138 H   0  0  0  0  0  0
   -9.7698   86.1737   32.2426 H   0  0  0  0  0  0
  -10.4158   86.1069   34.7447 H   0  0  0  0  0  0
  -10.4945   88.5359   35.0543 H   0  0  0  0  0  0
  -12.0130   87.7202   35.5596 H   0  0  0  0  0  0
  -11.9487   88.6138   34.0026 H   0  0  0  0  0  0
  -11.7466   84.9987   32.9724 H   0  0  0  0  0  0
  -12.6985   86.5076   32.7628 H   0  0  0  0  0  0
  -12.7629   85.6140   34.3198 H   0  0  0  0  0  0
  -11.4464   86.6796   30.7562 H   0  0  0  0  0  0
  -11.2083   89.5282   29.8829 H   0  0  0  0  0  0
  -11.2732   87.6070   28.2566 H   0  0  0  0  0  0
  -12.6014   88.7713   27.9297 H   0  0  0  0  0  0
  -12.9484   87.2295   28.7837 H   0  0  0  0  0  0
  -12.6296   91.1661   29.8122 H   0  0  0  0  0  0
  -15.3265   91.1467   29.9537 H   0  0  0  0  0  0
  -15.0004   89.6629   32.1324 H   0  0  0  0  0  0
  -14.5702   91.1984   32.9594 H   0  0  0  0  0  0
  -17.1409   91.3303   31.5075 H   0  0  0  0  0  0
  -17.0958   90.0860   32.8023 H   0  0  0  0  0  0
  -17.9502   92.7011   35.1020 H   0  0  0  0  0  0
  -16.5385   92.9281   30.9544 H   0  0  0  0  0  0
  -15.1191   95.2291   32.1177 H   0  0  0  0  0  0
  -19.1185   94.5852   31.3972 H   0  0  0  0  0  0
  -14.1104   95.6127   29.9437 H   0  0  0  0  0  0
  -15.7027   95.4719   29.1244 H   0  0  0  0  0  0
  -13.9632   97.5250   31.7790 H   0  0  0  0  0  0
  -16.8746   97.4168   28.6112 H   0  0  0  0  0  0
  -14.3657   99.9667   32.0762 H   0  0  0  0  0  0
  -17.2852   99.8605   28.8982 H   0  0  0  0  0  0
  -16.0315  101.1406   30.6365 H   0  0  0  0  0  0
  1  2  1  0  0  0
  1117  1  0  0  0
  1118  1  0  0  0
  1119  1  0  0  0
  2  3  1  0  0  0
  2  5  1  0  0  0
  2120  1  0  0  0
  3  4  2  0  0  0
  3 10  1  0  0  0
  5  6  1  0  0  0
  5121  1  0  0  0
  5122  1  0  0  0
  6  7  1  0  0  0
  6123  1  0  0  0
  6124  1  0  0  0
  7  8  1  0  0  0
  7125  1  0  0  0
  7126  1  0  0  0
  8  9  1  0  0  0
  8127  1  0  0  0
  8128  1  0  0  0
  9129  1  0  0  0
  9130  1  0  0  0
  9131  1  0  0  0
 10 11  1  0  0  0
 10132  1  0  0  0
 11 12  1  0  0  0
 11 14  1  0  0  0
 11133  1  0  0  0
 12 13  2  0  0  0
 12 17  1  0  0  0
 14 15  1  0  0  0
 14 16  1  0  0  0
 14134  1  0  0  0
 15135  1  0  0  0
 16136  1  0  0  0
 16137  1  0  0  0
 16138  1  0  0  0
 17 18  1  0  0  0
 17139  1  0  0  0
 18 19  1  0  0  0
 18 21  1  0  0  0
 18140  1  0  0  0
 19 20  2  0  0  0
 19 26  1  0  0  0
 21 22  1  0  0  0
 21141  1  0  0  0
 21142  1  0  0  0
 22 23  1  0  0  0
 22143  1  0  0  0
 22144  1  0  0  0
 23 24  2  0  0  0
 23 25  1  0  0  0
 25145  1  0  0  0
 26 27  1  0  0  0
 26146  1  0  0  0
 27 28  1  0  0  0
 27 30  1  0  0  0
 27147  1  0  0  0
 28 29  2  0  0  0
 28 35  1  0  0  0
 30 31  1  0  0  0
 30148  1  0  0  0
 30149  1  0  0  0
 31 32  1  0  0  0
 31150  1  0  0  0
 31151  1  0  0  0
 32 33  2  0  0  0
 32 34  1  0  0  0
 34152  1  0  0  0
 35 36  1  0  0  0
 35153  1  0  0  0
 36 37  1  0  0  0
 36 39  1  0  0  0
 36154  1  0  0  0
 37 38  2  0  0  0
 37 43  1  0  0  0
 39 40  1  0  0  0
 39 41  1  0  0  0
 39155  1  0  0  0
 40 42  1  0  0  0
 40156  1  0  0  0
 40157  1  0  0  0
 41158  1  0  0  0
 41159  1  0  0  0
 41160  1  0  0  0
 42161  1  0  0  0
 42162  1  0  0  0
 42163  1  0  0  0
 43 44  1  0  0  0
 43164  1  0  0  0
 44 45  1  0  0  0
 44 47  1  0  0  0
 44165  1  0  0  0
 45 46  2  0  0  0
 45 49  1  0  0  0
 47 48  1  0  0  0
 47166  1  0  0  0
 47167  1  0  0  0
 48168  1  0  0  0
 49 50  1  0  0  0
 49169  1  0  0  0
 50 51  1  0  0  0
 50 53  1  0  0  0
 50170  1  0  0  0
 51 52  2  0  0  0
 51 58  1  0  0  0
 53 54  1  0  0  0
 53171  1  0  0  0
 53172  1  0  0  0
 54 55  1  0  0  0
 54173  1  0  0  0
 54174  1  0  0  0
 55 56  1  0  0  0
 55 57  2  0  0  0
 56175  1  0  0  0
 58 59  1  0  0  0
 58176  1  0  0  0
 59 60  1  0  0  0
 59 62  1  0  0  0
 59177  1  0  0  0
 60 61  2  0  0  0
 60 65  1  0  0  0
 62 63  1  0  0  0
 62 64  1  0  0  0
 62178  1  0  0  0
 63179  1  0  0  0
 63180  1  0  0  0
 63181  1  0  0  0
 64182  1  0  0  0
 64183  1  0  0  0
 64184  1  0  0  0
 65 66  1  0  0  0
 65185  1  0  0  0
 66 67  1  0  0  0
 66 69  1  0  0  0
 66186  1  0  0  0
 67 68  2  0  0  0
 67 73  1  0  0  0
 69 70  1  0  0  0
 69187  1  0  0  0
 69188  1  0  0  0
 70 71  2  0  0  0
 70 72  1  0  0  0
 72189  1  0  0  0
 72190  1  0  0  0
 73 74  1  0  0  0
 73191  1  0  0  0
 74 75  1  0  0  0
 74 79  1  0  0  0
 74192  1  0  0  0
 75 76  1  0  0  0
 75193  1  0  0  0
 75194  1  0  0  0
 76 77  1  0  0  0
 76 78  1  0  0  0
 76195  1  0  0  0
 77196  1  0  0  0
 77197  1  0  0  0
 77198  1  0  0  0
 78199  1  0  0  0
 78200  1  0  0  0
 78201  1  0  0  0
 79 80  1  0  0  0
 79 81  1  0  0  0
 79202  1  0  0  0
 80203  1  0  0  0
 81 82  1  0  0  0
 81204  1  0  0  0
 81205  1  0  0  0
 82 83  2  0  0  0
 82 84  1  0  0  0
 84 85  1  0  0  0
 84206  1  0  0  0
 85 86  1  0  0  0
 85 88  1  0  0  0
 85207  1  0  0  0
 86 87  2  0  0  0
 86 91  1  0  0  0
 88 89  1  0  0  0
 88 90  1  0  0  0
 88208  1  0  0  0
 89209  1  0  0  0
 89210  1  0  0  0
 89211  1  0  0  0
 90212  1  0  0  0
 90213  1  0  0  0
 90214  1  0  0  0
 91 92  1  0  0  0
 91215  1  0  0  0
 92 93  1  0  0  0
 92 95  1  0  0  0
 92216  1  0  0  0
 93 94  2  0  0  0
 93 96  1  0  0  0
 95217  1  0  0  0
 95218  1  0  0  0
 95219  1  0  0  0
 96 97  1  0  0  0
 96220  1  0  0  0
 97 98  1  0  0  0
 97100  1  0  0  0
 97221  1  0  0  0
 98 99  2  0  0  0
 98105  1  0  0  0
100101  1  0  0  0
100222  1  0  0  0
100223  1  0  0  0
101102  1  0  0  0
101224  1  0  0  0
101225  1  0  0  0
102103  2  0  0  0
102104  1  0  0  0
104226  1  0  0  0
105106  1  0  0  0
105227  1  0  0  0
106107  1  0  0  0
106109  1  0  0  0
106228  1  0  0  0
107108  1  0  0  0
107116  2  0  0  0
108229  1  0  0  0
109110  1  0  0  0
109230  1  0  0  0
109231  1  0  0  0
110111  2  0  0  0
110112  1  0  0  0
111113  1  0  0  0
111232  1  0  0  0
112114  2  0  0  0
112233  1  0  0  0
113115  2  0  0  0
113234  1  0  0  0
114115  1  0  0  0
114235  1  0  0  0
115236  1  0  0  0
M  CHG  2   1   1   9   1
M  END
> <s_m_source_file>
../1xn3_ligand.sdf

> <i_m_source_file_index>
1

> <s_epik_input>
W05IMytdW0NIMl1bQ0gyXVtDSDJdW0NIMl1bQ0BIXShbTkgzK10pQyg9TylbTkhdW0NAQEhdKFtDQEhdKFtPSF0pW0NIM10pQyg9TylbTkhdW0NAQEhdKFtDSDJdW0NIMl1DKD1PKVtPSF0pQyg9TylbTkhdW0NAQEhdKFtDSDJdW0NIMl1DKD1PKVtPSF0pQyg9TylbTkhdW0NAQEhdKFtDQEBIXShbQ0gzXSlbQ0gyXVtDSDNdKUMoPU8pW05IXVtDQEBIXShbQ0gyXVtPSF0pQyg9TylbTkhdW0NAQEhdKFtDSDJdW0NIMl1DKD1PKVtPSF0pQyg9TylbTkhdW0NAQEhdKFtDSF0oW0NIM10pW0NIM10pQyg9TylbTkhdW0NAQEhdKFtDSDJdQyg9TylbTkgyXSlDKD1PKVtOSF1bQ0BASF0oW0NIMl1bQ0hdKFtDSDNdKVtDSDNdKVtDQEBIXShbT0hdKVtDSDJdQyg9TylbTkhdW0NAQEhdKFtDSF0oW0NIM10pW0NIM10pQyg9TylbTkhdW0NAQEhdKFtDSDNdKUMoPU8pW05IXVtDQEBIXShbQ0gyXVtDSDJdQyg9TylbT0hdKUMoPU8pW05IXVtDQEhdKEMoPU8pW09IXSlbQ0gyXWMxW2NIXVtjSF1bY0hdW2NIXVtjSF0x

> <s_epik_cmdline>
J2VwaWtfYXBwJywgJy1pbWFlJywgJ2xpZ2FuZF9wcm8ubWFlJywgJy1vbWFlJywgJ2xpZ2FuZF9wcmVwLm1hZScsICctbXMnLCAnMScsICctcGgnLCAnNycsICctcGh0JywgJzAuNScsICctbnQn

> <s_epik_pKa_notes>
Molecule size exceeds maximum supported for generating protonation states

$$$$
