1xnx_ligand
                    3D
 Schrodinger Suite 2020-3.
 50 53  0  0  1  0            999 V2000
   13.2040   26.3340   77.7700 O   0  0  0  0  0  0
   11.9670   26.3850   77.0590 C   0  0  2  0  0  0
   12.2530   27.1930   75.7730 C   0  0  0  0  0  0
   12.3650   28.7020   76.0320 C   0  0  0  0  0  0
   10.9860   26.9480   78.1110 C   0  0  0  0  0  0
   11.2160   28.4660   78.3170 C   0  0  2  0  0  0
   10.1940   28.9870   79.3460 C   0  0  0  0  0  0
   11.3020   29.3260   76.9900 C   0  0  2  0  0  0
    9.9350   29.2260   76.2150 C   0  0  0  0  0  0
   11.5190   30.8630   77.2590 C   0  0  1  0  0  0
   11.6170   31.7630   76.0000 C   0  0  0  0  0  0
   10.4320   31.3510   78.3060 C   0  0  1  0  0  0
   10.3320   30.4930   79.5950 C   0  0  0  0  0  0
   10.6110   32.8710   78.5900 C   0  0  2  0  0  0
    9.7350   33.6390   79.5780 C   0  0  0  0  0  0
   10.7240   33.7830   77.3240 C   0  0  1  0  0  0
   11.7670   33.2680   76.3070 C   0  0  0  0  0  0
    9.3690   33.9500   76.5540 C   0  0  0  0  0  0
   10.8660   35.0740   78.1100 C   0  0  0  0  0  0
   10.3450   35.0090   79.3560 C   0  0  0  0  0  0
   14.1115   25.9659   77.2691 H   0  0  0  0  0  0
   11.5707   25.4199   76.7103 H   0  0  0  0  0  0
   13.2027   26.8561   75.3320 H   0  0  0  0  0  0
   11.4375   27.0352   75.0518 H   0  0  0  0  0  0
   13.3432   28.9250   76.4831 H   0  0  0  0  0  0
   12.2675   29.2456   75.0807 H   0  0  0  0  0  0
    9.9522   26.7880   77.7709 H   0  0  0  0  0  0
   11.1406   26.4317   79.0699 H   0  0  0  0  0  0
   12.2199   28.5840   78.7509 H   0  0  0  0  0  0
    9.1746   28.7952   78.9798 H   0  0  0  0  0  0
   10.3426   28.4690   80.3050 H   0  0  0  0  0  0
    9.7166   28.1713   75.9915 H   0  0  0  0  0  0
   10.0040   29.7933   75.2751 H   0  0  0  0  0  0
    9.1295   29.6435   76.8370 H   0  0  0  0  0  0
   12.5341   30.9884   77.6638 H   0  0  0  0  0  0
   12.4933   31.4666   75.4047 H   0  0  0  0  0  0
   10.7061   31.6469   75.3944 H   0  0  0  0  0  0
    9.4385   31.2027   77.8578 H   0  0  0  0  0  0
    9.4554   30.8542   80.1528 H   0  0  0  0  0  0
   11.2436   30.6860   80.1795 H   0  0  0  0  0  0
   11.5458   32.7122   79.1477 H   0  0  0  0  0  0
    8.6796   33.5443   79.2827 H   0  0  0  0  0  0
    9.8717   33.2250   80.5879 H   0  0  0  0  0  0
   12.7657   33.4588   76.7267 H   0  0  0  0  0  0
   11.6427   33.8457   75.3792 H   0  0  0  0  0  0
    9.1782   33.0516   75.9486 H   0  0  0  0  0  0
    9.4271   34.8298   75.8963 H   0  0  0  0  0  0
    8.5509   34.0858   77.2767 H   0  0  0  0  0  0
   11.3355   36.0044   77.7580 H   0  0  0  0  0  0
   10.4098   35.8795   80.0254 H   0  0  0  0  0  0
  1  2  1  0  0  0
  1 21  1  0  0  0
  2  3  1  0  0  0
  2  5  1  0  0  0
  2 22  1  0  0  0
  3  4  1  0  0  0
  3 23  1  0  0  0
  3 24  1  0  0  0
  4  8  1  0  0  0
  4 25  1  0  0  0
  4 26  1  0  0  0
  5  6  1  0  0  0
  5 27  1  0  0  0
  5 28  1  0  0  0
  6  7  1  0  0  0
  6  8  1  0  0  0
  6 29  1  0  0  0
  7 13  1  0  0  0
  7 30  1  0  0  0
  7 31  1  0  0  0
  8  9  1  0  0  0
  8 10  1  0  0  0
  9 32  1  0  0  0
  9 33  1  0  0  0
  9 34  1  0  0  0
 10 11  1  0  0  0
 10 12  1  0  0  0
 10 35  1  0  0  0
 11 17  1  0  0  0
 11 36  1  0  0  0
 11 37  1  0  0  0
 12 13  1  0  0  0
 12 14  1  0  0  0
 12 38  1  0  0  0
 13 39  1  0  0  0
 13 40  1  0  0  0
 14 15  1  0  0  0
 14 16  1  0  0  0
 14 41  1  0  0  0
 15 20  1  0  0  0
 15 42  1  0  0  0
 15 43  1  0  0  0
 16 17  1  0  0  0
 16 18  1  0  0  0
 16 19  1  0  0  0
 17 44  1  0  0  0
 17 45  1  0  0  0
 18 46  1  0  0  0
 18 47  1  0  0  0
 18 48  1  0  0  0
 19 20  2  0  0  0
 19 49  1  0  0  0
 20 50  1  0  0  0
M  END
> <s_m_source_file>
../1xnx_ligand.sdf

> <i_m_source_file_index>
1

> <s_epik_input>
W0NIMl0xW0NIMl1bQ0BASF0oW09IXSlbQ0gyXVtDQEBIXShbQ0BdMTJbQ0gzXSlbQ0gyXVtDSDJdW0NAQEhdM1tDQEBIXTJbQ0gyXVtDSDJdW0NAQF00KFtDSDNdKVtDQEhdM1tDSDJdW0NIXT1bQ0hdNA==

> <s_epik_cmdline>
J2VwaWtfYXBwJywgJy1pbWFlJywgJ2xpZ2FuZF9wcm8ubWFlJywgJy1vbWFlJywgJ2xpZ2FuZF9wcmVwLm1hZScsICctbXMnLCAnMScsICctcGgnLCAnNycsICctcGh0JywgJzAuNScsICctbnQn

> <r_lp_tautomer_probability>
1

> <r_epik_Ionization_Penalty>
  0.0000

> <r_epik_Ionization_Penalty_Charging>
  0.0000

> <r_epik_Ionization_Penalty_Neutral>
  0.0000

> <r_epik_State_Penalty>
 -0.0000

> <r_epik_Charging_Adjusted_Penalty>
0

> <i_epik_Tot_Q>
0

> <i_epik_Tot_abs_Q>
0

$$$$
