1xog_ligand
                    3D
 Schrodinger Suite 2020-3.
 43 43  0  0  1  0            999 V2000
   24.4830   16.4930   63.0060 C   0  0  1  0  0  0
   25.3620   17.6270   62.4610 C   0  0  1  0  0  0
   25.4500   18.5300   63.5570 O   0  0  0  0  0  0
   24.3470   18.3540   64.4150 C   0  0  2  0  0  0
   23.4660   17.2780   63.7970 C   0  0  0  0  0  0
   23.5920   19.6620   64.6450 C   0  0  0  0  0  0
   22.6040   19.6340   65.3560 O   0  0  0  0  0  0
   24.0330   20.6860   64.0940 O   0  5  0  0  0  0
   26.8100   16.3090   60.9210 N   0  0  0  0  0  0
   27.1940   15.0070   61.0790 C   0  0  0  0  0  0
   27.0930   14.1490   59.8070 C   0  0  0  0  0  0
   27.5780   14.5440   62.1360 O   0  0  0  0  0  0
   26.8220   17.2870   62.0190 C   0  0  1  0  0  0
   27.4680   18.5960   61.5060 C   0  0  0  0  0  0
   28.7780   19.1620   62.1010 C   0  0  0  0  0  0
   29.0500   20.4490   61.3160 C   0  0  0  0  0  0
   28.6970   19.5270   63.6070 C   0  0  0  0  0  0
   23.7800   15.6740   61.8930 C   0  0  0  0  0  0
   23.2170   16.1670   60.9490 O   0  0  0  0  0  0
   23.8690   14.3570   62.1030 O   0  0  0  0  0  0
   23.2740   13.4440   61.1790 C   0  0  0  0  0  0
   25.0493   15.7523   63.5898 H   0  0  0  0  0  0
   24.8671   18.0494   61.5741 H   0  0  0  0  0  0
   24.7613   18.0369   65.3834 H   0  0  0  0  0  0
   22.6993   17.6758   63.1158 H   0  0  0  0  0  0
   22.9910   16.6195   64.5391 H   0  0  0  0  0  0
   26.4812   16.6138   59.9165 H   0  0  0  0  0  0
   26.7258   14.7682   58.9753 H   0  0  0  0  0  0
   26.3950   13.3168   59.9806 H   0  0  0  0  0  0
   28.0860   13.7483   59.5552 H   0  0  0  0  0  0
   27.3968   16.8201   62.8324 H   0  0  0  0  0  0
   27.7136   18.4900   60.4390 H   0  0  0  0  0  0
   26.7627   19.4296   61.6389 H   0  0  0  0  0  0
   29.5648   18.3984   62.0124 H   0  0  0  0  0  0
   29.1122   20.2174   60.2424 H   0  0  0  0  0  0
   30.0004   20.8894   61.6518 H   0  0  0  0  0  0
   28.2327   21.1643   61.4901 H   0  0  0  0  0  0
   28.5018   18.6178   64.1946 H   0  0  0  0  0  0
   27.8820   20.2484   63.7661 H   0  0  0  0  0  0
   29.6498   19.9735   63.9278 H   0  0  0  0  0  0
   23.4506   12.4124   61.5176 H   0  0  0  0  0  0
   23.7218   13.5851   60.1842 H   0  0  0  0  0  0
   22.1915   13.6316   61.1238 H   0  0  0  0  0  0
  1  2  1  0  0  0
  1  5  1  0  0  0
  1 18  1  0  0  0
  1 22  1  0  0  0
  2  3  1  0  0  0
  2 13  1  0  0  0
  2 23  1  0  0  0
  3  4  1  0  0  0
  4  5  1  0  0  0
  4  6  1  0  0  0
  4 24  1  0  0  0
  5 25  1  0  0  0
  5 26  1  0  0  0
  6  7  2  0  0  0
  6  8  1  0  0  0
  9 10  1  0  0  0
  9 13  1  0  0  0
  9 27  1  0  0  0
 10 11  1  0  0  0
 10 12  2  0  0  0
 11 28  1  0  0  0
 11 29  1  0  0  0
 11 30  1  0  0  0
 13 14  1  0  0  0
 13 31  1  0  0  0
 14 15  1  0  0  0
 14 32  1  0  0  0
 14 33  1  0  0  0
 15 16  1  0  0  0
 15 17  1  0  0  0
 15 34  1  0  0  0
 16 35  1  0  0  0
 16 36  1  0  0  0
 16 37  1  0  0  0
 17 38  1  0  0  0
 17 39  1  0  0  0
 17 40  1  0  0  0
 18 19  2  0  0  0
 18 20  1  0  0  0
 20 21  1  0  0  0
 21 41  1  0  0  0
 21 42  1  0  0  0
 21 43  1  0  0  0
M  CHG  1   8  -1
M  END
> <s_m_source_file>
../1xog_ligand.sdf

> <i_m_source_file_index>
1

> <s_epik_input>
W0NIM11DKD1PKVtOSF1bQ0BASF0oW0NIMl1bQ0hdKFtDSDNdKVtDSDNdKVtDQEBIXShbQ0BASF0xQyg9TylPW0NIM10pT1tDQEhdKFtDSDJdMSlDKD1PKVtPSF0=

> <s_epik_cmdline>
J2VwaWtfYXBwJywgJy1pbWFlJywgJ2xpZ2FuZF9wcm8ubWFlJywgJy1vbWFlJywgJ2xpZ2FuZF9wcmVwLm1hZScsICctbXMnLCAnMScsICctcGgnLCAnNycsICctcGh0JywgJzAuNScsICctbnQn

> <r_lp_tautomer_probability>
1

> <r_epik_Ionization_Penalty>
  0.0004

> <r_epik_Ionization_Penalty_Charging>
  0.0004

> <r_epik_Ionization_Penalty_Neutral>
  0.0000

> <r_epik_State_Penalty>
 -0.0000

> <r_epik_Charging_Adjusted_Penalty>
0.000439877926662131

> <i_epik_Tot_Q>
-1

> <i_epik_Tot_abs_Q>
1

> <s_epik_Chemistry_Notes>
This compound has an ester and may undergo hydrolysis at high or low pH.

$$$$
