1xom_ligand
                    3D
 Schrodinger Suite 2020-3.
 49 51  0  0  1  0            999 V2000
   14.0820    5.8760   18.9490 O   0  5  0  0  0  0
   12.9580    6.1930   18.4940 C   0  0  0  0  0  0
   11.9790    6.3800   19.2400 O   0  0  0  0  0  0
   12.7620    6.3720   17.0060 C   0  0  1  0  0  0
   14.1000    6.6980   16.3470 C   0  0  0  0  0  0
   13.9840    6.7830   14.8250 C   0  0  0  0  0  0
   12.1490    5.1170   16.3770 C   0  0  0  0  0  0
   12.0620    5.2080   14.8430 C   0  0  0  0  0  0
   13.4250    5.4970   14.2070 C   0  0  2  0  0  0
   14.3230    4.3810   14.5570 C   0  0  0  0  0  0
   15.0350    3.5150   14.8530 N   0  0  0  0  0  0
   13.4010    5.6650   12.6950 C   0  0  0  0  0  0
   12.2390    5.6860   11.9170 C   0  0  0  0  0  0
   12.3110    5.8530   10.5250 C   0  0  0  0  0  0
   13.5500    6.0030    9.9000 C   0  0  0  0  0  0
   13.7090    6.1690    8.5440 O   0  0  0  0  0  0
   12.6080    6.1300    7.6360 C   0  0  0  0  0  0
   14.6980    5.9850   10.6630 C   0  0  0  0  0  0
   14.6230    5.8190   12.0450 C   0  0  0  0  0  0
   15.9040    6.1370   10.0270 O   0  0  0  0  0  0
   17.1450    6.2900   10.7230 C   0  0  0  0  0  0
   18.2450    6.4290    9.6820 C   0  0  0  0  0  0
   18.3420    7.9250    9.4170 C   0  0  0  0  0  0
   17.8980    8.6320   10.6890 C   0  0  0  0  0  0
   17.1920    7.5830   11.5340 C   0  0  0  0  0  0
   12.0655    7.2099   16.8548 H   0  0  0  0  0  0
   14.4650    7.6671   16.7180 H   0  0  0  0  0  0
   14.8304    5.9129   16.5922 H   0  0  0  0  0  0
   13.3107    7.6096   14.5542 H   0  0  0  0  0  0
   14.9786    6.9631   14.3909 H   0  0  0  0  0  0
   12.7655    4.2417   16.6296 H   0  0  0  0  0  0
   11.1302    4.9723   16.7657 H   0  0  0  0  0  0
   11.6901    4.2546   14.4397 H   0  0  0  0  0  0
   11.3733    6.0185   14.5622 H   0  0  0  0  0  0
   11.2669    5.5715   12.3967 H   0  0  0  0  0  0
   11.3972    5.8656    9.9309 H   0  0  0  0  0  0
   12.9731    6.2860    6.6101 H   0  0  0  0  0  0
   11.8911    6.9232    7.8947 H   0  0  0  0  0  0
   12.1115    5.1507    7.7036 H   0  0  0  0  0  0
   15.5423    5.8095   12.6306 H   0  0  0  0  0  0
   17.2104    5.4006   11.3669 H   0  0  0  0  0  0
   19.1849    6.0245   10.0855 H   0  0  0  0  0  0
   17.9650    5.8716    8.7760 H   0  0  0  0  0  0
   19.3813    8.1869    9.1694 H   0  0  0  0  0  0
   17.6862    8.1915    8.5751 H   0  0  0  0  0  0
   18.7786    9.0337   11.2117 H   0  0  0  0  0  0
   17.2168    9.4564   10.4316 H   0  0  0  0  0  0
   16.1670    7.9063   11.7682 H   0  0  0  0  0  0
   17.7444    7.4094   12.4692 H   0  0  0  0  0  0
  1  2  1  0  0  0
  2  3  2  0  0  0
  2  4  1  0  0  0
  4  5  1  0  0  0
  4  7  1  0  0  0
  4 26  1  0  0  0
  5  6  1  0  0  0
  5 27  1  0  0  0
  5 28  1  0  0  0
  6  9  1  0  0  0
  6 29  1  0  0  0
  6 30  1  0  0  0
  7  8  1  0  0  0
  7 31  1  0  0  0
  7 32  1  0  0  0
  8  9  1  0  0  0
  8 33  1  0  0  0
  8 34  1  0  0  0
  9 10  1  0  0  0
  9 12  1  0  0  0
 10 11  3  0  0  0
 12 13  2  0  0  0
 12 19  1  0  0  0
 13 14  1  0  0  0
 13 35  1  0  0  0
 14 15  2  0  0  0
 14 36  1  0  0  0
 15 16  1  0  0  0
 15 18  1  0  0  0
 16 17  1  0  0  0
 17 37  1  0  0  0
 17 38  1  0  0  0
 17 39  1  0  0  0
 18 19  2  0  0  0
 18 20  1  0  0  0
 19 40  1  0  0  0
 20 21  1  0  0  0
 21 22  1  0  0  0
 21 25  1  0  0  0
 21 41  1  0  0  0
 22 23  1  0  0  0
 22 42  1  0  0  0
 22 43  1  0  0  0
 23 24  1  0  0  0
 23 44  1  0  0  0
 23 45  1  0  0  0
 24 25  1  0  0  0
 24 46  1  0  0  0
 24 47  1  0  0  0
 25 48  1  0  0  0
 25 49  1  0  0  0
M  CHG  1   1  -1
M  END
> <s_m_source_file>
../1xom_ligand.sdf

> <i_m_source_file_index>
1

> <s_epik_input>
W09IXUMoPU8pW0NASF0oW0NIMl1bQ0gyXTEpW0NIMl1bQ0gyXVtDQF0xKEMjTiljMltjSF1bY0hdYyhPW0NIM10pYyhbY0hdMilPW0NIXTNbQ0gyXVtDSDJdW0NIMl1bQ0gyXTM=

> <s_epik_cmdline>
J2VwaWtfYXBwJywgJy1pbWFlJywgJ2xpZ2FuZF9wcm8ubWFlJywgJy1vbWFlJywgJ2xpZ2FuZF9wcmVwLm1hZScsICctbXMnLCAnMScsICctcGgnLCAnNycsICctcGh0JywgJzAuNScsICctbnQn

> <r_lp_tautomer_probability>
1

> <r_epik_Ionization_Penalty>
  0.0014

> <r_epik_Ionization_Penalty_Charging>
  0.0014

> <r_epik_Ionization_Penalty_Neutral>
  0.0000

> <r_epik_State_Penalty>
 -0.0000

> <r_epik_Charging_Adjusted_Penalty>
0.00140104886150697

> <i_epik_Tot_Q>
-1

> <i_epik_Tot_abs_Q>
1

$$$$
