1xoq_ligand
                    3D
 Schrodinger Suite 2020-3.
 40 42  0  0  1  0            999 V2000
   14.4670   29.3330   55.4470 O   0  0  0  0  0  0
   12.2940   34.0110   50.5240 C   0  0  0  0  0  0
   13.2130   34.7760   51.4750 C   0  0  0  0  0  0
   13.4880   33.3980   51.0880 C   0  0  0  0  0  0
   14.3680   28.2670   54.8280 C   0  0  0  0  0  0
   14.1730   28.3350   53.3630 C   0  0  0  0  0  0
   14.1450   27.2090   52.5320 C   0  0  0  0  0  0
   13.9400   27.3560   51.1490 C   0  0  0  0  0  0
   13.7900   28.6400   50.5920 C   0  0  0  0  0  0
   13.5900   28.8740   49.2590 O   0  0  0  0  0  0
   13.9070   27.8890   48.2820 C   0  0  0  0  0  0
   13.0380   26.8940   48.3900 F   0  0  0  0  0  0
   15.1600   27.4650   48.4490 F   0  0  0  0  0  0
   13.8040   29.7510   51.4160 C   0  0  0  0  0  0
   13.6450   30.9910   50.8550 O   0  0  0  0  0  0
   13.9570   32.1060   51.6840 C   0  0  0  0  0  0
   14.0010   29.5930   52.7940 C   0  0  0  0  0  0
   14.4570   27.0870   55.4590 N   0  0  0  0  0  0
   14.6180   26.9290   56.8680 C   0  0  0  0  0  0
   15.7500   26.3280   57.4250 C   0  0  0  0  0  0
   17.0390   25.8210   56.4070 Cl  0  0  0  0  0  0
   15.8430   26.1570   58.8080 C   0  0  0  0  0  0
   14.8460   26.5700   59.6120 N   0  0  0  0  0  0
   13.7380   27.1360   59.1220 C   0  0  0  0  0  0
   13.5970   27.3190   57.7410 C   0  0  0  0  0  0
   12.1660   28.0480   57.1000 Cl  0  0  0  0  0  0
   11.2852   33.9508   50.9583 H   0  0  0  0  0  0
   12.2467   34.5358   49.5584 H   0  0  0  0  0  0
   13.6069   35.6680   50.9659 H   0  0  0  0  0  0
   12.6453   35.0830   52.3658 H   0  0  0  0  0  0
   14.3407   32.8020   50.7307 H   0  0  0  0  0  0
   14.2825   26.2153   52.9584 H   0  0  0  0  0  0
   13.8972   26.4755   50.5079 H   0  0  0  0  0  0
   13.8515   28.2488   47.2440 H   0  0  0  0  0  0
   15.0483   32.1390   51.8184 H   0  0  0  0  0  0
   13.4718   31.9547   52.6596 H   0  0  0  0  0  0
   14.0199   30.4748   53.4344 H   0  0  0  0  0  0
   14.4065   26.1506   54.8840 H   0  0  0  0  0  0
   16.7273   25.6868   59.2382 H   0  0  0  0  0  0
   12.9445   27.4550   59.7978 H   0  0  0  0  0  0
  1  5  2  0  0  0
  2  3  1  0  0  0
  2  4  1  0  0  0
  2 27  1  0  0  0
  2 28  1  0  0  0
  3  4  1  0  0  0
  3 29  1  0  0  0
  3 30  1  0  0  0
  4 16  1  0  0  0
  4 31  1  0  0  0
  5  6  1  0  0  0
  5 18  1  0  0  0
  6  7  2  0  0  0
  6 17  1  0  0  0
  7  8  1  0  0  0
  7 32  1  0  0  0
  8  9  2  0  0  0
  8 33  1  0  0  0
  9 10  1  0  0  0
  9 14  1  0  0  0
 10 11  1  0  0  0
 11 12  1  0  0  0
 11 13  1  0  0  0
 11 34  1  0  0  0
 14 15  1  0  0  0
 14 17  2  0  0  0
 15 16  1  0  0  0
 16 35  1  0  0  0
 16 36  1  0  0  0
 17 37  1  0  0  0
 18 19  1  0  0  0
 18 38  1  0  0  0
 19 20  2  0  0  0
 19 25  1  0  0  0
 20 21  1  0  0  0
 20 22  1  0  0  0
 22 23  2  0  0  0
 22 39  1  0  0  0
 23 24  1  0  0  0
 24 25  2  0  0  0
 24 40  1  0  0  0
 25 26  1  0  0  0
M  END
> <s_m_source_file>
../1xoq_ligand.sdf

> <i_m_source_file_index>
1

> <s_epik_input>
Q2xjMVtjSF1uW2NIXWMoQ2wpYzFbTkhdQyg9TyljMltjSF1bY0hdYyhPW0NIXShGKUYpYyhbY0hdMilPW0NIMl1bQ0hdM1tDSDJdW0NIMl0z

> <s_epik_cmdline>
J2VwaWtfYXBwJywgJy1pbWFlJywgJ2xpZ2FuZF9wcm8ubWFlJywgJy1vbWFlJywgJ2xpZ2FuZF9wcmVwLm1hZScsICctbXMnLCAnMScsICctcGgnLCAnNycsICctcGh0JywgJzAuNScsICctbnQn

> <r_lp_tautomer_probability>
1

> <r_epik_Ionization_Penalty>
  0.0014

> <r_epik_Ionization_Penalty_Charging>
  0.0000

> <r_epik_Ionization_Penalty_Neutral>
  0.0014

> <r_epik_State_Penalty>
 -0.0000

> <r_epik_Charging_Adjusted_Penalty>
0

> <i_epik_Tot_Q>
0

> <i_epik_Tot_abs_Q>
0

$$$$
