1xor_ligand
                    3D
 Schrodinger Suite 2020-3.
 29 30  0  0  1  0            999 V2000
    8.9550    2.0750   53.5620 O   0  0  0  0  0  0
    8.4970    1.1650   54.2480 C   0  0  0  0  0  0
    7.1500    0.9280   54.2980 N   0  0  0  0  0  0
    6.5470   -0.0400   55.0070 N   0  0  0  0  0  0
    7.2800   -0.7640   55.7880 C   0  0  0  0  0  0
    8.7570   -0.7050   55.7980 C   0  0  0  0  0  0
    9.3290    0.2750   55.0890 C   0  0  0  0  0  0
    6.5140   -1.8080   56.5080 C   0  0  0  0  0  0
    6.7860   -1.9950   57.8750 C   0  0  0  0  0  0
    6.0580   -2.9440   58.6230 C   0  0  0  0  0  0
    5.0450   -3.6950   57.9990 C   0  0  0  0  0  0
    4.7590   -3.4740   56.6370 C   0  0  0  0  0  0
    5.4850   -2.5300   55.8990 C   0  0  0  0  0  0
    3.7670   -5.8100   58.5700 C   0  0  0  0  0  0
    4.4090   -4.5710   58.8760 O   0  0  0  0  0  0
    3.6540   -6.0670   57.2470 F   0  0  0  0  0  0
    2.5020   -5.7300   59.0710 F   0  0  0  0  0  0
    6.2600   -3.2270   59.9760 O   0  0  0  0  0  0
    6.8840   -2.2270   60.7960 C   0  0  0  0  0  0
    6.4585    1.5609   53.7225 H   0  0  0  0  0  0
    9.3526   -1.4266   56.3572 H   0  0  0  0  0  0
   10.4087    0.4182   55.1307 H   0  0  0  0  0  0
    7.5633   -1.4037   58.3591 H   0  0  0  0  0  0
    3.9653   -4.0430   56.1529 H   0  0  0  0  0  0
    5.2467   -2.3589   54.8492 H   0  0  0  0  0  0
    4.3489   -6.6496   58.9780 H   0  0  0  0  0  0
    6.9706   -2.6001   61.8272 H   0  0  0  0  0  0
    6.2733   -1.3122   60.7871 H   0  0  0  0  0  0
    7.8862   -2.0027   60.4019 H   0  0  0  0  0  0
  1  2  2  0  0  0
  2  3  1  0  0  0
  2  7  1  0  0  0
  3  4  1  0  0  0
  3 20  1  0  0  0
  4  5  2  0  0  0
  5  6  1  0  0  0
  5  8  1  0  0  0
  6  7  2  0  0  0
  6 21  1  0  0  0
  7 22  1  0  0  0
  8  9  2  0  0  0
  8 13  1  0  0  0
  9 10  1  0  0  0
  9 23  1  0  0  0
 10 11  2  0  0  0
 10 18  1  0  0  0
 11 12  1  0  0  0
 11 15  1  0  0  0
 12 13  2  0  0  0
 12 24  1  0  0  0
 13 25  1  0  0  0
 14 15  1  0  0  0
 14 16  1  0  0  0
 14 17  1  0  0  0
 14 26  1  0  0  0
 18 19  1  0  0  0
 19 27  1  0  0  0
 19 28  1  0  0  0
 19 29  1  0  0  0
M  END
> <s_m_source_file>
../1xor_ligand.sdf

> <i_m_source_file_index>
1

> <s_epik_input>
Tz1jMVtuSF1uYyhbY0hdW2NIXTEpLWMyW2NIXWMoT1tDSDNdKWMoW2NIXVtjSF0yKU9bQ0hdKEYpRg==

> <s_epik_cmdline>
J2VwaWtfYXBwJywgJy1pbWFlJywgJ2xpZ2FuZF9wcm8ubWFlJywgJy1vbWFlJywgJ2xpZ2FuZF9wcmVwLm1hZScsICctbXMnLCAnMScsICctcGgnLCAnNycsICctcGh0JywgJzAuNScsICctbnQn

> <r_lp_tautomer_probability>
1

> <r_epik_Ionization_Penalty>
  0.0002

> <r_epik_Ionization_Penalty_Charging>
  0.0002

> <r_epik_Ionization_Penalty_Neutral>
  0.0000

> <r_epik_State_Penalty>
 -0.0000

> <r_epik_Charging_Adjusted_Penalty>
0.000157085814449251

> <i_epik_Tot_Q>
0

> <i_epik_Tot_abs_Q>
0

$$$$
