1xos_ligand
                    3D
 Schrodinger Suite 2020-3.
 63 66  0  0  1  0            999 V2000
   -0.5200   69.5830   42.5040 C   0  0  0  0  0  0
   -0.6090   68.3410   43.3430 C   0  0  0  0  0  0
    0.7000   68.0690   44.0170 C   0  0  0  0  0  0
    0.8560   66.6780   44.4560 C   0  0  0  0  0  0
    1.0030   66.2070   45.7300 N   0  0  0  0  0  0
    1.1330   64.8800   45.7020 N   0  0  0  0  0  0
    1.3020   64.0880   46.9040 C   0  0  0  0  0  0
    1.0770   64.4190   44.3740 C   0  0  0  0  0  0
    1.1460   63.1040   43.7230 C   0  0  0  0  0  0
    1.2960   62.0090   44.3010 O   0  0  0  0  0  0
    1.0220   63.1550   42.3070 N   0  0  0  0  0  0
    0.8500   64.3860   41.6120 C   0  0  0  0  0  0
    0.7830   65.5720   42.1890 N   0  0  0  0  0  0
    0.8940   65.5810   43.5510 C   0  0  0  0  0  0
    0.7290   64.4170   40.1250 C   0  0  0  0  0  0
   -0.1910   65.3240   39.5790 C   0  0  0  0  0  0
   -0.3890   65.4600   38.1910 C   0  0  0  0  0  0
    0.4020   64.6380   37.3560 C   0  0  0  0  0  0
    1.3370   63.7340   37.8700 C   0  0  0  0  0  0
    1.5280   63.6030   39.2710 C   0  0  0  0  0  0
    2.4190   62.7670   39.9140 O   0  0  0  0  0  0
    3.0520   61.6690   39.2380 C   0  0  0  0  0  0
    2.0050   60.5870   39.0740 C   0  0  0  0  0  0
   -1.5390   66.5660   37.5580 S   0  0  0  0  0  0
   -2.3640   67.0010   38.6200 O   0  0  0  0  0  0
   -2.2000   65.9270   36.4840 O   0  0  0  0  0  0
   -0.6900   67.8710   37.0290 N   0  0  0  0  0  0
    0.1440   68.6530   37.9190 C   0  0  0  0  0  0
    0.4010   70.1110   37.4660 C   0  0  0  0  0  0
    0.8010   70.2130   36.0680 N   0  0  0  0  0  0
    1.1440   71.5550   35.6370 C   0  0  0  0  0  0
   -0.1450   69.5450   35.1970 C   0  0  0  0  0  0
   -0.3860   68.0780   35.6220 C   0  0  0  0  0  0
   -1.4892   69.7669   42.0173 H   0  0  0  0  0  0
    0.2569   69.4520   41.7363 H   0  0  0  0  0  0
   -0.2625   70.4400   43.1438 H   0  0  0  0  0  0
   -1.3859   68.4720   44.1107 H   0  0  0  0  0  0
   -0.8665   67.4840   42.7033 H   0  0  0  0  0  0
    1.5232   68.2883   43.3211 H   0  0  0  0  0  0
    0.7932   68.7072   44.9080 H   0  0  0  0  0  0
    1.3041   64.7504   47.7822 H   0  0  0  0  0  0
    2.2564   63.5435   46.8531 H   0  0  0  0  0  0
    0.4738   63.3691   46.9889 H   0  0  0  0  0  0
    1.0579   62.2267   41.7180 H   0  0  0  0  0  0
   -0.7756   65.9480   40.2551 H   0  0  0  0  0  0
    0.2790   64.7113   36.2754 H   0  0  0  0  0  0
    1.9264   63.1224   37.1868 H   0  0  0  0  0  0
    3.4203   62.0053   38.2576 H   0  0  0  0  0  0
    3.8964   61.3045   39.8415 H   0  0  0  0  0  0
    2.4487   59.7226   38.5583 H   0  0  0  0  0  0
    1.1649   60.9767   38.4803 H   0  0  0  0  0  0
    1.6410   60.2759   40.0643 H   0  0  0  0  0  0
   -0.3305   68.7109   38.9097 H   0  0  0  0  0  0
    1.1301   68.1746   38.0122 H   0  0  0  0  0  0
   -0.5179   70.7020   37.5937 H   0  0  0  0  0  0
    1.2056   70.5480   38.0756 H   0  0  0  0  0  0
    1.8625   71.9949   36.3443 H   0  0  0  0  0  0
    0.2349   72.1736   35.6055 H   0  0  0  0  0  0
    1.5947   71.5141   34.6344 H   0  0  0  0  0  0
   -1.1087   70.0746   35.2275 H   0  0  0  0  0  0
    0.2412   69.5456   34.1670 H   0  0  0  0  0  0
    0.5290   67.5267   35.3596 H   0  0  0  0  0  0
   -1.2228   67.7128   35.0085 H   0  0  0  0  0  0
  1  2  1  0  0  0
  1 34  1  0  0  0
  1 35  1  0  0  0
  1 36  1  0  0  0
  2  3  1  0  0  0
  2 37  1  0  0  0
  2 38  1  0  0  0
  3  4  1  0  0  0
  3 39  1  0  0  0
  3 40  1  0  0  0
  4  5  2  0  0  0
  4 14  1  0  0  0
  5  6  1  0  0  0
  6  7  1  0  0  0
  6  8  1  0  0  0
  7 41  1  0  0  0
  7 42  1  0  0  0
  7 43  1  0  0  0
  8  9  1  0  0  0
  8 14  2  0  0  0
  9 10  2  0  0  0
  9 11  1  0  0  0
 11 12  1  0  0  0
 11 44  1  0  0  0
 12 13  2  0  0  0
 12 15  1  0  0  0
 13 14  1  0  0  0
 15 16  2  0  0  0
 15 20  1  0  0  0
 16 17  1  0  0  0
 16 45  1  0  0  0
 17 18  2  0  0  0
 17 24  1  0  0  0
 18 19  1  0  0  0
 18 46  1  0  0  0
 19 20  2  0  0  0
 19 47  1  0  0  0
 20 21  1  0  0  0
 21 22  1  0  0  0
 22 23  1  0  0  0
 22 48  1  0  0  0
 22 49  1  0  0  0
 23 50  1  0  0  0
 23 51  1  0  0  0
 23 52  1  0  0  0
 24 25  2  0  0  0
 24 26  2  0  0  0
 24 27  1  0  0  0
 27 28  1  0  0  0
 27 33  1  0  0  0
 28 29  1  0  0  0
 28 53  1  0  0  0
 28 54  1  0  0  0
 29 30  1  0  0  0
 29 55  1  0  0  0
 29 56  1  0  0  0
 30 31  1  0  0  0
 30 32  1  0  0  0
 31 57  1  0  0  0
 31 58  1  0  0  0
 31 59  1  0  0  0
 32 33  1  0  0  0
 32 60  1  0  0  0
 32 61  1  0  0  0
 33 62  1  0  0  0
 33 63  1  0  0  0
M  END
> <s_m_source_file>
../1xos_ligand.sdf

> <i_m_source_file_index>
1

> <s_epik_input>
W0NIM11bQ0gyXVtDSDJdYyhubjFbQ0gzXSljKGMxMiluYyhbbkhdYzI9TyktYzNbY0hdYyhbY0hdW2NIXWMzT1tDSDJdW0NIM10pUyg9TykoPU8pTjRbQ0gyXVtDSDJdW05IK10oW0NIM10pW0NIMl1bQ0gyXTQ=

> <s_epik_cmdline>
J2VwaWtfYXBwJywgJy1pbWFlJywgJ2xpZ2FuZF9wcm8ubWFlJywgJy1vbWFlJywgJ2xpZ2FuZF9wcmVwLm1hZScsICctbXMnLCAnMScsICctcGgnLCAnNycsICctcGh0JywgJzAuNScsICctbnQn

> <r_lp_tautomer_probability>
1

> <r_epik_Ionization_Penalty>
  0.1911

> <r_epik_Ionization_Penalty_Charging>
  0.0000

> <r_epik_Ionization_Penalty_Neutral>
  0.1911

> <r_epik_State_Penalty>
  0.1740

> <r_epik_Charging_Adjusted_Penalty>
0.17398267960302

> <i_epik_Tot_Q>
0

> <i_epik_Tot_abs_Q>
0

$$$$
