1xot_ligand
                    3D
 Schrodinger Suite 2020-3.
 65 68  0  0  1  0            999 V2000
   40.1680    3.9210   60.8780 C   0  0  0  0  0  0
   39.1890    3.4360   61.8960 C   0  0  0  0  0  0
   39.9370    2.9220   62.9740 O   0  0  0  0  0  0
   39.2930    2.0460   63.8060 C   0  0  0  0  0  0
   37.9070    2.0690   64.0660 C   0  0  0  0  0  0
   37.3160    1.1330   64.9280 C   0  0  0  0  0  0
   38.1140    0.1530   65.5400 C   0  0  0  0  0  0
   39.4720    0.1560   65.2840 C   0  0  0  0  0  0
   40.0420    1.1030   64.4390 C   0  0  0  0  0  0
   37.5210   -0.9690   66.5300 S   0  0  0  0  0  0
   36.5030   -1.6860   65.7930 O   0  0  0  0  0  0
   38.5830   -1.8640   66.9070 O   0  0  0  0  0  0
   35.4290    0.9610   72.2450 C   0  0  0  0  0  0
   36.9890   -0.2210   67.7610 N   0  0  1  0  0  0
   37.9340    0.6440   68.4500 C   0  0  0  0  0  0
   37.4370    0.8250   69.8810 C   0  0  0  0  0  0
   36.0310    1.2230   69.8580 N   0  0  0  0  0  0
   35.1170    0.3160   69.1820 C   0  0  0  0  0  0
   35.6040    0.2450   67.7350 C   0  0  0  0  0  0
   35.5060    1.9050   71.0480 C   0  0  0  0  0  0
   41.4810    0.9330   64.2310 C   0  0  0  0  0  0
   42.1820    1.4620   63.0410 N   0  0  0  0  0  0
   43.5220    1.6070   63.1030 C   0  0  0  0  0  0
   44.1550    1.4270   64.4410 C   0  0  0  0  0  0
   43.5260    1.0870   65.5370 N   0  3  0  0  0  0
   42.1670    0.9170   65.5050 N   0  0  0  0  0  0
   44.2130    1.9020   62.1510 O   0  5  0  0  0  0
   45.4970    1.5370   64.8320 C   0  0  0  0  0  0
   45.5340    1.2560   66.1870 N   0  0  0  0  0  0
   44.2740    0.9590   66.6170 C   0  0  3  0  0  0
   46.7010    1.9070   64.0010 C   0  0  0  0  0  0
   43.8200    0.5560   67.9880 C   0  0  0  0  0  0
   43.8940    1.7390   68.9190 C   0  0  0  0  0  0
   43.9420    1.2670   70.3500 C   0  0  0  0  0  0
   39.6252    4.3328   60.0144 H   0  0  0  0  0  0
   40.7997    3.0830   60.5485 H   0  0  0  0  0  0
   40.8001    4.7045   61.3213 H   0  0  0  0  0  0
   38.5573    4.2740   62.2255 H   0  0  0  0  0  0
   38.5568    2.6525   61.4527 H   0  0  0  0  0  0
   37.2847    2.8264   63.5894 H   0  0  0  0  0  0
   36.2438    1.1663   65.1215 H   0  0  0  0  0  0
   40.1072   -0.5961   65.7519 H   0  0  0  0  0  0
   35.0327    1.5043   73.1155 H   0  0  0  0  0  0
   36.4346    0.5804   72.4770 H   0  0  0  0  0  0
   34.7642    0.1181   72.0050 H   0  0  0  0  0  0
   38.9294    0.1758   68.4466 H   0  0  0  0  0  0
   37.9840    1.6153   67.9362 H   0  0  0  0  0  0
   37.5421   -0.1234   70.4283 H   0  0  0  0  0  0
   38.0319    1.6042   70.3800 H   0  0  0  0  0  0
   35.1545   -0.6708   69.6665 H   0  0  0  0  0  0
   34.0936    0.7150   69.2415 H   0  0  0  0  0  0
   35.5602    1.2386   67.2652 H   0  0  0  0  0  0
   34.9902   -0.4613   67.1567 H   0  0  0  0  0  0
   34.5004    2.2856   70.8160 H   0  0  0  0  0  0
   36.1707    2.7479   71.2879 H   0  0  0  0  0  0
   46.3896    2.0773   62.9598 H   0  0  0  0  0  0
   47.4354    1.0887   64.0349 H   0  0  0  0  0  0
   47.1557    2.8246   64.4025 H   0  0  0  0  0  0
   42.7817    0.1960   67.9393 H   0  0  0  0  0  0
   44.4690   -0.2468   68.3679 H   0  0  0  0  0  0
   44.8007    2.3220   68.6997 H   0  0  0  0  0  0
   43.0068    2.3735   68.7769 H   0  0  0  0  0  0
   43.9958    2.1367   71.0213 H   0  0  0  0  0  0
   44.8295    0.6342   70.4978 H   0  0  0  0  0  0
   43.0356    0.6857   70.5749 H   0  0  0  0  0  0
  1  2  1  0  0  0
  1 35  1  0  0  0
  1 36  1  0  0  0
  1 37  1  0  0  0
  2  3  1  0  0  0
  2 38  1  0  0  0
  2 39  1  0  0  0
  3  4  1  0  0  0
  4  5  2  0  0  0
  4  9  1  0  0  0
  5  6  1  0  0  0
  5 40  1  0  0  0
  6  7  2  0  0  0
  6 41  1  0  0  0
  7  8  1  0  0  0
  7 10  1  0  0  0
  8  9  2  0  0  0
  8 42  1  0  0  0
  9 21  1  0  0  0
 10 11  2  0  0  0
 10 12  2  0  0  0
 10 14  1  0  0  0
 13 20  1  0  0  0
 13 43  1  0  0  0
 13 44  1  0  0  0
 13 45  1  0  0  0
 14 15  1  0  0  0
 14 19  1  0  0  0
 15 16  1  0  0  0
 15 46  1  0  0  0
 15 47  1  0  0  0
 16 17  1  0  0  0
 16 48  1  0  0  0
 16 49  1  0  0  0
 17 18  1  0  0  0
 17 20  1  0  0  0
 18 19  1  0  0  0
 18 50  1  0  0  0
 18 51  1  0  0  0
 19 52  1  0  0  0
 19 53  1  0  0  0
 20 54  1  0  0  0
 20 55  1  0  0  0
 21 22  1  0  0  0
 21 26  2  0  0  0
 22 23  2  0  0  0
 23 24  1  0  0  0
 23 27  1  0  0  0
 24 25  2  0  0  0
 24 28  1  0  0  0
 25 26  1  0  0  0
 25 30  1  0  0  0
 28 29  2  0  0  0
 28 31  1  0  0  0
 29 30  1  0  0  0
 30 32  1  0  0  0
 31 56  1  0  0  0
 31 57  1  0  0  0
 31 58  1  0  0  0
 32 33  1  0  0  0
 32 59  1  0  0  0
 32 60  1  0  0  0
 33 34  1  0  0  0
 33 61  1  0  0  0
 33 62  1  0  0  0
 34 63  1  0  0  0
 34 64  1  0  0  0
 34 65  1  0  0  0
M  CHG  2  25   1  27  -1
M  END
> <s_m_source_file>
../1xot_ligand.sdf

> <i_m_source_file_index>
1

> <s_epik_input>
W0NIM11bQ0gyXVtOSCtdKFtDSDJdW0NIMl0xKVtDSDJdW0NIMl1OMVMoPU8pKD1PKWMoW2NIXVtjSF1jMk9bQ0gyXVtDSDNdKVtjSF1jMi1jKFtuSF1jMz1PKW5bbitdKGMzNClbQ0hdKE49QzRbQ0gzXSlbQ0gyXVtDSDJdW0NIM10=

> <s_epik_cmdline>
J2VwaWtfYXBwJywgJy1pbWFlJywgJ2xpZ2FuZF9wcm8ubWFlJywgJy1vbWFlJywgJ2xpZ2FuZF9wcmVwLm1hZScsICctbXMnLCAnMScsICctcGgnLCAnNycsICctcGh0JywgJzAuNScsICctbnQn

> <r_epik_Ionization_Penalty>
  0.1130

> <r_epik_Ionization_Penalty_Charging>
  0.0000

> <r_epik_Ionization_Penalty_Neutral>
  0.1130

> <r_epik_State_Penalty>
  0.1027

> <r_epik_Charging_Adjusted_Penalty>
0.102695057274137

> <i_epik_Tot_Q>
0

> <i_epik_Tot_abs_Q>
2

> <s_epik_Chemistry_Notes>
This compound has an imine and may undergo hydrolysis.

$$$$
