1xp0_ligand
                    3D
 Schrodinger Suite 2020-3.
 65 68  0  0  1  0            999 V2000
  -17.3110   28.7690   59.4250 C   0  0  0  0  0  0
  -18.4240   27.7500   59.5520 C   0  0  0  0  0  0
  -19.4990   28.3170   60.2890 O   0  0  0  0  0  0
  -20.6790   27.6470   60.5320 C   0  0  0  0  0  0
  -20.8720   26.3220   60.1320 C   0  0  0  0  0  0
  -22.0880   25.7000   60.4070 C   0  0  0  0  0  0
  -23.1120   26.3870   61.0750 C   0  0  0  0  0  0
  -22.9030   27.7070   61.4740 C   0  0  0  0  0  0
  -21.7100   28.3360   61.1660 C   0  0  0  0  0  0
  -24.5130   25.6830   61.4210 S   0  0  0  0  0  0
  -25.6280   26.5010   61.0510 O   0  0  0  0  0  0
  -24.5590   24.4480   60.7000 O   0  0  0  0  0  0
  -23.9260   24.9690   67.8530 C   0  0  0  0  0  0
  -24.6520   25.3890   62.9190 N   0  0  1  0  0  0
  -23.5890   24.5300   63.4650 C   0  0  0  0  0  0
  -23.7010   24.3520   64.9680 C   0  0  0  0  0  0
  -23.9540   25.6730   65.5070 N   0  0  0  0  0  0
  -25.3030   26.1390   65.2360 C   0  0  0  0  0  0
  -25.4770   26.3040   63.7200 C   0  0  0  0  0  0
  -23.3800   25.9480   66.8200 C   0  0  0  0  0  0
  -21.3890   29.7160   61.6140 C   0  0  0  0  0  0
  -21.0380   30.7260   60.6430 N   0  0  0  0  0  0
  -20.9950   32.0290   60.9210 C   0  0  0  0  0  0
  -21.5360   32.3970   62.2430 C   0  0  0  0  0  0
  -21.9910   31.5330   63.1240 N   0  3  0  0  0  0
  -22.0380   30.1810   62.8070 N   0  0  0  0  0  0
  -20.5730   32.8270   60.0980 O   0  5  0  0  0  0
  -21.7100   33.6360   62.8500 C   0  0  0  0  0  0
  -22.2670   33.3890   64.0670 N   0  0  0  0  0  0
  -22.4610   32.0570   64.2250 C   0  0  3  0  0  0
  -21.3840   35.0070   62.3250 C   0  0  0  0  0  0
  -23.0180   31.3240   65.4100 C   0  0  0  0  0  0
  -21.8600   30.6260   66.1240 C   0  0  0  0  0  0
  -22.4100   29.8920   67.3240 C   0  0  0  0  0  0
  -16.4776   28.3326   58.8549 H   0  0  0  0  0  0
  -16.9596   29.0549   60.4274 H   0  0  0  0  0  0
  -17.6874   29.6596   58.9005 H   0  0  0  0  0  0
  -18.7754   27.4641   58.5496 H   0  0  0  0  0  0
  -18.0476   26.8593   60.0765 H   0  0  0  0  0  0
  -20.0812   25.7819   59.6114 H   0  0  0  0  0  0
  -22.2454   24.6663   60.0991 H   0  0  0  0  0  0
  -23.6765   28.2408   62.0262 H   0  0  0  0  0  0
  -23.4843   25.1891   68.8361 H   0  0  0  0  0  0
  -23.6678   23.9416   67.5568 H   0  0  0  0  0  0
  -25.0198   25.0699   67.9115 H   0  0  0  0  0  0
  -23.6473   23.5345   63.0006 H   0  0  0  0  0  0
  -22.6080   24.9784   63.2491 H   0  0  0  0  0  0
  -24.5288   23.6642   65.1951 H   0  0  0  0  0  0
  -22.7608   23.9359   65.3590 H   0  0  0  0  0  0
  -26.0280   25.4040   65.6156 H   0  0  0  0  0  0
  -25.4645   27.1053   65.7361 H   0  0  0  0  0  0
  -25.2146   27.3438   63.4751 H   0  0  0  0  0  0
  -26.5399   26.1314   63.4952 H   0  0  0  0  0  0
  -23.6382   26.9754   67.1162 H   0  0  0  0  0  0
  -22.2862   25.8472   66.7615 H   0  0  0  0  0  0
  -20.9440   34.9199   61.3206 H   0  0  0  0  0  0
  -20.6654   35.4964   62.9989 H   0  0  0  0  0  0
  -22.3041   35.6075   62.2715 H   0  0  0  0  0  0
  -23.5051   32.0400   66.0883 H   0  0  0  0  0  0
  -23.7553   30.5823   65.0690 H   0  0  0  0  0  0
  -21.3805   29.9143   65.4358 H   0  0  0  0  0  0
  -21.1233   31.3760   66.4477 H   0  0  0  0  0  0
  -21.5891   29.3831   67.8505 H   0  0  0  0  0  0
  -23.1493   29.1483   66.9918 H   0  0  0  0  0  0
  -22.8922   30.6100   68.0037 H   0  0  0  0  0  0
  1  2  1  0  0  0
  1 35  1  0  0  0
  1 36  1  0  0  0
  1 37  1  0  0  0
  2  3  1  0  0  0
  2 38  1  0  0  0
  2 39  1  0  0  0
  3  4  1  0  0  0
  4  5  2  0  0  0
  4  9  1  0  0  0
  5  6  1  0  0  0
  5 40  1  0  0  0
  6  7  2  0  0  0
  6 41  1  0  0  0
  7  8  1  0  0  0
  7 10  1  0  0  0
  8  9  2  0  0  0
  8 42  1  0  0  0
  9 21  1  0  0  0
 10 11  2  0  0  0
 10 12  2  0  0  0
 10 14  1  0  0  0
 13 20  1  0  0  0
 13 43  1  0  0  0
 13 44  1  0  0  0
 13 45  1  0  0  0
 14 15  1  0  0  0
 14 19  1  0  0  0
 15 16  1  0  0  0
 15 46  1  0  0  0
 15 47  1  0  0  0
 16 17  1  0  0  0
 16 48  1  0  0  0
 16 49  1  0  0  0
 17 18  1  0  0  0
 17 20  1  0  0  0
 18 19  1  0  0  0
 18 50  1  0  0  0
 18 51  1  0  0  0
 19 52  1  0  0  0
 19 53  1  0  0  0
 20 54  1  0  0  0
 20 55  1  0  0  0
 21 22  1  0  0  0
 21 26  2  0  0  0
 22 23  2  0  0  0
 23 24  1  0  0  0
 23 27  1  0  0  0
 24 25  2  0  0  0
 24 28  1  0  0  0
 25 26  1  0  0  0
 25 30  1  0  0  0
 28 29  2  0  0  0
 28 31  1  0  0  0
 29 30  1  0  0  0
 30 32  1  0  0  0
 31 56  1  0  0  0
 31 57  1  0  0  0
 31 58  1  0  0  0
 32 33  1  0  0  0
 32 59  1  0  0  0
 32 60  1  0  0  0
 33 34  1  0  0  0
 33 61  1  0  0  0
 33 62  1  0  0  0
 34 63  1  0  0  0
 34 64  1  0  0  0
 34 65  1  0  0  0
M  CHG  2  25   1  27  -1
M  END
> <s_m_source_file>
../1xp0_ligand.sdf

> <i_m_source_file_index>
1

> <s_epik_input>
W0NIM11bQ0gyXVtOSCtdKFtDSDJdW0NIMl0xKVtDSDJdW0NIMl1OMVMoPU8pKD1PKWMoW2NIXVtjSF1jMk9bQ0gyXVtDSDNdKVtjSF1jMi1jKFtuSF1jMz1PKW5bbitdKGMzNClbQ0hdKE49QzRbQ0gzXSlbQ0gyXVtDSDJdW0NIM10=

> <s_epik_cmdline>
J2VwaWtfYXBwJywgJy1pbWFlJywgJ2xpZ2FuZF9wcm8ubWFlJywgJy1vbWFlJywgJ2xpZ2FuZF9wcmVwLm1hZScsICctbXMnLCAnMScsICctcGgnLCAnNycsICctcGh0JywgJzAuNScsICctbnQn

> <r_epik_Ionization_Penalty>
  0.1130

> <r_epik_Ionization_Penalty_Charging>
  0.0000

> <r_epik_Ionization_Penalty_Neutral>
  0.1130

> <r_epik_State_Penalty>
  0.1027

> <r_epik_Charging_Adjusted_Penalty>
0.102695057274137

> <i_epik_Tot_Q>
0

> <i_epik_Tot_abs_Q>
2

> <s_epik_Chemistry_Notes>
This compound has an imine and may undergo hydrolysis.

$$$$
