1xp1_ligand
                    3D
 Schrodinger Suite 2020-3.
 66 70  0  0  1  0            999 V2000
   31.0200   -0.1590   28.8830 C   0  0  2  0  0  0
   31.2290   -1.6020   28.3540 C   0  0  1  0  0  0
   29.9990   -2.3260   28.6030 O   0  0  0  0  0  0
   28.7870   -1.9020   28.1250 C   0  0  0  0  0  0
   27.8770   -2.9010   27.8170 C   0  0  0  0  0  0
   26.6200   -2.5960   27.2970 C   0  0  0  0  0  0
   26.2510   -1.2290   27.1610 C   0  0  0  0  0  0
   25.0100   -0.9830   26.6580 O   0  0  0  0  0  0
   27.1760   -0.2260   27.4850 C   0  0  0  0  0  0
   28.4710   -0.5330   27.9000 C   0  0  0  0  0  0
   29.4850    0.5350   28.2710 S   0  0  0  0  0  0
   32.3210    0.5570   28.5810 C   0  0  0  0  0  0
   32.5280    1.3640   27.4550 C   0  0  0  0  0  0
   33.7900    1.9610   27.3250 C   0  0  0  0  0  0
   34.8180    1.7460   28.2770 C   0  0  0  0  0  0
   36.0360    2.3080   28.1080 O   0  0  0  0  0  0
   34.6020    0.9470   29.4060 C   0  0  0  0  0  0
   33.3320    0.3420   29.5310 C   0  0  0  0  0  0
   31.6000   -1.7960   26.8740 C   0  0  0  0  0  0
   32.5980   -2.7670   26.6020 C   0  0  0  0  0  0
   33.0380   -3.0360   25.3010 C   0  0  0  0  0  0
   32.4280   -2.3410   24.2250 C   0  0  0  0  0  0
   31.4720   -1.3810   24.4850 C   0  0  0  0  0  0
   31.0490   -1.0880   25.8190 C   0  0  0  0  0  0
   32.8320   -2.5750   22.9510 O   0  0  0  0  0  0
   33.6620   -3.7020   22.6190 C   0  0  0  0  0  0
   33.8330   -3.8100   21.0910 C   0  0  0  0  0  0
   32.6000   -4.0420   20.3000 N   0  3  2  0  0  0
   33.0510   -4.0280   18.8880 C   0  0  0  0  0  0
   31.7120   -3.8610   18.1380 C   0  0  2  0  0  0
   31.8860   -3.5740   16.6460 C   0  0  0  0  0  0
   31.1200   -2.6760   18.9190 C   0  0  1  0  0  0
   29.5960   -2.6780   18.7890 C   0  0  0  0  0  0
   31.6110   -2.9360   20.3690 C   0  0  0  0  0  0
   31.0390   -0.1339   29.9825 H   0  0  0  0  0  0
   32.0793   -2.0200   28.9129 H   0  0  0  0  0  0
   28.1489   -3.9432   27.9843 H   0  0  0  0  0  0
   25.9337   -3.3892   27.0006 H   0  0  0  0  0  0
   24.3348   -1.8198   26.4260 H   0  0  0  0  0  0
   26.8751    0.8190   27.4105 H   0  0  0  0  0  0
   31.7441    1.5207   26.7140 H   0  0  0  0  0  0
   33.9857    2.6074   26.4694 H   0  0  0  0  0  0
   36.2329    2.9403   27.2297 H   0  0  0  0  0  0
   35.3795    0.7984   30.1553 H   0  0  0  0  0  0
   33.1323   -0.3064   30.3841 H   0  0  0  0  0  0
   33.0358   -3.3209   27.4324 H   0  0  0  0  0  0
   33.8303   -3.7620   25.1187 H   0  0  0  0  0  0
   31.0286   -0.8328   23.6537 H   0  0  0  0  0  0
   30.3016   -0.3164   26.0035 H   0  0  0  0  0  0
   34.6517   -3.5778   23.0828 H   0  0  0  0  0  0
   33.1947   -4.6246   22.9937 H   0  0  0  0  0  0
   34.2663   -2.8761   20.7036 H   0  0  0  0  0  0
   34.5027   -4.6502   20.8555 H   0  0  0  0  0  0
   32.1273   -4.9616   20.6754 H   0  0  0  0  0  0
   33.7440   -3.1880   18.7328 H   0  0  0  0  0  0
   33.5635   -4.9736   18.6574 H   0  0  0  0  0  0
   31.0779   -4.7595   18.1111 H   0  0  0  0  0  0
   32.3116   -4.4586   16.1497 H   0  0  0  0  0  0
   32.5639   -2.7178   16.5139 H   0  0  0  0  0  0
   30.9077   -3.3391   16.2013 H   0  0  0  0  0  0
   31.4221   -1.6848   18.5498 H   0  0  0  0  0  0
   29.3171   -2.4889   17.7419 H   0  0  0  0  0  0
   29.1724   -1.8902   19.4293 H   0  0  0  0  0  0
   29.2026   -3.6563   19.1024 H   0  0  0  0  0  0
   30.7727   -3.2336   21.0160 H   0  0  0  0  0  0
   32.0931   -2.0383   20.7833 H   0  0  0  0  0  0
  1  2  1  0  0  0
  1 11  1  0  0  0
  1 12  1  0  0  0
  1 35  1  0  0  0
  2  3  1  0  0  0
  2 19  1  0  0  0
  2 36  1  0  0  0
  3  4  1  0  0  0
  4  5  2  0  0  0
  4 10  1  0  0  0
  5  6  1  0  0  0
  5 37  1  0  0  0
  6  7  2  0  0  0
  6 38  1  0  0  0
  7  8  1  0  0  0
  7  9  1  0  0  0
  8 39  1  0  0  0
  9 10  2  0  0  0
  9 40  1  0  0  0
 10 11  1  0  0  0
 12 13  2  0  0  0
 12 18  1  0  0  0
 13 14  1  0  0  0
 13 41  1  0  0  0
 14 15  2  0  0  0
 14 42  1  0  0  0
 15 16  1  0  0  0
 15 17  1  0  0  0
 16 43  1  0  0  0
 17 18  2  0  0  0
 17 44  1  0  0  0
 18 45  1  0  0  0
 19 20  2  0  0  0
 19 24  1  0  0  0
 20 21  1  0  0  0
 20 46  1  0  0  0
 21 22  2  0  0  0
 21 47  1  0  0  0
 22 23  1  0  0  0
 22 25  1  0  0  0
 23 24  2  0  0  0
 23 48  1  0  0  0
 24 49  1  0  0  0
 25 26  1  0  0  0
 26 27  1  0  0  0
 26 50  1  0  0  0
 26 51  1  0  0  0
 27 28  1  0  0  0
 27 52  1  0  0  0
 27 53  1  0  0  0
 28 29  1  0  0  0
 28 34  1  0  0  0
 28 54  1  0  0  0
 29 30  1  0  0  0
 29 55  1  0  0  0
 29 56  1  0  0  0
 30 31  1  0  0  0
 30 32  1  0  0  0
 30 57  1  0  0  0
 31 58  1  0  0  0
 31 59  1  0  0  0
 31 60  1  0  0  0
 32 33  1  0  0  0
 32 34  1  0  0  0
 32 61  1  0  0  0
 33 62  1  0  0  0
 33 63  1  0  0  0
 33 64  1  0  0  0
 34 65  1  0  0  0
 34 66  1  0  0  0
M  CHG  1  28   1
M  END
> <s_m_source_file>
../1xp1_ligand.sdf

> <i_m_source_file_index>
1

> <s_epik_input>
W2NIXTFbY0hdYyhbT0hdKVtjSF1jKGMxMilTW0NASF0oYzNbY0hdW2NIXWMoW09IXSlbY0hdW2NIXTMpW0NAQEhdKE8yKWM0W2NIXVtjSF1jKFtjSF1bY0hdNClPW0NIMl1bQ0gyXVtOQEBIK101W0NIMl1bQ0BIXShbQ0gzXSlbQ0BASF0oW0NIM10pW0NIMl01

> <s_epik_cmdline>
J2VwaWtfYXBwJywgJy1pbWFlJywgJ2xpZ2FuZF9wcm8ubWFlJywgJy1vbWFlJywgJ2xpZ2FuZF9wcmVwLm1hZScsICctbXMnLCAnMScsICctcGgnLCAnNycsICctcGh0JywgJzAuNScsICctbnQn

> <r_lp_tautomer_probability>
1

> <r_epik_Ionization_Penalty>
  0.0118

> <r_epik_Ionization_Penalty_Charging>
  0.0070

> <r_epik_Ionization_Penalty_Neutral>
  0.0049

> <r_epik_State_Penalty>
 -0.0000

> <r_epik_Charging_Adjusted_Penalty>
0.00699285472182233

> <i_epik_Tot_Q>
1

> <i_epik_Tot_abs_Q>
1

$$$$
