1xp6_ligand
                    3D
 Schrodinger Suite 2020-3.
 66 70  0  0  1  0            999 V2000
   31.0270   -0.1900   28.7830 C   0  0  2  0  0  0
   31.2250   -1.6340   28.2420 C   0  0  1  0  0  0
   30.0210   -2.3830   28.5070 O   0  0  0  0  0  0
   28.8010   -1.9190   28.0510 C   0  0  0  0  0  0
   27.8900   -2.9280   27.7530 C   0  0  0  0  0  0
   26.6110   -2.6360   27.2660 C   0  0  0  0  0  0
   26.2660   -1.2640   27.1360 C   0  0  0  0  0  0
   25.0400   -0.9700   26.6450 O   0  0  0  0  0  0
   27.1900   -0.2550   27.4600 C   0  0  0  0  0  0
   28.4850   -0.5530   27.8910 C   0  0  0  0  0  0
   29.5020    0.5530   28.1750 S   0  0  0  0  0  0
   32.3330    0.5290   28.4880 C   0  0  0  0  0  0
   32.5040    1.3730   27.3770 C   0  0  0  0  0  0
   33.7600    1.9730   27.2170 C   0  0  0  0  0  0
   34.7850    1.7270   28.1480 C   0  0  0  0  0  0
   36.0150    2.2430   27.9460 O   0  0  0  0  0  0
   34.5960    0.9020   29.2720 C   0  0  0  0  0  0
   33.3440    0.2940   29.4330 C   0  0  0  0  0  0
   31.5760   -1.8410   26.7630 C   0  0  0  0  0  0
   32.4990   -2.8610   26.4620 C   0  0  0  0  0  0
   32.8860   -3.1410   25.1300 C   0  0  0  0  0  0
   32.3380   -2.4080   24.0670 C   0  0  0  0  0  0
   31.4570   -1.3750   24.3620 C   0  0  0  0  0  0
   31.0550   -1.1170   25.6860 C   0  0  0  0  0  0
   32.7200   -2.6100   22.7790 O   0  0  0  0  0  0
   33.3950   -3.8340   22.4390 C   0  0  0  0  0  0
   33.7950   -3.9440   20.9580 C   0  0  0  0  0  0
   32.6910   -4.0790   19.9940 N   0  3  2  0  0  0
   33.3300   -4.1290   18.6540 C   0  0  0  0  0  0
   32.2840   -3.5570   17.6700 C   0  0  1  0  0  0
   31.8080   -4.6130   16.6500 C   0  0  0  0  0  0
   31.0980   -3.1780   18.5790 C   0  0  2  0  0  0
   30.3090   -1.9930   18.0100 C   0  0  0  0  0  0
   31.7990   -2.9000   19.9220 C   0  0  0  0  0  0
   31.0430   -0.2037   29.8828 H   0  0  0  0  0  0
   32.0877   -2.0346   28.7945 H   0  0  0  0  0  0
   28.1790   -3.9683   27.9022 H   0  0  0  0  0  0
   25.9101   -3.4266   26.9981 H   0  0  0  0  0  0
   24.3369   -1.7798   26.4000 H   0  0  0  0  0  0
   26.8876    0.7885   27.3725 H   0  0  0  0  0  0
   31.6940    1.5530   26.6701 H   0  0  0  0  0  0
   33.9432    2.6323   26.3686 H   0  0  0  0  0  0
   36.2032    2.8927   27.0786 H   0  0  0  0  0  0
   35.3970    0.7412   29.9935 H   0  0  0  0  0  0
   33.1563   -0.3573   30.2866 H   0  0  0  0  0  0
   32.9256   -3.4490   27.2746 H   0  0  0  0  0  0
   33.6122   -3.9287   24.9294 H   0  0  0  0  0  0
   31.0705   -0.7536   23.5542 H   0  0  0  0  0  0
   30.3204   -0.3345   25.8763 H   0  0  0  0  0  0
   34.3190   -3.9194   23.0297 H   0  0  0  0  0  0
   32.7384   -4.6884   22.6599 H   0  0  0  0  0  0
   34.3490   -3.0416   20.6598 H   0  0  0  0  0  0
   34.4320   -4.8293   20.8150 H   0  0  0  0  0  0
   32.1016   -4.9544   20.3043 H   0  0  0  0  0  0
   34.2464   -3.5206   18.6619 H   0  0  0  0  0  0
   33.5836   -5.1706   18.4073 H   0  0  0  0  0  0
   32.6963   -2.7211   17.0858 H   0  0  0  0  0  0
   32.6455   -4.8928   15.9941 H   0  0  0  0  0  0
   30.9911   -4.1948   16.0435 H   0  0  0  0  0  0
   31.4481   -5.5039   17.1855 H   0  0  0  0  0  0
   30.3182   -3.9479   18.6749 H   0  0  0  0  0  0
   29.8465   -2.2849   17.0556 H   0  0  0  0  0  0
   30.9899   -1.1453   17.8434 H   0  0  0  0  0  0
   29.5246   -1.6987   18.7228 H   0  0  0  0  0  0
   31.1215   -2.8994   20.7886 H   0  0  0  0  0  0
   32.4041   -1.9814   19.9291 H   0  0  0  0  0  0
  1  2  1  0  0  0
  1 11  1  0  0  0
  1 12  1  0  0  0
  1 35  1  0  0  0
  2  3  1  0  0  0
  2 19  1  0  0  0
  2 36  1  0  0  0
  3  4  1  0  0  0
  4  5  2  0  0  0
  4 10  1  0  0  0
  5  6  1  0  0  0
  5 37  1  0  0  0
  6  7  2  0  0  0
  6 38  1  0  0  0
  7  8  1  0  0  0
  7  9  1  0  0  0
  8 39  1  0  0  0
  9 10  2  0  0  0
  9 40  1  0  0  0
 10 11  1  0  0  0
 12 13  2  0  0  0
 12 18  1  0  0  0
 13 14  1  0  0  0
 13 41  1  0  0  0
 14 15  2  0  0  0
 14 42  1  0  0  0
 15 16  1  0  0  0
 15 17  1  0  0  0
 16 43  1  0  0  0
 17 18  2  0  0  0
 17 44  1  0  0  0
 18 45  1  0  0  0
 19 20  2  0  0  0
 19 24  1  0  0  0
 20 21  1  0  0  0
 20 46  1  0  0  0
 21 22  2  0  0  0
 21 47  1  0  0  0
 22 23  1  0  0  0
 22 25  1  0  0  0
 23 24  2  0  0  0
 23 48  1  0  0  0
 24 49  1  0  0  0
 25 26  1  0  0  0
 26 27  1  0  0  0
 26 50  1  0  0  0
 26 51  1  0  0  0
 27 28  1  0  0  0
 27 52  1  0  0  0
 27 53  1  0  0  0
 28 29  1  0  0  0
 28 34  1  0  0  0
 28 54  1  0  0  0
 29 30  1  0  0  0
 29 55  1  0  0  0
 29 56  1  0  0  0
 30 31  1  0  0  0
 30 32  1  0  0  0
 30 57  1  0  0  0
 31 58  1  0  0  0
 31 59  1  0  0  0
 31 60  1  0  0  0
 32 33  1  0  0  0
 32 34  1  0  0  0
 32 61  1  0  0  0
 33 62  1  0  0  0
 33 63  1  0  0  0
 33 64  1  0  0  0
 34 65  1  0  0  0
 34 66  1  0  0  0
M  CHG  1  28   1
M  END
> <s_m_source_file>
../1xp6_ligand.sdf

> <i_m_source_file_index>
1

> <s_epik_input>
W2NIXTFbY0hdYyhbT0hdKVtjSF1jKGMxMilTW0NASF0oYzNbY0hdW2NIXWMoW09IXSlbY0hdW2NIXTMpW0NAQEhdKE8yKWM0W2NIXVtjSF1jKFtjSF1bY0hdNClPW0NIMl1bQ0gyXVtOQEBIK101W0NIMl1bQ0BASF0oW0NIM10pW0NASF0oW0NIM10pW0NIMl01

> <s_epik_cmdline>
J2VwaWtfYXBwJywgJy1pbWFlJywgJ2xpZ2FuZF9wcm8ubWFlJywgJy1vbWFlJywgJ2xpZ2FuZF9wcmVwLm1hZScsICctbXMnLCAnMScsICctcGgnLCAnNycsICctcGh0JywgJzAuNScsICctbnQn

> <r_lp_tautomer_probability>
1

> <r_epik_Ionization_Penalty>
  0.0118

> <r_epik_Ionization_Penalty_Charging>
  0.0070

> <r_epik_Ionization_Penalty_Neutral>
  0.0049

> <r_epik_State_Penalty>
 -0.0000

> <r_epik_Charging_Adjusted_Penalty>
0.00699285472182233

> <i_epik_Tot_Q>
1

> <i_epik_Tot_abs_Q>
1

$$$$
