1xp9_ligand
                    3D
 Schrodinger Suite 2020-3.
 63 67  0  0  1  0            999 V2000
   31.1360   -0.2850   28.6940 C   0  0  2  0  0  0
   31.2950   -1.7190   28.1530 C   0  0  1  0  0  0
   30.0630   -2.4370   28.4040 O   0  0  0  0  0  0
   28.8690   -1.9850   27.9520 C   0  0  0  0  0  0
   27.9440   -2.9910   27.6600 C   0  0  0  0  0  0
   26.6930   -2.6550   27.1630 C   0  0  0  0  0  0
   26.3510   -1.3020   27.0590 C   0  0  0  0  0  0
   25.1290   -1.0050   26.5700 O   0  0  0  0  0  0
   27.2910   -0.3120   27.3510 C   0  0  0  0  0  0
   28.5930   -0.6260   27.7340 C   0  0  0  0  0  0
   29.6230    0.4540   28.0710 S   0  0  0  0  0  0
   32.4330    0.4380   28.4150 C   0  0  0  0  0  0
   32.6620    1.2840   27.3150 C   0  0  0  0  0  0
   33.9100    1.8730   27.1470 C   0  0  0  0  0  0
   34.9420    1.6480   28.0870 C   0  0  0  0  0  0
   36.1450    2.2380   27.9740 O   0  0  0  0  0  0
   34.7100    0.8310   29.2040 C   0  0  0  0  0  0
   33.4530    0.2370   29.3560 C   0  0  0  0  0  0
   31.6520   -1.9240   26.6840 C   0  0  0  0  0  0
   32.4950   -2.9860   26.3360 C   0  0  0  0  0  0
   32.8720   -3.2650   25.0010 C   0  0  0  0  0  0
   32.4110   -2.4520   23.9480 C   0  0  0  0  0  0
   31.5630   -1.3830   24.3090 C   0  0  0  0  0  0
   31.1840   -1.1260   25.6300 C   0  0  0  0  0  0
   32.7620   -2.6460   22.6350 O   0  0  0  0  0  0
   33.3630   -3.9180   22.2850 C   0  0  0  0  0  0
   33.8170   -4.1220   20.7900 C   0  0  2  0  0  0
   34.6270   -2.8600   20.5950 C   0  0  0  0  0  0
   32.7160   -4.2020   19.7730 N   0  3  0  0  0  0
   33.0520   -3.9170   18.3300 C   0  0  0  0  0  0
   31.7550   -3.3470   17.6770 C   0  0  0  0  0  0
   30.7560   -3.3120   18.8490 C   0  0  0  0  0  0
   31.6690   -3.2350   20.0840 C   0  0  0  0  0  0
   31.1794   -0.3063   29.7929 H   0  0  0  0  0  0
   32.1455   -2.1393   28.7098 H   0  0  0  0  0  0
   28.2047   -4.0369   27.8223 H   0  0  0  0  0  0
   25.9897   -3.4304   26.8592 H   0  0  0  0  0  0
   24.4133   -1.8112   26.3513 H   0  0  0  0  0  0
   26.9981    0.7353   27.2773 H   0  0  0  0  0  0
   31.8645    1.4770   26.5974 H   0  0  0  0  0  0
   34.0943    2.5131   26.2842 H   0  0  0  0  0  0
   36.3614    2.8851   27.1112 H   0  0  0  0  0  0
   35.4957    0.6623   29.9404 H   0  0  0  0  0  0
   33.2624   -0.3949   30.2234 H   0  0  0  0  0  0
   32.8785   -3.6273   27.1296 H   0  0  0  0  0  0
   33.5223   -4.1132   24.7869 H   0  0  0  0  0  0
   31.1868   -0.7285   23.5227 H   0  0  0  0  0  0
   30.5146   -0.2928   25.8439 H   0  0  0  0  0  0
   34.2700   -4.0732   22.8877 H   0  0  0  0  0  0
   32.6471   -4.7290   22.4844 H   0  0  0  0  0  0
   34.3296   -5.0756   20.5953 H   0  0  0  0  0  0
   35.4279   -2.8184   21.3478 H   0  0  0  0  0  0
   33.9724   -1.9832   20.7072 H   0  0  0  0  0  0
   35.0699   -2.8605   19.5881 H   0  0  0  0  0  0
   32.4080   -5.2541   19.8638 H   0  0  0  0  0  0
   33.8709   -3.1841   18.2821 H   0  0  0  0  0  0
   33.3643   -4.8485   17.8353 H   0  0  0  0  0  0
   31.9595   -2.3464   17.2684 H   0  0  0  0  0  0
   31.4289   -4.0147   16.8659 H   0  0  0  0  0  0
   30.1053   -2.4306   18.7500 H   0  0  0  0  0  0
   30.1419   -4.2245   18.8348 H   0  0  0  0  0  0
   31.1564   -3.5347   21.0100 H   0  0  0  0  0  0
   32.1174   -2.2396   20.2188 H   0  0  0  0  0  0
  1  2  1  0  0  0
  1 11  1  0  0  0
  1 12  1  0  0  0
  1 34  1  0  0  0
  2  3  1  0  0  0
  2 19  1  0  0  0
  2 35  1  0  0  0
  3  4  1  0  0  0
  4  5  2  0  0  0
  4 10  1  0  0  0
  5  6  1  0  0  0
  5 36  1  0  0  0
  6  7  2  0  0  0
  6 37  1  0  0  0
  7  8  1  0  0  0
  7  9  1  0  0  0
  8 38  1  0  0  0
  9 10  2  0  0  0
  9 39  1  0  0  0
 10 11  1  0  0  0
 12 13  2  0  0  0
 12 18  1  0  0  0
 13 14  1  0  0  0
 13 40  1  0  0  0
 14 15  2  0  0  0
 14 41  1  0  0  0
 15 16  1  0  0  0
 15 17  1  0  0  0
 16 42  1  0  0  0
 17 18  2  0  0  0
 17 43  1  0  0  0
 18 44  1  0  0  0
 19 20  2  0  0  0
 19 24  1  0  0  0
 20 21  1  0  0  0
 20 45  1  0  0  0
 21 22  2  0  0  0
 21 46  1  0  0  0
 22 23  1  0  0  0
 22 25  1  0  0  0
 23 24  2  0  0  0
 23 47  1  0  0  0
 24 48  1  0  0  0
 25 26  1  0  0  0
 26 27  1  0  0  0
 26 49  1  0  0  0
 26 50  1  0  0  0
 27 28  1  0  0  0
 27 29  1  0  0  0
 27 51  1  0  0  0
 28 52  1  0  0  0
 28 53  1  0  0  0
 28 54  1  0  0  0
 29 30  1  0  0  0
 29 33  1  0  0  0
 29 55  1  0  0  0
 30 31  1  0  0  0
 30 56  1  0  0  0
 30 57  1  0  0  0
 31 32  1  0  0  0
 31 58  1  0  0  0
 31 59  1  0  0  0
 32 33  1  0  0  0
 32 60  1  0  0  0
 32 61  1  0  0  0
 33 62  1  0  0  0
 33 63  1  0  0  0
M  CHG  1  29   1
M  END
> <s_m_source_file>
../1xp9_ligand.sdf

> <i_m_source_file_index>
1

> <s_epik_input>
W2NIXTFbY0hdYyhbT0hdKVtjSF1jKGMxMilTW0NASF0oYzNbY0hdW2NIXWMoW09IXSlbY0hdW2NIXTMpW0NAQEhdKE8yKWM0W2NIXVtjSF1jKFtjSF1bY0hdNClPW0NIMl1bQ0BIXShbQ0gzXSlbTkgrXTVbQ0gyXVtDSDJdW0NIMl1bQ0gyXTU=

> <s_epik_cmdline>
J2VwaWtfYXBwJywgJy1pbWFlJywgJ2xpZ2FuZF9wcm8ubWFlJywgJy1vbWFlJywgJ2xpZ2FuZF9wcmVwLm1hZScsICctbXMnLCAnMScsICctcGgnLCAnNycsICctcGh0JywgJzAuNScsICctbnQn

> <r_lp_tautomer_probability>
1

> <r_epik_Ionization_Penalty>
  0.0074

> <r_epik_Ionization_Penalty_Charging>
  0.0025

> <r_epik_Ionization_Penalty_Neutral>
  0.0049

> <r_epik_State_Penalty>
 -0.0000

> <r_epik_Charging_Adjusted_Penalty>
0.00253682109346345

> <i_epik_Tot_Q>
1

> <i_epik_Tot_abs_Q>
1

$$$$
