1xpc_ligand
                    3D
 Schrodinger Suite 2020-3.
 63 67  0  0  1  0            999 V2000
   31.2360   -0.3230   28.9130 C   0  0  2  0  0  0
   31.3560   -1.7210   28.2890 C   0  0  1  0  0  0
   30.1370   -2.4730   28.5440 O   0  0  0  0  0  0
   28.9570   -1.9550   28.1010 C   0  0  0  0  0  0
   28.0570   -2.9720   27.7510 C   0  0  0  0  0  0
   26.8160   -2.6120   27.2910 C   0  0  0  0  0  0
   26.4850   -1.2490   27.1580 C   0  0  0  0  0  0
   25.2240   -1.0180   26.7530 O   0  0  0  0  0  0
   27.3860   -0.2500   27.5540 C   0  0  0  0  0  0
   28.6760   -0.5870   27.9840 C   0  0  0  0  0  0
   29.7200    0.4830   28.3560 S   0  0  0  0  0  0
   32.5450    0.3830   28.6300 C   0  0  0  0  0  0
   32.7400    1.2430   27.5380 C   0  0  0  0  0  0
   33.9970    1.8250   27.3600 C   0  0  0  0  0  0
   35.0610    1.5840   28.2530 C   0  0  0  0  0  0
   36.2770    2.1500   28.0980 O   0  0  0  0  0  0
   34.8610    0.7370   29.3560 C   0  0  0  0  0  0
   33.5910    0.1750   29.5280 C   0  0  0  0  0  0
   31.7050   -1.8730   26.8200 C   0  0  0  0  0  0
   32.6080   -2.8710   26.4350 C   0  0  0  0  0  0
   32.9890   -3.1360   25.1010 C   0  0  0  0  0  0
   32.4950   -2.3050   24.0900 C   0  0  0  0  0  0
   31.5950   -1.2900   24.4580 C   0  0  0  0  0  0
   31.1880   -1.0920   25.7670 C   0  0  0  0  0  0
   32.7880   -2.4670   22.7870 O   0  0  0  0  0  0
   33.2980   -3.7290   22.3210 C   0  0  0  0  0  0
   33.6970   -3.6680   20.8220 C   0  0  1  0  0  0
   34.6260   -4.8430   20.6060 C   0  0  0  0  0  0
   32.5710   -3.8810   19.8960 N   0  3  0  0  0  0
   32.7060   -3.1840   18.5880 C   0  0  0  0  0  0
   31.2640   -2.9080   18.1050 C   0  0  0  0  0  0
   30.3740   -3.4510   19.2220 C   0  0  0  0  0  0
   31.3250   -3.3590   20.4480 C   0  0  0  0  0  0
   31.3011   -0.4082   30.0078 H   0  0  0  0  0  0
   32.2245   -2.1544   28.8066 H   0  0  0  0  0  0
   28.3365   -4.0216   27.8422 H   0  0  0  0  0  0
   26.0872   -3.3790   27.0288 H   0  0  0  0  0  0
   24.5785   -1.8583   26.4579 H   0  0  0  0  0  0
   27.0805    0.7960   27.5270 H   0  0  0  0  0  0
   31.9268    1.4524   26.8430 H   0  0  0  0  0  0
   34.1599    2.4838   26.5070 H   0  0  0  0  0  0
   36.4679    2.8184   27.2454 H   0  0  0  0  0  0
   35.6694    0.5244   30.0556 H   0  0  0  0  0  0
   33.4119   -0.4521   30.4013 H   0  0  0  0  0  0
   33.0479   -3.4867   27.2196 H   0  0  0  0  0  0
   33.6522   -3.9682   24.8649 H   0  0  0  0  0  0
   31.2018   -0.6327   23.6825 H   0  0  0  0  0  0
   30.4536   -0.3171   25.9870 H   0  0  0  0  0  0
   34.1886   -4.0030   22.9057 H   0  0  0  0  0  0
   32.5267   -4.5038   22.4429 H   0  0  0  0  0  0
   34.1050   -2.6761   20.5776 H   0  0  0  0  0  0
   35.4971   -4.7488   21.2711 H   0  0  0  0  0  0
   34.9637   -4.8558   19.5592 H   0  0  0  0  0  0
   34.0925   -5.7783   20.8307 H   0  0  0  0  0  0
   32.5596   -4.9733   19.7663 H   0  0  0  0  0  0
   33.2655   -2.2473   18.7277 H   0  0  0  0  0  0
   33.2458   -3.8316   17.8814 H   0  0  0  0  0  0
   31.1264   -1.8262   17.9608 H   0  0  0  0  0  0
   31.0902   -3.4299   17.1524 H   0  0  0  0  0  0
   29.4787   -2.8190   19.3174 H   0  0  0  0  0  0
   30.0718   -4.4811   18.9821 H   0  0  0  0  0  0
   31.0060   -3.9881   21.2921 H   0  0  0  0  0  0
   31.4824   -2.3281   20.7980 H   0  0  0  0  0  0
  1  2  1  0  0  0
  1 11  1  0  0  0
  1 12  1  0  0  0
  1 34  1  0  0  0
  2  3  1  0  0  0
  2 19  1  0  0  0
  2 35  1  0  0  0
  3  4  1  0  0  0
  4  5  2  0  0  0
  4 10  1  0  0  0
  5  6  1  0  0  0
  5 36  1  0  0  0
  6  7  2  0  0  0
  6 37  1  0  0  0
  7  8  1  0  0  0
  7  9  1  0  0  0
  8 38  1  0  0  0
  9 10  2  0  0  0
  9 39  1  0  0  0
 10 11  1  0  0  0
 12 13  2  0  0  0
 12 18  1  0  0  0
 13 14  1  0  0  0
 13 40  1  0  0  0
 14 15  2  0  0  0
 14 41  1  0  0  0
 15 16  1  0  0  0
 15 17  1  0  0  0
 16 42  1  0  0  0
 17 18  2  0  0  0
 17 43  1  0  0  0
 18 44  1  0  0  0
 19 20  2  0  0  0
 19 24  1  0  0  0
 20 21  1  0  0  0
 20 45  1  0  0  0
 21 22  2  0  0  0
 21 46  1  0  0  0
 22 23  1  0  0  0
 22 25  1  0  0  0
 23 24  2  0  0  0
 23 47  1  0  0  0
 24 48  1  0  0  0
 25 26  1  0  0  0
 26 27  1  0  0  0
 26 49  1  0  0  0
 26 50  1  0  0  0
 27 28  1  0  0  0
 27 29  1  0  0  0
 27 51  1  0  0  0
 28 52  1  0  0  0
 28 53  1  0  0  0
 28 54  1  0  0  0
 29 30  1  0  0  0
 29 33  1  0  0  0
 29 55  1  0  0  0
 30 31  1  0  0  0
 30 56  1  0  0  0
 30 57  1  0  0  0
 31 32  1  0  0  0
 31 58  1  0  0  0
 31 59  1  0  0  0
 32 33  1  0  0  0
 32 60  1  0  0  0
 32 61  1  0  0  0
 33 62  1  0  0  0
 33 63  1  0  0  0
M  CHG  1  29   1
M  END
> <s_m_source_file>
../1xpc_ligand.sdf

> <i_m_source_file_index>
1

> <s_epik_input>
W2NIXTFbY0hdYyhbT0hdKVtjSF1jKGMxMilTW0NASF0oYzNbY0hdW2NIXWMoW09IXSlbY0hdW2NIXTMpW0NAQEhdKE8yKWM0W2NIXVtjSF1jKFtjSF1bY0hdNClPW0NIMl1bQ0BASF0oW0NIM10pW05IK101W0NIMl1bQ0gyXVtDSDJdW0NIMl01

> <s_epik_cmdline>
J2VwaWtfYXBwJywgJy1pbWFlJywgJ2xpZ2FuZF9wcm8ubWFlJywgJy1vbWFlJywgJ2xpZ2FuZF9wcmVwLm1hZScsICctbXMnLCAnMScsICctcGgnLCAnNycsICctcGh0JywgJzAuNScsICctbnQn

> <r_lp_tautomer_probability>
1

> <r_epik_Ionization_Penalty>
  0.0074

> <r_epik_Ionization_Penalty_Charging>
  0.0025

> <r_epik_Ionization_Penalty_Neutral>
  0.0049

> <r_epik_State_Penalty>
 -0.0000

> <r_epik_Charging_Adjusted_Penalty>
0.00253682109346345

> <i_epik_Tot_Q>
1

> <i_epik_Tot_abs_Q>
1

$$$$
