1xqc_ligand
                    3D
 Schrodinger Suite 2020-3.
 67 72  0  0  1  0            999 V2000
   18.8540   -0.1960   39.2410 O   0  0  0  0  0  0
   17.6290    0.0460   38.5970 C   0  0  0  0  0  0
   16.5280    0.5650   39.2780 C   0  0  0  0  0  0
   15.3320    0.8090   38.5640 C   0  0  0  0  0  0
   15.2680    0.5430   37.2000 C   0  0  0  0  0  0
   16.3690    0.0200   36.5750 C   0  0  0  0  0  0
   17.5450   -0.2360   37.2650 C   0  0  0  0  0  0
   14.0460    0.7780   36.3970 C   0  0  2  0  0  0
   14.0520    0.5680   34.9440 N   0  0  0  0  0  0
   12.8780    0.7390   34.1870 C   0  0  0  0  0  0
   11.6290    0.3610   34.6890 C   0  0  0  0  0  0
   10.4470    0.5970   33.9230 C   0  0  0  0  0  0
   10.5000    1.2140   32.6800 C   0  0  0  0  0  0
   11.7330    1.6120   32.1640 C   0  0  0  0  0  0
   12.8990    1.3850   32.9160 C   0  0  0  0  0  0
   15.0810   -0.2110   34.3390 C   0  0  0  0  0  0
   16.3700   -0.3080   35.1340 C   0  0  0  0  0  0
   13.9360    2.2900   36.5180 C   0  0  0  0  0  0
   14.9480    3.1820   36.1900 C   0  0  0  0  0  0
   14.7820    4.5700   36.3210 C   0  0  0  0  0  0
   13.5790    5.1390   36.7930 C   0  0  0  0  0  0
   12.6020    4.2140   37.1090 C   0  0  0  0  0  0
   12.7650    2.8330   36.9690 C   0  0  0  0  0  0
   13.3830    6.4520   36.9550 N   0  0  0  0  0  0
   12.0810    6.9150   37.4730 C   0  0  0  0  0  0
   11.8740    8.4370   37.4610 C   0  0  0  0  0  0
   13.0200    9.2050   37.9430 N   0  3  1  0  0  0
   14.2240    8.7620   37.2280 C   0  0  2  0  0  0
   14.4790    7.2890   37.4700 C   0  0  0  0  0  0
   15.3990    9.6160   37.7570 C   0  0  0  0  0  0
   15.0860   11.1190   37.6320 C   0  0  0  0  0  0
   13.7650   11.5030   38.3340 C   0  0  0  0  0  0
   12.7280   10.6250   37.6050 C   0  0  0  0  0  0
   18.9628    0.0181   40.3145 H   0  0  0  0  0  0
   16.5886    0.7794   40.3450 H   0  0  0  0  0  0
   14.4594    1.2059   39.0829 H   0  0  0  0  0  0
   18.4016   -0.6623   36.7429 H   0  0  0  0  0  0
   13.2931    0.0595   36.7532 H   0  0  0  0  0  0
   11.5573   -0.1148   35.6670 H   0  0  0  0  0  0
    9.4819    0.2860   34.3228 H   0  0  0  0  0  0
    9.5855    1.3858   32.1124 H   0  0  0  0  0  0
   11.7921    2.0939   31.1881 H   0  0  0  0  0  0
   13.8558    1.7155   32.5119 H   0  0  0  0  0  0
   14.7239   -1.2414   34.1946 H   0  0  0  0  0  0
   15.3462    0.2251   33.3646 H   0  0  0  0  0  0
   17.0624    0.3638   34.6056 H   0  0  0  0  0  0
   16.6930   -1.3503   34.9954 H   0  0  0  0  0  0
   15.8974    2.7942   35.8207 H   0  0  0  0  0  0
   15.6072    5.2286   36.0500 H   0  0  0  0  0  0
   11.6494    4.5828   37.4893 H   0  0  0  0  0  0
   11.9374    2.1719   37.2259 H   0  0  0  0  0  0
   11.2709    6.4848   36.8658 H   0  0  0  0  0  0
   11.9666    6.5925   38.5184 H   0  0  0  0  0  0
   11.6728    8.7716   36.4326 H   0  0  0  0  0  0
   11.0203    8.6960   38.1045 H   0  0  0  0  0  0
   13.1843    9.0583   39.0207 H   0  0  0  0  0  0
   14.0597    8.8899   36.1479 H   0  0  0  0  0  0
   14.5835    7.1303   38.5535 H   0  0  0  0  0  0
   15.4178    7.0141   36.9669 H   0  0  0  0  0  0
   15.5769    9.3788   38.8163 H   0  0  0  0  0  0
   16.3052    9.3939   37.1743 H   0  0  0  0  0  0
   15.8978   11.7020   38.0914 H   0  0  0  0  0  0
   14.9975   11.3880   36.5691 H   0  0  0  0  0  0
   13.8394   11.2721   39.4069 H   0  0  0  0  0  0
   13.5793   12.5792   38.2026 H   0  0  0  0  0  0
   12.8046   10.7661   36.5168 H   0  0  0  0  0  0
   11.7105   10.8792   37.9369 H   0  0  0  0  0  0
  1  2  1  0  0  0
  1 34  1  0  0  0
  2  3  2  0  0  0
  2  7  1  0  0  0
  3  4  1  0  0  0
  3 35  1  0  0  0
  4  5  2  0  0  0
  4 36  1  0  0  0
  5  6  1  0  0  0
  5  8  1  0  0  0
  6  7  2  0  0  0
  6 17  1  0  0  0
  7 37  1  0  0  0
  8  9  1  0  0  0
  8 18  1  0  0  0
  8 38  1  0  0  0
  9 10  1  0  0  0
  9 16  1  0  0  0
 10 11  2  0  0  0
 10 15  1  0  0  0
 11 12  1  0  0  0
 11 39  1  0  0  0
 12 13  2  0  0  0
 12 40  1  0  0  0
 13 14  1  0  0  0
 13 41  1  0  0  0
 14 15  2  0  0  0
 14 42  1  0  0  0
 15 43  1  0  0  0
 16 17  1  0  0  0
 16 44  1  0  0  0
 16 45  1  0  0  0
 17 46  1  0  0  0
 17 47  1  0  0  0
 18 19  2  0  0  0
 18 23  1  0  0  0
 19 20  1  0  0  0
 19 48  1  0  0  0
 20 21  2  0  0  0
 20 49  1  0  0  0
 21 22  1  0  0  0
 21 24  1  0  0  0
 22 23  2  0  0  0
 22 50  1  0  0  0
 23 51  1  0  0  0
 24 25  1  0  0  0
 24 29  1  0  0  0
 25 26  1  0  0  0
 25 52  1  0  0  0
 25 53  1  0  0  0
 26 27  1  0  0  0
 26 54  1  0  0  0
 26 55  1  0  0  0
 27 28  1  0  0  0
 27 33  1  0  0  0
 27 56  1  0  0  0
 28 29  1  0  0  0
 28 30  1  0  0  0
 28 57  1  0  0  0
 29 58  1  0  0  0
 29 59  1  0  0  0
 30 31  1  0  0  0
 30 60  1  0  0  0
 30 61  1  0  0  0
 31 32  1  0  0  0
 31 62  1  0  0  0
 31 63  1  0  0  0
 32 33  1  0  0  0
 32 64  1  0  0  0
 32 65  1  0  0  0
 33 66  1  0  0  0
 33 67  1  0  0  0
M  CHG  1  27   1
M  END
> <s_m_source_file>
../1xqc_ligand.sdf

> <i_m_source_file_index>
1

> <s_epik_input>
W2NIXTFbY0hdYyhbT0hdKVtjSF1jKGMxMilbQ0gyXVtDSDJdTihjM1tjSF1bY0hdW2NIXVtjSF1bY0hdMylbQ0BASF0yYzRbY0hdW2NIXWMoW2NIXVtjSF00KU4oW0NIMl1bQ0gyXTUpW0NIMl1bQ0BASF0oW05ASCtdNTYpW0NIMl1bQ0gyXVtDSDJdW0NIMl02

> <s_epik_cmdline>
J2VwaWtfYXBwJywgJy1pbWFlJywgJ2xpZ2FuZF9wcm8ubWFlJywgJy1vbWFlJywgJ2xpZ2FuZF9wcmVwLm1hZScsICctbXMnLCAnMScsICctcGgnLCAnNycsICctcGh0JywgJzAuNScsICctbnQn

> <r_lp_tautomer_probability>
1

> <r_epik_Ionization_Penalty>
  0.0010

> <r_epik_Ionization_Penalty_Charging>
  0.0009

> <r_epik_Ionization_Penalty_Neutral>
  0.0001

> <r_epik_State_Penalty>
 -0.0000

> <r_epik_Charging_Adjusted_Penalty>
0.000875098938373152

> <i_epik_Tot_Q>
1

> <i_epik_Tot_abs_Q>
1

$$$$
