1xr9_ligand
                    3D
 Schrodinger Suite 2020-3.
131133  0  0  1  0            999 V2000
   12.1290   26.1580   36.3560 N   0  3  0  0  0  0
   13.0390   26.9690   37.2140 C   0  0  2  0  0  0
   14.4860   26.8160   36.7080 C   0  0  0  0  0  0
   14.8210   25.7960   36.1150 O   0  0  0  0  0  0
   12.8470   26.5720   38.7180 C   0  0  2  0  0  0
   13.1430   27.7610   39.6420 C   0  0  0  0  0  0
   13.6370   25.3030   39.0880 C   0  0  0  0  0  0
   12.7080   27.5570   41.0660 C   0  0  0  0  0  0
   15.3100   27.8500   36.8860 N   0  0  0  0  0  0
   16.6500   27.8820   36.2740 C   0  0  2  0  0  0
   17.5070   26.6670   36.6210 C   0  0  0  0  0  0
   17.3090   26.0340   37.6630 O   0  0  0  0  0  0
   17.3950   29.1600   36.6920 C   0  0  0  0  0  0
   16.9720   30.4830   36.0360 C   0  0  0  0  0  0
   17.4550   31.6530   36.9030 C   0  0  0  0  0  0
   17.5250   30.6090   34.6040 C   0  0  0  0  0  0
   18.4700   26.3660   35.7500 N   0  0  0  0  0  0
   19.5140   25.3750   36.0220 C   0  0  0  0  0  0
   20.5650   25.9210   36.9670 C   0  0  0  0  0  0
   20.4600   27.0460   37.4410 O   0  0  0  0  0  0
   21.6060   25.1340   37.2080 N   0  0  0  0  0  0
   22.5830   25.4480   38.2380 C   0  0  2  0  0  0
   23.7360   26.3280   37.7440 C   0  0  0  0  0  0
   24.2910   26.0710   36.6690 O   0  0  0  0  0  0
   23.1110   24.0670   38.6190 C   0  0  0  0  0  0
   23.0310   23.2630   37.3110 C   0  0  0  0  0  0
   21.9200   23.8740   36.5060 C   0  0  0  0  0  0
   24.0880   27.3630   38.5100 N   0  0  0  0  0  0
   25.3750   28.0130   38.3340 C   0  0  2  0  0  0
   26.4580   26.9600   38.4510 C   0  0  0  0  0  0
   26.3190   26.0200   39.2420 O   0  0  0  0  0  0
   25.4660   28.9830   39.5290 C   0  0  0  0  0  0
   24.2910   28.6650   40.4190 C   0  0  0  0  0  0
   23.2820   28.0080   39.5580 C   0  0  0  0  0  0
   27.5320   27.1230   37.6900 N   0  0  0  0  0  0
   28.6470   26.1870   37.7450 C   0  0  0  0  0  0
   29.9460   26.7530   37.2000 C   0  0  0  0  0  0
   30.1740   27.9650   37.2220 O   0  0  0  0  0  0
   30.8030   25.8650   36.7080 N   0  0  0  0  0  0
   32.1370   26.2650   36.2760 C   0  0  2  0  0  0
   32.0910   27.3290   35.1730 C   0  0  0  0  0  0
   31.3160   27.2330   34.2160 O   0  0  0  0  0  0
   32.9330   25.0460   35.7950 C   0  0  0  0  0  0
   34.2690   25.3980   35.4320 O   0  0  0  0  0  0
   32.9260   28.3460   35.3370 N   0  0  0  0  0  0
   33.2730   29.2350   34.2570 C   0  0  2  0  0  0
   33.7280   28.3370   33.0880 C   0  0  0  0  0  0
   34.1110   27.1710   33.2950 O   0  0  0  0  0  0
   34.3900   30.2310   34.7370 C   0  0  0  0  0  0
   35.7850   29.5960   34.6850 C   0  0  0  0  0  0
   34.3450   31.5530   33.9990 C   0  0  0  0  0  0
   33.6850   28.8500   31.8650 N   0  0  0  0  0  0
   34.2300   28.0960   30.7290 C   0  0  2  0  0  0
   35.7570   28.1650   30.7200 C   0  0  0  0  0  0
   36.3610   29.0610   31.3290 O   0  5  0  0  0  0
   33.6770   28.6160   29.3930 C   0  0  0  0  0  0
   32.2170   28.2940   29.1020 C   0  0  0  0  0  0
   31.1850   28.7770   29.9330 C   0  0  0  0  0  0
   31.8630   27.5290   27.9800 C   0  0  0  0  0  0
   29.8400   28.5000   29.6500 C   0  0  0  0  0  0
   30.5170   27.2370   27.6970 C   0  0  0  0  0  0
   29.5220   27.7350   28.5290 C   0  0  0  0  0  0
   28.2120   27.4570   28.2670 O   0  0  0  0  0  0
   36.4300   27.3390   30.0870 O   0  0  0  0  0  0
   12.2690   26.4417   35.3025 H   0  0  0  0  0  0
   11.0855   26.3437   36.6502 H   0  0  0  0  0  0
   12.3611   25.0902   36.4822 H   0  0  0  0  0  0
   12.7700   28.0300   37.1049 H   0  0  0  0  0  0
   11.7927   26.3105   38.8912 H   0  0  0  0  0  0
   14.2263   27.9511   39.6593 H   0  0  0  0  0  0
   12.6200   28.6541   39.2694 H   0  0  0  0  0  0
   13.3787   24.4936   38.3893 H   0  0  0  0  0  0
   13.3813   24.9978   40.1134 H   0  0  0  0  0  0
   14.7153   25.5112   39.0255 H   0  0  0  0  0  0
   12.9559   28.4512   41.6568 H   0  0  0  0  0  0
   13.2281   26.6838   41.4867 H   0  0  0  0  0  0
   11.6217   27.3868   41.0967 H   0  0  0  0  0  0
   14.9685   28.6917   37.5064 H   0  0  0  0  0  0
   16.4444   27.8577   35.1937 H   0  0  0  0  0  0
   17.2683   29.3214   37.7727 H   0  0  0  0  0  0
   18.4650   29.0532   36.4602 H   0  0  0  0  0  0
   15.8743   30.5033   35.9675 H   0  0  0  0  0  0
   17.0510   31.5466   37.9206 H   0  0  0  0  0  0
   17.1060   32.6008   36.4672 H   0  0  0  0  0  0
   18.5543   31.6505   36.9428 H   0  0  0  0  0  0
   17.1690   29.7630   33.9977 H   0  0  0  0  0  0
   18.6246   30.6018   34.6336 H   0  0  0  0  0  0
   17.1764   31.5521   34.1580 H   0  0  0  0  0  0
   18.4569   26.9016   34.7893 H   0  0  0  0  0  0
   19.0624   24.4833   36.4812 H   0  0  0  0  0  0
   20.0061   25.0927   35.0796 H   0  0  0  0  0  0
   22.0899   26.0189   39.0386 H   0  0  0  0  0  0
   24.1438   24.1579   38.9866 H   0  0  0  0  0  0
   22.4772   23.6371   39.4087 H   0  0  0  0  0  0
   23.9902   23.3348   36.7773 H   0  0  0  0  0  0
   22.8174   22.2087   37.5411 H   0  0  0  0  0  0
   21.0265   23.2327   36.4864 H   0  0  0  0  0  0
   22.2341   24.0968   35.4756 H   0  0  0  0  0  0
   25.4498   28.4980   37.3495 H   0  0  0  0  0  0
   26.4174   28.8248   40.0580 H   0  0  0  0  0  0
   25.4172   30.0197   39.1644 H   0  0  0  0  0  0
   24.6152   27.9947   41.2287 H   0  0  0  0  0  0
   23.8951   29.5962   40.8504 H   0  0  0  0  0  0
   22.5920   28.7304   39.0974 H   0  0  0  0  0  0
   22.7050   27.2438   40.0993 H   0  0  0  0  0  0
   27.5707   27.9851   37.0079 H   0  0  0  0  0  0
   28.8296   25.8953   38.7898 H   0  0  0  0  0  0
   28.4048   25.2929   37.1517 H   0  0  0  0  0  0
   30.4918   24.8129   36.6292 H   0  0  0  0  0  0
   32.5940   26.6993   37.1774 H   0  0  0  0  0  0
   32.9784   24.2971   36.5994 H   0  0  0  0  0  0
   32.4385   24.6092   34.9149 H   0  0  0  0  0  0
   34.9615   24.6252   35.0669 H   0  0  0  0  0  0
   33.3579   28.5004   36.3368 H   0  0  0  0  0  0
   32.3804   29.8113   33.9721 H   0  0  0  0  0  0
   34.1970   30.4870   35.7892 H   0  0  0  0  0  0
   35.7738   28.6411   35.2310 H   0  0  0  0  0  0
   36.5147   30.2755   35.1496 H   0  0  0  0  0  0
   36.0671   29.4159   33.6371 H   0  0  0  0  0  0
   33.3302   31.9730   34.0607 H   0  0  0  0  0  0
   34.6122   31.3932   32.9440 H   0  0  0  0  0  0
   35.0599   32.2528   34.4564 H   0  0  0  0  0  0
   33.2396   29.8427   31.7033 H   0  0  0  0  0  0
   33.8989   27.0595   30.8903 H   0  0  0  0  0  0
   33.7587   29.7126   29.3643 H   0  0  0  0  0  0
   34.2555   28.1834   28.5634 H   0  0  0  0  0  0
   31.4369   29.3749   30.8089 H   0  0  0  0  0  0
   32.6437   27.1553   27.3175 H   0  0  0  0  0  0
   29.0512   28.8789   30.2999 H   0  0  0  0  0  0
   30.2566   26.6257   26.8330 H   0  0  0  0  0  0
   27.4238   27.8510   28.9254 H   0  0  0  0  0  0
  1  2  1  0  0  0
  1 65  1  0  0  0
  1 66  1  0  0  0
  1 67  1  0  0  0
  2  3  1  0  0  0
  2  5  1  0  0  0
  2 68  1  0  0  0
  3  4  2  0  0  0
  3  9  1  0  0  0
  5  6  1  0  0  0
  5  7  1  0  0  0
  5 69  1  0  0  0
  6  8  1  0  0  0
  6 70  1  0  0  0
  6 71  1  0  0  0
  7 72  1  0  0  0
  7 73  1  0  0  0
  7 74  1  0  0  0
  8 75  1  0  0  0
  8 76  1  0  0  0
  8 77  1  0  0  0
  9 10  1  0  0  0
  9 78  1  0  0  0
 10 11  1  0  0  0
 10 13  1  0  0  0
 10 79  1  0  0  0
 11 12  2  0  0  0
 11 17  1  0  0  0
 13 14  1  0  0  0
 13 80  1  0  0  0
 13 81  1  0  0  0
 14 15  1  0  0  0
 14 16  1  0  0  0
 14 82  1  0  0  0
 15 83  1  0  0  0
 15 84  1  0  0  0
 15 85  1  0  0  0
 16 86  1  0  0  0
 16 87  1  0  0  0
 16 88  1  0  0  0
 17 18  1  0  0  0
 17 89  1  0  0  0
 18 19  1  0  0  0
 18 90  1  0  0  0
 18 91  1  0  0  0
 19 20  2  0  0  0
 19 21  1  0  0  0
 21 22  1  0  0  0
 21 27  1  0  0  0
 22 23  1  0  0  0
 22 25  1  0  0  0
 22 92  1  0  0  0
 23 24  2  0  0  0
 23 28  1  0  0  0
 25 26  1  0  0  0
 25 93  1  0  0  0
 25 94  1  0  0  0
 26 27  1  0  0  0
 26 95  1  0  0  0
 26 96  1  0  0  0
 27 97  1  0  0  0
 27 98  1  0  0  0
 28 29  1  0  0  0
 28 34  1  0  0  0
 29 30  1  0  0  0
 29 32  1  0  0  0
 29 99  1  0  0  0
 30 31  2  0  0  0
 30 35  1  0  0  0
 32 33  1  0  0  0
 32100  1  0  0  0
 32101  1  0  0  0
 33 34  1  0  0  0
 33102  1  0  0  0
 33103  1  0  0  0
 34104  1  0  0  0
 34105  1  0  0  0
 35 36  1  0  0  0
 35106  1  0  0  0
 36 37  1  0  0  0
 36107  1  0  0  0
 36108  1  0  0  0
 37 38  2  0  0  0
 37 39  1  0  0  0
 39 40  1  0  0  0
 39109  1  0  0  0
 40 41  1  0  0  0
 40 43  1  0  0  0
 40110  1  0  0  0
 41 42  2  0  0  0
 41 45  1  0  0  0
 43 44  1  0  0  0
 43111  1  0  0  0
 43112  1  0  0  0
 44113  1  0  0  0
 45 46  1  0  0  0
 45114  1  0  0  0
 46 47  1  0  0  0
 46 49  1  0  0  0
 46115  1  0  0  0
 47 48  2  0  0  0
 47 52  1  0  0  0
 49 50  1  0  0  0
 49 51  1  0  0  0
 49116  1  0  0  0
 50117  1  0  0  0
 50118  1  0  0  0
 50119  1  0  0  0
 51120  1  0  0  0
 51121  1  0  0  0
 51122  1  0  0  0
 52 53  1  0  0  0
 52123  1  0  0  0
 53 54  1  0  0  0
 53 56  1  0  0  0
 53124  1  0  0  0
 54 55  1  0  0  0
 54 64  2  0  0  0
 56 57  1  0  0  0
 56125  1  0  0  0
 56126  1  0  0  0
 57 58  2  0  0  0
 57 59  1  0  0  0
 58 60  1  0  0  0
 58127  1  0  0  0
 59 61  2  0  0  0
 59128  1  0  0  0
 60 62  2  0  0  0
 60129  1  0  0  0
 61 62  1  0  0  0
 61130  1  0  0  0
 62 63  1  0  0  0
 63131  1  0  0  0
M  CHG  2   1   1  55  -1
M  END
> <s_m_source_file>
../1xr9_ligand.sdf

> <i_m_source_file_index>
1

> <s_epik_input>
W0NIM11bQ0gyXVtDQEhdKFtDSDNdKVtDQEhdKFtOSDMrXSlDKD1PKVtOSF1bQ0BASF0oW0NIMl1bQ0hdKFtDSDNdKVtDSDNdKUMoPU8pW05IXVtDSDJdQyg9TylOMVtDQEBIXShbQ0gyXVtDSDJdW0NIMl0xKUMoPU8pTjJbQ0BASF0oW0NIMl1bQ0gyXVtDSDJdMilDKD1PKVtOSF1bQ0gyXUMoPU8pW05IXVtDQEBIXShbQ0gyXVtPSF0pQyg9TylbTkhdW0NAQEhdKFtDSF0oW0NIM10pW0NIM10pQyg9TylbTkhdW0NASF0oQyg9TylbT0hdKVtDSDJdYzNbY0hdW2NIXWMoW09IXSlbY0hdW2NIXTM=

> <s_epik_cmdline>
J2VwaWtfYXBwJywgJy1pbWFlJywgJ2xpZ2FuZF9wcm8ubWFlJywgJy1vbWFlJywgJ2xpZ2FuZF9wcmVwLm1hZScsICctbXMnLCAnMScsICctcGgnLCAnNycsICctcGh0JywgJzAuNScsICctbnQn

> <r_lp_tautomer_probability>
0.999999999997365

> <r_epik_Ionization_Penalty>
  0.0871

> <r_epik_Ionization_Penalty_Charging>
  0.0865

> <r_epik_Ionization_Penalty_Neutral>
  0.0006

> <r_epik_State_Penalty>
  0.0768

> <r_epik_Charging_Adjusted_Penalty>
0.16328833000183

> <i_epik_Tot_Q>
0

> <i_epik_Tot_abs_Q>
2

$$$$
