1xs7_ligand
                    3D
 Schrodinger Suite 2020-3.
114115  0  0  1  0            999 V2000
   51.1340   21.9440  105.9880 C   0  0  2  0  0  0
   52.4370   21.5240  105.2040 C   0  0  0  0  0  0
   52.4760   22.1680  103.7940 C   0  0  0  0  0  0
   52.6040   19.9750  105.0300 C   0  0  0  0  0  0
   50.9490   23.4400  106.1260 N   0  0  0  0  0  0
   51.6050   24.3760  106.9810 C   0  0  0  0  0  0
   51.2220   25.5500  106.8670 O   0  0  0  0  0  0
   52.6070   24.0220  107.9090 O   0  0  0  0  0  0
   53.8920   24.6710  107.8410 C   0  0  0  0  0  0
   51.0260   21.3160  107.4150 C   0  0  0  0  0  0
   51.9670   21.0430  108.1150 O   0  0  0  0  0  0
   49.7720   21.1330  107.8500 N   0  0  0  0  0  0
   49.3790   19.9010  108.5280 C   0  0  1  0  0  0
   48.9820   20.0990  110.0240 C   0  0  0  0  0  0
   50.1510   20.5130  110.9630 C   0  0  0  0  0  0
   49.9040   21.1390  111.9940 O   0  0  0  0  0  0
   51.4480   20.1180  110.6110 N   0  0  0  0  0  0
   48.1710   19.2970  107.7500 C   0  0  0  0  0  0
   47.1380   19.9670  107.5740 O   0  0  0  0  0  0
   54.6780   24.4640  109.1470 C   0  0  0  0  0  0
   54.7770   22.9740  109.5200 C   0  0  0  0  0  0
   53.6010   22.4770  110.3890 C   0  0  0  0  0  0
   53.7610   20.9810  110.7070 C   0  0  0  0  0  0
   52.6040   20.4500  111.5040 C   0  0  0  0  0  0
   48.3780   17.9820  107.2780 N   0  0  0  0  0  0
   47.3550   17.2190  106.4860 C   0  0  2  0  0  0
   46.6740   16.1670  107.4360 C   0  0  1  0  0  0
   47.5090   15.8990  108.5840 O   0  0  0  0  0  0
   47.9670   16.5480  105.2070 C   0  0  0  0  0  0
   48.6840   17.5140  104.1880 C   0  0  0  0  0  0
   47.7420   18.6130  103.6260 C   0  0  0  0  0  0
   49.2680   16.7410  102.9860 C   0  0  0  0  0  0
   45.2510   16.6630  107.8600 C   0  0  0  0  0  0
   44.6990   16.6760  109.3370 C   0  0  1  0  0  0
   45.5330   17.4860  110.3460 C   0  0  0  0  0  0
   43.2550   17.2490  109.2880 C   0  0  0  0  0  0
   43.0300   18.4640  109.3390 O   0  0  0  0  0  0
   42.2310   16.2660  109.1380 N   0  0  0  0  0  0
   40.7380   16.5220  109.0140 C   0  0  1  0  0  0
   39.9290   15.1880  108.7480 C   0  0  0  0  0  0
   40.2870   17.2560  110.3100 C   0  0  0  0  0  0
   40.7410   16.9340  111.4010 O   0  0  0  0  0  0
   40.3700   14.4800  107.4640 C   0  0  0  0  0  0
   38.4280   15.4120  108.6060 C   0  0  0  0  0  0
   39.3510   18.2790  110.0950 N   0  0  0  0  0  0
   38.7740   19.1170  111.1790 C   0  0  0  0  0  0
   38.2260   20.4530  110.6640 C   0  0  0  0  0  0
   36.8190   20.6780  110.4390 C   0  0  0  0  0  0
   36.3350   21.9450  109.9570 C   0  0  0  0  0  0
   37.2600   23.0130  109.6980 C   0  0  0  0  0  0
   38.6620   22.8060  109.9160 C   0  0  0  0  0  0
   39.1320   21.5440  110.3960 C   0  0  0  0  0  0
   50.3129   21.5798  105.3531 H   0  0  0  0  0  0
   53.2740   21.8940  105.8144 H   0  0  0  0  0  0
   52.3607   23.2581  103.8855 H   0  0  0  0  0  0
   51.6561   21.7626  103.1829 H   0  0  0  0  0  0
   53.4388   21.9401  103.3134 H   0  0  0  0  0  0
   52.5800   19.4905  106.0172 H   0  0  0  0  0  0
   53.5659   19.7626  104.5405 H   0  0  0  0  0  0
   51.7832   19.5851  104.4101 H   0  0  0  0  0  0
   50.2092   23.9626  105.5018 H   0  0  0  0  0  0
   54.4722   24.2490  107.0072 H   0  0  0  0  0  0
   53.7499   25.7498  107.6798 H   0  0  0  0  0  0
   49.0330   21.9316  107.6883 H   0  0  0  0  0  0
   50.2876   19.2817  108.4980 H   0  0  0  0  0  0
   48.2209   20.8896  110.0998 H   0  0  0  0  0  0
   48.5745   19.1583  110.4228 H   0  0  0  0  0  0
   51.6166   19.5628  109.6765 H   0  0  0  0  0  0
   55.6973   24.8602  109.0282 H   0  0  0  0  0  0
   54.1720   24.9939  109.9674 H   0  0  0  0  0  0
   54.7886   22.3665  108.6031 H   0  0  0  0  0  0
   55.7028   22.7988  110.0876 H   0  0  0  0  0  0
   53.5777   23.0423  111.3323 H   0  0  0  0  0  0
   52.6555   22.6281  109.8475 H   0  0  0  0  0  0
   53.8225   20.4111  109.7681 H   0  0  0  0  0  0
   54.6806   20.8265  111.2906 H   0  0  0  0  0  0
   52.2964   21.2140  112.2332 H   0  0  0  0  0  0
   52.9278   19.5438  112.0369 H   0  0  0  0  0  0
   49.3463   17.5181  107.5173 H   0  0  0  0  0  0
   46.6214   17.9572  106.1299 H   0  0  0  0  0  0
   46.6023   15.1797  106.9562 H   0  0  0  0  0  0
   48.5400   15.5424  108.4430 H   0  0  0  0  0  0
   48.7241   15.8087  105.5074 H   0  0  0  0  0  0
   47.1697   16.0463  104.6390 H   0  0  0  0  0  0
   49.4961   17.9975  104.7508 H   0  0  0  0  0  0
   47.3074   19.1846  104.4593 H   0  0  0  0  0  0
   46.9357   18.1424  103.0442 H   0  0  0  0  0  0
   48.3156   19.2905  102.9764 H   0  0  0  0  0  0
   49.9424   15.9520  103.3502 H   0  0  0  0  0  0
   49.8288   17.4342  102.3418 H   0  0  0  0  0  0
   48.4489   16.2861  102.4097 H   0  0  0  0  0  0
   45.1319   17.7195  107.5779 H   0  0  0  0  0  0
   44.4854   16.0590  107.3510 H   0  0  0  0  0  0
   44.7425   15.6476  109.7251 H   0  0  0  0  0  0
   46.5559   17.0831  110.3833 H   0  0  0  0  0  0
   45.0738   17.4137  111.3430 H   0  0  0  0  0  0
   45.5652   18.5399  110.0327 H   0  0  0  0  0  0
   42.6161   15.2358  109.1159 H   0  0  0  0  0  0
   40.5619   17.1689  108.1419 H   0  0  0  0  0  0
   40.1181   14.5475  109.6221 H   0  0  0  0  0  0
   41.4524   14.2883  107.5042 H   0  0  0  0  0  0
   40.1425   15.1177  106.5970 H   0  0  0  0  0  0
   39.8319   13.5254  107.3683 H   0  0  0  0  0  0
   38.0467   15.9211  109.5035 H   0  0  0  0  0  0
   37.9218   14.4421  108.4917 H   0  0  0  0  0  0
   38.2323   16.0344  107.7204 H   0  0  0  0  0  0
   39.0473   18.4448  109.0508 H   0  0  0  0  0  0
   37.9460   18.5755  111.6597 H   0  0  0  0  0  0
   39.5512   19.3365  111.9259 H   0  0  0  0  0  0
   36.1098   19.8744  110.6375 H   0  0  0  0  0  0
   35.2684   22.0938  109.7888 H   0  0  0  0  0  0
   36.8980   23.9759  109.3376 H   0  0  0  0  0  0
   39.3694   23.6107  109.7158 H   0  0  0  0  0  0
   40.1997   21.4025  110.5635 H   0  0  0  0  0  0
  1  2  1  0  0  0
  1  5  1  0  0  0
  1 10  1  0  0  0
  1 53  1  0  0  0
  2  3  1  0  0  0
  2  4  1  0  0  0
  2 54  1  0  0  0
  3 55  1  0  0  0
  3 56  1  0  0  0
  3 57  1  0  0  0
  4 58  1  0  0  0
  4 59  1  0  0  0
  4 60  1  0  0  0
  5  6  1  0  0  0
  5 61  1  0  0  0
  6  7  2  0  0  0
  6  8  1  0  0  0
  8  9  1  0  0  0
  9 20  1  0  0  0
  9 62  1  0  0  0
  9 63  1  0  0  0
 10 11  2  0  0  0
 10 12  1  0  0  0
 12 13  1  0  0  0
 12 64  1  0  0  0
 13 14  1  0  0  0
 13 18  1  0  0  0
 13 65  1  0  0  0
 14 15  1  0  0  0
 14 66  1  0  0  0
 14 67  1  0  0  0
 15 16  2  0  0  0
 15 17  1  0  0  0
 17 24  1  0  0  0
 17 68  1  0  0  0
 18 19  2  0  0  0
 18 25  1  0  0  0
 20 21  1  0  0  0
 20 69  1  0  0  0
 20 70  1  0  0  0
 21 22  1  0  0  0
 21 71  1  0  0  0
 21 72  1  0  0  0
 22 23  1  0  0  0
 22 73  1  0  0  0
 22 74  1  0  0  0
 23 24  1  0  0  0
 23 75  1  0  0  0
 23 76  1  0  0  0
 24 77  1  0  0  0
 24 78  1  0  0  0
 25 26  1  0  0  0
 25 79  1  0  0  0
 26 27  1  0  0  0
 26 29  1  0  0  0
 26 80  1  0  0  0
 27 28  1  0  0  0
 27 33  1  0  0  0
 27 81  1  0  0  0
 28 82  1  0  0  0
 29 30  1  0  0  0
 29 83  1  0  0  0
 29 84  1  0  0  0
 30 31  1  0  0  0
 30 32  1  0  0  0
 30 85  1  0  0  0
 31 86  1  0  0  0
 31 87  1  0  0  0
 31 88  1  0  0  0
 32 89  1  0  0  0
 32 90  1  0  0  0
 32 91  1  0  0  0
 33 34  1  0  0  0
 33 92  1  0  0  0
 33 93  1  0  0  0
 34 35  1  0  0  0
 34 36  1  0  0  0
 34 94  1  0  0  0
 35 95  1  0  0  0
 35 96  1  0  0  0
 35 97  1  0  0  0
 36 37  2  0  0  0
 36 38  1  0  0  0
 38 39  1  0  0  0
 38 98  1  0  0  0
 39 40  1  0  0  0
 39 41  1  0  0  0
 39 99  1  0  0  0
 40 43  1  0  0  0
 40 44  1  0  0  0
 40100  1  0  0  0
 41 42  2  0  0  0
 41 45  1  0  0  0
 43101  1  0  0  0
 43102  1  0  0  0
 43103  1  0  0  0
 44104  1  0  0  0
 44105  1  0  0  0
 44106  1  0  0  0
 45 46  1  0  0  0
 45107  1  0  0  0
 46 47  1  0  0  0
 46108  1  0  0  0
 46109  1  0  0  0
 47 48  2  0  0  0
 47 52  1  0  0  0
 48 49  1  0  0  0
 48110  1  0  0  0
 49 50  2  0  0  0
 49111  1  0  0  0
 50 51  1  0  0  0
 50112  1  0  0  0
 51 52  2  0  0  0
 51113  1  0  0  0
 52114  1  0  0  0
M  END
> <s_m_source_file>
../1xs7_ligand.sdf

> <i_m_source_file_index>
1

> <s_epik_input>
W0NIM11bQ0hdKFtDSDNdKVtDQEBIXTFbTkhdQyg9TylPW0NIMl1bQ0gyXVtDSDJdW0NIMl1bQ0gyXVtDSDJdW05IXUMoPU8pW0NIMl1bQ0BIXShbTkhdQzE9TylDKD1PKVtOSF1bQ0BASF0oW0NIMl1bQ0hdKFtDSDNdKVtDSDNdKVtDQEBIXShbT0hdKVtDSDJdW0NAQEhdKFtDSDNdKUMoPU8pW05IXVtDQEBIXShbQ0hdKFtDSDNdKVtDSDNdKUMoPU8pW05IXVtDSDJdYzJbY0hdW2NIXVtjSF1bY0hdW2NIXTI=

> <s_epik_cmdline>
J2VwaWtfYXBwJywgJy1pbWFlJywgJ2xpZ2FuZF9wcm8ubWFlJywgJy1vbWFlJywgJ2xpZ2FuZF9wcmVwLm1hZScsICctbXMnLCAnMScsICctcGgnLCAnNycsICctcGh0JywgJzAuNScsICctbnQn

> <r_lp_tautomer_probability>
1

> <r_epik_Ionization_Penalty>
  0.0001

> <r_epik_Ionization_Penalty_Charging>
  0.0000

> <r_epik_Ionization_Penalty_Neutral>
  0.0001

> <r_epik_State_Penalty>
 -0.0000

> <r_epik_Charging_Adjusted_Penalty>
0

> <i_epik_Tot_Q>
0

> <i_epik_Tot_abs_Q>
0

> <s_epik_Chemistry_Notes>
This compound has an ester and may undergo hydrolysis at high or low pH.

$$$$
