1xsc_ligand
                    3D
 Schrodinger Suite 2020-3.
 43 45  0  0  1  0            999 V2000
   -1.7600  -10.4840  -30.8560 P   0  0  0  0  0  0
   -3.2420  -10.5630  -30.8700 O   0  0  0  0  0  0
   -1.3890  -11.9110  -31.0370 O   0  5  0  0  0  0
   -1.0490   -9.6630  -31.8690 O   0  5  0  0  0  0
    0.0410   -9.6170  -29.0160 P   0  0  2  0  0  0
   -0.0590   -8.1730  -28.6810 O   0  5  0  0  0  0
    1.0680  -10.0850  -29.9790 O   0  0  0  0  0  0
   -1.2960  -10.0080  -29.5290 O   0  0  0  0  0  0
    0.5960  -11.6160  -27.2250 P   0  0  1  0  0  0
    0.4950  -12.7090  -28.2250 O   0  0  0  0  0  0
    1.7630  -11.5950  -26.3060 O   0  5  0  0  0  0
    0.3600  -10.2290  -27.7000 O   0  0  0  0  0  0
   -0.7430  -11.7650  -26.3740 O   0  0  0  0  0  0
   -0.7530  -11.4990  -24.9750 C   0  0  0  0  0  0
   -1.1980  -12.7250  -24.2160 C   0  0  1  0  0  0
   -1.4500  -12.3480  -22.8340 O   0  0  0  0  0  0
   -2.4960  -13.3560  -24.7090 C   0  0  1  0  0  0
   -2.4920  -14.7650  -24.5270 O   0  0  0  0  0  0
   -3.5540  -12.6700  -23.8540 C   0  0  1  0  0  0
   -4.6800  -13.5060  -23.6620 O   0  0  0  0  0  0
   -2.8170  -12.5360  -22.5270 C   0  0  2  0  0  0
   -3.2570  -11.4110  -21.7050 N   0  0  0  0  0  0
   -4.0400  -10.3440  -22.0680 C   0  0  0  0  0  0
   -4.2510   -9.4900  -21.0960 N   0  0  0  0  0  0
   -3.5630  -10.0330  -20.0190 C   0  0  0  0  0  0
   -3.3890   -9.6050  -18.6940 C   0  0  0  0  0  0
   -3.9170   -8.4830  -18.2030 N   0  0  0  0  0  0
   -2.6440  -10.3820  -17.8770 N   0  0  0  0  0  0
   -2.1110  -11.5080  -18.3710 C   0  0  0  0  0  0
   -2.2000  -12.0120  -19.5970 N   0  0  0  0  0  0
   -2.9490  -11.2180  -20.3810 C   0  0  0  0  0  0
    0.2594  -11.2200  -24.6476 H   0  0  0  0  0  0
   -1.4474  -10.6725  -24.7639 H   0  0  0  0  0  0
   -0.3753  -13.4487  -24.3128 H   0  0  0  0  0  0
   -2.6689  -13.2908  -25.7934 H   0  0  0  0  0  0
   -1.7774  -15.3894  -25.0833 H   0  0  0  0  0  0
   -3.9926  -11.7600  -24.2893 H   0  0  0  0  0  0
   -5.3489  -13.7301  -24.5060 H   0  0  0  0  0  0
   -2.9617  -13.4341  -21.9085 H   0  0  0  0  0  0
   -4.4483  -10.2183  -23.0708 H   0  0  0  0  0  0
   -4.5271   -7.8339  -18.8483 H   0  0  0  0  0  0
   -3.7423   -8.2067  -17.1527 H   0  0  0  0  0  0
   -1.5204  -12.0937  -17.6666 H   0  0  0  0  0  0
  1  2  2  0  0  0
  1  3  1  0  0  0
  1  4  1  0  0  0
  1  8  1  0  0  0
  5  6  1  0  0  0
  5  7  2  0  0  0
  5  8  1  0  0  0
  5 12  1  0  0  0
  9 10  2  0  0  0
  9 11  1  0  0  0
  9 12  1  0  0  0
  9 13  1  0  0  0
 13 14  1  0  0  0
 14 15  1  0  0  0
 14 32  1  0  0  0
 14 33  1  0  0  0
 15 16  1  0  0  0
 15 17  1  0  0  0
 15 34  1  0  0  0
 16 21  1  0  0  0
 17 18  1  0  0  0
 17 19  1  0  0  0
 17 35  1  0  0  0
 18 36  1  0  0  0
 19 20  1  0  0  0
 19 21  1  0  0  0
 19 37  1  0  0  0
 20 38  1  0  0  0
 21 22  1  0  0  0
 21 39  1  0  0  0
 22 23  1  0  0  0
 22 31  1  0  0  0
 23 24  2  0  0  0
 23 40  1  0  0  0
 24 25  1  0  0  0
 25 26  2  0  0  0
 25 31  1  0  0  0
 26 27  1  0  0  0
 26 28  1  0  0  0
 27 41  1  0  0  0
 27 42  1  0  0  0
 28 29  2  0  0  0
 29 30  1  0  0  0
 29 43  1  0  0  0
 30 31  2  0  0  0
M  CHG  4   3  -1   4  -1   6  -1  11  -1
M  END
> <s_m_source_file>
../1xsc_ligand.sdf

> <i_m_source_file_index>
1

> <s_epik_input>
Tz1QKFtPSF0pKFtPSF0pT1tQQEBdKD1PKShbT0hdKU9bUEBAXSg9TykoW09IXSlPW0NIMl1bQ0BIXTFPW0NASF0oW0NASF0oW09IXSlbQ0BASF0xW09IXSluKFtjSF1uMiljKGMyMyluW2NIXW5jM1tOSDJd

> <s_epik_cmdline>
J2VwaWtfYXBwJywgJy1pbWFlJywgJ2xpZ2FuZF9wcm8ubWFlJywgJy1vbWFlJywgJ2xpZ2FuZF9wcmVwLm1hZScsICctbXMnLCAnMScsICctcGgnLCAnNycsICctcGh0JywgJzAuNScsICctbnQn

> <r_lp_tautomer_probability>
0.999997216410988

> <r_epik_Ionization_Penalty>
  0.0818

> <r_epik_Ionization_Penalty_Charging>
  0.0813

> <r_epik_Ionization_Penalty_Neutral>
  0.0004

> <r_epik_State_Penalty>
  0.0708

> <r_epik_Charging_Adjusted_Penalty>
0.152157994418768

> <i_epik_Tot_Q>
-4

> <i_epik_Tot_abs_Q>
4

> <s_epik_Chemistry_Notes>
This compound contains an acetal/aminal-like group ( X-CH(R)-Y where X, Y are N, S, or O) that may be acid/base labile, releasing an aldehyde.

$$$$
