1xt3_ligand
                    3D
 Schrodinger Suite 2020-3.
162167  0  0  1  0            999 V2000
   17.7860   33.3350   35.7010 C   0  0  1  0  0  0
   18.5110   32.3420   34.7990 C   0  0  1  0  0  0
   18.8250   31.0130   35.4860 C   0  0  2  0  0  0
   17.7260   30.5670   36.3900 C   0  0  0  0  0  0
   16.6540   31.3670   36.6490 C   0  0  0  0  0  0
   15.3570   30.7770   37.3270 C   0  0  0  0  0  0
   17.6980   32.0040   33.6620 O   0  0  0  0  0  0
   20.0170   31.2130   36.1600 O   0  0  0  0  0  0
   16.5980   32.6890   36.2280 O   0  0  0  0  0  0
   15.3290   29.5950   37.6720 O   0  0  0  0  0  0
   14.3450   31.5040   37.4820 O   0  0  0  0  0  0
   16.3040   32.9840   33.1360 S   0  0  0  0  0  0
   15.2970   32.9180   34.1620 O   0  0  0  0  0  0
   15.7160   32.4100   31.9740 O   0  0  0  0  0  0
   16.7850   34.3380   32.9050 O   0  0  0  0  0  0
   18.2950   36.3510   40.1060 C   0  0  1  0  0  0
   17.3480   35.1670   39.9690 C   0  0  1  0  0  0
   17.9260   34.0580   39.0850 C   0  0  2  0  0  0
   18.1440   34.6510   37.6840 C   0  0  1  0  0  0
   19.2120   35.7420   37.8720 C   0  0  1  0  0  0
   19.5670   36.3920   36.5560 C   0  0  0  0  0  0
   17.1610   34.5830   41.2590 N   0  0  3  0  0  0
   19.3760   35.9510   40.9580 O   0  0  0  0  0  0
   16.9840   33.0200   39.0450 O   0  0  0  0  0  0
   18.6680   33.6700   36.7920 O   0  0  0  0  0  0
   18.7130   36.7750   38.7690 O   0  0  0  0  0  0
   20.5440   35.5610   35.9550 O   0  0  0  0  0  0
   15.6680   34.9870   42.0680 S   0  0  0  0  0  0
   15.6560   34.2940   43.3390 O   0  0  0  0  0  0
   14.6130   34.5530   41.1980 O   0  0  0  0  0  0
   15.5480   36.4170   42.2330 O   0  0  0  0  0  0
   21.9930   36.3960   35.4490 S   0  0  0  0  0  0
   21.7060   37.2490   34.3440 O   0  0  0  0  0  0
   22.9180   35.3670   35.0590 O   0  0  0  0  0  0
   22.5580   37.1120   36.5900 O   0  0  0  0  0  0
   20.3920   35.2880   44.4460 C   0  0  1  0  0  0
   18.9290   35.1820   43.9350 C   0  0  1  0  0  0
   18.5090   36.4980   43.2670 C   0  0  2  0  0  0
   19.5000   36.8300   42.0690 C   0  0  1  0  0  0
   20.9660   36.7720   42.5770 C   0  0  2  0  0  0
   22.0680   37.0340   41.5540 C   0  0  0  0  0  0
   18.7420   34.1340   43.0210 O   0  0  0  0  0  0
   18.6220   37.4720   44.2810 O   0  0  0  0  0  0
   21.2490   35.5000   43.2950 O   0  0  0  0  0  0
   22.0070   38.0330   40.8390 O   0  0  0  0  0  0
   23.0090   36.2390   41.5190 O   0  0  0  0  0  0
   19.2180   32.5120   43.5420 S   0  0  0  0  0  0
   18.8780   31.6320   42.4390 O   0  0  0  0  0  0
   18.4470   32.2230   44.7440 O   0  0  0  0  0  0
   20.6020   32.3770   43.8930 O   0  0  0  0  0  0
   22.9300   38.7170   47.7770 C   0  0  1  0  0  0
   23.2410   38.6580   46.3040 C   0  0  1  0  0  0
   22.0060   38.2370   45.5690 C   0  0  2  0  0  0
   21.5880   36.8290   46.0670 C   0  0  1  0  0  0
   21.2650   36.9410   47.5680 C   0  0  1  0  0  0
   20.8510   35.5910   48.1140 C   0  0  0  0  0  0
   23.6340   39.9750   45.8670 N   0  0  3  0  0  0
   21.9050   39.6970   47.9460 O   0  0  0  0  0  0
   22.3420   38.2140   44.2290 O   0  0  0  0  0  0
   20.3960   36.4040   45.3890 O   0  0  0  0  0  0
   22.4800   37.4180   48.2170 O   0  0  0  0  0  0
   21.7740   35.1250   49.0880 O   0  0  0  0  0  0
   24.7700   40.1650   44.5210 S   0  0  0  0  0  0
   26.1410   39.9700   44.9650 O   0  0  0  0  0  0
   24.5640   41.5100   44.0590 O   0  0  0  0  0  0
   24.4740   39.2360   43.4450 O   0  0  0  0  0  0
   23.3160   34.4440   48.5060 S   0  0  0  0  0  0
   23.0090   33.3200   47.6600 O   0  0  0  0  0  0
   24.0850   34.0170   49.6440 O   0  0  0  0  0  0
   24.0780   35.4250   47.7610 O   0  0  0  0  0  0
   20.7630   43.3630   49.5800 C   0  0  1  0  0  0
   22.2460   43.3840   49.1020 C   0  0  1  0  0  0
   22.4310   42.3590   48.0290 C   0  0  2  0  0  0
   22.1600   40.9460   48.5940 C   0  0  1  0  0  0
   21.1180   40.9210   49.7670 C   0  0  2  0  0  0
   20.2930   39.6100   49.8600 C   0  0  0  0  0  0
   22.5600   44.6380   48.5160 O   0  0  0  0  0  0
   23.7520   42.4090   47.5910 O   0  0  0  0  0  0
   20.1800   42.0380   49.6850 O   0  0  0  0  0  0
   20.9490   38.5390   49.8640 O   0  0  0  0  0  0
   19.0300   39.6760   49.9490 O   0  0  0  0  0  0
   24.2650   45.1420   48.6620 S   0  0  0  0  0  0
   24.9110   45.1090   47.3510 O   0  0  0  0  0  0
   24.8980   44.1870   49.5500 O   0  0  0  0  0  0
   24.3570   46.4780   49.2440 O   0  0  0  0  0  0
   21.8070   42.3460   55.0630 C   0  0  1  0  0  0
   20.4850   41.9190   54.3930 C   0  0  1  0  0  0
   20.6540   41.8880   52.8720 C   0  0  2  0  0  0
   21.0800   43.2850   52.3900 C   0  0  1  0  0  0
   22.3520   43.7560   53.1120 C   0  0  1  0  0  0
   22.7140   45.1880   52.6760 C   0  0  0  0  0  0
   20.0720   40.5790   54.8330 N   0  0  3  0  0  0
   22.8090   41.3720   54.7110 O   0  0  0  0  0  0
   19.3870   41.5590   52.3040 O   0  0  0  0  0  0
   21.2850   43.3310   50.9000 O   0  0  0  0  0  0
   22.1500   43.6820   54.5650 O   0  0  0  0  0  0
   21.6490   46.1090   53.0090 O   0  0  0  0  0  0
   20.5030   39.9180   56.4320 S   0  0  0  0  0  0
   19.8780   38.6090   56.5520 O   0  0  0  0  0  0
   19.9910   40.8440   57.4230 O   0  0  0  0  0  0
   21.9380   39.7310   56.5830 O   0  0  0  0  0  0
   20.8280   47.0120   51.7130 S   0  0  0  0  0  0
   20.1330   46.1010   50.8140 O   0  0  0  0  0  0
   21.8410   47.7830   50.9980 O   0  0  0  0  0  0
   19.8640   47.9120   52.3140 O   0  0  0  0  0  0
   17.4878   34.2631   35.1914 H   0  0  0  0  0  0
   19.4278   32.8468   34.4604 H   0  0  0  0  0  0
   18.9962   30.1739   34.7957 H   0  0  0  0  0  0
   17.7928   29.5706   36.8512 H   0  0  0  0  0  0
   20.9107   31.5438   35.6106 H   0  0  0  0  0  0
   13.4403   31.0938   37.9545 H   0  0  0  0  0  0
   17.2625   34.8989   33.7219 H   0  0  0  0  0  0
   17.8696   37.2450   40.5854 H   0  0  0  0  0  0
   16.3867   35.5327   39.5789 H   0  0  0  0  0  0
   18.8417   33.5910   39.4767 H   0  0  0  0  0  0
   17.2079   34.9801   37.2091 H   0  0  0  0  0  0
   20.1133   35.3017   38.3234 H   0  0  0  0  0  0
   18.6671   36.4626   35.9274 H   0  0  0  0  0  0
   19.9652   37.4006   36.7408 H   0  0  0  0  0  0
   17.8479   33.8002   41.6132 H   0  0  0  0  0  0
   16.7129   32.4874   39.9685 H   0  0  0  0  0  0
   15.7399   33.1976   43.3685 H   0  0  0  0  0  0
   22.0033   37.9454   37.0458 H   0  0  0  0  0  0
   20.8219   34.4153   44.9595 H   0  0  0  0  0  0
   18.2664   34.8925   44.7640 H   0  0  0  0  0  0
   17.4606   36.5049   42.9340 H   0  0  0  0  0  0
   19.2328   37.7961   41.6160 H   0  0  0  0  0  0
   21.0370   37.6067   43.2899 H   0  0  0  0  0  0
   18.0045   37.3958   45.1881 H   0  0  0  0  0  0
   23.8270   36.3863   40.7985 H   0  0  0  0  0  0
   17.3482   32.2649   44.7159 H   0  0  0  0  0  0
   23.7847   38.9946   48.4114 H   0  0  0  0  0  0
   24.0715   37.9701   46.0872 H   0  0  0  0  0  0
   21.1806   38.9601   45.6456 H   0  0  0  0  0  0
   22.3500   36.0684   45.8413 H   0  0  0  0  0  0
   20.4545   37.6512   47.7886 H   0  0  0  0  0  0
   19.8590   35.6734   48.5822 H   0  0  0  0  0  0
   20.8093   34.8604   47.2927 H   0  0  0  0  0  0
   23.1100   40.8618   46.2531 H   0  0  0  0  0  0
   22.6613   39.1387   43.7261 H   0  0  0  0  0  0
   26.5487   40.5876   45.7789 H   0  0  0  0  0  0
   23.6552   35.8737   46.8500 H   0  0  0  0  0  0
   20.0418   44.0406   49.0997 H   0  0  0  0  0  0
   22.9438   43.2365   49.9395 H   0  0  0  0  0  0
   21.8039   42.6040   47.1591 H   0  0  0  0  0  0
   23.2492   40.7984   48.6365 H   0  0  0  0  0  0
   21.6936   41.0559   50.6946 H   0  0  0  0  0  0
   24.1507   43.3347   47.1504 H   0  0  0  0  0  0
   18.4344   38.7536   50.0155 H   0  0  0  0  0  0
   24.9325   44.1741   46.7718 H   0  0  0  0  0  0
   21.7904   42.3930   56.1619 H   0  0  0  0  0  0
   19.6895   42.6156   54.6963 H   0  0  0  0  0  0
   21.3638   41.1156   52.5410 H   0  0  0  0  0  0
   20.2544   43.9763   52.6147 H   0  0  0  0  0  0
   23.1940   43.0844   52.8886 H   0  0  0  0  0  0
   23.6329   45.5065   53.1900 H   0  0  0  0  0  0
   22.8758   45.2102   51.5882 H   0  0  0  0  0  0
   19.3411   40.0072   54.2425 H   0  0  0  0  0  0
   22.6876   40.3226   55.0176 H   0  0  0  0  0  0
   18.9154   40.5923   52.5342 H   0  0  0  0  0  0
   18.7855   38.5115   56.4691 H   0  0  0  0  0  0
   22.6592   47.2654   50.4759 H   0  0  0  0  0  0
  1  2  1  0  0  0
  1  9  1  0  0  0
  1 25  1  0  0  0
  1106  1  0  0  0
  2  3  1  0  0  0
  2  7  1  0  0  0
  2107  1  0  0  0
  3  4  1  0  0  0
  3  8  1  0  0  0
  3108  1  0  0  0
  4  5  2  0  0  0
  4109  1  0  0  0
  5  6  1  0  0  0
  5  9  1  0  0  0
  6 10  2  0  0  0
  6 11  1  0  0  0
  7 12  1  0  0  0
  8110  1  0  0  0
 11111  1  0  0  0
 12 13  2  0  0  0
 12 14  2  0  0  0
 12 15  1  0  0  0
 15112  1  0  0  0
 16 17  1  0  0  0
 16 23  1  0  0  0
 16 26  1  0  0  0
 16113  1  0  0  0
 17 18  1  0  0  0
 17 22  1  0  0  0
 17114  1  0  0  0
 18 19  1  0  0  0
 18 24  1  0  0  0
 18115  1  0  0  0
 19 20  1  0  0  0
 19 25  1  0  0  0
 19116  1  0  0  0
 20 21  1  0  0  0
 20 26  1  0  0  0
 20117  1  0  0  0
 21 27  1  0  0  0
 21118  1  0  0  0
 21119  1  0  0  0
 22 28  1  0  0  0
 22120  1  0  0  0
 23 39  1  0  0  0
 24121  1  0  0  0
 27 32  1  0  0  0
 28 29  1  0  0  0
 28 30  2  0  0  0
 28 31  2  0  0  0
 29122  1  0  0  0
 32 33  2  0  0  0
 32 34  2  0  0  0
 32 35  1  0  0  0
 35123  1  0  0  0
 36 37  1  0  0  0
 36 44  1  0  0  0
 36 60  1  0  0  0
 36124  1  0  0  0
 37 38  1  0  0  0
 37 42  1  0  0  0
 37125  1  0  0  0
 38 39  1  0  0  0
 38 43  1  0  0  0
 38126  1  0  0  0
 39 40  1  0  0  0
 39127  1  0  0  0
 40 41  1  0  0  0
 40 44  1  0  0  0
 40128  1  0  0  0
 41 45  2  0  0  0
 41 46  1  0  0  0
 42 47  1  0  0  0
 43129  1  0  0  0
 46130  1  0  0  0
 47 48  2  0  0  0
 47 49  1  0  0  0
 47 50  2  0  0  0
 49131  1  0  0  0
 51 52  1  0  0  0
 51 58  1  0  0  0
 51 61  1  0  0  0
 51132  1  0  0  0
 52 53  1  0  0  0
 52 57  1  0  0  0
 52133  1  0  0  0
 53 54  1  0  0  0
 53 59  1  0  0  0
 53134  1  0  0  0
 54 55  1  0  0  0
 54 60  1  0  0  0
 54135  1  0  0  0
 55 56  1  0  0  0
 55 61  1  0  0  0
 55136  1  0  0  0
 56 62  1  0  0  0
 56137  1  0  0  0
 56138  1  0  0  0
 57 63  1  0  0  0
 57139  1  0  0  0
 58 74  1  0  0  0
 59140  1  0  0  0
 62 67  1  0  0  0
 63 64  1  0  0  0
 63 65  2  0  0  0
 63 66  2  0  0  0
 64141  1  0  0  0
 67 68  2  0  0  0
 67 69  2  0  0  0
 67 70  1  0  0  0
 70142  1  0  0  0
 71 72  1  0  0  0
 71 79  1  0  0  0
 71 95  1  0  0  0
 71143  1  0  0  0
 72 73  1  0  0  0
 72 77  1  0  0  0
 72144  1  0  0  0
 73 74  1  0  0  0
 73 78  1  0  0  0
 73145  1  0  0  0
 74 75  1  0  0  0
 74146  1  0  0  0
 75 76  1  0  0  0
 75 79  1  0  0  0
 75147  1  0  0  0
 76 80  2  0  0  0
 76 81  1  0  0  0
 77 82  1  0  0  0
 78148  1  0  0  0
 81149  1  0  0  0
 82 83  1  0  0  0
 82 84  2  0  0  0
 82 85  2  0  0  0
 83150  1  0  0  0
 86 87  1  0  0  0
 86 93  1  0  0  0
 86 96  1  0  0  0
 86151  1  0  0  0
 87 88  1  0  0  0
 87 92  1  0  0  0
 87152  1  0  0  0
 88 89  1  0  0  0
 88 94  1  0  0  0
 88153  1  0  0  0
 89 90  1  0  0  0
 89 95  1  0  0  0
 89154  1  0  0  0
 90 91  1  0  0  0
 90 96  1  0  0  0
 90155  1  0  0  0
 91 97  1  0  0  0
 91156  1  0  0  0
 91157  1  0  0  0
 92 98  1  0  0  0
 92158  1  0  0  0
 93159  1  0  0  0
 94160  1  0  0  0
 97102  1  0  0  0
 98 99  1  0  0  0
 98100  2  0  0  0
 98101  2  0  0  0
 99161  1  0  0  0
102103  2  0  0  0
102104  1  0  0  0
102105  2  0  0  0
104162  1  0  0  0
M  END
> <s_m_source_file>
../1xt3_ligand.sdf

> <i_m_source_file_index>
1

> <s_epik_input>
Tz1DKFtPSF0pQyhPMSk9W0NIXVtDQEhdKFtPSF0pW0NAQEhdKE9TKD1PKSg9TylbT0hdKVtDQEBIXTFPW0NASF0oW0NASF0oTzIpW0NIMl1PUyg9TykoPU8pW09IXSlbQ0BIXShbT0hdKVtDQEBIXShbTkhdUyg9TykoPU8pW09IXSlbQ0BIXTJPW0NASF0oW0NAQEhdKE8zKUMoPU8pW09IXSlbQ0BIXShbT0hdKVtDQEBIXShPUyg9TykoPU8pW09IXSlbQ0BASF0zT1tDQEhdKFtDQEhdKE80KVtDSDJdT1MoPU8pKD1PKVtPSF0pW0NASF0oW09IXSlbQ0BASF0oW05IXVMoPU8pKD1PKVtPSF0pW0NASF00T1tDQEhdKFtDQEBIXShPNSlDKD1PKVtPSF0pW0NASF0oW09IXSlbQ0BASF0oT1MoPU8pKD1PKVtPSF0pW0NAQEhdNU9bQ0BASF0oW0NASF0oW09IXSlbQ0BIXShbQ0BIXTZbT0hdKVtOSF1TKD1PKSg9TylbT0hdKVtDQEhdKE82KVtDSDJdT1MoPU8pKD1PKVtPSF0=

> <s_epik_cmdline>
J2VwaWtfYXBwJywgJy1pbWFlJywgJ2xpZ2FuZF9wcm8ubWFlJywgJy1vbWFlJywgJ2xpZ2FuZF9wcmVwLm1hZScsICctbXMnLCAnMScsICctcGgnLCAnNycsICctcGh0JywgJzAuNScsICctbnQn

> <s_epik_pKa_notes>
Molecule size exceeds maximum supported for generating protonation states

> <s_epik_Chemistry_Notes>
This compound contains an acetal/aminal-like group ( X-CH(R)-Y where X, Y are N, S, or O) that may be acid/base labile, releasing an aldehyde.

$$$$
