1xt8_ligand
                    3D
 Schrodinger Suite 2020-3.
 14 13  0  0  1  0            999 V2000
   -8.7320   82.3120  -31.0620 N   0  3  0  0  0  0
   -7.9630   81.7460  -29.8920 C   0  0  2  0  0  0
   -8.3110   80.2840  -29.6380 C   0  0  0  0  0  0
   -7.9460   79.7080  -28.6100 O   0  0  0  0  0  0
   -8.2280   82.5590  -28.6330 C   0  0  0  0  0  0
   -9.9770   82.5870  -28.1410 S   0  0  0  0  0  0
   -8.9770   79.6390  -30.4560 O   0  5  0  0  0  0
   -8.5272   81.7113  -31.9605 H   0  0  0  0  0  0
   -8.4198   83.3521  -31.2373 H   0  0  0  0  0  0
   -9.8091   82.2848  -30.8405 H   0  0  0  0  0  0
   -6.8972   81.8100  -30.1565 H   0  0  0  0  0  0
   -7.6575   82.1329  -27.7946 H   0  0  0  0  0  0
   -7.9159   83.6010  -28.7969 H   0  0  0  0  0  0
  -10.2874   83.1443  -27.2448 H   0  0  0  0  0  0
  1  2  1  0  0  0
  1  8  1  0  0  0
  1  9  1  0  0  0
  1 10  1  0  0  0
  2  3  1  0  0  0
  2  5  1  0  0  0
  2 11  1  0  0  0
  3  4  2  0  0  0
  3  7  1  0  0  0
  5  6  1  0  0  0
  5 12  1  0  0  0
  5 13  1  0  0  0
  6 14  1  0  0  0
M  CHG  2   1   1   7  -1
M  END
> <s_m_source_file>
../1xt8_ligand.sdf

> <i_m_source_file_index>
1

> <s_epik_input>
W1NIXVtDSDJdW0NASF0oW05IMytdKUMoPU8pW09IXQ==

> <s_epik_cmdline>
J2VwaWtfYXBwJywgJy1pbWFlJywgJ2xpZ2FuZF9wcm8ubWFlJywgJy1vbWFlJywgJ2xpZ2FuZF9wcmVwLm1hZScsICctbXMnLCAnMScsICctcGgnLCAnNycsICctcGh0JywgJzAuNScsICctbnQn

> <r_epik_Ionization_Penalty>
  0.0199

> <r_epik_Ionization_Penalty_Charging>
  0.0021

> <r_epik_Ionization_Penalty_Neutral>
  0.0178

> <r_epik_State_Penalty>
  0.0142

> <r_epik_Charging_Adjusted_Penalty>
0.0162638897750921

> <i_epik_Tot_Q>
0

> <i_epik_Tot_abs_Q>
2

$$$$
