1xuc_ligand
                    3D
 Schrodinger Suite 2020-3.
 50 52  0  0  1  0            999 V2000
  -11.6440   27.4240   44.9340 C   0  0  0  0  0  0
  -11.0940   27.9990   46.0710 C   0  0  0  0  0  0
   -9.7160   28.0400   46.1830 C   0  0  0  0  0  0
  -10.8160   26.8970   43.9190 N   0  0  0  0  0  0
   -5.9120   27.9920   53.6390 C   0  0  0  0  0  0
  -18.2710   22.2390   44.1490 C   0  0  0  0  0  0
   -9.1310   28.6250   47.3770 C   0  0  0  0  0  0
   -7.0140   28.8070   48.7260 C   0  0  0  0  0  0
   -7.1980   27.9930   50.0040 C   0  0  0  0  0  0
  -13.1020   27.3630   44.8160 C   0  0  0  0  0  0
  -16.6420   24.2110   43.9590 C   0  0  0  0  0  0
  -15.7220   23.6980   46.6590 C   0  0  0  0  0  0
   -8.0850   26.8410   50.0560 C   0  0  0  0  0  0
   -8.2640   26.0830   51.2480 C   0  0  0  0  0  0
   -7.5510   26.4620   52.4200 C   0  0  0  0  0  0
   -6.4910   28.3600   51.1880 C   0  0  0  0  0  0
   -8.8800   27.5130   45.1690 N   0  0  0  0  0  0
   -9.4260   26.9340   44.0180 C   0  0  0  0  0  0
   -7.7950   28.3330   47.5470 N   0  0  0  0  0  0
  -13.5970   26.4180   43.9180 N   0  0  0  0  0  0
  -15.0460   26.1940   43.6840 C   0  0  0  0  0  0
  -15.6270   25.0460   44.5180 C   0  0  0  0  0  0
  -17.1850   23.1330   44.7490 C   0  0  0  0  0  0
  -16.7340   22.8730   46.0870 C   0  0  0  0  0  0
  -15.1780   24.7720   45.8770 C   0  0  0  0  0  0
   -6.6750   27.5910   52.3780 C   0  0  0  0  0  0
  -13.9190   28.0490   45.4520 O   0  0  0  0  0  0
   -9.7050   29.3010   48.2330 O   0  0  0  0  0  0
  -11.7313   28.4076   46.8552 H   0  0  0  0  0  0
   -6.1663   27.3014   54.4566 H   0  0  0  0  0  0
   -6.1898   29.0172   53.9252 H   0  0  0  0  0  0
   -4.8305   27.9462   53.4433 H   0  0  0  0  0  0
  -18.4973   22.5734   43.1258 H   0  0  0  0  0  0
  -19.1801   22.3027   44.7651 H   0  0  0  0  0  0
  -17.9168   21.1979   44.1246 H   0  0  0  0  0  0
   -7.3233   29.8472   48.9061 H   0  0  0  0  0  0
   -5.9557   28.7857   48.4269 H   0  0  0  0  0  0
  -17.0028   24.3865   42.9455 H   0  0  0  0  0  0
  -15.3670   23.5164   47.6735 H   0  0  0  0  0  0
   -8.6280   26.5499   49.1568 H   0  0  0  0  0  0
   -8.9368   25.2256   51.2627 H   0  0  0  0  0  0
   -7.6720   25.8954   53.3432 H   0  0  0  0  0  0
   -5.8181   29.2175   51.1846 H   0  0  0  0  0  0
   -8.7903   26.5284   43.2309 H   0  0  0  0  0  0
   -7.3057   27.7257   46.7713 H   0  0  0  0  0  0
  -12.8527   25.8226   43.3689 H   0  0  0  0  0  0
  -15.6044   27.1057   43.9426 H   0  0  0  0  0  0
  -15.2129   25.9500   42.6245 H   0  0  0  0  0  0
  -17.1621   22.0512   46.6610 H   0  0  0  0  0  0
  -14.4040   25.4030   46.3139 H   0  0  0  0  0  0
  1  2  2  0  0  0
  1  4  1  0  0  0
  1 10  1  0  0  0
  2  3  1  0  0  0
  2 29  1  0  0  0
  3  7  1  0  0  0
  3 17  2  0  0  0
  4 18  2  0  0  0
  5 26  1  0  0  0
  5 30  1  0  0  0
  5 31  1  0  0  0
  5 32  1  0  0  0
  6 23  1  0  0  0
  6 33  1  0  0  0
  6 34  1  0  0  0
  6 35  1  0  0  0
  7 19  1  0  0  0
  7 28  2  0  0  0
  8  9  1  0  0  0
  8 19  1  0  0  0
  8 36  1  0  0  0
  8 37  1  0  0  0
  9 13  2  0  0  0
  9 16  1  0  0  0
 10 20  1  0  0  0
 10 27  2  0  0  0
 11 22  2  0  0  0
 11 23  1  0  0  0
 11 38  1  0  0  0
 12 24  1  0  0  0
 12 25  2  0  0  0
 12 39  1  0  0  0
 13 14  1  0  0  0
 13 40  1  0  0  0
 14 15  2  0  0  0
 14 41  1  0  0  0
 15 26  1  0  0  0
 15 42  1  0  0  0
 16 26  2  0  0  0
 16 43  1  0  0  0
 17 18  1  0  0  0
 18 44  1  0  0  0
 19 45  1  0  0  0
 20 21  1  0  0  0
 20 46  1  0  0  0
 21 22  1  0  0  0
 21 47  1  0  0  0
 21 48  1  0  0  0
 22 25  1  0  0  0
 23 24  2  0  0  0
 24 49  1  0  0  0
 25 50  1  0  0  0
M  END
> <s_m_source_file>
../1xuc_ligand.sdf

> <i_m_source_file_index>
1

> <s_epik_input>
W2NIXTFbY0hdW2NIXWMoW0NIM10pW2NIXWMxW0NIMl1bTkhdQyg9TyljMltjSF1jKG5bY0hdbjIpQyg9TylbTkhdW0NIMl1jM1tjSF1bY0hdW2NIXWMoW0NIM10pW2NIXTM=

> <s_epik_cmdline>
J2VwaWtfYXBwJywgJy1pbWFlJywgJ2xpZ2FuZF9wcm8ubWFlJywgJy1vbWFlJywgJ2xpZ2FuZF9wcmVwLm1hZScsICctbXMnLCAnMScsICctcGgnLCAnNycsICctcGh0JywgJzAuNScsICctbnQn

> <r_lp_tautomer_probability>
1

> <r_epik_Ionization_Penalty>
  0.0001

> <r_epik_Ionization_Penalty_Charging>
  0.0000

> <r_epik_Ionization_Penalty_Neutral>
  0.0001

> <r_epik_State_Penalty>
 -0.0000

> <r_epik_Charging_Adjusted_Penalty>
0

> <i_epik_Tot_Q>
0

> <i_epik_Tot_abs_Q>
0

> <s_epik_Chemistry_Notes>
This compound contains an electron-poor aromatic ring that is susceptible to covalent hydrolysis at low pH, typically resulting in measured values for nitrogen ring protonation that are around two units higher than predicted values.

$$$$
