1xud_ligand
                    3D
 Schrodinger Suite 2020-3.
 50 52  0  0  1  0            999 V2000
  -11.6020   27.3320   44.8470 C   0  0  0  0  0  0
  -11.0420   27.9400   45.9640 C   0  0  0  0  0  0
   -9.6600   27.9910   46.0580 C   0  0  0  0  0  0
   -5.8050   27.9660   53.4540 C   0  0  0  0  0  0
  -18.2930   22.1760   44.2470 C   0  0  0  0  0  0
   -9.0580   28.6100   47.2290 C   0  0  0  0  0  0
   -6.9290   28.8230   48.5460 C   0  0  0  0  0  0
   -7.0870   28.0030   49.8160 C   0  0  0  0  0  0
  -13.0640   27.2600   44.7390 C   0  0  0  0  0  0
  -15.0110   26.0620   43.6260 C   0  0  0  0  0  0
  -15.6040   24.9540   44.5050 C   0  0  0  0  0  0
  -16.6340   24.1120   43.9820 C   0  0  0  0  0  0
  -16.7340   22.8610   46.1670 C   0  0  0  0  0  0
   -7.9500   26.8380   49.8460 C   0  0  0  0  0  0
   -8.1200   26.0570   51.0140 C   0  0  0  0  0  0
   -7.4200   26.4240   52.1900 C   0  0  0  0  0  0
   -6.3860   28.3680   51.0050 C   0  0  0  0  0  0
   -8.8310   27.4410   45.0490 N   0  0  0  0  0  0
   -9.3880   26.8280   43.9210 C   0  0  0  0  0  0
  -10.7790   26.7810   43.8380 N   0  0  0  0  0  0
   -7.7200   28.3150   47.3890 N   0  0  0  0  0  0
  -13.5610   26.2960   43.8550 N   0  0  0  0  0  0
  -17.1890   23.0740   44.8160 C   0  0  0  0  0  0
  -15.7070   23.6950   46.6970 C   0  0  0  0  0  0
  -15.1530   24.7270   45.8700 C   0  0  0  0  0  0
   -6.5590   27.5750   52.1790 C   0  0  0  0  0  0
  -13.8830   27.9540   45.3680 O   0  0  0  0  0  0
   -9.6150   29.3170   48.0770 O   0  0  0  0  0  0
   -7.5890   25.5950   53.4450 F   0  0  0  0  0  0
  -17.2980   21.8280   46.9770 F   0  0  0  0  0  0
  -11.6723   28.3652   46.7450 H   0  0  0  0  0  0
   -6.0498   27.2554   54.2572 H   0  0  0  0  0  0
   -6.1016   28.9804   53.7589 H   0  0  0  0  0  0
   -4.7223   27.9429   53.2613 H   0  0  0  0  0  0
  -18.5138   22.4773   43.2124 H   0  0  0  0  0  0
  -19.2006   22.2775   44.8601 H   0  0  0  0  0  0
  -17.9569   21.1287   44.2601 H   0  0  0  0  0  0
   -7.2576   29.8559   48.7332 H   0  0  0  0  0  0
   -5.8726   28.8242   48.2394 H   0  0  0  0  0  0
  -15.1359   25.7955   42.5661 H   0  0  0  0  0  0
  -15.5313   27.0095   43.8296 H   0  0  0  0  0  0
  -16.9963   24.2528   42.9636 H   0  0  0  0  0  0
   -8.4851   26.5546   48.9396 H   0  0  0  0  0  0
   -8.7781   25.1881   51.0090 H   0  0  0  0  0  0
   -5.7295   29.2380   51.0160 H   0  0  0  0  0  0
   -8.7592   26.4040   43.1381 H   0  0  0  0  0  0
   -7.2382   27.6832   46.6283 H   0  0  0  0  0  0
  -12.8148   25.6946   43.3150 H   0  0  0  0  0  0
  -15.3480   23.5505   47.7160 H   0  0  0  0  0  0
  -14.3673   25.3632   46.2775 H   0  0  0  0  0  0
  1  2  2  0  0  0
  1  9  1  0  0  0
  1 20  1  0  0  0
  2  3  1  0  0  0
  2 31  1  0  0  0
  3  6  1  0  0  0
  3 18  2  0  0  0
  4 26  1  0  0  0
  4 32  1  0  0  0
  4 33  1  0  0  0
  4 34  1  0  0  0
  5 23  1  0  0  0
  5 35  1  0  0  0
  5 36  1  0  0  0
  5 37  1  0  0  0
  6 21  1  0  0  0
  6 28  2  0  0  0
  7  8  1  0  0  0
  7 21  1  0  0  0
  7 38  1  0  0  0
  7 39  1  0  0  0
  8 14  2  0  0  0
  8 17  1  0  0  0
  9 22  1  0  0  0
  9 27  2  0  0  0
 10 11  1  0  0  0
 10 22  1  0  0  0
 10 40  1  0  0  0
 10 41  1  0  0  0
 11 12  2  0  0  0
 11 25  1  0  0  0
 12 23  1  0  0  0
 12 42  1  0  0  0
 13 23  2  0  0  0
 13 24  1  0  0  0
 13 30  1  0  0  0
 14 15  1  0  0  0
 14 43  1  0  0  0
 15 16  2  0  0  0
 15 44  1  0  0  0
 16 26  1  0  0  0
 16 29  1  0  0  0
 17 26  2  0  0  0
 17 45  1  0  0  0
 18 19  1  0  0  0
 19 20  2  0  0  0
 19 46  1  0  0  0
 21 47  1  0  0  0
 22 48  1  0  0  0
 24 25  2  0  0  0
 24 49  1  0  0  0
 25 50  1  0  0  0
M  END
> <s_m_source_file>
../1xud_ligand.sdf

> <i_m_source_file_index>
1

> <s_epik_input>
W2NIXTFbY0hdYyhGKWMoW0NIM10pW2NIXWMxW0NIMl1bTkhdQyg9TyljMltjSF1jKG5bY0hdbjIpQyg9TylbTkhdW0NIMl1jM1tjSF1bY0hdYyhGKWMoW0NIM10pW2NIXTM=

> <s_epik_cmdline>
J2VwaWtfYXBwJywgJy1pbWFlJywgJ2xpZ2FuZF9wcm8ubWFlJywgJy1vbWFlJywgJ2xpZ2FuZF9wcmVwLm1hZScsICctbXMnLCAnMScsICctcGgnLCAnNycsICctcGh0JywgJzAuNScsICctbnQn

> <r_lp_tautomer_probability>
1

> <r_epik_Ionization_Penalty>
  0.0001

> <r_epik_Ionization_Penalty_Charging>
  0.0000

> <r_epik_Ionization_Penalty_Neutral>
  0.0001

> <r_epik_State_Penalty>
 -0.0000

> <r_epik_Charging_Adjusted_Penalty>
0

> <i_epik_Tot_Q>
0

> <i_epik_Tot_abs_Q>
0

> <s_epik_Chemistry_Notes>
This compound contains an electron-poor aromatic ring that is susceptible to covalent hydrolysis at low pH, typically resulting in measured values for nitrogen ring protonation that are around two units higher than predicted values.

$$$$
