1xws_ligand
                    3D
 Schrodinger Suite 2020-3.
 56 60  0  0  1  0            999 V2000
  -14.9030  -36.4870    5.8420 C   0  0  0  0  0  0
  -15.8660  -36.4870    4.7470 N   0  3  0  0  0  0
  -17.2180  -36.9790    4.9630 C   0  0  0  0  0  0
  -15.3890  -35.9230    3.4860 C   0  0  0  0  0  0
  -16.4520  -36.0540    2.4070 C   0  0  0  0  0  0
  -15.6560  -36.0150    1.1240 C   0  0  0  0  0  0
  -16.5110  -36.1470   -0.0400 N   0  0  0  0  0  0
  -17.4560  -37.1270   -0.1720 C   0  0  0  0  0  0
  -16.4620  -35.3690   -1.1300 C   0  0  0  0  0  0
  -15.6680  -34.2780   -1.4930 C   0  0  0  0  0  0
  -15.8460  -33.6620   -2.7160 C   0  0  0  0  0  0
  -16.8130  -34.1320   -3.6210 C   0  0  0  0  0  0
  -17.6160  -35.2240   -3.2780 C   0  0  0  0  0  0
  -17.4030  -35.8500   -2.0450 C   0  0  0  0  0  0
  -18.0360  -36.9000   -1.3980 C   0  0  0  0  0  0
  -19.0800  -37.8430   -1.9360 C   0  0  3  0  0  0
  -19.1420  -38.3480   -3.3350 C   0  0  0  0  0  0
  -18.4160  -37.8970   -4.2920 O   0  5  0  0  0  0
  -20.1060  -39.2700   -3.5490 N   0  0  0  0  0  0
  -20.6570  -39.4950   -2.3480 C   0  0  0  0  0  0
  -21.6020  -40.3400   -2.2080 O   0  0  0  0  0  0
  -20.0890  -38.6740   -1.2550 C   0  0  1  0  0  0
  -20.5040  -38.7500    0.1830 C   0  0  0  0  0  0
  -20.4300  -37.7310    1.1540 C   0  0  0  0  0  0
  -20.0080  -36.3960    1.1200 C   0  0  0  0  0  0
  -20.0660  -35.6470    2.2900 C   0  0  0  0  0  0
  -20.5500  -36.2460    3.4540 C   0  0  0  0  0  0
  -20.9830  -37.5830    3.4910 C   0  0  0  0  0  0
  -20.9090  -38.3470    2.3110 C   0  0  0  0  0  0
  -21.2560  -39.6430    2.0190 N   0  0  0  0  0  0
  -21.0250  -39.9310    0.7090 C   0  0  0  0  0  0
  -15.3647  -36.9309    6.7363 H   0  0  0  0  0  0
  -14.5976  -35.4533    6.0617 H   0  0  0  0  0  0
  -14.0203  -37.0768    5.5540 H   0  0  0  0  0  0
  -16.6453  -37.1246    4.3042 H   0  0  0  0  0  0
  -17.3132  -37.3486    5.9947 H   0  0  0  0  0  0
  -17.4269  -37.7982    4.2593 H   0  0  0  0  0  0
  -17.9361  -36.1622    4.7984 H   0  0  0  0  0  0
  -15.1527  -34.8579    3.6268 H   0  0  0  0  0  0
  -14.4847  -36.4596    3.1631 H   0  0  0  0  0  0
  -16.9914  -37.0038    2.5371 H   0  0  0  0  0  0
  -17.1604  -35.2162    2.4865 H   0  0  0  0  0  0
  -15.1202  -35.0569    1.0539 H   0  0  0  0  0  0
  -14.9307  -36.8420    1.1172 H   0  0  0  0  0  0
  -17.6970  -37.9164    0.5399 H   0  0  0  0  0  0
  -14.9042  -33.9113   -0.8073 H   0  0  0  0  0  0
  -15.2304  -32.8027   -2.9821 H   0  0  0  0  0  0
  -16.9368  -33.6460   -4.5888 H   0  0  0  0  0  0
  -18.3912  -35.5799   -3.9566 H   0  0  0  0  0  0
  -19.0114  -36.8449   -1.4788 H   0  0  0  0  0  0
  -20.8500  -37.9015   -1.4398 H   0  0  0  0  0  0
  -19.6360  -35.9380    0.1916 H   0  0  0  0  0  0
  -19.7332  -34.5985    2.2889 H   0  0  0  0  0  0
  -20.5939  -35.6550    4.3688 H   0  0  0  0  0  0
  -21.3732  -38.0346    4.4150 H   0  0  0  0  0  0
  -21.2579  -40.9319    0.3166 H   0  0  0  0  0  0
  1  2  1  0  0  0
  1 32  1  0  0  0
  1 33  1  0  0  0
  1 34  1  0  0  0
  2  3  1  0  0  0
  2  4  1  0  0  0
  2 35  1  0  0  0
  3 36  1  0  0  0
  3 37  1  0  0  0
  3 38  1  0  0  0
  4  5  1  0  0  0
  4 39  1  0  0  0
  4 40  1  0  0  0
  5  6  1  0  0  0
  5 41  1  0  0  0
  5 42  1  0  0  0
  6  7  1  0  0  0
  6 43  1  0  0  0
  6 44  1  0  0  0
  7  8  1  0  0  0
  7  9  1  0  0  0
  8 15  2  0  0  0
  8 45  1  0  0  0
  9 10  2  0  0  0
  9 14  1  0  0  0
 10 11  1  0  0  0
 10 46  1  0  0  0
 11 12  2  0  0  0
 11 47  1  0  0  0
 12 13  1  0  0  0
 12 48  1  0  0  0
 13 14  2  0  0  0
 13 49  1  0  0  0
 14 15  1  0  0  0
 15 16  1  0  0  0
 16 17  1  0  0  0
 16 22  1  0  0  0
 16 50  1  0  0  0
 17 18  1  0  0  0
 17 19  2  0  0  0
 19 20  1  0  0  0
 20 21  2  0  0  0
 20 22  1  0  0  0
 22 23  1  0  0  0
 22 51  1  0  0  0
 23 24  2  0  0  0
 23 31  1  0  0  0
 24 25  1  0  0  0
 24 29  1  0  0  0
 25 26  2  0  0  0
 25 52  1  0  0  0
 26 27  1  0  0  0
 26 53  1  0  0  0
 27 28  1  0  0  0
 27 54  1  0  0  0
 28 29  2  0  0  0
 28 55  1  0  0  0
 29 30  1  0  0  0
 30 31  2  0  0  0
 31 56  1  0  0  0
M  CHG  2   2   1  18  -1
M  END
> <s_m_source_file>
../1xws_ligand.sdf

> <i_m_source_file_index>
1

> <s_epik_input>
W0NIM11bTkgrXShbQ0gzXSlbQ0gyXVtDSDJdW0NIMl1uMVtjSF1jKGMoYzEyKVtjSF1bY0hdW2NIXVtjSF0yKVtDSF0zQyg9TylbTkhdQyg9TylbQ0hdM0M9NFtDSF09TkMoQzQ1KT1bQ0hdW0NIMl1bQ0hdPVtDSF01

> <s_epik_cmdline>
J2VwaWtfYXBwJywgJy1pbWFlJywgJ2xpZ2FuZF9wcm8ubWFlJywgJy1vbWFlJywgJ2xpZ2FuZF9wcmVwLm1hZScsICctbXMnLCAnMScsICctcGgnLCAnNycsICctcGh0JywgJzAuNScsICctbnQn

> <r_epik_Ionization_Penalty>
  0.0153

> <r_epik_Ionization_Penalty_Charging>
  0.0153

> <r_epik_Ionization_Penalty_Neutral>
  0.0000

> <r_epik_State_Penalty>
  0.0077

> <r_epik_Charging_Adjusted_Penalty>
0.0229859028284419

> <i_epik_Tot_Q>
0

> <i_epik_Tot_abs_Q>
2

> <s_epik_Chemistry_Notes>
This compound has an imine and may undergo hydrolysis.

$$$$
