1xxe_ligand
                    3D
 Schrodinger Suite 2020-3.
 71 71  0  0  1  0            999 V2000
  -10.7240    3.1650   -2.7820 C   0  0  1  0  0  0
  -11.1710    1.8330   -3.3560 C   0  0  1  0  0  0
  -10.9630    0.7050   -2.3520 C   0  0  2  0  0  0
   -9.2980    3.0660   -2.2750 C   0  0  2  0  0  0
   -9.1520    1.9050   -1.2970 C   0  0  0  0  0  0
   -9.5970    0.6650   -1.8880 O   0  0  0  0  0  0
  -10.8290    4.1970   -3.7820 O   0  0  0  0  0  0
  -12.7720    4.9120   -2.7680 O   0  0  0  0  0  0
  -11.8010    5.2030   -3.4390 C   0  0  0  0  0  0
  -11.6230    6.6290   -3.9360 C   0  0  0  0  0  0
  -10.9370    7.4640   -2.8600 C   0  0  0  0  0  0
  -11.6710    8.7850   -2.6500 C   0  0  0  0  0  0
  -11.5000    9.7000   -3.8610 C   0  0  0  0  0  0
  -12.6740   10.6740   -3.9810 C   0  0  0  0  0  0
  -13.5280   10.3610   -5.2080 C   0  0  0  0  0  0
  -13.0920   11.2100   -6.4000 C   0  0  0  0  0  0
  -14.0600   11.0240   -7.5660 C   0  0  0  0  0  0
  -13.7390   11.9950   -8.7010 C   0  0  0  0  0  0
  -15.0210   12.6010   -9.2710 C   0  0  0  0  0  0
  -16.0420   11.5080   -9.5780 C   0  0  0  0  0  0
  -16.7790   11.8060  -10.8820 C   0  0  0  0  0  0
  -17.7950   10.7070  -11.1850 C   0  0  0  0  0  0
   -8.8780    4.3810   -1.6240 C   0  0  0  0  0  0
   -7.3630    4.5070   -1.6620 C   0  0  0  0  0  0
   -6.7950    4.7340   -2.7130 O   0  0  0  0  0  0
   -6.7040    4.3670   -0.5460 N   0  0  0  0  0  0
   -5.2730    4.5060   -0.5340 O   0  0  0  0  0  0
  -12.5440    1.9060   -3.7150 O   0  0  0  0  0  0
  -11.2680   -0.6490   -2.9600 C   0  0  0  0  0  0
  -10.1260   -1.1870   -3.6110 O   0  0  0  0  0  0
  -11.3936    3.4707   -1.9646 H   0  0  0  0  0  0
  -10.6231    1.6216   -4.2861 H   0  0  0  0  0  0
  -11.6080    0.9061   -1.4839 H   0  0  0  0  0  0
   -8.6393    2.8722   -3.1344 H   0  0  0  0  0  0
   -8.0954    1.7977   -1.0104 H   0  0  0  0  0  0
   -9.7570    2.1030   -0.3999 H   0  0  0  0  0  0
  -11.0046    6.6257   -4.8457 H   0  0  0  0  0  0
  -12.6076    7.0636   -4.1635 H   0  0  0  0  0  0
  -10.9312    6.9067   -1.9116 H   0  0  0  0  0  0
   -9.9023    7.6779   -3.1659 H   0  0  0  0  0  0
  -12.7433    8.5892   -2.5026 H   0  0  0  0  0  0
  -11.2656    9.2927   -1.7624 H   0  0  0  0  0  0
  -10.5705   10.2786   -3.7550 H   0  0  0  0  0  0
  -11.4509    9.0917   -4.7762 H   0  0  0  0  0  0
  -13.3067   10.5978   -3.0844 H   0  0  0  0  0  0
  -12.2906   11.7009   -4.0730 H   0  0  0  0  0  0
  -13.4184    9.2982   -5.4696 H   0  0  0  0  0  0
  -14.5833   10.5768   -4.9850 H   0  0  0  0  0  0
  -13.0796   12.2709   -6.1095 H   0  0  0  0  0  0
  -12.0841   10.9052   -6.7182 H   0  0  0  0  0  0
  -13.9810    9.9954   -7.9476 H   0  0  0  0  0  0
  -15.0883   11.2095   -7.2221 H   0  0  0  0  0  0
  -13.1008   12.8060   -8.3202 H   0  0  0  0  0  0
  -13.2112   11.4592   -9.5037 H   0  0  0  0  0  0
  -15.4544   13.2978   -8.5384 H   0  0  0  0  0  0
  -14.7891   13.1429  -10.1997 H   0  0  0  0  0  0
  -15.5262   10.5413   -9.6749 H   0  0  0  0  0  0
  -16.7759   11.4517   -8.7606 H   0  0  0  0  0  0
  -17.3075   12.7666  -10.7932 H   0  0  0  0  0  0
  -16.0548   11.8609  -11.7082 H   0  0  0  0  0  0
  -18.3154   10.9381  -12.1262 H   0  0  0  0  0  0
  -18.5271   10.6485  -10.3661 H   0  0  0  0  0  0
  -17.2744    9.7428  -11.2810 H   0  0  0  0  0  0
   -9.3289    5.2217   -2.1717 H   0  0  0  0  0  0
   -9.2204    4.3985   -0.5788 H   0  0  0  0  0  0
   -7.2426    4.1425    0.3865 H   0  0  0  0  0  0
   -4.7168    4.3879    0.4077 H   0  0  0  0  0  0
  -12.8848    2.6653   -4.4343 H   0  0  0  0  0  0
  -11.5811   -1.3446   -2.1675 H   0  0  0  0  0  0
  -12.0772   -0.5457   -3.6980 H   0  0  0  0  0  0
  -10.1854   -2.1685   -4.1041 H   0  0  0  0  0  0
  1  2  1  0  0  0
  1  4  1  0  0  0
  1  7  1  0  0  0
  1 31  1  0  0  0
  2  3  1  0  0  0
  2 28  1  0  0  0
  2 32  1  0  0  0
  3  6  1  0  0  0
  3 29  1  0  0  0
  3 33  1  0  0  0
  4  5  1  0  0  0
  4 23  1  0  0  0
  4 34  1  0  0  0
  5  6  1  0  0  0
  5 35  1  0  0  0
  5 36  1  0  0  0
  7  9  1  0  0  0
  8  9  2  0  0  0
  9 10  1  0  0  0
 10 11  1  0  0  0
 10 37  1  0  0  0
 10 38  1  0  0  0
 11 12  1  0  0  0
 11 39  1  0  0  0
 11 40  1  0  0  0
 12 13  1  0  0  0
 12 41  1  0  0  0
 12 42  1  0  0  0
 13 14  1  0  0  0
 13 43  1  0  0  0
 13 44  1  0  0  0
 14 15  1  0  0  0
 14 45  1  0  0  0
 14 46  1  0  0  0
 15 16  1  0  0  0
 15 47  1  0  0  0
 15 48  1  0  0  0
 16 17  1  0  0  0
 16 49  1  0  0  0
 16 50  1  0  0  0
 17 18  1  0  0  0
 17 51  1  0  0  0
 17 52  1  0  0  0
 18 19  1  0  0  0
 18 53  1  0  0  0
 18 54  1  0  0  0
 19 20  1  0  0  0
 19 55  1  0  0  0
 19 56  1  0  0  0
 20 21  1  0  0  0
 20 57  1  0  0  0
 20 58  1  0  0  0
 21 22  1  0  0  0
 21 59  1  0  0  0
 21 60  1  0  0  0
 22 61  1  0  0  0
 22 62  1  0  0  0
 22 63  1  0  0  0
 23 24  1  0  0  0
 23 64  1  0  0  0
 23 65  1  0  0  0
 24 25  2  0  0  0
 24 26  1  0  0  0
 26 27  1  0  0  0
 26 66  1  0  0  0
 27 67  1  0  0  0
 28 68  1  0  0  0
 29 30  1  0  0  0
 29 69  1  0  0  0
 29 70  1  0  0  0
 30 71  1  0  0  0
M  END
> <s_m_source_file>
../1xxe_ligand.sdf

> <i_m_source_file_index>
1

> <s_epik_input>
W09IXVtOSF1DKD1PKVtDSDJdW0NASF0xW0NIMl1PW0NASF0oW0NIMl1bT0hdKVtDQEBIXShbT0hdKVtDQEBIXTFPQyg9TylbQ0gyXVtDSDJdW0NIMl1bQ0gyXVtDSDJdW0NIMl1bQ0gyXVtDSDJdW0NIMl1bQ0gyXVtDSDJdW0NIMl1bQ0gzXQ==

> <s_epik_cmdline>
J2VwaWtfYXBwJywgJy1pbWFlJywgJ2xpZ2FuZF9wcm8ubWFlJywgJy1vbWFlJywgJ2xpZ2FuZF9wcmVwLm1hZScsICctbXMnLCAnMScsICctcGgnLCAnNycsICctcGh0JywgJzAuNScsICctbnQn

> <r_lp_tautomer_probability>
1

> <r_epik_Ionization_Penalty>
  0.0052

> <r_epik_Ionization_Penalty_Charging>
  0.0000

> <r_epik_Ionization_Penalty_Neutral>
  0.0052

> <r_epik_State_Penalty>
 -0.0000

> <r_epik_Charging_Adjusted_Penalty>
0

> <i_epik_Tot_Q>
0

> <i_epik_Tot_abs_Q>
0

> <s_epik_Chemistry_Notes>
This compound has an ester and may undergo hydrolysis at high or low pH. This compound has a N-S or N-O group and may undergo hydrolysis at high or low pH.

$$$$
