1xxh_ligand
                    3D
 Schrodinger Suite 2020-3.
 44 46  0  0  1  0            999 V2000
   50.5880   79.4630   30.2030 P   0  0  1  0  0  0
   50.7440   80.4040   31.4410 O   0  5  0  0  0  0
   51.6980   78.4630   30.2150 O   0  0  0  0  0  0
   49.0310   78.7340   30.2560 S   0  0  0  0  0  0
   49.9220   81.4700   28.0220 P   0  0  2  0  0  0
   49.3340   82.3510   29.0880 O   0  0  0  0  0  0
   49.0330   80.9340   26.9290 O   0  5  0  0  0  0
   50.7000   80.2860   28.7630 O   0  0  0  0  0  0
   51.7510   83.7230   27.6060 P   0  0  1  0  0  0
   50.7930   84.7190   27.0040 O   0  0  0  0  0  0
   52.0410   83.9160   29.0790 O   0  5  0  0  0  0
   51.1250   82.2640   27.3530 O   0  0  0  0  0  0
   53.0780   83.6110   26.6790 O   0  0  0  0  0  0
   54.3630   83.4880   27.3620 C   0  0  0  0  0  0
   55.4860   84.0790   26.5070 C   0  0  1  0  0  0
   55.4200   83.3910   25.2050 O   0  0  0  0  0  0
   55.3060   85.5820   26.1600 C   0  0  1  0  0  0
   55.9720   86.4600   27.0540 O   0  0  0  0  0  0
   55.7680   85.6840   24.7050 C   0  0  1  0  0  0
   57.1120   86.0810   24.5370 O   0  0  0  0  0  0
   55.5340   84.3350   24.1190 C   0  0  2  0  0  0
   54.2510   84.2420   23.2980 N   0  0  0  0  0  0
   53.2530   83.3390   23.6210 C   0  0  0  0  0  0
   52.1920   83.3490   22.8360 N   0  0  0  0  0  0
   52.4800   84.3210   21.9180 C   0  0  0  0  0  0
   51.7530   84.8380   20.7900 C   0  0  0  0  0  0
   50.5360   84.3830   20.4190 N   0  0  0  0  0  0
   52.3490   85.8450   20.0570 N   0  0  0  0  0  0
   53.5890   86.3150   20.4220 C   0  0  0  0  0  0
   54.3630   85.8990   21.4690 N   0  0  0  0  0  0
   53.7570   84.8980   22.1870 C   0  0  0  0  0  0
   48.7346   78.1327   31.1281 H   0  0  0  0  0  0
   54.3224   84.0278   28.3196 H   0  0  0  0  0  0
   54.5788   82.4257   27.5488 H   0  0  0  0  0  0
   56.4282   83.9248   27.0534 H   0  0  0  0  0  0
   54.2962   85.9858   26.3252 H   0  0  0  0  0  0
   55.7092   86.4607   28.1221 H   0  0  0  0  0  0
   55.2668   86.4993   24.1628 H   0  0  0  0  0  0
   57.4487   87.0571   24.9163 H   0  0  0  0  0  0
   56.4016   84.1022   23.4841 H   0  0  0  0  0  0
   53.3380   82.6617   24.4708 H   0  0  0  0  0  0
   50.0498   83.5812   20.9941 H   0  0  0  0  0  0
   50.0314   84.8144   19.5419 H   0  0  0  0  0  0
   54.0027   87.1121   19.8043 H   0  0  0  0  0  0
  1  2  1  0  0  0
  1  3  2  0  0  0
  1  4  1  0  0  0
  1  8  1  0  0  0
  4 32  1  0  0  0
  5  6  2  0  0  0
  5  7  1  0  0  0
  5  8  1  0  0  0
  5 12  1  0  0  0
  9 10  2  0  0  0
  9 11  1  0  0  0
  9 12  1  0  0  0
  9 13  1  0  0  0
 13 14  1  0  0  0
 14 15  1  0  0  0
 14 33  1  0  0  0
 14 34  1  0  0  0
 15 16  1  0  0  0
 15 17  1  0  0  0
 15 35  1  0  0  0
 16 21  1  0  0  0
 17 18  1  0  0  0
 17 19  1  0  0  0
 17 36  1  0  0  0
 18 37  1  0  0  0
 19 20  1  0  0  0
 19 21  1  0  0  0
 19 38  1  0  0  0
 20 39  1  0  0  0
 21 22  1  0  0  0
 21 40  1  0  0  0
 22 23  1  0  0  0
 22 31  1  0  0  0
 23 24  2  0  0  0
 23 41  1  0  0  0
 24 25  1  0  0  0
 25 26  2  0  0  0
 25 31  1  0  0  0
 26 27  1  0  0  0
 26 28  1  0  0  0
 27 42  1  0  0  0
 27 43  1  0  0  0
 28 29  2  0  0  0
 29 30  1  0  0  0
 29 44  1  0  0  0
 30 31  2  0  0  0
M  CHG  3   2  -1   7  -1  11  -1
M  END
> <s_m_source_file>
../1xxh_ligand.sdf

> <i_m_source_file_index>
1

> <s_epik_input>
W09IXVtQQEBdKD1PKShbU0hdKU9bUEBdKD1PKShbT0hdKU9bUEBAXSg9TykoW09IXSlPW0NIMl1bQ0BIXTFPW0NASF0oW0NASF0oW09IXSlbQ0BASF0xW09IXSluKFtjSF1uMiljKGMyMyluW2NIXW5jM1tOSDJd

> <s_epik_cmdline>
J2VwaWtfYXBwJywgJy1pbWFlJywgJ2xpZ2FuZF9wcm8ubWFlJywgJy1vbWFlJywgJ2xpZ2FuZF9wcmVwLm1hZScsICctbXMnLCAnMScsICctcGgnLCAnNycsICctcGh0JywgJzAuNScsICctbnQn

> <r_lp_tautomer_probability>
0.999997216410988

> <r_epik_Ionization_Penalty>
  0.0807

> <r_epik_Ionization_Penalty_Charging>
  0.0005

> <r_epik_Ionization_Penalty_Neutral>
  0.0802

> <r_epik_State_Penalty>
  0.0706

> <r_epik_Charging_Adjusted_Penalty>
0.0710841366671861

> <i_epik_Tot_Q>
-3

> <i_epik_Tot_abs_Q>
3

> <s_epik_Chemistry_Notes>
This compound contains an acetal/aminal-like group ( X-CH(R)-Y where X, Y are N, S, or O) that may be acid/base labile, releasing an aldehyde.

$$$$
