1xz8_ligand
                    3D
 Schrodinger Suite 2020-3.
 32 33  0  0  1  0            999 V2000
   20.2550   29.7180    5.1360 N   0  0  0  0  0  0
   20.5420   31.1140    5.0590 C   0  0  0  0  0  0
   20.5350   31.7640    6.2920 N   0  0  0  0  0  0
   20.2810   31.2020    7.5790 C   0  0  0  0  0  0
   20.0010   29.7970    7.5790 C   0  0  0  0  0  0
   19.9950   29.1330    6.4380 C   0  0  0  0  0  0
   20.7700   31.6660    3.9970 O   0  0  0  0  0  0
   20.3180   31.9360    8.5410 O   0  0  0  0  0  0
   20.2220   28.8470    3.8570 C   0  0  1  0  0  0
   21.6140   28.8270    3.1740 C   0  0  2  0  0  0
   21.5620   28.9050    1.7000 O   0  0  0  0  0  0
   22.2540   27.5830    3.7400 C   0  0  1  0  0  0
   21.0370   26.6320    3.9030 C   0  0  2  0  0  0
   23.3160   27.0880    2.8630 O   0  0  0  0  0  0
   19.9250   27.5330    4.2310 O   0  0  0  0  0  0
   21.1190   25.7250    5.1260 C   0  0  0  0  0  0
   20.2800   24.5580    5.0170 O   0  0  0  0  0  0
   19.7570   23.7550    6.3050 P   0  0  0  0  0  0
   20.7760   23.1940    7.2430 O   0  5  0  0  0  0
   18.9330   22.5900    5.8960 O   0  0  0  0  0  0
   18.6340   24.8250    6.9180 O   0  5  0  0  0  0
   20.7435   32.8427    6.3463 H   0  0  0  0  0  0
   19.7941   29.2793    8.5156 H   0  0  0  0  0  0
   19.7785   28.0654    6.4770 H   0  0  0  0  0  0
   19.4256   29.1739    3.1722 H   0  0  0  0  0  0
   22.2378   29.7161    3.3486 H   0  0  0  0  0  0
   21.1106   29.7809    1.2112 H   0  0  0  0  0  0
   22.8292   27.7292    4.6662 H   0  0  0  0  0  0
   20.9153   26.0167    2.9993 H   0  0  0  0  0  0
   24.2155   27.6972    2.6906 H   0  0  0  0  0  0
   22.1554   25.3810    5.2585 H   0  0  0  0  0  0
   20.8011   26.2836    6.0187 H   0  0  0  0  0  0
  1  2  1  0  0  0
  1  6  1  0  0  0
  1  9  1  0  0  0
  2  3  1  0  0  0
  2  7  2  0  0  0
  3  4  1  0  0  0
  3 22  1  0  0  0
  4  5  1  0  0  0
  4  8  2  0  0  0
  5  6  2  0  0  0
  5 23  1  0  0  0
  6 24  1  0  0  0
  9 10  1  0  0  0
  9 15  1  0  0  0
  9 25  1  0  0  0
 10 11  1  0  0  0
 10 12  1  0  0  0
 10 26  1  0  0  0
 11 27  1  0  0  0
 12 13  1  0  0  0
 12 14  1  0  0  0
 12 28  1  0  0  0
 13 15  1  0  0  0
 13 16  1  0  0  0
 13 29  1  0  0  0
 14 30  1  0  0  0
 16 17  1  0  0  0
 16 31  1  0  0  0
 16 32  1  0  0  0
 17 18  1  0  0  0
 18 19  1  0  0  0
 18 20  2  0  0  0
 18 21  1  0  0  0
M  CHG  2  19  -1  21  -1
M  END
> <s_m_source_file>
../1xz8_ligand.sdf

> <i_m_source_file_index>
1

> <s_epik_input>
W2NIXTFbY0hdYyg9TylbbkhdYyg9TyluMVtDQEhdMltDQEhdKFtPSF0pW0NASF0oW09IXSlbQ0BIXShPMilbQ0gyXU9QKD1PKShbT0hdKVtPSF0=

> <s_epik_cmdline>
J2VwaWtfYXBwJywgJy1pbWFlJywgJ2xpZ2FuZF9wcm8ubWFlJywgJy1vbWFlJywgJ2xpZ2FuZF9wcmVwLm1hZScsICctbXMnLCAnMScsICctcGgnLCAnNycsICctcGh0JywgJzAuNScsICctbnQn

> <r_lp_tautomer_probability>
0.999537046341301

> <r_epik_Ionization_Penalty>
  0.1082

> <r_epik_Ionization_Penalty_Charging>
  0.1082

> <r_epik_Ionization_Penalty_Neutral>
  0.0000

> <r_epik_State_Penalty>
  0.0955

> <r_epik_Charging_Adjusted_Penalty>
0.203721441546161

> <i_epik_Tot_Q>
-2

> <i_epik_Tot_abs_Q>
2

> <s_epik_Chemistry_Notes>
This compound contains an acetal/aminal-like group ( X-CH(R)-Y where X, Y are N, S, or O) that may be acid/base labile, releasing an aldehyde.

$$$$
