1xzx_ligand
                    3D
 Schrodinger Suite 2020-3.
 35 36  0  0  1  0            999 V2000
    6.7300   20.8490   92.9310 C   0  0  0  0  0  0
    3.4730   18.2180   95.5170 C   0  0  0  0  0  0
    6.9610   20.5530   94.2780 C   0  0  0  0  0  0
    3.1800   17.3620   96.5190 C   0  0  0  0  0  0
    6.2560   19.5770   94.9000 C   0  0  0  0  0  0
    2.0150   17.5480   97.2700 C   0  0  0  0  0  0
    5.2220   18.9150   94.1360 C   0  0  0  0  0  0
    1.1460   18.6720   97.0820 C   0  0  0  0  0  0
    4.9250   19.2600   92.7670 C   0  0  0  0  0  0
    1.5120   19.5430   96.1290 C   0  0  0  0  0  0
    5.7310   20.2430   92.2170 C   0  0  0  0  0  0
    2.6570   19.3270   95.3460 C   0  0  0  0  0  0
    7.5580   21.9760   92.3010 C   0  0  0  0  0  0
    8.2250   21.6560   91.0010 C   0  0  1  0  0  0
    9.2030   22.7600   90.7150 C   0  0  0  0  0  0
    6.6790   18.9080   96.8980 I   0  0  0  0  0  0
    1.4370   16.2310   98.8510 I   0  0  0  0  0  0
    3.5130   18.1420   91.6440 I   0  0  0  0  0  0
    8.7620   20.3200   90.9670 N   0  3  0  0  0  0
    0.0960   18.7990   97.8550 O   0  0  0  0  0  0
    4.5780   17.9420   94.7110 O   0  0  0  0  0  0
   10.2920   22.4520   90.0490 O   0  5  0  0  0  0
    8.9880   23.9600   91.0200 O   0  0  0  0  0  0
    7.7147   21.1121   94.8325 H   0  0  0  0  0  0
    3.8481   16.5300   96.7416 H   0  0  0  0  0  0
    0.9089   20.4350   95.9597 H   0  0  0  0  0  0
    5.5647   20.5439   91.1826 H   0  0  0  0  0  0
    2.9138   20.0557   94.5772 H   0  0  0  0  0  0
    6.9089   22.8421   92.1046 H   0  0  0  0  0  0
    8.3625   22.2698   92.9912 H   0  0  0  0  0  0
    7.5069   21.5815   90.1711 H   0  0  0  0  0  0
    7.9626   19.5978   91.1893 H   0  0  0  0  0  0
    9.5601   20.2264   91.7182 H   0  0  0  0  0  0
    9.1733   20.1155   89.9675 H   0  0  0  0  0  0
   -0.1261   18.0319   98.6115 H   0  0  0  0  0  0
  1  3  2  0  0  0
  1 11  1  0  0  0
  1 13  1  0  0  0
  2  4  2  0  0  0
  2 12  1  0  0  0
  2 21  1  0  0  0
  3  5  1  0  0  0
  3 24  1  0  0  0
  4  6  1  0  0  0
  4 25  1  0  0  0
  5  7  2  0  0  0
  5 16  1  0  0  0
  6  8  2  0  0  0
  6 17  1  0  0  0
  7  9  1  0  0  0
  7 21  1  0  0  0
  8 10  1  0  0  0
  8 20  1  0  0  0
  9 11  2  0  0  0
  9 18  1  0  0  0
 10 12  2  0  0  0
 10 26  1  0  0  0
 11 27  1  0  0  0
 12 28  1  0  0  0
 13 14  1  0  0  0
 13 29  1  0  0  0
 13 30  1  0  0  0
 14 15  1  0  0  0
 14 19  1  0  0  0
 14 31  1  0  0  0
 15 22  1  0  0  0
 15 23  2  0  0  0
 19 32  1  0  0  0
 19 33  1  0  0  0
 19 34  1  0  0  0
 20 35  1  0  0  0
M  CHG  2  19   1  22  -1
M  END
> <s_m_source_file>
../1xzx_ligand.sdf

> <i_m_source_file_index>
1

> <s_epik_input>
W09IXUMoPU8pW0NAQEhdKFtOSDMrXSlbQ0gyXWMxW2NIXWMoSSljKGMoSSlbY0hdMSlPYzJbY0hdYyhJKWMoW09IXSlbY0hdW2NIXTI=

> <s_epik_cmdline>
J2VwaWtfYXBwJywgJy1pbWFlJywgJ2xpZ2FuZF9wcm8ubWFlJywgJy1vbWFlJywgJ2xpZ2FuZF9wcmVwLm1hZScsICctbXMnLCAnMScsICctcGgnLCAnNycsICctcGh0JywgJzAuNScsICctbnQn

> <r_lp_tautomer_probability>
1

> <r_epik_Ionization_Penalty>
  0.1157

> <r_epik_Ionization_Penalty_Charging>
  0.0030

> <r_epik_Ionization_Penalty_Neutral>
  0.1127

> <r_epik_State_Penalty>
  0.1024

> <r_epik_Charging_Adjusted_Penalty>
0.105431399014427

> <i_epik_Tot_Q>
0

> <i_epik_Tot_abs_Q>
2

$$$$
