1y0l_ligand
                    3D
 Schrodinger Suite 2020-3.
 38 39  0  0  1  0            999 V2000
   19.5170   87.8010   41.9100 N   0  0  0  0  0  0
   20.9480   88.0010   42.0070 C   0  0  0  0  0  0
   21.5000   88.6390   41.0400 N   0  3  0  0  0  0
   20.5170   89.6430   38.8940 C   0  0  0  0  0  0
   19.3020   89.8230   38.1630 C   0  0  0  0  0  0
   18.0440   89.3080   38.7000 C   0  0  0  0  0  0
   18.0250   88.6240   39.9460 C   0  0  0  0  0  0
   20.4760   88.9440   40.1580 C   0  0  0  0  0  0
   19.2520   88.4450   40.6710 C   0  0  0  0  0  0
   19.4010   90.5710   36.8170 C   0  0  0  0  0  0
   16.6870   89.4570   37.9790 C   0  0  0  0  0  0
   21.7100   87.5220   43.0950 N   0  0  0  0  0  0
   18.5970   87.1100   42.8440 C   0  0  0  0  0  0
   17.9990   88.0270   43.9220 C   0  0  0  0  0  0
   18.3940   87.6030   45.3440 C   0  0  0  0  0  0
   17.7340   86.2770   45.7950 C   0  0  0  0  0  0
   16.8770   86.4180   47.0600 C   0  0  0  0  0  0
   15.7960   85.7900   47.1170 O   0  0  0  0  0  0
   17.2780   87.1510   48.0050 O   0  5  0  0  0  0
   21.4597   90.0270   38.5041 H   0  0  0  0  0  0
   17.0878   88.2388   40.3476 H   0  0  0  0  0  0
   20.4470   90.8570   36.6326 H   0  0  0  0  0  0
   18.7746   91.4745   36.8527 H   0  0  0  0  0  0
   19.0519   89.9146   36.0062 H   0  0  0  0  0  0
   16.8320   89.9997   37.0333 H   0  0  0  0  0  0
   15.9907   90.0173   38.6203 H   0  0  0  0  0  0
   16.2716   88.4602   37.7698 H   0  0  0  0  0  0
   21.2174   86.9773   43.9140 H   0  0  0  0  0  0
   22.7962   87.6935   43.1236 H   0  0  0  0  0  0
   17.7563   86.6801   42.2797 H   0  0  0  0  0  0
   19.1384   86.3062   43.3644 H   0  0  0  0  0  0
   18.3540   89.0564   43.7659 H   0  0  0  0  0  0
   16.9013   88.0037   43.8555 H   0  0  0  0  0  0
   19.4840   87.4641   45.3957 H   0  0  0  0  0  0
   18.0895   88.3832   46.0572 H   0  0  0  0  0  0
   17.0794   85.9024   44.9943 H   0  0  0  0  0  0
   18.5152   85.5325   46.0083 H   0  0  0  0  0  0
   22.5836   88.8280   41.0533 H   0  0  0  0  0  0
  1  2  1  0  0  0
  1  9  1  0  0  0
  1 13  1  0  0  0
  2  3  2  0  0  0
  2 12  1  0  0  0
  3  8  1  0  0  0
  3 38  1  0  0  0
  4  5  1  0  0  0
  4  8  2  0  0  0
  4 20  1  0  0  0
  5  6  2  0  0  0
  5 10  1  0  0  0
  6  7  1  0  0  0
  6 11  1  0  0  0
  7  9  2  0  0  0
  7 21  1  0  0  0
  8  9  1  0  0  0
 10 22  1  0  0  0
 10 23  1  0  0  0
 10 24  1  0  0  0
 11 25  1  0  0  0
 11 26  1  0  0  0
 11 27  1  0  0  0
 12 28  1  0  0  0
 12 29  1  0  0  0
 13 14  1  0  0  0
 13 30  1  0  0  0
 13 31  1  0  0  0
 14 15  1  0  0  0
 14 32  1  0  0  0
 14 33  1  0  0  0
 15 16  1  0  0  0
 15 34  1  0  0  0
 15 35  1  0  0  0
 16 17  1  0  0  0
 16 36  1  0  0  0
 16 37  1  0  0  0
 17 18  2  0  0  0
 17 19  1  0  0  0
M  CHG  2   3   1  19  -1
M  END
> <s_m_source_file>
../1y0l_ligand.sdf

> <i_m_source_file_index>
1

> <s_epik_input>
W2NIXTFjKFtDSDNdKWMoW0NIM10pW2NIXWMoYzEyKW4oYyhuMilbTkgyXSlbQ0gyXVtDSDJdW0NIMl1bQ0gyXUMoPU8pW09IXQ==

> <s_epik_cmdline>
J2VwaWtfYXBwJywgJy1pbWFlJywgJ2xpZ2FuZF9wcm8ubWFlJywgJy1vbWFlJywgJ2xpZ2FuZF9wcmVwLm1hZScsICctbXMnLCAnMScsICctcGgnLCAnNycsICctcGh0JywgJzAuNScsICctbnQn

> <r_epik_Ionization_Penalty>
  0.1090

> <r_epik_Ionization_Penalty_Charging>
  0.1090

> <r_epik_Ionization_Penalty_Neutral>
  0.0000

> <r_epik_State_Penalty>
  0.0951

> <r_epik_Charging_Adjusted_Penalty>
0.204162865299262

> <i_epik_Tot_Q>
0

> <i_epik_Tot_abs_Q>
2

$$$$
