1y0x_ligand
                    3D
 Schrodinger Suite 2020-3.
 34 35  0  0  1  0            999 V2000
   27.7140   38.6950   92.6870 C   0  0  0  0  0  0
   28.7500   39.3010   91.9840 C   0  0  0  0  0  0
   29.5620   40.2880   92.5300 C   0  0  0  0  0  0
   29.2880   40.7450   93.8780 C   0  0  0  0  0  0
   28.2040   40.0940   94.6350 C   0  0  0  0  0  0
   27.4940   39.0850   94.0110 C   0  0  0  0  0  0
   26.8310   37.5580   92.1120 C   0  0  0  0  0  0
   26.1690   37.7340   90.7230 C   0  0  1  0  0  0
   25.1590   36.6510   90.4880 C   0  0  0  0  0  0
   31.0610   41.2960   95.2340 C   0  0  0  0  0  0
   31.4830   42.2130   96.1320 C   0  0  0  0  0  0
   32.5130   41.9480   97.0040 C   0  0  0  0  0  0
   33.2220   40.7340   97.0790 C   0  0  0  0  0  0
   32.7390   39.7500   96.1110 C   0  0  0  0  0  0
   31.6840   40.0560   95.2310 C   0  0  0  0  0  0
   25.5750   39.0350   90.4710 N   0  3  0  0  0  0
   30.0460   41.7120   94.4220 O   0  0  0  0  0  0
   34.1340   40.7580   98.0320 O   0  5  0  0  0  0
   25.3840   35.4320   90.7890 O   0  5  0  0  0  0
   24.1440   37.0300   89.8770 O   0  0  0  0  0  0
   31.0050   41.2660   91.4000 I   0  0  0  0  0  0
   33.0810   43.3760   98.3360 I   0  0  0  0  0  0
   27.7300   40.6430   96.5950 I   0  0  0  0  0  0
   33.5010   37.8300   95.8510 I   0  0  0  0  0  0
   28.9337   38.9870   90.9565 H   0  0  0  0  0  0
   26.7228   38.5669   94.5811 H   0  0  0  0  0  0
   27.4321   36.6423   92.0111 H   0  0  0  0  0  0
   25.9871   37.3696   92.7920 H   0  0  0  0  0  0
   26.9631   37.6986   89.9626 H   0  0  0  0  0  0
   30.9950   43.1871   96.1662 H   0  0  0  0  0  0
   31.3462   39.2963   94.5261 H   0  0  0  0  0  0
   26.3247   39.8206   90.6465 H   0  0  0  0  0  0
   24.7210   39.1854   91.1477 H   0  0  0  0  0  0
   25.2294   39.0844   89.4279 H   0  0  0  0  0  0
  1  2  2  0  0  0
  1  6  1  0  0  0
  1  7  1  0  0  0
  2  3  1  0  0  0
  2 25  1  0  0  0
  3  4  2  0  0  0
  3 21  1  0  0  0
  4  5  1  0  0  0
  4 17  1  0  0  0
  5  6  2  0  0  0
  5 23  1  0  0  0
  6 26  1  0  0  0
  7  8  1  0  0  0
  7 27  1  0  0  0
  7 28  1  0  0  0
  8  9  1  0  0  0
  8 16  1  0  0  0
  8 29  1  0  0  0
  9 19  1  0  0  0
  9 20  2  0  0  0
 10 11  2  0  0  0
 10 15  1  0  0  0
 10 17  1  0  0  0
 11 12  1  0  0  0
 11 30  1  0  0  0
 12 13  2  0  0  0
 12 22  1  0  0  0
 13 14  1  0  0  0
 13 18  1  0  0  0
 14 15  2  0  0  0
 14 24  1  0  0  0
 15 31  1  0  0  0
 16 32  1  0  0  0
 16 33  1  0  0  0
 16 34  1  0  0  0
M  CHG  3  16   1  18  -1  19  -1
M  END
> <s_m_source_file>
../1y0x_ligand.sdf

> <i_m_source_file_index>
1

> <s_epik_input>
W09IXUMoPU8pW0NAQEhdKFtOSDMrXSlbQ0gyXWMxW2NIXWMoSSljKGMoSSlbY0hdMSlPYzJbY0hdYyhJKWMoW09IXSljKEkpW2NIXTI=

> <s_epik_cmdline>
J2VwaWtfYXBwJywgJy1pbWFlJywgJ2xpZ2FuZF9wcm8ubWFlJywgJy1vbWFlJywgJ2xpZ2FuZF9wcmVwLm1hZScsICctbXMnLCAnMScsICctcGgnLCAnNycsICctcGh0JywgJzAuNScsICctbnQn

> <r_lp_tautomer_probability>
1

> <r_epik_Ionization_Penalty>
  0.1375

> <r_epik_Ionization_Penalty_Charging>
  0.1375

> <r_epik_Ionization_Penalty_Neutral>
  0.0000

> <r_epik_State_Penalty>
  0.1238

> <r_epik_Charging_Adjusted_Penalty>
0.261359179817535

> <i_epik_Tot_Q>
-1

> <i_epik_Tot_abs_Q>
3

$$$$
