1y19_ligand
                    3D
 Schrodinger Suite 2020-3.
177182  0  0  1  0            999 V2000
   17.0320   33.3440   21.1770 N   0  3  0  0  0  0
   15.5720   33.5720   21.3570 C   0  0  2  0  0  0
   14.7750   32.2620   21.3190 C   0  0  0  0  0  0
   15.3030   31.1890   21.6110 O   0  0  0  0  0  0
   15.0570   34.5300   20.2790 C   0  0  0  0  0  0
   13.7160   34.9200   20.5280 O   0  0  0  0  0  0
   13.5050   32.3600   20.9430 N   0  0  0  0  0  0
   12.6060   31.2120   20.8960 C   0  0  2  0  0  0
   13.0760   29.9450   20.1830 C   0  0  0  0  0  0
   13.7070   29.9940   19.1290 O   0  0  0  0  0  0
   11.2630   31.6310   20.2920 C   0  0  0  0  0  0
   10.4820   32.5780   21.1380 C   0  0  0  0  0  0
   10.0900   33.8370   20.8030 C   0  0  0  0  0  0
    9.9770   32.3360   22.4580 C   0  0  0  0  0  0
    9.3710   34.4000   21.8300 N   0  0  0  0  0  0
    9.2880   33.5010   22.8600 C   0  0  0  0  0  0
   10.0440   31.2490   23.3410 C   0  0  0  0  0  0
    8.6620   33.6100   24.1100 C   0  0  0  0  0  0
    9.4220   31.3580   24.5830 C   0  0  0  0  0  0
    8.7430   32.5320   24.9550 C   0  0  0  0  0  0
   12.7350   28.8080   20.7800 N   0  0  0  0  0  0
   13.0510   27.4950   20.2380 C   0  0  2  0  0  0
   11.7420   26.7220   20.3270 C   0  0  0  0  0  0
   11.1990   26.5310   21.4130 O   0  0  0  0  0  0
   14.1300   26.7780   21.0660 C   0  0  0  0  0  0
   14.4100   25.3960   20.4760 C   0  0  0  0  0  0
   15.3940   27.6180   21.0920 C   0  0  0  0  0  0
   11.2330   26.2880   19.1820 N   0  0  0  0  0  0
    9.9610   25.5830   19.1400 C   0  0  2  0  0  0
   10.0150   24.0860   19.3430 C   0  0  0  0  0  0
   10.9500   23.4160   18.9180 O   0  0  0  0  0  0
    9.2440   25.8960   17.8270 C   0  0  0  0  0  0
    8.8970   27.3570   17.6940 C   0  0  0  0  0  0
    9.8980   28.3250   17.5770 C   0  0  0  0  0  0
    7.5700   27.7820   17.7380 C   0  0  0  0  0  0
    9.5870   29.6780   17.5100 C   0  0  0  0  0  0
    7.2460   29.1360   17.6730 C   0  0  0  0  0  0
    8.2580   30.0760   17.5600 C   0  0  0  0  0  0
    7.9370   31.4120   17.5010 O   0  0  0  0  0  0
    8.9940   23.5740   20.0160 N   0  0  0  0  0  0
    8.8840   22.1500   20.2770 C   0  0  2  0  0  0
    8.2700   21.4870   19.0580 C   0  0  0  0  0  0
    7.2490   21.9430   18.5470 O   0  0  0  0  0  0
    7.9840   21.8860   21.4860 C   0  0  0  0  0  0
    7.6720   20.5060   21.5830 O   0  0  0  0  0  0
    8.8970   20.4140   18.5640 N   0  0  0  0  0  0
    8.3940   19.6910   17.3960 C   0  0  2  0  0  0
    6.9790   19.1560   17.6240 C   0  0  0  0  0  0
    6.1930   19.0370   16.6850 O   0  0  0  0  0  0
    9.4210   18.5810   17.2270 C   0  0  0  0  0  0
   10.6870   19.2680   17.6380 C   0  0  0  0  0  0
   10.2580   19.9670   18.9040 C   0  0  0  0  0  0
    6.6710   18.8410   18.8800 N   0  0  0  0  0  0
    5.3620   18.3190   19.2590 C   0  0  2  0  0  0
    4.2090   19.2470   18.8950 C   0  0  0  0  0  0
    3.0590   18.8170   18.8480 O   0  0  0  0  0  0
    5.3250   18.0180   20.7610 C   0  0  0  0  0  0
    5.7080   16.6040   21.2200 C   0  0  0  0  0  0
    7.0150   16.1600   20.5780 C   0  0  0  0  0  0
    5.8300   16.5890   22.7280 C   0  0  0  0  0  0
    4.5070   20.5160   18.6400 N   0  0  0  0  0  0
    3.4650   21.4600   18.2680 C   0  0  2  0  0  0
    3.4780   21.8650   16.7950 C   0  0  0  0  0  0
    2.7470   22.7680   16.3900 O   0  0  0  0  0  0
    3.5150   22.7050   19.1590 C   0  0  0  0  0  0
    2.8190   22.5290   20.4740 C   0  0  0  0  0  0
    2.1700   23.5620   21.1160 N   0  0  0  0  0  0
    2.6660   21.4400   21.2660 C   0  0  0  0  0  0
    1.6460   23.1170   22.2440 C   0  0  0  0  0  0
    1.9330   21.8330   22.3600 N   0  0  0  0  0  0
    4.3180   21.2070   16.0000 N   0  0  0  0  0  0
    4.3750   21.4590   14.5630 C   0  0  2  0  0  0
    3.1010   20.8240   13.9980 C   0  0  0  0  0  0
    2.5320   19.9260   14.6220 O   0  0  0  0  0  0
    5.6130   20.7880   13.9440 C   0  0  0  0  0  0
    6.9200   21.5270   14.1710 C   0  0  0  0  0  0
    8.1470   20.9200   13.8940 C   0  0  0  0  0  0
    6.9290   22.8430   14.6290 C   0  0  0  0  0  0
    9.3460   21.6100   14.0670 C   0  0  0  0  0  0
    8.1180   23.5420   14.8040 C   0  0  0  0  0  0
    9.3240   22.9260   14.5220 C   0  0  0  0  0  0
   10.5000   23.6350   14.6850 O   0  0  0  0  0  0
    2.6440   21.2870   12.8390 N   0  0  0  0  0  0
    1.4420   20.7250   12.2420 C   0  0  2  0  0  0
    1.6810   19.2370   12.0700 C   0  0  0  0  0  0
    2.8250   18.8060   11.9190 O   0  0  0  0  0  0
    1.1710   21.3590   10.8830 C   0  0  0  0  0  0
    2.1940   21.0170    9.9660 O   0  0  0  0  0  0
    0.6070   18.4540   12.0920 N   0  0  0  0  0  0
    0.7130   17.0010   11.9490 C   0  0  2  0  0  0
    1.4830   16.5740   10.7020 C   0  0  0  0  0  0
    2.3120   15.6660   10.7540 O   0  0  0  0  0  0
   -0.6670   16.3790   11.9420 C   0  0  0  0  0  0
    1.2552   17.1905    9.5458 O   0  0  0  0  0  0
   17.5606   34.3081   21.2112 H   0  0  0  0  0  0
   17.2107   32.8622   20.2044 H   0  0  0  0  0  0
   17.4035   32.6933   21.9823 H   0  0  0  0  0  0
   15.4580   34.0189   22.3556 H   0  0  0  0  0  0
   15.6846   35.4332   20.2609 H   0  0  0  0  0  0
   15.0991   34.0346   19.2978 H   0  0  0  0  0  0
   13.2063   35.6086   19.8380 H   0  0  0  0  0  0
   13.1383   33.3577   20.6599 H   0  0  0  0  0  0
   12.5841   30.9592   21.9663 H   0  0  0  0  0  0
   11.4346   32.1275   19.3255 H   0  0  0  0  0  0
   10.6353   30.7405   20.1404 H   0  0  0  0  0  0
   10.3140   34.3285   19.8562 H   0  0  0  0  0  0
   10.5719   30.3372   23.0615 H   0  0  0  0  0  0
    8.1311   34.5169   24.3995 H   0  0  0  0  0  0
    9.4624   30.5192   25.2780 H   0  0  0  0  0  0
    8.2708   32.5868   25.9359 H   0  0  0  0  0  0
   12.1872   28.8935   21.7300 H   0  0  0  0  0  0
   13.4341   27.6192   19.2144 H   0  0  0  0  0  0
   13.7839   26.6478   22.1020 H   0  0  0  0  0  0
   13.4816   24.8061   20.4672 H   0  0  0  0  0  0
   15.1653   24.8819   21.0887 H   0  0  0  0  0  0
   14.7847   25.5054   19.4476 H   0  0  0  0  0  0
   15.1688   28.6061   21.5196 H   0  0  0  0  0  0
   15.7743   27.7400   20.0671 H   0  0  0  0  0  0
   16.1549   27.1165   21.7081 H   0  0  0  0  0  0
   11.7919   26.4701   18.2522 H   0  0  0  0  0  0
    9.4533   25.9823   20.0304 H   0  0  0  0  0  0
    9.8922   25.6231   16.9812 H   0  0  0  0  0  0
    8.3089   25.3192   17.7733 H   0  0  0  0  0  0
   10.9417   28.0133   17.5376 H   0  0  0  0  0  0
    6.7730   27.0435   17.8246 H   0  0  0  0  0  0
   10.3799   30.4203   17.4190 H   0  0  0  0  0  0
    6.2039   29.4534   17.7108 H   0  0  0  0  0  0
    8.7333   32.1655   17.4113 H   0  0  0  0  0  0
    8.2164   24.2616   20.3802 H   0  0  0  0  0  0
    9.9042   21.7889   20.4739 H   0  0  0  0  0  0
    8.5020   22.2000   22.4042 H   0  0  0  0  0  0
    7.0495   22.4563   21.3790 H   0  0  0  0  0  0
    7.0312   20.1431   22.4001 H   0  0  0  0  0  0
    8.3118   20.3500   16.5191 H   0  0  0  0  0  0
    9.1571   17.7350   17.8787 H   0  0  0  0  0  0
    9.4310   18.2472   16.1789 H   0  0  0  0  0  0
   11.4745   18.5178   17.8024 H   0  0  0  0  0  0
   11.0017   19.9621   16.8448 H   0  0  0  0  0  0
   10.8813   20.8407   19.1453 H   0  0  0  0  0  0
   10.2166   19.2947   19.7737 H   0  0  0  0  0  0
    7.4473   18.9875   19.6454 H   0  0  0  0  0  0
    5.2673   17.4046   18.6550 H   0  0  0  0  0  0
    6.0210   18.6884   21.2865 H   0  0  0  0  0  0
    4.3053   18.1766   21.1418 H   0  0  0  0  0  0
    4.9272   15.8912   20.9162 H   0  0  0  0  0  0
    6.9098   16.1764   19.4832 H   0  0  0  0  0  0
    7.2572   15.1390   20.9079 H   0  0  0  0  0  0
    7.8223   16.8438   20.8791 H   0  0  0  0  0  0
    4.8787   16.9119   23.1760 H   0  0  0  0  0  0
    6.6325   17.2746   23.0378 H   0  0  0  0  0  0
    6.0675   15.5697   23.0665 H   0  0  0  0  0  0
    5.5523   20.8509   18.7122 H   0  0  0  0  0  0
    2.5497   20.8752   18.4419 H   0  0  0  0  0  0
    4.5632   22.9605   19.3735 H   0  0  0  0  0  0
    3.0312   23.5462   18.6411 H   0  0  0  0  0  0
    3.0040   20.3971   21.1762 H   0  0  0  0  0  0
    1.0737   23.7092   22.9581 H   0  0  0  0  0  0
    4.9812   20.4556   16.4534 H   0  0  0  0  0  0
    4.4397   22.5429   14.3870 H   0  0  0  0  0  0
    5.7388   19.7833   14.3737 H   0  0  0  0  0  0
    5.4803   20.7071   12.8550 H   0  0  0  0  0  0
    8.1675   19.8904   13.5369 H   0  0  0  0  0  0
    5.9831   23.3352   14.8550 H   0  0  0  0  0  0
   10.2956   21.1220   13.8473 H   0  0  0  0  0  0
    8.0999   24.5714   15.1620 H   0  0  0  0  0  0
   11.4657   23.1567   14.4642 H   0  0  0  0  0  0
    3.1815   22.1011   12.3308 H   0  0  0  0  0  0
    0.5982   20.9356   12.9156 H   0  0  0  0  0  0
    0.2071   20.9976   10.4955 H   0  0  0  0  0  0
    1.1364   22.4533   10.9892 H   0  0  0  0  0  0
    2.1546   21.3926    8.9329 H   0  0  0  0  0  0
   -0.3793   18.9234   12.2216 H   0  0  0  0  0  0
    1.2829   16.6795   12.8332 H   0  0  0  0  0  0
   -1.2146   16.6916   12.8433 H   0  0  0  0  0  0
   -0.5751   15.2829   11.9305 H   0  0  0  0  0  0
   -1.2141   16.7105   11.0471 H   0  0  0  0  0  0
    1.8064   16.8880    8.6432 H   0  0  0  0  0  0
  1  2  1  0  0  0
  1 95  1  0  0  0
  1 96  1  0  0  0
  1 97  1  0  0  0
  2  5  1  0  0  0
  2  3  1  0  0  0
  2 98  1  0  0  0
  3  4  2  0  0  0
  3  7  1  0  0  0
  5  6  1  0  0  0
  5 99  1  0  0  0
  5100  1  0  0  0
  6101  1  0  0  0
  7  8  1  0  0  0
  7102  1  0  0  0
  8 11  1  0  0  0
  8  9  1  0  0  0
  8103  1  0  0  0
  9 10  2  0  0  0
  9 21  1  0  0  0
 11 12  1  0  0  0
 11104  1  0  0  0
 11105  1  0  0  0
 12 13  2  0  0  0
 12 14  1  0  0  0
 13 15  1  0  0  0
 13106  1  0  0  0
 14 17  2  0  0  0
 14 16  1  0  0  0
 15 16  1  0  0  0
 16 18  2  0  0  0
 17 19  1  0  0  0
 17107  1  0  0  0
 18 20  1  0  0  0
 18108  1  0  0  0
 19 20  2  0  0  0
 19109  1  0  0  0
 20110  1  0  0  0
 21 22  1  0  0  0
 21111  1  0  0  0
 22 25  1  0  0  0
 22 23  1  0  0  0
 22112  1  0  0  0
 23 24  2  0  0  0
 23 28  1  0  0  0
 25 27  1  0  0  0
 25 26  1  0  0  0
 25113  1  0  0  0
 26114  1  0  0  0
 26115  1  0  0  0
 26116  1  0  0  0
 27117  1  0  0  0
 27118  1  0  0  0
 27119  1  0  0  0
 28 29  1  0  0  0
 28120  1  0  0  0
 29 32  1  0  0  0
 29 30  1  0  0  0
 29121  1  0  0  0
 30 31  2  0  0  0
 30 40  1  0  0  0
 32 33  1  0  0  0
 32122  1  0  0  0
 32123  1  0  0  0
 33 34  2  0  0  0
 33 35  1  0  0  0
 34 36  1  0  0  0
 34124  1  0  0  0
 35 37  2  0  0  0
 35125  1  0  0  0
 36 38  2  0  0  0
 36126  1  0  0  0
 37 38  1  0  0  0
 37127  1  0  0  0
 38 39  1  0  0  0
 39128  1  0  0  0
 40 41  1  0  0  0
 40129  1  0  0  0
 41 44  1  0  0  0
 41 42  1  0  0  0
 41130  1  0  0  0
 42 43  2  0  0  0
 42 46  1  0  0  0
 44 45  1  0  0  0
 44131  1  0  0  0
 44132  1  0  0  0
 45133  1  0  0  0
 46 47  1  0  0  0
 46 52  1  0  0  0
 47 48  1  0  0  0
 47 50  1  0  0  0
 47134  1  0  0  0
 48 49  2  0  0  0
 48 53  1  0  0  0
 50 51  1  0  0  0
 50135  1  0  0  0
 50136  1  0  0  0
 51 52  1  0  0  0
 51137  1  0  0  0
 51138  1  0  0  0
 52139  1  0  0  0
 52140  1  0  0  0
 53 54  1  0  0  0
 53141  1  0  0  0
 54 57  1  0  0  0
 54 55  1  0  0  0
 54142  1  0  0  0
 55 56  2  0  0  0
 55 61  1  0  0  0
 57 58  1  0  0  0
 57143  1  0  0  0
 57144  1  0  0  0
 58 59  1  0  0  0
 58 60  1  0  0  0
 58145  1  0  0  0
 59146  1  0  0  0
 59147  1  0  0  0
 59148  1  0  0  0
 60149  1  0  0  0
 60150  1  0  0  0
 60151  1  0  0  0
 61 62  1  0  0  0
 61152  1  0  0  0
 62 65  1  0  0  0
 62 63  1  0  0  0
 62153  1  0  0  0
 63 64  2  0  0  0
 63 71  1  0  0  0
 65 66  1  0  0  0
 65154  1  0  0  0
 65155  1  0  0  0
 66 67  2  0  0  0
 66 68  1  0  0  0
 67 69  1  0  0  0
 68 70  2  0  0  0
 68156  1  0  0  0
 69 70  1  0  0  0
 69157  1  0  0  0
 71 72  1  0  0  0
 71158  1  0  0  0
 72 75  1  0  0  0
 72 73  1  0  0  0
 72159  1  0  0  0
 73 74  2  0  0  0
 73 83  1  0  0  0
 75 76  1  0  0  0
 75160  1  0  0  0
 75161  1  0  0  0
 76 77  2  0  0  0
 76 78  1  0  0  0
 77 79  1  0  0  0
 77162  1  0  0  0
 78 80  2  0  0  0
 78163  1  0  0  0
 79 81  2  0  0  0
 79164  1  0  0  0
 80 81  1  0  0  0
 80165  1  0  0  0
 81 82  1  0  0  0
 82166  1  0  0  0
 83 84  1  0  0  0
 83167  1  0  0  0
 84 87  1  0  0  0
 84 85  1  0  0  0
 84168  1  0  0  0
 85 86  2  0  0  0
 85 89  1  0  0  0
 87 88  1  0  0  0
 87169  1  0  0  0
 87170  1  0  0  0
 88171  1  0  0  0
 89 90  1  0  0  0
 89172  1  0  0  0
 90 93  1  0  0  0
 90 91  1  0  0  0
 90173  1  0  0  0
 91 92  2  0  0  0
 91 94  1  0  0  0
 93174  1  0  0  0
 93175  1  0  0  0
 93176  1  0  0  0
 94177  1  0  0  0
M  CHG  1   1   1
M  END
> <s_m_source_file>
../1y19_ligand.sdf

> <i_m_source_file_index>
1

> <s_epik_input>
W2NIXTFbY0hdW2NIXVtjSF1jKGMxMilbbkhdW2NIXWMyW0NIMl1bQ0BIXShbTkhdQyg9TylbQ0BASF0oW05IMytdKVtDSDJdW09IXSlDKD1PKVtOSF1bQ0BASF0oW0NIXShbQ0gzXSlbQ0gzXSlDKD1PKVtOSF1bQ0BASF0oW0NIMl1jM1tjSF1bY0hdYyhbT0hdKVtjSF1bY0hdMylDKD1PKVtOSF1bQ0BASF0oW0NIMl1bT0hdKUMoPU8pTjRbQ0BASF0oW0NIMl1bQ0gyXVtDSDJdNClDKD1PKVtOSF1bQ0BASF0oW0NIMl1bQ0hdKFtDSDNdKVtDSDNdKUMoPU8pW05IXVtDQEBIXShbQ0gyXUM1PU5bQ0gyXU49W0NIXTUpQyg9TylbTkhdW0NAQEhdKFtDSDJdYzZbY0hdW2NIXWMoW09IXSlbY0hdW2NIXTYpQyg9TylbTkhdW0NAQEhdKFtDSDJdW09IXSlDKD1PKVtOSF1bQ0BASF0oW0NIM10pQyg9TylbT0hd

> <s_epik_cmdline>
J2VwaWtfYXBwJywgJy1pbWFlJywgJ2xpZ2FuZF9wcm8ubWFlJywgJy1vbWFlJywgJ2xpZ2FuZF9wcmVwLm1hZScsICctbXMnLCAnMScsICctcGgnLCAnNycsICctcGh0JywgJzAuNScsICctbnQn

> <s_epik_pKa_notes>
Molecule size exceeds maximum supported for generating protonation states

> <s_epik_Chemistry_Notes>
This compound has an imine and may undergo hydrolysis.

$$$$
