1y1m_ligand
                    3D
 Schrodinger Suite 2020-3.
 20 20  0  0  1  0            999 V2000
    1.5890   -4.3680    0.4860 N   0  3  0  0  0  0
    0.5990   -6.6920    1.1810 O   0  5  0  0  0  0
    1.9010   -4.7880    1.8810 C   0  0  0  0  0  0
    1.3980   -6.2420    2.0740 C   0  0  0  0  0  0
    3.4030   -4.6300    2.1750 C   0  0  0  0  0  0
    1.1950   -3.8660    2.8930 C   0  0  0  0  0  0
    1.7540   -6.9110    3.0480 O   0  0  0  0  0  0
    3.5140   -3.5170    3.1850 C   0  0  0  0  0  0
    2.2020   -2.7670    3.1550 C   0  0  0  0  0  0
    2.1010   -5.0368   -0.2215 H   0  0  0  0  0  0
    1.9329   -3.3351    0.3285 H   0  0  0  0  0  0
    0.5028   -4.4220    0.3211 H   0  0  0  0  0  0
    3.7989   -5.5736    2.5785 H   0  0  0  0  0  0
    3.9340   -4.3774    1.2454 H   0  0  0  0  0  0
    0.2657   -3.4786    2.4498 H   0  0  0  0  0  0
    0.9574   -4.4351    3.8038 H   0  0  0  0  0  0
    3.6970   -3.9437    4.1822 H   0  0  0  0  0  0
    4.3485   -2.8549    2.9108 H   0  0  0  0  0  0
    2.1549   -2.0256    2.3438 H   0  0  0  0  0  0
    1.9702   -2.2779    4.1126 H   0  0  0  0  0  0
  1  3  1  0  0  0
  1 10  1  0  0  0
  1 11  1  0  0  0
  1 12  1  0  0  0
  2  4  1  0  0  0
  3  4  1  0  0  0
  3  5  1  0  0  0
  3  6  1  0  0  0
  4  7  2  0  0  0
  5  8  1  0  0  0
  5 13  1  0  0  0
  5 14  1  0  0  0
  6  9  1  0  0  0
  6 15  1  0  0  0
  6 16  1  0  0  0
  8  9  1  0  0  0
  8 17  1  0  0  0
  8 18  1  0  0  0
  9 19  1  0  0  0
  9 20  1  0  0  0
M  CHG  2   1   1   2  -1
M  END
> <s_m_source_file>
../1y1m_ligand.sdf

> <i_m_source_file_index>
1

> <s_epik_input>
W09IXUMoPU8pQzEoW05IMytdKVtDSDJdW0NIMl1bQ0gyXVtDSDJdMQ==

> <s_epik_cmdline>
J2VwaWtfYXBwJywgJy1pbWFlJywgJ2xpZ2FuZF9wcm8ubWFlJywgJy1vbWFlJywgJ2xpZ2FuZF9wcmVwLm1hZScsICctbXMnLCAnMScsICctcGgnLCAnNycsICctcGh0JywgJzAuNScsICctbnQn

> <r_lp_tautomer_probability>
1

> <r_epik_Ionization_Penalty>
  0.0007

> <r_epik_Ionization_Penalty_Charging>
  0.0007

> <r_epik_Ionization_Penalty_Neutral>
  0.0000

> <r_epik_State_Penalty>
 -0.0000

> <r_epik_Charging_Adjusted_Penalty>
0.000688904907770718

> <i_epik_Tot_Q>
0

> <i_epik_Tot_abs_Q>
2

$$$$
