1y1z_ligand
                    3D
 Schrodinger Suite 2020-3.
 17 17  0  0  1  0            999 V2000
   21.1770   31.2640    7.6480 N   0  3  0  0  0  0
   22.9300   34.0990    8.9290 O   0  5  0  0  0  0
   21.3890   32.6990    7.8520 C   0  0  0  0  0  0
   22.6440   32.8520    8.6970 C   0  0  0  0  0  0
   21.4260   33.4870    6.5130 C   0  0  0  0  0  0
   20.0600   34.0470    6.8090 C   0  0  0  0  0  0
   20.1430   33.5410    8.2560 C   0  0  0  0  0  0
   23.2630   31.9250    9.1010 O   0  0  0  0  0  0
   22.1289   30.7888    7.3684 H   0  0  0  0  0  0
   20.4416   31.1127    6.8441 H   0  0  0  0  0  0
   20.8014   30.8130    8.5783 H   0  0  0  0  0  0
   22.2825   34.1773    6.5173 H   0  0  0  0  0  0
   21.5278   32.7816    5.6751 H   0  0  0  0  0  0
   20.0660   35.1346    6.6442 H   0  0  0  0  0  0
   19.3198   33.5793    6.1431 H   0  0  0  0  0  0
   19.3525   32.8716    8.6262 H   0  0  0  0  0  0
   20.4219   34.2520    9.0476 H   0  0  0  0  0  0
  1  3  1  0  0  0
  1  9  1  0  0  0
  1 10  1  0  0  0
  1 11  1  0  0  0
  2  4  1  0  0  0
  3  4  1  0  0  0
  3  5  1  0  0  0
  3  7  1  0  0  0
  4  8  2  0  0  0
  5  6  1  0  0  0
  5 12  1  0  0  0
  5 13  1  0  0  0
  6  7  1  0  0  0
  6 14  1  0  0  0
  6 15  1  0  0  0
  7 16  1  0  0  0
  7 17  1  0  0  0
M  CHG  2   1   1   2  -1
M  END
> <s_m_source_file>
../1y1z_ligand.sdf

> <i_m_source_file_index>
1

> <s_epik_input>
W09IXUMoPU8pQzEoW05IMytdKVtDSDJdW0NIMl1bQ0gyXTE=

> <s_epik_cmdline>
J2VwaWtfYXBwJywgJy1pbWFlJywgJ2xpZ2FuZF9wcm8ubWFlJywgJy1vbWFlJywgJ2xpZ2FuZF9wcmVwLm1hZScsICctbXMnLCAnMScsICctcGgnLCAnNycsICctcGh0JywgJzAuNScsICctbnQn

> <r_lp_tautomer_probability>
1

> <r_epik_Ionization_Penalty>
  0.0007

> <r_epik_Ionization_Penalty_Charging>
  0.0007

> <r_epik_Ionization_Penalty_Neutral>
  0.0000

> <r_epik_State_Penalty>
 -0.0000

> <r_epik_Charging_Adjusted_Penalty>
0.000688904907770718

> <i_epik_Tot_Q>
0

> <i_epik_Tot_abs_Q>
2

$$$$
