1y20_ligand
                    3D
 Schrodinger Suite 2020-3.
 14 14  0  0  1  0            999 V2000
   20.8050   33.4790    6.9700 C   0  0  0  0  0  0
   20.0800   33.2810    8.2730 C   0  0  0  0  0  0
   21.3130   32.5010    8.0020 C   0  0  0  0  0  0
   22.6290   32.8060    8.6750 C   0  0  0  0  0  0
   22.8360   34.0010    9.0280 O   0  5  0  0  0  0
   23.3420   31.8240    8.9450 O   0  0  0  0  0  0
   21.1810   31.0940    7.5520 N   0  3  0  0  0  0
   20.1342   33.2275    6.1353 H   0  0  0  0  0  0
   21.1216   34.5288    6.8824 H   0  0  0  0  0  0
   20.0432   34.2343    8.8206 H   0  0  0  0  0  0
   19.0557   32.9330    8.0735 H   0  0  0  0  0  0
   20.2003   30.9523    7.0743 H   0  0  0  0  0  0
   21.2671   30.4222    8.4188 H   0  0  0  0  0  0
   21.9776   30.8640    6.8292 H   0  0  0  0  0  0
  1  2  1  0  0  0
  1  3  1  0  0  0
  1  8  1  0  0  0
  1  9  1  0  0  0
  2  3  1  0  0  0
  2 10  1  0  0  0
  2 11  1  0  0  0
  3  4  1  0  0  0
  3  7  1  0  0  0
  4  5  1  0  0  0
  4  6  2  0  0  0
  7 12  1  0  0  0
  7 13  1  0  0  0
  7 14  1  0  0  0
M  CHG  2   5  -1   7   1
M  END
> <s_m_source_file>
../1y20_ligand.sdf

> <i_m_source_file_index>
1

> <s_epik_input>
W0NIMl0xW0NIMl1DMShbTkgzK10pQyg9TylbT0hd

> <s_epik_cmdline>
J2VwaWtfYXBwJywgJy1pbWFlJywgJ2xpZ2FuZF9wcm8ubWFlJywgJy1vbWFlJywgJ2xpZ2FuZF9wcmVwLm1hZScsICctbXMnLCAnMScsICctcGgnLCAnNycsICctcGh0JywgJzAuNScsICctbnQn

> <r_lp_tautomer_probability>
1

> <r_epik_Ionization_Penalty>
  0.0029

> <r_epik_Ionization_Penalty_Charging>
  0.0029

> <r_epik_Ionization_Penalty_Neutral>
  0.0000

> <r_epik_State_Penalty>
 -0.0000

> <r_epik_Charging_Adjusted_Penalty>
0.00292958339328472

> <i_epik_Tot_Q>
0

> <i_epik_Tot_abs_Q>
2

$$$$
