1y2a_ligand
                    3D
 Schrodinger Suite 2020-3.
164166  0  0  1  0            999 V2000
   77.7140   79.7890   53.0160 N   0  3  0  0  0  0
   79.1600   80.1910   52.9370 C   0  0  0  0  0  0
   79.4760   81.2530   53.9710 C   0  0  0  0  0  0
   80.1480   80.9900   54.9630 O   0  0  0  0  0  0
   78.9890   82.4630   53.7370 N   0  0  0  0  0  0
   79.2090   83.5670   54.6640 C   0  0  2  0  0  0
   77.8800   84.2790   54.9010 C   0  0  0  0  0  0
   77.0080   84.2660   54.0380 O   0  0  0  0  0  0
   80.2400   84.5440   54.0890 C   0  0  0  0  0  0
   81.6560   83.9740   53.9970 C   0  0  0  0  0  0
   82.6100   84.9560   53.3320 C   0  0  0  0  0  0
   84.0050   84.3530   53.1960 C   0  0  0  0  0  0
   84.9200   85.1980   52.3720 N   0  3  0  0  0  0
   77.7120   84.8670   56.0790 N   0  0  0  0  0  0
   76.4790   85.5860   56.3940 C   0  0  2  0  0  0
   76.7510   86.7440   57.3430 C   0  0  0  0  0  0
   77.4740   86.5980   58.3270 O   0  0  0  0  0  0
   75.4030   84.6690   57.0560 C   0  0  2  0  0  0
   75.9510   84.0540   58.3410 C   0  0  0  0  0  0
   74.9550   83.5920   56.0750 C   0  0  0  0  0  0
   74.8930   83.3640   59.1850 C   0  0  0  0  0  0
   76.1690   87.8980   57.0400 N   0  0  0  0  0  0
   76.3450   89.0670   57.8920 C   0  0  2  0  0  0
   75.0870   89.2880   58.7180 C   0  0  0  0  0  0
   74.0060   88.8190   58.3550 O   0  0  0  0  0  0
   76.6310   90.3060   57.0470 C   0  0  0  0  0  0
   75.6650   90.4410   56.0230 O   0  0  0  0  0  0
   75.2530   90.0150   59.8200 N   0  0  0  0  0  0
   74.1810   90.3440   60.7590 C   0  0  2  0  0  0
   73.8410   91.8510   60.7010 C   0  0  0  0  0  0
   74.7130   92.6790   60.4070 O   0  0  0  0  0  0
   74.6420   89.9730   62.1790 C   0  0  0  0  0  0
   73.6650   90.3430   63.2800 C   0  0  0  0  0  0
   74.3370   90.3360   64.6470 C   0  0  0  0  0  0
   73.3110   90.5370   65.7450 C   0  0  0  0  0  0
   73.8730   90.5810   67.1110 N   0  3  0  0  0  0
   72.5840   92.2090   60.9750 N   0  0  0  0  0  0
   72.1920   93.6270   60.9720 C   0  0  2  0  0  0
   70.8520   94.0250   61.6120 C   0  0  0  0  0  0
   69.7780   93.7610   61.0650 O   0  0  0  0  0  0
   72.2410   94.1950   59.5510 C   0  0  0  0  0  0
   71.8070   93.2300   58.4950 C   0  0  0  0  0  0
   70.7960   92.3120   58.6950 N   0  0  0  0  0  0
   72.2250   93.0620   57.2150 C   0  0  0  0  0  0
   70.6110   91.6200   57.5830 C   0  0  0  0  0  0
   71.4630   92.0560   56.6690 N   0  0  0  0  0  0
   70.9390   94.6760   62.7730 N   0  0  0  0  0  0
   69.7760   95.1670   63.5180 C   0  0  2  0  0  0
   70.2380   95.9810   64.7230 C   0  0  0  0  0  0
   71.1670   96.7940   64.5880 O   0  0  0  0  0  0
   68.8410   94.0090   63.9430 C   0  0  0  0  0  0
   69.4380   92.8400   64.6960 C   0  0  0  0  0  0
   69.6920   92.7650   66.0400 C   0  0  0  0  0  0
   69.7570   91.5420   64.1550 C   0  0  0  0  0  0
   70.1410   91.4960   66.3720 N   0  0  0  0  0  0
   70.1890   90.7300   65.2340 C   0  0  0  0  0  0
   69.7140   90.9860   62.8640 C   0  0  0  0  0  0
   70.5760   89.3860   65.0600 C   0  0  0  0  0  0
   70.1030   89.6400   62.6910 C   0  0  0  0  0  0
   70.5260   88.8640   63.7880 C   0  0  0  0  0  0
   69.6040   95.7790   65.8820 N   0  0  0  0  0  0
   69.9580   96.4950   67.1290 C   0  0  2  0  0  0
   70.2420   97.9920   66.9030 C   0  0  0  0  0  0
   69.9000   98.5560   65.8520 O   0  0  0  0  0  0
   71.2120   95.8560   67.8220 C   0  0  2  0  0  0
   71.1060   94.4290   67.7910 O   0  0  0  0  0  0
   71.3220   96.2960   69.2890 C   0  0  0  0  0  0
   70.8570   98.6360   67.8940 N   0  0  0  0  0  0
   71.1770  100.0480   67.7630 C   0  0  0  0  0  0
   70.7370  100.8600   68.9620 C   0  0  0  0  0  0
   69.5300  101.1050   69.1410 O   0  0  0  0  0  0
   71.6980  101.2680   69.7920 N   0  0  0  0  0  0
   71.3860  102.0710   70.9730 C   0  0  2  0  0  0
   72.2620  103.3400   71.0330 C   0  0  0  0  0  0
   71.9030  104.3330   70.3430 O   0  0  0  0  0  0
   71.5750  101.2480   72.2760 C   0  0  2  0  0  0
   70.8510   99.8970   72.1550 C   0  0  0  0  0  0
   71.0080  102.0320   73.4750 C   0  0  0  0  0  0
   71.1780   98.9010   73.2900 C   0  0  0  0  0  0
   73.2980  103.3320   71.7460 O   0  0  0  0  0  0
   77.5057   79.0188   52.2587 H   0  0  0  0  0  0
   77.0786   80.6674   52.8301 H   0  0  0  0  0  0
   77.4995   79.3865   54.0170 H   0  0  0  0  0  0
   79.7954   79.3126   53.1229 H   0  0  0  0  0  0
   79.3745   80.5935   51.9360 H   0  0  0  0  0  0
   78.4068   82.6244   52.8178 H   0  0  0  0  0  0
   79.5922   83.1342   55.5999 H   0  0  0  0  0  0
   79.9413   84.8352   53.0712 H   0  0  0  0  0  0
   80.2920   85.4392   54.7261 H   0  0  0  0  0  0
   82.0298   83.7558   55.0083 H   0  0  0  0  0  0
   81.6406   83.0476   53.4040 H   0  0  0  0  0  0
   82.2352   85.2094   52.3294 H   0  0  0  0  0  0
   82.6778   85.8702   53.9400 H   0  0  0  0  0  0
   84.4554   84.2423   54.1934 H   0  0  0  0  0  0
   83.9327   83.3665   52.7148 H   0  0  0  0  0  0
   85.9067   84.7159   52.3088 H   0  0  0  0  0  0
   85.0250   86.1882   52.8395 H   0  0  0  0  0  0
   84.5022   85.3123   51.3609 H   0  0  0  0  0  0
   78.5192   84.8069   56.8238 H   0  0  0  0  0  0
   76.1527   85.9495   55.4084 H   0  0  0  0  0  0
   74.5128   85.2556   57.3270 H   0  0  0  0  0  0
   76.7136   83.3017   58.0912 H   0  0  0  0  0  0
   76.4029   84.8422   58.9611 H   0  0  0  0  0  0
   74.5663   84.0665   55.1619 H   0  0  0  0  0  0
   74.1644   82.9819   56.5362 H   0  0  0  0  0  0
   75.8110   82.9503   55.8189 H   0  0  0  0  0  0
   75.3599   82.9474   60.0897 H   0  0  0  0  0  0
   74.4319   82.5522   58.6033 H   0  0  0  0  0  0
   74.1211   84.0928   59.4732 H   0  0  0  0  0  0
   75.5483   87.9659   56.1344 H   0  0  0  0  0  0
   77.2040   88.8493   58.5437 H   0  0  0  0  0  0
   76.6014   91.2006   57.6863 H   0  0  0  0  0  0
   77.6270   90.2155   56.5889 H   0  0  0  0  0  0
   75.7232   91.2849   55.3198 H   0  0  0  0  0  0
   76.2758   90.3751   60.0048 H   0  0  0  0  0  0
   73.3068   89.7527   60.4490 H   0  0  0  0  0  0
   74.7954   88.8856   62.2423 H   0  0  0  0  0  0
   75.5862   90.4902   62.4048 H   0  0  0  0  0  0
   73.2663   91.3510   63.0929 H   0  0  0  0  0  0
   72.8376   89.6183   63.2948 H   0  0  0  0  0  0
   74.8419   89.3711   64.8024 H   0  0  0  0  0  0
   75.0765   91.1489   64.6962 H   0  0  0  0  0  0
   72.7852   91.4900   65.5855 H   0  0  0  0  0  0
   72.5857   89.7102   65.7249 H   0  0  0  0  0  0
   73.0602   90.7290   67.8373 H   0  0  0  0  0  0
   74.5883   91.4133   67.1865 H   0  0  0  0  0  0
   74.3888   89.6335   67.3259 H   0  0  0  0  0  0
   71.8390   91.4329   61.2043 H   0  0  0  0  0  0
   72.9695   94.0179   61.6448 H   0  0  0  0  0  0
   71.5782   95.0703   59.4830 H   0  0  0  0  0  0
   73.2716   94.4960   59.3118 H   0  0  0  0  0  0
   72.9995   93.5557   56.6097 H   0  0  0  0  0  0
   69.8795   90.8241   57.4429 H   0  0  0  0  0  0
   71.9531   94.8379   63.1672 H   0  0  0  0  0  0
   69.2334   95.8237   62.8220 H   0  0  0  0  0  0
   68.0536   94.3978   64.6055 H   0  0  0  0  0  0
   68.3808   93.5625   63.0493 H   0  0  0  0  0  0
   69.5602   93.5846   66.7464 H   0  0  0  0  0  0
   69.3865   91.5831   62.0129 H   0  0  0  0  0  0
   70.9039   88.7804   65.9049 H   0  0  0  0  0  0
   70.0757   89.1956   61.6961 H   0  0  0  0  0  0
   70.8202   87.8271   63.6255 H   0  0  0  0  0  0
   68.7865   95.0430   65.8835 H   0  0  0  0  0  0
   69.0440   96.3854   67.7311 H   0  0  0  0  0  0
   72.1316   96.1120   67.2754 H   0  0  0  0  0  0
   71.0166   93.9049   66.8280 H   0  0  0  0  0  0
   71.4047   97.3918   69.3379 H   0  0  0  0  0  0
   72.2145   95.8403   69.7425 H   0  0  0  0  0  0
   70.4255   95.9711   69.8374 H   0  0  0  0  0  0
   71.1227   98.0949   68.8141 H   0  0  0  0  0  0
   72.2650  100.1689   67.6550 H   0  0  0  0  0  0
   70.6727  100.4574   66.8753 H   0  0  0  0  0  0
   72.7401  100.9903   69.5754 H   0  0  0  0  0  0
   70.3298  102.3448   70.8334 H   0  0  0  0  0  0
   72.4994  105.2572   70.3573 H   0  0  0  0  0  0
   72.6469  101.0626   72.4390 H   0  0  0  0  0  0
   69.7634  100.0610   72.1722 H   0  0  0  0  0  0
   71.1338   99.4129   71.2086 H   0  0  0  0  0  0
   71.5271  102.9981   73.5599 H   0  0  0  0  0  0
   71.1597  101.4519   74.3972 H   0  0  0  0  0  0
   69.9324  102.2057   73.3239 H   0  0  0  0  0  0
   70.6221   97.9657   73.1285 H   0  0  0  0  0  0
   70.8871   99.3382   74.2566 H   0  0  0  0  0  0
   72.2576   98.6901   73.2930 H   0  0  0  0  0  0
  1  2  1  0  0  0
  1 81  1  0  0  0
  1 82  1  0  0  0
  1 83  1  0  0  0
  2  3  1  0  0  0
  2 84  1  0  0  0
  2 85  1  0  0  0
  3  4  2  0  0  0
  3  5  1  0  0  0
  5  6  1  0  0  0
  5 86  1  0  0  0
  6  7  1  0  0  0
  6  9  1  0  0  0
  6 87  1  0  0  0
  7  8  2  0  0  0
  7 14  1  0  0  0
  9 10  1  0  0  0
  9 88  1  0  0  0
  9 89  1  0  0  0
 10 11  1  0  0  0
 10 90  1  0  0  0
 10 91  1  0  0  0
 11 12  1  0  0  0
 11 92  1  0  0  0
 11 93  1  0  0  0
 12 13  1  0  0  0
 12 94  1  0  0  0
 12 95  1  0  0  0
 13 96  1  0  0  0
 13 97  1  0  0  0
 13 98  1  0  0  0
 14 15  1  0  0  0
 14 99  1  0  0  0
 15 16  1  0  0  0
 15 18  1  0  0  0
 15100  1  0  0  0
 16 17  2  0  0  0
 16 22  1  0  0  0
 18 19  1  0  0  0
 18 20  1  0  0  0
 18101  1  0  0  0
 19 21  1  0  0  0
 19102  1  0  0  0
 19103  1  0  0  0
 20104  1  0  0  0
 20105  1  0  0  0
 20106  1  0  0  0
 21107  1  0  0  0
 21108  1  0  0  0
 21109  1  0  0  0
 22 23  1  0  0  0
 22110  1  0  0  0
 23 24  1  0  0  0
 23 26  1  0  0  0
 23111  1  0  0  0
 24 25  2  0  0  0
 24 28  1  0  0  0
 26 27  1  0  0  0
 26112  1  0  0  0
 26113  1  0  0  0
 27114  1  0  0  0
 28 29  1  0  0  0
 28115  1  0  0  0
 29 30  1  0  0  0
 29 32  1  0  0  0
 29116  1  0  0  0
 30 31  2  0  0  0
 30 37  1  0  0  0
 32 33  1  0  0  0
 32117  1  0  0  0
 32118  1  0  0  0
 33 34  1  0  0  0
 33119  1  0  0  0
 33120  1  0  0  0
 34 35  1  0  0  0
 34121  1  0  0  0
 34122  1  0  0  0
 35 36  1  0  0  0
 35123  1  0  0  0
 35124  1  0  0  0
 36125  1  0  0  0
 36126  1  0  0  0
 36127  1  0  0  0
 37 38  1  0  0  0
 37128  1  0  0  0
 38 39  1  0  0  0
 38 41  1  0  0  0
 38129  1  0  0  0
 39 40  2  0  0  0
 39 47  1  0  0  0
 41 42  1  0  0  0
 41130  1  0  0  0
 41131  1  0  0  0
 42 43  2  0  0  0
 42 44  1  0  0  0
 43 45  1  0  0  0
 44 46  2  0  0  0
 44132  1  0  0  0
 45 46  1  0  0  0
 45133  1  0  0  0
 47 48  1  0  0  0
 47134  1  0  0  0
 48 49  1  0  0  0
 48 51  1  0  0  0
 48135  1  0  0  0
 49 50  2  0  0  0
 49 61  1  0  0  0
 51 52  1  0  0  0
 51136  1  0  0  0
 51137  1  0  0  0
 52 53  2  0  0  0
 52 54  1  0  0  0
 53 55  1  0  0  0
 53138  1  0  0  0
 54 56  2  0  0  0
 54 57  1  0  0  0
 55 56  1  0  0  0
 56 58  1  0  0  0
 57 59  2  0  0  0
 57139  1  0  0  0
 58 60  2  0  0  0
 58140  1  0  0  0
 59 60  1  0  0  0
 59141  1  0  0  0
 60142  1  0  0  0
 61 62  1  0  0  0
 61143  1  0  0  0
 62 63  1  0  0  0
 62 65  1  0  0  0
 62144  1  0  0  0
 63 64  2  0  0  0
 63 68  1  0  0  0
 65 66  1  0  0  0
 65 67  1  0  0  0
 65145  1  0  0  0
 66146  1  0  0  0
 67147  1  0  0  0
 67148  1  0  0  0
 67149  1  0  0  0
 68 69  1  0  0  0
 68150  1  0  0  0
 69 70  1  0  0  0
 69151  1  0  0  0
 69152  1  0  0  0
 70 71  2  0  0  0
 70 72  1  0  0  0
 72 73  1  0  0  0
 72153  1  0  0  0
 73 74  1  0  0  0
 73 76  1  0  0  0
 73154  1  0  0  0
 74 75  1  0  0  0
 74 80  2  0  0  0
 75155  1  0  0  0
 76 77  1  0  0  0
 76 78  1  0  0  0
 76156  1  0  0  0
 77 79  1  0  0  0
 77157  1  0  0  0
 77158  1  0  0  0
 78159  1  0  0  0
 78160  1  0  0  0
 78161  1  0  0  0
 79162  1  0  0  0
 79163  1  0  0  0
 79164  1  0  0  0
M  CHG  3   1   1  13   1  36   1
M  END
> <s_m_source_file>
../1y2a_ligand.sdf

> <i_m_source_file_index>
1

> <s_epik_input>
W05IMytdW0NIMl1bQ0gyXVtDSDJdW0NIMl1bQ0BIXShbTkhdQyg9TylbQ0gyXVtOSDMrXSlDKD1PKVtOSF1bQ0BASF0oW0NAQEhdKFtDSDNdKVtDSDJdW0NIM10pQyg9TylbTkhdW0NAQEhdKFtDSDJdW09IXSlDKD1PKVtOSF1bQ0BASF0oW0NIMl1bQ0gyXVtDSDJdW0NIMl1bTkgzK10pQyg9TylbTkhdW0NAQEhdKFtDSDJdQzE9TltDSDJdTj1bQ0hdMSlDKD1PKVtOSF1bQ0BASF0oW0NIMl1jMltjSF1bbkhdYyhjMjMpW2NIXVtjSF1bY0hdW2NIXTMpQyg9TylbTkhdW0NAQEhdKFtDQEhdKFtPSF0pW0NIM10pQyg9TylbTkhdW0NIMl1DKD1PKVtOSF1bQ0BIXShDKD1PKVtPSF0pW0NAQEhdKFtDSDNdKVtDSDJdW0NIM10=

> <s_epik_cmdline>
J2VwaWtfYXBwJywgJy1pbWFlJywgJ2xpZ2FuZF9wcm8ubWFlJywgJy1vbWFlJywgJ2xpZ2FuZF9wcmVwLm1hZScsICctbXMnLCAnMScsICctcGgnLCAnNycsICctcGh0JywgJzAuNScsICctbnQn

> <s_epik_pKa_notes>
Molecule size exceeds maximum supported for generating protonation states

> <s_epik_Chemistry_Notes>
This compound has an imine and may undergo hydrolysis.

$$$$
