1y2c_ligand
                    3D
 Schrodinger Suite 2020-3.
 34 35  0  0  1  0            999 V2000
   14.6490    6.2990    9.9730 C   0  0  0  0  0  0
   13.5220    6.0870    9.2700 O   0  0  0  0  0  0
   13.5320    6.1430    7.8330 C   0  0  0  0  0  0
   12.1140    6.3670    7.3450 C   0  0  0  0  0  0
   14.5900    6.1160   11.4350 C   0  0  0  0  0  0
   15.7760    6.0350   12.3110 C   0  0  0  0  0  0
   15.3120    5.8250   13.5150 N   0  0  0  0  0  0
   17.2280    5.9230   11.9280 C   0  0  0  0  0  0
   13.4890    6.0910   12.2260 C   0  0  0  0  0  0
   12.0490    6.2220   11.7990 C   0  0  0  0  0  0
   13.8870    5.9290   13.5250 N   0  0  0  0  0  0
   13.1040    5.8140   14.6890 C   0  0  0  0  0  0
   13.1990    6.7770   15.7030 C   0  0  0  0  0  0
   12.4240    6.6300   16.8640 C   0  0  0  0  0  0
   11.5790    5.5170   17.0150 C   0  0  0  0  0  0
   11.5050    4.5500   16.0080 C   0  0  0  0  0  0
   12.2750    4.6980   14.8450 C   0  0  0  0  0  0
   15.7210    6.3190    9.4340 O   0  0  0  0  0  0
   14.1759    6.9715    7.5028 H   0  0  0  0  0  0
   13.9197    5.1950    7.4318 H   0  0  0  0  0  0
   12.1073    6.4119    6.2459 H   0  0  0  0  0  0
   11.7311    7.3141    7.7530 H   0  0  0  0  0  0
   11.4749    5.5375    7.6820 H   0  0  0  0  0  0
   17.3435    6.1503   10.8580 H   0  0  0  0  0  0
   17.5815    4.9003   12.1259 H   0  0  0  0  0  0
   17.8195    6.6365   12.5204 H   0  0  0  0  0  0
   11.9999    6.3413   10.7066 H   0  0  0  0  0  0
   11.6012    7.1017   12.2844 H   0  0  0  0  0  0
   11.4953    5.3186   12.0945 H   0  0  0  0  0  0
   13.8674    7.6307   15.5912 H   0  0  0  0  0  0
   12.4777    7.3818   17.6514 H   0  0  0  0  0  0
   10.9801    5.4076   17.9191 H   0  0  0  0  0  0
   10.8521    3.6852   16.1261 H   0  0  0  0  0  0
   12.2274    3.9420   14.0612 H   0  0  0  0  0  0
  1 18  2  0  0  0
  1  5  1  0  0  0
  1  2  1  0  0  0
  2  3  1  0  0  0
  3  4  1  0  0  0
  3 19  1  0  0  0
  3 20  1  0  0  0
  4 21  1  0  0  0
  4 22  1  0  0  0
  4 23  1  0  0  0
  5  9  2  0  0  0
  5  6  1  0  0  0
  6  8  1  0  0  0
  6  7  2  0  0  0
  7 11  1  0  0  0
  8 24  1  0  0  0
  8 25  1  0  0  0
  8 26  1  0  0  0
  9 11  1  0  0  0
  9 10  1  0  0  0
 10 27  1  0  0  0
 10 28  1  0  0  0
 10 29  1  0  0  0
 11 12  1  0  0  0
 12 17  2  0  0  0
 12 13  1  0  0  0
 13 14  2  0  0  0
 13 30  1  0  0  0
 14 15  1  0  0  0
 14 31  1  0  0  0
 15 16  2  0  0  0
 15 32  1  0  0  0
 16 17  1  0  0  0
 16 33  1  0  0  0
 17 34  1  0  0  0
M  END
> <s_m_source_file>
../1y2c_ligand.sdf

> <i_m_source_file_index>
1

> <s_epik_input>
W0NIM11bQ0gyXU9DKD1PKWMxYyhbQ0gzXSlubihjMVtDSDNdKS1jMltjSF1bY0hdW2NIXVtjSF1bY0hdMg==

> <s_epik_cmdline>
J2VwaWtfYXBwJywgJy1pbWFlJywgJ2xpZ2FuZF9wcm8ubWFlJywgJy1vbWFlJywgJ2xpZ2FuZF9wcmVwLm1hZScsICctbXMnLCAnMScsICctcGgnLCAnNycsICctcGh0JywgJzAuNScsICctbnQn

> <r_lp_tautomer_probability>
1

> <r_epik_Ionization_Penalty>
  0.0000

> <r_epik_Ionization_Penalty_Charging>
  0.0000

> <r_epik_Ionization_Penalty_Neutral>
  0.0000

> <r_epik_State_Penalty>
 -0.0000

> <r_epik_Charging_Adjusted_Penalty>
0

> <i_epik_Tot_Q>
0

> <i_epik_Tot_abs_Q>
0

> <s_epik_Chemistry_Notes>
This compound has an ester and may undergo hydrolysis at high or low pH.

$$$$
