1y2e_ligand
                    3D
 Schrodinger Suite 2020-3.
 36 37  0  0  1  0            999 V2000
   15.8030    6.2830    9.2350 O   0  0  0  0  0  0
   14.7570    6.1880    9.8330 C   0  0  0  0  0  0
   13.5730    6.1710    9.2210 O   0  0  0  0  0  0
   13.5660    6.1920    7.7790 C   0  0  0  0  0  0
   12.1200    6.1870    7.2560 C   0  0  0  0  0  0
   14.7650    6.0150   11.3240 C   0  0  0  0  0  0
   15.8680    5.8750   12.1690 C   0  0  0  0  0  0
   15.4380    5.7210   13.4260 N   0  0  0  0  0  0
   17.3540    5.8900   11.8430 C   0  0  0  0  0  0
   13.6560    5.9230   12.1670 C   0  0  0  0  0  0
   12.1890    6.0150   11.7690 C   0  0  0  0  0  0
   14.1120    5.7550   13.4150 N   0  0  0  0  0  0
   13.3590    5.5870   14.5120 C   0  0  0  0  0  0
   13.0510    6.6300   15.4060 C   0  0  0  0  0  0
   12.2660    6.3540   16.5370 C   0  0  0  0  0  0
   12.8850    4.2850   14.7510 C   0  0  0  0  0  0
   12.0930    4.0190   15.8650 C   0  0  0  0  0  0
   11.7790    5.0400   16.7580 C   0  0  0  0  0  0
   11.0150    4.7430   17.8250 N   0  0  0  0  0  0
   14.0749    7.0999    7.4231 H   0  0  0  0  0  0
   14.0906    5.3039    7.3968 H   0  0  0  0  0  0
   12.1279    6.2031    6.1561 H   0  0  0  0  0  0
   11.5910    7.0752    7.6320 H   0  0  0  0  0  0
   11.6067    5.2791    7.6058 H   0  0  0  0  0  0
   17.4904    6.0269   10.7601 H   0  0  0  0  0  0
   17.8068    4.9363   12.1520 H   0  0  0  0  0  0
   17.8391    6.7176   12.3812 H   0  0  0  0  0  0
   12.1124    6.1522   10.6803 H   0  0  0  0  0  0
   11.7234    6.8706   12.2801 H   0  0  0  0  0  0
   11.6716    5.0887   12.0591 H   0  0  0  0  0  0
   13.4176    7.6399   15.2224 H   0  0  0  0  0  0
   12.0309    7.1489   17.2448 H   0  0  0  0  0  0
   13.1387    3.4802   14.0611 H   0  0  0  0  0  0
   11.7184    3.0101   16.0381 H   0  0  0  0  0  0
   10.7504    5.5288   18.5478 H   0  0  0  0  0  0
   10.6550    3.7144   17.9745 H   0  0  0  0  0  0
  1  2  2  0  0  0
  2  3  1  0  0  0
  2  6  1  0  0  0
  3  4  1  0  0  0
  4  5  1  0  0  0
  4 20  1  0  0  0
  4 21  1  0  0  0
  5 22  1  0  0  0
  5 23  1  0  0  0
  5 24  1  0  0  0
  6  7  1  0  0  0
  6 10  2  0  0  0
  7  8  2  0  0  0
  7  9  1  0  0  0
  8 12  1  0  0  0
  9 25  1  0  0  0
  9 26  1  0  0  0
  9 27  1  0  0  0
 10 11  1  0  0  0
 10 12  1  0  0  0
 11 28  1  0  0  0
 11 29  1  0  0  0
 11 30  1  0  0  0
 12 13  1  0  0  0
 13 14  2  0  0  0
 13 16  1  0  0  0
 14 15  1  0  0  0
 14 31  1  0  0  0
 15 18  2  0  0  0
 15 32  1  0  0  0
 16 17  2  0  0  0
 16 33  1  0  0  0
 17 18  1  0  0  0
 17 34  1  0  0  0
 18 19  1  0  0  0
 19 35  1  0  0  0
 19 36  1  0  0  0
M  END
> <s_m_source_file>
../1y2e_ligand.sdf

> <i_m_source_file_index>
1

> <s_epik_input>
W0NIM11bQ0gyXU9DKD1PKWMxYyhbQ0gzXSlubihjMVtDSDNdKS1jMltjSF1bY0hdYyhbTkgyXSlbY0hdW2NIXTI=

> <s_epik_cmdline>
J2VwaWtfYXBwJywgJy1pbWFlJywgJ2xpZ2FuZF9wcm8ubWFlJywgJy1vbWFlJywgJ2xpZ2FuZF9wcmVwLm1hZScsICctbXMnLCAnMScsICctcGgnLCAnNycsICctcGh0JywgJzAuNScsICctbnQn

> <r_lp_tautomer_probability>
1

> <r_epik_Ionization_Penalty>
  0.0002

> <r_epik_Ionization_Penalty_Charging>
  0.0000

> <r_epik_Ionization_Penalty_Neutral>
  0.0002

> <r_epik_State_Penalty>
 -0.0000

> <r_epik_Charging_Adjusted_Penalty>
0

> <i_epik_Tot_Q>
0

> <i_epik_Tot_abs_Q>
0

> <s_epik_Chemistry_Notes>
This compound has an ester and may undergo hydrolysis at high or low pH.

$$$$
