1y2h_ligand
                    3D
 Schrodinger Suite 2020-3.
 34 35  0  0  1  0            999 V2000
   -0.2810   48.0130  -12.7470 O   0  0  0  0  0  0
   -0.0310   48.2200  -11.5670 C   0  0  0  0  0  0
   -0.9720   48.2910  -10.6040 O   0  0  0  0  0  0
   -2.3470   48.5440  -10.9710 C   0  0  0  0  0  0
   -2.9930   49.4190   -9.8730 C   0  0  0  0  0  0
    1.4100   48.3990  -11.1480 C   0  0  0  0  0  0
    1.8400   49.0190   -9.9700 C   0  0  0  0  0  0
    0.9910   49.6490   -8.8620 C   0  0  0  0  0  0
    2.5470   47.9780  -11.8560 C   0  0  0  0  0  0
    2.5350   47.2530  -13.2010 C   0  0  0  0  0  0
    3.7170   48.2690  -11.2450 N   0  0  0  0  0  0
    3.3120   48.9690   -9.9960 N   0  0  0  0  0  0
    4.1890   49.4370   -9.0740 C   0  0  0  0  0  0
    4.5580   48.6190   -8.0200 C   0  0  0  0  0  0
    3.8450   47.0380   -7.9540 Cl  0  0  0  0  0  0
    5.4640   49.0400   -7.0460 C   0  0  0  0  0  0
    6.0150   50.3140   -7.1380 C   0  0  0  0  0  0
    5.6560   51.1560   -8.1970 C   0  0  0  0  0  0
    4.7450   50.7180   -9.1660 C   0  0  0  0  0  0
   -2.3779   49.0693  -11.9370 H   0  0  0  0  0  0
   -2.8856   47.5887  -11.0557 H   0  0  0  0  0  0
   -4.0417   49.6221  -10.1358 H   0  0  0  0  0  0
   -2.4447   50.3691   -9.7915 H   0  0  0  0  0  0
   -2.9524   48.8885   -8.9102 H   0  0  0  0  0  0
   -0.0751   49.5388   -9.1095 H   0  0  0  0  0  0
    1.2383   50.7172   -8.7731 H   0  0  0  0  0  0
    1.2001   49.1436   -7.9076 H   0  0  0  0  0  0
    1.4955   47.1093  -13.5308 H   0  0  0  0  0  0
    3.0244   46.2737  -13.0940 H   0  0  0  0  0  0
    3.0765   47.8541  -13.9464 H   0  0  0  0  0  0
    5.7366   48.3789   -6.2233 H   0  0  0  0  0  0
    6.7258   50.6564   -6.3859 H   0  0  0  0  0  0
    6.0866   52.1549   -8.2675 H   0  0  0  0  0  0
    4.4691   51.3743   -9.9914 H   0  0  0  0  0  0
  1  2  2  0  0  0
  2  3  1  0  0  0
  2  6  1  0  0  0
  3  4  1  0  0  0
  4  5  1  0  0  0
  4 20  1  0  0  0
  4 21  1  0  0  0
  5 22  1  0  0  0
  5 23  1  0  0  0
  5 24  1  0  0  0
  6  7  2  0  0  0
  6  9  1  0  0  0
  7  8  1  0  0  0
  7 12  1  0  0  0
  8 25  1  0  0  0
  8 26  1  0  0  0
  8 27  1  0  0  0
  9 10  1  0  0  0
  9 11  2  0  0  0
 10 28  1  0  0  0
 10 29  1  0  0  0
 10 30  1  0  0  0
 11 12  1  0  0  0
 12 13  1  0  0  0
 13 14  2  0  0  0
 13 19  1  0  0  0
 14 15  1  0  0  0
 14 16  1  0  0  0
 16 17  2  0  0  0
 16 31  1  0  0  0
 17 18  1  0  0  0
 17 32  1  0  0  0
 18 19  2  0  0  0
 18 33  1  0  0  0
 19 34  1  0  0  0
M  END
> <s_m_source_file>
../1y2h_ligand.sdf

> <i_m_source_file_index>
1

> <s_epik_input>
W0NIM11bQ0gyXU9DKD1PKWMxYyhbQ0gzXSluKG5jMVtDSDNdKS1jMmMoQ2wpW2NIXVtjSF1bY0hdW2NIXTI=

> <s_epik_cmdline>
J2VwaWtfYXBwJywgJy1pbWFlJywgJ2xpZ2FuZF9wcm8ubWFlJywgJy1vbWFlJywgJ2xpZ2FuZF9wcmVwLm1hZScsICctbXMnLCAnMScsICctcGgnLCAnNycsICctcGh0JywgJzAuNScsICctbnQn

> <r_lp_tautomer_probability>
1

> <r_epik_Ionization_Penalty>
  0.0000

> <r_epik_Ionization_Penalty_Charging>
  0.0000

> <r_epik_Ionization_Penalty_Neutral>
  0.0000

> <r_epik_State_Penalty>
 -0.0000

> <r_epik_Charging_Adjusted_Penalty>
0

> <i_epik_Tot_Q>
0

> <i_epik_Tot_abs_Q>
0

> <s_epik_Chemistry_Notes>
This compound has an ester and may undergo hydrolysis at high or low pH.

$$$$
