1y2j_ligand
                    3D
 Schrodinger Suite 2020-3.
 36 37  0  0  1  0            999 V2000
   40.5100    1.5730   58.0170 O   0  5  0  0  0  0
   39.4690    1.4350   58.6870 N   0  3  0  0  0  0
   38.3310    1.5290   58.2130 O   0  0  0  0  0  0
   39.5810    1.9410   59.9600 C   0  0  0  0  0  0
   38.7710    3.0400   60.3140 C   0  0  0  0  0  0
   40.5230    1.4150   60.8710 C   0  0  0  0  0  0
   40.6190    2.0070   62.1120 C   0  0  0  0  0  0
   39.8070    3.0930   62.4330 C   0  0  0  0  0  0
   38.9030    3.6280   61.5470 C   0  0  0  0  0  0
   41.4210    1.6080   63.1290 N   0  0  0  0  0  0
   42.7150    1.7970   63.2960 C   0  0  0  0  0  0
   43.6570    2.4760   62.2900 C   0  0  0  0  0  0
   43.0610    1.2830   64.4920 C   0  0  0  0  0  0
   41.8130    0.7510   65.0610 C   0  0  0  0  0  0
   40.9010    0.9900   64.2090 N   0  0  0  0  0  0
   41.5330    0.0570   66.3610 C   0  0  0  0  0  0
   44.3980    1.2460   65.0920 C   0  0  0  0  0  0
   44.4900    0.8220   66.2330 O   0  0  0  0  0  0
   45.4470    1.2680   64.2470 O   0  0  0  0  0  0
   46.7720    1.2960   64.8090 C   0  0  0  0  0  0
   47.7820    1.7950   63.7440 C   0  0  0  0  0  0
   38.0371    3.4239   59.6054 H   0  0  0  0  0  0
   41.1539    0.5680   60.6015 H   0  0  0  0  0  0
   39.8922    3.5354   63.4255 H   0  0  0  0  0  0
   38.3051    4.4985   61.8170 H   0  0  0  0  0  0
   43.0833    2.7922   61.4063 H   0  0  0  0  0  0
   44.4400    1.7664   61.9843 H   0  0  0  0  0  0
   44.1221    3.3555   62.7592 H   0  0  0  0  0  0
   42.4673   -0.0402   66.9334 H   0  0  0  0  0  0
   41.1196   -0.9426   66.1614 H   0  0  0  0  0  0
   40.8068    0.6449   66.9415 H   0  0  0  0  0  0
   46.7891    1.9755   65.6739 H   0  0  0  0  0  0
   47.0545    0.2834   65.1327 H   0  0  0  0  0  0
   48.7926    1.8147   64.1779 H   0  0  0  0  0  0
   47.5023    2.8083   63.4198 H   0  0  0  0  0  0
   47.7677    1.1161   62.8786 H   0  0  0  0  0  0
  1  2  1  0  0  0
  2  3  2  0  0  0
  2  4  1  0  0  0
  4  5  2  0  0  0
  4  6  1  0  0  0
  5  9  1  0  0  0
  5 22  1  0  0  0
  6  7  2  0  0  0
  6 23  1  0  0  0
  7  8  1  0  0  0
  7 10  1  0  0  0
  8  9  2  0  0  0
  8 24  1  0  0  0
  9 25  1  0  0  0
 10 11  1  0  0  0
 10 15  1  0  0  0
 11 12  1  0  0  0
 11 13  2  0  0  0
 12 26  1  0  0  0
 12 27  1  0  0  0
 12 28  1  0  0  0
 13 14  1  0  0  0
 13 17  1  0  0  0
 14 15  2  0  0  0
 14 16  1  0  0  0
 16 29  1  0  0  0
 16 30  1  0  0  0
 16 31  1  0  0  0
 17 18  2  0  0  0
 17 19  1  0  0  0
 19 20  1  0  0  0
 20 21  1  0  0  0
 20 32  1  0  0  0
 20 33  1  0  0  0
 21 34  1  0  0  0
 21 35  1  0  0  0
 21 36  1  0  0  0
M  CHG  2   1  -1   2   1
M  END
> <s_m_source_file>
../1y2j_ligand.sdf

> <i_m_source_file_index>
1

> <s_epik_input>
W08tXVtOK10oPU8pYzFbY0hdW2NIXVtjSF1jKFtjSF0xKS1uMmMoW0NIM10pYyhjKG4yKVtDSDNdKUMoPU8pT1tDSDJdW0NIM10=

> <s_epik_cmdline>
J2VwaWtfYXBwJywgJy1pbWFlJywgJ2xpZ2FuZF9wcm8ubWFlJywgJy1vbWFlJywgJ2xpZ2FuZF9wcmVwLm1hZScsICctbXMnLCAnMScsICctcGgnLCAnNycsICctcGh0JywgJzAuNScsICctbnQn

> <r_lp_tautomer_probability>
1

> <r_epik_Ionization_Penalty>
  0.0000

> <r_epik_Ionization_Penalty_Charging>
  0.0000

> <r_epik_Ionization_Penalty_Neutral>
  0.0000

> <r_epik_State_Penalty>
 -0.0000

> <r_epik_Charging_Adjusted_Penalty>
0

> <i_epik_Tot_Q>
0

> <i_epik_Tot_abs_Q>
2

> <s_epik_Chemistry_Notes>
This compound has an ester and may undergo hydrolysis at high or low pH.

$$$$
