1y2k_ligand
                    3D
 Schrodinger Suite 2020-3.
 36 37  0  0  1  0            999 V2000
   10.6840   42.2670   15.7390 O   0  5  0  0  0  0
   10.8910   43.1080   16.5910 N   0  3  0  0  0  0
   10.5610   42.9540   17.7520 O   0  0  0  0  0  0
   11.7100   44.1590   16.2920 C   0  0  0  0  0  0
   11.8620   45.2270   17.1940 C   0  0  0  0  0  0
   12.4350   44.2050   15.0810 C   0  0  0  0  0  0
   13.2690   45.2870   14.7800 C   0  0  0  0  0  0
   13.4100   46.3370   15.6930 C   0  0  0  0  0  0
   12.7020   46.3040   16.8970 C   0  0  0  0  0  0
   13.9730   45.3270   13.6190 N   0  0  0  0  0  0
   13.5230   45.4580   12.3860 C   0  0  0  0  0  0
   12.0530   45.6070   12.0420 C   0  0  0  0  0  0
   14.5740   45.4430   11.5290 C   0  0  0  0  0  0
   15.7490   45.2820   12.4030 C   0  0  0  0  0  0
   15.3140   45.2230   13.5890 N   0  0  0  0  0  0
   17.2140   45.1910   12.0710 C   0  0  0  0  0  0
   14.6100   45.5570   10.0530 C   0  0  0  0  0  0
   15.6900   45.6880    9.4810 O   0  0  0  0  0  0
   13.4520   45.4600    9.3940 O   0  0  0  0  0  0
   13.4660   45.5290    7.9480 C   0  0  0  0  0  0
   12.0210   45.6420    7.4140 C   0  0  0  0  0  0
   11.3172   45.2148   18.1380 H   0  0  0  0  0  0
   12.3433   43.3844   14.3695 H   0  0  0  0  0  0
   14.0682   47.1759   15.4667 H   0  0  0  0  0  0
   12.8053   47.1229   17.6089 H   0  0  0  0  0  0
   11.4557   45.5793   12.9653 H   0  0  0  0  0  0
   11.7456   44.7828   11.3816 H   0  0  0  0  0  0
   11.8918   46.5670   11.5297 H   0  0  0  0  0  0
   17.3485   45.2664   10.9819 H   0  0  0  0  0  0
   17.6107   44.2275   12.4236 H   0  0  0  0  0  0
   17.7536   46.0126   12.5648 H   0  0  0  0  0  0
   14.0412   46.4106    7.6286 H   0  0  0  0  0  0
   13.9331   44.6196    7.5420 H   0  0  0  0  0  0
   12.0391   45.6940    6.3154 H   0  0  0  0  0  0
   11.5515   46.5517    7.8164 H   0  0  0  0  0  0
   11.4434   44.7608    7.7299 H   0  0  0  0  0  0
  1  2  1  0  0  0
  2  4  1  0  0  0
  2  3  2  0  0  0
  4  6  2  0  0  0
  4  5  1  0  0  0
  5  9  2  0  0  0
  5 22  1  0  0  0
  6  7  1  0  0  0
  6 23  1  0  0  0
  7  8  2  0  0  0
  7 10  1  0  0  0
  8  9  1  0  0  0
  8 24  1  0  0  0
  9 25  1  0  0  0
 10 15  1  0  0  0
 10 11  1  0  0  0
 11 13  2  0  0  0
 11 12  1  0  0  0
 12 26  1  0  0  0
 12 27  1  0  0  0
 12 28  1  0  0  0
 13 17  1  0  0  0
 13 14  1  0  0  0
 14 16  1  0  0  0
 14 15  2  0  0  0
 16 29  1  0  0  0
 16 30  1  0  0  0
 16 31  1  0  0  0
 17 19  1  0  0  0
 17 18  2  0  0  0
 19 20  1  0  0  0
 20 21  1  0  0  0
 20 32  1  0  0  0
 20 33  1  0  0  0
 21 34  1  0  0  0
 21 35  1  0  0  0
 21 36  1  0  0  0
M  CHG  2   1  -1   2   1
M  END
> <s_m_source_file>
../1y2k_ligand.sdf

> <i_m_source_file_index>
1

> <s_epik_input>
W08tXVtOK10oPU8pYzFbY0hdW2NIXVtjSF1jKFtjSF0xKS1uMmMoW0NIM10pYyhjKG4yKVtDSDNdKUMoPU8pT1tDSDJdW0NIM10=

> <s_epik_cmdline>
J2VwaWtfYXBwJywgJy1pbWFlJywgJ2xpZ2FuZF9wcm8ubWFlJywgJy1vbWFlJywgJ2xpZ2FuZF9wcmVwLm1hZScsICctbXMnLCAnMScsICctcGgnLCAnNycsICctcGh0JywgJzAuNScsICctbnQn

> <r_lp_tautomer_probability>
1

> <r_epik_Ionization_Penalty>
  0.0000

> <r_epik_Ionization_Penalty_Charging>
  0.0000

> <r_epik_Ionization_Penalty_Neutral>
  0.0000

> <r_epik_State_Penalty>
 -0.0000

> <r_epik_Charging_Adjusted_Penalty>
0

> <i_epik_Tot_Q>
0

> <i_epik_Tot_abs_Q>
2

> <s_epik_Chemistry_Notes>
This compound has an ester and may undergo hydrolysis at high or low pH.

$$$$
