1y3a_ligand
                    3D
 Schrodinger Suite 2020-3.
210213  0  0  1  0            999 V2000
   36.3940  -14.5560   -2.2170 N   0  3  0  0  0  0
   36.0000  -15.5870   -1.2150 C   0  0  2  0  0  0
   34.7340  -15.1690   -0.4700 C   0  0  0  0  0  0
   34.1920  -15.9440    0.3210 O   0  0  0  0  0  0
   37.1360  -15.8200   -0.2150 C   0  0  0  0  0  0
   36.8250  -16.8760    0.6820 O   0  0  0  0  0  0
   34.2810  -13.9400   -0.7110 N   0  0  0  0  0  0
   33.0600  -13.4310   -0.0880 C   0  0  2  0  0  0
   31.9970  -13.2340   -1.1640 C   0  0  0  0  0  0
   32.3110  -12.8580   -2.2940 O   0  0  0  0  0  0
   33.3080  -12.1030    0.6240 C   0  0  0  0  0  0
   34.1630  -12.1950    1.8740 C   0  0  0  0  0  0
   33.9420  -10.9740    2.7530 C   0  0  0  0  0  0
   33.7920   -9.7630    1.9490 N   0  0  0  0  0  0
   33.3870   -8.5860    2.4220 C   0  0  0  0  0  0
   33.0870   -8.4480    3.7100 N   0  0  0  0  0  0
   33.2680   -7.5470    1.6010 N   0  0  0  0  0  0
   30.7390  -13.4860   -0.8140 N   0  0  0  0  0  0
   29.6540  -13.3480   -1.7800 C   0  0  2  0  0  0
   28.3220  -12.9430   -1.1370 C   0  0  0  0  0  0
   28.1510  -13.0440    0.0760 O   0  0  0  0  0  0
   29.4330  -14.6790   -2.5460 C   0  0  0  0  0  0
   28.5580  -14.4350   -3.7510 C   0  0  0  0  0  0
   30.7620  -15.2760   -2.9770 C   0  0  0  0  0  0
   27.3860  -12.4790   -1.9630 N   0  0  0  0  0  0
   26.0590  -12.0910   -1.4890 C   0  0  2  0  0  0
   25.3300  -13.3750   -1.1330 C   0  0  0  0  0  0
   25.8520  -14.4620   -1.3770 O   0  0  0  0  0  0
   25.2440  -11.3760   -2.5820 C   0  0  2  0  0  0
   25.1960  -12.1940   -3.7580 O   0  0  0  0  0  0
   25.8610  -10.0390   -2.9190 C   0  0  0  0  0  0
   24.1340  -13.2660   -0.5600 N   0  0  0  0  0  0
   23.3930  -14.4730   -0.2210 C   0  0  2  0  0  0
   22.7240  -15.0430   -1.4610 C   0  0  0  0  0  0
   22.4350  -16.2320   -1.5210 O   0  0  0  0  0  0
   22.3520  -14.2170    0.8850 C   0  0  0  0  0  0
   21.2460  -13.2390    0.5740 C   0  0  0  0  0  0
   21.0690  -12.0030    1.1270 C   0  0  0  0  0  0
   20.1370  -13.4430   -0.3070 C   0  0  0  0  0  0
   19.9200  -11.4280    0.6510 N   0  0  0  0  0  0
   19.3270  -12.2900   -0.2320 C   0  0  0  0  0  0
   19.7480  -14.4880   -1.1540 C   0  0  0  0  0  0
   18.1510  -12.1530   -0.9720 C   0  0  0  0  0  0
   18.5830  -14.3520   -1.8900 C   0  0  0  0  0  0
   17.7980  -13.1920   -1.7950 C   0  0  0  0  0  0
   22.4870  -14.1910   -2.4540 N   0  0  0  0  0  0
   21.8640  -14.6320   -3.6890 C   0  0  2  0  0  0
   22.7920  -15.5500   -4.4610 C   0  0  0  0  0  0
   22.3820  -16.6250   -4.8790 O   0  0  0  0  0  0
   21.5000  -13.4510   -4.5830 C   0  0  0  0  0  0
   20.9440  -13.8830   -5.9280 C   0  0  0  0  0  0
   19.6300  -14.3330   -6.0480 C   0  0  0  0  0  0
   21.7480  -13.8890   -7.0700 C   0  0  0  0  0  0
   19.1290  -14.7800   -7.2670 C   0  0  0  0  0  0
   21.2580  -14.3340   -8.2940 C   0  0  0  0  0  0
   19.9460  -14.7800   -8.3870 C   0  0  0  0  0  0
   19.4520  -15.2410   -9.5920 O   0  0  0  0  0  0
   24.0380  -15.1280   -4.6650 N   0  0  0  0  0  0
   24.9910  -15.9550   -5.4050 C   0  0  2  0  0  0
   25.3120  -17.2270   -4.6290 C   0  0  0  0  0  0
   25.6350  -18.2540   -5.2140 O   0  0  0  0  0  0
   26.2820  -15.1830   -5.6970 C   0  0  0  0  0  0
   26.0690  -14.0070   -6.6370 C   0  0  0  0  0  0
   25.4710  -14.2000   -7.7230 O   0  0  0  0  0  0
   26.5130  -12.8900   -6.2890 O   0  0  0  0  0  0
   25.2140  -17.1450   -3.3070 N   0  0  0  0  0  0
   25.4630  -18.2820   -2.4290 C   0  0  2  0  0  0
   24.4440  -19.3970   -2.6620 C   0  0  0  0  0  0
   24.7930  -20.5750   -2.6470 O   0  0  0  0  0  0
   25.3970  -17.8270   -0.9730 C   0  0  0  0  0  0
   25.2870  -18.9480    0.0100 C   0  0  0  0  0  0
   26.3170  -19.8680    0.1560 C   0  0  0  0  0  0
   24.1540  -19.0800    0.7970 C   0  0  0  0  0  0
   26.2190  -20.9040    1.0770 C   0  0  0  0  0  0
   24.0450  -20.1070    1.7160 C   0  0  0  0  0  0
   25.0780  -21.0220    1.8590 C   0  0  0  0  0  0
   23.1850  -19.0180   -2.8670 N   0  0  0  0  0  0
   22.1140  -19.9830   -3.1080 C   0  0  2  0  0  0
   22.1100  -20.4330   -4.5720 C   0  0  0  0  0  0
   21.7820  -21.5760   -4.8820 O   0  0  0  0  0  0
   20.7500  -19.3660   -2.7730 C   0  0  0  0  0  0
   20.4930  -18.7390   -1.3980 C   0  0  0  0  0  0
   19.1010  -18.1320   -1.3900 C   0  0  0  0  0  0
   20.6190  -19.7730   -0.2960 C   0  0  0  0  0  0
   22.4770  -19.5210   -5.4650 N   0  0  0  0  0  0
   22.5140  -19.7940   -6.8970 C   0  0  2  0  0  0
   23.6650  -20.7220   -7.2790 C   0  0  0  0  0  0
   23.8590  -21.0300   -8.4550 O   0  0  0  0  0  0
   22.6450  -18.4760   -7.6670 C   0  0  0  0  0  0
   21.5540  -18.2400   -8.6910 C   0  0  0  0  0  0
   19.9040  -18.4140   -7.9850 S   0  0  0  0  0  0
   19.3310  -19.8880   -8.8180 C   0  0  0  0  0  0
   24.4270  -21.1630   -6.2830 N   0  0  0  0  0  0
   25.5590  -22.0530   -6.5190 C   0  0  2  0  0  0
   25.1470  -23.4840   -6.8350 C   0  0  0  0  0  0
   24.2730  -24.0610   -6.1790 O   0  0  0  0  0  0
   26.4930  -22.0560   -5.3140 C   0  0  0  0  0  0
   27.1710  -20.7330   -5.0790 C   0  0  0  0  0  0
   28.2810  -20.8360   -4.0680 C   0  0  0  0  0  0
   28.0070  -21.2660   -2.9250 O   0  0  0  0  0  0
   29.4270  -20.4890   -4.4240 O   0  0  0  0  0  0
   25.8020  -24.0580   -7.8380 N   0  0  0  0  0  0
   25.5130  -25.4180   -8.2620 C   0  0  2  0  0  0
   26.6320  -26.3600   -7.8200 C   0  0  0  0  0  0
   26.4810  -27.1130   -6.8550 O   0  0  0  0  0  0
   25.3560  -25.4540   -9.7850 C   0  0  0  0  0  0
   24.7890  -26.7670  -10.2830 C   0  0  0  0  0  0
   25.4050  -27.8230  -10.0180 O   0  0  0  0  0  0
   23.7270  -26.7410  -10.9430 O   0  0  0  0  0  0
   27.7100  -26.3870   -8.4190 O   0  0  0  0  0  0
   35.5684  -14.4004   -2.9270 H   0  0  0  0  0  0
   37.2869  -14.8965   -2.7618 H   0  0  0  0  0  0
   36.6174  -13.6103   -1.7015 H   0  0  0  0  0  0
   35.7996  -16.5099   -1.7789 H   0  0  0  0  0  0
   38.0553  -16.0823   -0.7591 H   0  0  0  0  0  0
   37.3044  -14.9031    0.3688 H   0  0  0  0  0  0
   37.5444  -17.1644    1.4626 H   0  0  0  0  0  0
   34.8535  -13.3025   -1.4008 H   0  0  0  0  0  0
   32.7569  -14.1895    0.6488 H   0  0  0  0  0  0
   33.8225  -11.4112   -0.0592 H   0  0  0  0  0  0
   32.3463  -11.6668    0.9318 H   0  0  0  0  0  0
   33.8908  -13.0989    2.4387 H   0  0  0  0  0  0
   35.2243  -12.2462    1.5894 H   0  0  0  0  0  0
   33.0292  -11.1130    3.3509 H   0  0  0  0  0  0
   34.8038  -10.8446    3.4242 H   0  0  0  0  0  0
   34.0201   -9.7853    0.8731 H   0  0  0  0  0  0
   33.1842   -9.3053    4.3923 H   0  0  0  0  0  0
   32.7416   -7.4765    4.0932 H   0  0  0  0  0  0
   33.5153   -7.6573    0.5348 H   0  0  0  0  0  0
   30.5207  -13.8016    0.2169 H   0  0  0  0  0  0
   30.0125  -12.5329   -2.4258 H   0  0  0  0  0  0
   28.9288  -15.4095   -1.8962 H   0  0  0  0  0  0
   27.5997  -14.0032   -3.4268 H   0  0  0  0  0  0
   28.3742  -15.3875   -4.2696 H   0  0  0  0  0  0
   29.0623  -13.7365   -4.4349 H   0  0  0  0  0  0
   31.3906  -15.4493   -2.0911 H   0  0  0  0  0  0
   31.2728  -14.5799   -3.6586 H   0  0  0  0  0  0
   30.5847  -16.2310   -3.4933 H   0  0  0  0  0  0
   27.6360  -12.3916   -3.0307 H   0  0  0  0  0  0
   26.2121  -11.4156   -0.6344 H   0  0  0  0  0  0
   24.2009  -11.2283   -2.2655 H   0  0  0  0  0  0
   24.7759  -13.2092   -3.7050 H   0  0  0  0  0  0
   25.8966   -9.4133   -2.0150 H   0  0  0  0  0  0
   25.2540   -9.5384   -3.6877 H   0  0  0  0  0  0
   26.8817  -10.1917   -3.2997 H   0  0  0  0  0  0
   23.7040  -12.2772   -0.3421 H   0  0  0  0  0  0
   24.1543  -15.1746    0.1506 H   0  0  0  0  0  0
   21.8479  -15.1610    1.1396 H   0  0  0  0  0  0
   22.8560  -13.8181    1.7777 H   0  0  0  0  0  0
   21.7456  -11.5397    1.8451 H   0  0  0  0  0  0
   20.3514  -15.3923   -1.2326 H   0  0  0  0  0  0
   17.5372  -11.2552   -0.8986 H   0  0  0  0  0  0
   18.2705  -15.1583   -2.5536 H   0  0  0  0  0  0
   16.8872  -13.1152   -2.3888 H   0  0  0  0  0  0
   22.7716  -13.1360   -2.3277 H   0  0  0  0  0  0
   20.9609  -15.1676   -3.3611 H   0  0  0  0  0  0
   20.7362  -12.8358   -4.0849 H   0  0  0  0  0  0
   22.3969  -12.8421   -4.7694 H   0  0  0  0  0  0
   18.9830  -14.3348   -5.1708 H   0  0  0  0  0  0
   22.7779  -13.5388   -7.0012 H   0  0  0  0  0  0
   18.0989  -15.1285   -7.3408 H   0  0  0  0  0  0
   21.9002  -14.3326   -9.1747 H   0  0  0  0  0  0
   18.4123  -15.5934   -9.6615 H   0  0  0  0  0  0
   24.3488  -14.1487   -4.2720 H   0  0  0  0  0  0
   24.4834  -16.2069   -6.3478 H   0  0  0  0  0  0
   26.6945  -14.7893   -4.7563 H   0  0  0  0  0  0
   27.0146  -15.8572   -6.1648 H   0  0  0  0  0  0
   25.3068  -13.3624   -8.4169 H   0  0  0  0  0  0
   24.9326  -16.1713   -2.8796 H   0  0  0  0  0  0
   26.4694  -18.6418   -2.6893 H   0  0  0  0  0  0
   26.3086  -17.2644   -0.7230 H   0  0  0  0  0  0
   24.5173  -17.1823   -0.8298 H   0  0  0  0  0  0
   27.2124  -19.7765   -0.4588 H   0  0  0  0  0  0
   23.3383  -18.3649    0.6900 H   0  0  0  0  0  0
   27.0336  -21.6201    1.1848 H   0  0  0  0  0  0
   23.1477  -20.1978    2.3281 H   0  0  0  0  0  0
   24.9939  -21.8318    2.5838 H   0  0  0  0  0  0
   22.9616  -17.9410   -2.8511 H   0  0  0  0  0  0
   22.3364  -20.8306   -2.4431 H   0  0  0  0  0  0
   20.5354  -18.5473   -3.4756 H   0  0  0  0  0  0
   19.9687  -20.1357   -2.8572 H   0  0  0  0  0  0
   21.2414  -17.9572   -1.2014 H   0  0  0  0  0  0
   19.0224  -17.3844   -2.1930 H   0  0  0  0  0  0
   18.9176  -17.6482   -0.4193 H   0  0  0  0  0  0
   18.3548  -18.9238   -1.5519 H   0  0  0  0  0  0
   21.6306  -20.2048   -0.3123 H   0  0  0  0  0  0
   19.8775  -20.5699   -0.4545 H   0  0  0  0  0  0
   20.4403  -19.2943    0.6781 H   0  0  0  0  0  0
   22.7600  -18.5275   -5.0870 H   0  0  0  0  0  0
   21.5617  -20.3011   -7.1112 H   0  0  0  0  0  0
   22.6102  -17.6336   -6.9605 H   0  0  0  0  0  0
   23.6024  -18.4612   -8.2084 H   0  0  0  0  0  0
   21.6455  -17.2214   -9.0962 H   0  0  0  0  0  0
   21.6537  -18.9699   -9.5079 H   0  0  0  0  0  0
   18.3112  -20.1264   -8.4815 H   0  0  0  0  0  0
   20.0011  -20.7273   -8.5805 H   0  0  0  0  0  0
   19.3280  -19.7173   -9.9047 H   0  0  0  0  0  0
   24.1854  -20.8399   -5.2597 H   0  0  0  0  0  0
   26.0415  -21.6227   -7.4089 H   0  0  0  0  0  0
   25.9203  -22.2991   -4.4068 H   0  0  0  0  0  0
   27.2811  -22.8088   -5.4628 H   0  0  0  0  0  0
   27.6013  -20.3686   -6.0235 H   0  0  0  0  0  0
   26.4353  -20.0050   -4.7063 H   0  0  0  0  0  0
   28.7981  -21.3521   -2.1655 H   0  0  0  0  0  0
   26.5812  -23.4756   -8.3516 H   0  0  0  0  0  0
   24.5729  -25.7051   -7.7683 H   0  0  0  0  0  0
   24.6748  -24.6508  -10.1025 H   0  0  0  0  0  0
   26.3384  -25.3100  -10.2584 H   0  0  0  0  0  0
   25.0146  -28.7900  -10.3679 H   0  0  0  0  0  0
   28.5058  -27.0707   -8.0886 H   0  0  0  0  0  0
  1  2  1  0  0  0
  1111  1  0  0  0
  1112  1  0  0  0
  1113  1  0  0  0
  2  3  1  0  0  0
  2  5  1  0  0  0
  2114  1  0  0  0
  3  4  2  0  0  0
  3  7  1  0  0  0
  5  6  1  0  0  0
  5115  1  0  0  0
  5116  1  0  0  0
  6117  1  0  0  0
  7  8  1  0  0  0
  7118  1  0  0  0
  8  9  1  0  0  0
  8 11  1  0  0  0
  8119  1  0  0  0
  9 10  2  0  0  0
  9 18  1  0  0  0
 11 12  1  0  0  0
 11120  1  0  0  0
 11121  1  0  0  0
 12 13  1  0  0  0
 12122  1  0  0  0
 12123  1  0  0  0
 13 14  1  0  0  0
 13124  1  0  0  0
 13125  1  0  0  0
 14 15  1  0  0  0
 14126  1  0  0  0
 15 16  1  0  0  0
 15 17  2  0  0  0
 16127  1  0  0  0
 16128  1  0  0  0
 17129  1  0  0  0
 18 19  1  0  0  0
 18130  1  0  0  0
 19 20  1  0  0  0
 19 22  1  0  0  0
 19131  1  0  0  0
 20 21  2  0  0  0
 20 25  1  0  0  0
 22 23  1  0  0  0
 22 24  1  0  0  0
 22132  1  0  0  0
 23133  1  0  0  0
 23134  1  0  0  0
 23135  1  0  0  0
 24136  1  0  0  0
 24137  1  0  0  0
 24138  1  0  0  0
 25 26  1  0  0  0
 25139  1  0  0  0
 26 27  1  0  0  0
 26 29  1  0  0  0
 26140  1  0  0  0
 27 28  2  0  0  0
 27 32  1  0  0  0
 29 30  1  0  0  0
 29 31  1  0  0  0
 29141  1  0  0  0
 30142  1  0  0  0
 31143  1  0  0  0
 31144  1  0  0  0
 31145  1  0  0  0
 32 33  1  0  0  0
 32146  1  0  0  0
 33 34  1  0  0  0
 33 36  1  0  0  0
 33147  1  0  0  0
 34 35  2  0  0  0
 34 46  1  0  0  0
 36 37  1  0  0  0
 36148  1  0  0  0
 36149  1  0  0  0
 37 38  2  0  0  0
 37 39  1  0  0  0
 38 40  1  0  0  0
 38150  1  0  0  0
 39 41  2  0  0  0
 39 42  1  0  0  0
 40 41  1  0  0  0
 41 43  1  0  0  0
 42 44  2  0  0  0
 42151  1  0  0  0
 43 45  2  0  0  0
 43152  1  0  0  0
 44 45  1  0  0  0
 44153  1  0  0  0
 45154  1  0  0  0
 46 47  1  0  0  0
 46155  1  0  0  0
 47 48  1  0  0  0
 47 50  1  0  0  0
 47156  1  0  0  0
 48 49  2  0  0  0
 48 58  1  0  0  0
 50 51  1  0  0  0
 50157  1  0  0  0
 50158  1  0  0  0
 51 52  2  0  0  0
 51 53  1  0  0  0
 52 54  1  0  0  0
 52159  1  0  0  0
 53 55  2  0  0  0
 53160  1  0  0  0
 54 56  2  0  0  0
 54161  1  0  0  0
 55 56  1  0  0  0
 55162  1  0  0  0
 56 57  1  0  0  0
 57163  1  0  0  0
 58 59  1  0  0  0
 58164  1  0  0  0
 59 60  1  0  0  0
 59 62  1  0  0  0
 59165  1  0  0  0
 60 61  2  0  0  0
 60 66  1  0  0  0
 62 63  1  0  0  0
 62166  1  0  0  0
 62167  1  0  0  0
 63 64  1  0  0  0
 63 65  2  0  0  0
 64168  1  0  0  0
 66 67  1  0  0  0
 66169  1  0  0  0
 67 68  1  0  0  0
 67 70  1  0  0  0
 67170  1  0  0  0
 68 69  2  0  0  0
 68 77  1  0  0  0
 70 71  1  0  0  0
 70171  1  0  0  0
 70172  1  0  0  0
 71 72  2  0  0  0
 71 73  1  0  0  0
 72 74  1  0  0  0
 72173  1  0  0  0
 73 75  2  0  0  0
 73174  1  0  0  0
 74 76  2  0  0  0
 74175  1  0  0  0
 75 76  1  0  0  0
 75176  1  0  0  0
 76177  1  0  0  0
 77 78  1  0  0  0
 77178  1  0  0  0
 78 79  1  0  0  0
 78 81  1  0  0  0
 78179  1  0  0  0
 79 80  2  0  0  0
 79 85  1  0  0  0
 81 82  1  0  0  0
 81180  1  0  0  0
 81181  1  0  0  0
 82 83  1  0  0  0
 82 84  1  0  0  0
 82182  1  0  0  0
 83183  1  0  0  0
 83184  1  0  0  0
 83185  1  0  0  0
 84186  1  0  0  0
 84187  1  0  0  0
 84188  1  0  0  0
 85 86  1  0  0  0
 85189  1  0  0  0
 86 87  1  0  0  0
 86 89  1  0  0  0
 86190  1  0  0  0
 87 88  2  0  0  0
 87 93  1  0  0  0
 89 90  1  0  0  0
 89191  1  0  0  0
 89192  1  0  0  0
 90 91  1  0  0  0
 90193  1  0  0  0
 90194  1  0  0  0
 91 92  1  0  0  0
 92195  1  0  0  0
 92196  1  0  0  0
 92197  1  0  0  0
 93 94  1  0  0  0
 93198  1  0  0  0
 94 95  1  0  0  0
 94 97  1  0  0  0
 94199  1  0  0  0
 95 96  2  0  0  0
 95102  1  0  0  0
 97 98  1  0  0  0
 97200  1  0  0  0
 97201  1  0  0  0
 98 99  1  0  0  0
 98202  1  0  0  0
 98203  1  0  0  0
 99100  1  0  0  0
 99101  2  0  0  0
100204  1  0  0  0
102103  1  0  0  0
102205  1  0  0  0
103104  1  0  0  0
103106  1  0  0  0
103206  1  0  0  0
104105  2  0  0  0
104110  1  0  0  0
106107  1  0  0  0
106207  1  0  0  0
106208  1  0  0  0
107108  1  0  0  0
107109  2  0  0  0
108209  1  0  0  0
110210  1  0  0  0
M  CHG  1   1   1
M  END
> <s_m_source_file>
../1y3a_ligand.sdf

> <i_m_source_file_index>
1

> <s_epik_input>
W0hdL049QyhbTkgyXSlcW05IXVtDSDJdW0NIMl1bQ0gyXVtDQEhdKFtOSF1DKD1PKVtDQEBIXShbTkgzK10pW0NIMl1bT0hdKUMoPU8pW05IXVtDQEBIXShbQ0hdKFtDSDNdKVtDSDNdKUMoPU8pW05IXVtDQEBIXShbQ0BIXShbT0hdKVtDSDNdKUMoPU8pW05IXVtDQEBIXShbQ0gyXWMxW2NIXVtuSF1jKGMxMilbY0hdW2NIXVtjSF1bY0hdMilDKD1PKVtOSF1bQ0BASF0oW0NIMl1jM1tjSF1bY0hdYyhbT0hdKVtjSF1bY0hdMylDKD1PKVtOSF1bQ0BASF0oW0NIMl1DKD1PKVtPSF0pQyg9TylbTkhdW0NAQEhdKFtDSDJdYzRbY0hdW2NIXVtjSF1bY0hdW2NIXTQpQyg9TylbTkhdW0NAQEhdKFtDSDJdW0NIXShbQ0gzXSlbQ0gzXSlDKD1PKVtOSF1bQ0BASF0oW0NIMl1bQ0gyXVNbQ0gzXSlDKD1PKVtOSF1bQ0BASF0oW0NIMl1bQ0gyXUMoPU8pW09IXSlDKD1PKVtOSF1bQ0BIXShDKD1PKVtPSF0pW0NIMl1DKD1PKVtPSF0=

> <s_epik_cmdline>
J2VwaWtfYXBwJywgJy1pbWFlJywgJ2xpZ2FuZF9wcm8ubWFlJywgJy1vbWFlJywgJ2xpZ2FuZF9wcmVwLm1hZScsICctbXMnLCAnMScsICctcGgnLCAnNycsICctcGh0JywgJzAuNScsICctbnQn

> <s_epik_pKa_notes>
Molecule size exceeds maximum supported for generating protonation states

> <s_epik_Chemistry_Notes>
This compound has an imine and may undergo hydrolysis.

$$$$
