1y3g_ligand
                    3D
 Schrodinger Suite 2020-3.
 69 69  0  0  1  0            999 V2000
   33.5740   38.3390   -7.3140 C   0  0  0  0  0  0
   34.2780   37.9180   -8.2260 O   0  0  0  0  0  0
   32.3320   37.5790   -6.8510 C   0  0  0  0  0  0
   31.7670   36.6130   -7.9030 C   0  0  0  0  0  0
   31.2790   37.2990   -9.1630 C   0  0  0  0  0  0
   29.9780   37.7270   -9.2740 C   0  0  0  0  0  0
   29.5400   38.3580  -10.4500 C   0  0  0  0  0  0
   30.3940   38.5660  -11.4810 C   0  0  0  0  0  0
   31.6770   38.1400  -11.3870 C   0  0  0  0  0  0
   32.1330   37.5030  -10.2230 C   0  0  0  0  0  0
   33.8310   39.4760   -6.6770 N   0  0  0  0  0  0
   34.9690   40.3030   -7.0270 C   0  0  0  0  0  0
   35.1320   41.8370   -6.0210 Si  0  0  0  0  0  0
   36.5590   42.5110   -6.4570 O   0  0  0  0  0  0
   33.9020   42.8650   -6.3510 O   0  0  0  0  0  0
   35.1470   41.5070   -4.1980 C   0  0  0  0  0  0
   36.4240   41.9170   -3.4250 C   0  0  2  0  0  0
   37.7300   41.1950   -3.7450 C   0  0  0  0  0  0
   38.8140   41.7940   -3.7770 O   0  0  0  0  0  0
   36.1680   41.9430   -1.9260 C   0  0  0  0  0  0
   37.3450   42.5010   -1.1340 C   0  0  0  0  0  0
   37.4160   44.0230   -1.2980 C   0  0  0  0  0  0
   37.1760   42.1430    0.3350 C   0  0  0  0  0  0
   37.6190   39.8890   -3.9520 N   0  0  0  0  0  0
   38.7760   39.0650   -4.2550 C   0  0  2  0  0  0
   38.4390   37.9670   -5.2420 C   0  0  0  0  0  0
   37.2240   37.7700   -5.5120 O   0  5  0  0  0  0
   39.4430   38.4920   -2.9850 C   0  0  0  0  0  0
   38.5760   37.4890   -2.2380 C   0  0  0  0  0  0
   37.5350   38.2240   -1.4170 C   0  0  0  0  0  0
   39.4430   36.6570   -1.3110 C   0  0  0  0  0  0
   39.3950   37.3570   -5.7700 O   0  0  0  0  0  0
   32.5779   36.9830   -5.9598 H   0  0  0  0  0  0
   31.5345   38.2953   -6.6044 H   0  0  0  0  0  0
   32.5481   35.8984   -8.2017 H   0  0  0  0  0  0
   30.9130   36.0658   -7.4773 H   0  0  0  0  0  0
   29.2839   37.5764   -8.4472 H   0  0  0  0  0  0
   28.5031   38.6834  -10.5339 H   0  0  0  0  0  0
   30.0506   39.0738  -12.3822 H   0  0  0  0  0  0
   32.3602   38.2934  -12.2223 H   0  0  0  0  0  0
   33.1682   37.1682  -10.1579 H   0  0  0  0  0  0
   33.1551   39.7851   -5.8661 H   0  0  0  0  0  0
   35.8965   39.7281   -6.8883 H   0  0  0  0  0  0
   34.8854   40.6159   -8.0782 H   0  0  0  0  0  0
   36.7416   42.7808   -7.5077 H   0  0  0  0  0  0
   33.7193   43.1898   -7.3860 H   0  0  0  0  0  0
   34.3211   42.0539   -3.7196 H   0  0  0  0  0  0
   35.0246   40.4285   -4.0196 H   0  0  0  0  0  0
   36.6321   42.9310   -3.7972 H   0  0  0  0  0  0
   35.2921   42.5739   -1.7145 H   0  0  0  0  0  0
   35.9780   40.9202   -1.5687 H   0  0  0  0  0  0
   38.2788   42.0572   -1.5097 H   0  0  0  0  0  0
   37.5381   44.2718   -2.3625 H   0  0  0  0  0  0
   38.2730   44.4134   -0.7296 H   0  0  0  0  0  0
   36.4879   44.4762   -0.9196 H   0  0  0  0  0  0
   37.1261   41.0494    0.4425 H   0  0  0  0  0  0
   36.2473   42.5918    0.7173 H   0  0  0  0  0  0
   38.0324   42.5290    0.9073 H   0  0  0  0  0  0
   36.6200   39.4328   -3.8894 H   0  0  0  0  0  0
   39.4647   39.7704   -4.7430 H   0  0  0  0  0  0
   40.3753   37.9774   -3.2608 H   0  0  0  0  0  0
   39.6694   39.3122   -2.2878 H   0  0  0  0  0  0
   38.0737   36.8323   -2.9636 H   0  0  0  0  0  0
   36.9029   38.8293   -2.0834 H   0  0  0  0  0  0
   38.0371   38.8808   -0.6914 H   0  0  0  0  0  0
   36.9097   37.4952   -0.8805 H   0  0  0  0  0  0
   40.2009   36.1208   -1.9009 H   0  0  0  0  0  0
   38.8145   35.9308   -0.7747 H   0  0  0  0  0  0
   39.9419   37.3164   -0.5856 H   0  0  0  0  0  0
  1  2  2  0  0  0
  1  3  1  0  0  0
  1 11  1  0  0  0
  3  4  1  0  0  0
  3 33  1  0  0  0
  3 34  1  0  0  0
  4  5  1  0  0  0
  4 35  1  0  0  0
  4 36  1  0  0  0
  5  6  2  0  0  0
  5 10  1  0  0  0
  6  7  1  0  0  0
  6 37  1  0  0  0
  7  8  2  0  0  0
  7 38  1  0  0  0
  8  9  1  0  0  0
  8 39  1  0  0  0
  9 10  2  0  0  0
  9 40  1  0  0  0
 10 41  1  0  0  0
 11 12  1  0  0  0
 11 42  1  0  0  0
 12 13  1  0  0  0
 12 43  1  0  0  0
 12 44  1  0  0  0
 13 14  1  0  0  0
 13 15  1  0  0  0
 13 16  1  0  0  0
 14 45  1  0  0  0
 15 46  1  0  0  0
 16 17  1  0  0  0
 16 47  1  0  0  0
 16 48  1  0  0  0
 17 18  1  0  0  0
 17 20  1  0  0  0
 17 49  1  0  0  0
 18 19  2  0  0  0
 18 24  1  0  0  0
 20 21  1  0  0  0
 20 50  1  0  0  0
 20 51  1  0  0  0
 21 22  1  0  0  0
 21 23  1  0  0  0
 21 52  1  0  0  0
 22 53  1  0  0  0
 22 54  1  0  0  0
 22 55  1  0  0  0
 23 56  1  0  0  0
 23 57  1  0  0  0
 23 58  1  0  0  0
 24 25  1  0  0  0
 24 59  1  0  0  0
 25 26  1  0  0  0
 25 28  1  0  0  0
 25 60  1  0  0  0
 26 27  1  0  0  0
 26 32  2  0  0  0
 28 29  1  0  0  0
 28 61  1  0  0  0
 28 62  1  0  0  0
 29 30  1  0  0  0
 29 31  1  0  0  0
 29 63  1  0  0  0
 30 64  1  0  0  0
 30 65  1  0  0  0
 30 66  1  0  0  0
 31 67  1  0  0  0
 31 68  1  0  0  0
 31 69  1  0  0  0
M  CHG  1  27  -1
M  END
> <s_m_source_file>
../1y3g_ligand.sdf

> <i_m_source_file_index>
1

> <s_epik_input>
W2NIXTFbY0hdW2NIXVtjSF1bY0hdYzFbQ0gyXVtDSDJdQyg9TylbTkhdW0NIMl1bU2ldKFtPSF0pKFtPSF0pW0NIMl1bQ0BASF0oW0NIMl1bQ0hdKFtDSDNdKVtDSDNdKUMoPU8pW05IXVtDQEhdKEMoPU8pW09IXSlbQ0gyXVtDSF0oW0NIM10pW0NIM10=

> <s_epik_cmdline>
J2VwaWtfYXBwJywgJy1pbWFlJywgJ2xpZ2FuZF9wcm8ubWFlJywgJy1vbWFlJywgJ2xpZ2FuZF9wcmVwLm1hZScsICctbXMnLCAnMScsICctcGgnLCAnNycsICctcGh0JywgJzAuNScsICctbnQn

> <r_lp_tautomer_probability>
1

> <r_epik_Ionization_Penalty>
  0.0002

> <r_epik_Ionization_Penalty_Charging>
  0.0002

> <r_epik_Ionization_Penalty_Neutral>
  0.0000

> <r_epik_State_Penalty>
 -0.0000

> <r_epik_Charging_Adjusted_Penalty>
0.000234119534384113

> <i_epik_Tot_Q>
-1

> <i_epik_Tot_abs_Q>
1

$$$$
