1y3n_ligand
                    3D
 Schrodinger Suite 2020-3.
 38 39  0  0  1  0            999 V2000
  -14.7140   -8.1860   24.9430 C   0  0  1  0  0  0
  -13.1820   -8.0830   24.9120 C   0  0  1  0  0  0
  -12.7880   -6.7860   25.3210 O   0  0  0  0  0  0
  -12.6140   -9.0900   25.8690 C   0  0  1  0  0  0
  -11.1880   -9.1130   25.8680 O   0  0  0  0  0  0
  -13.2830   -9.2040   27.1900 C   0  0  0  0  0  0
  -14.6870   -8.9270   27.2730 C   0  0  0  0  0  0
  -15.2290   -8.0450   26.2840 O   0  0  0  0  0  0
  -15.2500   -8.7510   28.5800 C   0  0  0  0  0  0
  -16.0910   -7.8330   28.7200 O   0  5  0  0  0  0
  -14.8600   -9.4670   29.5180 O   0  0  0  0  0  0
  -18.7700   -5.9440   22.3480 C   0  0  2  0  0  0
  -18.8900   -6.3390   23.8300 C   0  0  1  0  0  0
  -19.4980   -7.6150   23.9400 O   0  0  0  0  0  0
  -17.5160   -6.3640   24.5120 C   0  0  1  0  0  0
  -17.6460   -6.9140   25.8160 O   0  0  0  0  0  0
  -16.5360   -7.2050   23.6860 C   0  0  2  0  0  0
  -15.2140   -7.1080   24.2340 O   0  0  0  0  0  0
  -16.4930   -6.6840   22.2610 C   0  0  2  0  0  0
  -17.8050   -6.7720   21.6710 O   0  0  0  0  0  0
  -15.4760   -7.4500   21.4330 C   0  0  0  0  0  0
  -14.2690   -7.1340   21.5530 O   0  5  0  0  0  0
  -15.8700   -8.3760   20.6930 O   0  0  0  0  0  0
  -18.3570   -4.6250   22.2500 O   0  0  0  0  0  0
  -15.0829   -9.1294   24.5141 H   0  0  0  0  0  0
  -12.7696   -8.2183   23.9012 H   0  0  0  0  0  0
  -13.1073   -5.9063   24.7429 H   0  0  0  0  0  0
  -12.8302  -10.0854   25.4537 H   0  0  0  0  0  0
  -10.6373   -9.0323   24.9192 H   0  0  0  0  0  0
  -12.7252   -9.4937   28.0928 H   0  0  0  0  0  0
  -19.7268   -6.0170   21.8103 H   0  0  0  0  0  0
  -19.5654   -5.6483   24.3560 H   0  0  0  0  0  0
  -20.4941   -7.7888   23.5070 H   0  0  0  0  0  0
  -17.1258   -5.3468   24.6639 H   0  0  0  0  0  0
  -18.3125   -6.4375   26.5500 H   0  0  0  0  0  0
  -16.8165   -8.2680   23.7232 H   0  0  0  0  0  0
  -16.2304   -5.6158   22.2556 H   0  0  0  0  0  0
  -18.9593   -3.8248   22.7050 H   0  0  0  0  0  0
  1  2  1  0  0  0
  1  8  1  0  0  0
  1 18  1  0  0  0
  1 25  1  0  0  0
  2  3  1  0  0  0
  2  4  1  0  0  0
  2 26  1  0  0  0
  3 27  1  0  0  0
  4  5  1  0  0  0
  4  6  1  0  0  0
  4 28  1  0  0  0
  5 29  1  0  0  0
  6  7  2  0  0  0
  6 30  1  0  0  0
  7  8  1  0  0  0
  7  9  1  0  0  0
  9 10  1  0  0  0
  9 11  2  0  0  0
 12 13  1  0  0  0
 12 20  1  0  0  0
 12 24  1  0  0  0
 12 31  1  0  0  0
 13 14  1  0  0  0
 13 15  1  0  0  0
 13 32  1  0  0  0
 14 33  1  0  0  0
 15 16  1  0  0  0
 15 17  1  0  0  0
 15 34  1  0  0  0
 16 35  1  0  0  0
 17 18  1  0  0  0
 17 19  1  0  0  0
 17 36  1  0  0  0
 19 20  1  0  0  0
 19 21  1  0  0  0
 19 37  1  0  0  0
 21 22  1  0  0  0
 21 23  2  0  0  0
 24 38  1  0  0  0
M  CHG  2  10  -1  22  -1
M  END
> <s_m_source_file>
../1y3n_ligand.sdf

> <i_m_source_file_index>
1

> <s_epik_input>
W09IXVtDQEBIXTFbQ0BASF0oW09IXSlbQ0BASF0oW09IXSlbQ0BASF0oW0NASF0oTzEpQyg9TylbT0hdKU9bQ0BIXTJbQ0BASF0oW09IXSlbQ0BASF0oW09IXSlbQ0hdPUMoTzIpQyg9TylbT0hd

> <s_epik_cmdline>
J2VwaWtfYXBwJywgJy1pbWFlJywgJ2xpZ2FuZF9wcm8ubWFlJywgJy1vbWFlJywgJ2xpZ2FuZF9wcmVwLm1hZScsICctbXMnLCAnMScsICctcGgnLCAnNycsICctcGh0JywgJzAuNScsICctbnQn

> <r_lp_tautomer_probability>
1

> <r_epik_Ionization_Penalty>
  0.0003

> <r_epik_Ionization_Penalty_Charging>
  0.0003

> <r_epik_Ionization_Penalty_Neutral>
  0.0000

> <r_epik_State_Penalty>
 -0.0000

> <r_epik_Charging_Adjusted_Penalty>
0.000276107784463965

> <i_epik_Tot_Q>
-2

> <i_epik_Tot_abs_Q>
2

> <s_epik_Chemistry_Notes>
This compound contains an acetal/aminal-like group ( X-CH(R)-Y where X, Y are N, S, or O) that may be acid/base labile, releasing an aldehyde.

$$$$
