1y3p_ligand
                    3D
 Schrodinger Suite 2020-3.
 76 79  0  0  1  0            999 V2000
  -11.8890   -9.3790   -6.1680 C   0  0  1  0  0  0
  -10.3480   -9.3550   -6.2280 C   0  0  1  0  0  0
   -9.9030   -8.0540   -5.8990 O   0  0  0  0  0  0
   -9.8100  -10.3360   -5.2230 C   0  0  1  0  0  0
   -8.3880  -10.4310   -5.2180 O   0  0  0  0  0  0
  -10.4920  -10.4130   -3.9040 C   0  0  0  0  0  0
  -11.8890  -10.1160   -3.8520 C   0  0  0  0  0  0
  -12.3630   -9.1730   -4.8200 O   0  0  0  0  0  0
  -12.4940  -10.0040   -2.5570 C   0  0  0  0  0  0
  -13.3820   -9.1420   -2.4080 O   0  5  0  0  0  0
  -12.1110  -10.7620   -1.6450 O   0  0  0  0  0  0
  -15.7150   -6.8220   -8.8210 C   0  0  1  0  0  0
  -15.9840   -7.3680   -7.4120 C   0  0  1  0  0  0
  -16.6880   -8.5970   -7.5000 O   0  0  0  0  0  0
  -14.6550   -7.5760   -6.6660 C   0  0  1  0  0  0
  -14.8850   -8.2530   -5.4410 O   0  0  0  0  0  0
  -13.6430   -8.3750   -7.5100 C   0  0  2  0  0  0
  -12.3460   -8.3010   -6.8990 O   0  0  0  0  0  0
  -13.5290   -7.7730   -8.9020 C   0  0  2  0  0  0
  -14.8300   -7.7000   -9.5100 O   0  0  0  0  0  0
  -12.5630   -8.5400   -9.7800 C   0  0  0  0  0  0
  -13.0140   -9.4090  -10.5570 O   0  0  0  0  0  0
  -11.3460   -8.2720   -9.6730 O   0  5  0  0  0  0
  -19.1050   -6.3900  -12.3870 C   0  0  1  0  0  0
  -17.9380   -7.3750  -12.3110 C   0  0  1  0  0  0
  -17.7800   -8.0210  -13.5640 O   0  0  0  0  0  0
  -16.6430   -6.6460  -11.9390 C   0  0  1  0  0  0
  -16.2340   -5.8110  -13.0140 O   0  0  0  0  0  0
  -16.8310   -5.7980  -10.6760 C   0  0  2  0  0  0
  -16.9180   -6.6360   -9.5060 O   0  0  0  0  0  0
  -18.0780   -4.9070  -10.7700 C   0  0  1  0  0  0
  -19.2440   -5.6910  -11.1360 O   0  0  0  0  0  0
  -18.3370   -4.2160   -9.4410 C   0  0  0  0  0  0
  -19.4960   -4.2360   -8.9750 O   0  0  0  0  0  0
  -17.3730   -3.6760   -8.8540 O   0  5  0  0  0  0
  -21.0680   -3.1610  -16.1010 C   0  0  2  0  0  0
  -20.8450   -2.5420  -14.7250 C   0  0  1  0  0  0
  -22.0340   -2.6980  -13.9590 O   0  0  0  0  0  0
  -19.6940   -3.2770  -14.0380 C   0  0  1  0  0  0
  -19.4720   -2.7370  -12.7430 O   0  0  0  0  0  0
  -20.0290   -4.7660  -13.9290 C   0  0  2  0  0  0
  -18.8820   -5.4680  -13.4040 O   0  0  0  0  0  0
  -20.3920   -5.3280  -15.3200 C   0  0  2  0  0  0
  -21.4340   -4.5350  -15.9410 O   0  0  0  0  0  0
  -20.8530   -6.7680  -15.2580 C   0  0  0  0  0  0
  -22.0840   -6.9820  -15.2070 O   0  0  0  0  0  0
  -19.9920   -7.6750  -15.2740 O   0  5  0  0  0  0
  -19.8960   -3.1080  -16.8420 O   0  0  0  0  0  0
  -12.3227  -10.3091   -6.5641 H   0  0  0  0  0  0
   -9.9469   -9.5678   -7.2299 H   0  0  0  0  0  0
  -10.1968   -7.1978   -6.5240 H   0  0  0  0  0  0
  -10.0589  -11.3328   -5.6160 H   0  0  0  0  0  0
   -7.8301  -10.3803   -6.1646 H   0  0  0  0  0  0
   -9.9537  -10.6886   -2.9851 H   0  0  0  0  0  0
  -15.2439   -5.8284   -8.8491 H   0  0  0  0  0  0
  -16.6536   -6.7007   -6.8495 H   0  0  0  0  0  0
  -17.6648   -8.6364   -8.0042 H   0  0  0  0  0  0
  -14.2338   -6.5995   -6.3849 H   0  0  0  0  0  0
  -15.5830   -7.8319   -4.7025 H   0  0  0  0  0  0
  -13.9300   -9.4359   -7.5553 H   0  0  0  0  0  0
  -13.1697   -6.7360   -8.8268 H   0  0  0  0  0  0
  -20.0625   -6.8768  -12.6243 H   0  0  0  0  0  0
  -18.1531   -8.1784  -11.5911 H   0  0  0  0  0  0
  -18.6121   -8.5977  -13.9943 H   0  0  0  0  0  0
  -15.8273   -7.3706  -11.7992 H   0  0  0  0  0  0
  -16.0488   -6.2449  -14.0077 H   0  0  0  0  0  0
  -15.9352   -5.1766  -10.5298 H   0  0  0  0  0  0
  -17.9434   -4.1631  -11.5691 H   0  0  0  0  0  0
  -21.8340   -2.6384  -16.6928 H   0  0  0  0  0  0
  -20.6579   -1.4594  -14.7802 H   0  0  0  0  0  0
  -22.9721   -2.2352  -14.2992 H   0  0  0  0  0  0
  -18.7474   -3.1167  -14.5749 H   0  0  0  0  0  0
  -19.2180   -1.6730  -12.6269 H   0  0  0  0  0  0
  -20.8490   -4.9309  -13.2145 H   0  0  0  0  0  0
  -19.5051   -5.2619  -15.9673 H   0  0  0  0  0  0
  -19.4396   -2.1360  -17.0805 H   0  0  0  0  0  0
  1  2  1  0  0  0
  1  8  1  0  0  0
  1 18  1  0  0  0
  1 49  1  0  0  0
  2  3  1  0  0  0
  2  4  1  0  0  0
  2 50  1  0  0  0
  3 51  1  0  0  0
  4  5  1  0  0  0
  4  6  1  0  0  0
  4 52  1  0  0  0
  5 53  1  0  0  0
  6  7  2  0  0  0
  6 54  1  0  0  0
  7  8  1  0  0  0
  7  9  1  0  0  0
  9 10  1  0  0  0
  9 11  2  0  0  0
 12 13  1  0  0  0
 12 20  1  0  0  0
 12 30  1  0  0  0
 12 55  1  0  0  0
 13 14  1  0  0  0
 13 15  1  0  0  0
 13 56  1  0  0  0
 14 57  1  0  0  0
 15 16  1  0  0  0
 15 17  1  0  0  0
 15 58  1  0  0  0
 16 59  1  0  0  0
 17 18  1  0  0  0
 17 19  1  0  0  0
 17 60  1  0  0  0
 19 20  1  0  0  0
 19 21  1  0  0  0
 19 61  1  0  0  0
 21 22  2  0  0  0
 21 23  1  0  0  0
 24 25  1  0  0  0
 24 32  1  0  0  0
 24 42  1  0  0  0
 24 62  1  0  0  0
 25 26  1  0  0  0
 25 27  1  0  0  0
 25 63  1  0  0  0
 26 64  1  0  0  0
 27 28  1  0  0  0
 27 29  1  0  0  0
 27 65  1  0  0  0
 28 66  1  0  0  0
 29 30  1  0  0  0
 29 31  1  0  0  0
 29 67  1  0  0  0
 31 32  1  0  0  0
 31 33  1  0  0  0
 31 68  1  0  0  0
 33 34  2  0  0  0
 33 35  1  0  0  0
 36 37  1  0  0  0
 36 44  1  0  0  0
 36 48  1  0  0  0
 36 69  1  0  0  0
 37 38  1  0  0  0
 37 39  1  0  0  0
 37 70  1  0  0  0
 38 71  1  0  0  0
 39 40  1  0  0  0
 39 41  1  0  0  0
 39 72  1  0  0  0
 40 73  1  0  0  0
 41 42  1  0  0  0
 41 43  1  0  0  0
 41 74  1  0  0  0
 43 44  1  0  0  0
 43 45  1  0  0  0
 43 75  1  0  0  0
 45 46  2  0  0  0
 45 47  1  0  0  0
 48 76  1  0  0  0
M  CHG  4  10  -1  23  -1  35  -1  47  -1
M  END
> <s_m_source_file>
../1y3p_ligand.sdf

> <i_m_source_file_index>
1

> <s_epik_input>
W09IXUMoPU8pQyhPMSk9W0NIXVtDQEhdKFtPSF0pW0NASF0oW09IXSlbQ0BASF0xT1tDQEhdKFtDQEhdKE8yKUMoPU8pW09IXSlbQ0BIXShbT0hdKVtDQEhdKFtPSF0pW0NAQEhdMk9bQ0BIXShbQ0BASF0oTzMpQyg9TylbT0hdKVtDQEhdKFtPSF0pW0NASF0oW09IXSlbQ0BASF0zT1tDQEhdKFtDQEhdKE80KUMoPU8pW09IXSlbQ0BIXShbT0hdKVtDQEhdKFtPSF0pW0NASF00W09IXQ==

> <s_epik_cmdline>
J2VwaWtfYXBwJywgJy1pbWFlJywgJ2xpZ2FuZF9wcm8ubWFlJywgJy1vbWFlJywgJ2xpZ2FuZF9wcmVwLm1hZScsICctbXMnLCAnMScsICctcGgnLCAnNycsICctcGh0JywgJzAuNScsICctbnQn

> <r_lp_tautomer_probability>
1

> <r_epik_Ionization_Penalty>
  0.0004

> <r_epik_Ionization_Penalty_Charging>
  0.0004

> <r_epik_Ionization_Penalty_Neutral>
  0.0000

> <r_epik_State_Penalty>
 -0.0000

> <r_epik_Charging_Adjusted_Penalty>
0.000362869784932314

> <i_epik_Tot_Q>
-4

> <i_epik_Tot_abs_Q>
4

> <s_epik_Chemistry_Notes>
This compound contains an acetal/aminal-like group ( X-CH(R)-Y where X, Y are N, S, or O) that may be acid/base labile, releasing an aldehyde.

$$$$
