1y3v_ligand
                    3D
 Schrodinger Suite 2020-3.
 66 72  0  0  1  0            999 V2000
   -5.0050    9.5760   19.7650 N   0  3  0  0  0  0
   -3.7030    9.3060   19.6770 C   0  0  0  0  0  0
   -3.1170    8.0720   20.1150 C   0  0  0  0  0  0
   -3.8920    7.0540   20.7060 C   0  0  0  0  0  0
   -3.2920    5.8550   21.1510 C   0  0  0  0  0  0
   -1.9090    5.6490   21.0040 C   0  0  0  0  0  0
   -1.1910    4.4450   21.5740 C   0  0  2  0  0  0
   -2.1760    3.3050   21.5640 N   0  3  1  0  0  0
   -2.4460    2.8260   20.1660 C   0  0  0  0  0  0
   -1.5110    1.6200   19.9570 C   0  0  0  0  0  0
   -0.7340    1.3720   21.2340 C   0  0  0  0  0  0
   -1.4180    2.2270   22.3140 C   0  0  1  0  0  0
   -0.3090    2.9280   23.1680 C   0  0  2  0  0  0
    0.4940    2.7300   25.7200 C   0  0  0  0  0  0
   -0.6240    2.6950   24.6950 C   0  0  1  0  0  0
    0.2860    1.8040   26.9260 C   0  0  0  0  0  0
    1.2960    1.4090   25.8160 C   0  0  0  0  0  0
   -1.6440    3.6600   24.9970 N   0  0  0  0  0  0
   -1.7000    4.6950   24.0870 C   0  0  0  0  0  0
   -2.5800    5.6260   24.1040 O   0  0  0  0  0  0
   -0.6290    4.4520   23.0030 C   0  0  2  0  0  0
   -2.7190    3.6930   26.0810 C   0  0  0  0  0  0
   -2.5080    4.8160   27.1010 C   0  0  0  0  0  0
   -1.3270    4.8670   27.8580 C   0  0  0  0  0  0
   -1.2080    5.9140   28.8680 C   0  0  0  0  0  0
   -0.1330    6.1430   29.7330 O   0  0  0  0  0  0
   -0.5430    7.3060   30.5080 C   0  0  0  0  0  0
   -1.8750    7.7250   30.0780 O   0  0  0  0  0  0
   -2.2380    6.8470   29.0790 C   0  0  0  0  0  0
   -3.4200    6.7870   28.3330 C   0  0  0  0  0  0
   -3.5400    5.7810   27.3440 C   0  0  0  0  0  0
   -1.1200    6.6400   20.3720 C   0  0  0  0  0  0
   -1.7320    7.8220   19.9390 C   0  0  0  0  0  0
   -2.9870   10.3480   19.1140 N   0  0  0  0  0  0
   -5.6930    8.8329   20.1944 H   0  0  0  0  0  0
   -4.9669    7.1934   20.8211 H   0  0  0  0  0  0
   -3.9069    5.0824   21.6126 H   0  0  0  0  0  0
   -0.3096    4.3902   20.9182 H   0  0  0  0  0  0
   -3.1530    3.5816   21.9871 H   0  0  0  0  0  0
   -3.5031    2.5354   20.0757 H   0  0  0  0  0  0
   -2.2256    3.6338   19.4526 H   0  0  0  0  0  0
   -2.1092    0.7311   19.7079 H   0  0  0  0  0  0
   -0.8136    1.8350   19.1340 H   0  0  0  0  0  0
   -0.7756    0.3022   21.4866 H   0  0  0  0  0  0
    0.3138    1.6743   21.0903 H   0  0  0  0  0  0
   -2.0892    1.6278   22.9469 H   0  0  0  0  0  0
    0.6955    2.5882   22.8754 H   0  0  0  0  0  0
    0.7385    3.7947   25.5908 H   0  0  0  0  0  0
   -0.9693    1.6641   24.8622 H   0  0  0  0  0  0
    0.5413    2.3429   27.8504 H   0  0  0  0  0  0
   -0.7659    1.4850   26.9662 H   0  0  0  0  0  0
    1.0654    0.7761   24.9464 H   0  0  0  0  0  0
    2.3727    1.6339   25.8306 H   0  0  0  0  0  0
    0.1525    5.2186   23.1101 H   0  0  0  0  0  0
   -3.7041    3.8456   25.6159 H   0  0  0  0  0  0
   -2.7162    2.7394   26.6294 H   0  0  0  0  0  0
   -0.5242    4.1475   27.6967 H   0  0  0  0  0  0
   -0.5651    7.0454   31.5765 H   0  0  0  0  0  0
    0.1722    8.1258   30.3453 H   0  0  0  0  0  0
   -4.2282    7.4969   28.5088 H   0  0  0  0  0  0
   -4.4501    5.7387   26.7456 H   0  0  0  0  0  0
   -0.0512    6.4848   20.2247 H   0  0  0  0  0  0
   -1.1209    8.5792   19.4478 H   0  0  0  0  0  0
   -3.5059   11.2661   18.8013 H   0  0  0  0  0  0
   -1.8990   10.2581   18.9792 H   0  0  0  0  0  0
   -5.3917   10.5420   19.4082 H   0  0  0  0  0  0
  1  2  2  0  0  0
  1 35  1  0  0  0
  1 66  1  0  0  0
  2  3  1  0  0  0
  2 34  1  0  0  0
  3  4  2  0  0  0
  3 33  1  0  0  0
  4  5  1  0  0  0
  4 36  1  0  0  0
  5  6  2  0  0  0
  5 37  1  0  0  0
  6  7  1  0  0  0
  6 32  1  0  0  0
  7  8  1  0  0  0
  7 21  1  0  0  0
  7 38  1  0  0  0
  8  9  1  0  0  0
  8 12  1  0  0  0
  8 39  1  0  0  0
  9 10  1  0  0  0
  9 40  1  0  0  0
  9 41  1  0  0  0
 10 11  1  0  0  0
 10 42  1  0  0  0
 10 43  1  0  0  0
 11 12  1  0  0  0
 11 44  1  0  0  0
 11 45  1  0  0  0
 12 13  1  0  0  0
 12 46  1  0  0  0
 13 15  1  0  0  0
 13 21  1  0  0  0
 13 47  1  0  0  0
 14 15  1  0  0  0
 14 16  1  0  0  0
 14 17  1  0  0  0
 14 48  1  0  0  0
 15 18  1  0  0  0
 15 49  1  0  0  0
 16 17  1  0  0  0
 16 50  1  0  0  0
 16 51  1  0  0  0
 17 52  1  0  0  0
 17 53  1  0  0  0
 18 19  1  0  0  0
 18 22  1  0  0  0
 19 20  2  0  0  0
 19 21  1  0  0  0
 21 54  1  0  0  0
 22 23  1  0  0  0
 22 55  1  0  0  0
 22 56  1  0  0  0
 23 24  2  0  0  0
 23 31  1  0  0  0
 24 25  1  0  0  0
 24 57  1  0  0  0
 25 26  1  0  0  0
 25 29  2  0  0  0
 26 27  1  0  0  0
 27 28  1  0  0  0
 27 58  1  0  0  0
 27 59  1  0  0  0
 28 29  1  0  0  0
 29 30  1  0  0  0
 30 31  2  0  0  0
 30 60  1  0  0  0
 31 61  1  0  0  0
 32 33  2  0  0  0
 32 62  1  0  0  0
 33 63  1  0  0  0
 34 64  1  0  0  0
 34 65  1  0  0  0
M  CHG  2   1   1   8   1
M  END
> <s_m_source_file>
../1y3v_ligand.sdf

> <i_m_source_file_index>
1

> <s_epik_input>
W0hdL049QyhbTkgyXSkvYzFbY0hdW2NIXWMoW2NIXVtjSF0xKVtDQEhdMltDQEhdKFtDQEBIXTNbQ0BASF0oW05AQEgrXTI0KVtDSDJdW0NIMl1bQ0gyXTQpQyg9TylOKFtDQEBIXTNbQ0hdNVtDSDJdW0NIMl01KVtDSDJdYyhbY0hdNilbY0hdW2NIXWMoYzY3KU9bQ0gyXU83

> <s_epik_cmdline>
J2VwaWtfYXBwJywgJy1pbWFlJywgJ2xpZ2FuZF9wcm8ubWFlJywgJy1vbWFlJywgJ2xpZ2FuZF9wcmVwLm1hZScsICctbXMnLCAnMScsICctcGgnLCAnNycsICctcGh0JywgJzAuNScsICctbnQn

> <r_lp_tautomer_probability>
1

> <r_epik_Ionization_Penalty>
  0.0256

> <r_epik_Ionization_Penalty_Charging>
  0.0256

> <r_epik_Ionization_Penalty_Neutral>
  0.0000

> <r_epik_State_Penalty>
  0.0182

> <r_epik_Charging_Adjusted_Penalty>
0.0438025269773826

> <i_epik_Tot_Q>
2

> <i_epik_Tot_abs_Q>
2

> <s_epik_Chemistry_Notes>
This compound has an imine and may undergo hydrolysis. This compound contains an acetal/aminal-like group ( X-CH(R)-Y where X, Y are N, S, or O) that may be acid/base labile, releasing an aldehyde.

$$$$
