1y3w_ligand
                    3D
 Schrodinger Suite 2020-3.
 65 70  0  0  1  0            999 V2000
   -5.1160    9.5300   19.7200 N   0  3  0  0  0  0
   -3.8020    9.3080   19.6660 C   0  0  0  0  0  0
   -3.0460   10.3260   19.1450 N   0  0  0  0  0  0
   -3.2170    8.0870   20.1190 C   0  0  0  0  0  0
   -3.9830    7.0630   20.6810 C   0  0  0  0  0  0
   -3.3710    5.8710   21.0980 C   0  0  0  0  0  0
   -1.9900    5.6930   21.0140 C   0  0  0  0  0  0
   -1.2150    6.7270   20.4490 C   0  0  0  0  0  0
   -1.8260    7.8970   20.0300 C   0  0  0  0  0  0
   -1.2970    4.4660   21.5280 C   0  0  2  0  0  0
   -2.1500    3.2380   21.4310 N   0  3  1  0  0  0
   -2.3340    2.7210   20.0380 C   0  0  0  0  0  0
   -1.4570    1.4490   19.9320 C   0  0  0  0  0  0
   -0.4980    1.5180   21.0940 C   0  0  0  0  0  0
   -1.3530    2.1930   22.1920 C   0  0  1  0  0  0
   -0.3770    2.9470   23.1420 C   0  0  2  0  0  0
   -0.7130    2.7060   24.6490 C   0  0  2  0  0  0
   -1.6930    3.7270   24.9450 N   0  0  0  0  0  0
   -1.6720    4.7810   24.0690 C   0  0  0  0  0  0
   -2.5550    5.6860   24.0290 O   0  0  0  0  0  0
   -0.6880    4.4480   22.9320 C   0  0  2  0  0  0
   -2.6350    3.8600   26.1000 C   0  0  0  0  0  0
   -2.0470    4.5110   27.3460 C   0  0  0  0  0  0
   -1.1700    3.7830   28.2160 C   0  0  0  0  0  0
   -0.6730    4.3370   29.4160 C   0  0  0  0  0  0
   -1.0830    5.6500   29.7000 C   0  0  0  0  0  0
   -0.7440    6.4240   30.7870 O   0  0  0  0  0  0
   -1.4440    7.6970   30.5940 C   0  0  0  0  0  0
   -2.2090    7.6600   29.3620 O   0  0  0  0  0  0
   -1.9430    6.3810   28.8580 C   0  0  0  0  0  0
   -2.4420    5.8230   27.6640 C   0  0  0  0  0  0
    0.5200    2.7320   25.5850 C   0  0  0  0  0  0
    1.3180    1.4360   25.5760 C   0  0  0  0  0  0
   -5.5277   10.4846   19.3607 H   0  0  0  0  0  0
   -3.5310   11.2532   18.8057 H   0  0  0  0  0  0
   -1.9544   10.2157   19.0662 H   0  0  0  0  0  0
   -5.0594    7.1902   20.7960 H   0  0  0  0  0  0
   -3.9886    5.0661   21.4965 H   0  0  0  0  0  0
   -0.1371    6.6055   20.3423 H   0  0  0  0  0  0
   -1.2095    8.6960   19.6182 H   0  0  0  0  0  0
   -0.4574    4.4830   20.8175 H   0  0  0  0  0  0
   -3.1605    3.4682   21.7998 H   0  0  0  0  0  0
   -3.3955    2.4855   19.8715 H   0  0  0  0  0  0
   -2.0108    3.4864   19.3171 H   0  0  0  0  0  0
   -2.0968    0.5563   19.9934 H   0  0  0  0  0  0
   -0.9222    1.4514   18.9708 H   0  0  0  0  0  0
   -0.1780    0.5014   21.3661 H   0  0  0  0  0  0
    0.3808    2.1151   20.8092 H   0  0  0  0  0  0
   -1.9930    1.4973   22.7546 H   0  0  0  0  0  0
    0.6519    2.6262   22.9220 H   0  0  0  0  0  0
   -1.1621    1.7240   24.8587 H   0  0  0  0  0  0
    0.1304    5.1821   22.9684 H   0  0  0  0  0  0
   -3.4960    4.4762   25.8018 H   0  0  0  0  0  0
   -2.9856    2.8627   26.4040 H   0  0  0  0  0  0
   -0.8775    2.7693   27.9422 H   0  0  0  0  0  0
   -0.0123    3.7803   30.0806 H   0  0  0  0  0  0
   -2.1264    7.8720   31.4388 H   0  0  0  0  0  0
   -0.7100    8.5146   30.5401 H   0  0  0  0  0  0
   -3.1088    6.3868   27.0116 H   0  0  0  0  0  0
    1.1997    3.5388   25.2736 H   0  0  0  0  0  0
    0.1912    2.9085   26.6198 H   0  0  0  0  0  0
    2.1742    1.5278   26.2605 H   0  0  0  0  0  0
    1.6826    1.2370   24.5574 H   0  0  0  0  0  0
    0.6740    0.6066   25.9036 H   0  0  0  0  0  0
   -5.7880    8.7584   20.1239 H   0  0  0  0  0  0
  1  2  2  0  0  0
  1 34  1  0  0  0
  1 65  1  0  0  0
  2  3  1  0  0  0
  2  4  1  0  0  0
  3 35  1  0  0  0
  3 36  1  0  0  0
  4  5  2  0  0  0
  4  9  1  0  0  0
  5  6  1  0  0  0
  5 37  1  0  0  0
  6  7  2  0  0  0
  6 38  1  0  0  0
  7  8  1  0  0  0
  7 10  1  0  0  0
  8  9  2  0  0  0
  8 39  1  0  0  0
  9 40  1  0  0  0
 10 11  1  0  0  0
 10 21  1  0  0  0
 10 41  1  0  0  0
 11 12  1  0  0  0
 11 15  1  0  0  0
 11 42  1  0  0  0
 12 13  1  0  0  0
 12 43  1  0  0  0
 12 44  1  0  0  0
 13 14  1  0  0  0
 13 45  1  0  0  0
 13 46  1  0  0  0
 14 15  1  0  0  0
 14 47  1  0  0  0
 14 48  1  0  0  0
 15 16  1  0  0  0
 15 49  1  0  0  0
 16 17  1  0  0  0
 16 21  1  0  0  0
 16 50  1  0  0  0
 17 18  1  0  0  0
 17 32  1  0  0  0
 17 51  1  0  0  0
 18 19  1  0  0  0
 18 22  1  0  0  0
 19 20  2  0  0  0
 19 21  1  0  0  0
 21 52  1  0  0  0
 22 23  1  0  0  0
 22 53  1  0  0  0
 22 54  1  0  0  0
 23 24  2  0  0  0
 23 31  1  0  0  0
 24 25  1  0  0  0
 24 55  1  0  0  0
 25 26  2  0  0  0
 25 56  1  0  0  0
 26 27  1  0  0  0
 26 30  1  0  0  0
 27 28  1  0  0  0
 28 29  1  0  0  0
 28 57  1  0  0  0
 28 58  1  0  0  0
 29 30  1  0  0  0
 30 31  2  0  0  0
 31 59  1  0  0  0
 32 33  1  0  0  0
 32 60  1  0  0  0
 32 61  1  0  0  0
 33 62  1  0  0  0
 33 63  1  0  0  0
 33 64  1  0  0  0
M  CHG  2   1   1  11   1
M  END
> <s_m_source_file>
../1y3w_ligand.sdf

> <i_m_source_file_index>
1

> <s_epik_input>
W0hdL049QygvW05IMl0pYzFbY0hdW2NIXWMoW2NIXVtjSF0xKVtDQEhdMltDQEhdKFtDQEBIXTNbQ0BASF0oW05AQEgrXTI0KVtDSDJdW0NIMl1bQ0gyXTQpQyg9TylOKFtDQEBIXTNbQ0gyXVtDSDNdKVtDSDJdYyhbY0hdW2NIXTUpW2NIXWMoYzU2KU9bQ0gyXU82

> <s_epik_cmdline>
J2VwaWtfYXBwJywgJy1pbWFlJywgJ2xpZ2FuZF9wcm8ubWFlJywgJy1vbWFlJywgJ2xpZ2FuZF9wcmVwLm1hZScsICctbXMnLCAnMScsICctcGgnLCAnNycsICctcGh0JywgJzAuNScsICctbnQn

> <r_lp_tautomer_probability>
1

> <r_epik_Ionization_Penalty>
  0.0268

> <r_epik_Ionization_Penalty_Charging>
  0.0268

> <r_epik_Ionization_Penalty_Neutral>
  0.0000

> <r_epik_State_Penalty>
  0.0192

> <r_epik_Charging_Adjusted_Penalty>
0.046030831115547

> <i_epik_Tot_Q>
2

> <i_epik_Tot_abs_Q>
2

> <s_epik_Chemistry_Notes>
This compound has an imine and may undergo hydrolysis. This compound contains an acetal/aminal-like group ( X-CH(R)-Y where X, Y are N, S, or O) that may be acid/base labile, releasing an aldehyde.

$$$$
