1y3x_ligand
                    3D
 Schrodinger Suite 2020-3.
 67 71  0  0  1  0            999 V2000
   -5.0170    9.5770   19.8370 N   0  3  0  0  0  0
   -3.7270    9.3500   19.6500 C   0  0  0  0  0  0
   -3.0410   10.3560   19.0290 N   0  0  0  0  0  0
   -3.1370    8.1210   20.0830 C   0  0  0  0  0  0
   -1.7680    7.8570   19.8580 C   0  0  0  0  0  0
   -1.2160    6.6560   20.2930 C   0  0  0  0  0  0
   -2.0090    5.6880   20.9520 C   0  0  0  0  0  0
   -1.3370    4.4500   21.4840 C   0  0  1  0  0  0
   -0.7630    4.4420   22.9150 C   0  0  2  0  0  0
   -0.4360    2.9350   23.1290 C   0  0  2  0  0  0
   -1.4120    2.2010   22.1670 C   0  0  0  0  0  0
   -2.1330    1.1340   23.0160 C   0  0  0  0  0  0
   -0.5110    1.5400   21.1020 C   0  0  0  0  0  0
   -2.2270    3.2530   21.4180 N   0  3  2  0  0  0
   -2.5370    2.8520   20.0400 C   0  0  0  0  0  0
   -0.7490    2.7330   24.6450 C   0  0  2  0  0  0
   -1.8100    3.6930   24.9060 N   0  0  0  0  0  0
   -2.7820    3.6560   26.0570 C   0  0  0  0  0  0
   -2.5730    4.7960   27.0540 C   0  0  0  0  0  0
   -3.5640    5.8110   27.2260 C   0  0  0  0  0  0
   -3.4700    6.8050   28.2200 C   0  0  0  0  0  0
   -2.3330    6.7840   29.0380 C   0  0  0  0  0  0
   -1.3350    5.8040   28.9060 C   0  0  0  0  0  0
   -1.4270    4.8030   27.9240 C   0  0  0  0  0  0
   -0.3070    5.9780   29.8440 O   0  0  0  0  0  0
   -0.7300    7.1530   30.5830 C   0  0  0  0  0  0
   -2.0080    7.6340   30.0670 O   0  0  0  0  0  0
   -1.8490    4.7090   23.9840 C   0  0  0  0  0  0
   -2.6300    5.6990   24.0180 O   0  0  0  0  0  0
    0.4760    2.8910   25.5700 C   0  0  0  0  0  0
    1.2450    1.5920   25.6870 C   0  0  0  0  0  0
   -3.3580    5.9540   21.1870 C   0  0  0  0  0  0
   -3.9250    7.1760   20.7470 C   0  0  0  0  0  0
   -5.4630   10.5247   19.5011 H   0  0  0  0  0  0
   -3.5660   11.2736   18.7250 H   0  0  0  0  0  0
   -1.9640   10.2480   18.8333 H   0  0  0  0  0  0
   -1.1462    8.5911   19.3456 H   0  0  0  0  0  0
   -0.1575    6.4585   20.1235 H   0  0  0  0  0  0
   -0.4963    4.4219   20.7752 H   0  0  0  0  0  0
    0.0421    5.1861   23.0044 H   0  0  0  0  0  0
    0.5813    2.5755   22.9150 H   0  0  0  0  0  0
   -1.3888    0.4680   23.4770 H   0  0  0  0  0  0
   -2.8035    0.5452   22.3727 H   0  0  0  0  0  0
   -2.7209    1.6280   23.8037 H   0  0  0  0  0  0
    0.1091    0.7650   21.5762 H   0  0  0  0  0  0
    0.1389    2.3022   20.6473 H   0  0  0  0  0  0
   -1.1389    1.0818   20.3237 H   0  0  0  0  0  0
   -3.2326    3.4375   21.8238 H   0  0  0  0  0  0
   -3.1228    3.6441   19.5506 H   0  0  0  0  0  0
   -3.1197    1.9191   20.0519 H   0  0  0  0  0  0
   -1.6007    2.6924   19.4851 H   0  0  0  0  0  0
   -1.1129    1.7259   24.8968 H   0  0  0  0  0  0
   -3.8094    3.7339   25.6719 H   0  0  0  0  0  0
   -2.6664    2.7088   26.6043 H   0  0  0  0  0  0
   -4.4277    5.8164   26.5612 H   0  0  0  0  0  0
   -4.2481    7.5576   28.3470 H   0  0  0  0  0  0
   -0.6471    4.0482   27.8236 H   0  0  0  0  0  0
   -0.8427    6.8962   31.6467 H   0  0  0  0  0  0
    0.0252    7.9455   30.4752 H   0  0  0  0  0  0
    1.1473    3.6605   25.1612 H   0  0  0  0  0  0
    0.1412    3.1922   26.5736 H   0  0  0  0  0  0
    2.1100    1.7365   26.3511 H   0  0  0  0  0  0
    1.5949    1.2821   24.6912 H   0  0  0  0  0  0
    0.5888    0.8137   26.1037 H   0  0  0  0  0  0
   -3.9754    5.2227   21.7086 H   0  0  0  0  0  0
   -4.9805    7.3801   20.9271 H   0  0  0  0  0  0
   -5.6434    8.8180   20.3284 H   0  0  0  0  0  0
  1  2  2  0  0  0
  1 34  1  0  0  0
  1 67  1  0  0  0
  2  3  1  0  0  0
  2  4  1  0  0  0
  3 35  1  0  0  0
  3 36  1  0  0  0
  4  5  2  0  0  0
  4 33  1  0  0  0
  5  6  1  0  0  0
  5 37  1  0  0  0
  6  7  2  0  0  0
  6 38  1  0  0  0
  7  8  1  0  0  0
  7 32  1  0  0  0
  8  9  1  0  0  0
  8 14  1  0  0  0
  8 39  1  0  0  0
  9 10  1  0  0  0
  9 28  1  0  0  0
  9 40  1  0  0  0
 10 11  1  0  0  0
 10 16  1  0  0  0
 10 41  1  0  0  0
 11 12  1  0  0  0
 11 13  1  0  0  0
 11 14  1  0  0  0
 12 42  1  0  0  0
 12 43  1  0  0  0
 12 44  1  0  0  0
 13 45  1  0  0  0
 13 46  1  0  0  0
 13 47  1  0  0  0
 14 15  1  0  0  0
 14 48  1  0  0  0
 15 49  1  0  0  0
 15 50  1  0  0  0
 15 51  1  0  0  0
 16 17  1  0  0  0
 16 30  1  0  0  0
 16 52  1  0  0  0
 17 18  1  0  0  0
 17 28  1  0  0  0
 18 19  1  0  0  0
 18 53  1  0  0  0
 18 54  1  0  0  0
 19 20  2  0  0  0
 19 24  1  0  0  0
 20 21  1  0  0  0
 20 55  1  0  0  0
 21 22  2  0  0  0
 21 56  1  0  0  0
 22 23  1  0  0  0
 22 27  1  0  0  0
 23 24  2  0  0  0
 23 25  1  0  0  0
 24 57  1  0  0  0
 25 26  1  0  0  0
 26 27  1  0  0  0
 26 58  1  0  0  0
 26 59  1  0  0  0
 28 29  2  0  0  0
 30 31  1  0  0  0
 30 60  1  0  0  0
 30 61  1  0  0  0
 31 62  1  0  0  0
 31 63  1  0  0  0
 31 64  1  0  0  0
 32 33  2  0  0  0
 32 65  1  0  0  0
 33 66  1  0  0  0
M  CHG  2   1   1  14   1
M  END
> <s_m_source_file>
../1y3x_ligand.sdf

> <i_m_source_file_index>
1

> <s_epik_input>
W0hdL049QygvW05IMl0pYzFbY0hdW2NIXWMoW2NIXVtjSF0xKVtDQEBIXTJbTkBASCtdKFtDSDNdKUMoW0NIM10pKFtDSDNdKVtDQEBIXShbQ0BASF0yMylbQ0BASF0oW0NIMl1bQ0gzXSlOKEMzPU8pW0NIMl1jKFtjSF1bY0hdNClbY0hdYyhjNDUpT1tDSDJdTzU=

> <s_epik_cmdline>
J2VwaWtfYXBwJywgJy1pbWFlJywgJ2xpZ2FuZF9wcm8ubWFlJywgJy1vbWFlJywgJ2xpZ2FuZF9wcmVwLm1hZScsICctbXMnLCAnMScsICctcGgnLCAnNycsICctcGh0JywgJzAuNScsICctbnQn

> <r_lp_tautomer_probability>
1

> <r_epik_Ionization_Penalty>
  0.0257

> <r_epik_Ionization_Penalty_Charging>
  0.0257

> <r_epik_Ionization_Penalty_Neutral>
  0.0000

> <r_epik_State_Penalty>
  0.0182

> <r_epik_Charging_Adjusted_Penalty>
0.0438641265679492

> <i_epik_Tot_Q>
2

> <i_epik_Tot_abs_Q>
2

> <s_epik_Chemistry_Notes>
This compound has an imine and may undergo hydrolysis. This compound contains an acetal/aminal-like group ( X-CH(R)-Y where X, Y are N, S, or O) that may be acid/base labile, releasing an aldehyde.

$$$$
