1y3y_ligand
                    3D
 Schrodinger Suite 2020-3.
 46 49  0  0  1  0            999 V2000
   46.7820   18.5210   54.8030 N   0  3  0  0  0  0
   45.9170   18.3890   53.8160 C   0  0  0  0  0  0
   45.4140   19.4450   53.0080 C   0  0  0  0  0  0
   45.8000   20.7750   53.1630 C   0  0  0  0  0  0
   45.2670   21.7530   52.3080 C   0  0  0  0  0  0
   44.3600   21.3990   51.3070 C   0  0  0  0  0  0
   43.7650   22.4440   50.3990 C   0  0  2  0  0  0
   44.7350   23.5840   50.1970 N   0  3  1  0  0  0
   45.8270   23.2350   49.2340 C   0  0  0  0  0  0
   45.3040   23.6120   47.8340 C   0  0  0  0  0  0
   43.9870   24.3060   48.0080 C   0  0  0  0  0  0
   43.8670   24.6200   49.5100 C   0  0  1  0  0  0
   42.3910   24.3430   49.9370 C   0  0  2  0  0  0
   41.8250   25.4680   50.8640 C   0  0  0  0  0  0
   42.3560   25.1290   52.1740 N   0  0  0  0  0  0
   42.6810   23.7970   52.2790 C   0  0  0  0  0  0
   43.1490   23.2690   53.3220 O   0  0  0  0  0  0
   42.4790   23.1340   50.9000 C   0  0  2  0  0  0
   41.8670   25.8700   53.3930 C   0  0  0  0  0  0
   43.9760   20.0560   51.1520 C   0  0  0  0  0  0
   44.5070   19.0900   51.9830 C   0  0  0  0  0  0
   45.4850   17.1240   53.5910 N   0  0  0  0  0  0
   47.1837   19.5140   55.0532 H   0  0  0  0  0  0
   46.5099   21.0539   53.9417 H   0  0  0  0  0  0
   45.5631   22.7953   52.4264 H   0  0  0  0  0  0
   43.5557   21.8552   49.4937 H   0  0  0  0  0  0
   45.2204   23.8787   51.1391 H   0  0  0  0  0  0
   46.7331   23.8061   49.4845 H   0  0  0  0  0  0
   46.0427   22.1583   49.2987 H   0  0  0  0  0  0
   46.0252   24.2804   47.3409 H   0  0  0  0  0  0
   45.1781   22.7001   47.2318 H   0  0  0  0  0  0
   43.9761   25.2276   47.4076 H   0  0  0  0  0  0
   43.1757   23.6419   47.6751 H   0  0  0  0  0  0
   44.1751   25.6472   49.7550 H   0  0  0  0  0  0
   41.7748   24.2238   49.0336 H   0  0  0  0  0  0
   42.1789   26.4475   50.5099 H   0  0  0  0  0  0
   40.7255   25.4447   50.8395 H   0  0  0  0  0  0
   41.6394   22.4251   50.9510 H   0  0  0  0  0  0
   41.6562   26.9161   53.1261 H   0  0  0  0  0  0
   42.6399   25.8397   54.1751 H   0  0  0  0  0  0
   40.9482   25.3947   53.7669 H   0  0  0  0  0  0
   43.2609   19.7779   50.3778 H   0  0  0  0  0  0
   44.2250   18.0458   51.8480 H   0  0  0  0  0  0
   45.8643   16.2955   54.2072 H   0  0  0  0  0  0
   44.7552   16.9260   52.7922 H   0  0  0  0  0  0
   47.1017   17.6381   55.3759 H   0  0  0  0  0  0
  1  2  2  0  0  0
  1 23  1  0  0  0
  1 46  1  0  0  0
  2  3  1  0  0  0
  2 22  1  0  0  0
  3  4  2  0  0  0
  3 21  1  0  0  0
  4  5  1  0  0  0
  4 24  1  0  0  0
  5  6  2  0  0  0
  5 25  1  0  0  0
  6  7  1  0  0  0
  6 20  1  0  0  0
  7  8  1  0  0  0
  7 18  1  0  0  0
  7 26  1  0  0  0
  8  9  1  0  0  0
  8 12  1  0  0  0
  8 27  1  0  0  0
  9 10  1  0  0  0
  9 28  1  0  0  0
  9 29  1  0  0  0
 10 11  1  0  0  0
 10 30  1  0  0  0
 10 31  1  0  0  0
 11 12  1  0  0  0
 11 32  1  0  0  0
 11 33  1  0  0  0
 12 13  1  0  0  0
 12 34  1  0  0  0
 13 14  1  0  0  0
 13 18  1  0  0  0
 13 35  1  0  0  0
 14 15  1  0  0  0
 14 36  1  0  0  0
 14 37  1  0  0  0
 15 16  1  0  0  0
 15 19  1  0  0  0
 16 17  2  0  0  0
 16 18  1  0  0  0
 18 38  1  0  0  0
 19 39  1  0  0  0
 19 40  1  0  0  0
 19 41  1  0  0  0
 20 21  2  0  0  0
 20 42  1  0  0  0
 21 43  1  0  0  0
 22 44  1  0  0  0
 22 45  1  0  0  0
M  CHG  2   1   1   8   1
M  END
> <s_m_source_file>
../1y3y_ligand.sdf

> <i_m_source_file_index>
1

> <s_epik_input>
W0hdL049QyhbTkgyXSkvYzFbY0hdW2NIXWMoW2NIXVtjSF0xKVtDQEhdMltDQEBIXShDKD1PKU4oW0NIMl0zKVtDSDNdKVtDQEBIXTNbQ0BASF0oW05AQEgrXTI0KVtDSDJdW0NIMl1bQ0gyXTQ=

> <s_epik_cmdline>
J2VwaWtfYXBwJywgJy1pbWFlJywgJ2xpZ2FuZF9wcm8ubWFlJywgJy1vbWFlJywgJ2xpZ2FuZF9wcmVwLm1hZScsICctbXMnLCAnMScsICctcGgnLCAnNycsICctcGh0JywgJzAuNScsICctbnQn

> <r_epik_Ionization_Penalty>
  0.0262

> <r_epik_Ionization_Penalty_Charging>
  0.0262

> <r_epik_Ionization_Penalty_Neutral>
  0.0000

> <r_epik_State_Penalty>
  0.0186

> <r_epik_Charging_Adjusted_Penalty>
0.044842419778897

> <i_epik_Tot_Q>
2

> <i_epik_Tot_abs_Q>
2

> <s_epik_Chemistry_Notes>
This compound has an imine and may undergo hydrolysis.

$$$$
