1y4z_ligand
                    3D
 Schrodinger Suite 2020-3.
 12 12  0  0  1  0            999 V2000
 -149.6340    4.3930  -10.3700 O   0  5  0  0  0  0
 -150.6070    5.3880  -10.2230 C   0  0  0  0  0  0
 -151.2130    5.5430   -8.9180 C   0  0  0  0  0  0
 -150.7720    4.6600   -7.8710 Cl  0  0  0  0  0  0
 -152.2480    6.5980   -8.7160 C   0  0  0  0  0  0
 -152.8580    6.7720   -7.4240 Cl  0  0  0  0  0  0
 -152.6400    7.4720   -9.8790 C   0  0  0  0  0  0
 -153.6310    8.4940   -9.7000 Cl  0  0  0  0  0  0
 -151.9990    7.2820  -11.2240 C   0  0  0  0  0  0
 -152.3670    8.1090  -12.3500 Cl  0  0  0  0  0  0
 -150.9720    6.2300  -11.3820 C   0  0  0  0  0  0
 -150.3140    5.9970  -12.6230 Cl  0  0  0  0  0  0
  1  2  1  0  0  0
  2  3  2  0  0  0
  2 11  1  0  0  0
  3  4  1  0  0  0
  3  5  1  0  0  0
  5  6  1  0  0  0
  5  7  2  0  0  0
  7  8  1  0  0  0
  7  9  1  0  0  0
  9 10  1  0  0  0
  9 11  2  0  0  0
 11 12  1  0  0  0
M  CHG  1   1  -1
M  END
> <s_m_source_file>
../1y4z_ligand.sdf

> <i_m_source_file_index>
1

> <s_epik_input>
W09IXWMxYyhDbCljKENsKWMoQ2wpYyhDbCljMUNs

> <s_epik_cmdline>
J2VwaWtfYXBwJywgJy1pbWFlJywgJ2xpZ2FuZF9wcm8ubWFlJywgJy1vbWFlJywgJ2xpZ2FuZF9wcmVwLm1hZScsICctbXMnLCAnMScsICctcGgnLCAnNycsICctcGh0JywgJzAuNScsICctbnQn

> <r_lp_tautomer_probability>
1

> <r_epik_Ionization_Penalty>
  0.0048

> <r_epik_Ionization_Penalty_Charging>
  0.0048

> <r_epik_Ionization_Penalty_Neutral>
  0.0000

> <r_epik_State_Penalty>
 -0.0000

> <r_epik_Charging_Adjusted_Penalty>
0.00481186208305789

> <i_epik_Tot_Q>
-1

> <i_epik_Tot_abs_Q>
1

$$$$
