1y6a_ligand
                    3D
 Schrodinger Suite 2020-3.
 52 55  0  0  1  0            999 V2000
   -0.2730   29.6670   22.7710 O   0  0  0  0  0  0
   -0.4270   29.9540   21.3770 S   0  0  0  0  0  0
    0.0570   31.2530   21.0240 O   0  0  0  0  0  0
   -2.0600   29.9360   21.0470 C   0  0  0  0  0  0
   -2.3170   29.7940   19.5600 C   0  0  0  0  0  0
    0.3640   28.7510   20.6130 C   0  0  0  0  0  0
    0.0070   27.4350   20.9020 C   0  0  0  0  0  0
    0.6640   26.3600   20.2920 C   0  0  0  0  0  0
    1.6950   26.5740   19.3650 C   0  0  0  0  0  0
    2.3450   25.5330   18.7420 O   0  0  0  0  0  0
    2.1930   24.1360   19.0580 C   0  0  0  0  0  0
    2.0920   27.8870   19.0640 C   0  0  0  0  0  0
    1.4050   28.9620   19.6890 C   0  0  0  0  0  0
    3.0060   28.0930   18.0510 N   0  0  0  0  0  0
    2.9010   29.1020   17.1830 C   0  0  0  0  0  0
    3.7780   29.4660   16.2370 N   0  0  0  0  0  0
    3.3460   30.5380   15.6730 C   0  0  0  0  0  0
    2.1770   30.9240   16.2160 C   0  0  0  0  0  0
    1.7930   30.0030   17.2280 O   0  0  0  0  0  0
    1.2200   32.0310   15.9260 C   0  0  0  0  0  0
    1.3680   32.9450   14.8930 C   0  0  0  0  0  0
    0.3690   33.9030   14.7000 C   0  0  0  0  0  0
   -0.7820   33.9220   15.5170 C   0  0  0  0  0  0
   -0.9380   32.9730   16.5340 C   0  0  0  0  0  0
    0.0620   32.0450   16.7200 C   0  0  0  0  0  0
   -2.1340   32.9830   17.4360 C   0  0  0  0  0  0
   -3.3510   32.3840   17.0640 C   0  0  0  0  0  0
   -4.4450   32.4480   17.9270 C   0  0  0  0  0  0
   -4.3030   33.0910   19.1590 C   0  0  0  0  0  0
   -3.0840   33.6790   19.5030 C   0  0  0  0  0  0
   -2.0350   33.6120   18.6520 N   0  0  0  0  0  0
   -2.5298   29.0880   21.5669 H   0  0  0  0  0  0
   -2.5145   30.8759   21.3935 H   0  0  0  0  0  0
   -3.4012   29.7853   19.3745 H   0  0  0  0  0  0
   -1.8758   28.8529   19.1999 H   0  0  0  0  0  0
   -1.8605   30.6408   19.0265 H   0  0  0  0  0  0
   -0.7955   27.2401   21.6134 H   0  0  0  0  0  0
    0.3699   25.3404   20.5412 H   0  0  0  0  0  0
    2.8367   23.5382   18.3960 H   0  0  0  0  0  0
    1.1435   23.8397   18.9143 H   0  0  0  0  0  0
    2.4827   23.9633   20.1050 H   0  0  0  0  0  0
    1.6935   29.9844   19.4450 H   0  0  0  0  0  0
    3.8619   27.4118   17.9356 H   0  0  0  0  0  0
    3.8570   31.0622   14.8655 H   0  0  0  0  0  0
    2.2446   32.9166   14.2458 H   0  0  0  0  0  0
    0.4799   34.6446   13.9089 H   0  0  0  0  0  0
   -1.5510   34.6774   15.3555 H   0  0  0  0  0  0
   -0.0486   31.2990   17.5070 H   0  0  0  0  0  0
   -3.4389   31.8721   16.1057 H   0  0  0  0  0  0
   -5.3984   32.0020   17.6437 H   0  0  0  0  0  0
   -5.1435   33.1337   19.8517 H   0  0  0  0  0  0
   -2.9778   34.1926   20.4585 H   0  0  0  0  0  0
  1  2  2  0  0  0
  2  3  2  0  0  0
  2  4  1  0  0  0
  2  6  1  0  0  0
  4  5  1  0  0  0
  4 32  1  0  0  0
  4 33  1  0  0  0
  5 34  1  0  0  0
  5 35  1  0  0  0
  5 36  1  0  0  0
  6  7  2  0  0  0
  6 13  1  0  0  0
  7  8  1  0  0  0
  7 37  1  0  0  0
  8  9  2  0  0  0
  8 38  1  0  0  0
  9 10  1  0  0  0
  9 12  1  0  0  0
 10 11  1  0  0  0
 11 39  1  0  0  0
 11 40  1  0  0  0
 11 41  1  0  0  0
 12 13  2  0  0  0
 12 14  1  0  0  0
 13 42  1  0  0  0
 14 15  1  0  0  0
 14 43  1  0  0  0
 15 16  2  0  0  0
 15 19  1  0  0  0
 16 17  1  0  0  0
 17 18  2  0  0  0
 17 44  1  0  0  0
 18 19  1  0  0  0
 18 20  1  0  0  0
 20 21  2  0  0  0
 20 25  1  0  0  0
 21 22  1  0  0  0
 21 45  1  0  0  0
 22 23  2  0  0  0
 22 46  1  0  0  0
 23 24  1  0  0  0
 23 47  1  0  0  0
 24 25  2  0  0  0
 24 26  1  0  0  0
 25 48  1  0  0  0
 26 27  2  0  0  0
 26 31  1  0  0  0
 27 28  1  0  0  0
 27 49  1  0  0  0
 28 29  2  0  0  0
 28 50  1  0  0  0
 29 30  1  0  0  0
 29 51  1  0  0  0
 30 31  2  0  0  0
 30 52  1  0  0  0
M  END
> <s_m_source_file>
../1y6a_ligand.sdf

> <i_m_source_file_index>
1

> <s_epik_input>
W0NIM11bQ0gyXVMoPU8pKD1PKWMxW2NIXVtjSF1jKE9bQ0gzXSljKFtjSF0xKVtOSF1jMm5bY0hdYyhvMiktYzNbY0hdW2NIXVtjSF1jKFtjSF0zKS1jNFtjSF1bY0hdW2NIXVtjSF1uNA==

> <s_epik_cmdline>
J2VwaWtfYXBwJywgJy1pbWFlJywgJ2xpZ2FuZF9wcm8ubWFlJywgJy1vbWFlJywgJ2xpZ2FuZF9wcmVwLm1hZScsICctbXMnLCAnMScsICctcGgnLCAnNycsICctcGh0JywgJzAuNScsICctbnQn

> <r_lp_tautomer_probability>
1

> <r_epik_Ionization_Penalty>
  0.0021

> <r_epik_Ionization_Penalty_Charging>
  0.0000

> <r_epik_Ionization_Penalty_Neutral>
  0.0021

> <r_epik_State_Penalty>
 -0.0000

> <r_epik_Charging_Adjusted_Penalty>
0

> <i_epik_Tot_Q>
0

> <i_epik_Tot_abs_Q>
0

$$$$
