1y6b_ligand
                    3D
 Schrodinger Suite 2020-3.
 58 62  0  0  1  0            999 V2000
   -0.0370   31.0440   21.3050 O   0  0  0  0  0  0
   -0.6050   29.7780   21.5610 S   0  0  0  0  0  0
   -0.4770   29.4350   22.9410 O   0  0  0  0  0  0
   -2.1000   29.8570   21.0210 N   0  0  3  0  0  0
   -2.2810   30.1240   19.5940 C   0  0  0  0  0  0
   -3.6970   30.5820   19.2470 C   0  0  0  0  0  0
   -3.8610   31.1220   17.8270 C   0  0  0  0  0  0
   -3.9060   32.0700   19.0180 C   0  0  0  0  0  0
    0.2570   28.6170   20.7720 C   0  0  0  0  0  0
    0.0050   27.2850   21.0760 C   0  0  0  0  0  0
    0.7400   26.2640   20.4720 C   0  0  0  0  0  0
    1.2700   28.8870   19.8200 C   0  0  0  0  0  0
    2.0060   27.8680   19.1720 C   0  0  0  0  0  0
    1.7270   26.5530   19.5100 C   0  0  0  0  0  0
    2.4440   25.5730   18.8760 O   0  0  0  0  0  0
    2.2720   24.1640   19.0970 C   0  0  0  0  0  0
    2.9390   28.1000   18.1570 N   0  0  0  0  0  0
    2.8590   29.1080   17.2510 C   0  0  0  0  0  0
    1.8350   29.9810   17.2650 O   0  0  0  0  0  0
    2.1640   30.9010   16.3250 C   0  0  0  0  0  0
    3.3500   30.5130   15.7030 C   0  0  0  0  0  0
    3.8110   29.3800   16.3060 N   0  0  0  0  0  0
    1.2040   31.9670   16.0500 C   0  0  0  0  0  0
    1.1520   32.5770   14.7970 C   0  0  0  0  0  0
    0.1910   33.5550   14.5390 C   0  0  0  0  0  0
   -0.7690   33.8790   15.5200 C   0  0  0  0  0  0
   -0.7460   33.1990   16.7340 C   0  0  0  0  0  0
    0.2190   32.2500   17.0030 C   0  0  0  0  0  0
    0.1890   34.2330   13.2050 C   0  0  0  0  0  0
    0.0020   35.6210   13.0930 C   0  0  0  0  0  0
    0.0310   36.2500   11.8970 N   0  0  0  0  0  0
    0.2250   35.5520   10.7720 C   0  0  0  0  0  0
    0.4280   34.1700   10.8220 C   0  0  0  0  0  0
    0.3910   33.4920   12.0440 C   0  0  0  0  0  0
   -2.9653   29.8837   21.6996 H   0  0  0  0  0  0
   -1.5868   30.9167   19.2784 H   0  0  0  0  0  0
   -2.0764   29.2078   19.0207 H   0  0  0  0  0  0
   -4.1978   29.8281   19.8722 H   0  0  0  0  0  0
   -2.9614   30.8869   17.2392 H   0  0  0  0  0  0
   -4.7389   30.6553   17.3563 H   0  0  0  0  0  0
   -4.8221   32.3951   19.5329 H   0  0  0  0  0  0
   -3.0447   32.6267   19.4157 H   0  0  0  0  0  0
   -0.7756   27.0346   21.7944 H   0  0  0  0  0  0
    0.5473   25.2275   20.7489 H   0  0  0  0  0  0
    1.4922   29.9258   19.5760 H   0  0  0  0  0  0
    2.9732   23.6047   18.4602 H   0  0  0  0  0  0
    1.2401   23.8768   18.8464 H   0  0  0  0  0  0
    2.4709   23.9316   20.1536 H   0  0  0  0  0  0
    3.8134   27.4409   18.0526 H   0  0  0  0  0  0
    3.8296   31.0300   14.8719 H   0  0  0  0  0  0
    1.8610   32.2902   14.0204 H   0  0  0  0  0  0
   -1.5166   34.6493   15.3305 H   0  0  0  0  0  0
   -1.5037   33.4199   17.4857 H   0  0  0  0  0  0
    0.2141   31.7216   17.9563 H   0  0  0  0  0  0
   -0.1713   36.2068   13.9957 H   0  0  0  0  0  0
    0.2247   36.0646    9.8101 H   0  0  0  0  0  0
    0.6165   33.6170    9.9018 H   0  0  0  0  0  0
    0.5172   32.4102   12.0866 H   0  0  0  0  0  0
  1  2  2  0  0  0
  2  3  2  0  0  0
  2  4  1  0  0  0
  2  9  1  0  0  0
  4  5  1  0  0  0
  4 35  1  0  0  0
  5  6  1  0  0  0
  5 36  1  0  0  0
  5 37  1  0  0  0
  6  7  1  0  0  0
  6  8  1  0  0  0
  6 38  1  0  0  0
  7  8  1  0  0  0
  7 39  1  0  0  0
  7 40  1  0  0  0
  8 41  1  0  0  0
  8 42  1  0  0  0
  9 10  2  0  0  0
  9 12  1  0  0  0
 10 11  1  0  0  0
 10 43  1  0  0  0
 11 14  2  0  0  0
 11 44  1  0  0  0
 12 13  2  0  0  0
 12 45  1  0  0  0
 13 14  1  0  0  0
 13 17  1  0  0  0
 14 15  1  0  0  0
 15 16  1  0  0  0
 16 46  1  0  0  0
 16 47  1  0  0  0
 16 48  1  0  0  0
 17 18  1  0  0  0
 17 49  1  0  0  0
 18 19  1  0  0  0
 18 22  2  0  0  0
 19 20  1  0  0  0
 20 21  2  0  0  0
 20 23  1  0  0  0
 21 22  1  0  0  0
 21 50  1  0  0  0
 23 24  2  0  0  0
 23 28  1  0  0  0
 24 25  1  0  0  0
 24 51  1  0  0  0
 25 26  2  0  0  0
 25 29  1  0  0  0
 26 27  1  0  0  0
 26 52  1  0  0  0
 27 28  2  0  0  0
 27 53  1  0  0  0
 28 54  1  0  0  0
 29 30  2  0  0  0
 29 34  1  0  0  0
 30 31  1  0  0  0
 30 55  1  0  0  0
 31 32  2  0  0  0
 32 33  1  0  0  0
 32 56  1  0  0  0
 33 34  2  0  0  0
 33 57  1  0  0  0
 34 58  1  0  0  0
M  END
> <s_m_source_file>
../1y6b_ligand.sdf

> <i_m_source_file_index>
1

> <s_epik_input>
W0NIMl0xW0NIMl1bQ0hdMVtDSDJdW05IXVMoPU8pKD1PKWMyW2NIXVtjSF1jKE9bQ0gzXSljKFtjSF0yKVtOSF1jM29jKFtjSF1uMyktYzRbY0hdYyhbY0hdW2NIXVtjSF00KS1jNVtjSF1uW2NIXVtjSF1bY0hdNQ==

> <s_epik_cmdline>
J2VwaWtfYXBwJywgJy1pbWFlJywgJ2xpZ2FuZF9wcm8ubWFlJywgJy1vbWFlJywgJ2xpZ2FuZF9wcmVwLm1hZScsICctbXMnLCAnMScsICctcGgnLCAnNycsICctcGh0JywgJzAuNScsICctbnQn

> <r_lp_tautomer_probability>
1

> <r_epik_Ionization_Penalty>
  0.0025

> <r_epik_Ionization_Penalty_Charging>
  0.0000

> <r_epik_Ionization_Penalty_Neutral>
  0.0025

> <r_epik_State_Penalty>
 -0.0000

> <r_epik_Charging_Adjusted_Penalty>
0

> <i_epik_Tot_Q>
0

> <i_epik_Tot_abs_Q>
0

$$$$
