1y8o_ligand
                    3D
 Schrodinger Suite 2020-3.
 39 41  0  0  1  0            999 V2000
  -46.2550   16.5650   73.3180 P   0  0  0  0  0  0
  -45.8420   16.0780   74.7090 O   0  5  0  0  0  0
  -45.2790   16.3630   72.1750 O   0  0  0  0  0  0
  -46.9460   17.9210   73.3630 O   0  5  0  0  0  0
  -48.8140   15.7410   72.2220 P   0  0  1  0  0  0
  -49.4330   14.3600   72.0410 O   0  0  0  0  0  0
  -49.5120   16.8360   73.0210 O   0  5  0  0  0  0
  -47.4000   15.4480   72.9730 O   0  0  0  0  0  0
  -48.3870   16.3960   70.7930 O   0  0  0  0  0  0
  -47.7190   15.6340   69.7900 C   0  0  0  0  0  0
  -46.9910   16.4800   68.7390 C   0  0  1  0  0  0
  -47.8500   17.0230   67.7030 O   0  0  0  0  0  0
  -46.1790   17.6620   69.2830 C   0  0  1  0  0  0
  -44.8980   17.1780   69.7010 O   0  0  0  0  0  0
  -46.0780   18.6000   68.0870 C   0  0  1  0  0  0
  -44.9560   18.2210   67.2760 O   0  0  0  0  0  0
  -47.3250   18.3080   67.2590 C   0  0  2  0  0  0
  -48.3820   19.3470   67.4280 N   0  0  0  0  0  0
  -49.4870   19.1920   68.1860 C   0  0  0  0  0  0
  -50.2910   20.2750   68.1310 N   0  0  0  0  0  0
  -49.6960   21.1690   67.3180 C   0  0  0  0  0  0
  -50.0150   22.5460   66.8570 C   0  0  0  0  0  0
  -51.1460   23.1860   67.2440 N   0  0  0  0  0  0
  -49.1320   23.1110   66.0110 N   0  0  0  0  0  0
  -47.9830   22.4900   65.6110 C   0  0  0  0  0  0
  -47.6140   21.2540   66.0120 N   0  0  0  0  0  0
  -48.4320   20.5530   66.8460 C   0  0  0  0  0  0
  -46.9650   14.9872   70.2624 H   0  0  0  0  0  0
  -48.4510   15.0125   69.2534 H   0  0  0  0  0  0
  -46.3344   15.7353   68.2654 H   0  0  0  0  0  0
  -46.5677   18.1584   70.1844 H   0  0  0  0  0  0
  -44.8222   16.4900   70.5559 H   0  0  0  0  0  0
  -45.9304   19.6509   68.3764 H   0  0  0  0  0  0
  -43.9330   18.3398   67.6624 H   0  0  0  0  0  0
  -47.0760   18.2738   66.1881 H   0  0  0  0  0  0
  -49.7046   18.2994   68.7725 H   0  0  0  0  0  0
  -51.8460   22.6955   67.9364 H   0  0  0  0  0  0
  -51.3635   24.1957   66.8655 H   0  0  0  0  0  0
  -47.3239   23.0242   64.9267 H   0  0  0  0  0  0
  1  2  1  0  0  0
  1  3  2  0  0  0
  1  4  1  0  0  0
  1  8  1  0  0  0
  5  6  2  0  0  0
  5  7  1  0  0  0
  5  8  1  0  0  0
  5  9  1  0  0  0
  9 10  1  0  0  0
 10 11  1  0  0  0
 10 28  1  0  0  0
 10 29  1  0  0  0
 11 12  1  0  0  0
 11 13  1  0  0  0
 11 30  1  0  0  0
 12 17  1  0  0  0
 13 14  1  0  0  0
 13 15  1  0  0  0
 13 31  1  0  0  0
 14 32  1  0  0  0
 15 16  1  0  0  0
 15 17  1  0  0  0
 15 33  1  0  0  0
 16 34  1  0  0  0
 17 18  1  0  0  0
 17 35  1  0  0  0
 18 19  1  0  0  0
 18 27  1  0  0  0
 19 20  2  0  0  0
 19 36  1  0  0  0
 20 21  1  0  0  0
 21 22  2  0  0  0
 21 27  1  0  0  0
 22 23  1  0  0  0
 22 24  1  0  0  0
 23 37  1  0  0  0
 23 38  1  0  0  0
 24 25  2  0  0  0
 25 26  1  0  0  0
 25 39  1  0  0  0
 26 27  2  0  0  0
M  CHG  3   2  -1   4  -1   7  -1
M  END
> <s_m_source_file>
../1y8o_ligand.sdf

> <i_m_source_file_index>
1

> <s_epik_input>
W09IXVAoPU8pKFtPSF0pT1tQQEBdKD1PKShbT0hdKU9bQ0gyXVtDQEhdMU9bQ0BIXShbQ0BIXShbT0hdKVtDQEBIXTFbT0hdKW4oW2NIXW4yKWMoYzIzKW5bY0hdbmMzW05IMl0=

> <s_epik_cmdline>
J2VwaWtfYXBwJywgJy1pbWFlJywgJ2xpZ2FuZF9wcm8ubWFlJywgJy1vbWFlJywgJ2xpZ2FuZF9wcmVwLm1hZScsICctbXMnLCAnMScsICctcGgnLCAnNycsICctcGh0JywgJzAuNScsICctbnQn

> <r_lp_tautomer_probability>
0.999997216410988

> <r_epik_Ionization_Penalty>
  0.1037

> <r_epik_Ionization_Penalty_Charging>
  0.1033

> <r_epik_Ionization_Penalty_Neutral>
  0.0004

> <r_epik_State_Penalty>
  0.0922

> <r_epik_Charging_Adjusted_Penalty>
0.19546844050481

> <i_epik_Tot_Q>
-3

> <i_epik_Tot_abs_Q>
3

> <s_epik_Chemistry_Notes>
This compound contains an acetal/aminal-like group ( X-CH(R)-Y where X, Y are N, S, or O) that may be acid/base labile, releasing an aldehyde.

$$$$
