1y8p_ligand
                    3D
 Schrodinger Suite 2020-3.
 43 45  0  0  1  0            999 V2000
  -47.8550   15.8120   76.6320 P   0  0  0  0  0  0
  -47.9620   14.3600   77.0930 O   0  5  0  0  0  0
  -49.0310   16.3230   75.7930 O   0  5  0  0  0  0
  -47.8880   16.4800   77.9770 O   0  0  0  0  0  0
  -46.6300   16.2760   73.9760 P   0  0  2  0  0  0
  -45.5770   16.0090   72.8690 O   0  5  0  0  0  0
  -47.2950   17.6460   73.8200 O   0  0  0  0  0  0
  -46.5340   15.9000   75.5910 O   0  0  0  0  0  0
  -49.0520   15.4760   72.7420 P   0  0  2  0  0  0
  -49.6790   16.6940   73.4630 O   0  5  0  0  0  0
  -49.8250   14.1900   72.7190 O   0  0  0  0  0  0
  -47.6700   15.1550   73.4780 O   0  0  0  0  0  0
  -48.6950   15.7430   71.2030 O   0  0  0  0  0  0
  -47.7080   15.0160   70.5580 C   0  0  0  0  0  0
  -47.1020   15.8040   69.4060 C   0  0  1  0  0  0
  -48.0820   16.2650   68.4820 O   0  0  0  0  0  0
  -46.3720   17.1010   69.8390 C   0  0  1  0  0  0
  -45.0860   16.7610   70.3320 O   0  0  0  0  0  0
  -46.3060   17.9120   68.5780 C   0  0  1  0  0  0
  -45.2860   17.4300   67.7190 O   0  0  0  0  0  0
  -47.5810   17.4840   67.8660 C   0  0  2  0  0  0
  -48.5730   18.5650   68.0390 N   0  0  0  0  0  0
  -49.5830   18.5070   68.8980 C   0  0  0  0  0  0
  -50.3150   19.6460   68.8180 N   0  0  0  0  0  0
  -49.7320   20.4570   67.8980 C   0  0  0  0  0  0
  -49.9960   21.7920   67.3560 C   0  0  0  0  0  0
  -51.0530   22.5380   67.7410 N   0  0  0  0  0  0
  -49.1560   22.2440   66.4370 N   0  0  0  0  0  0
  -48.1080   21.5240   65.9950 C   0  0  0  0  0  0
  -47.8100   20.3110   66.4520 N   0  0  0  0  0  0
  -48.5870   19.7370   67.3880 C   0  0  0  0  0  0
  -46.9081   14.7701   71.2719 H   0  0  0  0  0  0
  -48.1397   14.0872   70.1568 H   0  0  0  0  0  0
  -46.4539   15.0695   68.9055 H   0  0  0  0  0  0
  -46.8037   17.6743   70.6726 H   0  0  0  0  0  0
  -44.9893   16.1665   71.2524 H   0  0  0  0  0  0
  -46.1074   18.9768   68.7698 H   0  0  0  0  0  0
  -44.2287   17.5922   67.9755 H   0  0  0  0  0  0
  -47.4257   17.2774   66.7968 H   0  0  0  0  0  0
  -49.7923   17.6714   69.5659 H   0  0  0  0  0  0
  -51.7465   22.1563   68.5048 H   0  0  0  0  0  0
  -51.2208   23.5276   67.2910 H   0  0  0  0  0  0
  -47.4713   21.9570   65.2235 H   0  0  0  0  0  0
  1  2  1  0  0  0
  1  3  1  0  0  0
  1  4  2  0  0  0
  1  8  1  0  0  0
  5  6  1  0  0  0
  5  7  2  0  0  0
  5  8  1  0  0  0
  5 12  1  0  0  0
  9 10  1  0  0  0
  9 11  2  0  0  0
  9 12  1  0  0  0
  9 13  1  0  0  0
 13 14  1  0  0  0
 14 15  1  0  0  0
 14 32  1  0  0  0
 14 33  1  0  0  0
 15 16  1  0  0  0
 15 17  1  0  0  0
 15 34  1  0  0  0
 16 21  1  0  0  0
 17 18  1  0  0  0
 17 19  1  0  0  0
 17 35  1  0  0  0
 18 36  1  0  0  0
 19 20  1  0  0  0
 19 21  1  0  0  0
 19 37  1  0  0  0
 20 38  1  0  0  0
 21 22  1  0  0  0
 21 39  1  0  0  0
 22 23  1  0  0  0
 22 31  1  0  0  0
 23 24  2  0  0  0
 23 40  1  0  0  0
 24 25  1  0  0  0
 25 26  2  0  0  0
 25 31  1  0  0  0
 26 27  1  0  0  0
 26 28  1  0  0  0
 27 41  1  0  0  0
 27 42  1  0  0  0
 28 29  2  0  0  0
 29 30  1  0  0  0
 29 43  1  0  0  0
 30 31  2  0  0  0
M  CHG  4   2  -1   3  -1   6  -1  10  -1
M  END
> <s_m_source_file>
../1y8p_ligand.sdf

> <i_m_source_file_index>
1

> <s_epik_input>
W09IXVAoPU8pKFtPSF0pT1tQQEBdKD1PKShbT0hdKU9bUEBAXSg9TykoW09IXSlPW0NIMl1bQ0BIXTFPW0NASF0oW0NASF0oW09IXSlbQ0BASF0xW09IXSluKFtjSF1uMiljKGMyMyluW2NIXW5jM1tOSDJd

> <s_epik_cmdline>
J2VwaWtfYXBwJywgJy1pbWFlJywgJ2xpZ2FuZF9wcm8ubWFlJywgJy1vbWFlJywgJ2xpZ2FuZF9wcmVwLm1hZScsICctbXMnLCAnMScsICctcGgnLCAnNycsICctcGh0JywgJzAuNScsICctbnQn

> <r_lp_tautomer_probability>
0.999997216410988

> <r_epik_Ionization_Penalty>
  0.0818

> <r_epik_Ionization_Penalty_Charging>
  0.0813

> <r_epik_Ionization_Penalty_Neutral>
  0.0004

> <r_epik_State_Penalty>
  0.0708

> <r_epik_Charging_Adjusted_Penalty>
0.152157994418768

> <i_epik_Tot_Q>
-4

> <i_epik_Tot_abs_Q>
4

> <s_epik_Chemistry_Notes>
This compound contains an acetal/aminal-like group ( X-CH(R)-Y where X, Y are N, S, or O) that may be acid/base labile, releasing an aldehyde.

$$$$
