1y91_ligand
                    3D
 Schrodinger Suite 2020-3.
 67 70  0  0  1  0            999 V2000
   -2.6880   61.9650   14.0510 N   0  3  0  0  0  0
    5.7680   58.0480    5.9130 C   0  0  0  0  0  0
    7.0200   60.2790    6.6190 S   0  0  0  0  0  0
    6.2790   58.8860    7.0020 N   0  0  0  0  0  0
    6.1040   58.4520    8.3930 C   0  0  0  0  0  0
    7.6140   60.0770    5.2870 O   0  0  0  0  0  0
   -2.4050   62.2520   12.6290 C   0  0  1  0  0  0
   -1.1140   63.0730   12.5240 C   0  0  0  0  0  0
   -0.7830   63.3330   11.0650 C   0  0  0  0  0  0
   -2.2510   60.9320   11.8630 C   0  0  0  0  0  0
   -1.8910   61.2200   10.4060 C   0  0  0  0  0  0
   -0.5900   62.0090   10.3560 C   0  0  1  0  0  0
   -0.4040   62.3440    8.9680 N   0  0  0  0  0  0
    0.1690   63.4270    8.4180 C   0  0  0  0  0  0
    1.3490   63.3660    7.6900 C   0  0  0  0  0  0
   -0.4940   64.5770    8.5140 N   0  0  0  0  0  0
    0.0090   65.6570    7.9420 C   0  0  0  0  0  0
   -0.5190   66.9200    7.9650 C   0  0  0  0  0  0
   -1.7870   67.3040    8.6150 C   0  0  0  0  0  0
   -1.7940   67.6710   10.0740 C   0  0  0  0  0  0
   -2.9750   66.4940    8.2400 C   0  0  0  0  0  0
    0.3630   67.6870    7.2210 C   0  0  0  0  0  0
    1.1210   65.6480    7.2390 N   0  0  0  0  0  0
    1.3610   66.8780    6.7890 N   0  0  0  0  0  0
    1.8390   64.5330    7.0950 C   0  0  0  0  0  0
    2.9990   64.5790    6.3820 N   0  0  0  0  0  0
    3.9160   63.5980    6.4150 C   0  0  0  0  0  0
    4.2020   62.9750    7.6430 C   0  0  0  0  0  0
    5.1560   61.9770    7.6720 C   0  0  0  0  0  0
    4.5830   63.2140    5.2330 C   0  0  0  0  0  0
    5.5370   62.2000    5.2910 C   0  0  0  0  0  0
    5.8180   61.5930    6.5010 C   0  0  0  0  0  0
    7.9370   60.7000    7.6690 O   0  0  0  0  0  0
   -2.7986   62.9112   14.6010 H   0  0  0  0  0  0
   -1.8572   61.3861   14.4806 H   0  0  0  0  0  0
   -3.6189   61.3842   14.1296 H   0  0  0  0  0  0
    5.9875   58.5273    4.9476 H   0  0  0  0  0  0
    4.6803   57.9266    6.0232 H   0  0  0  0  0  0
    6.2528   57.0614    5.9511 H   0  0  0  0  0  0
    5.5791   57.4855    8.4122 H   0  0  0  0  0  0
    5.5125   59.2015    8.9393 H   0  0  0  0  0  0
    7.0893   58.3437    8.8700 H   0  0  0  0  0  0
   -3.2531   62.8256   12.2269 H   0  0  0  0  0  0
   -1.2475   64.0341   13.0422 H   0  0  0  0  0  0
   -0.2870   62.5171   12.9898 H   0  0  0  0  0  0
   -1.6087   63.8872   10.5948 H   0  0  0  0  0  0
    0.1411   63.9260   10.9987 H   0  0  0  0  0  0
   -1.4526   60.3317   12.3237 H   0  0  0  0  0  0
   -3.1979   60.3735   11.9008 H   0  0  0  0  0  0
   -1.7671   60.2706    9.8644 H   0  0  0  0  0  0
   -2.6957   61.8065    9.9385 H   0  0  0  0  0  0
    0.2603   61.4435   10.7649 H   0  0  0  0  0  0
   -0.7587   61.6583    8.1844 H   0  0  0  0  0  0
    1.8856   62.4232    7.5836 H   0  0  0  0  0  0
   -1.8727   68.2751    8.1054 H   0  0  0  0  0  0
   -0.8997   68.2680   10.3062 H   0  0  0  0  0  0
   -1.7914   66.7547   10.6826 H   0  0  0  0  0  0
   -2.6960   68.2587   10.2999 H   0  0  0  0  0  0
   -2.9286   66.2493    7.1686 H   0  0  0  0  0  0
   -3.8902   67.0685    8.4456 H   0  0  0  0  0  0
   -2.9856   65.5646    8.8283 H   0  0  0  0  0  0
    0.2705   68.7540    7.0186 H   0  0  0  0  0  0
    3.2179   65.4474    5.7433 H   0  0  0  0  0  0
    3.6815   63.2737    8.5529 H   0  0  0  0  0  0
    5.3951   61.4846    8.6146 H   0  0  0  0  0  0
    4.3551   63.7041    4.2864 H   0  0  0  0  0  0
    6.0591   61.8869    4.3869 H   0  0  0  0  0  0
  1  7  1  0  0  0
  1 34  1  0  0  0
  1 35  1  0  0  0
  1 36  1  0  0  0
  2  4  1  0  0  0
  2 37  1  0  0  0
  2 38  1  0  0  0
  2 39  1  0  0  0
  3  4  1  0  0  0
  3  6  2  0  0  0
  3 32  1  0  0  0
  3 33  2  0  0  0
  4  5  1  0  0  0
  5 40  1  0  0  0
  5 41  1  0  0  0
  5 42  1  0  0  0
  7  8  1  0  0  0
  7 10  1  0  0  0
  7 43  1  0  0  0
  8  9  1  0  0  0
  8 44  1  0  0  0
  8 45  1  0  0  0
  9 12  1  0  0  0
  9 46  1  0  0  0
  9 47  1  0  0  0
 10 11  1  0  0  0
 10 48  1  0  0  0
 10 49  1  0  0  0
 11 12  1  0  0  0
 11 50  1  0  0  0
 11 51  1  0  0  0
 12 13  1  0  0  0
 12 52  1  0  0  0
 13 14  1  0  0  0
 13 53  1  0  0  0
 14 15  1  0  0  0
 14 16  2  0  0  0
 15 25  2  0  0  0
 15 54  1  0  0  0
 16 17  1  0  0  0
 17 18  2  0  0  0
 17 23  1  0  0  0
 18 19  1  0  0  0
 18 22  1  0  0  0
 19 20  1  0  0  0
 19 21  1  0  0  0
 19 55  1  0  0  0
 20 56  1  0  0  0
 20 57  1  0  0  0
 20 58  1  0  0  0
 21 59  1  0  0  0
 21 60  1  0  0  0
 21 61  1  0  0  0
 22 24  2  0  0  0
 22 62  1  0  0  0
 23 24  1  0  0  0
 23 25  1  0  0  0
 25 26  1  0  0  0
 26 27  1  0  0  0
 26 63  1  0  0  0
 27 28  2  0  0  0
 27 30  1  0  0  0
 28 29  1  0  0  0
 28 64  1  0  0  0
 29 32  2  0  0  0
 29 65  1  0  0  0
 30 31  2  0  0  0
 30 66  1  0  0  0
 31 32  1  0  0  0
 31 67  1  0  0  0
M  CHG  1   1   1
M  END
> <s_m_source_file>
../1y91_ligand.sdf

> <i_m_source_file_index>
1

> <s_epik_input>
W05IMytdW0NASF0xW0NIMl1bQ0gyXVtDQEBIXShbQ0gyXVtDSDJdMSlbTkhdYyhuMilbY0hdYyhuKGMyMyluW2NIXWMzW0NIXShbQ0gzXSlbQ0gzXSlbTkhdYzRbY0hdW2NIXWMoW2NIXVtjSF00KVMoPU8pKD1PKU4oW0NIM10pW0NIM10=

> <s_epik_cmdline>
J2VwaWtfYXBwJywgJy1pbWFlJywgJ2xpZ2FuZF9wcm8ubWFlJywgJy1vbWFlJywgJ2xpZ2FuZF9wcmVwLm1hZScsICctbXMnLCAnMScsICctcGgnLCAnNycsICctcGh0JywgJzAuNScsICctbnQn

> <r_lp_tautomer_probability>
1

> <r_epik_Ionization_Penalty>
  0.0003

> <r_epik_Ionization_Penalty_Charging>
  0.0002

> <r_epik_Ionization_Penalty_Neutral>
  0.0000

> <r_epik_State_Penalty>
 -0.0000

> <r_epik_Charging_Adjusted_Penalty>
0.000233472693678441

> <i_epik_Tot_Q>
1

> <i_epik_Tot_abs_Q>
1

$$$$
