1y98_ligand
                    3D
 Schrodinger Suite 2020-3.
179181  0  0  1  0            999 V2000
  -33.7390   64.5120   -1.2330 N   0  3  0  0  0  0
  -32.7470   64.1010   -0.2060 C   0  0  2  0  0  0
  -33.3750   63.7730    1.1800 C   0  0  0  0  0  0
  -34.1060   64.6180    1.7370 O   0  0  0  0  0  0
  -31.7840   65.3150   -0.1130 C   0  0  0  0  0  0
  -32.0320   66.1330   -1.4140 C   0  0  0  0  0  0
  -33.4950   65.8730   -1.7590 C   0  0  0  0  0  0
  -33.1070   62.5610    1.7060 N   0  0  0  0  0  0
  -33.5740   62.1340    3.0570 C   0  0  2  0  0  0
  -32.5920   61.2210    3.8300 C   0  0  0  0  0  0
  -32.1210   61.6050    4.9020 O   0  0  0  0  0  0
  -34.8270   61.5300    3.6350 C   0  0  2  0  0  0
  -35.2650   60.5380    2.6600 O   0  0  0  0  0  0
  -35.9360   62.3130    4.4930 C   0  0  0  0  0  0
  -32.2940   60.0440    3.2550 N   0  0  0  0  0  0
  -31.5180   58.9110    3.8480 C   0  0  2  0  0  0
  -32.2790   58.0560    4.8640 C   0  0  0  0  0  0
  -32.6250   58.4940    5.9590 O   0  0  0  0  0  0
  -30.1390   59.2890    4.3850 C   0  0  0  0  0  0
  -29.3300   58.0610    4.8030 C   0  0  0  0  0  0
  -28.1880   58.4470    5.6870 C   0  0  0  0  0  0
  -27.9050   57.3940    6.6470 N   0  0  0  0  0  0
  -27.2010   57.5600    7.7610 C   0  0  0  0  0  0
  -26.7000   58.7360    8.0460 N   0  0  0  0  0  0
  -26.9990   56.5520    8.5900 N   0  0  0  0  0  0
  -32.4850   56.8080    4.4790 N   0  0  0  0  0  0
  -33.4840   55.9610    5.1040 C   0  0  2  0  0  0
  -32.8700   54.8930    6.0410 C   0  0  0  0  0  0
  -33.4700   54.5410    7.0810 O   0  0  0  0  0  0
  -34.4950   55.4330    4.0210 C   0  0  0  0  0  0
  -33.9540   55.6840    2.6010 C   0  0  0  0  0  0
  -34.9030   53.9690    4.2540 C   0  0  0  0  0  0
  -31.6750   54.4160    5.6810 N   0  0  0  0  0  0
  -30.8730   53.5500    6.5480 C   0  0  2  0  0  0
  -29.3360   53.7980    6.4550 C   0  0  0  0  0  0
  -28.8010   54.6720    7.1450 O   0  0  0  0  0  0
  -31.2380   52.0650    6.3450 C   0  0  0  0  0  0
  -30.6040   51.2510    7.3290 O   0  0  0  0  0  0
  -28.6410   53.0340    5.6160 N   0  0  0  0  0  0
  -27.1760   53.1010    5.5190 C   0  0  1  0  0  0
  -26.6640   51.8890    4.7460 C   0  0  0  0  0  0
  -26.9270   50.7410    5.5060 O   0  0  0  0  0  0
  -26.6520   54.4070    4.8700 C   0  0  0  0  0  0
  -27.2990   54.9570    3.9690 O   0  0  0  0  0  0
  -27.8310   49.6530    4.7720 P   0  0  0  0  0  0
  -27.1130   49.0530    3.4780 O   0  0  0  0  0  0
  -29.2180   50.3690    4.3330 O   0  0  0  0  0  0
  -28.1070   48.4660    5.8200 O   0  0  0  0  0  0
  -25.5090   54.9310    5.3450 N   0  0  0  0  0  0
  -24.8960   56.0290    4.6020 C   0  0  2  0  0  0
  -24.8620   55.8210    3.0790 C   0  0  0  0  0  0
  -24.6930   54.7040    2.5880 O   0  0  0  0  0  0
  -23.4700   56.1140    5.1920 C   0  0  0  0  0  0
  -23.3590   54.9990    6.2240 C   0  0  0  0  0  0
  -24.7760   54.6420    6.5870 C   0  0  0  0  0  0
  -25.0370   56.9170    2.3470 N   0  0  0  0  0  0
  -25.1010   56.8860    0.8810 C   0  0  2  0  0  0
  -23.8540   57.5630    0.2950 C   0  0  0  0  0  0
  -23.2510   58.4140    0.9580 O   0  0  0  0  0  0
  -26.4400   57.4940    0.3780 C   0  0  0  0  0  0
  -26.4100   57.7750   -1.1200 C   0  0  0  0  0  0
  -27.5580   56.5470    0.7100 C   0  0  0  0  0  0
  -23.4360   57.1460   -0.9070 N   0  0  0  0  0  0
  -22.2130   57.7130   -1.5350 C   0  0  2  0  0  0
  -22.5010   58.3840   -2.8570 C   0  0  0  0  0  0
  -22.6370   57.7380   -3.9140 O   0  0  0  0  0  0
  -21.0740   56.6910   -1.6160 C   0  0  0  0  0  0
  -20.6610   56.1730   -0.2660 C   0  0  0  0  0  0
  -19.7570   56.8870    0.5150 C   0  0  0  0  0  0
  -21.2260   55.0010    0.2450 C   0  0  0  0  0  0
  -19.3990   56.4370    1.7590 C   0  0  0  0  0  0
  -20.8800   54.5430    1.4900 C   0  0  0  0  0  0
  -19.9710   55.2460    2.2500 C   0  0  0  0  0  0
  -22.6020   59.7010   -2.7620 N   0  0  0  0  0  0
  -23.2550   60.4700   -3.7970 C   0  0  0  0  0  0
  -22.3670   61.3460   -4.6460 C   0  0  0  0  0  0
  -21.1590   61.4230   -4.4130 O   0  0  0  0  0  0
  -22.9940   62.0010   -5.6330 N   0  0  0  0  0  0
  -22.3560   63.0090   -6.5110 C   0  0  2  0  0  0
  -20.9750   63.4900   -6.0080 C   0  0  0  0  0  0
  -20.8190   63.9690   -4.8650 O   0  0  0  0  0  0
  -23.3120   64.2050   -6.7700 C   0  0  0  0  0  0
  -19.9970   63.3380   -6.9010 N   0  0  0  0  0  0
  -18.5660   63.4440   -6.6000 C   0  0  2  0  0  0
  -18.1240   64.8710   -6.1920 C   0  0  0  0  0  0
  -18.4460   65.8650   -6.8600 O   0  0  0  0  0  0
  -17.7110   62.8200   -7.7880 C   0  0  2  0  0  0
  -16.3050   62.8900   -7.4900 O   0  0  0  0  0  0
  -18.0310   63.4690   -9.1790 C   0  0  0  0  0  0
  -17.4600   65.0770   -5.1620 O   0  0  0  0  0  0
  -33.6990   63.8133   -2.0817 H   0  0  0  0  0  0
  -34.7477   64.4988   -0.7945 H   0  0  0  0  0  0
  -32.2723   63.1640   -0.5326 H   0  0  0  0  0  0
  -32.0212   65.9031    0.7858 H   0  0  0  0  0  0
  -30.7460   64.9559   -0.0528 H   0  0  0  0  0  0
  -31.8405   67.1986   -1.2192 H   0  0  0  0  0  0
  -31.3555   65.7776   -2.2052 H   0  0  0  0  0  0
  -33.6773   65.8850   -2.8437 H   0  0  0  0  0  0
  -34.1737   66.5841   -1.2653 H   0  0  0  0  0  0
  -32.5128   61.8730    1.0866 H   0  0  0  0  0  0
  -33.7687   63.2166    3.0570 H   0  0  0  0  0  0
  -34.4473   61.0199    4.5326 H   0  0  0  0  0  0
  -34.5225   59.9899    2.0615 H   0  0  0  0  0  0
  -35.4404   63.0189    5.1757 H   0  0  0  0  0  0
  -36.5252   61.5906    5.0769 H   0  0  0  0  0  0
  -36.6020   62.8657    3.8141 H   0  0  0  0  0  0
  -32.6924   59.9623    2.2329 H   0  0  0  0  0  0
  -31.3699   58.2960    2.9481 H   0  0  0  0  0  0
  -29.5754   59.8221    3.6052 H   0  0  0  0  0  0
  -30.2537   59.9399    5.2643 H   0  0  0  0  0  0
  -29.9799   57.3630    5.3511 H   0  0  0  0  0  0
  -28.9300   57.5631    3.9074 H   0  0  0  0  0  0
  -27.2915   58.6198    5.0734 H   0  0  0  0  0  0
  -28.4417   59.3677    6.2329 H   0  0  0  0  0  0
  -28.2831   56.3756    6.4738 H   0  0  0  0  0  0
  -26.8618   59.5829    7.3630 H   0  0  0  0  0  0
  -27.4150   55.5597    8.3610 H   0  0  0  0  0  0
  -26.4148   56.7047    9.5095 H   0  0  0  0  0  0
  -31.8689   56.4165    3.6561 H   0  0  0  0  0  0
  -34.0215   56.6297    5.7924 H   0  0  0  0  0  0
  -35.4359   55.9964    4.1065 H   0  0  0  0  0  0
  -33.6800   56.7441    2.4951 H   0  0  0  0  0  0
  -34.7293   55.4302    1.8631 H   0  0  0  0  0  0
  -33.0663   55.0570    2.4307 H   0  0  0  0  0  0
  -35.2797   53.8523    5.2809 H   0  0  0  0  0  0
  -34.0291   53.3171    4.1077 H   0  0  0  0  0  0
  -35.6921   53.6902    3.5401 H   0  0  0  0  0  0
  -31.2987   54.6994    4.6870 H   0  0  0  0  0  0
  -31.1921   53.8699    7.5509 H   0  0  0  0  0  0
  -32.3277   51.9405    6.4291 H   0  0  0  0  0  0
  -30.9076   51.7392    5.3476 H   0  0  0  0  0  0
  -30.7605   50.1622    7.3261 H   0  0  0  0  0  0
  -29.2028   52.3334    4.9807 H   0  0  0  0  0  0
  -26.8372   53.0797    6.5653 H   0  0  0  0  0  0
  -27.1808   51.8271    3.7769 H   0  0  0  0  0  0
  -25.5817   51.9914    4.5785 H   0  0  0  0  0  0
  -29.2033   51.2045    3.6177 H   0  0  0  0  0  0
  -27.2673   47.8775    6.2181 H   0  0  0  0  0  0
  -25.5179   56.9255    4.7415 H   0  0  0  0  0  0
  -22.7318   55.9790    4.3877 H   0  0  0  0  0  0
  -23.3253   57.0984    5.6610 H   0  0  0  0  0  0
  -22.8299   54.1418    5.7821 H   0  0  0  0  0  0
  -22.8004   55.3633    7.0988 H   0  0  0  0  0  0
  -25.1761   55.2632    7.4019 H   0  0  0  0  0  0
  -24.8948   53.5791    6.8440 H   0  0  0  0  0  0
  -25.1353   57.8733    2.8817 H   0  0  0  0  0  0
  -25.0785   55.8288    0.5781 H   0  0  0  0  0  0
  -26.6294   58.4552    0.8782 H   0  0  0  0  0  0
  -25.5871   58.4690   -1.3465 H   0  0  0  0  0  0
  -27.3650   58.2258   -1.4277 H   0  0  0  0  0  0
  -26.2562   56.8330   -1.6667 H   0  0  0  0  0  0
  -27.5661   56.3546    1.7930 H   0  0  0  0  0  0
  -27.4088   55.6001    0.1705 H   0  0  0  0  0  0
  -28.5176   56.9929    0.4096 H   0  0  0  0  0  0
  -24.0141   56.3704   -1.4307 H   0  0  0  0  0  0
  -21.8876   58.5159   -0.8572 H   0  0  0  0  0  0
  -21.3952   55.8314   -2.2225 H   0  0  0  0  0  0
  -20.1937   57.1591   -2.0806 H   0  0  0  0  0  0
  -19.3292   57.8140    0.1332 H   0  0  0  0  0  0
  -21.9490   54.4456   -0.3524 H   0  0  0  0  0  0
  -18.6808   56.9933    2.3613 H   0  0  0  0  0  0
  -21.3228   53.6254    1.8774 H   0  0  0  0  0  0
  -19.6923   54.8787    3.2377 H   0  0  0  0  0  0
  -22.1814   60.2092   -1.8817 H   0  0  0  0  0  0
  -23.7615   59.7882   -4.4960 H   0  0  0  0  0  0
  -23.9951   61.1442   -3.3412 H   0  0  0  0  0  0
  -24.0551   61.7453   -5.7698 H   0  0  0  0  0  0
  -22.1790   62.4530   -7.4435 H   0  0  0  0  0  0
  -24.2824   63.8284   -7.1257 H   0  0  0  0  0  0
  -22.8737   64.8664   -7.5319 H   0  0  0  0  0  0
  -23.4570   64.7674   -5.8358 H   0  0  0  0  0  0
  -20.3285   63.1182   -7.9266 H   0  0  0  0  0  0
  -18.4520   62.8511   -5.6805 H   0  0  0  0  0  0
  -17.8970   61.7385   -7.8645 H   0  0  0  0  0  0
  -15.9216   62.4755   -6.5460 H   0  0  0  0  0  0
  -19.1109   63.3994   -9.3763 H   0  0  0  0  0  0
  -17.4791   62.9366   -9.9676 H   0  0  0  0  0  0
  -17.7275   64.5263   -9.1688 H   0  0  0  0  0  0
  -17.1598   66.1015   -4.8968 H   0  0  0  0  0  0
  1  2  1  0  0  0
  1  7  1  0  0  0
  1 91  1  0  0  0
  1 92  1  0  0  0
  2  3  1  0  0  0
  2  5  1  0  0  0
  2 93  1  0  0  0
  3  4  2  0  0  0
  3  8  1  0  0  0
  5  6  1  0  0  0
  5 94  1  0  0  0
  5 95  1  0  0  0
  6  7  1  0  0  0
  6 96  1  0  0  0
  6 97  1  0  0  0
  7 98  1  0  0  0
  7 99  1  0  0  0
  8  9  1  0  0  0
  8100  1  0  0  0
  9 10  1  0  0  0
  9 12  1  0  0  0
  9101  1  0  0  0
 10 11  2  0  0  0
 10 15  1  0  0  0
 12 13  1  0  0  0
 12 14  1  0  0  0
 12102  1  0  0  0
 13103  1  0  0  0
 14104  1  0  0  0
 14105  1  0  0  0
 14106  1  0  0  0
 15 16  1  0  0  0
 15107  1  0  0  0
 16 17  1  0  0  0
 16 19  1  0  0  0
 16108  1  0  0  0
 17 18  2  0  0  0
 17 26  1  0  0  0
 19 20  1  0  0  0
 19109  1  0  0  0
 19110  1  0  0  0
 20 21  1  0  0  0
 20111  1  0  0  0
 20112  1  0  0  0
 21 22  1  0  0  0
 21113  1  0  0  0
 21114  1  0  0  0
 22 23  1  0  0  0
 22115  1  0  0  0
 23 24  2  0  0  0
 23 25  1  0  0  0
 24116  1  0  0  0
 25117  1  0  0  0
 25118  1  0  0  0
 26 27  1  0  0  0
 26119  1  0  0  0
 27 28  1  0  0  0
 27 30  1  0  0  0
 27120  1  0  0  0
 28 29  2  0  0  0
 28 33  1  0  0  0
 30 31  1  0  0  0
 30 32  1  0  0  0
 30121  1  0  0  0
 31122  1  0  0  0
 31123  1  0  0  0
 31124  1  0  0  0
 32125  1  0  0  0
 32126  1  0  0  0
 32127  1  0  0  0
 33 34  1  0  0  0
 33128  1  0  0  0
 34 35  1  0  0  0
 34 37  1  0  0  0
 34129  1  0  0  0
 35 36  2  0  0  0
 35 39  1  0  0  0
 37 38  1  0  0  0
 37130  1  0  0  0
 37131  1  0  0  0
 38132  1  0  0  0
 39 40  1  0  0  0
 39133  1  0  0  0
 40 41  1  0  0  0
 40 43  1  0  0  0
 40134  1  0  0  0
 41 42  1  0  0  0
 41135  1  0  0  0
 41136  1  0  0  0
 42 45  1  0  0  0
 43 44  2  0  0  0
 43 49  1  0  0  0
 45 46  2  0  0  0
 45 47  1  0  0  0
 45 48  1  0  0  0
 47137  1  0  0  0
 48138  1  0  0  0
 49 50  1  0  0  0
 49 55  1  0  0  0
 50 51  1  0  0  0
 50 53  1  0  0  0
 50139  1  0  0  0
 51 52  2  0  0  0
 51 56  1  0  0  0
 53 54  1  0  0  0
 53140  1  0  0  0
 53141  1  0  0  0
 54 55  1  0  0  0
 54142  1  0  0  0
 54143  1  0  0  0
 55144  1  0  0  0
 55145  1  0  0  0
 56 57  1  0  0  0
 56146  1  0  0  0
 57 58  1  0  0  0
 57 60  1  0  0  0
 57147  1  0  0  0
 58 59  2  0  0  0
 58 63  1  0  0  0
 60 61  1  0  0  0
 60 62  1  0  0  0
 60148  1  0  0  0
 61149  1  0  0  0
 61150  1  0  0  0
 61151  1  0  0  0
 62152  1  0  0  0
 62153  1  0  0  0
 62154  1  0  0  0
 63 64  1  0  0  0
 63155  1  0  0  0
 64 65  1  0  0  0
 64 67  1  0  0  0
 64156  1  0  0  0
 65 66  2  0  0  0
 65 74  1  0  0  0
 67 68  1  0  0  0
 67157  1  0  0  0
 67158  1  0  0  0
 68 69  2  0  0  0
 68 70  1  0  0  0
 69 71  1  0  0  0
 69159  1  0  0  0
 70 72  2  0  0  0
 70160  1  0  0  0
 71 73  2  0  0  0
 71161  1  0  0  0
 72 73  1  0  0  0
 72162  1  0  0  0
 73163  1  0  0  0
 74 75  1  0  0  0
 74164  1  0  0  0
 75 76  1  0  0  0
 75165  1  0  0  0
 75166  1  0  0  0
 76 77  2  0  0  0
 76 78  1  0  0  0
 78 79  1  0  0  0
 78167  1  0  0  0
 79 80  1  0  0  0
 79 82  1  0  0  0
 79168  1  0  0  0
 80 81  2  0  0  0
 80 83  1  0  0  0
 82169  1  0  0  0
 82170  1  0  0  0
 82171  1  0  0  0
 83 84  1  0  0  0
 83172  1  0  0  0
 84 85  1  0  0  0
 84 87  1  0  0  0
 84173  1  0  0  0
 85 86  2  0  0  0
 85 90  1  0  0  0
 87 88  1  0  0  0
 87 89  1  0  0  0
 87174  1  0  0  0
 88175  1  0  0  0
 89176  1  0  0  0
 89177  1  0  0  0
 89178  1  0  0  0
 90179  1  0  0  0
M  CHG  1   1   1
M  END
> <s_m_source_file>
../1y98_ligand.sdf

> <i_m_source_file_index>
1

> <s_epik_input>
W0NIMl0xW0NIMl1bQ0gyXVtOSDIrXVtDQEBIXTFDKD1PKVtOSF1bQ0BASF0oW0NASF0oW09IXSlbQ0gzXSlDKD1PKVtOSF1bQ0BASF0oW0NIMl1bQ0gyXVtDSDJdW05IXS9DKD1OXFtIXSlbTkgyXSlDKD1PKVtOSF1bQ0BASF0oW0NIXShbQ0gzXSlbQ0gzXSlDKD1PKVtOSF1bQ0BASF0oW0NIMl1bT0hdKUMoPU8pW05IXVtDQEBIXShbQ0gyXU9QKD1PKShbT0hdKVtPSF0pQyg9TylOMltDQEBIXShbQ0gyXVtDSDJdW0NIMl0yKUMoPU8pW05IXVtDQEBIXShbQ0hdKFtDSDNdKVtDSDNdKUMoPU8pW05IXVtDQEBIXShbQ0gyXWMzW2NIXVtjSF1bY0hdW2NIXVtjSF0zKUMoPU8pW05IXVtDSDJdQyg9TylbTkhdW0NAQEhdKFtDSDNdKUMoPU8pW05IXVtDQEhdKEMoPU8pW09IXSlbQ0BIXShbT0hdKVtDSDNd

> <s_epik_cmdline>
J2VwaWtfYXBwJywgJy1pbWFlJywgJ2xpZ2FuZF9wcm8ubWFlJywgJy1vbWFlJywgJ2xpZ2FuZF9wcmVwLm1hZScsICctbXMnLCAnMScsICctcGgnLCAnNycsICctcGh0JywgJzAuNScsICctbnQn

> <s_epik_pKa_notes>
Molecule size exceeds maximum supported for generating protonation states

> <s_epik_Chemistry_Notes>
This compound has an imine and may undergo hydrolysis.

$$$$
